0
                    3D
 Structure written by MMmdl.
166176  0  0  1  0            999 V2000
  -30.6884  -14.4276   20.6508 C   0  0  0  0  0  0
  -30.4207  -12.3023   19.4181 C   0  0  0  0  0  0
  -29.4983  -12.5614   18.2090 C   0  0  0  0  0  0
  -28.0153  -12.4273   18.6032 C   0  0  0  0  0  0
  -27.6658  -13.2083   19.8970 C   0  0  2  0  0  0
  -28.6991  -12.9342   21.0119 C   0  0  0  0  0  0
  -25.2601  -13.8169   20.5742 C   0  0  0  0  0  0
  -24.1868  -13.0440   20.9194 C   0  0  0  0  0  0
  -24.6410  -11.6906   20.8735 C   0  0  0  0  0  0
  -23.9072  -10.4304   21.0410 C   0  0  0  0  0  0
  -24.3632   -9.4230   21.9192 C   0  0  0  0  0  0
  -23.6311   -8.2268   22.0771 C   0  0  0  0  0  0
  -22.4294   -8.0292   21.3569 C   0  0  0  0  0  0
  -21.9933   -9.0243   20.4657 C   0  0  0  0  0  0
  -22.7247  -10.2118   20.3061 C   0  0  0  0  0  0
  -21.6863   -6.0778   22.5320 C   0  0  0  0  0  0
  -21.3999   -6.5676   23.8259 C   0  0  0  0  0  0
  -21.3673   -5.6831   24.9210 C   0  0  0  0  0  0
  -21.6042   -4.3094   24.7254 C   0  0  0  0  0  0
  -21.8816   -3.8190   23.4377 C   0  0  0  0  0  0
  -21.9177   -4.7012   22.3431 C   0  0  0  0  0  0
  -22.7900  -13.5233   21.1892 C   0  0  0  0  0  0
  -22.1660   -4.2201   21.1016 F   0  0  0  0  0  0
  -21.5611   -3.4572   25.7773 F   0  0  0  0  0  0
  -30.0392  -13.2493   20.4788 N   0  0  0  0  0  0
  -26.3045  -12.9339   20.3459 N   0  0  0  0  0  0
  -25.9326  -11.6487   20.5762 N   0  0  0  0  0  0
  -22.0532  -12.8180   22.0399 N   0  0  0  0  0  0
  -25.4235  -15.1912   20.4127 N   0  0  0  0  0  0
  -31.7568  -14.6978   20.0865 O   0  0  0  0  0  0
  -21.6645   -6.8904   21.4271 O   0  0  0  0  0  0
  -22.3618  -14.5593   20.6809 O   0  0  0  0  0  0
  -24.6127  -31.8701   23.2068 C   0  0  0  0  0  0
  -25.9036  -32.4824   23.8355 C   0  0  1  0  0  0
  -27.2399  -27.4570   20.0968 C   0  0  0  0  0  0
  -25.5847  -33.8619   24.2284 N   0  0  0  0  0  0
  -23.3955  -30.4940   21.5548 C   0  0  2  0  0  0
  -24.8441  -28.9544   20.1205 C   0  0  0  0  0  0
  -22.7341  -29.4695   22.5011 C   0  0  0  0  0  0
  -18.0273  -28.1373   22.8525 C   0  0  0  0  0  0
  -24.1453  -36.7332   23.2654 C   0  0  0  0  0  0
  -25.9230  -30.8326   21.3647 C   0  0  0  0  0  0
  -26.0026  -29.4674   20.7212 C   0  0  0  0  0  0
  -27.2018  -28.7223   20.7235 C   0  0  0  0  0  0
  -26.0769  -26.9576   19.4771 C   0  0  0  0  0  0
  -24.8748  -27.6906   19.5020 C   0  0  0  0  0  0
  -23.6013  -29.8216   20.1731 C   0  0  0  0  0  0
  -25.4057  -36.3106   24.0347 C   0  0  1  0  0  0
  -20.5845  -28.3664   23.1340 C   0  0  2  0  0  0
  -20.6758  -26.9394   22.5437 C   0  0  0  0  0  0
  -19.5737  -26.6388   21.5233 C   0  0  0  0  0  0
  -18.1921  -26.7925   22.1631 C   0  0  0  0  0  0
  -19.1513  -28.8825   23.2950 C   0  0  0  0  0  0
  -18.9449  -30.1436   23.8942 C   0  0  0  0  0  0
  -17.6441  -30.6578   24.0585 C   0  0  0  0  0  0
  -25.8999  -34.9483   23.5119 C   0  0  0  0  0  0
  -16.5331  -29.9095   23.6346 C   0  0  0  0  0  0
  -16.7275  -28.6509   23.0366 C   0  0  0  0  0  0
  -26.4449  -31.6613   25.0684 C   0  0  0  0  0  0
  -25.3724  -31.3698   26.1448 C   0  0  0  0  0  0
  -27.0275  -30.3041   24.6055 C   0  0  0  0  0  0
  -27.5978  -32.4373   25.7504 C   0  0  0  0  0  0
  -27.5557  -37.1811   24.8458 C   0  0  0  0  0  0
  -21.4064  -29.3027   22.3727 N   0  0  0  0  0  0
  -26.4248  -37.3799   23.9418 N   0  0  0  0  0  0
  -24.6640  -31.0767   22.1008 N   0  0  0  0  0  0
  -23.4085  -28.8309   23.3152 O   0  0  0  0  0  0
  -28.3652  -26.6677   20.0643 O   0  0  0  0  0  0
  -26.5584  -34.8969   22.4684 O   0  0  0  0  0  0
  -23.5339  -32.1509   23.7432 O   0  0  0  0  0  0
  -28.3090  -21.8749   22.2024 C   0  0  0  0  0  0
  -27.6344  -21.2229   21.1569 C   0  0  0  0  0  0
  -26.7906  -22.0505   20.3757 C   0  0  0  0  0  0
  -27.3407  -23.8575   21.6649 C   0  0  0  0  0  0
  -26.6538  -21.0317   17.9641 C   0  0  0  0  0  0
  -26.0184  -22.3967   17.8996 C   0  0  0  0  0  0
  -29.8916  -17.4171   22.7702 C   0  0  0  0  0  0
  -25.9798  -21.6006   19.1922 C   0  0  0  0  0  0
  -30.2114  -16.7463   21.4486 C   0  0  2  0  0  0
  -28.9577  -17.6153   21.5982 C   0  0  2  0  0  0
  -27.6802  -19.6852   21.0187 C   0  0  0  0  0  0
  -29.0486  -26.4088   21.2967 C   0  0  0  0  0  0
  -28.1210  -25.9745   22.4519 C   0  0  0  0  0  0
  -28.1794  -23.1915   22.4445 N   0  0  0  0  0  0
  -26.6326  -23.3534   20.6716 N   0  0  0  0  0  0
  -30.0181  -15.3255   21.3916 N   0  0  0  0  0  0
  -29.0157  -19.0121   21.0783 N   0  3  0  0  0  0
  -27.0766  -25.1482   21.9378 O   0  0  0  0  0  0
  -31.4711  -12.3955   19.1311 H   0  0  0  0  0  0
  -30.2912  -11.2752   19.7640 H   0  0  0  0  0  0
  -29.7231  -11.8724   17.3967 H   0  0  0  0  0  0
  -29.6813  -13.5635   17.8153 H   0  0  0  0  0  0
  -27.7846  -11.3702   18.7200 H   0  0  0  0  0  0
  -27.3882  -12.7834   17.7855 H   0  0  0  0  0  0
  -27.7202  -14.2700   19.6588 H   0  0  0  0  0  0
  -28.6698  -11.8866   21.3161 H   0  0  0  0  0  0
  -28.4453  -13.4934   21.9119 H   0  0  0  0  0  0
  -25.2787   -9.5728   22.4747 H   0  0  0  0  0  0
  -24.0049   -7.4671   22.7495 H   0  0  0  0  0  0
  -21.0874   -8.8724   19.8946 H   0  0  0  0  0  0
  -22.3707  -10.9634   19.6158 H   0  0  0  0  0  0
  -21.1973   -7.6176   23.9775 H   0  0  0  0  0  0
  -21.1499   -6.0563   25.9111 H   0  0  0  0  0  0
  -22.0555   -2.7652   23.2886 H   0  0  0  0  0  0
  -22.4144  -11.9770   22.4669 H   0  0  0  0  0  0
  -21.1147  -13.1175   22.2652 H   0  0  0  0  0  0
  -24.6292  -15.8177   20.4799 H   0  0  0  0  0  0
  -26.2572  -15.6343   20.0479 H   0  0  0  0  0  0
  -26.7078  -32.5539   23.1105 H   0  0  0  0  0  0
  -24.9938  -33.9745   25.0379 H   0  0  0  0  0  0
  -22.6896  -31.3167   21.4152 H   0  0  0  0  0  0
  -23.3685  -35.9690   23.3285 H   0  0  0  0  0  0
  -24.3588  -36.8980   22.2084 H   0  0  0  0  0  0
  -23.7235  -37.6532   23.6689 H   0  0  0  0  0  0
  -26.0284  -31.5913   20.5899 H   0  0  0  0  0  0
  -26.8140  -30.8878   21.9774 H   0  0  0  0  0  0
  -28.0912  -29.1160   21.1986 H   0  0  0  0  0  0
  -26.0980  -25.9840   19.0041 H   0  0  0  0  0  0
  -23.9868  -27.2774   19.0455 H   0  0  0  0  0  0
  -23.7041  -30.6043   19.4227 H   0  0  0  0  0  0
  -22.7121  -29.2636   19.8715 H   0  0  0  0  0  0
  -25.1226  -36.1943   25.0838 H   0  0  0  0  0  0
  -20.9979  -28.3260   24.1450 H   0  0  0  0  0  0
  -20.5735  -26.2264   23.3620 H   0  0  0  0  0  0
  -21.6640  -26.7544   22.1169 H   0  0  0  0  0  0
  -19.6919  -25.6329   21.1229 H   0  0  0  0  0  0
  -19.6657  -27.3251   20.6791 H   0  0  0  0  0  0
  -17.4190  -26.6727   21.4004 H   0  0  0  0  0  0
  -18.0315  -26.0034   22.8993 H   0  0  0  0  0  0
  -19.7934  -30.7256   24.2274 H   0  0  0  0  0  0
  -17.5015  -31.6281   24.5178 H   0  0  0  0  0  0
  -15.5344  -30.3000   23.7636 H   0  0  0  0  0  0
  -15.8682  -28.0841   22.7029 H   0  0  0  0  0  0
  -24.5893  -30.7057   25.7797 H   0  0  0  0  0  0
  -24.8931  -32.2861   26.4929 H   0  0  0  0  0  0
  -25.8155  -30.8871   27.0181 H   0  0  0  0  0  0
  -26.2819  -29.6808   24.1127 H   0  0  0  0  0  0
  -27.4029  -29.7293   25.4530 H   0  0  0  0  0  0
  -27.8678  -30.4292   23.9214 H   0  0  0  0  0  0
  -27.2490  -33.3642   26.2076 H   0  0  0  0  0  0
  -28.3842  -32.7005   25.0417 H   0  0  0  0  0  0
  -28.0562  -31.8492   26.5458 H   0  0  0  0  0  0
  -28.2546  -38.0134   24.7547 H   0  0  0  0  0  0
  -28.1088  -36.2689   24.6208 H   0  0  0  0  0  0
  -27.2308  -37.1377   25.8870 H   0  0  0  0  0  0
  -20.9205  -29.8734   21.6954 H   0  0  0  0  0  0
  -26.0113  -38.2876   24.1424 H   0  0  0  0  0  0
  -28.9420  -21.3222   22.8774 H   0  0  0  0  0  0
  -27.7402  -20.9855   17.9776 H   0  0  0  0  0  0
  -26.1469  -20.2402   17.4132 H   0  0  0  0  0  0
  -25.1002  -22.4918   17.3222 H   0  0  0  0  0  0
  -26.6728  -23.2643   17.8599 H   0  0  0  0  0  0
  -30.5476  -18.2321   23.0737 H   0  0  0  0  0  0
  -29.5333  -16.7995   23.5905 H   0  0  0  0  0  0
  -25.0134  -21.1984   19.4913 H   0  0  0  0  0  0
  -31.0725  -17.1489   20.9169 H   0  0  0  0  0  0
  -27.9771  -17.1360   21.6045 H   0  0  0  0  0  0
  -27.1924  -19.3587   20.1018 H   0  0  0  0  0  0
  -27.0452  -19.3015   21.8180 H   0  0  0  0  0  0
  -29.7336  -25.5859   21.0904 H   0  0  0  0  0  0
  -29.6727  -27.2545   21.5901 H   0  0  0  0  0  0
  -27.6631  -26.8604   22.8924 H   0  0  0  0  0  0
  -28.6896  -25.5129   23.2646 H   0  0  0  0  0  0
  -29.1798  -14.9665   21.8211 H   0  0  0  0  0  0
  -29.4122  -18.9981   20.1516 H   0  0  0  0  0  0
  -29.6543  -19.5188   21.6645 H   0  0  0  0  0  0
  1 25  1  0  0  0
  1 30  2  0  0  0
  1 86  1  0  0  0
  2  3  1  0  0  0
  2 25  1  0  0  0
  2 89  1  0  0  0
  2 90  1  0  0  0
  3  4  1  0  0  0
  3 91  1  0  0  0
  3 92  1  0  0  0
  4  5  1  0  0  0
  4 93  1  0  0  0
  4 94  1  0  0  0
  5  6  1  0  0  0
  5 26  1  0  0  0
  5 95  1  0  0  0
  6 25  1  0  0  0
  6 96  1  0  0  0
  6 97  1  0  0  0
  7  8  2  0  0  0
  7 26  1  0  0  0
  7 29  1  0  0  0
  8  9  1  0  0  0
  8 22  1  0  0  0
  9 10  1  0  0  0
  9 27  2  0  0  0
 10 11  2  0  0  0
 10 15  1  0  0  0
 11 12  1  0  0  0
 11 98  1  0  0  0
 12 13  2  0  0  0
 12 99  1  0  0  0
 13 14  1  0  0  0
 13 31  1  0  0  0
 14 15  2  0  0  0
 14100  1  0  0  0
 15101  1  0  0  0
 16 17  2  0  0  0
 16 21  1  0  0  0
 16 31  1  0  0  0
 17 18  1  0  0  0
 17102  1  0  0  0
 18 19  2  0  0  0
 18103  1  0  0  0
 19 20  1  0  0  0
 19 24  1  0  0  0
 20 21  2  0  0  0
 20104  1  0  0  0
 21 23  1  0  0  0
 22 28  1  0  0  0
 22 32  2  0  0  0
 26 27  1  0  0  0
 28105  1  0  0  0
 28106  1  0  0  0
 29107  1  0  0  0
 29108  1  0  0  0
 33 34  1  0  0  0
 33 66  1  0  0  0
 33 70  2  0  0  0
 34 36  1  0  0  0
 34 59  1  0  0  0
 34109  1  0  0  0
 35 44  2  0  0  0
 35 45  1  0  0  0
 35 68  1  0  0  0
 36 56  1  0  0  0
 36110  1  0  0  0
 37 39  1  0  0  0
 37 47  1  0  0  0
 37 66  1  0  0  0
 37111  1  0  0  0
 38 43  2  0  0  0
 38 46  1  0  0  0
 38 47  1  0  0  0
 39 64  1  0  0  0
 39 67  2  0  0  0
 40 52  1  0  0  0
 40 53  2  0  0  0
 40 58  1  0  0  0
 41112  1  0  0  0
 41113  1  0  0  0
 41114  1  0  0  0
 41 48  1  0  0  0
 42 43  1  0  0  0
 42 66  1  0  0  0
 42115  1  0  0  0
 42116  1  0  0  0
 43 44  1  0  0  0
 44117  1  0  0  0
 45 46  2  0  0  0
 45118  1  0  0  0
 46119  1  0  0  0
 47120  1  0  0  0
 47121  1  0  0  0
 48 56  1  0  0  0
 48 65  1  0  0  0
 48122  1  0  0  0
 49 50  1  0  0  0
 49 53  1  0  0  0
 49 64  1  0  0  0
 49123  1  0  0  0
 50 51  1  0  0  0
 50124  1  0  0  0
 50125  1  0  0  0
 51 52  1  0  0  0
 51126  1  0  0  0
 51127  1  0  0  0
 52128  1  0  0  0
 52129  1  0  0  0
 53 54  1  0  0  0
 54 55  2  0  0  0
 54130  1  0  0  0
 55 57  1  0  0  0
 55131  1  0  0  0
 56 69  2  0  0  0
 57 58  2  0  0  0
 57132  1  0  0  0
 58133  1  0  0  0
 59 60  1  0  0  0
 59 61  1  0  0  0
 59 62  1  0  0  0
 60134  1  0  0  0
 60135  1  0  0  0
 60136  1  0  0  0
 61137  1  0  0  0
 61138  1  0  0  0
 61139  1  0  0  0
 62140  1  0  0  0
 62141  1  0  0  0
 62142  1  0  0  0
 63 65  1  0  0  0
 63143  1  0  0  0
 63144  1  0  0  0
 63145  1  0  0  0
 64146  1  0  0  0
 65147  1  0  0  0
 68 82  1  0  0  0
 71 72  2  0  0  0
 71 84  1  0  0  0
 71148  1  0  0  0
 72 73  1  0  0  0
 72 81  1  0  0  0
 73 85  2  0  0  0
 73 78  1  0  0  0
 74 84  2  0  0  0
 74 85  1  0  0  0
 74 88  1  0  0  0
 75 76  1  0  0  0
 75 78  1  0  0  0
 75149  1  0  0  0
 75150  1  0  0  0
 76 78  1  0  0  0
 76151  1  0  0  0
 76152  1  0  0  0
 77 79  1  0  0  0
 77 80  1  0  0  0
 77153  1  0  0  0
 77154  1  0  0  0
 78155  1  0  0  0
 79 80  1  0  0  0
 79 86  1  0  0  0
 79156  1  0  0  0
 80 87  1  0  0  0
 80157  1  0  0  0
 81 87  1  0  0  0
 81158  1  0  0  0
 81159  1  0  0  0
 82 83  1  0  0  0
 82160  1  0  0  0
 82161  1  0  0  0
 83 88  1  0  0  0
 83162  1  0  0  0
 83163  1  0  0  0
 86164  1  0  0  0
 87165  1  0  0  0
 87166  1  0  0  0
M  CHG  1  87   1
M  ISO  4   1 100  68 101  82 101  86 100
M  END
> <chiral flag>
0

> <version>
0

> <s_m_source_file>
/data/baiqing/PycharmProjects/Reinvent-master-3.2/result/LINK_invent/BTK/process_docking_weight1_custom_sum_contain_oxygen_bond_distance_aromatic_linkinvent_7_9_3/rearranged_h_0196.sdf

> <i_m_source_file_index>
1

> <r_mmod_Potential_Energy-OPLS-2005>
-608.14794921875

> <r_mmod_Stretch_Energy-OPLS-2005>
35.2117614746094

> <r_mmod_Bend_Energy-OPLS-2005>
119.549110412598

> <r_mmod_Torsional_Energy-OPLS-2005>
321.847595214844

> <r_mmod_Improper_Torsional_Energy-OPLS-2005>
4.529465675354

> <r_mmod_Van_der_Waal_Energy-OPLS-2005>
154.904525756836

> <r_mmod_Electrostatic_Energy-OPLS-2005>
-729.063659667969

> <r_mmod_Solvation_Energy-OPLS-2005>
-524.363159179688

> <b_mmod_Minimization_Converged-OPLS-2005>
0

> <r_mmod_RMS_Derivative-OPLS-2005>
6.33246326446533

$$$$
1
                    3D
 Structure written by MMmdl.
168177  0  0  1  0            999 V2000
  -30.7394  -14.4411   20.5663 C   0  0  0  0  0  0
  -30.4162  -12.2900   19.4141 C   0  0  0  0  0  0
  -29.4846  -12.4781   18.2006 C   0  0  0  0  0  0
  -28.0092  -12.3240   18.6190 C   0  0  0  0  0  0
  -27.6484  -13.1761   19.8617 C   0  0  2  0  0  0
  -28.6999  -13.0072   20.9853 C   0  0  0  0  0  0
  -25.2576  -13.8069   20.5674 C   0  0  0  0  0  0
  -24.1811  -13.0392   20.9191 C   0  0  0  0  0  0
  -24.6335  -11.6850   20.8764 C   0  0  0  0  0  0
  -23.9002  -10.4265   21.0432 C   0  0  0  0  0  0
  -24.3573   -9.4187   21.9201 C   0  0  0  0  0  0
  -23.6268   -8.2215   22.0759 C   0  0  0  0  0  0
  -22.4253   -8.0256   21.3544 C   0  0  0  0  0  0
  -21.9876   -9.0227   20.4644 C   0  0  0  0  0  0
  -22.7190  -10.2112   20.3068 C   0  0  0  0  0  0
  -21.6839   -6.0723   22.5279 C   0  0  0  0  0  0
  -21.3998   -6.5631   23.8210 C   0  0  0  0  0  0
  -21.3649   -5.6789   24.9174 C   0  0  0  0  0  0
  -21.6044   -4.3053   24.7228 C   0  0  0  0  0  0
  -21.8825   -3.8142   23.4351 C   0  0  0  0  0  0
  -21.9191   -4.6955   22.3406 C   0  0  0  0  0  0
  -22.7850  -13.5231   21.1850 C   0  0  0  0  0  0
  -22.1666   -4.2145   21.0984 F   0  0  0  0  0  0
  -21.5628   -3.4538   25.7741 F   0  0  0  0  0  0
  -30.0333  -13.2862   20.4242 N   0  0  0  0  0  0
  -26.2954  -12.9156   20.3342 N   0  0  0  0  0  0
  -25.9244  -11.6359   20.5794 N   0  0  0  0  0  0
  -22.0477  -12.8243   22.0406 N   0  0  0  0  0  0
  -25.4337  -15.1782   20.4061 N   0  0  0  0  0  0
  -31.8964  -14.5765   20.1584 O   0  0  0  0  0  0
  -21.6619   -6.8858   21.4238 O   0  0  0  0  0  0
  -22.3565  -14.5556   20.6710 O   0  0  0  0  0  0
  -24.6100  -31.8706   23.2137 C   0  0  0  0  0  0
  -25.9008  -32.4837   23.8421 C   0  0  1  0  0  0
  -27.2442  -27.4750   20.0812 C   0  0  0  0  0  0
  -25.5874  -33.8634   24.2348 N   0  0  0  0  0  0
  -23.3951  -30.4939   21.5533 C   0  0  2  0  0  0
  -24.8408  -28.9612   20.1194 C   0  0  0  0  0  0
  -22.7374  -29.4669   22.5016 C   0  0  0  0  0  0
  -18.0255  -28.1378   22.8507 C   0  0  0  0  0  0
  -24.1479  -36.7325   23.2639 C   0  0  0  0  0  0
  -25.9192  -30.8459   21.3613 C   0  0  0  0  0  0
  -25.9956  -29.4801   20.7157 C   0  0  0  0  0  0
  -27.1938  -28.7388   20.7032 C   0  0  0  0  0  0
  -26.0637  -26.9512   19.5001 C   0  0  0  0  0  0
  -24.8664  -27.6920   19.5158 C   0  0  0  0  0  0
  -23.6013  -29.8241   20.1680 C   0  0  0  0  0  0
  -25.4098  -36.3123   24.0340 C   0  0  1  0  0  0
  -20.5839  -28.3660   23.1340 C   0  0  2  0  0  0
  -20.6745  -26.9401   22.5429 C   0  0  0  0  0  0
  -19.5727  -26.6392   21.5219 C   0  0  0  0  0  0
  -18.1900  -26.7927   22.1627 C   0  0  0  0  0  0
  -19.1502  -28.8833   23.2927 C   0  0  0  0  0  0
  -18.9432  -30.1437   23.8942 C   0  0  0  0  0  0
  -17.6438  -30.6589   24.0573 C   0  0  0  0  0  0
  -25.9024  -34.9483   23.5144 C   0  0  0  0  0  0
  -16.5331  -29.9095   23.6327 C   0  0  0  0  0  0
  -16.7245  -28.6506   23.0361 C   0  0  0  0  0  0
  -26.4450  -31.6599   25.0733 C   0  0  0  0  0  0
  -25.3734  -31.3679   26.1495 C   0  0  0  0  0  0
  -27.0260  -30.3046   24.6074 C   0  0  0  0  0  0
  -27.6053  -32.4296   25.7479 C   0  0  0  0  0  0
  -27.5580  -37.1807   24.8462 C   0  0  0  0  0  0
  -21.4103  -29.3038   22.3758 N   0  0  0  0  0  0
  -26.4287  -37.3806   23.9416 N   0  0  0  0  0  0
  -24.6594  -31.0837   22.1024 N   0  0  0  0  0  0
  -23.4161  -28.8209   23.3041 O   0  0  0  0  0  0
  -28.4589  -26.8265   20.0697 O   0  0  0  0  0  0
  -26.5593  -34.8924   22.4711 O   0  0  0  0  0  0
  -23.5304  -32.1442   23.7563 O   0  0  0  0  0  0
  -30.1444  -17.9157   21.3355 C   0  0  0  0  0  0
  -29.2530  -21.8024   17.4237 C   0  0  0  0  0  0
  -30.6862  -16.5650   21.8387 C   0  0  0  0  0  0
  -29.5451  -23.1228   18.1225 C   0  0  0  0  0  0
  -29.1605  -16.1852   20.0873 C   0  0  0  0  0  0
  -28.1019  -22.0068   19.5453 C   0  0  0  0  0  0
  -29.6746  -17.6112   19.9172 C   0  0  1  0  0  0
  -28.4785  -20.9809   18.4601 C   0  0  2  0  0  0
  -28.0427  -17.9652   17.9938 C   0  0  0  0  0  0
  -28.3915  -24.4019   19.8724 C   0  0  0  0  0  0
  -28.6638  -25.7460   19.1713 C   0  0  0  0  0  0
  -28.6531  -18.5921   19.2754 C   0  0  2  0  0  0
  -30.0494  -15.5084   21.0343 N   0  0  0  0  0  0
  -28.3321  -23.3031   18.9097 N   0  0  0  0  0  0
  -29.3258  -19.8818   18.9800 N   0  3  0  0  0  0
  -31.4590  -12.3816   19.1048 H   0  0  0  0  0  0
  -30.3154  -11.2846   19.8256 H   0  0  0  0  0  0
  -29.7276  -11.7499   17.4254 H   0  0  0  0  0  0
  -29.6431  -13.4619   17.7569 H   0  0  0  0  0  0
  -27.8322  -11.2688   18.8318 H   0  0  0  0  0  0
  -27.3534  -12.5786   17.7857 H   0  0  0  0  0  0
  -27.6492  -14.1995   19.5130 H   0  0  0  0  0  0
  -28.6774  -11.9893   21.3768 H   0  0  0  0  0  0
  -28.4658  -13.6543   21.8321 H   0  0  0  0  0  0
  -25.2717   -9.5666   22.4774 H   0  0  0  0  0  0
  -23.9982   -7.4603   22.7474 H   0  0  0  0  0  0
  -21.0808   -8.8735   19.8947 H   0  0  0  0  0  0
  -22.3651  -10.9650   19.6179 H   0  0  0  0  0  0
  -21.1983   -7.6137   23.9711 H   0  0  0  0  0  0
  -21.1462   -6.0517   25.9075 H   0  0  0  0  0  0
  -22.0615   -2.7605   23.2855 H   0  0  0  0  0  0
  -22.4069  -11.9891   22.4781 H   0  0  0  0  0  0
  -21.1106  -13.1294   22.2615 H   0  0  0  0  0  0
  -24.6711  -15.8375   20.5163 H   0  0  0  0  0  0
  -26.2905  -15.6102   20.0909 H   0  0  0  0  0  0
  -26.7081  -32.5567   23.1195 H   0  0  0  0  0  0
  -25.0004  -33.9804   25.0477 H   0  0  0  0  0  0
  -22.6828  -31.3099   21.4153 H   0  0  0  0  0  0
  -23.3744  -35.9655   23.3292 H   0  0  0  0  0  0
  -24.3580  -36.8957   22.2059 H   0  0  0  0  0  0
  -23.7220  -37.6520   23.6661 H   0  0  0  0  0  0
  -26.0214  -31.6103   20.5898 H   0  0  0  0  0  0
  -26.8114  -30.9061   21.9726 H   0  0  0  0  0  0
  -28.0894  -29.1443   21.1530 H   0  0  0  0  0  0
  -26.0473  -25.9778   19.0320 H   0  0  0  0  0  0
  -23.9747  -27.2825   19.0611 H   0  0  0  0  0  0
  -23.7056  -30.5972   19.4062 H   0  0  0  0  0  0
  -22.7264  -29.2404   19.8756 H   0  0  0  0  0  0
  -25.1270  -36.1997   25.0833 H   0  0  0  0  0  0
  -20.9930  -28.3221   24.1460 H   0  0  0  0  0  0
  -20.5642  -26.2268   23.3608 H   0  0  0  0  0  0
  -21.6617  -26.7447   22.1228 H   0  0  0  0  0  0
  -19.6887  -25.6309   21.1228 H   0  0  0  0  0  0
  -19.6659  -27.3224   20.6764 H   0  0  0  0  0  0
  -17.4170  -26.6691   21.4025 H   0  0  0  0  0  0
  -18.0296  -26.0057   22.9011 H   0  0  0  0  0  0
  -19.7902  -30.7242   24.2336 H   0  0  0  0  0  0
  -17.4986  -31.6269   24.5172 H   0  0  0  0  0  0
  -15.5332  -30.3010   23.7619 H   0  0  0  0  0  0
  -15.8644  -28.0830   22.7072 H   0  0  0  0  0  0
  -24.5896  -30.7041   25.7822 H   0  0  0  0  0  0
  -24.8940  -32.2827   26.4994 H   0  0  0  0  0  0
  -25.8109  -30.8801   27.0216 H   0  0  0  0  0  0
  -26.2778  -29.6822   24.1153 H   0  0  0  0  0  0
  -27.4060  -29.7265   25.4506 H   0  0  0  0  0  0
  -27.8600  -30.4371   23.9180 H   0  0  0  0  0  0
  -27.2712  -33.3598   26.2086 H   0  0  0  0  0  0
  -28.3846  -32.6848   25.0286 H   0  0  0  0  0  0
  -28.0729  -31.8389   26.5368 H   0  0  0  0  0  0
  -28.2592  -38.0111   24.7537 H   0  0  0  0  0  0
  -28.1082  -36.2648   24.6250 H   0  0  0  0  0  0
  -27.2302  -37.1419   25.8864 H   0  0  0  0  0  0
  -20.9247  -29.8788   21.7017 H   0  0  0  0  0  0
  -26.0179  -38.2880   24.1444 H   0  0  0  0  0  0
  -30.8988  -18.7028   21.3754 H   0  0  0  0  0  0
  -29.3027  -18.2299   21.9553 H   0  0  0  0  0  0
  -30.1599  -21.3204   17.0553 H   0  0  0  0  0  0
  -28.6170  -21.9870   16.5555 H   0  0  0  0  0  0
  -30.4631  -16.4214   22.8969 H   0  0  0  0  0  0
  -31.7730  -16.5437   21.7379 H   0  0  0  0  0  0
  -29.7180  -23.9287   17.4074 H   0  0  0  0  0  0
  -30.4227  -23.0379   18.7675 H   0  0  0  0  0  0
  -29.1346  -15.6924   19.1127 H   0  0  0  0  0  0
  -28.1537  -16.1880   20.5065 H   0  0  0  0  0  0
  -28.7459  -21.9017   20.4209 H   0  0  0  0  0  0
  -27.0687  -21.8966   19.8795 H   0  0  0  0  0  0
  -30.5557  -17.5555   19.2735 H   0  0  0  0  0  0
  -27.5664  -20.6188   17.9908 H   0  0  0  0  0  0
  -27.5152  -17.0375   18.2119 H   0  0  0  0  0  0
  -28.8120  -17.7376   17.2553 H   0  0  0  0  0  0
  -27.2995  -18.5949   17.5104 H   0  0  0  0  0  0
  -27.4373  -24.4520   20.4004 H   0  0  0  0  0  0
  -29.1582  -24.2191   20.6282 H   0  0  0  0  0  0
  -28.0915  -25.8583   18.2494 H   0  0  0  0  0  0
  -29.7101  -25.7901   18.8680 H   0  0  0  0  0  0
  -27.8452  -18.7786   19.9856 H   0  0  0  0  0  0
  -29.7888  -20.2140   19.8108 H   0  0  0  0  0  0
  -30.0420  -19.7025   18.2955 H   0  0  0  0  0  0
  1 25  1  0  0  0
  1 30  2  0  0  0
  1 83  1  0  0  0
  2  3  1  0  0  0
  2 25  1  0  0  0
  2 86  1  0  0  0
  2 87  1  0  0  0
  3  4  1  0  0  0
  3 88  1  0  0  0
  3 89  1  0  0  0
  4  5  1  0  0  0
  4 90  1  0  0  0
  4 91  1  0  0  0
  5  6  1  0  0  0
  5 26  1  0  0  0
  5 92  1  0  0  0
  6 25  1  0  0  0
  6 93  1  0  0  0
  6 94  1  0  0  0
  7  8  2  0  0  0
  7 26  1  0  0  0
  7 29  1  0  0  0
  8  9  1  0  0  0
  8 22  1  0  0  0
  9 10  1  0  0  0
  9 27  2  0  0  0
 10 11  2  0  0  0
 10 15  1  0  0  0
 11 12  1  0  0  0
 11 95  1  0  0  0
 12 13  2  0  0  0
 12 96  1  0  0  0
 13 14  1  0  0  0
 13 31  1  0  0  0
 14 15  2  0  0  0
 14 97  1  0  0  0
 15 98  1  0  0  0
 16 17  2  0  0  0
 16 21  1  0  0  0
 16 31  1  0  0  0
 17 18  1  0  0  0
 17 99  1  0  0  0
 18 19  2  0  0  0
 18100  1  0  0  0
 19 20  1  0  0  0
 19 24  1  0  0  0
 20 21  2  0  0  0
 20101  1  0  0  0
 21 23  1  0  0  0
 22 28  1  0  0  0
 22 32  2  0  0  0
 26 27  1  0  0  0
 28102  1  0  0  0
 28103  1  0  0  0
 29104  1  0  0  0
 29105  1  0  0  0
 33 34  1  0  0  0
 33 66  1  0  0  0
 33 70  2  0  0  0
 34 36  1  0  0  0
 34 59  1  0  0  0
 34106  1  0  0  0
 35 44  2  0  0  0
 35 45  1  0  0  0
 35 68  1  0  0  0
 36 56  1  0  0  0
 36107  1  0  0  0
 37 39  1  0  0  0
 37 47  1  0  0  0
 37 66  1  0  0  0
 37108  1  0  0  0
 38 43  2  0  0  0
 38 46  1  0  0  0
 38 47  1  0  0  0
 39 64  1  0  0  0
 39 67  2  0  0  0
 40 52  1  0  0  0
 40 53  2  0  0  0
 40 58  1  0  0  0
 41109  1  0  0  0
 41110  1  0  0  0
 41111  1  0  0  0
 41 48  1  0  0  0
 42 43  1  0  0  0
 42 66  1  0  0  0
 42112  1  0  0  0
 42113  1  0  0  0
 43 44  1  0  0  0
 44114  1  0  0  0
 45 46  2  0  0  0
 45115  1  0  0  0
 46116  1  0  0  0
 47117  1  0  0  0
 47118  1  0  0  0
 48 56  1  0  0  0
 48 65  1  0  0  0
 48119  1  0  0  0
 49 50  1  0  0  0
 49 53  1  0  0  0
 49 64  1  0  0  0
 49120  1  0  0  0
 50 51  1  0  0  0
 50121  1  0  0  0
 50122  1  0  0  0
 51 52  1  0  0  0
 51123  1  0  0  0
 51124  1  0  0  0
 52125  1  0  0  0
 52126  1  0  0  0
 53 54  1  0  0  0
 54 55  2  0  0  0
 54127  1  0  0  0
 55 57  1  0  0  0
 55128  1  0  0  0
 56 69  2  0  0  0
 57 58  2  0  0  0
 57129  1  0  0  0
 58130  1  0  0  0
 59 60  1  0  0  0
 59 61  1  0  0  0
 59 62  1  0  0  0
 60131  1  0  0  0
 60132  1  0  0  0
 60133  1  0  0  0
 61134  1  0  0  0
 61135  1  0  0  0
 61136  1  0  0  0
 62137  1  0  0  0
 62138  1  0  0  0
 62139  1  0  0  0
 63 65  1  0  0  0
 63140  1  0  0  0
 63141  1  0  0  0
 63142  1  0  0  0
 64143  1  0  0  0
 65144  1  0  0  0
 68 81  1  0  0  0
 71 73  1  0  0  0
 71145  1  0  0  0
 71146  1  0  0  0
 71 77  1  0  0  0
 72 74  1  0  0  0
 72 78  1  0  0  0
 72147  1  0  0  0
 72148  1  0  0  0
 73 83  1  0  0  0
 73149  1  0  0  0
 73150  1  0  0  0
 74 84  1  0  0  0
 74151  1  0  0  0
 74152  1  0  0  0
 75 77  1  0  0  0
 75 83  1  0  0  0
 75153  1  0  0  0
 75154  1  0  0  0
 76 78  1  0  0  0
 76 84  1  0  0  0
 76155  1  0  0  0
 76156  1  0  0  0
 77 82  1  0  0  0
 77157  1  0  0  0
 78 85  1  0  0  0
 78158  1  0  0  0
 79159  1  0  0  0
 79160  1  0  0  0
 79161  1  0  0  0
 79 82  1  0  0  0
 80 81  1  0  0  0
 80 84  1  0  0  0
 80162  1  0  0  0
 80163  1  0  0  0
 81164  1  0  0  0
 81165  1  0  0  0
 82 85  1  0  0  0
 82166  1  0  0  0
 85167  1  0  0  0
 85168  1  0  0  0
M  CHG  1  85   1
M  ISO  4   1 100  68 101  81 101  83 100
M  END
> <chiral flag>
0

> <version>
0

> <s_m_source_file>
/data/baiqing/PycharmProjects/Reinvent-master-3.2/result/LINK_invent/BTK/process_docking_weight1_custom_sum_contain_oxygen_bond_distance_aromatic_linkinvent_7_9_3/rearranged_h_0196.sdf

> <i_m_source_file_index>
2

> <r_mmod_Potential_Energy-OPLS-2005>
150.548583984375

> <r_mmod_Stretch_Energy-OPLS-2005>
33.6040458679199

> <r_mmod_Bend_Energy-OPLS-2005>
152.491989135742

> <r_mmod_Torsional_Energy-OPLS-2005>
392.862426757812

> <r_mmod_Improper_Torsional_Energy-OPLS-2005>
7.69467496871948

> <r_mmod_Van_der_Waal_Energy-OPLS-2005>
142.15576171875

> <r_mmod_Electrostatic_Energy-OPLS-2005>
-134.255599975586

> <r_mmod_Solvation_Energy-OPLS-2005>
-458.727508544922

> <b_mmod_Minimization_Converged-OPLS-2005>
0

> <r_mmod_RMS_Derivative-OPLS-2005>
0.917812824249268

$$$$
2
                    3D
 Structure written by MMmdl.
163172  0  0  1  0            999 V2000
  -30.7658  -14.4341   20.5227 C   0  0  0  0  0  0
  -30.4250  -12.2863   19.3903 C   0  0  0  0  0  0
  -29.4782  -12.4733   18.1860 C   0  0  0  0  0  0
  -28.0101  -12.3303   18.6284 C   0  0  0  0  0  0
  -27.6589  -13.1862   19.8725 C   0  0  2  0  0  0
  -28.7204  -13.0107   20.9840 C   0  0  0  0  0  0
  -25.2642  -13.8190   20.5814 C   0  0  0  0  0  0
  -24.1881  -13.0454   20.9310 C   0  0  0  0  0  0
  -24.6382  -11.6916   20.8857 C   0  0  0  0  0  0
  -23.9013  -10.4293   21.0461 C   0  0  0  0  0  0
  -24.3581   -9.4194   21.9206 C   0  0  0  0  0  0
  -23.6276   -8.2234   22.0771 C   0  0  0  0  0  0
  -22.4248   -8.0276   21.3583 C   0  0  0  0  0  0
  -21.9890   -9.0228   20.4676 C   0  0  0  0  0  0
  -22.7226  -10.2115   20.3090 C   0  0  0  0  0  0
  -21.6851   -6.0721   22.5248 C   0  0  0  0  0  0
  -21.4027   -6.5654   23.8184 C   0  0  0  0  0  0
  -21.3668   -5.6820   24.9157 C   0  0  0  0  0  0
  -21.6055   -4.3076   24.7215 C   0  0  0  0  0  0
  -21.8806   -3.8139   23.4351 C   0  0  0  0  0  0
  -21.9203   -4.6950   22.3392 C   0  0  0  0  0  0
  -22.7879  -13.5236   21.1929 C   0  0  0  0  0  0
  -22.1658   -4.2169   21.0954 F   0  0  0  0  0  0
  -21.5632   -3.4542   25.7705 F   0  0  0  0  0  0
  -30.0493  -13.2836   20.4020 N   0  0  0  0  0  0
  -26.3022  -12.9291   20.3454 N   0  0  0  0  0  0
  -25.9293  -11.6485   20.5911 N   0  0  0  0  0  0
  -22.0400  -12.8219   22.0399 N   0  0  0  0  0  0
  -25.4259  -15.1879   20.3826 N   0  0  0  0  0  0
  -31.8822  -14.6080   20.0483 O   0  0  0  0  0  0
  -21.6653   -6.8864   21.4228 O   0  0  0  0  0  0
  -22.3560  -14.5535   20.6775 O   0  0  0  0  0  0
  -24.6143  -31.8636   23.2222 C   0  0  0  0  0  0
  -25.9019  -32.4852   23.8460 C   0  0  1  0  0  0
  -27.1773  -27.4143   20.0754 C   0  0  0  0  0  0
  -25.5896  -33.8670   24.2436 N   0  0  0  0  0  0
  -23.3991  -30.4971   21.5655 C   0  0  2  0  0  0
  -24.8308  -28.9762   20.1068 C   0  0  0  0  0  0
  -22.7499  -29.4604   22.5020 C   0  0  0  0  0  0
  -18.0305  -28.1386   22.8603 C   0  0  0  0  0  0
  -24.1472  -36.7333   23.2659 C   0  0  0  0  0  0
  -25.9276  -30.8161   21.3791 C   0  0  0  0  0  0
  -26.0003  -29.4608   20.7072 C   0  0  0  0  0  0
  -27.1898  -28.7009   20.6594 C   0  0  0  0  0  0
  -25.9949  -26.9547   19.4624 C   0  0  0  0  0  0
  -24.8265  -27.7300   19.4637 C   0  0  0  0  0  0
  -23.6050  -29.8450   20.1750 C   0  0  0  0  0  0
  -25.4103  -36.3177   24.0394 C   0  0  1  0  0  0
  -20.6012  -28.3589   23.1311 C   0  0  2  0  0  0
  -20.7015  -26.9376   22.5344 C   0  0  0  0  0  0
  -19.5660  -26.6059   21.5586 C   0  0  0  0  0  0
  -18.1922  -26.7591   22.2326 C   0  0  0  0  0  0
  -19.1635  -28.8791   23.2890 C   0  0  0  0  0  0
  -18.9769  -30.1514   23.8682 C   0  0  0  0  0  0
  -17.6840  -30.6710   24.0337 C   0  0  0  0  0  0
  -25.9058  -34.9499   23.5219 C   0  0  0  0  0  0
  -16.5600  -29.9342   23.6318 C   0  0  0  0  0  0
  -16.7329  -28.6661   23.0506 C   0  0  0  0  0  0
  -26.4425  -31.6621   25.0803 C   0  0  0  0  0  0
  -25.3721  -31.3622   26.1598 C   0  0  0  0  0  0
  -27.0243  -30.3089   24.6157 C   0  0  0  0  0  0
  -27.6044  -32.4264   25.7593 C   0  0  0  0  0  0
  -27.5579  -37.1837   24.8472 C   0  0  0  0  0  0
  -21.4244  -29.2962   22.3739 N   0  0  0  0  0  0
  -26.4302  -37.3839   23.9416 N   0  0  0  0  0  0
  -24.6693  -31.0747   22.1128 N   0  0  0  0  0  0
  -23.4241  -28.8122   23.3084 O   0  0  0  0  0  0
  -28.2843  -26.5904   20.1272 O   0  0  0  0  0  0
  -26.5561  -34.8943   22.4728 O   0  0  0  0  0  0
  -23.5360  -32.1430   23.7651 O   0  0  0  0  0  0
  -27.1325  -18.4101   19.6337 C   0  0  0  0  0  0
  -27.0013  -19.1976   21.8329 C   0  0  0  0  0  0
  -25.9089  -19.3320   19.6680 C   0  0  1  0  0  0
  -25.8408  -19.8443   21.0903 C   0  0  2  0  0  0
  -25.8271  -20.8359   19.9319 C   0  0  2  0  0  0
  -26.9097  -21.8048   19.4076 C   0  0  0  0  0  0
  -29.3219  -16.4410   20.4721 C   0  0  0  0  0  0
  -28.4183  -17.1347   21.5175 C   0  0  0  0  0  0
  -27.8813  -24.1219   19.6830 C   0  0  0  0  0  0
  -27.9962  -25.2898   20.6901 C   0  0  0  0  0  0
  -30.1791  -15.4578   21.1518 N   0  0  0  0  0  0
  -27.2856  -17.9897   21.0428 N   0  3  1  0  0  0
  -27.1271  -22.9768   20.2868 N   0  3  0  0  0  0
  -31.4592  -12.3820   19.0558 H   0  0  0  0  0  0
  -30.3314  -11.2868   19.8062 H   0  0  0  0  0  0
  -29.7113  -11.7452   17.4054 H   0  0  0  0  0  0
  -29.6237  -13.4501   17.7301 H   0  0  0  0  0  0
  -27.8459  -11.2809   18.8660 H   0  0  0  0  0  0
  -27.3411  -12.5589   17.7997 H   0  0  0  0  0  0
  -27.6789  -14.2149   19.5461 H   0  0  0  0  0  0
  -28.6896  -11.9965   21.3855 H   0  0  0  0  0  0
  -28.5038  -13.6813   21.8170 H   0  0  0  0  0  0
  -25.2717   -9.5710   22.4795 H   0  0  0  0  0  0
  -24.0013   -7.4638   22.7491 H   0  0  0  0  0  0
  -21.0849   -8.8806   19.8935 H   0  0  0  0  0  0
  -22.3734  -10.9703   19.6227 H   0  0  0  0  0  0
  -21.2020   -7.6165   23.9728 H   0  0  0  0  0  0
  -21.1510   -6.0518   25.9092 H   0  0  0  0  0  0
  -22.0577   -2.7607   23.2827 H   0  0  0  0  0  0
  -22.3940  -11.9872   22.4840 H   0  0  0  0  0  0
  -21.1063  -13.1387   22.2648 H   0  0  0  0  0  0
  -24.5182  -15.6472   20.3821 H   0  0  0  0  0  0
  -25.8750  -15.3425   19.4880 H   0  0  0  0  0  0
  -26.7032  -32.5540   23.1150 H   0  0  0  0  0  0
  -25.0081  -33.9790   25.0632 H   0  0  0  0  0  0
  -22.6825  -31.3152   21.4592 H   0  0  0  0  0  0
  -23.3769  -35.9622   23.3314 H   0  0  0  0  0  0
  -24.3576  -36.8923   22.2068 H   0  0  0  0  0  0
  -23.7147  -37.6541   23.6595 H   0  0  0  0  0  0
  -26.0516  -31.5776   20.6137 H   0  0  0  0  0  0
  -26.8127  -30.8522   22.0048 H   0  0  0  0  0  0
  -28.0973  -29.0844   21.0966 H   0  0  0  0  0  0
  -25.9530  -26.0011   18.9663 H   0  0  0  0  0  0
  -23.9361  -27.3638   18.9766 H   0  0  0  0  0  0
  -23.7150  -30.6374   19.4388 H   0  0  0  0  0  0
  -22.7209  -29.2839   19.8762 H   0  0  0  0  0  0
  -25.1230  -36.2107   25.0882 H   0  0  0  0  0  0
  -21.0277  -28.2871   24.1340 H   0  0  0  0  0  0
  -20.6613  -26.2233   23.3621 H   0  0  0  0  0  0
  -21.6704  -26.7889   22.0559 H   0  0  0  0  0  0
  -19.6859  -25.5884   21.1992 H   0  0  0  0  0  0
  -19.6327  -27.2407   20.6739 H   0  0  0  0  0  0
  -17.3972  -26.5737   21.5062 H   0  0  0  0  0  0
  -18.0790  -26.0186   23.0363 H   0  0  0  0  0  0
  -19.8412  -30.7240   24.1830 H   0  0  0  0  0  0
  -17.5444  -31.6548   24.4686 H   0  0  0  0  0  0
  -15.5658  -30.3413   23.7693 H   0  0  0  0  0  0
  -15.8677  -28.0991   22.7542 H   0  0  0  0  0  0
  -24.5929  -30.6946   25.7897 H   0  0  0  0  0  0
  -24.8883  -32.2712   26.5171 H   0  0  0  0  0  0
  -25.8181  -30.8720   27.0289 H   0  0  0  0  0  0
  -26.2762  -29.6979   24.1128 H   0  0  0  0  0  0
  -27.3898  -29.7257   25.4616 H   0  0  0  0  0  0
  -27.8662  -30.4479   23.9404 H   0  0  0  0  0  0
  -27.2732  -33.3563   26.2258 H   0  0  0  0  0  0
  -28.3871  -32.6832   25.0423 H   0  0  0  0  0  0
  -28.0687  -31.8298   26.5477 H   0  0  0  0  0  0
  -28.2654  -38.0086   24.7571 H   0  0  0  0  0  0
  -28.1052  -36.2671   24.6253 H   0  0  0  0  0  0
  -27.2332  -37.1419   25.8880 H   0  0  0  0  0  0
  -20.9312  -29.8767   21.7065 H   0  0  0  0  0  0
  -26.0258  -38.2961   24.1329 H   0  0  0  0  0  0
  -28.0021  -18.9463   19.2468 H   0  0  0  0  0  0
  -26.9296  -17.5528   19.0045 H   0  0  0  0  0  0
  -26.7166  -18.9416   22.8503 H   0  0  0  0  0  0
  -27.8587  -19.8644   21.8773 H   0  0  0  0  0  0
  -25.0083  -18.8600   19.2914 H   0  0  0  0  0  0
  -24.8917  -19.6668   21.5866 H   0  0  0  0  0  0
  -24.8313  -21.2727   19.7915 H   0  0  0  0  0  0
  -26.5253  -22.2107   18.4684 H   0  0  0  0  0  0
  -27.8291  -21.2837   19.1640 H   0  0  0  0  0  0
  -29.9742  -17.1943   20.0311 H   0  0  0  0  0  0
  -28.7567  -15.9852   19.6552 H   0  0  0  0  0  0
  -29.0292  -17.6807   22.2433 H   0  0  0  0  0  0
  -27.9424  -16.3382   22.0875 H   0  0  0  0  0  0
  -28.8935  -23.8200   19.4173 H   0  0  0  0  0  0
  -27.3993  -24.4159   18.7566 H   0  0  0  0  0  0
  -28.7797  -25.0421   21.4015 H   0  0  0  0  0  0
  -27.0745  -25.3243   21.2850 H   0  0  0  0  0  0
  -30.9052  -15.9466   21.6490 H   0  0  0  0  0  0
  -26.4892  -17.3813   21.1984 H   0  0  0  0  0  0
  -27.6182  -22.6761   21.1175 H   0  0  0  0  0  0
  -26.2180  -23.3079   20.5718 H   0  0  0  0  0  0
  1 25  1  0  0  0
  1 30  2  0  0  0
  1 81  1  0  0  0
  2  3  1  0  0  0
  2 25  1  0  0  0
  2 84  1  0  0  0
  2 85  1  0  0  0
  3  4  1  0  0  0
  3 86  1  0  0  0
  3 87  1  0  0  0
  4  5  1  0  0  0
  4 88  1  0  0  0
  4 89  1  0  0  0
  5  6  1  0  0  0
  5 26  1  0  0  0
  5 90  1  0  0  0
  6 25  1  0  0  0
  6 91  1  0  0  0
  6 92  1  0  0  0
  7  8  2  0  0  0
  7 26  1  0  0  0
  7 29  1  0  0  0
  8  9  1  0  0  0
  8 22  1  0  0  0
  9 10  1  0  0  0
  9 27  2  0  0  0
 10 11  2  0  0  0
 10 15  1  0  0  0
 11 12  1  0  0  0
 11 93  1  0  0  0
 12 13  2  0  0  0
 12 94  1  0  0  0
 13 14  1  0  0  0
 13 31  1  0  0  0
 14 15  2  0  0  0
 14 95  1  0  0  0
 15 96  1  0  0  0
 16 17  2  0  0  0
 16 21  1  0  0  0
 16 31  1  0  0  0
 17 18  1  0  0  0
 17 97  1  0  0  0
 18 19  2  0  0  0
 18 98  1  0  0  0
 19 20  1  0  0  0
 19 24  1  0  0  0
 20 21  2  0  0  0
 20 99  1  0  0  0
 21 23  1  0  0  0
 22 28  1  0  0  0
 22 32  2  0  0  0
 26 27  1  0  0  0
 28100  1  0  0  0
 28101  1  0  0  0
 29102  1  0  0  0
 29103  1  0  0  0
 33 34  1  0  0  0
 33 66  1  0  0  0
 33 70  2  0  0  0
 34 36  1  0  0  0
 34 59  1  0  0  0
 34104  1  0  0  0
 35 44  2  0  0  0
 35 45  1  0  0  0
 35 68  1  0  0  0
 36 56  1  0  0  0
 36105  1  0  0  0
 37 39  1  0  0  0
 37 47  1  0  0  0
 37 66  1  0  0  0
 37106  1  0  0  0
 38 43  2  0  0  0
 38 46  1  0  0  0
 38 47  1  0  0  0
 39 64  1  0  0  0
 39 67  2  0  0  0
 40 52  1  0  0  0
 40 53  2  0  0  0
 40 58  1  0  0  0
 41107  1  0  0  0
 41108  1  0  0  0
 41109  1  0  0  0
 41 48  1  0  0  0
 42 43  1  0  0  0
 42 66  1  0  0  0
 42110  1  0  0  0
 42111  1  0  0  0
 43 44  1  0  0  0
 44112  1  0  0  0
 45 46  2  0  0  0
 45113  1  0  0  0
 46114  1  0  0  0
 47115  1  0  0  0
 47116  1  0  0  0
 48 56  1  0  0  0
 48 65  1  0  0  0
 48117  1  0  0  0
 49 50  1  0  0  0
 49 53  1  0  0  0
 49 64  1  0  0  0
 49118  1  0  0  0
 50 51  1  0  0  0
 50119  1  0  0  0
 50120  1  0  0  0
 51 52  1  0  0  0
 51121  1  0  0  0
 51122  1  0  0  0
 52123  1  0  0  0
 52124  1  0  0  0
 53 54  1  0  0  0
 54 55  2  0  0  0
 54125  1  0  0  0
 55 57  1  0  0  0
 55126  1  0  0  0
 56 69  2  0  0  0
 57 58  2  0  0  0
 57127  1  0  0  0
 58128  1  0  0  0
 59 60  1  0  0  0
 59 61  1  0  0  0
 59 62  1  0  0  0
 60129  1  0  0  0
 60130  1  0  0  0
 60131  1  0  0  0
 61132  1  0  0  0
 61133  1  0  0  0
 61134  1  0  0  0
 62135  1  0  0  0
 62136  1  0  0  0
 62137  1  0  0  0
 63 65  1  0  0  0
 63138  1  0  0  0
 63139  1  0  0  0
 63140  1  0  0  0
 64141  1  0  0  0
 65142  1  0  0  0
 68 80  1  0  0  0
 71 82  1  0  0  0
 71143  1  0  0  0
 71144  1  0  0  0
 71 73  1  0  0  0
 72 82  1  0  0  0
 72145  1  0  0  0
 72146  1  0  0  0
 72 74  1  0  0  0
 73 74  1  0  0  0
 73 75  1  0  0  0
 73147  1  0  0  0
 74 75  1  0  0  0
 74148  1  0  0  0
 75 76  1  0  0  0
 75149  1  0  0  0
 76 83  1  0  0  0
 76150  1  0  0  0
 76151  1  0  0  0
 77 78  1  0  0  0
 77 81  1  0  0  0
 77152  1  0  0  0
 77153  1  0  0  0
 78154  1  0  0  0
 78155  1  0  0  0
 78 82  1  0  0  0
 79 80  1  0  0  0
 79 83  1  0  0  0
 79156  1  0  0  0
 79157  1  0  0  0
 80158  1  0  0  0
 80159  1  0  0  0
 81160  1  0  0  0
 82161  1  0  0  0
 83162  1  0  0  0
 83163  1  0  0  0
M  CHG  2  82   1  83   1
M  ISO  4   1 100  68 101  80 101  81 100
M  END
> <chiral flag>
0

> <version>
0

> <s_m_source_file>
/data/baiqing/PycharmProjects/Reinvent-master-3.2/result/LINK_invent/BTK/process_docking_weight1_custom_sum_contain_oxygen_bond_distance_aromatic_linkinvent_7_9_3/rearranged_h_0196.sdf

> <i_m_source_file_index>
3

> <r_mmod_Potential_Energy-OPLS-2005>
-59.7503433227539

> <r_mmod_Stretch_Energy-OPLS-2005>
38.3085098266602

> <r_mmod_Bend_Energy-OPLS-2005>
204.75456237793

> <r_mmod_Torsional_Energy-OPLS-2005>
425.976165771484

> <r_mmod_Improper_Torsional_Energy-OPLS-2005>
13.7444944381714

> <r_mmod_Van_der_Waal_Energy-OPLS-2005>
121.03840637207

> <r_mmod_Electrostatic_Energy-OPLS-2005>
59.8220596313477

> <r_mmod_Solvation_Energy-OPLS-2005>
-947.277465820312

> <b_mmod_Minimization_Converged-OPLS-2005>
0

> <r_mmod_RMS_Derivative-OPLS-2005>
15.5160236358643

$$$$
3
                    3D
 Structure written by MMmdl.
162171  0  0  1  0            999 V2000
  -30.7327  -14.4760   20.5658 C   0  0  0  0  0  0
  -30.4158  -12.3089   19.4304 C   0  0  0  0  0  0
  -29.4944  -12.4993   18.2093 C   0  0  0  0  0  0
  -28.0168  -12.3508   18.6209 C   0  0  0  0  0  0
  -27.6567  -13.2039   19.8658 C   0  0  2  0  0  0
  -28.7003  -13.0282   20.9939 C   0  0  0  0  0  0
  -25.2562  -13.8138   20.5660 C   0  0  0  0  0  0
  -24.1823  -13.0423   20.9184 C   0  0  0  0  0  0
  -24.6381  -11.6894   20.8733 C   0  0  0  0  0  0
  -23.9047  -10.4281   21.0393 C   0  0  0  0  0  0
  -24.3601   -9.4203   21.9176 C   0  0  0  0  0  0
  -23.6289   -8.2238   22.0747 C   0  0  0  0  0  0
  -22.4273   -8.0272   21.3536 C   0  0  0  0  0  0
  -21.9896   -9.0240   20.4642 C   0  0  0  0  0  0
  -22.7218  -10.2125   20.3047 C   0  0  0  0  0  0
  -21.6853   -6.0728   22.5276 C   0  0  0  0  0  0
  -21.4011   -6.5634   23.8207 C   0  0  0  0  0  0
  -21.3656   -5.6791   24.9170 C   0  0  0  0  0  0
  -21.6042   -4.3052   24.7220 C   0  0  0  0  0  0
  -21.8824   -3.8141   23.4343 C   0  0  0  0  0  0
  -21.9194   -4.6956   22.3398 C   0  0  0  0  0  0
  -22.7849  -13.5229   21.1847 C   0  0  0  0  0  0
  -22.1666   -4.2140   21.0978 F   0  0  0  0  0  0
  -21.5630   -3.4538   25.7734 F   0  0  0  0  0  0
  -30.0328  -13.3134   20.4374 N   0  0  0  0  0  0
  -26.2996  -12.9309   20.3330 N   0  0  0  0  0  0
  -25.9307  -11.6472   20.5759 N   0  0  0  0  0  0
  -22.0488  -12.8229   22.0410 N   0  0  0  0  0  0
  -25.4247  -15.1858   20.4034 N   0  0  0  0  0  0
  -31.8687  -14.6131   20.1031 O   0  0  0  0  0  0
  -21.6636   -6.8870   21.4236 O   0  0  0  0  0  0
  -22.3533  -14.5530   20.6689 O   0  0  0  0  0  0
  -24.6122  -31.8693   23.2108 C   0  0  0  0  0  0
  -25.9021  -32.4827   23.8400 C   0  0  1  0  0  0
  -27.2340  -27.4440   20.0989 C   0  0  0  0  0  0
  -25.5887  -33.8621   24.2336 N   0  0  0  0  0  0
  -23.4013  -30.4919   21.5505 C   0  0  2  0  0  0
  -24.8504  -28.9581   20.1149 C   0  0  0  0  0  0
  -22.7403  -29.4663   22.4990 C   0  0  0  0  0  0
  -18.0276  -28.1381   22.8503 C   0  0  0  0  0  0
  -24.1484  -36.7310   23.2641 C   0  0  0  0  0  0
  -25.9284  -30.8372   21.3632 C   0  0  0  0  0  0
  -26.0083  -29.4705   20.7147 C   0  0  0  0  0  0
  -27.2054  -28.7184   20.7105 C   0  0  0  0  0  0
  -26.0657  -26.9455   19.4885 C   0  0  0  0  0  0
  -24.8727  -27.6931   19.5004 C   0  0  0  0  0  0
  -23.6105  -29.8228   20.1654 C   0  0  0  0  0  0
  -25.4102  -36.3107   24.0347 C   0  0  1  0  0  0
  -20.5866  -28.3659   23.1333 C   0  0  2  0  0  0
  -20.6768  -26.9398   22.5425 C   0  0  0  0  0  0
  -19.5744  -26.6388   21.5226 C   0  0  0  0  0  0
  -18.1922  -26.7933   22.1631 C   0  0  0  0  0  0
  -19.1526  -28.8837   23.2916 C   0  0  0  0  0  0
  -18.9452  -30.1449   23.8917 C   0  0  0  0  0  0
  -17.6455  -30.6587   24.0572 C   0  0  0  0  0  0
  -25.9026  -34.9474   23.5137 C   0  0  0  0  0  0
  -16.5345  -29.9092   23.6324 C   0  0  0  0  0  0
  -16.7266  -28.6512   23.0343 C   0  0  0  0  0  0
  -26.4460  -31.6596   25.0715 C   0  0  0  0  0  0
  -25.3742  -31.3710   26.1480 C   0  0  0  0  0  0
  -27.0272  -30.3039   24.6067 C   0  0  0  0  0  0
  -27.6039  -32.4313   25.7466 C   0  0  0  0  0  0
  -27.5582  -37.1806   24.8468 C   0  0  0  0  0  0
  -21.4133  -29.3025   22.3734 N   0  0  0  0  0  0
  -26.4290  -37.3789   23.9415 N   0  0  0  0  0  0
  -24.6655  -31.0802   22.1005 N   0  0  0  0  0  0
  -23.4181  -28.8208   23.3031 O   0  0  0  0  0  0
  -28.3654  -26.6628   20.0948 O   0  0  0  0  0  0
  -26.5586  -34.8929   22.4694 O   0  0  0  0  0  0
  -23.5318  -32.1442   23.7508 O   0  0  0  0  0  0
  -31.2478  -22.2570   20.4756 C   0  0  0  0  0  0
  -31.3502  -20.8497   19.8822 C   0  0  0  0  0  0
  -30.8268  -16.7204   21.6287 C   0  0  0  0  0  0
  -29.1626  -16.3533   20.3874 C   0  0  0  0  0  0
  -29.2894  -20.9026   20.8853 C   0  0  0  0  0  0
  -29.7632  -17.6190   20.9961 C   0  0  0  0  0  0
  -29.8945  -22.2935   21.1957 C   0  0  2  0  0  0
  -30.1745  -18.7527   20.0370 C   0  0  0  0  0  0
  -29.5808  -24.7877   21.1953 C   0  0  0  0  0  0
  -28.5103  -25.9023   21.2999 C   0  0  0  0  0  0
  -30.1029  -15.5226   21.1558 N   0  0  0  0  0  0
  -30.4590  -20.0332   20.7022 N   0  0  0  0  0  0
  -29.0449  -23.4528   20.7950 N   0  3  0  0  0  0
  -31.4619  -12.3886   19.1294 H   0  0  0  0  0  0
  -30.3042  -11.3046   19.8424 H   0  0  0  0  0  0
  -29.7414  -11.7716   17.4353 H   0  0  0  0  0  0
  -29.6597  -13.4839   17.7685 H   0  0  0  0  0  0
  -27.8356  -11.2964   18.8310 H   0  0  0  0  0  0
  -27.3648  -12.6092   17.7856 H   0  0  0  0  0  0
  -27.6839  -14.2394   19.5344 H   0  0  0  0  0  0
  -28.6770  -12.0087   21.3810 H   0  0  0  0  0  0
  -28.4636  -13.6735   21.8406 H   0  0  0  0  0  0
  -25.2743   -9.5693   22.4751 H   0  0  0  0  0  0
  -24.0002   -7.4624   22.7465 H   0  0  0  0  0  0
  -21.0826   -8.8748   19.8952 H   0  0  0  0  0  0
  -22.3662  -10.9655   19.6156 H   0  0  0  0  0  0
  -21.2002   -7.6144   23.9711 H   0  0  0  0  0  0
  -21.1474   -6.0516   25.9074 H   0  0  0  0  0  0
  -22.0608   -2.7606   23.2839 H   0  0  0  0  0  0
  -22.4104  -11.9893   22.4803 H   0  0  0  0  0  0
  -21.1103  -13.1251   22.2603 H   0  0  0  0  0  0
  -24.6566  -15.8394   20.5090 H   0  0  0  0  0  0
  -26.2737  -15.6222   20.0709 H   0  0  0  0  0  0
  -26.7091  -32.5549   23.1166 H   0  0  0  0  0  0
  -25.0044  -33.9783   25.0489 H   0  0  0  0  0  0
  -22.6896  -31.3085   21.4111 H   0  0  0  0  0  0
  -23.3742  -35.9646   23.3306 H   0  0  0  0  0  0
  -24.3591  -36.8914   22.2056 H   0  0  0  0  0  0
  -23.7239  -37.6519   23.6646 H   0  0  0  0  0  0
  -26.0374  -31.6008   20.5919 H   0  0  0  0  0  0
  -26.8175  -30.8946   21.9790 H   0  0  0  0  0  0
  -28.0981  -29.1097   21.1782 H   0  0  0  0  0  0
  -26.0775  -25.9738   19.0151 H   0  0  0  0  0  0
  -23.9815  -27.2940   19.0352 H   0  0  0  0  0  0
  -23.7173  -30.5975   19.4053 H   0  0  0  0  0  0
  -22.7354  -29.2409   19.8703 H   0  0  0  0  0  0
  -25.1280  -36.1964   25.0841 H   0  0  0  0  0  0
  -20.9965  -28.3215   24.1452 H   0  0  0  0  0  0
  -20.5690  -26.2258   23.3603 H   0  0  0  0  0  0
  -21.6634  -26.7455   22.1200 H   0  0  0  0  0  0
  -19.6900  -25.6304   21.1241 H   0  0  0  0  0  0
  -19.6688  -27.3213   20.6770 H   0  0  0  0  0  0
  -17.4196  -26.6693   21.4023 H   0  0  0  0  0  0
  -18.0312  -26.0073   22.9022 H   0  0  0  0  0  0
  -19.7929  -30.7268   24.2278 H   0  0  0  0  0  0
  -17.5011  -31.6267   24.5175 H   0  0  0  0  0  0
  -15.5348  -30.2998   23.7649 H   0  0  0  0  0  0
  -15.8666  -28.0848   22.7026 H   0  0  0  0  0  0
  -24.5871  -30.7108   25.7821 H   0  0  0  0  0  0
  -24.8988  -32.2874   26.4984 H   0  0  0  0  0  0
  -25.8109  -30.8823   27.0199 H   0  0  0  0  0  0
  -26.2795  -29.6810   24.1141 H   0  0  0  0  0  0
  -27.4071  -29.7267   25.4506 H   0  0  0  0  0  0
  -27.8623  -30.4363   23.9184 H   0  0  0  0  0  0
  -27.2659  -33.3602   26.2071 H   0  0  0  0  0  0
  -28.3826  -32.6894   25.0276 H   0  0  0  0  0  0
  -28.0727  -31.8419   26.5356 H   0  0  0  0  0  0
  -28.2598  -38.0104   24.7508 H   0  0  0  0  0  0
  -28.1078  -36.2634   24.6292 H   0  0  0  0  0  0
  -27.2308  -37.1449   25.8875 H   0  0  0  0  0  0
  -20.9285  -29.8731   21.6952 H   0  0  0  0  0  0
  -26.0178  -38.2867   24.1414 H   0  0  0  0  0  0
  -31.3442  -23.0081   19.6912 H   0  0  0  0  0  0
  -32.0534  -22.4311   21.1903 H   0  0  0  0  0  0
  -32.3741  -20.4722   19.8851 H   0  0  0  0  0  0
  -31.0032  -20.8642   18.8464 H   0  0  0  0  0  0
  -30.8720  -16.8129   22.7146 H   0  0  0  0  0  0
  -31.8179  -16.8708   21.1947 H   0  0  0  0  0  0
  -29.2899  -16.2925   19.3035 H   0  0  0  0  0  0
  -28.1184  -16.2141   20.6651 H   0  0  0  0  0  0
  -28.7072  -20.9406   19.9621 H   0  0  0  0  0  0
  -28.6335  -20.5451   21.6810 H   0  0  0  0  0  0
  -29.0809  -17.9747   21.7705 H   0  0  0  0  0  0
  -30.0708  -22.3445   22.2718 H   0  0  0  0  0  0
  -29.4176  -18.8974   19.2640 H   0  0  0  0  0  0
  -31.0700  -18.4312   19.5004 H   0  0  0  0  0  0
  -30.0261  -24.6823   22.1855 H   0  0  0  0  0  0
  -30.3906  -25.0971   20.5341 H   0  0  0  0  0  0
  -28.8141  -26.6009   22.0809 H   0  0  0  0  0  0
  -27.5561  -25.4840   21.6267 H   0  0  0  0  0  0
  -28.1499  -23.3239   21.2417 H   0  0  0  0  0  0
  -28.8829  -23.4386   19.7993 H   0  0  0  0  0  0
  1 25  1  0  0  0
  1 30  2  0  0  0
  1 81  1  0  0  0
  2  3  1  0  0  0
  2 25  1  0  0  0
  2 84  1  0  0  0
  2 85  1  0  0  0
  3  4  1  0  0  0
  3 86  1  0  0  0
  3 87  1  0  0  0
  4  5  1  0  0  0
  4 88  1  0  0  0
  4 89  1  0  0  0
  5  6  1  0  0  0
  5 26  1  0  0  0
  5 90  1  0  0  0
  6 25  1  0  0  0
  6 91  1  0  0  0
  6 92  1  0  0  0
  7  8  2  0  0  0
  7 26  1  0  0  0
  7 29  1  0  0  0
  8  9  1  0  0  0
  8 22  1  0  0  0
  9 10  1  0  0  0
  9 27  2  0  0  0
 10 11  2  0  0  0
 10 15  1  0  0  0
 11 12  1  0  0  0
 11 93  1  0  0  0
 12 13  2  0  0  0
 12 94  1  0  0  0
 13 14  1  0  0  0
 13 31  1  0  0  0
 14 15  2  0  0  0
 14 95  1  0  0  0
 15 96  1  0  0  0
 16 17  2  0  0  0
 16 21  1  0  0  0
 16 31  1  0  0  0
 17 18  1  0  0  0
 17 97  1  0  0  0
 18 19  2  0  0  0
 18 98  1  0  0  0
 19 20  1  0  0  0
 19 24  1  0  0  0
 20 21  2  0  0  0
 20 99  1  0  0  0
 21 23  1  0  0  0
 22 28  1  0  0  0
 22 32  2  0  0  0
 26 27  1  0  0  0
 28100  1  0  0  0
 28101  1  0  0  0
 29102  1  0  0  0
 29103  1  0  0  0
 33 34  1  0  0  0
 33 66  1  0  0  0
 33 70  2  0  0  0
 34 36  1  0  0  0
 34 59  1  0  0  0
 34104  1  0  0  0
 35 44  2  0  0  0
 35 45  1  0  0  0
 35 68  1  0  0  0
 36 56  1  0  0  0
 36105  1  0  0  0
 37 39  1  0  0  0
 37 47  1  0  0  0
 37 66  1  0  0  0
 37106  1  0  0  0
 38 43  2  0  0  0
 38 46  1  0  0  0
 38 47  1  0  0  0
 39 64  1  0  0  0
 39 67  2  0  0  0
 40 52  1  0  0  0
 40 53  2  0  0  0
 40 58  1  0  0  0
 41107  1  0  0  0
 41108  1  0  0  0
 41109  1  0  0  0
 41 48  1  0  0  0
 42 43  1  0  0  0
 42 66  1  0  0  0
 42110  1  0  0  0
 42111  1  0  0  0
 43 44  1  0  0  0
 44112  1  0  0  0
 45 46  2  0  0  0
 45113  1  0  0  0
 46114  1  0  0  0
 47115  1  0  0  0
 47116  1  0  0  0
 48 56  1  0  0  0
 48 65  1  0  0  0
 48117  1  0  0  0
 49 50  1  0  0  0
 49 53  1  0  0  0
 49 64  1  0  0  0
 49118  1  0  0  0
 50 51  1  0  0  0
 50119  1  0  0  0
 50120  1  0  0  0
 51 52  1  0  0  0
 51121  1  0  0  0
 51122  1  0  0  0
 52123  1  0  0  0
 52124  1  0  0  0
 53 54  1  0  0  0
 54 55  2  0  0  0
 54125  1  0  0  0
 55 57  1  0  0  0
 55126  1  0  0  0
 56 69  2  0  0  0
 57 58  2  0  0  0
 57127  1  0  0  0
 58128  1  0  0  0
 59 60  1  0  0  0
 59 61  1  0  0  0
 59 62  1  0  0  0
 60129  1  0  0  0
 60130  1  0  0  0
 60131  1  0  0  0
 61132  1  0  0  0
 61133  1  0  0  0
 61134  1  0  0  0
 62135  1  0  0  0
 62136  1  0  0  0
 62137  1  0  0  0
 63 65  1  0  0  0
 63138  1  0  0  0
 63139  1  0  0  0
 63140  1  0  0  0
 64141  1  0  0  0
 65142  1  0  0  0
 68 80  1  0  0  0
 71 72  1  0  0  0
 71 77  1  0  0  0
 71143  1  0  0  0
 71144  1  0  0  0
 72 82  1  0  0  0
 72145  1  0  0  0
 72146  1  0  0  0
 73 76  1  0  0  0
 73 81  1  0  0  0
 73147  1  0  0  0
 73148  1  0  0  0
 74 76  1  0  0  0
 74 81  1  0  0  0
 74149  1  0  0  0
 74150  1  0  0  0
 75 77  1  0  0  0
 75 82  1  0  0  0
 75151  1  0  0  0
 75152  1  0  0  0
 76 78  1  0  0  0
 76153  1  0  0  0
 77 83  1  0  0  0
 77154  1  0  0  0
 78 82  1  0  0  0
 78155  1  0  0  0
 78156  1  0  0  0
 79 80  1  0  0  0
 79 83  1  0  0  0
 79157  1  0  0  0
 79158  1  0  0  0
 80159  1  0  0  0
 80160  1  0  0  0
 83161  1  0  0  0
 83162  1  0  0  0
M  CHG  1  83   1
M  ISO  4   1 100  68 101  80 101  81 100
M  END
> <chiral flag>
0

> <version>
0

> <s_m_source_file>
/data/baiqing/PycharmProjects/Reinvent-master-3.2/result/LINK_invent/BTK/process_docking_weight1_custom_sum_contain_oxygen_bond_distance_aromatic_linkinvent_7_9_3/rearranged_h_0196.sdf

> <i_m_source_file_index>
4

> <r_mmod_Potential_Energy-OPLS-2005>
34.5243721008301

> <r_mmod_Stretch_Energy-OPLS-2005>
37.39453125

> <r_mmod_Bend_Energy-OPLS-2005>
118.852752685547

> <r_mmod_Torsional_Energy-OPLS-2005>
381.220916748047

> <r_mmod_Improper_Torsional_Energy-OPLS-2005>
9.21949672698975

> <r_mmod_Van_der_Waal_Energy-OPLS-2005>
127.739486694336

> <r_mmod_Electrostatic_Energy-OPLS-2005>
-198.108551025391

> <r_mmod_Solvation_Energy-OPLS-2005>
-456.122161865234

> <b_mmod_Minimization_Converged-OPLS-2005>
0

> <r_mmod_RMS_Derivative-OPLS-2005>
1.12239038944244

$$$$
4
                    3D
 Structure written by MMmdl.
156165  0  0  1  0            999 V2000
  -30.5438  -14.9370   20.4176 C   0  0  0  0  0  0
  -30.4419  -12.5829   19.4823 C   0  0  0  0  0  0
  -29.5163  -12.5176   18.2458 C   0  0  0  0  0  0
  -28.0509  -12.3056   18.6720 C   0  0  0  0  0  0
  -27.6291  -13.2430   19.8338 C   0  0  2  0  0  0
  -28.6752  -13.2708   20.9666 C   0  0  0  0  0  0
  -25.2475  -13.8200   20.5712 C   0  0  0  0  0  0
  -24.1786  -13.0436   20.9231 C   0  0  0  0  0  0
  -24.6394  -11.6918   20.8764 C   0  0  0  0  0  0
  -23.9073  -10.4291   21.0421 C   0  0  0  0  0  0
  -24.3626   -9.4202   21.9197 C   0  0  0  0  0  0
  -23.6298   -8.2237   22.0757 C   0  0  0  0  0  0
  -22.4280   -8.0280   21.3543 C   0  0  0  0  0  0
  -21.9921   -9.0253   20.4648 C   0  0  0  0  0  0
  -22.7250  -10.2133   20.3063 C   0  0  0  0  0  0
  -21.6853   -6.0746   22.5277 C   0  0  0  0  0  0
  -21.4016   -6.5644   23.8213 C   0  0  0  0  0  0
  -21.3653   -5.6795   24.9172 C   0  0  0  0  0  0
  -21.6040   -4.3057   24.7225 C   0  0  0  0  0  0
  -21.8817   -3.8155   23.4346 C   0  0  0  0  0  0
  -21.9193   -4.6974   22.3402 C   0  0  0  0  0  0
  -22.7807  -13.5213   21.1882 C   0  0  0  0  0  0
  -22.1663   -4.2159   21.0982 F   0  0  0  0  0  0
  -21.5623   -3.4539   25.7738 F   0  0  0  0  0  0
  -29.9477  -13.6807   20.3593 N   0  0  0  0  0  0
  -26.2892  -12.9424   20.3241 N   0  0  0  0  0  0
  -25.9324  -11.6561   20.5747 N   0  0  0  0  0  0
  -22.0455  -12.8196   22.0435 N   0  0  0  0  0  0
  -25.4135  -15.1928   20.4122 N   0  0  0  0  0  0
  -31.7564  -15.0041   20.1932 O   0  0  0  0  0  0
  -21.6638   -6.8887   21.4239 O   0  0  0  0  0  0
  -22.3492  -14.5519   20.6729 O   0  0  0  0  0  0
  -24.6434  -31.8441   23.1886 C   0  0  0  0  0  0
  -25.9206  -32.4697   23.8276 C   0  0  1  0  0  0
  -27.2177  -27.1384   20.1591 C   0  0  0  0  0  0
  -25.5950  -33.8503   24.2183 N   0  0  0  0  0  0
  -23.4473  -30.4634   21.5334 C   0  0  2  0  0  0
  -24.8977  -28.8875   20.1155 C   0  0  0  0  0  0
  -22.7578  -29.4546   22.4861 C   0  0  0  0  0  0
  -18.0301  -28.1398   22.8485 C   0  0  0  0  0  0
  -24.1478  -36.7238   23.2647 C   0  0  0  0  0  0
  -26.0045  -30.7178   21.3889 C   0  0  0  0  0  0
  -26.0760  -29.3285   20.7333 C   0  0  0  0  0  0
  -27.2413  -28.4716   20.7342 C   0  0  0  0  0  0
  -26.0167  -26.7999   19.4995 C   0  0  0  0  0  0
  -24.8806  -27.6362   19.4832 C   0  0  0  0  0  0
  -23.6752  -29.7912   20.1540 C   0  0  0  0  0  0
  -25.4116  -36.3028   24.0315 C   0  0  1  0  0  0
  -20.5917  -28.3725   23.1231 C   0  0  2  0  0  0
  -20.6781  -26.9427   22.5401 C   0  0  0  0  0  0
  -19.5748  -26.6380   21.5218 C   0  0  0  0  0  0
  -18.1928  -26.7933   22.1626 C   0  0  0  0  0  0
  -19.1561  -28.8881   23.2847 C   0  0  0  0  0  0
  -18.9487  -30.1481   23.8875 C   0  0  0  0  0  0
  -17.6484  -30.6601   24.0571 C   0  0  0  0  0  0
  -25.9078  -34.9408   23.5060 C   0  0  0  0  0  0
  -16.5373  -29.9095   23.6353 C   0  0  0  0  0  0
  -16.7287  -28.6512   23.0371 C   0  0  0  0  0  0
  -26.4527  -31.6586   25.0734 C   0  0  0  0  0  0
  -25.3709  -31.3772   26.1433 C   0  0  0  0  0  0
  -27.0418  -30.2988   24.6329 C   0  0  0  0  0  0
  -27.6055  -32.4377   25.7504 C   0  0  0  0  0  0
  -27.5565  -37.1771   24.8471 C   0  0  0  0  0  0
  -21.4268  -29.3051   22.3613 N   0  0  0  0  0  0
  -26.4269  -37.3754   23.9426 N   0  0  0  0  0  0
  -24.7179  -31.0303   22.0917 N   0  0  0  0  0  0
  -23.4219  -28.8097   23.3016 O   0  0  0  0  0  0
  -28.2629  -26.1459   20.1802 O   0  0  0  0  0  0
  -26.5676  -34.8909   22.4645 O   0  0  0  0  0  0
  -23.5547  -32.1308   23.7110 O   0  0  0  0  0  0
  -29.4306  -23.2687   19.0097 C   0  0  0  0  0  0
  -29.8617  -21.9536   18.8937 C   0  0  0  0  0  0
  -29.3670  -21.2166   20.0289 C   0  0  0  0  0  0
  -28.9590  -18.7099   21.1426 C   0  0  0  0  0  0
  -30.1849  -18.6698   19.4955 C   0  0  0  0  0  0
  -30.0838  -17.6477   20.7054 C   0  0  0  0  0  0
  -32.2136  -21.4631   18.1336 C   0  0  0  0  0  0
  -30.7238  -21.4389   17.7684 C   0  0  0  0  0  0
  -27.9435  -24.7423   20.6834 C   0  0  0  0  0  0
  -28.6610  -22.1586   20.7665 N   0  0  0  0  0  0
  -28.6956  -23.4562   20.1618 N   0  0  0  0  0  0
  -29.7083  -19.7653   20.4022 N   0  0  0  0  0  0
  -29.7541  -16.1121   20.5262 N   0  0  0  0  0  0
  -31.4721  -12.7499   19.1634 H   0  0  0  0  0  0
  -30.4435  -11.6324   20.0186 H   0  0  0  0  0  0
  -29.8312  -11.7130   17.5798 H   0  0  0  0  0  0
  -29.6008  -13.4418   17.6720 H   0  0  0  0  0  0
  -27.9507  -11.2662   18.9870 H   0  0  0  0  0  0
  -27.3825  -12.4295   17.8194 H   0  0  0  0  0  0
  -27.5910  -14.2436   19.4025 H   0  0  0  0  0  0
  -28.7640  -12.2950   21.4455 H   0  0  0  0  0  0
  -28.3787  -13.9735   21.7473 H   0  0  0  0  0  0
  -25.2772   -9.5679   22.4777 H   0  0  0  0  0  0
  -24.0006   -7.4630   22.7476 H   0  0  0  0  0  0
  -21.0852   -8.8781   19.8954 H   0  0  0  0  0  0
  -22.3713  -10.9681   19.6174 H   0  0  0  0  0  0
  -21.2008   -7.6152   23.9721 H   0  0  0  0  0  0
  -21.1472   -6.0525   25.9075 H   0  0  0  0  0  0
  -22.0601   -2.7619   23.2841 H   0  0  0  0  0  0
  -22.4078  -11.9855   22.4818 H   0  0  0  0  0  0
  -21.1073  -13.1219   22.2654 H   0  0  0  0  0  0
  -24.6375  -15.8385   20.5129 H   0  0  0  0  0  0
  -26.2464  -15.6328   20.0442 H   0  0  0  0  0  0
  -26.7279  -32.5302   23.1011 H   0  0  0  0  0  0
  -25.0090  -33.9624   25.0325 H   0  0  0  0  0  0
  -22.7498  -31.2897   21.3777 H   0  0  0  0  0  0
  -23.3765  -35.9546   23.3292 H   0  0  0  0  0  0
  -24.3554  -36.8888   22.2065 H   0  0  0  0  0  0
  -23.7207  -37.6411   23.6710 H   0  0  0  0  0  0
  -26.1622  -31.4707   20.6153 H   0  0  0  0  0  0
  -26.8740  -30.7672   22.0332 H   0  0  0  0  0  0
  -28.1428  -28.8078   21.2270 H   0  0  0  0  0  0
  -25.9382  -25.8441   19.0008 H   0  0  0  0  0  0
  -23.9826  -27.2963   18.9857 H   0  0  0  0  0  0
  -23.8141  -30.5648   19.3976 H   0  0  0  0  0  0
  -22.7896  -29.2339   19.8430 H   0  0  0  0  0  0
  -25.1297  -36.1847   25.0803 H   0  0  0  0  0  0
  -21.0006  -28.3308   24.1352 H   0  0  0  0  0  0
  -20.5677  -26.2338   23.3618 H   0  0  0  0  0  0
  -21.6644  -26.7417   22.1198 H   0  0  0  0  0  0
  -19.6910  -25.6286   21.1255 H   0  0  0  0  0  0
  -19.6682  -27.3187   20.6745 H   0  0  0  0  0  0
  -17.4195  -26.6700   21.4024 H   0  0  0  0  0  0
  -18.0324  -26.0067   22.9012 H   0  0  0  0  0  0
  -19.7971  -30.7304   24.2214 H   0  0  0  0  0  0
  -17.5046  -31.6278   24.5177 H   0  0  0  0  0  0
  -15.5381  -30.2997   23.7687 H   0  0  0  0  0  0
  -15.8679  -28.0827   22.7103 H   0  0  0  0  0  0
  -24.5867  -30.7147   25.7743 H   0  0  0  0  0  0
  -24.8925  -32.2955   26.4857 H   0  0  0  0  0  0
  -25.7979  -30.8929   27.0227 H   0  0  0  0  0  0
  -26.3053  -29.6697   24.1322 H   0  0  0  0  0  0
  -27.4022  -29.7304   25.4918 H   0  0  0  0  0  0
  -27.8952  -30.4237   23.9661 H   0  0  0  0  0  0
  -27.2657  -33.3723   26.1984 H   0  0  0  0  0  0
  -28.3907  -32.6878   25.0355 H   0  0  0  0  0  0
  -28.0686  -31.8574   26.5496 H   0  0  0  0  0  0
  -28.2578  -38.0076   24.7542 H   0  0  0  0  0  0
  -28.1061  -36.2608   24.6267 H   0  0  0  0  0  0
  -27.2281  -37.1376   25.8872 H   0  0  0  0  0  0
  -20.9495  -29.8768   21.6788 H   0  0  0  0  0  0
  -26.0124  -38.2804   24.1483 H   0  0  0  0  0  0
  -29.5999  -24.1062   18.3468 H   0  0  0  0  0  0
  -28.9014  -18.8821   22.2180 H   0  0  0  0  0  0
  -27.9727  -18.5228   20.7115 H   0  0  0  0  0  0
  -29.4874  -18.4675   18.6800 H   0  0  0  0  0  0
  -31.2020  -18.8059   19.1270 H   0  0  0  0  0  0
  -30.9590  -17.7664   21.3479 H   0  0  0  0  0  0
  -32.8212  -21.0787   17.3135 H   0  0  0  0  0  0
  -32.4218  -20.8531   19.0131 H   0  0  0  0  0  0
  -32.5510  -22.4780   18.3464 H   0  0  0  0  0  0
  -30.5795  -22.0419   16.8705 H   0  0  0  0  0  0
  -30.4325  -20.4311   17.4749 H   0  0  0  0  0  0
  -28.1095  -24.7720   21.7610 H   0  0  0  0  0  0
  -26.8818  -24.5357   20.5571 H   0  0  0  0  0  0
  -28.7686  -15.9090   20.5887 H   0  0  0  0  0  0
  1 25  1  0  0  0
  1 30  2  0  0  0
  1 83  1  0  0  0
  2  3  1  0  0  0
  2 25  1  0  0  0
  2 84  1  0  0  0
  2 85  1  0  0  0
  3  4  1  0  0  0
  3 86  1  0  0  0
  3 87  1  0  0  0
  4  5  1  0  0  0
  4 88  1  0  0  0
  4 89  1  0  0  0
  5  6  1  0  0  0
  5 26  1  0  0  0
  5 90  1  0  0  0
  6 25  1  0  0  0
  6 91  1  0  0  0
  6 92  1  0  0  0
  7  8  2  0  0  0
  7 26  1  0  0  0
  7 29  1  0  0  0
  8  9  1  0  0  0
  8 22  1  0  0  0
  9 10  1  0  0  0
  9 27  2  0  0  0
 10 11  2  0  0  0
 10 15  1  0  0  0
 11 12  1  0  0  0
 11 93  1  0  0  0
 12 13  2  0  0  0
 12 94  1  0  0  0
 13 14  1  0  0  0
 13 31  1  0  0  0
 14 15  2  0  0  0
 14 95  1  0  0  0
 15 96  1  0  0  0
 16 17  2  0  0  0
 16 21  1  0  0  0
 16 31  1  0  0  0
 17 18  1  0  0  0
 17 97  1  0  0  0
 18 19  2  0  0  0
 18 98  1  0  0  0
 19 20  1  0  0  0
 19 24  1  0  0  0
 20 21  2  0  0  0
 20 99  1  0  0  0
 21 23  1  0  0  0
 22 28  1  0  0  0
 22 32  2  0  0  0
 26 27  1  0  0  0
 28100  1  0  0  0
 28101  1  0  0  0
 29102  1  0  0  0
 29103  1  0  0  0
 33 34  1  0  0  0
 33 66  1  0  0  0
 33 70  2  0  0  0
 34 36  1  0  0  0
 34 59  1  0  0  0
 34104  1  0  0  0
 35 44  2  0  0  0
 35 45  1  0  0  0
 35 68  1  0  0  0
 36 56  1  0  0  0
 36105  1  0  0  0
 37 39  1  0  0  0
 37 47  1  0  0  0
 37 66  1  0  0  0
 37106  1  0  0  0
 38 43  2  0  0  0
 38 46  1  0  0  0
 38 47  1  0  0  0
 39 64  1  0  0  0
 39 67  2  0  0  0
 40 52  1  0  0  0
 40 53  2  0  0  0
 40 58  1  0  0  0
 41107  1  0  0  0
 41108  1  0  0  0
 41109  1  0  0  0
 41 48  1  0  0  0
 42 43  1  0  0  0
 42 66  1  0  0  0
 42110  1  0  0  0
 42111  1  0  0  0
 43 44  1  0  0  0
 44112  1  0  0  0
 45 46  2  0  0  0
 45113  1  0  0  0
 46114  1  0  0  0
 47115  1  0  0  0
 47116  1  0  0  0
 48 56  1  0  0  0
 48 65  1  0  0  0
 48117  1  0  0  0
 49 50  1  0  0  0
 49 53  1  0  0  0
 49 64  1  0  0  0
 49118  1  0  0  0
 50 51  1  0  0  0
 50119  1  0  0  0
 50120  1  0  0  0
 51 52  1  0  0  0
 51121  1  0  0  0
 51122  1  0  0  0
 52123  1  0  0  0
 52124  1  0  0  0
 53 54  1  0  0  0
 54 55  2  0  0  0
 54125  1  0  0  0
 55 57  1  0  0  0
 55126  1  0  0  0
 56 69  2  0  0  0
 57 58  2  0  0  0
 57127  1  0  0  0
 58128  1  0  0  0
 59 60  1  0  0  0
 59 61  1  0  0  0
 59 62  1  0  0  0
 60129  1  0  0  0
 60130  1  0  0  0
 60131  1  0  0  0
 61132  1  0  0  0
 61133  1  0  0  0
 61134  1  0  0  0
 62135  1  0  0  0
 62136  1  0  0  0
 62137  1  0  0  0
 63 65  1  0  0  0
 63138  1  0  0  0
 63139  1  0  0  0
 63140  1  0  0  0
 64141  1  0  0  0
 65142  1  0  0  0
 68 79  1  0  0  0
 71 72  2  0  0  0
 71 81  1  0  0  0
 71143  1  0  0  0
 72 73  1  0  0  0
 72 78  1  0  0  0
 73 80  2  0  0  0
 73 82  1  0  0  0
 74 76  1  0  0  0
 74 82  1  0  0  0
 74144  1  0  0  0
 74145  1  0  0  0
 75 76  1  0  0  0
 75 82  1  0  0  0
 75146  1  0  0  0
 75147  1  0  0  0
 76 83  1  0  0  0
 76148  1  0  0  0
 77 78  1  0  0  0
 77149  1  0  0  0
 77150  1  0  0  0
 77151  1  0  0  0
 78152  1  0  0  0
 78153  1  0  0  0
 79 81  1  0  0  0
 79154  1  0  0  0
 79155  1  0  0  0
 80 81  1  0  0  0
 83156  1  0  0  0
M  ISO  4   1 100  68 101  79 101  83 100
M  END
> <chiral flag>
0

> <version>
0

> <s_m_source_file>
/data/baiqing/PycharmProjects/Reinvent-master-3.2/result/LINK_invent/BTK/process_docking_weight1_custom_sum_contain_oxygen_bond_distance_aromatic_linkinvent_7_9_3/rearranged_h_0196.sdf

> <i_m_source_file_index>
5

> <r_mmod_Potential_Energy-OPLS-2005>
375.931060791016

> <r_mmod_Stretch_Energy-OPLS-2005>
217.712249755859

> <r_mmod_Bend_Energy-OPLS-2005>
311.334197998047

> <r_mmod_Torsional_Energy-OPLS-2005>
245.411819458008

> <r_mmod_Improper_Torsional_Energy-OPLS-2005>
10.400562286377

> <r_mmod_Van_der_Waal_Energy-OPLS-2005>
107.336715698242

> <r_mmod_Electrostatic_Energy-OPLS-2005>
-455.232269287109

> <r_mmod_Solvation_Energy-OPLS-2005>
-250.446640014648

> <b_mmod_Minimization_Converged-OPLS-2005>
0

> <r_mmod_RMS_Derivative-OPLS-2005>
1.2738002538681

$$$$
5
                    3D
 Structure written by MMmdl.
156165  0  0  1  0            999 V2000
  -30.6954  -14.5304   20.5263 C   0  0  0  0  0  0
  -30.4179  -12.3235   19.4386 C   0  0  0  0  0  0
  -29.4823  -12.4777   18.2182 C   0  0  0  0  0  0
  -28.0119  -12.3137   18.6424 C   0  0  0  0  0  0
  -27.6506  -13.1995   19.8623 C   0  0  2  0  0  0
  -28.6996  -13.0592   20.9903 C   0  0  0  0  0  0
  -25.2579  -13.8143   20.5738 C   0  0  0  0  0  0
  -24.1818  -13.0416   20.9230 C   0  0  0  0  0  0
  -24.6388  -11.6889   20.8806 C   0  0  0  0  0  0
  -23.9051  -10.4275   21.0457 C   0  0  0  0  0  0
  -24.3611   -9.4189   21.9233 C   0  0  0  0  0  0
  -23.6289   -8.2229   22.0792 C   0  0  0  0  0  0
  -22.4247   -8.0299   21.3601 C   0  0  0  0  0  0
  -21.9890   -9.0250   20.4669 C   0  0  0  0  0  0
  -22.7237  -10.2129   20.3099 C   0  0  0  0  0  0
  -21.6855   -6.0766   22.5284 C   0  0  0  0  0  0
  -21.4006   -6.5660   23.8222 C   0  0  0  0  0  0
  -21.3652   -5.6813   24.9171 C   0  0  0  0  0  0
  -21.6036   -4.3077   24.7196 C   0  0  0  0  0  0
  -21.8827   -3.8172   23.4320 C   0  0  0  0  0  0
  -21.9180   -4.6999   22.3389 C   0  0  0  0  0  0
  -22.7834  -13.5213   21.1823 C   0  0  0  0  0  0
  -22.1649   -4.2194   21.0959 F   0  0  0  0  0  0
  -21.5632   -3.4560   25.7715 F   0  0  0  0  0  0
  -30.0211  -13.3491   20.4200 N   0  0  0  0  0  0
  -26.2984  -12.9276   20.3350 N   0  0  0  0  0  0
  -25.9322  -11.6451   20.5850 N   0  0  0  0  0  0
  -22.0442  -12.8244   22.0392 N   0  0  0  0  0  0
  -25.4337  -15.1866   20.4227 N   0  0  0  0  0  0
  -31.8394  -14.6718   20.0813 O   0  0  0  0  0  0
  -21.6641   -6.8903   21.4257 O   0  0  0  0  0  0
  -22.3490  -14.5472   20.6654 O   0  0  0  0  0  0
  -24.6217  -31.8681   23.2081 C   0  0  0  0  0  0
  -25.9091  -32.4801   23.8422 C   0  0  1  0  0  0
  -27.2238  -27.3903   20.0713 C   0  0  0  0  0  0
  -25.5977  -33.8619   24.2337 N   0  0  0  0  0  0
  -23.4071  -30.5008   21.5479 C   0  0  2  0  0  0
  -24.8530  -28.9637   20.1031 C   0  0  0  0  0  0
  -22.7440  -29.4691   22.4912 C   0  0  0  0  0  0
  -18.0272  -28.1387   22.8503 C   0  0  0  0  0  0
  -24.1465  -36.7266   23.2638 C   0  0  0  0  0  0
  -25.9473  -30.8085   21.3768 C   0  0  0  0  0  0
  -26.0198  -29.4466   20.7121 C   0  0  0  0  0  0
  -27.2104  -28.6689   20.6941 C   0  0  0  0  0  0
  -26.0430  -26.9580   19.4246 C   0  0  0  0  0  0
  -24.8635  -27.7215   19.4578 C   0  0  0  0  0  0
  -23.6211  -29.8418   20.1619 C   0  0  0  0  0  0
  -25.4073  -36.3081   24.0340 C   0  0  1  0  0  0
  -20.5876  -28.3693   23.1259 C   0  0  2  0  0  0
  -20.6763  -26.9399   22.5390 C   0  0  0  0  0  0
  -19.5735  -26.6374   21.5211 C   0  0  0  0  0  0
  -18.1923  -26.7928   22.1633 C   0  0  0  0  0  0
  -19.1533  -28.8863   23.2888 C   0  0  0  0  0  0
  -18.9471  -30.1473   23.8894 C   0  0  0  0  0  0
  -17.6470  -30.6614   24.0575 C   0  0  0  0  0  0
  -25.9050  -34.9476   23.5115 C   0  0  0  0  0  0
  -16.5372  -29.9085   23.6336 C   0  0  0  0  0  0
  -16.7252  -28.6508   23.0342 C   0  0  0  0  0  0
  -26.4467  -31.6592   25.0786 C   0  0  0  0  0  0
  -25.3688  -31.3741   26.1524 C   0  0  0  0  0  0
  -27.0315  -30.3033   24.6213 C   0  0  0  0  0  0
  -27.6044  -32.4330   25.7523 C   0  0  0  0  0  0
  -27.5509  -37.1751   24.8470 C   0  0  0  0  0  0
  -21.4168  -29.3060   22.3664 N   0  0  0  0  0  0
  -26.4236  -37.3745   23.9433 N   0  0  0  0  0  0
  -24.6756  -31.0728   22.1025 N   0  0  0  0  0  0
  -23.4190  -28.8201   23.2947 O   0  0  0  0  0  0
  -28.3543  -26.5801   20.0807 O   0  0  0  0  0  0
  -26.5541  -34.8907   22.4627 O   0  0  0  0  0  0
  -23.5409  -32.1509   23.7428 O   0  0  0  0  0  0
  -29.8102  -21.6684   20.1661 C   0  0  0  0  0  0
  -27.6911  -22.0979   20.0515 C   0  0  0  0  0  0
  -29.1175  -20.4677   20.1390 C   0  0  0  0  0  0
  -30.6278  -17.8210   21.8270 C   0  0  0  0  0  0
  -30.6394  -16.3221   22.1692 C   0  0  0  0  0  0
  -29.4167  -16.6206   20.1546 C   0  0  0  0  0  0
  -29.4522  -18.0053   20.8700 C   0  0  2  0  0  0
  -29.1733  -24.1632   19.8283 C   0  0  0  0  0  0
  -28.1421  -25.1753   20.4224 C   0  0  0  0  0  0
  -27.7592  -20.7647   20.1035 N   0  0  0  0  0  0
  -28.8836  -22.7194   20.0463 N   0  0  0  0  0  0
  -30.0241  -15.5954   21.0459 N   0  0  0  0  0  0
  -29.6336  -19.1510   19.9526 N   0  0  0  0  0  0
  -31.4620  -12.4179   19.1259 H   0  0  0  0  0  0
  -30.3189  -11.3273   19.8742 H   0  0  0  0  0  0
  -29.7286  -11.7407   17.4513 H   0  0  0  0  0  0
  -29.6247  -13.4567   17.7591 H   0  0  0  0  0  0
  -27.8506  -11.2626   18.8874 H   0  0  0  0  0  0
  -27.3452  -12.5362   17.8080 H   0  0  0  0  0  0
  -27.6628  -14.2284   19.5073 H   0  0  0  0  0  0
  -28.6992  -12.0524   21.4021 H   0  0  0  0  0  0
  -28.4555  -13.7177   21.8266 H   0  0  0  0  0  0
  -25.2758   -9.5674   22.4816 H   0  0  0  0  0  0
  -24.0031   -7.4614   22.7501 H   0  0  0  0  0  0
  -21.0836   -8.8753   19.8972 H   0  0  0  0  0  0
  -22.3687  -10.9683   19.6226 H   0  0  0  0  0  0
  -21.2015   -7.6175   23.9740 H   0  0  0  0  0  0
  -21.1475   -6.0534   25.9081 H   0  0  0  0  0  0
  -22.0622   -2.7643   23.2789 H   0  0  0  0  0  0
  -22.4034  -11.9840   22.4724 H   0  0  0  0  0  0
  -21.1127  -13.1387   22.2679 H   0  0  0  0  0  0
  -24.6807  -15.8481   20.5805 H   0  0  0  0  0  0
  -26.3033  -15.6319   20.1617 H   0  0  0  0  0  0
  -26.7108  -32.5436   23.1121 H   0  0  0  0  0  0
  -25.0213  -33.9856   25.0542 H   0  0  0  0  0  0
  -22.6977  -31.3218   21.4085 H   0  0  0  0  0  0
  -23.3739  -35.9579   23.3340 H   0  0  0  0  0  0
  -24.3560  -36.8869   22.2048 H   0  0  0  0  0  0
  -23.7201  -37.6466   23.6639 H   0  0  0  0  0  0
  -26.0861  -31.5747   20.6149 H   0  0  0  0  0  0
  -26.8279  -30.8487   22.0058 H   0  0  0  0  0  0
  -28.1093  -29.0368   21.1747 H   0  0  0  0  0  0
  -26.0155  -26.0387   18.8614 H   0  0  0  0  0  0
  -23.9780  -27.3541   18.9578 H   0  0  0  0  0  0
  -23.7318  -30.6283   19.4138 H   0  0  0  0  0  0
  -22.7418  -29.2728   19.8526 H   0  0  0  0  0  0
  -25.1201  -36.1940   25.0811 H   0  0  0  0  0  0
  -20.9989  -28.3273   24.1384 H   0  0  0  0  0  0
  -20.5654  -26.2322   23.3593 H   0  0  0  0  0  0
  -21.6636  -26.7440   22.1180 H   0  0  0  0  0  0
  -19.6916  -25.6277   21.1260 H   0  0  0  0  0  0
  -19.6685  -27.3185   20.6733 H   0  0  0  0  0  0
  -17.4168  -26.6713   21.4039 H   0  0  0  0  0  0
  -18.0345  -26.0064   22.9033 H   0  0  0  0  0  0
  -19.7971  -30.7300   24.2254 H   0  0  0  0  0  0
  -17.5033  -31.6293   24.5177 H   0  0  0  0  0  0
  -15.5380  -30.2980   23.7676 H   0  0  0  0  0  0
  -15.8668  -28.0843   22.6996 H   0  0  0  0  0  0
  -24.5898  -30.7049   25.7832 H   0  0  0  0  0  0
  -24.8854  -32.2916   26.4884 H   0  0  0  0  0  0
  -25.8041  -30.8954   27.0318 H   0  0  0  0  0  0
  -26.2872  -29.6771   24.1298 H   0  0  0  0  0  0
  -27.4071  -29.7319   25.4699 H   0  0  0  0  0  0
  -27.8698  -30.4313   23.9391 H   0  0  0  0  0  0
  -27.2664  -33.3641   26.2057 H   0  0  0  0  0  0
  -28.3828  -32.6884   25.0333 H   0  0  0  0  0  0
  -28.0688  -31.8492   26.5468 H   0  0  0  0  0  0
  -28.2515  -38.0045   24.7473 H   0  0  0  0  0  0
  -28.1020  -36.2576   24.6333 H   0  0  0  0  0  0
  -27.2279  -37.1430   25.8891 H   0  0  0  0  0  0
  -20.9326  -29.8840   21.6940 H   0  0  0  0  0  0
  -26.0161  -38.2821   24.1471 H   0  0  0  0  0  0
  -30.8764  -21.8586   20.1759 H   0  0  0  0  0  0
  -26.7477  -22.6233   19.9680 H   0  0  0  0  0  0
  -31.5703  -18.0732   21.3317 H   0  0  0  0  0  0
  -30.5390  -18.4505   22.7125 H   0  0  0  0  0  0
  -30.0560  -16.1235   23.0700 H   0  0  0  0  0  0
  -31.6588  -15.9866   22.3771 H   0  0  0  0  0  0
  -29.9902  -16.6629   19.2222 H   0  0  0  0  0  0
  -28.3921  -16.3573   19.8773 H   0  0  0  0  0  0
  -28.5362  -18.1247   21.4581 H   0  0  0  0  0  0
  -30.1662  -24.3782   20.2199 H   0  0  0  0  0  0
  -29.2450  -24.3147   18.7512 H   0  0  0  0  0  0
  -27.1568  -24.8306   20.1351 H   0  0  0  0  0  0
  -28.1516  -25.0975   21.5067 H   0  0  0  0  0  0
  -29.4090  -18.8453   19.0080 H   0  0  0  0  0  0
  1 25  1  0  0  0
  1 30  2  0  0  0
  1 82  1  0  0  0
  2  3  1  0  0  0
  2 25  1  0  0  0
  2 84  1  0  0  0
  2 85  1  0  0  0
  3  4  1  0  0  0
  3 86  1  0  0  0
  3 87  1  0  0  0
  4  5  1  0  0  0
  4 88  1  0  0  0
  4 89  1  0  0  0
  5  6  1  0  0  0
  5 26  1  0  0  0
  5 90  1  0  0  0
  6 25  1  0  0  0
  6 91  1  0  0  0
  6 92  1  0  0  0
  7  8  2  0  0  0
  7 26  1  0  0  0
  7 29  1  0  0  0
  8  9  1  0  0  0
  8 22  1  0  0  0
  9 10  1  0  0  0
  9 27  2  0  0  0
 10 11  2  0  0  0
 10 15  1  0  0  0
 11 12  1  0  0  0
 11 93  1  0  0  0
 12 13  2  0  0  0
 12 94  1  0  0  0
 13 14  1  0  0  0
 13 31  1  0  0  0
 14 15  2  0  0  0
 14 95  1  0  0  0
 15 96  1  0  0  0
 16 17  2  0  0  0
 16 21  1  0  0  0
 16 31  1  0  0  0
 17 18  1  0  0  0
 17 97  1  0  0  0
 18 19  2  0  0  0
 18 98  1  0  0  0
 19 20  1  0  0  0
 19 24  1  0  0  0
 20 21  2  0  0  0
 20 99  1  0  0  0
 21 23  1  0  0  0
 22 28  1  0  0  0
 22 32  2  0  0  0
 26 27  1  0  0  0
 28100  1  0  0  0
 28101  1  0  0  0
 29102  1  0  0  0
 29103  1  0  0  0
 33 34  1  0  0  0
 33 66  1  0  0  0
 33 70  2  0  0  0
 34 36  1  0  0  0
 34 59  1  0  0  0
 34104  1  0  0  0
 35 44  2  0  0  0
 35 45  1  0  0  0
 35 68  1  0  0  0
 36 56  1  0  0  0
 36105  1  0  0  0
 37 39  1  0  0  0
 37 47  1  0  0  0
 37 66  1  0  0  0
 37106  1  0  0  0
 38 43  2  0  0  0
 38 46  1  0  0  0
 38 47  1  0  0  0
 39 64  1  0  0  0
 39 67  2  0  0  0
 40 52  1  0  0  0
 40 53  2  0  0  0
 40 58  1  0  0  0
 41107  1  0  0  0
 41108  1  0  0  0
 41109  1  0  0  0
 41 48  1  0  0  0
 42 43  1  0  0  0
 42 66  1  0  0  0
 42110  1  0  0  0
 42111  1  0  0  0
 43 44  1  0  0  0
 44112  1  0  0  0
 45 46  2  0  0  0
 45113  1  0  0  0
 46114  1  0  0  0
 47115  1  0  0  0
 47116  1  0  0  0
 48 56  1  0  0  0
 48 65  1  0  0  0
 48117  1  0  0  0
 49 50  1  0  0  0
 49 53  1  0  0  0
 49 64  1  0  0  0
 49118  1  0  0  0
 50 51  1  0  0  0
 50119  1  0  0  0
 50120  1  0  0  0
 51 52  1  0  0  0
 51121  1  0  0  0
 51122  1  0  0  0
 52123  1  0  0  0
 52124  1  0  0  0
 53 54  1  0  0  0
 54 55  2  0  0  0
 54125  1  0  0  0
 55 57  1  0  0  0
 55126  1  0  0  0
 56 69  2  0  0  0
 57 58  2  0  0  0
 57127  1  0  0  0
 58128  1  0  0  0
 59 60  1  0  0  0
 59 61  1  0  0  0
 59 62  1  0  0  0
 60129  1  0  0  0
 60130  1  0  0  0
 60131  1  0  0  0
 61132  1  0  0  0
 61133  1  0  0  0
 61134  1  0  0  0
 62135  1  0  0  0
 62136  1  0  0  0
 62137  1  0  0  0
 63 65  1  0  0  0
 63138  1  0  0  0
 63139  1  0  0  0
 63140  1  0  0  0
 64141  1  0  0  0
 65142  1  0  0  0
 68 79  1  0  0  0
 71 73  2  0  0  0
 71 81  1  0  0  0
 71143  1  0  0  0
 72 80  2  0  0  0
 72 81  1  0  0  0
 72144  1  0  0  0
 73 80  1  0  0  0
 73 83  1  0  0  0
 74 75  1  0  0  0
 74 77  1  0  0  0
 74145  1  0  0  0
 74146  1  0  0  0
 75 82  1  0  0  0
 75147  1  0  0  0
 75148  1  0  0  0
 76 77  1  0  0  0
 76 82  1  0  0  0
 76149  1  0  0  0
 76150  1  0  0  0
 77 83  1  0  0  0
 77151  1  0  0  0
 78 79  1  0  0  0
 78 81  1  0  0  0
 78152  1  0  0  0
 78153  1  0  0  0
 79154  1  0  0  0
 79155  1  0  0  0
 83156  1  0  0  0
M  ISO  4   1 100  68 101  79 101  82 100
M  END
> <chiral flag>
0

> <version>
0

> <s_m_source_file>
/data/baiqing/PycharmProjects/Reinvent-master-3.2/result/LINK_invent/BTK/process_docking_weight1_custom_sum_contain_oxygen_bond_distance_aromatic_linkinvent_7_9_3/rearranged_h_0196.sdf

> <i_m_source_file_index>
6

> <r_mmod_Potential_Energy-OPLS-2005>
100.842185974121

> <r_mmod_Stretch_Energy-OPLS-2005>
50.0206413269043

> <r_mmod_Bend_Energy-OPLS-2005>
136.30940246582

> <r_mmod_Torsional_Energy-OPLS-2005>
384.197174072266

> <r_mmod_Improper_Torsional_Energy-OPLS-2005>
13.3589687347412

> <r_mmod_Van_der_Waal_Energy-OPLS-2005>
124.493438720703

> <r_mmod_Electrostatic_Energy-OPLS-2005>
-406.774139404297

> <r_mmod_Solvation_Energy-OPLS-2005>
-226.583740234375

> <b_mmod_Minimization_Converged-OPLS-2005>
0

> <r_mmod_RMS_Derivative-OPLS-2005>
6.16144847869873

$$$$
6
                    3D
 Structure written by MMmdl.
156165  0  0  1  0            999 V2000
  -30.6664  -14.6109   20.5000 C   0  0  0  0  0  0
  -30.4239  -12.3774   19.4501 C   0  0  0  0  0  0
  -29.5011  -12.5022   18.2189 C   0  0  0  0  0  0
  -28.0224  -12.3517   18.6292 C   0  0  0  0  0  0
  -27.6492  -13.2195   19.8614 C   0  0  2  0  0  0
  -28.6947  -13.0713   20.9876 C   0  0  0  0  0  0
  -25.2535  -13.8176   20.5682 C   0  0  0  0  0  0
  -24.1810  -13.0437   20.9191 C   0  0  0  0  0  0
  -24.6386  -11.6911   20.8743 C   0  0  0  0  0  0
  -23.9058  -10.4294   21.0409 C   0  0  0  0  0  0
  -24.3611   -9.4209   21.9186 C   0  0  0  0  0  0
  -23.6288   -8.2243   22.0754 C   0  0  0  0  0  0
  -22.4272   -8.0278   21.3543 C   0  0  0  0  0  0
  -21.9904   -9.0254   20.4649 C   0  0  0  0  0  0
  -22.7230  -10.2133   20.3058 C   0  0  0  0  0  0
  -21.6853   -6.0731   22.5276 C   0  0  0  0  0  0
  -21.4016   -6.5636   23.8209 C   0  0  0  0  0  0
  -21.3662   -5.6788   24.9172 C   0  0  0  0  0  0
  -21.6046   -4.3051   24.7226 C   0  0  0  0  0  0
  -21.8820   -3.8142   23.4347 C   0  0  0  0  0  0
  -21.9193   -4.6957   22.3401 C   0  0  0  0  0  0
  -22.7833  -13.5229   21.1853 C   0  0  0  0  0  0
  -22.1663   -4.2145   21.0980 F   0  0  0  0  0  0
  -21.5630   -3.4535   25.7738 F   0  0  0  0  0  0
  -30.0039  -13.4130   20.4161 N   0  0  0  0  0  0
  -26.2967  -12.9367   20.3323 N   0  0  0  0  0  0
  -25.9314  -11.6518   20.5758 N   0  0  0  0  0  0
  -22.0478  -12.8227   22.0416 N   0  0  0  0  0  0
  -25.4222  -15.1894   20.4071 N   0  0  0  0  0  0
  -31.8499  -14.6886   20.1534 O   0  0  0  0  0  0
  -21.6638   -6.8873   21.4238 O   0  0  0  0  0  0
  -22.3518  -14.5534   20.6698 O   0  0  0  0  0  0
  -24.6227  -31.8617   23.2041 C   0  0  0  0  0  0
  -25.9088  -32.4787   23.8359 C   0  0  1  0  0  0
  -27.2288  -27.3488   20.0998 C   0  0  0  0  0  0
  -25.5913  -33.8588   24.2288 N   0  0  0  0  0  0
  -23.4139  -30.4857   21.5465 C   0  0  2  0  0  0
  -24.8584  -28.9426   20.1116 C   0  0  0  0  0  0
  -22.7451  -29.4631   22.4950 C   0  0  0  0  0  0
  -18.0281  -28.1380   22.8487 C   0  0  0  0  0  0
  -24.1488  -36.7301   23.2640 C   0  0  0  0  0  0
  -25.9517  -30.8005   21.3700 C   0  0  0  0  0  0
  -26.0244  -29.4295   20.7131 C   0  0  0  0  0  0
  -27.2076  -28.6406   20.7033 C   0  0  0  0  0  0
  -26.0292  -26.8929   19.5037 C   0  0  0  0  0  0
  -24.8604  -27.6774   19.5041 C   0  0  0  0  0  0
  -23.6257  -29.8201   20.1610 C   0  0  0  0  0  0
  -25.4111  -36.3090   24.0332 C   0  0  1  0  0  0
  -20.5876  -28.3678   23.1295 C   0  0  2  0  0  0
  -20.6768  -26.9404   22.5414 C   0  0  0  0  0  0
  -19.5747  -26.6381   21.5211 C   0  0  0  0  0  0
  -18.1926  -26.7923   22.1622 C   0  0  0  0  0  0
  -19.1531  -28.8845   23.2887 C   0  0  0  0  0  0
  -18.9456  -30.1449   23.8903 C   0  0  0  0  0  0
  -17.6458  -30.6584   24.0563 C   0  0  0  0  0  0
  -25.9044  -34.9458   23.5111 C   0  0  0  0  0  0
  -16.5348  -29.9082   23.6327 C   0  0  0  0  0  0
  -16.7268  -28.6501   23.0349 C   0  0  0  0  0  0
  -26.4485  -31.6591   25.0721 C   0  0  0  0  0  0
  -25.3732  -31.3718   26.1459 C   0  0  0  0  0  0
  -27.0323  -30.3020   24.6153 C   0  0  0  0  0  0
  -27.6051  -32.4321   25.7488 C   0  0  0  0  0  0
  -27.5579  -37.1803   24.8464 C   0  0  0  0  0  0
  -21.4169  -29.3036   22.3693 N   0  0  0  0  0  0
  -26.4291  -37.3782   23.9408 N   0  0  0  0  0  0
  -24.6815  -31.0654   22.0976 N   0  0  0  0  0  0
  -23.4190  -28.8169   23.3016 O   0  0  0  0  0  0
  -28.3847  -26.5645   20.1516 O   0  0  0  0  0  0
  -26.5613  -34.8921   22.4677 O   0  0  0  0  0  0
  -23.5401  -32.1403   23.7392 O   0  0  0  0  0  0
  -29.7399  -22.6016   21.5566 C   0  0  0  0  0  0
  -29.3355  -21.4372   20.8456 C   0  0  0  0  0  0
  -28.7167  -23.9514   20.0046 C   0  0  0  0  0  0
  -29.3253  -17.7671   21.9687 C   0  0  0  0  0  0
  -30.3391  -18.2088   19.7759 C   0  0  0  0  0  0
  -29.0603  -16.2751   21.5751 C   0  0  0  0  0  0
  -30.0105  -16.7396   19.3593 C   0  0  0  0  0  0
  -29.3451  -18.7955   20.8025 C   0  0  0  0  0  0
  -28.5472  -25.3568   19.3289 C   0  0  0  0  0  0
  -29.4345  -23.8601   21.1338 N   0  0  0  0  0  0
  -28.5824  -21.6129   19.7271 N   0  0  0  0  0  0
  -28.2810  -22.8684   19.3091 N   0  0  0  0  0  0
  -29.9025  -15.7606   20.4732 N   0  0  0  0  0  0
  -29.7327  -20.1445   21.2948 N   0  0  0  0  0  0
  -31.4676  -12.4793   19.1480 H   0  0  0  0  0  0
  -30.3410  -11.3847   19.8951 H   0  0  0  0  0  0
  -29.7609  -11.7490   17.4738 H   0  0  0  0  0  0
  -29.6535  -13.4711   17.7405 H   0  0  0  0  0  0
  -27.8505  -11.2983   18.8541 H   0  0  0  0  0  0
  -27.3708  -12.5921   17.7883 H   0  0  0  0  0  0
  -27.6676  -14.2560   19.5250 H   0  0  0  0  0  0
  -28.7059  -12.0484   21.3664 H   0  0  0  0  0  0
  -28.4412  -13.6943   21.8421 H   0  0  0  0  0  0
  -25.2760   -9.5688   22.4755 H   0  0  0  0  0  0
  -24.0002   -7.4635   22.7473 H   0  0  0  0  0  0
  -21.0834   -8.8771   19.8956 H   0  0  0  0  0  0
  -22.3691  -10.9669   19.6161 H   0  0  0  0  0  0
  -21.2008   -7.6143   23.9709 H   0  0  0  0  0  0
  -21.1484   -6.0520   25.9074 H   0  0  0  0  0  0
  -22.0598   -2.7603   23.2846 H   0  0  0  0  0  0
  -22.4091  -11.9891   22.4809 H   0  0  0  0  0  0
  -21.1095  -13.1253   22.2622 H   0  0  0  0  0  0
  -24.6543  -15.8433   20.5135 H   0  0  0  0  0  0
  -26.2728  -15.6267   20.0772 H   0  0  0  0  0  0
  -26.7154  -32.5461   23.1108 H   0  0  0  0  0  0
  -25.0059  -33.9735   25.0432 H   0  0  0  0  0  0
  -22.7061  -31.3052   21.4054 H   0  0  0  0  0  0
  -23.3746  -35.9638   23.3309 H   0  0  0  0  0  0
  -24.3583  -36.8913   22.2053 H   0  0  0  0  0  0
  -23.7244  -37.6507   23.6657 H   0  0  0  0  0  0
  -26.0789  -31.5647   20.6020 H   0  0  0  0  0  0
  -26.8341  -30.8494   21.9963 H   0  0  0  0  0  0
  -28.1048  -29.0131   21.1776 H   0  0  0  0  0  0
  -25.9452  -25.9140   19.0590 H   0  0  0  0  0  0
  -23.9595  -27.2906   19.0476 H   0  0  0  0  0  0
  -23.7423  -30.5964   19.4038 H   0  0  0  0  0  0
  -22.7460  -29.2479   19.8609 H   0  0  0  0  0  0
  -25.1290  -36.1947   25.0825 H   0  0  0  0  0  0
  -20.9970  -28.3251   24.1415 H   0  0  0  0  0  0
  -20.5664  -26.2286   23.3610 H   0  0  0  0  0  0
  -21.6640  -26.7434   22.1213 H   0  0  0  0  0  0
  -19.6908  -25.6292   21.1238 H   0  0  0  0  0  0
  -19.6686  -27.3195   20.6743 H   0  0  0  0  0  0
  -17.4195  -26.6671   21.4023 H   0  0  0  0  0  0
  -18.0326  -26.0064   22.9018 H   0  0  0  0  0  0
  -19.7935  -30.7260   24.2273 H   0  0  0  0  0  0
  -17.5015  -31.6266   24.5161 H   0  0  0  0  0  0
  -15.5349  -30.2985   23.7650 H   0  0  0  0  0  0
  -15.8669  -28.0820   22.7060 H   0  0  0  0  0  0
  -24.5905  -30.7066   25.7796 H   0  0  0  0  0  0
  -24.8926  -32.2881   26.4899 H   0  0  0  0  0  0
  -25.8072  -30.8892   27.0226 H   0  0  0  0  0  0
  -26.2886  -29.6773   24.1191 H   0  0  0  0  0  0
  -27.4046  -29.7270   25.4642 H   0  0  0  0  0  0
  -27.8745  -30.4313   23.9352 H   0  0  0  0  0  0
  -27.2664  -33.3615   26.2080 H   0  0  0  0  0  0
  -28.3854  -32.6890   25.0311 H   0  0  0  0  0  0
  -28.0731  -31.8439   26.5392 H   0  0  0  0  0  0
  -28.2599  -38.0098   24.7510 H   0  0  0  0  0  0
  -28.1070  -36.2629   24.6288 H   0  0  0  0  0  0
  -27.2301  -37.1457   25.8868 H   0  0  0  0  0  0
  -20.9337  -29.8763   21.6917 H   0  0  0  0  0  0
  -26.0175  -38.2858   24.1406 H   0  0  0  0  0  0
  -30.3330  -22.5246   22.4564 H   0  0  0  0  0  0
  -30.2834  -17.8051   22.4896 H   0  0  0  0  0  0
  -28.5793  -18.0708   22.7048 H   0  0  0  0  0  0
  -30.3566  -18.8384   18.8854 H   0  0  0  0  0  0
  -31.3508  -18.2372   20.1839 H   0  0  0  0  0  0
  -28.0165  -16.1593   21.2848 H   0  0  0  0  0  0
  -29.2023  -15.6646   22.4675 H   0  0  0  0  0  0
  -30.7479  -16.4102   18.6245 H   0  0  0  0  0  0
  -29.0581  -16.7284   18.8278 H   0  0  0  0  0  0
  -28.3511  -18.8503   20.3544 H   0  0  0  0  0  0
  -27.8298  -25.2863   18.5147 H   0  0  0  0  0  0
  -29.4885  -25.5182   18.8034 H   0  0  0  0  0  0
  -30.2930  -20.1523   22.1416 H   0  0  0  0  0  0
  1 25  1  0  0  0
  1 30  2  0  0  0
  1 83  1  0  0  0
  2  3  1  0  0  0
  2 25  1  0  0  0
  2 85  1  0  0  0
  2 86  1  0  0  0
  3  4  1  0  0  0
  3 87  1  0  0  0
  3 88  1  0  0  0
  4  5  1  0  0  0
  4 89  1  0  0  0
  4 90  1  0  0  0
  5  6  1  0  0  0
  5 26  1  0  0  0
  5 91  1  0  0  0
  6 25  1  0  0  0
  6 92  1  0  0  0
  6 93  1  0  0  0
  7  8  2  0  0  0
  7 26  1  0  0  0
  7 29  1  0  0  0
  8  9  1  0  0  0
  8 22  1  0  0  0
  9 10  1  0  0  0
  9 27  2  0  0  0
 10 11  2  0  0  0
 10 15  1  0  0  0
 11 12  1  0  0  0
 11 94  1  0  0  0
 12 13  2  0  0  0
 12 95  1  0  0  0
 13 14  1  0  0  0
 13 31  1  0  0  0
 14 15  2  0  0  0
 14 96  1  0  0  0
 15 97  1  0  0  0
 16 17  2  0  0  0
 16 21  1  0  0  0
 16 31  1  0  0  0
 17 18  1  0  0  0
 17 98  1  0  0  0
 18 19  2  0  0  0
 18 99  1  0  0  0
 19 20  1  0  0  0
 19 24  1  0  0  0
 20 21  2  0  0  0
 20100  1  0  0  0
 21 23  1  0  0  0
 22 28  1  0  0  0
 22 32  2  0  0  0
 26 27  1  0  0  0
 28101  1  0  0  0
 28102  1  0  0  0
 29103  1  0  0  0
 29104  1  0  0  0
 33 34  1  0  0  0
 33 66  1  0  0  0
 33 70  2  0  0  0
 34 36  1  0  0  0
 34 59  1  0  0  0
 34105  1  0  0  0
 35 44  2  0  0  0
 35 45  1  0  0  0
 35 68  1  0  0  0
 36 56  1  0  0  0
 36106  1  0  0  0
 37 39  1  0  0  0
 37 47  1  0  0  0
 37 66  1  0  0  0
 37107  1  0  0  0
 38 43  2  0  0  0
 38 46  1  0  0  0
 38 47  1  0  0  0
 39 64  1  0  0  0
 39 67  2  0  0  0
 40 52  1  0  0  0
 40 53  2  0  0  0
 40 58  1  0  0  0
 41108  1  0  0  0
 41109  1  0  0  0
 41110  1  0  0  0
 41 48  1  0  0  0
 42 43  1  0  0  0
 42 66  1  0  0  0
 42111  1  0  0  0
 42112  1  0  0  0
 43 44  1  0  0  0
 44113  1  0  0  0
 45 46  2  0  0  0
 45114  1  0  0  0
 46115  1  0  0  0
 47116  1  0  0  0
 47117  1  0  0  0
 48 56  1  0  0  0
 48 65  1  0  0  0
 48118  1  0  0  0
 49 50  1  0  0  0
 49 53  1  0  0  0
 49 64  1  0  0  0
 49119  1  0  0  0
 50 51  1  0  0  0
 50120  1  0  0  0
 50121  1  0  0  0
 51 52  1  0  0  0
 51122  1  0  0  0
 51123  1  0  0  0
 52124  1  0  0  0
 52125  1  0  0  0
 53 54  1  0  0  0
 54 55  2  0  0  0
 54126  1  0  0  0
 55 57  1  0  0  0
 55127  1  0  0  0
 56 69  2  0  0  0
 57 58  2  0  0  0
 57128  1  0  0  0
 58129  1  0  0  0
 59 60  1  0  0  0
 59 61  1  0  0  0
 59 62  1  0  0  0
 60130  1  0  0  0
 60131  1  0  0  0
 60132  1  0  0  0
 61133  1  0  0  0
 61134  1  0  0  0
 61135  1  0  0  0
 62136  1  0  0  0
 62137  1  0  0  0
 62138  1  0  0  0
 63 65  1  0  0  0
 63139  1  0  0  0
 63140  1  0  0  0
 63141  1  0  0  0
 64142  1  0  0  0
 65143  1  0  0  0
 68 79  1  0  0  0
 71 72  2  0  0  0
 71 80  1  0  0  0
 71144  1  0  0  0
 72 81  1  0  0  0
 72 84  1  0  0  0
 73 79  1  0  0  0
 73 80  2  0  0  0
 73 82  1  0  0  0
 74 76  1  0  0  0
 74 78  1  0  0  0
 74145  1  0  0  0
 74146  1  0  0  0
 75 77  1  0  0  0
 75 78  1  0  0  0
 75147  1  0  0  0
 75148  1  0  0  0
 76 83  1  0  0  0
 76149  1  0  0  0
 76150  1  0  0  0
 77 83  1  0  0  0
 77151  1  0  0  0
 77152  1  0  0  0
 78 84  1  0  0  0
 78153  1  0  0  0
 79154  1  0  0  0
 79155  1  0  0  0
 81 82  2  0  0  0
 84156  1  0  0  0
M  ISO  4   1 100  68 101  79 101  83 100
M  END
> <chiral flag>
0

> <version>
0

> <s_m_source_file>
/data/baiqing/PycharmProjects/Reinvent-master-3.2/result/LINK_invent/BTK/process_docking_weight1_custom_sum_contain_oxygen_bond_distance_aromatic_linkinvent_7_9_3/rearranged_h_0196.sdf

> <i_m_source_file_index>
7

> <r_mmod_Potential_Energy-OPLS-2005>
257.325012207031

> <r_mmod_Stretch_Energy-OPLS-2005>
69.814697265625

> <r_mmod_Bend_Energy-OPLS-2005>
167.375244140625

> <r_mmod_Torsional_Energy-OPLS-2005>
309.776000976562

> <r_mmod_Improper_Torsional_Energy-OPLS-2005>
17.2422103881836

> <r_mmod_Van_der_Waal_Energy-OPLS-2005>
153.033386230469

> <r_mmod_Electrostatic_Energy-OPLS-2005>
-262.177673339844

> <r_mmod_Solvation_Energy-OPLS-2005>
-235.365646362305

> <b_mmod_Minimization_Converged-OPLS-2005>
0

> <r_mmod_RMS_Derivative-OPLS-2005>
0.483922183513641

$$$$
7
                    3D
 Structure written by MMmdl.
162171  0  0  1  0            999 V2000
  -30.6749  -14.5706   20.5004 C   0  0  0  0  0  0
  -30.4229  -12.3496   19.4461 C   0  0  0  0  0  0
  -29.4965  -12.4877   18.2205 C   0  0  0  0  0  0
  -28.0176  -12.3468   18.6339 C   0  0  0  0  0  0
  -27.6526  -13.2187   19.8665 C   0  0  2  0  0  0
  -28.6987  -13.0795   20.9937 C   0  0  0  0  0  0
  -25.2579  -13.8192   20.5729 C   0  0  0  0  0  0
  -24.1848  -13.0451   20.9210 C   0  0  0  0  0  0
  -24.6415  -11.6918   20.8762 C   0  0  0  0  0  0
  -23.9087  -10.4300   21.0418 C   0  0  0  0  0  0
  -24.3635   -9.4201   21.9186 C   0  0  0  0  0  0
  -23.6308   -8.2238   22.0732 C   0  0  0  0  0  0
  -22.4288   -8.0290   21.3534 C   0  0  0  0  0  0
  -21.9942   -9.0259   20.4632 C   0  0  0  0  0  0
  -22.7265  -10.2140   20.3055 C   0  0  0  0  0  0
  -21.6858   -6.0755   22.5282 C   0  0  0  0  0  0
  -21.4016   -6.5647   23.8215 C   0  0  0  0  0  0
  -21.3662   -5.6795   24.9172 C   0  0  0  0  0  0
  -21.6043   -4.3054   24.7228 C   0  0  0  0  0  0
  -21.8816   -3.8159   23.4346 C   0  0  0  0  0  0
  -21.9192   -4.6985   22.3405 C   0  0  0  0  0  0
  -22.7862  -13.5210   21.1854 C   0  0  0  0  0  0
  -22.1650   -4.2167   21.0982 F   0  0  0  0  0  0
  -21.5642   -3.4533   25.7738 F   0  0  0  0  0  0
  -30.0133  -13.3815   20.4140 N   0  0  0  0  0  0
  -26.3007  -12.9373   20.3386 N   0  0  0  0  0  0
  -25.9349  -11.6535   20.5834 N   0  0  0  0  0  0
  -22.0515  -12.8195   22.0413 N   0  0  0  0  0  0
  -25.4310  -15.1914   20.4152 N   0  0  0  0  0  0
  -31.8604  -14.6770   20.1727 O   0  0  0  0  0  0
  -21.6639   -6.8897   21.4244 O   0  0  0  0  0  0
  -22.3530  -14.5504   20.6678 O   0  0  0  0  0  0
  -24.6226  -31.8616   23.2084 C   0  0  0  0  0  0
  -25.9094  -32.4781   23.8367 C   0  0  1  0  0  0
  -27.2171  -27.3516   20.1117 C   0  0  0  0  0  0
  -25.5925  -33.8581   24.2282 N   0  0  0  0  0  0
  -23.4124  -30.4875   21.5494 C   0  0  2  0  0  0
  -24.8578  -28.9514   20.1105 C   0  0  0  0  0  0
  -22.7450  -29.4629   22.4965 C   0  0  0  0  0  0
  -18.0281  -28.1384   22.8486 C   0  0  0  0  0  0
  -24.1488  -36.7310   23.2630 C   0  0  0  0  0  0
  -25.9518  -30.8025   21.3742 C   0  0  0  0  0  0
  -26.0247  -29.4342   20.7161 C   0  0  0  0  0  0
  -27.2077  -28.6435   20.7126 C   0  0  0  0  0  0
  -26.0302  -26.9227   19.4712 C   0  0  0  0  0  0
  -24.8608  -27.6993   19.4817 C   0  0  0  0  0  0
  -23.6248  -29.8265   20.1628 C   0  0  0  0  0  0
  -25.4110  -36.3081   24.0316 C   0  0  1  0  0  0
  -20.5876  -28.3669   23.1311 C   0  0  2  0  0  0
  -20.6777  -26.9399   22.5417 C   0  0  0  0  0  0
  -19.5758  -26.6387   21.5219 C   0  0  0  0  0  0
  -18.1933  -26.7930   22.1625 C   0  0  0  0  0  0
  -19.1530  -28.8854   23.2888 C   0  0  0  0  0  0
  -18.9454  -30.1463   23.8896 C   0  0  0  0  0  0
  -17.6457  -30.6590   24.0567 C   0  0  0  0  0  0
  -25.9053  -34.9449   23.5098 C   0  0  0  0  0  0
  -16.5344  -29.9089   23.6336 C   0  0  0  0  0  0
  -16.7264  -28.6511   23.0342 C   0  0  0  0  0  0
  -26.4496  -31.6589   25.0727 C   0  0  0  0  0  0
  -25.3732  -31.3734   26.1459 C   0  0  0  0  0  0
  -27.0308  -30.3003   24.6162 C   0  0  0  0  0  0
  -27.6050  -32.4314   25.7500 C   0  0  0  0  0  0
  -27.5579  -37.1801   24.8445 C   0  0  0  0  0  0
  -21.4169  -29.3026   22.3707 N   0  0  0  0  0  0
  -26.4281  -37.3781   23.9407 N   0  0  0  0  0  0
  -24.6805  -31.0666   22.1007 N   0  0  0  0  0  0
  -23.4200  -28.8172   23.3026 O   0  0  0  0  0  0
  -28.3379  -26.5185   20.1815 O   0  0  0  0  0  0
  -26.5613  -34.8917   22.4661 O   0  0  0  0  0  0
  -23.5408  -32.1394   23.7445 O   0  0  0  0  0  0
  -29.8424  -20.6495   19.1499 C   0  0  0  0  0  0
  -30.0959  -22.1648   19.2889 C   0  0  0  0  0  0
  -30.2423  -16.9403   19.8355 C   0  0  0  0  0  0
  -29.7927  -16.5437   21.7902 C   0  0  0  0  0  0
  -28.8262  -21.6097   21.1214 C   0  0  0  0  0  0
  -29.0561  -20.2313   20.4052 C   0  0  2  0  0  0
  -29.3801  -17.6967   20.8501 C   0  0  0  0  0  0
  -31.1086  -19.3918   21.6154 C   0  0  0  0  0  0
  -29.1700  -24.0704   20.5670 C   0  0  0  0  0  0
  -28.1244  -25.0809   19.9705 C   0  0  0  0  0  0
  -29.8959  -15.6915   20.5807 N   0  0  0  0  0  0
  -28.9811  -22.6643   20.0945 N   0  0  0  0  0  0
  -29.6916  -19.1369   21.2434 N   0  3  1  0  0  0
  -31.4656  -12.4524   19.1413 H   0  0  0  0  0  0
  -30.3366  -11.3576   19.8928 H   0  0  0  0  0  0
  -29.7483  -11.7368   17.4693 H   0  0  0  0  0  0
  -29.6539  -13.4585   17.7476 H   0  0  0  0  0  0
  -27.8367  -11.2942   18.8554 H   0  0  0  0  0  0
  -27.3639  -12.5887   17.7946 H   0  0  0  0  0  0
  -27.6700  -14.2545   19.5275 H   0  0  0  0  0  0
  -28.6959  -12.0690   21.4067 H   0  0  0  0  0  0
  -28.4673  -13.7519   21.8217 H   0  0  0  0  0  0
  -25.2794   -9.5660   22.4744 H   0  0  0  0  0  0
  -24.0020   -7.4627   22.7442 H   0  0  0  0  0  0
  -21.0875   -8.8775   19.8938 H   0  0  0  0  0  0
  -22.3733  -10.9670   19.6147 H   0  0  0  0  0  0
  -21.1990   -7.6149   23.9723 H   0  0  0  0  0  0
  -21.1489   -6.0523   25.9071 H   0  0  0  0  0  0
  -22.0597   -2.7626   23.2843 H   0  0  0  0  0  0
  -22.4172  -11.9864   22.4799 H   0  0  0  0  0  0
  -21.1118  -13.1182   22.2603 H   0  0  0  0  0  0
  -24.6719  -15.8543   20.5299 H   0  0  0  0  0  0
  -26.2963  -15.6219   20.1153 H   0  0  0  0  0  0
  -26.7152  -32.5473   23.1115 H   0  0  0  0  0  0
  -25.0049  -33.9727   25.0407 H   0  0  0  0  0  0
  -22.7028  -31.3062   21.4102 H   0  0  0  0  0  0
  -23.3740  -35.9652   23.3266 H   0  0  0  0  0  0
  -24.3582  -36.8969   22.2049 H   0  0  0  0  0  0
  -23.7254  -37.6507   23.6680 H   0  0  0  0  0  0
  -26.0752  -31.5683   20.6072 H   0  0  0  0  0  0
  -26.8348  -30.8520   21.9989 H   0  0  0  0  0  0
  -28.1004  -29.0051   21.2029 H   0  0  0  0  0  0
  -25.9755  -25.9714   18.9638 H   0  0  0  0  0  0
  -23.9665  -27.3253   19.0029 H   0  0  0  0  0  0
  -23.7382  -30.6043   19.4057 H   0  0  0  0  0  0
  -22.7469  -29.2495   19.8628 H   0  0  0  0  0  0
  -25.1295  -36.1918   25.0805 H   0  0  0  0  0  0
  -20.9950  -28.3236   24.1436 H   0  0  0  0  0  0
  -20.5712  -26.2257   23.3595 H   0  0  0  0  0  0
  -21.6647  -26.7461   22.1188 H   0  0  0  0  0  0
  -19.6914  -25.6302   21.1244 H   0  0  0  0  0  0
  -19.6724  -27.3212   20.6764 H   0  0  0  0  0  0
  -17.4201  -26.6676   21.4022 H   0  0  0  0  0  0
  -18.0337  -26.0078   22.9029 H   0  0  0  0  0  0
  -19.7932  -30.7288   24.2250 H   0  0  0  0  0  0
  -17.5009  -31.6274   24.5158 H   0  0  0  0  0  0
  -15.5352  -30.2986   23.7680 H   0  0  0  0  0  0
  -15.8661  -28.0852   22.7035 H   0  0  0  0  0  0
  -24.5901  -30.7084   25.7810 H   0  0  0  0  0  0
  -24.8935  -32.2906   26.4882 H   0  0  0  0  0  0
  -25.8070  -30.8923   27.0230 H   0  0  0  0  0  0
  -26.2870  -29.6781   24.1177 H   0  0  0  0  0  0
  -27.3975  -29.7244   25.4669 H   0  0  0  0  0  0
  -27.8762  -30.4264   23.9392 H   0  0  0  0  0  0
  -27.2641  -33.3589   26.2110 H   0  0  0  0  0  0
  -28.3864  -32.6910   25.0343 H   0  0  0  0  0  0
  -28.0707  -31.8406   26.5399 H   0  0  0  0  0  0
  -28.2561  -38.0129   24.7533 H   0  0  0  0  0  0
  -28.1113  -36.2666   24.6225 H   0  0  0  0  0  0
  -27.2298  -37.1385   25.8844 H   0  0  0  0  0  0
  -20.9334  -29.8718   21.6905 H   0  0  0  0  0  0
  -26.0156  -38.2840   24.1459 H   0  0  0  0  0  0
  -30.7671  -20.0948   18.9978 H   0  0  0  0  0  0
  -29.2300  -20.4670   18.2657 H   0  0  0  0  0  0
  -30.1606  -22.6619   18.3180 H   0  0  0  0  0  0
  -31.0429  -22.3335   19.8106 H   0  0  0  0  0  0
  -31.3059  -17.1913   19.8451 H   0  0  0  0  0  0
  -29.8532  -16.9769   18.8177 H   0  0  0  0  0  0
  -29.0047  -16.2508   22.4853 H   0  0  0  0  0  0
  -30.7420  -16.6667   22.3143 H   0  0  0  0  0  0
  -29.5575  -21.7671   21.9155 H   0  0  0  0  0  0
  -27.8391  -21.6585   21.5825 H   0  0  0  0  0  0
  -28.0762  -19.8722   20.0852 H   0  0  0  0  0  0
  -28.3209  -17.6060   20.5981 H   0  0  0  0  0  0
  -31.2792  -20.4346   21.8810 H   0  0  0  0  0  0
  -31.8002  -19.1526   20.8091 H   0  0  0  0  0  0
  -31.3942  -18.8044   22.4855 H   0  0  0  0  0  0
  -29.1023  -24.1056   21.6556 H   0  0  0  0  0  0
  -30.1763  -24.4167   20.3244 H   0  0  0  0  0  0
  -27.1685  -24.7907   20.4081 H   0  0  0  0  0  0
  -28.0477  -24.9103   18.8958 H   0  0  0  0  0  0
  -29.1930  -19.2368   22.1167 H   0  0  0  0  0  0
  1 25  1  0  0  0
  1 30  2  0  0  0
  1 81  1  0  0  0
  2  3  1  0  0  0
  2 25  1  0  0  0
  2 84  1  0  0  0
  2 85  1  0  0  0
  3  4  1  0  0  0
  3 86  1  0  0  0
  3 87  1  0  0  0
  4  5  1  0  0  0
  4 88  1  0  0  0
  4 89  1  0  0  0
  5  6  1  0  0  0
  5 26  1  0  0  0
  5 90  1  0  0  0
  6 25  1  0  0  0
  6 91  1  0  0  0
  6 92  1  0  0  0
  7  8  2  0  0  0
  7 26  1  0  0  0
  7 29  1  0  0  0
  8  9  1  0  0  0
  8 22  1  0  0  0
  9 10  1  0  0  0
  9 27  2  0  0  0
 10 11  2  0  0  0
 10 15  1  0  0  0
 11 12  1  0  0  0
 11 93  1  0  0  0
 12 13  2  0  0  0
 12 94  1  0  0  0
 13 14  1  0  0  0
 13 31  1  0  0  0
 14 15  2  0  0  0
 14 95  1  0  0  0
 15 96  1  0  0  0
 16 17  2  0  0  0
 16 21  1  0  0  0
 16 31  1  0  0  0
 17 18  1  0  0  0
 17 97  1  0  0  0
 18 19  2  0  0  0
 18 98  1  0  0  0
 19 20  1  0  0  0
 19 24  1  0  0  0
 20 21  2  0  0  0
 20 99  1  0  0  0
 21 23  1  0  0  0
 22 28  1  0  0  0
 22 32  2  0  0  0
 26 27  1  0  0  0
 28100  1  0  0  0
 28101  1  0  0  0
 29102  1  0  0  0
 29103  1  0  0  0
 33 34  1  0  0  0
 33 66  1  0  0  0
 33 70  2  0  0  0
 34 36  1  0  0  0
 34 59  1  0  0  0
 34104  1  0  0  0
 35 44  2  0  0  0
 35 45  1  0  0  0
 35 68  1  0  0  0
 36 56  1  0  0  0
 36105  1  0  0  0
 37 39  1  0  0  0
 37 47  1  0  0  0
 37 66  1  0  0  0
 37106  1  0  0  0
 38 43  2  0  0  0
 38 46  1  0  0  0
 38 47  1  0  0  0
 39 64  1  0  0  0
 39 67  2  0  0  0
 40 52  1  0  0  0
 40 53  2  0  0  0
 40 58  1  0  0  0
 41107  1  0  0  0
 41108  1  0  0  0
 41109  1  0  0  0
 41 48  1  0  0  0
 42 43  1  0  0  0
 42 66  1  0  0  0
 42110  1  0  0  0
 42111  1  0  0  0
 43 44  1  0  0  0
 44112  1  0  0  0
 45 46  2  0  0  0
 45113  1  0  0  0
 46114  1  0  0  0
 47115  1  0  0  0
 47116  1  0  0  0
 48 56  1  0  0  0
 48 65  1  0  0  0
 48117  1  0  0  0
 49 50  1  0  0  0
 49 53  1  0  0  0
 49 64  1  0  0  0
 49118  1  0  0  0
 50 51  1  0  0  0
 50119  1  0  0  0
 50120  1  0  0  0
 51 52  1  0  0  0
 51121  1  0  0  0
 51122  1  0  0  0
 52123  1  0  0  0
 52124  1  0  0  0
 53 54  1  0  0  0
 54 55  2  0  0  0
 54125  1  0  0  0
 55 57  1  0  0  0
 55126  1  0  0  0
 56 69  2  0  0  0
 57 58  2  0  0  0
 57127  1  0  0  0
 58128  1  0  0  0
 59 60  1  0  0  0
 59 61  1  0  0  0
 59 62  1  0  0  0
 60129  1  0  0  0
 60130  1  0  0  0
 60131  1  0  0  0
 61132  1  0  0  0
 61133  1  0  0  0
 61134  1  0  0  0
 62135  1  0  0  0
 62136  1  0  0  0
 62137  1  0  0  0
 63 65  1  0  0  0
 63138  1  0  0  0
 63139  1  0  0  0
 63140  1  0  0  0
 64141  1  0  0  0
 65142  1  0  0  0
 68 80  1  0  0  0
 71 72  1  0  0  0
 71143  1  0  0  0
 71144  1  0  0  0
 71 76  1  0  0  0
 72 82  1  0  0  0
 72145  1  0  0  0
 72146  1  0  0  0
 73 81  1  0  0  0
 73147  1  0  0  0
 73148  1  0  0  0
 73 77  1  0  0  0
 74 77  1  0  0  0
 74 81  1  0  0  0
 74149  1  0  0  0
 74150  1  0  0  0
 75 76  1  0  0  0
 75 82  1  0  0  0
 75151  1  0  0  0
 75152  1  0  0  0
 76 83  1  0  0  0
 76153  1  0  0  0
 77 83  1  0  0  0
 77154  1  0  0  0
 78155  1  0  0  0
 78156  1  0  0  0
 78157  1  0  0  0
 78 83  1  0  0  0
 79 80  1  0  0  0
 79 82  1  0  0  0
 79158  1  0  0  0
 79159  1  0  0  0
 80160  1  0  0  0
 80161  1  0  0  0
 83162  1  0  0  0
M  CHG  1  83   1
M  ISO  4   1 100  68 101  80 101  81 100
M  END
> <chiral flag>
0

> <version>
0

> <s_m_source_file>
/data/baiqing/PycharmProjects/Reinvent-master-3.2/result/LINK_invent/BTK/process_docking_weight1_custom_sum_contain_oxygen_bond_distance_aromatic_linkinvent_7_9_3/rearranged_h_0196.sdf

> <i_m_source_file_index>
8

> <r_mmod_Potential_Energy-OPLS-2005>
130.149505615234

> <r_mmod_Stretch_Energy-OPLS-2005>
63.3787689208984

> <r_mmod_Bend_Energy-OPLS-2005>
163.743515014648

> <r_mmod_Torsional_Energy-OPLS-2005>
365.578338623047

> <r_mmod_Improper_Torsional_Energy-OPLS-2005>
17.7185554504395

> <r_mmod_Van_der_Waal_Energy-OPLS-2005>
134.790145874023

> <r_mmod_Electrostatic_Energy-OPLS-2005>
-188.504058837891

> <r_mmod_Solvation_Energy-OPLS-2005>
-463.601318359375

> <b_mmod_Minimization_Converged-OPLS-2005>
0

> <r_mmod_RMS_Derivative-OPLS-2005>
2.39237189292908

$$$$
8
                    3D
 Structure written by MMmdl.
153162  0  0  1  0            999 V2000
  -30.5776  -14.8507   20.4165 C   0  0  0  0  0  0
  -30.4350  -12.5225   19.4743 C   0  0  0  0  0  0
  -29.5109  -12.5062   18.2370 C   0  0  0  0  0  0
  -28.0423  -12.3064   18.6598 C   0  0  0  0  0  0
  -27.6301  -13.2281   19.8371 C   0  0  2  0  0  0
  -28.6781  -13.2367   20.9682 C   0  0  0  0  0  0
  -25.2495  -13.8175   20.5722 C   0  0  0  0  0  0
  -24.1782  -13.0424   20.9212 C   0  0  0  0  0  0
  -24.6373  -11.6901   20.8754 C   0  0  0  0  0  0
  -23.9055  -10.4283   21.0414 C   0  0  0  0  0  0
  -24.3612   -9.4199   21.9187 C   0  0  0  0  0  0
  -23.6287   -8.2235   22.0757 C   0  0  0  0  0  0
  -22.4269   -8.0276   21.3546 C   0  0  0  0  0  0
  -21.9902   -9.0249   20.4649 C   0  0  0  0  0  0
  -22.7231  -10.2127   20.3060 C   0  0  0  0  0  0
  -21.6852   -6.0731   22.5279 C   0  0  0  0  0  0
  -21.4013   -6.5637   23.8211 C   0  0  0  0  0  0
  -21.3659   -5.6791   24.9174 C   0  0  0  0  0  0
  -21.6044   -4.3054   24.7225 C   0  0  0  0  0  0
  -21.8820   -3.8144   23.4348 C   0  0  0  0  0  0
  -21.9193   -4.6959   22.3403 C   0  0  0  0  0  0
  -22.7809  -13.5217   21.1871 C   0  0  0  0  0  0
  -22.1663   -4.2144   21.0980 F   0  0  0  0  0  0
  -21.5627   -3.4538   25.7738 F   0  0  0  0  0  0
  -29.9596  -13.6125   20.3617 N   0  0  0  0  0  0
  -26.2892  -12.9360   20.3264 N   0  0  0  0  0  0
  -25.9300  -11.6511   20.5752 N   0  0  0  0  0  0
  -22.0457  -12.8212   22.0433 N   0  0  0  0  0  0
  -25.4218  -15.1902   20.4196 N   0  0  0  0  0  0
  -31.7989  -14.9039   20.2332 O   0  0  0  0  0  0
  -21.6636   -6.8872   21.4241 O   0  0  0  0  0  0
  -22.3497  -14.5525   20.6719 O   0  0  0  0  0  0
  -24.6362  -31.8505   23.1940 C   0  0  0  0  0  0
  -25.9166  -32.4729   23.8304 C   0  0  1  0  0  0
  -27.2187  -27.2051   20.1529 C   0  0  0  0  0  0
  -25.5943  -33.8533   24.2227 N   0  0  0  0  0  0
  -23.4365  -30.4706   21.5381 C   0  0  2  0  0  0
  -24.8859  -28.9025   20.1181 C   0  0  0  0  0  0
  -22.7528  -29.4580   22.4893 C   0  0  0  0  0  0
  -18.0296  -28.1388   22.8483 C   0  0  0  0  0  0
  -24.1491  -36.7273   23.2642 C   0  0  0  0  0  0
  -25.9860  -30.7450   21.3837 C   0  0  0  0  0  0
  -26.0586  -29.3584   20.7352 C   0  0  0  0  0  0
  -27.2291  -28.5235   20.7410 C   0  0  0  0  0  0
  -26.0251  -26.8306   19.5009 C   0  0  0  0  0  0
  -24.8761  -27.6476   19.4893 C   0  0  0  0  0  0
  -23.6603  -29.7986   20.1576 C   0  0  0  0  0  0
  -25.4120  -36.3055   24.0323 C   0  0  1  0  0  0
  -20.5904  -28.3707   23.1253 C   0  0  2  0  0  0
  -20.6784  -26.9418   22.5403 C   0  0  0  0  0  0
  -19.5758  -26.6383   21.5208 C   0  0  0  0  0  0
  -18.1939  -26.7928   22.1625 C   0  0  0  0  0  0
  -19.1551  -28.8866   23.2861 C   0  0  0  0  0  0
  -18.9470  -30.1464   23.8883 C   0  0  0  0  0  0
  -17.6468  -30.6587   24.0561 C   0  0  0  0  0  0
  -25.9063  -34.9426   23.5078 C   0  0  0  0  0  0
  -16.5359  -29.9081   23.6334 C   0  0  0  0  0  0
  -16.7282  -28.6500   23.0354 C   0  0  0  0  0  0
  -26.4513  -31.6572   25.0717 C   0  0  0  0  0  0
  -25.3718  -31.3741   26.1426 C   0  0  0  0  0  0
  -27.0373  -30.2979   24.6247 C   0  0  0  0  0  0
  -27.6052  -32.4328   25.7500 C   0  0  0  0  0  0
  -27.5575  -37.1797   24.8467 C   0  0  0  0  0  0
  -21.4229  -29.3047   22.3637 N   0  0  0  0  0  0
  -26.4290  -37.3759   23.9404 N   0  0  0  0  0  0
  -24.7055  -31.0419   22.0945 N   0  0  0  0  0  0
  -23.4202  -28.8125   23.3017 O   0  0  0  0  0  0
  -28.3036  -26.2803   20.1054 O   0  0  0  0  0  0
  -26.5641  -34.8909   22.4652 O   0  0  0  0  0  0
  -23.5498  -32.1351   23.7200 O   0  0  0  0  0  0
  -27.8157  -23.7604   22.4857 C   0  0  0  0  0  0
  -28.6464  -22.6903   20.7244 C   0  0  0  0  0  0
  -28.2005  -24.9843   20.6694 C   0  0  0  0  0  0
  -29.3806  -18.1048   19.0489 C   0  0  0  0  0  0
  -29.2559  -16.5456   19.1319 C   0  0  0  0  0  0
  -30.0451  -17.3555   21.1486 C   0  0  0  0  0  0
  -29.2664  -18.6100   20.4823 C   0  0  1  0  0  0
  -29.6602  -20.1824   20.8213 C   0  0  0  0  0  0
  -28.2454  -22.6074   21.9758 N   0  0  0  0  0  0
  -27.7586  -24.9609   21.9173 N   0  0  0  0  0  0
  -28.6649  -23.8619   20.0107 N   0  0  0  0  0  0
  -29.8022  -16.0360   20.4129 N   0  0  0  0  0  0
  -29.0170  -21.4096   20.1483 N   0  0  0  0  0  0
  -31.4712  -12.6678   19.1643 H   0  0  0  0  0  0
  -30.4073  -11.5637   19.9946 H   0  0  0  0  0  0
  -29.8132  -11.7165   17.5481 H   0  0  0  0  0  0
  -29.6113  -13.4449   17.6896 H   0  0  0  0  0  0
  -27.9254  -11.2627   18.9528 H   0  0  0  0  0  0
  -27.3781  -12.4588   17.8083 H   0  0  0  0  0  0
  -27.5930  -14.2282   19.4159 H   0  0  0  0  0  0
  -28.7459  -12.2617   21.4525 H   0  0  0  0  0  0
  -28.3984  -13.9534   21.7424 H   0  0  0  0  0  0
  -25.2758   -9.5672   22.4759 H   0  0  0  0  0  0
  -23.9996   -7.4626   22.7476 H   0  0  0  0  0  0
  -21.0832   -8.8769   19.8956 H   0  0  0  0  0  0
  -22.3693  -10.9666   19.6169 H   0  0  0  0  0  0
  -21.2007   -7.6145   23.9712 H   0  0  0  0  0  0
  -21.1480   -6.0522   25.9075 H   0  0  0  0  0  0
  -22.0600   -2.7606   23.2849 H   0  0  0  0  0  0
  -22.4073  -11.9876   22.4824 H   0  0  0  0  0  0
  -21.1077  -13.1240   22.2643 H   0  0  0  0  0  0
  -24.6630  -15.8503   20.5512 H   0  0  0  0  0  0
  -26.2893  -15.6334   20.1459 H   0  0  0  0  0  0
  -26.7235  -32.5364   23.1042 H   0  0  0  0  0  0
  -25.0082  -33.9661   25.0367 H   0  0  0  0  0  0
  -22.7355  -31.2940   21.3863 H   0  0  0  0  0  0
  -23.3751  -35.9607   23.3304 H   0  0  0  0  0  0
  -24.3575  -36.8898   22.2056 H   0  0  0  0  0  0
  -23.7248  -37.6474   23.6672 H   0  0  0  0  0  0
  -26.1298  -31.4979   20.6076 H   0  0  0  0  0  0
  -26.8615  -30.7994   22.0190 H   0  0  0  0  0  0
  -28.1310  -28.8736   21.2234 H   0  0  0  0  0  0
  -25.9719  -25.8717   19.0046 H   0  0  0  0  0  0
  -23.9814  -27.2954   18.9941 H   0  0  0  0  0  0
  -23.7931  -30.5713   19.3995 H   0  0  0  0  0  0
  -22.7770  -29.2361   19.8502 H   0  0  0  0  0  0
  -25.1307  -36.1894   25.0816 H   0  0  0  0  0  0
  -20.9995  -28.3290   24.1375 H   0  0  0  0  0  0
  -20.5679  -26.2316   23.3614 H   0  0  0  0  0  0
  -21.6652  -26.7434   22.1198 H   0  0  0  0  0  0
  -19.6920  -25.6292   21.1244 H   0  0  0  0  0  0
  -19.6692  -27.3193   20.6738 H   0  0  0  0  0  0
  -17.4209  -26.6673   21.4027 H   0  0  0  0  0  0
  -18.0343  -26.0071   22.9023 H   0  0  0  0  0  0
  -19.7946  -30.7286   24.2244 H   0  0  0  0  0  0
  -17.5020  -31.6266   24.5165 H   0  0  0  0  0  0
  -15.5358  -30.2976   23.7665 H   0  0  0  0  0  0
  -15.8684  -28.0813   22.7074 H   0  0  0  0  0  0
  -24.5898  -30.7086   25.7751 H   0  0  0  0  0  0
  -24.8907  -32.2918   26.4820 H   0  0  0  0  0  0
  -25.8020  -30.8938   27.0223 H   0  0  0  0  0  0
  -26.2977  -29.6710   24.1253 H   0  0  0  0  0  0
  -27.4011  -29.7263   25.4796 H   0  0  0  0  0  0
  -27.8869  -30.4235   23.9533 H   0  0  0  0  0  0
  -27.2647  -33.3637   26.2045 H   0  0  0  0  0  0
  -28.3881  -32.6872   25.0345 H   0  0  0  0  0  0
  -28.0698  -31.8476   26.5446 H   0  0  0  0  0  0
  -28.2598  -38.0088   24.7499 H   0  0  0  0  0  0
  -28.1065  -36.2618   24.6314 H   0  0  0  0  0  0
  -27.2289  -37.1468   25.8869 H   0  0  0  0  0  0
  -20.9428  -29.8761   21.6825 H   0  0  0  0  0  0
  -26.0162  -38.2831   24.1398 H   0  0  0  0  0  0
  -27.4707  -23.7152   23.5079 H   0  0  0  0  0  0
  -28.6237  -18.5434   18.3971 H   0  0  0  0  0  0
  -30.3554  -18.3769   18.6410 H   0  0  0  0  0  0
  -29.7295  -16.0750   18.2676 H   0  0  0  0  0  0
  -28.1990  -16.2882   19.0897 H   0  0  0  0  0  0
  -29.7589  -17.2443   22.1947 H   0  0  0  0  0  0
  -31.1191  -17.5512   21.1436 H   0  0  0  0  0  0
  -28.2181  -18.5029   20.7665 H   0  0  0  0  0  0
  -30.7326  -20.2862   20.6524 H   0  0  0  0  0  0
  -29.5422  -20.3142   21.8976 H   0  0  0  0  0  0
  -29.2445  -21.4867   19.1634 H   0  0  0  0  0  0
  1 25  1  0  0  0
  1 30  2  0  0  0
  1 82  1  0  0  0
  2  3  1  0  0  0
  2 25  1  0  0  0
  2 84  1  0  0  0
  2 85  1  0  0  0
  3  4  1  0  0  0
  3 86  1  0  0  0
  3 87  1  0  0  0
  4  5  1  0  0  0
  4 88  1  0  0  0
  4 89  1  0  0  0
  5  6  1  0  0  0
  5 26  1  0  0  0
  5 90  1  0  0  0
  6 25  1  0  0  0
  6 91  1  0  0  0
  6 92  1  0  0  0
  7  8  2  0  0  0
  7 26  1  0  0  0
  7 29  1  0  0  0
  8  9  1  0  0  0
  8 22  1  0  0  0
  9 10  1  0  0  0
  9 27  2  0  0  0
 10 11  2  0  0  0
 10 15  1  0  0  0
 11 12  1  0  0  0
 11 93  1  0  0  0
 12 13  2  0  0  0
 12 94  1  0  0  0
 13 14  1  0  0  0
 13 31  1  0  0  0
 14 15  2  0  0  0
 14 95  1  0  0  0
 15 96  1  0  0  0
 16 17  2  0  0  0
 16 21  1  0  0  0
 16 31  1  0  0  0
 17 18  1  0  0  0
 17 97  1  0  0  0
 18 19  2  0  0  0
 18 98  1  0  0  0
 19 20  1  0  0  0
 19 24  1  0  0  0
 20 21  2  0  0  0
 20 99  1  0  0  0
 21 23  1  0  0  0
 22 28  1  0  0  0
 22 32  2  0  0  0
 26 27  1  0  0  0
 28100  1  0  0  0
 28101  1  0  0  0
 29102  1  0  0  0
 29103  1  0  0  0
 33 34  1  0  0  0
 33 66  1  0  0  0
 33 70  2  0  0  0
 34 36  1  0  0  0
 34 59  1  0  0  0
 34104  1  0  0  0
 35 44  2  0  0  0
 35 45  1  0  0  0
 35 68  1  0  0  0
 36 56  1  0  0  0
 36105  1  0  0  0
 37 39  1  0  0  0
 37 47  1  0  0  0
 37 66  1  0  0  0
 37106  1  0  0  0
 38 43  2  0  0  0
 38 46  1  0  0  0
 38 47  1  0  0  0
 39 64  1  0  0  0
 39 67  2  0  0  0
 40 52  1  0  0  0
 40 53  2  0  0  0
 40 58  1  0  0  0
 41107  1  0  0  0
 41108  1  0  0  0
 41109  1  0  0  0
 41 48  1  0  0  0
 42 43  1  0  0  0
 42 66  1  0  0  0
 42110  1  0  0  0
 42111  1  0  0  0
 43 44  1  0  0  0
 44112  1  0  0  0
 45 46  2  0  0  0
 45113  1  0  0  0
 46114  1  0  0  0
 47115  1  0  0  0
 47116  1  0  0  0
 48 56  1  0  0  0
 48 65  1  0  0  0
 48117  1  0  0  0
 49 50  1  0  0  0
 49 53  1  0  0  0
 49 64  1  0  0  0
 49118  1  0  0  0
 50 51  1  0  0  0
 50119  1  0  0  0
 50120  1  0  0  0
 51 52  1  0  0  0
 51121  1  0  0  0
 51122  1  0  0  0
 52123  1  0  0  0
 52124  1  0  0  0
 53 54  1  0  0  0
 54 55  2  0  0  0
 54125  1  0  0  0
 55 57  1  0  0  0
 55126  1  0  0  0
 56 69  2  0  0  0
 57 58  2  0  0  0
 57127  1  0  0  0
 58128  1  0  0  0
 59 60  1  0  0  0
 59 61  1  0  0  0
 59 62  1  0  0  0
 60129  1  0  0  0
 60130  1  0  0  0
 60131  1  0  0  0
 61132  1  0  0  0
 61133  1  0  0  0
 61134  1  0  0  0
 62135  1  0  0  0
 62136  1  0  0  0
 62137  1  0  0  0
 63 65  1  0  0  0
 63138  1  0  0  0
 63139  1  0  0  0
 63140  1  0  0  0
 64141  1  0  0  0
 65142  1  0  0  0
 68 73  1  0  0  0
 71 79  2  0  0  0
 71 80  1  0  0  0
 71143  1  0  0  0
 72 79  1  0  0  0
 72 81  2  0  0  0
 72 83  1  0  0  0
 73 80  2  0  0  0
 73 81  1  0  0  0
 74 75  1  0  0  0
 74 77  1  0  0  0
 74144  1  0  0  0
 74145  1  0  0  0
 75 82  1  0  0  0
 75146  1  0  0  0
 75147  1  0  0  0
 76 77  1  0  0  0
 76 82  1  0  0  0
 76148  1  0  0  0
 76149  1  0  0  0
 77 78  1  0  0  0
 77150  1  0  0  0
 78 83  1  0  0  0
 78151  1  0  0  0
 78152  1  0  0  0
 83153  1  0  0  0
M  ISO  4   1 100  68 101  73 101  82 100
M  END
> <chiral flag>
0

> <version>
0

> <s_m_source_file>
/data/baiqing/PycharmProjects/Reinvent-master-3.2/result/LINK_invent/BTK/process_docking_weight1_custom_sum_contain_oxygen_bond_distance_aromatic_linkinvent_7_9_3/rearranged_h_0196.sdf

> <i_m_source_file_index>
9

> <r_mmod_Potential_Energy-OPLS-2005>
-264.903656005859

> <r_mmod_Stretch_Energy-OPLS-2005>
151.312698364258

> <r_mmod_Bend_Energy-OPLS-2005>
225.440017700195

> <r_mmod_Torsional_Energy-OPLS-2005>
349.482727050781

> <r_mmod_Improper_Torsional_Energy-OPLS-2005>
12.1378469467163

> <r_mmod_Van_der_Waal_Energy-OPLS-2005>
144.241470336914

> <r_mmod_Electrostatic_Energy-OPLS-2005>
-1053.51171875

> <r_mmod_Solvation_Energy-OPLS-2005>
-226.320602416992

> <b_mmod_Minimization_Converged-OPLS-2005>
0

> <r_mmod_RMS_Derivative-OPLS-2005>
0.4979327917099

$$$$
9
                    3D
 Structure written by MMmdl.
162171  0  0  1  0            999 V2000
  -30.7064  -14.7182   20.4656 C   0  0  0  0  0  0
  -30.4050  -12.4497   19.4723 C   0  0  0  0  0  0
  -29.4931  -12.4954   18.2311 C   0  0  0  0  0  0
  -28.0256  -12.3082   18.6527 C   0  0  0  0  0  0
  -27.6306  -13.2240   19.8396 C   0  0  2  0  0  0
  -28.6816  -13.2077   20.9762 C   0  0  0  0  0  0
  -25.2465  -13.8168   20.5686 C   0  0  0  0  0  0
  -24.1767  -13.0421   20.9226 C   0  0  0  0  0  0
  -24.6362  -11.6903   20.8779 C   0  0  0  0  0  0
  -23.9049  -10.4282   21.0427 C   0  0  0  0  0  0
  -24.3608   -9.4199   21.9200 C   0  0  0  0  0  0
  -23.6290   -8.2230   22.0759 C   0  0  0  0  0  0
  -22.4274   -8.0272   21.3545 C   0  0  0  0  0  0
  -21.9906   -9.0245   20.4650 C   0  0  0  0  0  0
  -22.7228  -10.2127   20.3065 C   0  0  0  0  0  0
  -21.6848   -6.0730   22.5279 C   0  0  0  0  0  0
  -21.4010   -6.5637   23.8213 C   0  0  0  0  0  0
  -21.3660   -5.6792   24.9177 C   0  0  0  0  0  0
  -21.6045   -4.3053   24.7226 C   0  0  0  0  0  0
  -21.8818   -3.8144   23.4347 C   0  0  0  0  0  0
  -21.9191   -4.6960   22.3402 C   0  0  0  0  0  0
  -22.7794  -13.5214   21.1880 C   0  0  0  0  0  0
  -22.1662   -4.2145   21.0980 F   0  0  0  0  0  0
  -21.5633   -3.4539   25.7739 F   0  0  0  0  0  0
  -29.9763  -13.5483   20.3768 N   0  0  0  0  0  0
  -26.2879  -12.9365   20.3273 N   0  0  0  0  0  0
  -25.9287  -11.6519   20.5789 N   0  0  0  0  0  0
  -22.0436  -12.8212   22.0436 N   0  0  0  0  0  0
  -25.4105  -15.1888   20.4056 N   0  0  0  0  0  0
  -31.9055  -14.6588   20.1762 O   0  0  0  0  0  0
  -21.6637   -6.8871   21.4239 O   0  0  0  0  0  0
  -22.3490  -14.5522   20.6722 O   0  0  0  0  0  0
  -24.6280  -31.8574   23.2001 C   0  0  0  0  0  0
  -25.9118  -32.4765   23.8342 C   0  0  1  0  0  0
  -27.2245  -27.2960   20.1127 C   0  0  0  0  0  0
  -25.5926  -33.8567   24.2268 N   0  0  0  0  0  0
  -23.4231  -30.4802   21.5427 C   0  0  2  0  0  0
  -24.8697  -28.9321   20.1065 C   0  0  0  0  0  0
  -22.7486  -29.4612   22.4923 C   0  0  0  0  0  0
  -18.0287  -28.1384   22.8486 C   0  0  0  0  0  0
  -24.1489  -36.7288   23.2640 C   0  0  0  0  0  0
  -25.9658  -30.7795   21.3755 C   0  0  0  0  0  0
  -26.0379  -29.4048   20.7166 C   0  0  0  0  0  0
  -27.2137  -28.5942   20.7183 C   0  0  0  0  0  0
  -26.0260  -26.8727   19.4953 C   0  0  0  0  0  0
  -24.8662  -27.6717   19.4891 C   0  0  0  0  0  0
  -23.6382  -29.8144   20.1576 C   0  0  0  0  0  0
  -25.4113  -36.3075   24.0330 C   0  0  1  0  0  0
  -20.5890  -28.3691   23.1279 C   0  0  2  0  0  0
  -20.6776  -26.9412   22.5410 C   0  0  0  0  0  0
  -19.5750  -26.6382   21.5215 C   0  0  0  0  0  0
  -18.1930  -26.7928   22.1625 C   0  0  0  0  0  0
  -19.1541  -28.8854   23.2877 C   0  0  0  0  0  0
  -18.9462  -30.1457   23.8892 C   0  0  0  0  0  0
  -17.6461  -30.6589   24.0559 C   0  0  0  0  0  0
  -25.9052  -34.9445   23.5099 C   0  0  0  0  0  0
  -16.5351  -29.9083   23.6332 C   0  0  0  0  0  0
  -16.7275  -28.6500   23.0354 C   0  0  0  0  0  0
  -26.4493  -31.6585   25.0725 C   0  0  0  0  0  0
  -25.3722  -31.3732   26.1451 C   0  0  0  0  0  0
  -27.0341  -30.3005   24.6202 C   0  0  0  0  0  0
  -27.6051  -32.4325   25.7496 C   0  0  0  0  0  0
  -27.5581  -37.1797   24.8461 C   0  0  0  0  0  0
  -21.4198  -29.3040   22.3669 N   0  0  0  0  0  0
  -26.4287  -37.3774   23.9412 N   0  0  0  0  0  0
  -24.6911  -31.0568   22.0958 N   0  0  0  0  0  0
  -23.4202  -28.8158   23.3014 O   0  0  0  0  0  0
  -28.3281  -26.4263   20.2051 O   0  0  0  0  0  0
  -26.5627  -34.8917   22.4670 O   0  0  0  0  0  0
  -23.5439  -32.1384   23.7317 O   0  0  0  0  0  0
  -28.7543  -23.0442   20.6696 C   0  0  0  0  0  0
  -28.6782  -23.8686   19.5461 C   0  0  0  0  0  0
  -28.9193  -21.6805   20.1889 C   0  0  0  0  0  0
  -28.4013  -17.9902   20.6558 C   0  0  0  0  0  0
  -30.6425  -18.5316   21.3214 C   0  0  0  0  0  0
  -28.8225  -16.4938   20.3137 C   0  0  0  0  0  0
  -31.1411  -17.1142   20.8718 C   0  0  0  0  0  0
  -29.4718  -19.1122   20.4972 C   0  0  0  0  0  0
  -27.3500  -23.1236   16.4938 C   0  0  0  0  0  0
  -28.5790  -25.3999   19.1730 C   0  0  0  0  0  0
  -28.7735  -23.2104   17.0596 C   0  0  0  0  0  0
  -28.9338  -21.6544   18.8778 N   0  0  0  0  0  0
  -28.7929  -22.9530   18.4927 N   0  0  0  0  0  0
  -30.1606  -15.9859   20.7416 N   0  0  0  0  0  0
  -29.0482  -20.4849   20.9716 N   0  0  0  0  0  0
  -31.4483  -12.5254   19.1626 H   0  0  0  0  0  0
  -30.3231  -11.4852   19.9759 H   0  0  0  0  0  0
  -29.7799  -11.7200   17.5195 H   0  0  0  0  0  0
  -29.6132  -13.4491   17.7142 H   0  0  0  0  0  0
  -27.8952  -11.2626   18.9335 H   0  0  0  0  0  0
  -27.3617  -12.4788   17.8045 H   0  0  0  0  0  0
  -27.6017  -14.2216   19.4092 H   0  0  0  0  0  0
  -28.7255  -12.2252   21.4482 H   0  0  0  0  0  0
  -28.4225  -13.9096   21.7695 H   0  0  0  0  0  0
  -25.2746   -9.5684   22.4784 H   0  0  0  0  0  0
  -24.0000   -7.4620   22.7477 H   0  0  0  0  0  0
  -21.0837   -8.8761   19.8956 H   0  0  0  0  0  0
  -22.3682  -10.9671   19.6182 H   0  0  0  0  0  0
  -21.1997   -7.6145   23.9715 H   0  0  0  0  0  0
  -21.1488   -6.0523   25.9081 H   0  0  0  0  0  0
  -22.0596   -2.7607   23.2845 H   0  0  0  0  0  0
  -22.4048  -11.9868   22.4819 H   0  0  0  0  0  0
  -21.1059  -13.1255   22.2648 H   0  0  0  0  0  0
  -24.6394  -15.8378   20.5174 H   0  0  0  0  0  0
  -26.2556  -15.6322   20.0720 H   0  0  0  0  0  0
  -26.7187  -32.5424   23.1089 H   0  0  0  0  0  0
  -25.0063  -33.9705   25.0405 H   0  0  0  0  0  0
  -22.7179  -31.3016   21.3991 H   0  0  0  0  0  0
  -23.3756  -35.9616   23.3288 H   0  0  0  0  0  0
  -24.3582  -36.8922   22.2057 H   0  0  0  0  0  0
  -23.7235  -37.6482   23.6671 H   0  0  0  0  0  0
  -26.1020  -31.5423   20.6076 H   0  0  0  0  0  0
  -26.8443  -30.8267   22.0073 H   0  0  0  0  0  0
  -28.1067  -28.9485   21.2137 H   0  0  0  0  0  0
  -25.9431  -25.8899   19.0557 H   0  0  0  0  0  0
  -23.9654  -27.2965   19.0230 H   0  0  0  0  0  0
  -23.7567  -30.5907   19.4008 H   0  0  0  0  0  0
  -22.7576  -29.2444   19.8561 H   0  0  0  0  0  0
  -25.1294  -36.1922   25.0824 H   0  0  0  0  0  0
  -20.9982  -28.3265   24.1400 H   0  0  0  0  0  0
  -20.5679  -26.2300   23.3612 H   0  0  0  0  0  0
  -21.6643  -26.7440   22.1200 H   0  0  0  0  0  0
  -19.6907  -25.6292   21.1247 H   0  0  0  0  0  0
  -19.6688  -27.3191   20.6744 H   0  0  0  0  0  0
  -17.4201  -26.6681   21.4025 H   0  0  0  0  0  0
  -18.0323  -26.0073   22.9023 H   0  0  0  0  0  0
  -19.7937  -30.7275   24.2261 H   0  0  0  0  0  0
  -17.5014  -31.6271   24.5158 H   0  0  0  0  0  0
  -15.5349  -30.2979   23.7665 H   0  0  0  0  0  0
  -15.8676  -28.0817   22.7070 H   0  0  0  0  0  0
  -24.5885  -30.7096   25.7775 H   0  0  0  0  0  0
  -24.8927  -32.2902   26.4886 H   0  0  0  0  0  0
  -25.8038  -30.8895   27.0222 H   0  0  0  0  0  0
  -26.2921  -29.6751   24.1223 H   0  0  0  0  0  0
  -27.4021  -29.7270   25.4719 H   0  0  0  0  0  0
  -27.8798  -30.4282   23.9442 H   0  0  0  0  0  0
  -27.2661  -33.3629   26.2064 H   0  0  0  0  0  0
  -28.3864  -32.6878   25.0326 H   0  0  0  0  0  0
  -28.0716  -31.8457   26.5419 H   0  0  0  0  0  0
  -28.2587  -38.0106   24.7524 H   0  0  0  0  0  0
  -28.1089  -36.2637   24.6264 H   0  0  0  0  0  0
  -27.2304  -37.1413   25.8866 H   0  0  0  0  0  0
  -20.9379  -29.8758   21.6871 H   0  0  0  0  0  0
  -26.0167  -38.2848   24.1414 H   0  0  0  0  0  0
  -28.7155  -23.3811   21.6954 H   0  0  0  0  0  0
  -28.0511  -18.0004   21.6894 H   0  0  0  0  0  0
  -27.5249  -18.2483   20.0599 H   0  0  0  0  0  0
  -31.4865  -19.2214   21.2777 H   0  0  0  0  0  0
  -30.3608  -18.4814   22.3748 H   0  0  0  0  0  0
  -28.7539  -16.3509   19.2344 H   0  0  0  0  0  0
  -28.0631  -15.8641   20.7649 H   0  0  0  0  0  0
  -31.9281  -16.8145   21.5671 H   0  0  0  0  0  0
  -31.6311  -17.2353   19.9037 H   0  0  0  0  0  0
  -29.7717  -19.1778   19.4499 H   0  0  0  0  0  0
  -27.3506  -23.2858   15.4160 H   0  0  0  0  0  0
  -26.6958  -23.8709   16.9434 H   0  0  0  0  0  0
  -26.9136  -22.1419   16.6803 H   0  0  0  0  0  0
  -27.9088  -25.5274   18.3254 H   0  0  0  0  0  0
  -29.5491  -25.6797   18.7622 H   0  0  0  0  0  0
  -29.2129  -24.1858   16.8517 H   0  0  0  0  0  0
  -29.4165  -22.4834   16.5604 H   0  0  0  0  0  0
  -29.0116  -20.6156   21.9783 H   0  0  0  0  0  0
  1 25  1  0  0  0
  1 30  2  0  0  0
  1 84  1  0  0  0
  2  3  1  0  0  0
  2 25  1  0  0  0
  2 86  1  0  0  0
  2 87  1  0  0  0
  3  4  1  0  0  0
  3 88  1  0  0  0
  3 89  1  0  0  0
  4  5  1  0  0  0
  4 90  1  0  0  0
  4 91  1  0  0  0
  5  6  1  0  0  0
  5 26  1  0  0  0
  5 92  1  0  0  0
  6 25  1  0  0  0
  6 93  1  0  0  0
  6 94  1  0  0  0
  7  8  2  0  0  0
  7 26  1  0  0  0
  7 29  1  0  0  0
  8  9  1  0  0  0
  8 22  1  0  0  0
  9 10  1  0  0  0
  9 27  2  0  0  0
 10 11  2  0  0  0
 10 15  1  0  0  0
 11 12  1  0  0  0
 11 95  1  0  0  0
 12 13  2  0  0  0
 12 96  1  0  0  0
 13 14  1  0  0  0
 13 31  1  0  0  0
 14 15  2  0  0  0
 14 97  1  0  0  0
 15 98  1  0  0  0
 16 17  2  0  0  0
 16 21  1  0  0  0
 16 31  1  0  0  0
 17 18  1  0  0  0
 17 99  1  0  0  0
 18 19  2  0  0  0
 18100  1  0  0  0
 19 20  1  0  0  0
 19 24  1  0  0  0
 20 21  2  0  0  0
 20101  1  0  0  0
 21 23  1  0  0  0
 22 28  1  0  0  0
 22 32  2  0  0  0
 26 27  1  0  0  0
 28102  1  0  0  0
 28103  1  0  0  0
 29104  1  0  0  0
 29105  1  0  0  0
 33 34  1  0  0  0
 33 66  1  0  0  0
 33 70  2  0  0  0
 34 36  1  0  0  0
 34 59  1  0  0  0
 34106  1  0  0  0
 35 44  2  0  0  0
 35 45  1  0  0  0
 35 68  1  0  0  0
 36 56  1  0  0  0
 36107  1  0  0  0
 37 39  1  0  0  0
 37 47  1  0  0  0
 37 66  1  0  0  0
 37108  1  0  0  0
 38 43  2  0  0  0
 38 46  1  0  0  0
 38 47  1  0  0  0
 39 64  1  0  0  0
 39 67  2  0  0  0
 40 52  1  0  0  0
 40 53  2  0  0  0
 40 58  1  0  0  0
 41109  1  0  0  0
 41110  1  0  0  0
 41111  1  0  0  0
 41 48  1  0  0  0
 42 43  1  0  0  0
 42 66  1  0  0  0
 42112  1  0  0  0
 42113  1  0  0  0
 43 44  1  0  0  0
 44114  1  0  0  0
 45 46  2  0  0  0
 45115  1  0  0  0
 46116  1  0  0  0
 47117  1  0  0  0
 47118  1  0  0  0
 48 56  1  0  0  0
 48 65  1  0  0  0
 48119  1  0  0  0
 49 50  1  0  0  0
 49 53  1  0  0  0
 49 64  1  0  0  0
 49120  1  0  0  0
 50 51  1  0  0  0
 50121  1  0  0  0
 50122  1  0  0  0
 51 52  1  0  0  0
 51123  1  0  0  0
 51124  1  0  0  0
 52125  1  0  0  0
 52126  1  0  0  0
 53 54  1  0  0  0
 54 55  2  0  0  0
 54127  1  0  0  0
 55 57  1  0  0  0
 55128  1  0  0  0
 56 69  2  0  0  0
 57 58  2  0  0  0
 57129  1  0  0  0
 58130  1  0  0  0
 59 60  1  0  0  0
 59 61  1  0  0  0
 59 62  1  0  0  0
 60131  1  0  0  0
 60132  1  0  0  0
 60133  1  0  0  0
 61134  1  0  0  0
 61135  1  0  0  0
 61136  1  0  0  0
 62137  1  0  0  0
 62138  1  0  0  0
 62139  1  0  0  0
 63 65  1  0  0  0
 63140  1  0  0  0
 63141  1  0  0  0
 63142  1  0  0  0
 64143  1  0  0  0
 65144  1  0  0  0
 68 80  1  0  0  0
 71 72  2  0  0  0
 71 73  1  0  0  0
 71145  1  0  0  0
 72 80  1  0  0  0
 72 83  1  0  0  0
 73 82  2  0  0  0
 73 85  1  0  0  0
 74 76  1  0  0  0
 74 78  1  0  0  0
 74146  1  0  0  0
 74147  1  0  0  0
 75 77  1  0  0  0
 75 78  1  0  0  0
 75148  1  0  0  0
 75149  1  0  0  0
 76 84  1  0  0  0
 76150  1  0  0  0
 76151  1  0  0  0
 77 84  1  0  0  0
 77152  1  0  0  0
 77153  1  0  0  0
 78 85  1  0  0  0
 78154  1  0  0  0
 79 81  1  0  0  0
 79155  1  0  0  0
 79156  1  0  0  0
 79157  1  0  0  0
 80158  1  0  0  0
 80159  1  0  0  0
 81 83  1  0  0  0
 81160  1  0  0  0
 81161  1  0  0  0
 82 83  1  0  0  0
 85162  1  0  0  0
M  ISO  4   1 100  68 101  80 101  84 100
M  END
> <chiral flag>
0

> <version>
0

> <s_m_source_file>
/data/baiqing/PycharmProjects/Reinvent-master-3.2/result/LINK_invent/BTK/process_docking_weight1_custom_sum_contain_oxygen_bond_distance_aromatic_linkinvent_7_9_3/rearranged_h_0196.sdf

> <i_m_source_file_index>
10

> <r_mmod_Potential_Energy-OPLS-2005>
241.421661376953

> <r_mmod_Stretch_Energy-OPLS-2005>
97.7580871582031

> <r_mmod_Bend_Energy-OPLS-2005>
225.61247253418

> <r_mmod_Torsional_Energy-OPLS-2005>
319.051910400391

> <r_mmod_Improper_Torsional_Energy-OPLS-2005>
5.2757887840271

> <r_mmod_Van_der_Waal_Energy-OPLS-2005>
132.285079956055

> <r_mmod_Electrostatic_Energy-OPLS-2005>
-391.546630859375

> <r_mmod_Solvation_Energy-OPLS-2005>
-225.006881713867

> <b_mmod_Minimization_Converged-OPLS-2005>
0

> <r_mmod_RMS_Derivative-OPLS-2005>
0.57062965631485

$$$$
10
                    3D
 Structure written by MMmdl.
166175  0  0  1  0            999 V2000
  -30.7155  -14.4457   20.5222 C   0  0  0  0  0  0
  -30.4210  -12.2736   19.4195 C   0  0  0  0  0  0
  -29.4934  -12.4753   18.2028 C   0  0  0  0  0  0
  -28.0139  -12.3522   18.6189 C   0  0  0  0  0  0
  -27.6631  -13.1979   19.8730 C   0  0  2  0  0  0
  -28.7108  -13.0003   20.9939 C   0  0  0  0  0  0
  -25.2622  -13.8135   20.5719 C   0  0  0  0  0  0
  -24.1851  -13.0424   20.9175 C   0  0  0  0  0  0
  -24.6389  -11.6886   20.8734 C   0  0  0  0  0  0
  -23.9038  -10.4280   21.0408 C   0  0  0  0  0  0
  -24.3592   -9.4202   21.9194 C   0  0  0  0  0  0
  -23.6284   -8.2229   22.0755 C   0  0  0  0  0  0
  -22.4256   -8.0271   21.3559 C   0  0  0  0  0  0
  -21.9880   -9.0236   20.4658 C   0  0  0  0  0  0
  -22.7202  -10.2119   20.3069 C   0  0  0  0  0  0
  -21.6840   -6.0725   22.5281 C   0  0  0  0  0  0
  -21.3997   -6.5634   23.8215 C   0  0  0  0  0  0
  -21.3664   -5.6793   24.9183 C   0  0  0  0  0  0
  -21.6050   -4.3056   24.7235 C   0  0  0  0  0  0
  -21.8819   -3.8144   23.4356 C   0  0  0  0  0  0
  -21.9187   -4.6955   22.3407 C   0  0  0  0  0  0
  -22.7876  -13.5243   21.1827 C   0  0  0  0  0  0
  -22.1644   -4.2140   21.0984 F   0  0  0  0  0  0
  -21.5646   -3.4537   25.7747 F   0  0  0  0  0  0
  -30.0399  -13.2722   20.4254 N   0  0  0  0  0  0
  -26.3051  -12.9290   20.3409 N   0  0  0  0  0  0
  -25.9326  -11.6459   20.5796 N   0  0  0  0  0  0
  -22.0508  -12.8267   22.0402 N   0  0  0  0  0  0
  -25.4360  -15.1848   20.4175 N   0  0  0  0  0  0
  -31.8862  -14.5877   20.1566 O   0  0  0  0  0  0
  -21.6630   -6.8866   21.4244 O   0  0  0  0  0  0
  -22.3572  -14.5549   20.6663 O   0  0  0  0  0  0
  -24.6095  -31.8710   23.2132 C   0  0  0  0  0  0
  -25.9007  -32.4842   23.8414 C   0  0  1  0  0  0
  -27.2502  -27.4675   20.0996 C   0  0  0  0  0  0
  -25.5883  -33.8638   24.2348 N   0  0  0  0  0  0
  -23.3972  -30.4923   21.5518 C   0  0  2  0  0  0
  -24.8493  -28.9602   20.1192 C   0  0  0  0  0  0
  -22.7388  -29.4662   22.5009 C   0  0  0  0  0  0
  -18.0265  -28.1371   22.8496 C   0  0  0  0  0  0
  -24.1486  -36.7325   23.2636 C   0  0  0  0  0  0
  -25.9205  -30.8464   21.3630 C   0  0  0  0  0  0
  -26.0023  -29.4786   20.7208 C   0  0  0  0  0  0
  -27.2034  -28.7386   20.7218 C   0  0  0  0  0  0
  -26.0844  -26.9644   19.4882 C   0  0  0  0  0  0
  -24.8821  -27.6972   19.5029 C   0  0  0  0  0  0
  -23.6069  -29.8209   20.1672 C   0  0  0  0  0  0
  -25.4105  -36.3124   24.0342 C   0  0  1  0  0  0
  -20.5852  -28.3653   23.1336 C   0  0  2  0  0  0
  -20.6757  -26.9394   22.5426 C   0  0  0  0  0  0
  -19.5740  -26.6383   21.5217 C   0  0  0  0  0  0
  -18.1916  -26.7920   22.1623 C   0  0  0  0  0  0
  -19.1513  -28.8828   23.2912 C   0  0  0  0  0  0
  -18.9443  -30.1438   23.8916 C   0  0  0  0  0  0
  -17.6447  -30.6582   24.0564 C   0  0  0  0  0  0
  -25.9025  -34.9487   23.5141 C   0  0  0  0  0  0
  -16.5338  -29.9085   23.6325 C   0  0  0  0  0  0
  -16.7254  -28.6501   23.0348 C   0  0  0  0  0  0
  -26.4462  -31.6602   25.0716 C   0  0  0  0  0  0
  -25.3748  -31.3695   26.1477 C   0  0  0  0  0  0
  -27.0281  -30.3048   24.6055 C   0  0  0  0  0  0
  -27.6047  -32.4314   25.7474 C   0  0  0  0  0  0
  -27.5585  -37.1813   24.8464 C   0  0  0  0  0  0
  -21.4122  -29.3022   22.3747 N   0  0  0  0  0  0
  -26.4297  -37.3804   23.9409 N   0  0  0  0  0  0
  -24.6599  -31.0839   22.1018 N   0  0  0  0  0  0
  -23.4178  -28.8209   23.3039 O   0  0  0  0  0  0
  -28.3778  -26.6797   20.0284 O   0  0  0  0  0  0
  -26.5585  -34.8934   22.4700 O   0  0  0  0  0  0
  -23.5299  -32.1443   23.7550 O   0  0  0  0  0  0
  -29.0323  -21.4951   19.4205 C   0  0  0  0  0  0
  -28.5159  -20.1896   19.5174 C   0  0  0  0  0  0
  -29.9562  -21.9036   20.4013 C   0  0  0  0  0  0
  -28.9596  -19.3654   20.5764 C   0  0  0  0  0  0
  -28.5658  -17.2263   19.4604 C   0  0  0  0  0  0
  -28.7069  -17.2715   21.9275 C   0  0  0  0  0  0
  -29.8524  -16.3939   19.4370 C   0  0  0  0  0  0
  -29.9254  -16.3197   21.8641 C   0  0  0  0  0  0
  -31.5239  -25.8360   21.9332 C   0  0  0  0  0  0
  -30.6286  -23.2694   20.3273 C   0  0  0  0  0  0
  -29.3450  -26.8096   21.0648 C   0  0  0  0  0  0
  -30.4070  -25.7058   20.8762 C   0  0  2  0  0  0
  -30.3196  -21.0866   21.4239 N   0  0  0  0  0  0
  -29.8303  -19.8404   21.5062 N   0  0  0  0  0  0
  -28.5241  -18.0277   20.6822 N   0  0  0  0  0  0
  -29.9208  -15.5302   20.6248 N   0  0  0  0  0  0
  -29.7851  -24.3507   20.8857 N   0  3  0  0  0  0
  -31.4657  -12.3595   19.1155 H   0  0  0  0  0  0
  -30.3065  -11.2684   19.8287 H   0  0  0  0  0  0
  -29.7251  -11.7386   17.4319 H   0  0  0  0  0  0
  -29.6694  -13.4535   17.7529 H   0  0  0  0  0  0
  -27.8180  -11.2984   18.8180 H   0  0  0  0  0  0
  -27.3649  -12.6256   17.7863 H   0  0  0  0  0  0
  -27.6985  -14.2392   19.5601 H   0  0  0  0  0  0
  -28.6773  -11.9809   21.3816 H   0  0  0  0  0  0
  -28.4950  -13.6504   21.8430 H   0  0  0  0  0  0
  -25.2726   -9.5689   22.4783 H   0  0  0  0  0  0
  -24.0005   -7.4613   22.7457 H   0  0  0  0  0  0
  -21.0812   -8.8733   19.8964 H   0  0  0  0  0  0
  -22.3647  -10.9650   19.6180 H   0  0  0  0  0  0
  -21.1962   -7.6141   23.9711 H   0  0  0  0  0  0
  -21.1499   -6.0532   25.9093 H   0  0  0  0  0  0
  -22.0598   -2.7607   23.2859 H   0  0  0  0  0  0
  -22.4082  -11.9913   22.4794 H   0  0  0  0  0  0
  -21.1143  -13.1343   22.2604 H   0  0  0  0  0  0
  -24.6757  -15.8459   20.5362 H   0  0  0  0  0  0
  -26.3147  -15.6254   20.1832 H   0  0  0  0  0  0
  -26.7082  -32.5588   23.1194 H   0  0  0  0  0  0
  -25.0057  -33.9811   25.0507 H   0  0  0  0  0  0
  -22.6837  -31.3070   21.4119 H   0  0  0  0  0  0
  -23.3745  -35.9664   23.3319 H   0  0  0  0  0  0
  -24.3585  -36.8913   22.2047 H   0  0  0  0  0  0
  -23.7245  -37.6543   23.6632 H   0  0  0  0  0  0
  -26.0233  -31.6086   20.5893 H   0  0  0  0  0  0
  -26.8113  -30.9092   21.9759 H   0  0  0  0  0  0
  -28.0804  -29.1663   21.1853 H   0  0  0  0  0  0
  -26.1090  -25.9988   19.0035 H   0  0  0  0  0  0
  -23.9974  -27.2899   19.0328 H   0  0  0  0  0  0
  -23.7109  -30.5933   19.4043 H   0  0  0  0  0  0
  -22.7343  -29.2341   19.8747 H   0  0  0  0  0  0
  -25.1280  -36.2000   25.0837 H   0  0  0  0  0  0
  -20.9941  -28.3212   24.1457 H   0  0  0  0  0  0
  -20.5666  -26.2256   23.3605 H   0  0  0  0  0  0
  -21.6628  -26.7448   22.1214 H   0  0  0  0  0  0
  -19.6903  -25.6301   21.1230 H   0  0  0  0  0  0
  -19.6684  -27.3208   20.6761 H   0  0  0  0  0  0
  -17.4192  -26.6678   21.4018 H   0  0  0  0  0  0
  -18.0308  -26.0053   22.9008 H   0  0  0  0  0  0
  -19.7920  -30.7245   24.2294 H   0  0  0  0  0  0
  -17.5004  -31.6265   24.5160 H   0  0  0  0  0  0
  -15.5339  -30.2992   23.7640 H   0  0  0  0  0  0
  -15.8653  -28.0827   22.7051 H   0  0  0  0  0  0
  -24.5923  -30.7033   25.7829 H   0  0  0  0  0  0
  -24.8932  -32.2843   26.4940 H   0  0  0  0  0  0
  -25.8117  -30.8867   27.0225 H   0  0  0  0  0  0
  -26.2800  -29.6823   24.1126 H   0  0  0  0  0  0
  -27.4081  -29.7269   25.4492 H   0  0  0  0  0  0
  -27.8630  -30.4380   23.9170 H   0  0  0  0  0  0
  -27.2667  -33.3600   26.2090 H   0  0  0  0  0  0
  -28.3834  -32.6896   25.0286 H   0  0  0  0  0  0
  -28.0738  -31.8412   26.5358 H   0  0  0  0  0  0
  -28.2611  -38.0103   24.7513 H   0  0  0  0  0  0
  -28.1071  -36.2636   24.6286 H   0  0  0  0  0  0
  -27.2304  -37.1463   25.8868 H   0  0  0  0  0  0
  -20.9276  -29.8741   21.6972 H   0  0  0  0  0  0
  -26.0194  -38.2887   24.1406 H   0  0  0  0  0  0
  -28.7418  -22.1462   18.6095 H   0  0  0  0  0  0
  -27.8022  -19.8415   18.7863 H   0  0  0  0  0  0
  -27.6930  -16.5758   19.4288 H   0  0  0  0  0  0
  -28.5186  -17.8303   18.5542 H   0  0  0  0  0  0
  -28.7864  -17.9308   22.7933 H   0  0  0  0  0  0
  -27.8036  -16.6827   22.0915 H   0  0  0  0  0  0
  -30.7325  -17.0388   19.3973 H   0  0  0  0  0  0
  -29.8698  -15.7967   18.5221 H   0  0  0  0  0  0
  -29.9121  -15.6589   22.7334 H   0  0  0  0  0  0
  -30.8541  -16.8912   21.9253 H   0  0  0  0  0  0
  -31.9473  -26.8412   21.9280 H   0  0  0  0  0  0
  -32.3502  -25.1504   21.7472 H   0  0  0  0  0  0
  -31.1504  -25.6463   22.9405 H   0  0  0  0  0  0
  -30.8672  -23.4868   19.2849 H   0  0  0  0  0  0
  -31.5790  -23.2147   20.8570 H   0  0  0  0  0  0
  -29.8266  -27.7866   21.0072 H   0  0  0  0  0  0
  -28.8707  -26.7289   22.0446 H   0  0  0  0  0  0
  -30.8505  -25.8646   19.8918 H   0  0  0  0  0  0
  -29.4989  -24.0863   21.8155 H   0  0  0  0  0  0
  -28.9519  -24.3932   20.3181 H   0  0  0  0  0  0
  1 25  1  0  0  0
  1 30  2  0  0  0
  1 86  1  0  0  0
  2  3  1  0  0  0
  2 25  1  0  0  0
  2 88  1  0  0  0
  2 89  1  0  0  0
  3  4  1  0  0  0
  3 90  1  0  0  0
  3 91  1  0  0  0
  4  5  1  0  0  0
  4 92  1  0  0  0
  4 93  1  0  0  0
  5  6  1  0  0  0
  5 26  1  0  0  0
  5 94  1  0  0  0
  6 25  1  0  0  0
  6 95  1  0  0  0
  6 96  1  0  0  0
  7  8  2  0  0  0
  7 26  1  0  0  0
  7 29  1  0  0  0
  8  9  1  0  0  0
  8 22  1  0  0  0
  9 10  1  0  0  0
  9 27  2  0  0  0
 10 11  2  0  0  0
 10 15  1  0  0  0
 11 12  1  0  0  0
 11 97  1  0  0  0
 12 13  2  0  0  0
 12 98  1  0  0  0
 13 14  1  0  0  0
 13 31  1  0  0  0
 14 15  2  0  0  0
 14 99  1  0  0  0
 15100  1  0  0  0
 16 17  2  0  0  0
 16 21  1  0  0  0
 16 31  1  0  0  0
 17 18  1  0  0  0
 17101  1  0  0  0
 18 19  2  0  0  0
 18102  1  0  0  0
 19 20  1  0  0  0
 19 24  1  0  0  0
 20 21  2  0  0  0
 20103  1  0  0  0
 21 23  1  0  0  0
 22 28  1  0  0  0
 22 32  2  0  0  0
 26 27  1  0  0  0
 28104  1  0  0  0
 28105  1  0  0  0
 29106  1  0  0  0
 29107  1  0  0  0
 33 34  1  0  0  0
 33 66  1  0  0  0
 33 70  2  0  0  0
 34 36  1  0  0  0
 34 59  1  0  0  0
 34108  1  0  0  0
 35 44  2  0  0  0
 35 45  1  0  0  0
 35 68  1  0  0  0
 36 56  1  0  0  0
 36109  1  0  0  0
 37 39  1  0  0  0
 37 47  1  0  0  0
 37 66  1  0  0  0
 37110  1  0  0  0
 38 43  2  0  0  0
 38 46  1  0  0  0
 38 47  1  0  0  0
 39 64  1  0  0  0
 39 67  2  0  0  0
 40 52  1  0  0  0
 40 53  2  0  0  0
 40 58  1  0  0  0
 41111  1  0  0  0
 41112  1  0  0  0
 41113  1  0  0  0
 41 48  1  0  0  0
 42 43  1  0  0  0
 42 66  1  0  0  0
 42114  1  0  0  0
 42115  1  0  0  0
 43 44  1  0  0  0
 44116  1  0  0  0
 45 46  2  0  0  0
 45117  1  0  0  0
 46118  1  0  0  0
 47119  1  0  0  0
 47120  1  0  0  0
 48 56  1  0  0  0
 48 65  1  0  0  0
 48121  1  0  0  0
 49 50  1  0  0  0
 49 53  1  0  0  0
 49 64  1  0  0  0
 49122  1  0  0  0
 50 51  1  0  0  0
 50123  1  0  0  0
 50124  1  0  0  0
 51 52  1  0  0  0
 51125  1  0  0  0
 51126  1  0  0  0
 52127  1  0  0  0
 52128  1  0  0  0
 53 54  1  0  0  0
 54 55  2  0  0  0
 54129  1  0  0  0
 55 57  1  0  0  0
 55130  1  0  0  0
 56 69  2  0  0  0
 57 58  2  0  0  0
 57131  1  0  0  0
 58132  1  0  0  0
 59 60  1  0  0  0
 59 61  1  0  0  0
 59 62  1  0  0  0
 60133  1  0  0  0
 60134  1  0  0  0
 60135  1  0  0  0
 61136  1  0  0  0
 61137  1  0  0  0
 61138  1  0  0  0
 62139  1  0  0  0
 62140  1  0  0  0
 62141  1  0  0  0
 63 65  1  0  0  0
 63142  1  0  0  0
 63143  1  0  0  0
 63144  1  0  0  0
 64145  1  0  0  0
 65146  1  0  0  0
 68 81  1  0  0  0
 71 72  2  0  0  0
 71 73  1  0  0  0
 71147  1  0  0  0
 72 74  1  0  0  0
 72148  1  0  0  0
 73 80  1  0  0  0
 73 83  2  0  0  0
 74 84  2  0  0  0
 74 85  1  0  0  0
 75 77  1  0  0  0
 75 85  1  0  0  0
 75149  1  0  0  0
 75150  1  0  0  0
 76 78  1  0  0  0
 76 85  1  0  0  0
 76151  1  0  0  0
 76152  1  0  0  0
 77 86  1  0  0  0
 77153  1  0  0  0
 77154  1  0  0  0
 78 86  1  0  0  0
 78155  1  0  0  0
 78156  1  0  0  0
 79157  1  0  0  0
 79158  1  0  0  0
 79159  1  0  0  0
 79 82  1  0  0  0
 80 87  1  0  0  0
 80160  1  0  0  0
 80161  1  0  0  0
 81 82  1  0  0  0
 81162  1  0  0  0
 81163  1  0  0  0
 82 87  1  0  0  0
 82164  1  0  0  0
 83 84  1  0  0  0
 87165  1  0  0  0
 87166  1  0  0  0
M  CHG  1  87   1
M  ISO  4   1 100  68 101  81 101  86 100
M  END
> <chiral flag>
0

> <version>
0

> <s_m_source_file>
/data/baiqing/PycharmProjects/Reinvent-master-3.2/result/LINK_invent/BTK/process_docking_weight1_custom_sum_contain_oxygen_bond_distance_aromatic_linkinvent_7_9_3/rearranged_h_0196.sdf

> <i_m_source_file_index>
11

> <r_mmod_Potential_Energy-OPLS-2005>
-57.0207405090332

> <r_mmod_Stretch_Energy-OPLS-2005>
36.9457054138184

> <r_mmod_Bend_Energy-OPLS-2005>
110.529571533203

> <r_mmod_Torsional_Energy-OPLS-2005>
349.660095214844

> <r_mmod_Improper_Torsional_Energy-OPLS-2005>
18.0255641937256

> <r_mmod_Van_der_Waal_Energy-OPLS-2005>
161.4677734375

> <r_mmod_Electrostatic_Energy-OPLS-2005>
-281.394470214844

> <r_mmod_Solvation_Energy-OPLS-2005>
-465.408050537109

> <b_mmod_Minimization_Converged-OPLS-2005>
0

> <r_mmod_RMS_Derivative-OPLS-2005>
1.48092544078827

$$$$
11
                    3D
 Structure written by MMmdl.
166175  0  0  1  0            999 V2000
  -30.7000  -14.4897   20.4857 C   0  0  0  0  0  0
  -30.4267  -12.2933   19.4269 C   0  0  0  0  0  0
  -29.5030  -12.4747   18.2059 C   0  0  0  0  0  0
  -28.0202  -12.3396   18.6157 C   0  0  0  0  0  0
  -27.6559  -13.1876   19.8629 C   0  0  2  0  0  0
  -28.7084  -13.0295   20.9850 C   0  0  0  0  0  0
  -25.2622  -13.8107   20.5707 C   0  0  0  0  0  0
  -24.1840  -13.0425   20.9197 C   0  0  0  0  0  0
  -24.6354  -11.6880   20.8726 C   0  0  0  0  0  0
  -23.9003  -10.4282   21.0385 C   0  0  0  0  0  0
  -24.3586   -9.4219   21.9171 C   0  0  0  0  0  0
  -23.6291   -8.2237   22.0730 C   0  0  0  0  0  0
  -22.4275   -8.0250   21.3525 C   0  0  0  0  0  0
  -21.9890   -9.0210   20.4620 C   0  0  0  0  0  0
  -22.7181  -10.2106   20.3025 C   0  0  0  0  0  0
  -21.6837   -6.0734   22.5276 C   0  0  0  0  0  0
  -21.4000   -6.5646   23.8212 C   0  0  0  0  0  0
  -21.3661   -5.6806   24.9170 C   0  0  0  0  0  0
  -21.6061   -4.3064   24.7222 C   0  0  0  0  0  0
  -21.8830   -3.8150   23.4345 C   0  0  0  0  0  0
  -21.9200   -4.6968   22.3401 C   0  0  0  0  0  0
  -22.7870  -13.5247   21.1867 C   0  0  0  0  0  0
  -22.1669   -4.2157   21.0977 F   0  0  0  0  0  0
  -21.5643   -3.4549   25.7740 F   0  0  0  0  0  0
  -30.0336  -13.3080   20.4117 N   0  0  0  0  0  0
  -26.3008  -12.9221   20.3347 N   0  0  0  0  0  0
  -25.9283  -11.6415   20.5763 N   0  0  0  0  0  0
  -22.0503  -12.8191   22.0382 N   0  0  0  0  0  0
  -25.4431  -15.1824   20.4153 N   0  0  0  0  0  0
  -31.8896  -14.6158   20.1831 O   0  0  0  0  0  0
  -21.6644   -6.8849   21.4224 O   0  0  0  0  0  0
  -22.3570  -14.5576   20.6739 O   0  0  0  0  0  0
  -24.6148  -31.8690   23.2084 C   0  0  0  0  0  0
  -25.9044  -32.4825   23.8379 C   0  0  1  0  0  0
  -27.2348  -27.4416   20.1087 C   0  0  0  0  0  0
  -25.5891  -33.8617   24.2318 N   0  0  0  0  0  0
  -23.4007  -30.4932   21.5477 C   0  0  2  0  0  0
  -24.8471  -28.9623   20.1112 C   0  0  0  0  0  0
  -22.7407  -29.4687   22.4988 C   0  0  0  0  0  0
  -18.0269  -28.1383   22.8482 C   0  0  0  0  0  0
  -24.1477  -36.7318   23.2635 C   0  0  0  0  0  0
  -25.9261  -30.8427   21.3546 C   0  0  0  0  0  0
  -26.0061  -29.4772   20.7041 C   0  0  0  0  0  0
  -27.2035  -28.7268   20.6943 C   0  0  0  0  0  0
  -26.0581  -26.9473   19.4940 C   0  0  0  0  0  0
  -24.8694  -27.6984   19.4988 C   0  0  0  0  0  0
  -23.6044  -29.8199   20.1640 C   0  0  0  0  0  0
  -25.4102  -36.3113   24.0331 C   0  0  1  0  0  0
  -20.5858  -28.3677   23.1306 C   0  0  2  0  0  0
  -20.6766  -26.9408   22.5407 C   0  0  0  0  0  0
  -19.5738  -26.6387   21.5210 C   0  0  0  0  0  0
  -18.1920  -26.7932   22.1612 C   0  0  0  0  0  0
  -19.1520  -28.8841   23.2895 C   0  0  0  0  0  0
  -18.9462  -30.1455   23.8904 C   0  0  0  0  0  0
  -17.6462  -30.6585   24.0565 C   0  0  0  0  0  0
  -25.9030  -34.9480   23.5113 C   0  0  0  0  0  0
  -16.5349  -29.9085   23.6332 C   0  0  0  0  0  0
  -16.7264  -28.6500   23.0345 C   0  0  0  0  0  0
  -26.4460  -31.6608   25.0718 C   0  0  0  0  0  0
  -25.3727  -31.3740   26.1472 C   0  0  0  0  0  0
  -27.0269  -30.3040   24.6089 C   0  0  0  0  0  0
  -27.6035  -32.4314   25.7497 C   0  0  0  0  0  0
  -27.5577  -37.1811   24.8457 C   0  0  0  0  0  0
  -21.4133  -29.3051   22.3722 N   0  0  0  0  0  0
  -26.4289  -37.3806   23.9406 N   0  0  0  0  0  0
  -24.6653  -31.0806   22.0966 N   0  0  0  0  0  0
  -23.4180  -28.8235   23.3028 O   0  0  0  0  0  0
  -28.4014  -26.7022   20.1695 O   0  0  0  0  0  0
  -26.5593  -34.8939   22.4686 O   0  0  0  0  0  0
  -23.5342  -32.1423   23.7490 O   0  0  0  0  0  0
  -29.8159  -17.7634   19.4742 C   0  0  0  0  0  0
  -29.3694  -21.2340   22.9705 C   0  0  0  0  0  0
  -28.3052  -20.9037   20.6569 C   0  0  0  0  0  0
  -29.5513  -16.2657   19.3028 C   0  0  0  0  0  0
  -30.2039  -16.6607   21.5421 C   0  0  0  0  0  0
  -29.9299  -22.5758   22.4415 C   0  0  0  0  0  0
  -28.9670  -22.2357   20.2432 C   0  0  0  0  0  0
  -29.5635  -17.9360   20.9607 C   0  0  1  0  0  0
  -28.9637  -20.2046   21.8811 C   0  0  1  0  0  0
  -29.3590  -24.5857   21.0639 C   0  0  0  0  0  0
  -28.2490  -25.2758   20.2309 C   0  0  0  0  0  0
  -29.9140  -15.5921   20.5708 N   0  0  0  0  0  0
  -29.0410  -23.1624   21.4037 N   0  3  2  0  0  0
  -30.0410  -19.2214   21.5435 N   0  3  0  0  0  0
  -31.4715  -12.3843   19.1270 H   0  0  0  0  0  0
  -30.3238  -11.2914   19.8487 H   0  0  0  0  0  0
  -29.7490  -11.7423   17.4376 H   0  0  0  0  0  0
  -29.6797  -13.4512   17.7504 H   0  0  0  0  0  0
  -27.8252  -11.2857   18.8158 H   0  0  0  0  0  0
  -27.3742  -12.6068   17.7774 H   0  0  0  0  0  0
  -27.6692  -14.2208   19.5377 H   0  0  0  0  0  0
  -28.6870  -12.0183   21.3954 H   0  0  0  0  0  0
  -28.4888  -13.6988   21.8186 H   0  0  0  0  0  0
  -25.2733   -9.5739   22.4730 H   0  0  0  0  0  0
  -24.0043   -7.4633   22.7434 H   0  0  0  0  0  0
  -21.0828   -8.8674   19.8921 H   0  0  0  0  0  0
  -22.3617  -10.9623   19.6108 H   0  0  0  0  0  0
  -21.1964   -7.6151   23.9717 H   0  0  0  0  0  0
  -21.1478   -6.0525   25.9078 H   0  0  0  0  0  0
  -22.0609   -2.7615   23.2839 H   0  0  0  0  0  0
  -22.4106  -11.9846   22.4771 H   0  0  0  0  0  0
  -21.1092  -13.1158   22.2558 H   0  0  0  0  0  0
  -24.6913  -15.8485   20.5458 H   0  0  0  0  0  0
  -26.3134  -15.6135   20.1317 H   0  0  0  0  0  0
  -26.7132  -32.5531   23.1161 H   0  0  0  0  0  0
  -25.0058  -33.9772   25.0472 H   0  0  0  0  0  0
  -22.6904  -31.3097   21.4057 H   0  0  0  0  0  0
  -23.3742  -35.9641   23.3280 H   0  0  0  0  0  0
  -24.3586  -36.8955   22.2051 H   0  0  0  0  0  0
  -23.7213  -37.6515   23.6661 H   0  0  0  0  0  0
  -26.0274  -31.6062   20.5830 H   0  0  0  0  0  0
  -26.8188  -30.9035   21.9645 H   0  0  0  0  0  0
  -28.0974  -29.1209   21.1574 H   0  0  0  0  0  0
  -26.0387  -25.9806   19.0102 H   0  0  0  0  0  0
  -23.9787  -27.2980   19.0318 H   0  0  0  0  0  0
  -23.6953  -30.5871   19.3942 H   0  0  0  0  0  0
  -22.7329  -29.2253   19.8821 H   0  0  0  0  0  0
  -25.1280  -36.1973   25.0827 H   0  0  0  0  0  0
  -20.9952  -28.3235   24.1423 H   0  0  0  0  0  0
  -20.5661  -26.2291   23.3605 H   0  0  0  0  0  0
  -21.6631  -26.7452   22.1189 H   0  0  0  0  0  0
  -19.6902  -25.6296   21.1241 H   0  0  0  0  0  0
  -19.6693  -27.3195   20.6739 H   0  0  0  0  0  0
  -17.4201  -26.6696   21.4006 H   0  0  0  0  0  0
  -18.0314  -26.0059   22.8992 H   0  0  0  0  0  0
  -19.7946  -30.7273   24.2258 H   0  0  0  0  0  0
  -17.5025  -31.6273   24.5158 H   0  0  0  0  0  0
  -15.5354  -30.2997   23.7665 H   0  0  0  0  0  0
  -15.8652  -28.0837   22.7052 H   0  0  0  0  0  0
  -24.5847  -30.7145   25.7809 H   0  0  0  0  0  0
  -24.8985  -32.2920   26.4949 H   0  0  0  0  0  0
  -25.8065  -30.8867   27.0209 H   0  0  0  0  0  0
  -26.2803  -29.6826   24.1116 H   0  0  0  0  0  0
  -27.4007  -29.7251   25.4546 H   0  0  0  0  0  0
  -27.8654  -30.4345   23.9243 H   0  0  0  0  0  0
  -27.2661  -33.3634   26.2034 H   0  0  0  0  0  0
  -28.3886  -32.6821   25.0355 H   0  0  0  0  0  0
  -28.0633  -31.8442   26.5459 H   0  0  0  0  0  0
  -28.2573  -38.0124   24.7525 H   0  0  0  0  0  0
  -28.1093  -36.2662   24.6253 H   0  0  0  0  0  0
  -27.2302  -37.1409   25.8859 H   0  0  0  0  0  0
  -20.9301  -29.8787   21.6955 H   0  0  0  0  0  0
  -26.0172  -38.2879   24.1423 H   0  0  0  0  0  0
  -29.1649  -18.3716   18.8455 H   0  0  0  0  0  0
  -30.8499  -17.9923   19.2108 H   0  0  0  0  0  0
  -28.4791  -21.4648   23.5602 H   0  0  0  0  0  0
  -30.0648  -20.7873   23.6831 H   0  0  0  0  0  0
  -28.2364  -20.2392   19.7982 H   0  0  0  0  0  0
  -27.2674  -21.1245   20.9154 H   0  0  0  0  0  0
  -30.0770  -15.8693   18.4301 H   0  0  0  0  0  0
  -28.4870  -16.1331   19.1197 H   0  0  0  0  0  0
  -29.7883  -16.4117   22.5186 H   0  0  0  0  0  0
  -31.2830  -16.7845   21.6654 H   0  0  0  0  0  0
  -30.9345  -22.4384   22.0373 H   0  0  0  0  0  0
  -30.0342  -23.2650   23.2812 H   0  0  0  0  0  0
  -28.3839  -22.6659   19.4302 H   0  0  0  0  0  0
  -29.9676  -22.0652   19.8397 H   0  0  0  0  0  0
  -28.4870  -17.8484   21.1183 H   0  0  0  0  0  0
  -28.1821  -19.6048   22.3527 H   0  0  0  0  0  0
  -29.4507  -25.1380   22.0004 H   0  0  0  0  0  0
  -30.3253  -24.6611   20.5665 H   0  0  0  0  0  0
  -27.2922  -25.0120   20.6862 H   0  0  0  0  0  0
  -28.2414  -24.8922   19.2118 H   0  0  0  0  0  0
  -28.1197  -23.1961   21.8185 H   0  0  0  0  0  0
  -30.7534  -19.6270   20.9566 H   0  0  0  0  0  0
  -30.4882  -18.9720   22.4124 H   0  0  0  0  0  0
  1 25  1  0  0  0
  1 30  2  0  0  0
  1 82  1  0  0  0
  2  3  1  0  0  0
  2 25  1  0  0  0
  2 85  1  0  0  0
  2 86  1  0  0  0
  3  4  1  0  0  0
  3 87  1  0  0  0
  3 88  1  0  0  0
  4  5  1  0  0  0
  4 89  1  0  0  0
  4 90  1  0  0  0
  5  6  1  0  0  0
  5 26  1  0  0  0
  5 91  1  0  0  0
  6 25  1  0  0  0
  6 92  1  0  0  0
  6 93  1  0  0  0
  7  8  2  0  0  0
  7 26  1  0  0  0
  7 29  1  0  0  0
  8  9  1  0  0  0
  8 22  1  0  0  0
  9 10  1  0  0  0
  9 27  2  0  0  0
 10 11  2  0  0  0
 10 15  1  0  0  0
 11 12  1  0  0  0
 11 94  1  0  0  0
 12 13  2  0  0  0
 12 95  1  0  0  0
 13 14  1  0  0  0
 13 31  1  0  0  0
 14 15  2  0  0  0
 14 96  1  0  0  0
 15 97  1  0  0  0
 16 17  2  0  0  0
 16 21  1  0  0  0
 16 31  1  0  0  0
 17 18  1  0  0  0
 17 98  1  0  0  0
 18 19  2  0  0  0
 18 99  1  0  0  0
 19 20  1  0  0  0
 19 24  1  0  0  0
 20 21  2  0  0  0
 20100  1  0  0  0
 21 23  1  0  0  0
 22 28  1  0  0  0
 22 32  2  0  0  0
 26 27  1  0  0  0
 28101  1  0  0  0
 28102  1  0  0  0
 29103  1  0  0  0
 29104  1  0  0  0
 33 34  1  0  0  0
 33 66  1  0  0  0
 33 70  2  0  0  0
 34 36  1  0  0  0
 34 59  1  0  0  0
 34105  1  0  0  0
 35 44  2  0  0  0
 35 45  1  0  0  0
 35 68  1  0  0  0
 36 56  1  0  0  0
 36106  1  0  0  0
 37 39  1  0  0  0
 37 47  1  0  0  0
 37 66  1  0  0  0
 37107  1  0  0  0
 38 43  2  0  0  0
 38 46  1  0  0  0
 38 47  1  0  0  0
 39 64  1  0  0  0
 39 67  2  0  0  0
 40 52  1  0  0  0
 40 53  2  0  0  0
 40 58  1  0  0  0
 41108  1  0  0  0
 41109  1  0  0  0
 41110  1  0  0  0
 41 48  1  0  0  0
 42 43  1  0  0  0
 42 66  1  0  0  0
 42111  1  0  0  0
 42112  1  0  0  0
 43 44  1  0  0  0
 44113  1  0  0  0
 45 46  2  0  0  0
 45114  1  0  0  0
 46115  1  0  0  0
 47116  1  0  0  0
 47117  1  0  0  0
 48 56  1  0  0  0
 48 65  1  0  0  0
 48118  1  0  0  0
 49 50  1  0  0  0
 49 53  1  0  0  0
 49 64  1  0  0  0
 49119  1  0  0  0
 50 51  1  0  0  0
 50120  1  0  0  0
 50121  1  0  0  0
 51 52  1  0  0  0
 51122  1  0  0  0
 51123  1  0  0  0
 52124  1  0  0  0
 52125  1  0  0  0
 53 54  1  0  0  0
 54 55  2  0  0  0
 54126  1  0  0  0
 55 57  1  0  0  0
 55127  1  0  0  0
 56 69  2  0  0  0
 57 58  2  0  0  0
 57128  1  0  0  0
 58129  1  0  0  0
 59 60  1  0  0  0
 59 61  1  0  0  0
 59 62  1  0  0  0
 60130  1  0  0  0
 60131  1  0  0  0
 60132  1  0  0  0
 61133  1  0  0  0
 61134  1  0  0  0
 61135  1  0  0  0
 62136  1  0  0  0
 62137  1  0  0  0
 62138  1  0  0  0
 63 65  1  0  0  0
 63139  1  0  0  0
 63140  1  0  0  0
 63141  1  0  0  0
 64142  1  0  0  0
 65143  1  0  0  0
 68 81  1  0  0  0
 71 74  1  0  0  0
 71 78  1  0  0  0
 71144  1  0  0  0
 71145  1  0  0  0
 72 76  1  0  0  0
 72 79  1  0  0  0
 72146  1  0  0  0
 72147  1  0  0  0
 73 77  1  0  0  0
 73 79  1  0  0  0
 73148  1  0  0  0
 73149  1  0  0  0
 74 82  1  0  0  0
 74150  1  0  0  0
 74151  1  0  0  0
 75 78  1  0  0  0
 75 82  1  0  0  0
 75152  1  0  0  0
 75153  1  0  0  0
 76 83  1  0  0  0
 76154  1  0  0  0
 76155  1  0  0  0
 77 83  1  0  0  0
 77156  1  0  0  0
 77157  1  0  0  0
 78 84  1  0  0  0
 78158  1  0  0  0
 79 84  1  0  0  0
 79159  1  0  0  0
 80 81  1  0  0  0
 80160  1  0  0  0
 80161  1  0  0  0
 80 83  1  0  0  0
 81162  1  0  0  0
 81163  1  0  0  0
 83164  1  0  0  0
 84165  1  0  0  0
 84166  1  0  0  0
M  CHG  2  83   1  84   1
M  ISO  4   1 100  68 101  81 101  82 100
M  END
> <chiral flag>
0

> <version>
0

> <s_m_source_file>
/data/baiqing/PycharmProjects/Reinvent-master-3.2/result/LINK_invent/BTK/process_docking_weight1_custom_sum_contain_oxygen_bond_distance_aromatic_linkinvent_7_9_3/rearranged_h_0196.sdf

> <i_m_source_file_index>
12

> <r_mmod_Potential_Energy-OPLS-2005>
-13.9812135696411

> <r_mmod_Stretch_Energy-OPLS-2005>
39.7108192443848

> <r_mmod_Bend_Energy-OPLS-2005>
138.976348876953

> <r_mmod_Torsional_Energy-OPLS-2005>
402.09765625

> <r_mmod_Improper_Torsional_Energy-OPLS-2005>
12.9666051864624

> <r_mmod_Van_der_Waal_Energy-OPLS-2005>
135.944946289062

> <r_mmod_Electrostatic_Energy-OPLS-2005>
207.844345092773

> <r_mmod_Solvation_Energy-OPLS-2005>
-972.256408691406

> <b_mmod_Minimization_Converged-OPLS-2005>
0

> <r_mmod_RMS_Derivative-OPLS-2005>
3.21666765213013

$$$$
12
                    3D
 Structure written by MMmdl.
160169  0  0  1  0            999 V2000
  -30.6012  -14.8108   20.3789 C   0  0  0  0  0  0
  -30.4502  -12.4875   19.4731 C   0  0  0  0  0  0
  -29.5247  -12.4387   18.2391 C   0  0  0  0  0  0
  -28.0416  -12.2987   18.6608 C   0  0  0  0  0  0
  -27.6264  -13.2227   19.8407 C   0  0  2  0  0  0
  -28.6865  -13.2348   20.9620 C   0  0  0  0  0  0
  -25.2293  -13.8033   20.5669 C   0  0  0  0  0  0
  -24.1641  -13.0282   20.9283 C   0  0  0  0  0  0
  -24.6316  -11.6813   20.8858 C   0  0  0  0  0  0
  -23.9024  -10.4211   21.0507 C   0  0  0  0  0  0
  -24.3591   -9.4128   21.9260 C   0  0  0  0  0  0
  -23.6275   -8.2161   22.0776 C   0  0  0  0  0  0
  -22.4263   -8.0241   21.3546 C   0  0  0  0  0  0
  -21.9898   -9.0222   20.4663 C   0  0  0  0  0  0
  -22.7228  -10.2092   20.3109 C   0  0  0  0  0  0
  -21.6844   -6.0710   22.5267 C   0  0  0  0  0  0
  -21.3991   -6.5617   23.8193 C   0  0  0  0  0  0
  -21.3648   -5.6775   24.9156 C   0  0  0  0  0  0
  -21.6051   -4.3043   24.7226 C   0  0  0  0  0  0
  -21.8831   -3.8126   23.4352 C   0  0  0  0  0  0
  -21.9189   -4.6936   22.3398 C   0  0  0  0  0  0
  -22.7671  -13.5143   21.1918 C   0  0  0  0  0  0
  -22.1676   -4.2105   21.0986 F   0  0  0  0  0  0
  -21.5634   -3.4551   25.7761 F   0  0  0  0  0  0
  -29.9754  -13.5816   20.3466 N   0  0  0  0  0  0
  -26.2819  -12.9296   20.3315 N   0  0  0  0  0  0
  -25.9255  -11.6451   20.5868 N   0  0  0  0  0  0
  -22.0270  -12.8167   22.0475 N   0  0  0  0  0  0
  -25.3552  -15.1719   20.3954 N   0  0  0  0  0  0
  -31.8268  -14.8716   20.2401 O   0  0  0  0  0  0
  -21.6621   -6.8851   21.4231 O   0  0  0  0  0  0
  -22.3390  -14.5470   20.6794 O   0  0  0  0  0  0
  -24.6304  -31.8547   23.1987 C   0  0  0  0  0  0
  -25.9136  -32.4749   23.8334 C   0  0  1  0  0  0
  -27.2113  -27.2529   20.1483 C   0  0  0  0  0  0
  -25.5938  -33.8552   24.2249 N   0  0  0  0  0  0
  -23.4287  -30.4788   21.5387 C   0  0  2  0  0  0
  -24.8763  -28.9251   20.1135 C   0  0  0  0  0  0
  -22.7495  -29.4614   22.4878 C   0  0  0  0  0  0
  -18.0296  -28.1407   22.8495 C   0  0  0  0  0  0
  -24.1486  -36.7274   23.2635 C   0  0  0  0  0  0
  -25.9759  -30.7646   21.3823 C   0  0  0  0  0  0
  -26.0466  -29.3852   20.7310 C   0  0  0  0  0  0
  -27.2168  -28.5596   20.7420 C   0  0  0  0  0  0
  -26.0217  -26.8706   19.4858 C   0  0  0  0  0  0
  -24.8679  -27.6754   19.4805 C   0  0  0  0  0  0
  -23.6493  -29.8113   20.1562 C   0  0  0  0  0  0
  -25.4110  -36.3044   24.0314 C   0  0  1  0  0  0
  -20.5904  -28.3703   23.1266 C   0  0  2  0  0  0
  -20.6783  -26.9419   22.5408 C   0  0  0  0  0  0
  -19.5746  -26.6393   21.5223 C   0  0  0  0  0  0
  -18.1932  -26.7954   22.1641 C   0  0  0  0  0  0
  -19.1554  -28.8876   23.2883 C   0  0  0  0  0  0
  -18.9474  -30.1483   23.8876 C   0  0  0  0  0  0
  -17.6469  -30.6597   24.0574 C   0  0  0  0  0  0
  -25.9049  -34.9421   23.5086 C   0  0  0  0  0  0
  -16.5361  -29.9085   23.6354 C   0  0  0  0  0  0
  -16.7285  -28.6521   23.0354 C   0  0  0  0  0  0
  -26.4522  -31.6583   25.0722 C   0  0  0  0  0  0
  -25.3767  -31.3740   26.1459 C   0  0  0  0  0  0
  -27.0369  -30.2983   24.6230 C   0  0  0  0  0  0
  -27.6044  -32.4356   25.7518 C   0  0  0  0  0  0
  -27.5571  -37.1790   24.8459 C   0  0  0  0  0  0
  -21.4200  -29.3041   22.3634 N   0  0  0  0  0  0
  -26.4275  -37.3749   23.9413 N   0  0  0  0  0  0
  -24.6970  -31.0524   22.0950 N   0  0  0  0  0  0
  -23.4192  -28.8147   23.2976 O   0  0  0  0  0  0
  -28.2963  -26.3491   20.2052 O   0  0  0  0  0  0
  -26.5605  -34.8899   22.4634 O   0  0  0  0  0  0
  -23.5453  -32.1361   23.7277 O   0  0  0  0  0  0
  -29.8556  -18.6259   20.5845 C   0  0  0  0  0  0
  -31.3494  -19.9945   19.6589 C   0  0  0  0  0  0
  -29.4974  -20.9218   20.5024 C   0  0  0  0  0  0
  -27.9096  -16.9145   19.0710 C   0  0  0  0  0  0
  -27.8980  -17.0612   20.6000 C   0  0  0  0  0  0
  -29.2220  -16.1622   18.7876 C   0  0  0  0  0  0
  -29.3851  -17.1421   20.9388 C   0  0  1  0  0  0
  -32.7048  -20.1603   19.0122 C   0  0  0  0  0  0
  -28.5674  -22.1996   20.6938 C   0  0  0  0  0  0
  -29.0794  -23.7140   20.4233 C   0  0  0  0  0  0
  -27.9896  -24.9028   20.4937 C   0  0  0  0  0  0
  -31.0180  -18.7423   19.9631 N   0  0  0  0  0  0
  -29.0696  -19.6960   20.9065 N   0  0  0  0  0  0
  -30.6456  -21.1085   19.8637 N   0  0  0  0  0  0
  -29.8280  -15.9414   20.1094 N   0  0  0  0  0  0
  -31.4803  -12.6405   19.1469 H   0  0  0  0  0  0
  -30.4475  -11.5401   20.0123 H   0  0  0  0  0  0
  -29.8129  -11.6002   17.6029 H   0  0  0  0  0  0
  -29.6777  -13.3185   17.6162 H   0  0  0  0  0  0
  -27.8946  -11.2634   18.9660 H   0  0  0  0  0  0
  -27.3875  -12.4533   17.8021 H   0  0  0  0  0  0
  -27.5726  -14.2282   19.4427 H   0  0  0  0  0  0
  -28.7457  -12.2708   21.4683 H   0  0  0  0  0  0
  -28.4199  -13.9729   21.7203 H   0  0  0  0  0  0
  -25.2742   -9.5600   22.4826 H   0  0  0  0  0  0
  -23.9994   -7.4524   22.7459 H   0  0  0  0  0  0
  -21.0838   -8.8759   19.8955 H   0  0  0  0  0  0
  -22.3738  -10.9647   19.6211 H   0  0  0  0  0  0
  -21.1979   -7.6120   23.9694 H   0  0  0  0  0  0
  -21.1462   -6.0501   25.9051 H   0  0  0  0  0  0
  -22.0634   -2.7589   23.2869 H   0  0  0  0  0  0
  -22.3898  -11.9884   22.4928 H   0  0  0  0  0  0
  -21.0860  -13.1160   22.2630 H   0  0  0  0  0  0
  -24.5634  -15.7935   20.5233 H   0  0  0  0  0  0
  -26.1890  -15.6459   20.0745 H   0  0  0  0  0  0
  -26.7199  -32.5400   23.1079 H   0  0  0  0  0  0
  -25.0136  -33.9703   25.0430 H   0  0  0  0  0  0
  -22.7257  -31.3006   21.3871 H   0  0  0  0  0  0
  -23.3740  -35.9617   23.3285 H   0  0  0  0  0  0
  -24.3571  -36.8908   22.2053 H   0  0  0  0  0  0
  -23.7266  -37.6477   23.6676 H   0  0  0  0  0  0
  -26.1135  -31.5203   20.6081 H   0  0  0  0  0  0
  -26.8552  -30.8176   22.0142 H   0  0  0  0  0  0
  -28.1057  -28.8949   21.2586 H   0  0  0  0  0  0
  -25.9495  -25.9302   18.9629 H   0  0  0  0  0  0
  -23.9725  -27.3228   18.9845 H   0  0  0  0  0  0
  -23.7740  -30.5806   19.3934 H   0  0  0  0  0  0
  -22.7724  -29.2365   19.8538 H   0  0  0  0  0  0
  -25.1303  -36.1870   25.0808 H   0  0  0  0  0  0
  -21.0027  -28.3294   24.1378 H   0  0  0  0  0  0
  -20.5704  -26.2311   23.3610 H   0  0  0  0  0  0
  -21.6647  -26.7445   22.1188 H   0  0  0  0  0  0
  -19.6892  -25.6296   21.1263 H   0  0  0  0  0  0
  -19.6691  -27.3197   20.6748 H   0  0  0  0  0  0
  -17.4209  -26.6720   21.4039 H   0  0  0  0  0  0
  -18.0317  -26.0100   22.9042 H   0  0  0  0  0  0
  -19.7940  -30.7338   24.2208 H   0  0  0  0  0  0
  -17.5008  -31.6267   24.5188 H   0  0  0  0  0  0
  -15.5355  -30.2976   23.7682 H   0  0  0  0  0  0
  -15.8695  -28.0836   22.7045 H   0  0  0  0  0  0
  -24.5926  -30.7096   25.7825 H   0  0  0  0  0  0
  -24.8991  -32.2912   26.4901 H   0  0  0  0  0  0
  -25.8117  -30.8926   27.0223 H   0  0  0  0  0  0
  -26.2950  -29.6730   24.1246 H   0  0  0  0  0  0
  -27.4016  -29.7255   25.4771 H   0  0  0  0  0  0
  -27.8849  -30.4234   23.9491 H   0  0  0  0  0  0
  -27.2596  -33.3651   26.2064 H   0  0  0  0  0  0
  -28.3881  -32.6935   25.0384 H   0  0  0  0  0  0
  -28.0678  -31.8512   26.5480 H   0  0  0  0  0  0
  -28.2571  -38.0105   24.7501 H   0  0  0  0  0  0
  -28.1085  -36.2626   24.6285 H   0  0  0  0  0  0
  -27.2282  -37.1432   25.8861 H   0  0  0  0  0  0
  -20.9375  -29.8749   21.6834 H   0  0  0  0  0  0
  -26.0134  -38.2809   24.1441 H   0  0  0  0  0  0
  -27.9347  -17.9046   18.6089 H   0  0  0  0  0  0
  -27.0340  -16.4023   18.6728 H   0  0  0  0  0  0
  -27.5115  -16.1741   21.0934 H   0  0  0  0  0  0
  -27.2932  -17.8954   20.9528 H   0  0  0  0  0  0
  -29.8881  -16.7631   18.1664 H   0  0  0  0  0  0
  -29.0376  -15.2480   18.2329 H   0  0  0  0  0  0
  -29.5649  -16.9551   21.9969 H   0  0  0  0  0  0
  -32.6137  -20.0502   17.9324 H   0  0  0  0  0  0
  -33.3985  -19.4013   19.3783 H   0  0  0  0  0  0
  -33.1427  -21.1328   19.2354 H   0  0  0  0  0  0
  -28.1957  -22.1704   21.7187 H   0  0  0  0  0  0
  -27.6886  -22.0257   20.0710 H   0  0  0  0  0  0
  -29.5422  -23.7337   19.4373 H   0  0  0  0  0  0
  -29.8799  -23.9384   21.1281 H   0  0  0  0  0  0
  -27.5723  -24.8873   21.5020 H   0  0  0  0  0  0
  -27.1811  -24.5595   19.8554 H   0  0  0  0  0  0
  1 25  1  0  0  0
  1 30  2  0  0  0
  1 85  1  0  0  0
  2  3  1  0  0  0
  2 25  1  0  0  0
  2 86  1  0  0  0
  2 87  1  0  0  0
  3  4  1  0  0  0
  3 88  1  0  0  0
  3 89  1  0  0  0
  4  5  1  0  0  0
  4 90  1  0  0  0
  4 91  1  0  0  0
  5  6  1  0  0  0
  5 26  1  0  0  0
  5 92  1  0  0  0
  6 25  1  0  0  0
  6 93  1  0  0  0
  6 94  1  0  0  0
  7  8  2  0  0  0
  7 26  1  0  0  0
  7 29  1  0  0  0
  8  9  1  0  0  0
  8 22  1  0  0  0
  9 10  1  0  0  0
  9 27  2  0  0  0
 10 11  2  0  0  0
 10 15  1  0  0  0
 11 12  1  0  0  0
 11 95  1  0  0  0
 12 13  2  0  0  0
 12 96  1  0  0  0
 13 14  1  0  0  0
 13 31  1  0  0  0
 14 15  2  0  0  0
 14 97  1  0  0  0
 15 98  1  0  0  0
 16 17  2  0  0  0
 16 21  1  0  0  0
 16 31  1  0  0  0
 17 18  1  0  0  0
 17 99  1  0  0  0
 18 19  2  0  0  0
 18100  1  0  0  0
 19 20  1  0  0  0
 19 24  1  0  0  0
 20 21  2  0  0  0
 20101  1  0  0  0
 21 23  1  0  0  0
 22 28  1  0  0  0
 22 32  2  0  0  0
 26 27  1  0  0  0
 28102  1  0  0  0
 28103  1  0  0  0
 29104  1  0  0  0
 29105  1  0  0  0
 33 34  1  0  0  0
 33 66  1  0  0  0
 33 70  2  0  0  0
 34 36  1  0  0  0
 34 59  1  0  0  0
 34106  1  0  0  0
 35 44  2  0  0  0
 35 45  1  0  0  0
 35 68  1  0  0  0
 36 56  1  0  0  0
 36107  1  0  0  0
 37 39  1  0  0  0
 37 47  1  0  0  0
 37 66  1  0  0  0
 37108  1  0  0  0
 38 43  2  0  0  0
 38 46  1  0  0  0
 38 47  1  0  0  0
 39 64  1  0  0  0
 39 67  2  0  0  0
 40 52  1  0  0  0
 40 53  2  0  0  0
 40 58  1  0  0  0
 41109  1  0  0  0
 41110  1  0  0  0
 41111  1  0  0  0
 41 48  1  0  0  0
 42 43  1  0  0  0
 42 66  1  0  0  0
 42112  1  0  0  0
 42113  1  0  0  0
 43 44  1  0  0  0
 44114  1  0  0  0
 45 46  2  0  0  0
 45115  1  0  0  0
 46116  1  0  0  0
 47117  1  0  0  0
 47118  1  0  0  0
 48 56  1  0  0  0
 48 65  1  0  0  0
 48119  1  0  0  0
 49 50  1  0  0  0
 49 53  1  0  0  0
 49 64  1  0  0  0
 49120  1  0  0  0
 50 51  1  0  0  0
 50121  1  0  0  0
 50122  1  0  0  0
 51 52  1  0  0  0
 51123  1  0  0  0
 51124  1  0  0  0
 52125  1  0  0  0
 52126  1  0  0  0
 53 54  1  0  0  0
 54 55  2  0  0  0
 54127  1  0  0  0
 55 57  1  0  0  0
 55128  1  0  0  0
 56 69  2  0  0  0
 57 58  2  0  0  0
 57129  1  0  0  0
 58130  1  0  0  0
 59 60  1  0  0  0
 59 61  1  0  0  0
 59 62  1  0  0  0
 60131  1  0  0  0
 60132  1  0  0  0
 60133  1  0  0  0
 61134  1  0  0  0
 61135  1  0  0  0
 61136  1  0  0  0
 62137  1  0  0  0
 62138  1  0  0  0
 62139  1  0  0  0
 63 65  1  0  0  0
 63140  1  0  0  0
 63141  1  0  0  0
 63142  1  0  0  0
 64143  1  0  0  0
 65144  1  0  0  0
 68 81  1  0  0  0
 71 82  1  0  0  0
 71 83  2  0  0  0
 71 77  1  0  0  0
 72 78  1  0  0  0
 72 82  2  0  0  0
 72 84  1  0  0  0
 73 79  1  0  0  0
 73 83  1  0  0  0
 73 84  2  0  0  0
 74 75  1  0  0  0
 74 76  1  0  0  0
 74145  1  0  0  0
 74146  1  0  0  0
 75 77  1  0  0  0
 75147  1  0  0  0
 75148  1  0  0  0
 76 85  1  0  0  0
 76149  1  0  0  0
 76150  1  0  0  0
 77 85  1  0  0  0
 77151  1  0  0  0
 78152  1  0  0  0
 78153  1  0  0  0
 78154  1  0  0  0
 79 80  1  0  0  0
 79155  1  0  0  0
 79156  1  0  0  0
 80 81  1  0  0  0
 80157  1  0  0  0
 80158  1  0  0  0
 81159  1  0  0  0
 81160  1  0  0  0
M  ISO  4   1 100  68 101  81 101  85 100
M  END
> <chiral flag>
0

> <version>
0

> <s_m_source_file>
/data/baiqing/PycharmProjects/Reinvent-master-3.2/result/LINK_invent/BTK/process_docking_weight1_custom_sum_contain_oxygen_bond_distance_aromatic_linkinvent_7_9_3/rearranged_h_0196.sdf

> <i_m_source_file_index>
13

> <r_mmod_Potential_Energy-OPLS-2005>
-268.357543945312

> <r_mmod_Stretch_Energy-OPLS-2005>
114.916496276855

> <r_mmod_Bend_Energy-OPLS-2005>
208.95817565918

> <r_mmod_Torsional_Energy-OPLS-2005>
382.766448974609

> <r_mmod_Improper_Torsional_Energy-OPLS-2005>
13.5131931304932

> <r_mmod_Van_der_Waal_Energy-OPLS-2005>
160.92692565918

> <r_mmod_Electrostatic_Energy-OPLS-2005>
-1040.04028320312

> <r_mmod_Solvation_Energy-OPLS-2005>
-225.66291809082

> <b_mmod_Minimization_Converged-OPLS-2005>
0

> <r_mmod_RMS_Derivative-OPLS-2005>
4.10487747192383

$$$$
13
                    3D
 Structure written by MMmdl.
170180  0  0  1  0            999 V2000
  -30.7345  -14.5262   20.5454 C   0  0  0  0  0  0
  -30.4140  -12.3427   19.4235 C   0  0  0  0  0  0
  -29.4831  -12.4854   18.2037 C   0  0  0  0  0  0
  -28.0107  -12.3242   18.6257 C   0  0  0  0  0  0
  -27.6445  -13.1937   19.8551 C   0  0  2  0  0  0
  -28.6983  -13.0659   20.9814 C   0  0  0  0  0  0
  -25.2551  -13.8110   20.5681 C   0  0  0  0  0  0
  -24.1806  -13.0409   20.9210 C   0  0  0  0  0  0
  -24.6354  -11.6871   20.8771 C   0  0  0  0  0  0
  -23.9024  -10.4276   21.0430 C   0  0  0  0  0  0
  -24.3587   -9.4193   21.9200 C   0  0  0  0  0  0
  -23.6275   -8.2223   22.0756 C   0  0  0  0  0  0
  -22.4259   -8.0267   21.3546 C   0  0  0  0  0  0
  -21.9890   -9.0236   20.4646 C   0  0  0  0  0  0
  -22.7204  -10.2122   20.3066 C   0  0  0  0  0  0
  -21.6845   -6.0726   22.5279 C   0  0  0  0  0  0
  -21.4005   -6.5631   23.8209 C   0  0  0  0  0  0
  -21.3653   -5.6789   24.9170 C   0  0  0  0  0  0
  -21.6045   -4.3050   24.7228 C   0  0  0  0  0  0
  -21.8821   -3.8140   23.4347 C   0  0  0  0  0  0
  -21.9194   -4.6957   22.3401 C   0  0  0  0  0  0
  -22.7839  -13.5231   21.1859 C   0  0  0  0  0  0
  -22.1664   -4.2142   21.0980 F   0  0  0  0  0  0
  -21.5631   -3.4535   25.7738 F   0  0  0  0  0  0
  -30.0206  -13.3674   20.4082 N   0  0  0  0  0  0
  -26.2944  -12.9237   20.3331 N   0  0  0  0  0  0
  -25.9273  -11.6423   20.5797 N   0  0  0  0  0  0
  -22.0466  -12.8234   22.0408 N   0  0  0  0  0  0
  -25.4287  -15.1823   20.4048 N   0  0  0  0  0  0
  -31.8849  -14.6340   20.1137 O   0  0  0  0  0  0
  -21.6630   -6.8863   21.4235 O   0  0  0  0  0  0
  -22.3548  -14.5545   20.6706 O   0  0  0  0  0  0
  -24.6173  -31.8665   23.2083 C   0  0  0  0  0  0
  -25.9059  -32.4815   23.8384 C   0  0  1  0  0  0
  -27.2331  -27.4016   20.0970 C   0  0  0  0  0  0
  -25.5910  -33.8616   24.2306 N   0  0  0  0  0  0
  -23.4068  -30.4916   21.5487 C   0  0  2  0  0  0
  -24.8522  -28.9582   20.1118 C   0  0  0  0  0  0
  -22.7431  -29.4658   22.4964 C   0  0  0  0  0  0
  -18.0280  -28.1385   22.8512 C   0  0  0  0  0  0
  -24.1487  -36.7304   23.2637 C   0  0  0  0  0  0
  -25.9406  -30.8227   21.3654 C   0  0  0  0  0  0
  -26.0169  -29.4567   20.7092 C   0  0  0  0  0  0
  -27.2083  -28.6878   20.6960 C   0  0  0  0  0  0
  -26.0425  -26.9327   19.4872 C   0  0  0  0  0  0
  -24.8630  -27.6971   19.4976 C   0  0  0  0  0  0
  -23.6164  -29.8280   20.1631 C   0  0  0  0  0  0
  -25.4108  -36.3101   24.0335 C   0  0  1  0  0  0
  -20.5879  -28.3668   23.1308 C   0  0  2  0  0  0
  -20.6767  -26.9401   22.5414 C   0  0  0  0  0  0
  -19.5743  -26.6396   21.5220 C   0  0  0  0  0  0
  -18.1921  -26.7936   22.1633 C   0  0  0  0  0  0
  -19.1533  -28.8843   23.2904 C   0  0  0  0  0  0
  -18.9462  -30.1452   23.8914 C   0  0  0  0  0  0
  -17.6466  -30.6593   24.0575 C   0  0  0  0  0  0
  -25.9051  -34.9475   23.5116 C   0  0  0  0  0  0
  -16.5355  -29.9102   23.6338 C   0  0  0  0  0  0
  -16.7267  -28.6520   23.0360 C   0  0  0  0  0  0
  -26.4476  -31.6606   25.0722 C   0  0  0  0  0  0
  -25.3737  -31.3733   26.1473 C   0  0  0  0  0  0
  -27.0287  -30.3045   24.6102 C   0  0  0  0  0  0
  -27.6033  -32.4334   25.7486 C   0  0  0  0  0  0
  -27.5578  -37.1803   24.8470 C   0  0  0  0  0  0
  -21.4149  -29.3041   22.3711 N   0  0  0  0  0  0
  -26.4286  -37.3793   23.9422 N   0  0  0  0  0  0
  -24.6738  -31.0749   22.0992 N   0  0  0  0  0  0
  -23.4199  -28.8189   23.2997 O   0  0  0  0  0  0
  -28.3911  -26.6324   20.1356 O   0  0  0  0  0  0
  -26.5610  -34.8921   22.4676 O   0  0  0  0  0  0
  -23.5359  -32.1424   23.7470 O   0  0  0  0  0  0
  -31.5794  -24.0682   20.8155 C   0  0  0  0  0  0
  -30.3377  -22.2504   20.4864 C   0  0  0  0  0  0
  -29.4410  -24.3024   20.2635 C   0  0  0  0  0  0
  -33.6955  -24.2764   22.3528 C   0  0  0  0  0  0
  -33.0710  -25.6423   22.2787 C   0  0  0  0  0  0
  -31.0621  -17.8434   21.9665 C   0  0  0  0  0  0
  -29.1602  -17.8532   20.4021 C   0  0  0  0  0  0
  -30.8771  -16.3255   22.2250 C   0  0  0  0  0  0
  -29.0027  -16.3139   20.5603 C   0  0  0  0  0  0
  -32.9129  -24.6808   21.1194 C   0  0  0  0  0  0
  -29.7129  -18.5331   21.6680 C   0  0  0  0  0  0
  -30.2814  -20.6137   22.9117 C   0  0  0  0  0  0
  -30.2491  -20.7098   20.4142 C   0  0  0  0  0  0
  -28.2411  -25.2037   19.9076 C   0  0  0  0  0  0
  -31.5313  -22.7425   20.7973 N   0  0  0  0  0  0
  -30.5888  -24.9073   20.5501 N   0  0  0  0  0  0
  -29.2424  -22.9741   20.2353 N   0  0  0  0  0  0
  -30.1469  -15.5902   21.1684 N   0  0  0  0  0  0
  -29.7340  -20.0449   21.6510 N   0  3  1  0  0  0
  -31.4554  -12.4331   19.1100 H   0  0  0  0  0  0
  -30.3230  -11.3475   19.8613 H   0  0  0  0  0  0
  -29.7351  -11.7379   17.4500 H   0  0  0  0  0  0
  -29.6307  -13.4585   17.7315 H   0  0  0  0  0  0
  -27.8443  -11.2709   18.8546 H   0  0  0  0  0  0
  -27.3511  -12.5584   17.7894 H   0  0  0  0  0  0
  -27.6382  -14.2125   19.4877 H   0  0  0  0  0  0
  -28.6965  -12.0557   21.3927 H   0  0  0  0  0  0
  -28.4537  -13.7261   21.8143 H   0  0  0  0  0  0
  -25.2728   -9.5671   22.4777 H   0  0  0  0  0  0
  -23.9983   -7.4611   22.7470 H   0  0  0  0  0  0
  -21.0826   -8.8746   19.8953 H   0  0  0  0  0  0
  -22.3662  -10.9660   19.6179 H   0  0  0  0  0  0
  -21.1989   -7.6141   23.9707 H   0  0  0  0  0  0
  -21.1474   -6.0521   25.9075 H   0  0  0  0  0  0
  -22.0609   -2.7605   23.2847 H   0  0  0  0  0  0
  -22.4064  -11.9886   22.4792 H   0  0  0  0  0  0
  -21.1089  -13.1278   22.2607 H   0  0  0  0  0  0
  -24.6613  -15.8371   20.5058 H   0  0  0  0  0  0
  -26.2759  -15.6137   20.0601 H   0  0  0  0  0  0
  -26.7125  -32.5509   23.1137 H   0  0  0  0  0  0
  -25.0078  -33.9790   25.0460 H   0  0  0  0  0  0
  -22.6970  -31.3094   21.4089 H   0  0  0  0  0  0
  -23.3746  -35.9643   23.3323 H   0  0  0  0  0  0
  -24.3594  -36.8905   22.2052 H   0  0  0  0  0  0
  -23.7231  -37.6504   23.6649 H   0  0  0  0  0  0
  -26.0600  -31.5879   20.5971 H   0  0  0  0  0  0
  -26.8255  -30.8719   21.9881 H   0  0  0  0  0  0
  -28.1038  -29.0702   21.1664 H   0  0  0  0  0  0
  -25.9913  -25.9715   18.9978 H   0  0  0  0  0  0
  -23.9688  -27.3086   19.0292 H   0  0  0  0  0  0
  -23.7264  -30.6041   19.4051 H   0  0  0  0  0  0
  -22.7391  -29.2507   19.8651 H   0  0  0  0  0  0
  -25.1278  -36.1956   25.0826 H   0  0  0  0  0  0
  -20.9976  -28.3224   24.1428 H   0  0  0  0  0  0
  -20.5661  -26.2277   23.3604 H   0  0  0  0  0  0
  -21.6632  -26.7441   22.1200 H   0  0  0  0  0  0
  -19.6902  -25.6307   21.1246 H   0  0  0  0  0  0
  -19.6684  -27.3211   20.6754 H   0  0  0  0  0  0
  -17.4191  -26.6705   21.4033 H   0  0  0  0  0  0
  -18.0305  -26.0058   22.9008 H   0  0  0  0  0  0
  -19.7936  -30.7274   24.2274 H   0  0  0  0  0  0
  -17.5025  -31.6274   24.5174 H   0  0  0  0  0  0
  -15.5356  -30.3019   23.7651 H   0  0  0  0  0  0
  -15.8668  -28.0855   22.7059 H   0  0  0  0  0  0
  -24.5910  -30.7073   25.7831 H   0  0  0  0  0  0
  -24.8922  -32.2896   26.4901 H   0  0  0  0  0  0
  -25.8090  -30.8930   27.0250 H   0  0  0  0  0  0
  -26.2827  -29.6820   24.1146 H   0  0  0  0  0  0
  -27.4038  -29.7270   25.4559 H   0  0  0  0  0  0
  -27.8685  -30.4360   23.9273 H   0  0  0  0  0  0
  -27.2641  -33.3636   26.2061 H   0  0  0  0  0  0
  -28.3844  -32.6900   25.0315 H   0  0  0  0  0  0
  -28.0698  -31.8463   26.5408 H   0  0  0  0  0  0
  -28.2589  -38.0104   24.7512 H   0  0  0  0  0  0
  -28.1067  -36.2630   24.6283 H   0  0  0  0  0  0
  -27.2310  -37.1439   25.8877 H   0  0  0  0  0  0
  -20.9292  -29.8797   21.6974 H   0  0  0  0  0  0
  -26.0168  -38.2868   24.1424 H   0  0  0  0  0  0
  -33.2406  -23.5499   23.0223 H   0  0  0  0  0  0
  -34.7762  -24.2053   22.2546 H   0  0  0  0  0  0
  -33.7272  -26.4964   22.1296 H   0  0  0  0  0  0
  -32.1933  -25.8276   22.8949 H   0  0  0  0  0  0
  -31.7561  -17.9958   21.1381 H   0  0  0  0  0  0
  -31.5419  -18.2714   22.8461 H   0  0  0  0  0  0
  -28.1931  -18.2822   20.1337 H   0  0  0  0  0  0
  -29.8241  -18.0455   19.5575 H   0  0  0  0  0  0
  -30.3239  -16.1843   23.1542 H   0  0  0  0  0  0
  -31.8571  -15.8793   22.4080 H   0  0  0  0  0  0
  -28.8167  -15.9318   19.5571 H   0  0  0  0  0  0
  -28.1168  -16.0984   21.1581 H   0  0  0  0  0  0
  -33.4710  -24.8798   20.2072 H   0  0  0  0  0  0
  -29.0333  -18.2745   22.4821 H   0  0  0  0  0  0
  -29.9229  -20.0625   23.7817 H   0  0  0  0  0  0
  -29.9718  -21.6485   23.0572 H   0  0  0  0  0  0
  -31.3719  -20.5874   22.9240 H   0  0  0  0  0  0
  -31.2380  -20.3132   20.1798 H   0  0  0  0  0  0
  -29.6103  -20.4528   19.5690 H   0  0  0  0  0  0
  -27.3922  -24.8281   20.4818 H   0  0  0  0  0  0
  -28.0242  -25.0370   18.8521 H   0  0  0  0  0  0
  -28.7651  -20.3297   21.6613 H   0  0  0  0  0  0
  1 25  1  0  0  0
  1 30  2  0  0  0
  1 88  1  0  0  0
  2  3  1  0  0  0
  2 25  1  0  0  0
  2 90  1  0  0  0
  2 91  1  0  0  0
  3  4  1  0  0  0
  3 92  1  0  0  0
  3 93  1  0  0  0
  4  5  1  0  0  0
  4 94  1  0  0  0
  4 95  1  0  0  0
  5  6  1  0  0  0
  5 26  1  0  0  0
  5 96  1  0  0  0
  6 25  1  0  0  0
  6 97  1  0  0  0
  6 98  1  0  0  0
  7  8  2  0  0  0
  7 26  1  0  0  0
  7 29  1  0  0  0
  8  9  1  0  0  0
  8 22  1  0  0  0
  9 10  1  0  0  0
  9 27  2  0  0  0
 10 11  2  0  0  0
 10 15  1  0  0  0
 11 12  1  0  0  0
 11 99  1  0  0  0
 12 13  2  0  0  0
 12100  1  0  0  0
 13 14  1  0  0  0
 13 31  1  0  0  0
 14 15  2  0  0  0
 14101  1  0  0  0
 15102  1  0  0  0
 16 17  2  0  0  0
 16 21  1  0  0  0
 16 31  1  0  0  0
 17 18  1  0  0  0
 17103  1  0  0  0
 18 19  2  0  0  0
 18104  1  0  0  0
 19 20  1  0  0  0
 19 24  1  0  0  0
 20 21  2  0  0  0
 20105  1  0  0  0
 21 23  1  0  0  0
 22 28  1  0  0  0
 22 32  2  0  0  0
 26 27  1  0  0  0
 28106  1  0  0  0
 28107  1  0  0  0
 29108  1  0  0  0
 29109  1  0  0  0
 33 34  1  0  0  0
 33 66  1  0  0  0
 33 70  2  0  0  0
 34 36  1  0  0  0
 34 59  1  0  0  0
 34110  1  0  0  0
 35 44  2  0  0  0
 35 45  1  0  0  0
 35 68  1  0  0  0
 36 56  1  0  0  0
 36111  1  0  0  0
 37 39  1  0  0  0
 37 47  1  0  0  0
 37 66  1  0  0  0
 37112  1  0  0  0
 38 43  2  0  0  0
 38 46  1  0  0  0
 38 47  1  0  0  0
 39 64  1  0  0  0
 39 67  2  0  0  0
 40 52  1  0  0  0
 40 53  2  0  0  0
 40 58  1  0  0  0
 41113  1  0  0  0
 41114  1  0  0  0
 41115  1  0  0  0
 41 48  1  0  0  0
 42 43  1  0  0  0
 42 66  1  0  0  0
 42116  1  0  0  0
 42117  1  0  0  0
 43 44  1  0  0  0
 44118  1  0  0  0
 45 46  2  0  0  0
 45119  1  0  0  0
 46120  1  0  0  0
 47121  1  0  0  0
 47122  1  0  0  0
 48 56  1  0  0  0
 48 65  1  0  0  0
 48123  1  0  0  0
 49 50  1  0  0  0
 49 53  1  0  0  0
 49 64  1  0  0  0
 49124  1  0  0  0
 50 51  1  0  0  0
 50125  1  0  0  0
 50126  1  0  0  0
 51 52  1  0  0  0
 51127  1  0  0  0
 51128  1  0  0  0
 52129  1  0  0  0
 52130  1  0  0  0
 53 54  1  0  0  0
 54 55  2  0  0  0
 54131  1  0  0  0
 55 57  1  0  0  0
 55132  1  0  0  0
 56 69  2  0  0  0
 57 58  2  0  0  0
 57133  1  0  0  0
 58134  1  0  0  0
 59 60  1  0  0  0
 59 61  1  0  0  0
 59 62  1  0  0  0
 60135  1  0  0  0
 60136  1  0  0  0
 60137  1  0  0  0
 61138  1  0  0  0
 61139  1  0  0  0
 61140  1  0  0  0
 62141  1  0  0  0
 62142  1  0  0  0
 62143  1  0  0  0
 63 65  1  0  0  0
 63144  1  0  0  0
 63145  1  0  0  0
 63146  1  0  0  0
 64147  1  0  0  0
 65148  1  0  0  0
 68 84  1  0  0  0
 71 85  2  0  0  0
 71 86  1  0  0  0
 71 80  1  0  0  0
 72 83  1  0  0  0
 72 85  1  0  0  0
 72 87  2  0  0  0
 73 84  1  0  0  0
 73 86  2  0  0  0
 73 87  1  0  0  0
 74 75  1  0  0  0
 74 80  1  0  0  0
 74149  1  0  0  0
 74150  1  0  0  0
 75 80  1  0  0  0
 75151  1  0  0  0
 75152  1  0  0  0
 76 78  1  0  0  0
 76153  1  0  0  0
 76154  1  0  0  0
 76 81  1  0  0  0
 77 79  1  0  0  0
 77 81  1  0  0  0
 77155  1  0  0  0
 77156  1  0  0  0
 78 88  1  0  0  0
 78157  1  0  0  0
 78158  1  0  0  0
 79 88  1  0  0  0
 79159  1  0  0  0
 79160  1  0  0  0
 80161  1  0  0  0
 81 89  1  0  0  0
 81162  1  0  0  0
 82163  1  0  0  0
 82164  1  0  0  0
 82165  1  0  0  0
 82 89  1  0  0  0
 83 89  1  0  0  0
 83166  1  0  0  0
 83167  1  0  0  0
 84168  1  0  0  0
 84169  1  0  0  0
 89170  1  0  0  0
M  CHG  1  89   1
M  ISO  4   1 100  68 101  84 101  88 100
M  END
> <chiral flag>
0

> <version>
0

> <s_m_source_file>
/data/baiqing/PycharmProjects/Reinvent-master-3.2/result/LINK_invent/BTK/process_docking_weight1_custom_sum_contain_oxygen_bond_distance_aromatic_linkinvent_7_9_3/rearranged_h_0196.sdf

> <i_m_source_file_index>
14

> <r_mmod_Potential_Energy-OPLS-2005>
-611.29248046875

> <r_mmod_Stretch_Energy-OPLS-2005>
49.9500045776367

> <r_mmod_Bend_Energy-OPLS-2005>
123.660827636719

> <r_mmod_Torsional_Energy-OPLS-2005>
338.229766845703

> <r_mmod_Improper_Torsional_Energy-OPLS-2005>
2.69425177574158

> <r_mmod_Van_der_Waal_Energy-OPLS-2005>
179.262542724609

> <r_mmod_Electrostatic_Energy-OPLS-2005>
-878.160583496094

> <r_mmod_Solvation_Energy-OPLS-2005>
-450.270477294922

> <b_mmod_Minimization_Converged-OPLS-2005>
0

> <r_mmod_RMS_Derivative-OPLS-2005>
1.61350560188293

$$$$
14
                    3D
 Structure written by MMmdl.
170180  0  0  1  0            999 V2000
  -30.6689  -14.4090   20.6637 C   0  0  0  0  0  0
  -30.4216  -12.2934   19.4155 C   0  0  0  0  0  0
  -29.4957  -12.5277   18.2049 C   0  0  0  0  0  0
  -28.0122  -12.3895   18.6095 C   0  0  0  0  0  0
  -27.6547  -13.1995   19.8820 C   0  0  2  0  0  0
  -28.6770  -12.9074   20.9955 C   0  0  0  0  0  0
  -25.2486  -13.8110   20.5735 C   0  0  0  0  0  0
  -24.1762  -13.0404   20.9233 C   0  0  0  0  0  0
  -24.6330  -11.6867   20.8798 C   0  0  0  0  0  0
  -23.9014  -10.4252   21.0458 C   0  0  0  0  0  0
  -24.3561   -9.4155   21.9226 C   0  0  0  0  0  0
  -23.6245   -8.2191   22.0780 C   0  0  0  0  0  0
  -22.4228   -8.0234   21.3564 C   0  0  0  0  0  0
  -21.9876   -9.0215   20.4657 C   0  0  0  0  0  0
  -22.7206  -10.2085   20.3087 C   0  0  0  0  0  0
  -21.6819   -6.0674   22.5259 C   0  0  0  0  0  0
  -21.3949   -6.5589   23.8176 C   0  0  0  0  0  0
  -21.3702   -5.6772   24.9169 C   0  0  0  0  0  0
  -21.6080   -4.3039   24.7236 C   0  0  0  0  0  0
  -21.8813   -3.8101   23.4368 C   0  0  0  0  0  0
  -21.9179   -4.6906   22.3396 C   0  0  0  0  0  0
  -22.7778  -13.5206   21.1897 C   0  0  0  0  0  0
  -22.1656   -4.2092   21.0986 F   0  0  0  0  0  0
  -21.5715   -3.4531   25.7762 F   0  0  0  0  0  0
  -30.0205  -13.2284   20.4776 N   0  0  0  0  0  0
  -26.2929  -12.9298   20.3314 N   0  0  0  0  0  0
  -25.9244  -11.6460   20.5759 N   0  0  0  0  0  0
  -22.0432  -12.8172   22.0415 N   0  0  0  0  0  0
  -25.4177  -15.1833   20.4260 N   0  0  0  0  0  0
  -31.7257  -14.6955   20.0854 O   0  0  0  0  0  0
  -21.6627   -6.8813   21.4217 O   0  0  0  0  0  0
  -22.3466  -14.5551   20.6784 O   0  0  0  0  0  0
  -24.6146  -31.8642   23.2116 C   0  0  0  0  0  0
  -25.9046  -32.4787   23.8397 C   0  0  1  0  0  0
  -27.2231  -27.4567   20.0840 C   0  0  0  0  0  0
  -25.5882  -33.8590   24.2327 N   0  0  0  0  0  0
  -23.3985  -30.4943   21.5481 C   0  0  2  0  0  0
  -24.8474  -28.9732   20.0968 C   0  0  0  0  0  0
  -22.7379  -29.4655   22.4902 C   0  0  0  0  0  0
  -18.0268  -28.1335   22.8584 C   0  0  0  0  0  0
  -24.1492  -36.7358   23.2629 C   0  0  0  0  0  0
  -25.9280  -30.8469   21.3539 C   0  0  0  0  0  0
  -26.0070  -29.4874   20.6892 C   0  0  0  0  0  0
  -27.2038  -28.7396   20.6726 C   0  0  0  0  0  0
  -26.0561  -26.9655   19.4575 C   0  0  0  0  0  0
  -24.8663  -27.7148   19.4724 C   0  0  0  0  0  0
  -23.6050  -29.8330   20.1571 C   0  0  0  0  0  0
  -25.4086  -36.3114   24.0346 C   0  0  1  0  0  0
  -20.5848  -28.3706   23.1257 C   0  0  2  0  0  0
  -20.6704  -26.9432   22.5398 C   0  0  0  0  0  0
  -19.5624  -26.6320   21.5288 C   0  0  0  0  0  0
  -18.1930  -26.7782   22.1893 C   0  0  0  0  0  0
  -19.1514  -28.8903   23.2845 C   0  0  0  0  0  0
  -18.9406  -30.1600   23.8659 C   0  0  0  0  0  0
  -17.6395  -30.6707   24.0309 C   0  0  0  0  0  0
  -25.9016  -34.9456   23.5149 C   0  0  0  0  0  0
  -16.5286  -29.9090   23.6286 C   0  0  0  0  0  0
  -16.7247  -28.6446   23.0448 C   0  0  0  0  0  0
  -26.4517  -31.6558   25.0695 C   0  0  0  0  0  0
  -25.3828  -31.3668   26.1474 C   0  0  0  0  0  0
  -27.0288  -30.2969   24.6046 C   0  0  0  0  0  0
  -27.6090  -32.4290   25.7456 C   0  0  0  0  0  0
  -27.5588  -37.1790   24.8458 C   0  0  0  0  0  0
  -21.4112  -29.3038   22.3653 N   0  0  0  0  0  0
  -26.4274  -37.3785   23.9450 N   0  0  0  0  0  0
  -24.6671  -31.0762   22.1017 N   0  0  0  0  0  0
  -23.4167  -28.8196   23.2927 O   0  0  0  0  0  0
  -28.3479  -26.6738   20.2150 O   0  0  0  0  0  0
  -26.5557  -34.8917   22.4705 O   0  0  0  0  0  0
  -23.5338  -32.1339   23.7547 O   0  0  0  0  0  0
  -27.5705  -20.4929   23.6262 C   0  0  0  0  0  0
  -26.8412  -21.5859   23.1014 C   0  0  0  0  0  0
  -25.6437  -21.2679   22.4226 C   0  0  0  0  0  0
  -27.0583  -19.1911   23.4095 C   0  0  0  0  0  0
  -27.3308  -23.0450   23.2208 C   0  0  0  0  0  0
  -24.8577  -22.3569   21.7389 C   0  0  0  0  0  0
  -28.4241  -17.2858   21.5507 C   0  0  0  0  0  0
  -28.9986  -15.9914   23.5856 C   0  0  0  0  0  0
  -29.6188  -16.6248   20.8127 C   0  0  0  0  0  0
  -30.1866  -15.3419   22.8521 C   0  0  0  0  0  0
  -25.8354  -23.4141   21.2256 C   0  0  0  0  0  0
  -28.7210  -17.4094   23.0609 C   0  0  0  0  0  0
  -27.2958  -25.2954   22.0320 C   0  0  0  0  0  0
  -28.0994  -25.3318   20.6883 C   0  0  0  0  0  0
  -25.1893  -19.9984   22.2688 N   0  0  0  0  0  0
  -25.8937  -18.9725   22.7529 N   0  0  0  0  0  0
  -29.9821  -15.3196   21.3961 N   0  0  0  0  0  0
  -27.6954  -18.0502   23.8928 N   0  0  0  0  0  0
  -26.5875  -24.0194   22.3574 N   0  3  1  0  0  0
  -31.4663  -12.4150   19.1248 H   0  0  0  0  0  0
  -30.3374  -11.2624   19.7646 H   0  0  0  0  0  0
  -29.7359  -11.8202   17.4112 H   0  0  0  0  0  0
  -29.6800  -13.5217   17.7936 H   0  0  0  0  0  0
  -27.8072  -11.3328   18.7748 H   0  0  0  0  0  0
  -27.3735  -12.6957   17.7817 H   0  0  0  0  0  0
  -27.7183  -14.2612   19.6375 H   0  0  0  0  0  0
  -28.6389  -11.8546   21.2757 H   0  0  0  0  0  0
  -28.4059  -13.4495   21.9011 H   0  0  0  0  0  0
  -25.2733   -9.5601   22.4770 H   0  0  0  0  0  0
  -23.9998   -7.4561   22.7463 H   0  0  0  0  0  0
  -21.0844   -8.8716   19.8907 H   0  0  0  0  0  0
  -22.3740  -10.9622   19.6159 H   0  0  0  0  0  0
  -21.1839   -7.6084   23.9631 H   0  0  0  0  0  0
  -21.1597   -6.0540   25.9073 H   0  0  0  0  0  0
  -22.0565   -2.7563   23.2906 H   0  0  0  0  0  0
  -22.4108  -11.9855   22.4805 H   0  0  0  0  0  0
  -21.1010  -13.1088   22.2611 H   0  0  0  0  0  0
  -24.6768  -15.8460   20.6294 H   0  0  0  0  0  0
  -26.2916  -15.6209   20.1687 H   0  0  0  0  0  0
  -26.7109  -32.5521   23.1150 H   0  0  0  0  0  0
  -25.0055  -33.9745   25.0487 H   0  0  0  0  0  0
  -22.6890  -31.3128   21.4143 H   0  0  0  0  0  0
  -23.3705  -35.9729   23.3271 H   0  0  0  0  0  0
  -24.3611  -36.8966   22.2047 H   0  0  0  0  0  0
  -23.7260  -37.6570   23.6656 H   0  0  0  0  0  0
  -26.0175  -31.6219   20.5909 H   0  0  0  0  0  0
  -26.8265  -30.9073   21.9572 H   0  0  0  0  0  0
  -28.0999  -29.1238   21.1406 H   0  0  0  0  0  0
  -26.0469  -26.0047   18.9610 H   0  0  0  0  0  0
  -23.9768  -27.3172   19.0031 H   0  0  0  0  0  0
  -23.7111  -30.6161   19.4043 H   0  0  0  0  0  0
  -22.7311  -29.2506   19.8605 H   0  0  0  0  0  0
  -25.1238  -36.1956   25.0815 H   0  0  0  0  0  0
  -20.9890  -28.3332   24.1402 H   0  0  0  0  0  0
  -21.6543  -26.7307   22.1187 H   0  0  0  0  0  0
  -20.5599  -26.2429   23.3692 H   0  0  0  0  0  0
  -19.6884  -25.6226   21.1338 H   0  0  0  0  0  0
  -19.6350  -27.3126   20.6794 H   0  0  0  0  0  0
  -17.4041  -26.6292   21.4537 H   0  0  0  0  0  0
  -18.0649  -26.0049   22.9465 H   0  0  0  0  0  0
  -19.7896  -30.7538   24.1808 H   0  0  0  0  0  0
  -17.4894  -31.6508   24.4642 H   0  0  0  0  0  0
  -15.5259  -30.2950   23.7607 H   0  0  0  0  0  0
  -15.8680  -28.0655   22.7298 H   0  0  0  0  0  0
  -24.6014  -30.6970   25.7896 H   0  0  0  0  0  0
  -24.9021  -32.2824   26.4944 H   0  0  0  0  0  0
  -25.8255  -30.8875   27.0201 H   0  0  0  0  0  0
  -26.2783  -29.6691   24.1219 H   0  0  0  0  0  0
  -27.4152  -29.7243   25.4477 H   0  0  0  0  0  0
  -27.8617  -30.4245   23.9113 H   0  0  0  0  0  0
  -27.2709  -33.3538   26.2143 H   0  0  0  0  0  0
  -28.3889  -32.6888   25.0299 H   0  0  0  0  0  0
  -28.0795  -31.8319   26.5270 H   0  0  0  0  0  0
  -28.2553  -38.0127   24.7485 H   0  0  0  0  0  0
  -28.1103  -36.2631   24.6273 H   0  0  0  0  0  0
  -27.2319  -37.1455   25.8856 H   0  0  0  0  0  0
  -20.9277  -29.8737   21.6862 H   0  0  0  0  0  0
  -26.0150  -38.2846   24.1452 H   0  0  0  0  0  0
  -28.4999  -20.6532   24.1556 H   0  0  0  0  0  0
  -28.3978  -23.0920   23.0048 H   0  0  0  0  0  0
  -27.2262  -23.3651   24.2635 H   0  0  0  0  0  0
  -24.1495  -22.7965   22.4425 H   0  0  0  0  0  0
  -24.2737  -21.9374   20.9193 H   0  0  0  0  0  0
  -27.5103  -16.7118   21.3916 H   0  0  0  0  0  0
  -28.2474  -18.2662   21.1112 H   0  0  0  0  0  0
  -29.2210  -16.0142   24.6500 H   0  0  0  0  0  0
  -28.1002  -15.3802   23.4683 H   0  0  0  0  0  0
  -30.4832  -17.2898   20.8454 H   0  0  0  0  0  0
  -29.3624  -16.4978   19.7558 H   0  0  0  0  0  0
  -30.3282  -14.3273   23.2294 H   0  0  0  0  0  0
  -31.1072  -15.8810   23.0821 H   0  0  0  0  0  0
  -25.2933  -24.1792   20.6699 H   0  0  0  0  0  0
  -26.5284  -22.9314   20.5360 H   0  0  0  0  0  0
  -29.6304  -18.0014   23.1772 H   0  0  0  0  0  0
  -26.4999  -26.0362   22.0117 H   0  0  0  0  0  0
  -27.9305  -25.6164   22.8607 H   0  0  0  0  0  0
  -27.6036  -24.7774   19.8941 H   0  0  0  0  0  0
  -29.0548  -24.8256   20.8309 H   0  0  0  0  0  0
  -28.1128  -18.2747   24.7902 H   0  0  0  0  0  0
  -25.8476  -24.3379   22.9672 H   0  0  0  0  0  0
  1 25  1  0  0  0
  1 30  2  0  0  0
  1 87  1  0  0  0
  2  3  1  0  0  0
  2 25  1  0  0  0
  2 90  1  0  0  0
  2 91  1  0  0  0
  3  4  1  0  0  0
  3 92  1  0  0  0
  3 93  1  0  0  0
  4  5  1  0  0  0
  4 94  1  0  0  0
  4 95  1  0  0  0
  5  6  1  0  0  0
  5 26  1  0  0  0
  5 96  1  0  0  0
  6 25  1  0  0  0
  6 97  1  0  0  0
  6 98  1  0  0  0
  7  8  2  0  0  0
  7 26  1  0  0  0
  7 29  1  0  0  0
  8  9  1  0  0  0
  8 22  1  0  0  0
  9 10  1  0  0  0
  9 27  2  0  0  0
 10 11  2  0  0  0
 10 15  1  0  0  0
 11 12  1  0  0  0
 11 99  1  0  0  0
 12 13  2  0  0  0
 12100  1  0  0  0
 13 14  1  0  0  0
 13 31  1  0  0  0
 14 15  2  0  0  0
 14101  1  0  0  0
 15102  1  0  0  0
 16 17  2  0  0  0
 16 21  1  0  0  0
 16 31  1  0  0  0
 17 18  1  0  0  0
 17103  1  0  0  0
 18 19  2  0  0  0
 18104  1  0  0  0
 19 20  1  0  0  0
 19 24  1  0  0  0
 20 21  2  0  0  0
 20105  1  0  0  0
 21 23  1  0  0  0
 22 28  1  0  0  0
 22 32  2  0  0  0
 26 27  1  0  0  0
 28106  1  0  0  0
 28107  1  0  0  0
 29108  1  0  0  0
 29109  1  0  0  0
 33 34  1  0  0  0
 33 66  1  0  0  0
 33 70  2  0  0  0
 34 36  1  0  0  0
 34 59  1  0  0  0
 34110  1  0  0  0
 35 44  2  0  0  0
 35 45  1  0  0  0
 35 68  1  0  0  0
 36 56  1  0  0  0
 36111  1  0  0  0
 37 39  1  0  0  0
 37 47  1  0  0  0
 37 66  1  0  0  0
 37112  1  0  0  0
 38 43  2  0  0  0
 38 46  1  0  0  0
 38 47  1  0  0  0
 39 64  1  0  0  0
 39 67  2  0  0  0
 40 52  1  0  0  0
 40 53  2  0  0  0
 40 58  1  0  0  0
 41113  1  0  0  0
 41114  1  0  0  0
 41115  1  0  0  0
 41 48  1  0  0  0
 42 43  1  0  0  0
 42 66  1  0  0  0
 42116  1  0  0  0
 42117  1  0  0  0
 43 44  1  0  0  0
 44118  1  0  0  0
 45 46  2  0  0  0
 45119  1  0  0  0
 46120  1  0  0  0
 47121  1  0  0  0
 47122  1  0  0  0
 48 56  1  0  0  0
 48 65  1  0  0  0
 48123  1  0  0  0
 49 50  1  0  0  0
 49 53  1  0  0  0
 49 64  1  0  0  0
 49124  1  0  0  0
 50 51  1  0  0  0
 50125  1  0  0  0
 50126  1  0  0  0
 51 52  1  0  0  0
 51127  1  0  0  0
 51128  1  0  0  0
 52129  1  0  0  0
 52130  1  0  0  0
 53 54  1  0  0  0
 54 55  2  0  0  0
 54131  1  0  0  0
 55 57  1  0  0  0
 55132  1  0  0  0
 56 69  2  0  0  0
 57 58  2  0  0  0
 57133  1  0  0  0
 58134  1  0  0  0
 59 60  1  0  0  0
 59 61  1  0  0  0
 59 62  1  0  0  0
 60135  1  0  0  0
 60136  1  0  0  0
 60137  1  0  0  0
 61138  1  0  0  0
 61139  1  0  0  0
 61140  1  0  0  0
 62141  1  0  0  0
 62142  1  0  0  0
 62143  1  0  0  0
 63 65  1  0  0  0
 63144  1  0  0  0
 63145  1  0  0  0
 63146  1  0  0  0
 64147  1  0  0  0
 65148  1  0  0  0
 68 84  1  0  0  0
 71 72  2  0  0  0
 71 74  1  0  0  0
 71149  1  0  0  0
 72 73  1  0  0  0
 72 75  1  0  0  0
 73 76  1  0  0  0
 73 85  2  0  0  0
 74 86  2  0  0  0
 74 88  1  0  0  0
 75 89  1  0  0  0
 75150  1  0  0  0
 75151  1  0  0  0
 76 81  1  0  0  0
 76152  1  0  0  0
 76153  1  0  0  0
 77 79  1  0  0  0
 77 82  1  0  0  0
 77154  1  0  0  0
 77155  1  0  0  0
 78 80  1  0  0  0
 78 82  1  0  0  0
 78156  1  0  0  0
 78157  1  0  0  0
 79 87  1  0  0  0
 79158  1  0  0  0
 79159  1  0  0  0
 80 87  1  0  0  0
 80160  1  0  0  0
 80161  1  0  0  0
 81 89  1  0  0  0
 81162  1  0  0  0
 81163  1  0  0  0
 82 88  1  0  0  0
 82164  1  0  0  0
 83 84  1  0  0  0
 83165  1  0  0  0
 83166  1  0  0  0
 83 89  1  0  0  0
 84167  1  0  0  0
 84168  1  0  0  0
 85 86  1  0  0  0
 88169  1  0  0  0
 89170  1  0  0  0
M  CHG  1  89   1
M  ISO  4   1 100  68 101  84 101  87 100
M  END
> <chiral flag>
0

> <version>
0

> <s_m_source_file>
/data/baiqing/PycharmProjects/Reinvent-master-3.2/result/LINK_invent/BTK/process_docking_weight1_custom_sum_contain_oxygen_bond_distance_aromatic_linkinvent_7_9_3/rearranged_h_0196.sdf

> <i_m_source_file_index>
15

> <r_mmod_Potential_Energy-OPLS-2005>
-14.5572071075439

> <r_mmod_Stretch_Energy-OPLS-2005>
43.7129821777344

> <r_mmod_Bend_Energy-OPLS-2005>
118.673690795898

> <r_mmod_Torsional_Energy-OPLS-2005>
374.766021728516

> <r_mmod_Improper_Torsional_Energy-OPLS-2005>
12.2088632583618

> <r_mmod_Van_der_Waal_Energy-OPLS-2005>
165.086761474609

> <r_mmod_Electrostatic_Energy-OPLS-2005>
-258.618011474609

> <r_mmod_Solvation_Energy-OPLS-2005>
-485.034454345703

> <b_mmod_Minimization_Converged-OPLS-2005>
0

> <r_mmod_RMS_Derivative-OPLS-2005>
6.48061370849609

$$$$
15
                    3D
 Structure written by MMmdl.
161170  0  0  1  0            999 V2000
  -30.6845  -14.5262   20.5489 C   0  0  0  0  0  0
  -30.4226  -12.3380   19.4284 C   0  0  0  0  0  0
  -29.4980  -12.5215   18.2056 C   0  0  0  0  0  0
  -28.0170  -12.3779   18.6129 C   0  0  0  0  0  0
  -27.6565  -13.2129   19.8714 C   0  0  2  0  0  0
  -28.7012  -13.0018   20.9886 C   0  0  0  0  0  0
  -25.2561  -13.8157   20.5677 C   0  0  0  0  0  0
  -24.1817  -13.0434   20.9179 C   0  0  0  0  0  0
  -24.6374  -11.6907   20.8725 C   0  0  0  0  0  0
  -23.9039  -10.4294   21.0397 C   0  0  0  0  0  0
  -24.3598   -9.4220   21.9181 C   0  0  0  0  0  0
  -23.6289   -8.2245   22.0747 C   0  0  0  0  0  0
  -22.4271   -8.0275   21.3542 C   0  0  0  0  0  0
  -21.9896   -9.0240   20.4635 C   0  0  0  0  0  0
  -22.7213  -10.2131   20.3044 C   0  0  0  0  0  0
  -21.6851   -6.0733   22.5284 C   0  0  0  0  0  0
  -21.4007   -6.5635   23.8220 C   0  0  0  0  0  0
  -21.3659   -5.6789   24.9181 C   0  0  0  0  0  0
  -21.6049   -4.3051   24.7225 C   0  0  0  0  0  0
  -21.8821   -3.8142   23.4350 C   0  0  0  0  0  0
  -21.9192   -4.6960   22.3409 C   0  0  0  0  0  0
  -22.7847  -13.5239   21.1866 C   0  0  0  0  0  0
  -22.1662   -4.2147   21.0986 F   0  0  0  0  0  0
  -21.5637   -3.4535   25.7742 F   0  0  0  0  0  0
  -30.0201  -13.3375   20.4336 N   0  0  0  0  0  0
  -26.2997  -12.9332   20.3344 N   0  0  0  0  0  0
  -25.9302  -11.6488   20.5727 N   0  0  0  0  0  0
  -22.0460  -12.8238   22.0403 N   0  0  0  0  0  0
  -25.4294  -15.1873   20.4099 N   0  0  0  0  0  0
  -31.8414  -14.6591   20.1369 O   0  0  0  0  0  0
  -21.6638   -6.8875   21.4245 O   0  0  0  0  0  0
  -22.3550  -14.5563   20.6734 O   0  0  0  0  0  0
  -24.6182  -31.8674   23.2112 C   0  0  0  0  0  0
  -25.9073  -32.4816   23.8399 C   0  0  1  0  0  0
  -27.2259  -27.4078   20.0934 C   0  0  0  0  0  0
  -25.5921  -33.8610   24.2330 N   0  0  0  0  0  0
  -23.4051  -30.4956   21.5532 C   0  0  2  0  0  0
  -24.8485  -28.9679   20.1126 C   0  0  0  0  0  0
  -22.7425  -29.4664   22.4983 C   0  0  0  0  0  0
  -18.0273  -28.1373   22.8492 C   0  0  0  0  0  0
  -24.1480  -36.7306   23.2638 C   0  0  0  0  0  0
  -25.9397  -30.8262   21.3684 C   0  0  0  0  0  0
  -26.0150  -29.4616   20.7102 C   0  0  0  0  0  0
  -27.2060  -28.6918   20.6966 C   0  0  0  0  0  0
  -26.0323  -26.9486   19.4794 C   0  0  0  0  0  0
  -24.8542  -27.7110   19.4932 C   0  0  0  0  0  0
  -23.6129  -29.8362   20.1660 C   0  0  0  0  0  0
  -25.4102  -36.3102   24.0338 C   0  0  1  0  0  0
  -20.5870  -28.3659   23.1309 C   0  0  2  0  0  0
  -20.6767  -26.9392   22.5412 C   0  0  0  0  0  0
  -19.5745  -26.6380   21.5210 C   0  0  0  0  0  0
  -18.1924  -26.7921   22.1622 C   0  0  0  0  0  0
  -19.1526  -28.8835   23.2899 C   0  0  0  0  0  0
  -18.9453  -30.1442   23.8904 C   0  0  0  0  0  0
  -17.6456  -30.6581   24.0564 C   0  0  0  0  0  0
  -25.9040  -34.9469   23.5127 C   0  0  0  0  0  0
  -16.5345  -29.9078   23.6331 C   0  0  0  0  0  0
  -16.7264  -28.6498   23.0350 C   0  0  0  0  0  0
  -26.4483  -31.6591   25.0730 C   0  0  0  0  0  0
  -25.3749  -31.3703   26.1480 C   0  0  0  0  0  0
  -27.0309  -30.3028   24.6116 C   0  0  0  0  0  0
  -27.6056  -32.4301   25.7503 C   0  0  0  0  0  0
  -27.5574  -37.1806   24.8462 C   0  0  0  0  0  0
  -21.4153  -29.3029   22.3717 N   0  0  0  0  0  0
  -26.4284  -37.3791   23.9416 N   0  0  0  0  0  0
  -24.6732  -31.0766   22.1018 N   0  0  0  0  0  0
  -23.4194  -28.8199   23.3021 O   0  0  0  0  0  0
  -28.3736  -26.6213   20.1283 O   0  0  0  0  0  0
  -26.5592  -34.8923   22.4683 O   0  0  0  0  0  0
  -23.5375  -32.1427   23.7503 O   0  0  0  0  0  0
  -29.3553  -24.2867   20.2320 C   0  0  0  0  0  0
  -29.1392  -17.6199   21.8977 C   0  0  0  0  0  0
  -30.3194  -21.3200   18.8493 C   0  0  0  0  0  0
  -29.4756  -16.1242   22.0500 C   0  0  0  0  0  0
  -30.0401  -16.8347   19.8596 C   0  0  0  0  0  0
  -30.6056  -19.8246   19.0389 C   0  0  0  0  0  0
  -29.4338  -20.5561   20.9804 C   0  0  0  0  0  0
  -30.0001  -21.8174   20.2622 C   0  0  2  0  0  0
  -30.0629  -18.0810   20.7766 C   0  0  1  0  0  0
  -28.1512  -25.2035   19.9249 C   0  0  0  0  0  0
  -29.9106  -15.6391   20.7283 N   0  0  0  0  0  0
  -29.0740  -22.9670   20.2711 N   0  0  0  0  0  0
  -29.6878  -19.3717   20.1064 N   0  3  2  0  0  0
  -30.4941  -24.7388   20.3755 O   0  0  0  0  0  0
  -31.4680  -12.4368   19.1314 H   0  0  0  0  0  0
  -30.3228  -11.3293   19.8339 H   0  0  0  0  0  0
  -29.7473  -11.7966   17.4298 H   0  0  0  0  0  0
  -29.6637  -13.5064   17.7628 H   0  0  0  0  0  0
  -27.8267  -11.3215   18.8027 H   0  0  0  0  0  0
  -27.3699  -12.6579   17.7816 H   0  0  0  0  0  0
  -27.6933  -14.2609   19.5747 H   0  0  0  0  0  0
  -28.6926  -11.9626   21.3186 H   0  0  0  0  0  0
  -28.4556  -13.5782   21.8758 H   0  0  0  0  0  0
  -25.2735   -9.5720   22.4765 H   0  0  0  0  0  0
  -24.0007   -7.4634   22.7464 H   0  0  0  0  0  0
  -21.0828   -8.8739   19.8944 H   0  0  0  0  0  0
  -22.3647  -10.9661   19.6153 H   0  0  0  0  0  0
  -21.1984   -7.6143   23.9724 H   0  0  0  0  0  0
  -21.1481   -6.0513   25.9089 H   0  0  0  0  0  0
  -22.0598   -2.7602   23.2840 H   0  0  0  0  0  0
  -22.4038  -11.9886   22.4798 H   0  0  0  0  0  0
  -21.1076  -13.1287   22.2586 H   0  0  0  0  0  0
  -24.6651  -15.8439   20.5232 H   0  0  0  0  0  0
  -26.2902  -15.6251   20.1080 H   0  0  0  0  0  0
  -26.7142  -32.5518   23.1160 H   0  0  0  0  0  0
  -25.0088  -33.9764   25.0488 H   0  0  0  0  0  0
  -22.6944  -31.3139   21.4184 H   0  0  0  0  0  0
  -23.3744  -35.9636   23.3298 H   0  0  0  0  0  0
  -24.3578  -36.8925   22.2053 H   0  0  0  0  0  0
  -23.7226  -37.6508   23.6653 H   0  0  0  0  0  0
  -26.0591  -31.5937   20.6024 H   0  0  0  0  0  0
  -26.8259  -30.8732   21.9898 H   0  0  0  0  0  0
  -28.1018  -29.0704   21.1696 H   0  0  0  0  0  0
  -25.9696  -25.9938   18.9801 H   0  0  0  0  0  0
  -23.9592  -27.3268   19.0227 H   0  0  0  0  0  0
  -23.7220  -30.6143   19.4096 H   0  0  0  0  0  0
  -22.7358  -29.2587   19.8686 H   0  0  0  0  0  0
  -25.1278  -36.1959   25.0830 H   0  0  0  0  0  0
  -20.9965  -28.3214   24.1428 H   0  0  0  0  0  0
  -20.5669  -26.2262   23.3595 H   0  0  0  0  0  0
  -21.6632  -26.7432   22.1199 H   0  0  0  0  0  0
  -19.6904  -25.6293   21.1230 H   0  0  0  0  0  0
  -19.6694  -27.3193   20.6745 H   0  0  0  0  0  0
  -17.4198  -26.6671   21.4019 H   0  0  0  0  0  0
  -18.0322  -26.0054   22.9007 H   0  0  0  0  0  0
  -19.7933  -30.7251   24.2271 H   0  0  0  0  0  0
  -17.5016  -31.6263   24.5157 H   0  0  0  0  0  0
  -15.5346  -30.2982   23.7660 H   0  0  0  0  0  0
  -15.8662  -28.0822   22.7054 H   0  0  0  0  0  0
  -24.5890  -30.7090   25.7811 H   0  0  0  0  0  0
  -24.8982  -32.2867   26.4971 H   0  0  0  0  0  0
  -25.8098  -30.8825   27.0214 H   0  0  0  0  0  0
  -26.2849  -29.6787   24.1181 H   0  0  0  0  0  0
  -27.4084  -29.7266   25.4575 H   0  0  0  0  0  0
  -27.8687  -30.4337   23.9262 H   0  0  0  0  0  0
  -27.2678  -33.3602   26.2085 H   0  0  0  0  0  0
  -28.3877  -32.6853   25.0339 H   0  0  0  0  0  0
  -28.0705  -31.8413   26.5422 H   0  0  0  0  0  0
  -28.2585  -38.0109   24.7523 H   0  0  0  0  0  0
  -28.1075  -36.2643   24.6266 H   0  0  0  0  0  0
  -27.2299  -37.1426   25.8866 H   0  0  0  0  0  0
  -20.9309  -29.8756   21.6949 H   0  0  0  0  0  0
  -26.0169  -38.2867   24.1424 H   0  0  0  0  0  0
  -29.2782  -18.1758   22.8256 H   0  0  0  0  0  0
  -28.0948  -17.7314   21.5993 H   0  0  0  0  0  0
  -29.4554  -21.4469   18.1949 H   0  0  0  0  0  0
  -31.1562  -21.8535   18.3958 H   0  0  0  0  0  0
  -28.6062  -15.5967   22.4370 H   0  0  0  0  0  0
  -30.2866  -15.9951   22.7702 H   0  0  0  0  0  0
  -30.9225  -16.8102   19.2175 H   0  0  0  0  0  0
  -29.1702  -16.8559   19.2008 H   0  0  0  0  0  0
  -31.6396  -19.6882   19.3604 H   0  0  0  0  0  0
  -30.4656  -19.2593   18.1163 H   0  0  0  0  0  0
  -28.3639  -20.6349   21.1787 H   0  0  0  0  0  0
  -29.9297  -20.4354   21.9451 H   0  0  0  0  0  0
  -30.9363  -22.0995   20.7499 H   0  0  0  0  0  0
  -31.0663  -18.1928   21.1927 H   0  0  0  0  0  0
  -27.3212  -24.8641   20.5488 H   0  0  0  0  0  0
  -27.8922  -25.0208   18.8811 H   0  0  0  0  0  0
  -28.0923  -22.7413   20.1758 H   0  0  0  0  0  0
  -28.8069  -19.2090   19.6410 H   0  0  0  0  0  0
  1 25  1  0  0  0
  1 30  2  0  0  0
  1 81  1  0  0  0
  2  3  1  0  0  0
  2 25  1  0  0  0
  2 85  1  0  0  0
  2 86  1  0  0  0
  3  4  1  0  0  0
  3 87  1  0  0  0
  3 88  1  0  0  0
  4  5  1  0  0  0
  4 89  1  0  0  0
  4 90  1  0  0  0
  5  6  1  0  0  0
  5 26  1  0  0  0
  5 91  1  0  0  0
  6 25  1  0  0  0
  6 92  1  0  0  0
  6 93  1  0  0  0
  7  8  2  0  0  0
  7 26  1  0  0  0
  7 29  1  0  0  0
  8  9  1  0  0  0
  8 22  1  0  0  0
  9 10  1  0  0  0
  9 27  2  0  0  0
 10 11  2  0  0  0
 10 15  1  0  0  0
 11 12  1  0  0  0
 11 94  1  0  0  0
 12 13  2  0  0  0
 12 95  1  0  0  0
 13 14  1  0  0  0
 13 31  1  0  0  0
 14 15  2  0  0  0
 14 96  1  0  0  0
 15 97  1  0  0  0
 16 17  2  0  0  0
 16 21  1  0  0  0
 16 31  1  0  0  0
 17 18  1  0  0  0
 17 98  1  0  0  0
 18 19  2  0  0  0
 18 99  1  0  0  0
 19 20  1  0  0  0
 19 24  1  0  0  0
 20 21  2  0  0  0
 20100  1  0  0  0
 21 23  1  0  0  0
 22 28  1  0  0  0
 22 32  2  0  0  0
 26 27  1  0  0  0
 28101  1  0  0  0
 28102  1  0  0  0
 29103  1  0  0  0
 29104  1  0  0  0
 33 34  1  0  0  0
 33 66  1  0  0  0
 33 70  2  0  0  0
 34 36  1  0  0  0
 34 59  1  0  0  0
 34105  1  0  0  0
 35 44  2  0  0  0
 35 45  1  0  0  0
 35 68  1  0  0  0
 36 56  1  0  0  0
 36106  1  0  0  0
 37 39  1  0  0  0
 37 47  1  0  0  0
 37 66  1  0  0  0
 37107  1  0  0  0
 38 43  2  0  0  0
 38 46  1  0  0  0
 38 47  1  0  0  0
 39 64  1  0  0  0
 39 67  2  0  0  0
 40 52  1  0  0  0
 40 53  2  0  0  0
 40 58  1  0  0  0
 41108  1  0  0  0
 41109  1  0  0  0
 41110  1  0  0  0
 41 48  1  0  0  0
 42 43  1  0  0  0
 42 66  1  0  0  0
 42111  1  0  0  0
 42112  1  0  0  0
 43 44  1  0  0  0
 44113  1  0  0  0
 45 46  2  0  0  0
 45114  1  0  0  0
 46115  1  0  0  0
 47116  1  0  0  0
 47117  1  0  0  0
 48 56  1  0  0  0
 48 65  1  0  0  0
 48118  1  0  0  0
 49 50  1  0  0  0
 49 53  1  0  0  0
 49 64  1  0  0  0
 49119  1  0  0  0
 50 51  1  0  0  0
 50120  1  0  0  0
 50121  1  0  0  0
 51 52  1  0  0  0
 51122  1  0  0  0
 51123  1  0  0  0
 52124  1  0  0  0
 52125  1  0  0  0
 53 54  1  0  0  0
 54 55  2  0  0  0
 54126  1  0  0  0
 55 57  1  0  0  0
 55127  1  0  0  0
 56 69  2  0  0  0
 57 58  2  0  0  0
 57128  1  0  0  0
 58129  1  0  0  0
 59 60  1  0  0  0
 59 61  1  0  0  0
 59 62  1  0  0  0
 60130  1  0  0  0
 60131  1  0  0  0
 60132  1  0  0  0
 61133  1  0  0  0
 61134  1  0  0  0
 61135  1  0  0  0
 62136  1  0  0  0
 62137  1  0  0  0
 62138  1  0  0  0
 63 65  1  0  0  0
 63139  1  0  0  0
 63140  1  0  0  0
 63141  1  0  0  0
 64142  1  0  0  0
 65143  1  0  0  0
 68 80  1  0  0  0
 71 80  1  0  0  0
 71 82  1  0  0  0
 71 84  2  0  0  0
 72 74  1  0  0  0
 72144  1  0  0  0
 72145  1  0  0  0
 72 79  1  0  0  0
 73 76  1  0  0  0
 73 78  1  0  0  0
 73146  1  0  0  0
 73147  1  0  0  0
 74 81  1  0  0  0
 74148  1  0  0  0
 74149  1  0  0  0
 75 79  1  0  0  0
 75 81  1  0  0  0
 75150  1  0  0  0
 75151  1  0  0  0
 76152  1  0  0  0
 76153  1  0  0  0
 76 83  1  0  0  0
 77 78  1  0  0  0
 77 83  1  0  0  0
 77154  1  0  0  0
 77155  1  0  0  0
 78 82  1  0  0  0
 78156  1  0  0  0
 79 83  1  0  0  0
 79157  1  0  0  0
 80158  1  0  0  0
 80159  1  0  0  0
 82160  1  0  0  0
 83161  1  0  0  0
M  CHG  1  83   1
M  ISO  4   1 100  68 101  80 101  81 100
M  END
> <chiral flag>
0

> <version>
0

> <s_m_source_file>
/data/baiqing/PycharmProjects/Reinvent-master-3.2/result/LINK_invent/BTK/process_docking_weight1_custom_sum_contain_oxygen_bond_distance_aromatic_linkinvent_7_9_3/rearranged_h_0196.sdf

> <i_m_source_file_index>
16

> <r_mmod_Potential_Energy-OPLS-2005>
72.2334136962891

> <r_mmod_Stretch_Energy-OPLS-2005>
45.157341003418

> <r_mmod_Bend_Energy-OPLS-2005>
156.984268188477

> <r_mmod_Torsional_Energy-OPLS-2005>
399.526611328125

> <r_mmod_Improper_Torsional_Energy-OPLS-2005>
15.0247707366943

> <r_mmod_Van_der_Waal_Energy-OPLS-2005>
130.044555664062

> <r_mmod_Electrostatic_Energy-OPLS-2005>
-194.291915893555

> <r_mmod_Solvation_Energy-OPLS-2005>
-500.571807861328

> <b_mmod_Minimization_Converged-OPLS-2005>
0

> <r_mmod_RMS_Derivative-OPLS-2005>
1.52307462692261

$$$$
16
                    3D
 Structure written by MMmdl.
161171  0  0  1  0            999 V2000
  -30.6016  -14.8051   20.4862 C   0  0  0  0  0  0
  -30.4400  -12.5133   19.4573 C   0  0  0  0  0  0
  -29.5054  -12.5372   18.2274 C   0  0  0  0  0  0
  -28.0307  -12.3559   18.6434 C   0  0  0  0  0  0
  -27.6431  -13.2308   19.8647 C   0  0  2  0  0  0
  -28.7031  -13.1188   20.9841 C   0  0  0  0  0  0
  -25.2467  -13.8189   20.5614 C   0  0  0  0  0  0
  -24.1781  -13.0445   20.9203 C   0  0  0  0  0  0
  -24.6389  -11.6920   20.8791 C   0  0  0  0  0  0
  -23.9065  -10.4296   21.0439 C   0  0  0  0  0  0
  -24.3616   -9.4192   21.9192 C   0  0  0  0  0  0
  -23.6289   -8.2225   22.0739 C   0  0  0  0  0  0
  -22.4270   -8.0268   21.3529 C   0  0  0  0  0  0
  -21.9917   -9.0252   20.4630 C   0  0  0  0  0  0
  -22.7246  -10.2136   20.3067 C   0  0  0  0  0  0
  -21.6842   -6.0716   22.5273 C   0  0  0  0  0  0
  -21.3983   -6.5614   23.8209 C   0  0  0  0  0  0
  -21.3652   -5.6767   24.9176 C   0  0  0  0  0  0
  -21.6064   -4.3038   24.7226 C   0  0  0  0  0  0
  -21.8832   -3.8127   23.4345 C   0  0  0  0  0  0
  -21.9191   -4.6944   22.3401 C   0  0  0  0  0  0
  -22.7791  -13.5215   21.1823 C   0  0  0  0  0  0
  -22.1660   -4.2134   21.0980 F   0  0  0  0  0  0
  -21.5650   -3.4521   25.7740 F   0  0  0  0  0  0
  -29.9717  -13.5692   20.3946 N   0  0  0  0  0  0
  -26.2945  -12.9403   20.3381 N   0  0  0  0  0  0
  -25.9336  -11.6557   20.5862 N   0  0  0  0  0  0
  -22.0390  -12.8195   22.0337 N   0  0  0  0  0  0
  -25.4103  -15.1895   20.3745 N   0  0  0  0  0  0
  -31.7918  -14.8596   20.1548 O   0  0  0  0  0  0
  -21.6618   -6.8868   21.4237 O   0  0  0  0  0  0
  -22.3517  -14.5538   20.6675 O   0  0  0  0  0  0
  -24.6329  -31.8516   23.1941 C   0  0  0  0  0  0
  -25.9136  -32.4742   23.8298 C   0  0  1  0  0  0
  -27.2302  -27.2395   20.1499 C   0  0  0  0  0  0
  -25.5901  -33.8537   24.2218 N   0  0  0  0  0  0
  -23.4322  -30.4695   21.5383 C   0  0  2  0  0  0
  -24.8847  -28.9065   20.1164 C   0  0  0  0  0  0
  -22.7510  -29.4581   22.4911 C   0  0  0  0  0  0
  -18.0282  -28.1391   22.8478 C   0  0  0  0  0  0
  -24.1500  -36.7287   23.2634 C   0  0  0  0  0  0
  -25.9776  -30.7627   21.3730 C   0  0  0  0  0  0
  -26.0565  -29.3795   20.7215 C   0  0  0  0  0  0
  -27.2349  -28.5614   20.7187 C   0  0  0  0  0  0
  -26.0347  -26.8325   19.5229 C   0  0  0  0  0  0
  -24.8806  -27.6431   19.5040 C   0  0  0  0  0  0
  -23.6539  -29.7936   20.1585 C   0  0  0  0  0  0
  -25.4120  -36.3059   24.0320 C   0  0  1  0  0  0
  -20.5888  -28.3707   23.1276 C   0  0  2  0  0  0
  -20.6763  -26.9416   22.5428 C   0  0  0  0  0  0
  -19.5752  -26.6383   21.5214 C   0  0  0  0  0  0
  -18.1931  -26.7928   22.1623 C   0  0  0  0  0  0
  -19.1535  -28.8867   23.2869 C   0  0  0  0  0  0
  -18.9456  -30.1461   23.8897 C   0  0  0  0  0  0
  -17.6457  -30.6595   24.0560 C   0  0  0  0  0  0
  -25.9060  -34.9430   23.5086 C   0  0  0  0  0  0
  -16.5350  -29.9088   23.6330 C   0  0  0  0  0  0
  -16.7266  -28.6503   23.0351 C   0  0  0  0  0  0
  -26.4504  -31.6580   25.0697 C   0  0  0  0  0  0
  -25.3723  -31.3746   26.1423 C   0  0  0  0  0  0
  -27.0350  -30.2989   24.6191 C   0  0  0  0  0  0
  -27.6055  -32.4325   25.7471 C   0  0  0  0  0  0
  -27.5586  -37.1802   24.8458 C   0  0  0  0  0  0
  -21.4214  -29.3040   22.3658 N   0  0  0  0  0  0
  -26.4294  -37.3756   23.9399 N   0  0  0  0  0  0
  -24.7001  -31.0465   22.0924 N   0  0  0  0  0  0
  -23.4195  -28.8128   23.3030 O   0  0  0  0  0  0
  -28.3297  -26.3454   20.1756 O   0  0  0  0  0  0
  -26.5658  -34.8912   22.4674 O   0  0  0  0  0  0
  -23.5479  -32.1333   23.7232 O   0  0  0  0  0  0
  -30.3988  -17.4384   20.3534 C   0  0  0  0  0  0
  -28.7061  -16.3185   21.4396 C   0  0  0  0  0  0
  -27.8939  -19.9283   21.8228 C   0  0  0  0  0  0
  -29.3486  -23.9399   20.8658 C   0  0  0  0  0  0
  -27.7660  -23.7201   19.6572 C   0  0  0  0  0  0
  -29.2070  -18.5199   20.2738 C   0  0  2  0  0  0
  -29.1399  -20.0403   20.9086 C   0  0  1  0  0  0
  -28.1398  -17.7023   21.0026 C   0  0  2  0  0  0
  -28.1262  -24.9072   20.6136 C   0  0  2  0  0  0
  -29.0243  -21.4082   19.9883 C   0  0  0  0  0  0
  -29.8866  -16.0208   20.6175 N   0  0  0  0  0  0
  -27.6444  -18.5083   22.1254 N   0  3  0  0  0  0
  -28.4817  -22.7572   20.5634 N   0  3  1  0  0  0
  -31.4724  -12.6653   19.1393 H   0  0  0  0  0  0
  -30.4272  -11.5324   19.9339 H   0  0  0  0  0  0
  -29.7921  -11.7625   17.5153 H   0  0  0  0  0  0
  -29.6212  -13.4891   17.7075 H   0  0  0  0  0  0
  -27.8762  -11.3024   18.8790 H   0  0  0  0  0  0
  -27.3753  -12.5776   17.8006 H   0  0  0  0  0  0
  -27.6420  -14.2595   19.5048 H   0  0  0  0  0  0
  -28.7780  -12.0838   21.3213 H   0  0  0  0  0  0
  -28.4518  -13.6721   21.8851 H   0  0  0  0  0  0
  -25.2768   -9.5644   22.4755 H   0  0  0  0  0  0
  -23.9992   -7.4599   22.7449 H   0  0  0  0  0  0
  -21.0852   -8.8792   19.8914 H   0  0  0  0  0  0
  -22.3725  -10.9684   19.6175 H   0  0  0  0  0  0
  -21.1932   -7.6114   23.9710 H   0  0  0  0  0  0
  -21.1466   -6.0487   25.9085 H   0  0  0  0  0  0
  -22.0617   -2.7585   23.2859 H   0  0  0  0  0  0
  -22.3970  -11.9855   22.4752 H   0  0  0  0  0  0
  -21.0992  -13.1211   22.2469 H   0  0  0  0  0  0
  -24.5919  -15.7866   20.3186 H   0  0  0  0  0  0
  -26.1927  -15.5486   19.8452 H   0  0  0  0  0  0
  -26.7201  -32.5400   23.1040 H   0  0  0  0  0  0
  -24.9944  -33.9652   25.0293 H   0  0  0  0  0  0
  -22.7300  -31.2913   21.3851 H   0  0  0  0  0  0
  -23.3747  -35.9636   23.3288 H   0  0  0  0  0  0
  -24.3601  -36.8918   22.2050 H   0  0  0  0  0  0
  -23.7264  -37.6491   23.6666 H   0  0  0  0  0  0
  -26.1076  -31.5188   20.5974 H   0  0  0  0  0  0
  -26.8583  -30.8231   22.0016 H   0  0  0  0  0  0
  -28.1351  -28.9216   21.1969 H   0  0  0  0  0  0
  -25.9828  -25.8626   19.0515 H   0  0  0  0  0  0
  -23.9836  -27.2736   19.0263 H   0  0  0  0  0  0
  -23.7781  -30.5647   19.3967 H   0  0  0  0  0  0
  -22.7736  -29.2231   19.8573 H   0  0  0  0  0  0
  -25.1301  -36.1904   25.0810 H   0  0  0  0  0  0
  -20.9969  -28.3284   24.1401 H   0  0  0  0  0  0
  -20.5638  -26.2308   23.3631 H   0  0  0  0  0  0
  -21.6631  -26.7420   22.1238 H   0  0  0  0  0  0
  -19.6910  -25.6290   21.1247 H   0  0  0  0  0  0
  -19.6694  -27.3196   20.6744 H   0  0  0  0  0  0
  -17.4192  -26.6664   21.4035 H   0  0  0  0  0  0
  -18.0338  -26.0081   22.9034 H   0  0  0  0  0  0
  -19.7933  -30.7267   24.2283 H   0  0  0  0  0  0
  -17.5010  -31.6276   24.5157 H   0  0  0  0  0  0
  -15.5351  -30.2991   23.7653 H   0  0  0  0  0  0
  -15.8660  -28.0821   22.7076 H   0  0  0  0  0  0
  -24.5955  -30.7004   25.7791 H   0  0  0  0  0  0
  -24.8839  -32.2910   26.4747 H   0  0  0  0  0  0
  -25.8057  -30.9036   27.0254 H   0  0  0  0  0  0
  -26.2938  -29.6734   24.1201 H   0  0  0  0  0  0
  -27.4002  -29.7255   25.4725 H   0  0  0  0  0  0
  -27.8821  -30.4245   23.9444 H   0  0  0  0  0  0
  -27.2674  -33.3671   26.1960 H   0  0  0  0  0  0
  -28.3911  -32.6811   25.0321 H   0  0  0  0  0  0
  -28.0660  -31.8487   26.5453 H   0  0  0  0  0  0
  -28.2590  -38.0111   24.7493 H   0  0  0  0  0  0
  -28.1096  -36.2636   24.6290 H   0  0  0  0  0  0
  -27.2309  -37.1454   25.8865 H   0  0  0  0  0  0
  -20.9415  -29.8746   21.6842 H   0  0  0  0  0  0
  -26.0174  -38.2830   24.1393 H   0  0  0  0  0  0
  -31.0858  -17.7033   21.1595 H   0  0  0  0  0  0
  -30.9854  -17.4544   19.4336 H   0  0  0  0  0  0
  -29.0230  -16.3265   22.4838 H   0  0  0  0  0  0
  -27.9074  -15.5941   21.3496 H   0  0  0  0  0  0
  -28.0060  -20.5000   22.7453 H   0  0  0  0  0  0
  -27.0102  -20.3068   21.3071 H   0  0  0  0  0  0
  -29.7247  -23.9469   21.8892 H   0  0  0  0  0  0
  -30.1653  -24.0680   20.1519 H   0  0  0  0  0  0
  -28.2263  -23.8015   18.6697 H   0  0  0  0  0  0
  -26.6975  -23.5206   19.5733 H   0  0  0  0  0  0
  -28.9076  -18.5908   19.2265 H   0  0  0  0  0  0
  -30.0089  -20.1532   21.5574 H   0  0  0  0  0  0
  -27.3061  -17.5507   20.3141 H   0  0  0  0  0  0
  -27.4675  -24.9031   21.4856 H   0  0  0  0  0  0
  -28.3462  -21.1605   19.1704 H   0  0  0  0  0  0
  -29.9822  -21.5978   19.5042 H   0  0  0  0  0  0
  -26.6662  -18.3344   22.2976 H   0  0  0  0  0  0
  -28.1557  -18.2640   22.9588 H   0  0  0  0  0  0
  -27.8818  -22.5860   21.3542 H   0  0  0  0  0  0
  1 25  1  0  0  0
  1 30  2  0  0  0
  1 81  1  0  0  0
  2  3  1  0  0  0
  2 25  1  0  0  0
  2 84  1  0  0  0
  2 85  1  0  0  0
  3  4  1  0  0  0
  3 86  1  0  0  0
  3 87  1  0  0  0
  4  5  1  0  0  0
  4 88  1  0  0  0
  4 89  1  0  0  0
  5  6  1  0  0  0
  5 26  1  0  0  0
  5 90  1  0  0  0
  6 25  1  0  0  0
  6 91  1  0  0  0
  6 92  1  0  0  0
  7  8  2  0  0  0
  7 26  1  0  0  0
  7 29  1  0  0  0
  8  9  1  0  0  0
  8 22  1  0  0  0
  9 10  1  0  0  0
  9 27  2  0  0  0
 10 11  2  0  0  0
 10 15  1  0  0  0
 11 12  1  0  0  0
 11 93  1  0  0  0
 12 13  2  0  0  0
 12 94  1  0  0  0
 13 14  1  0  0  0
 13 31  1  0  0  0
 14 15  2  0  0  0
 14 95  1  0  0  0
 15 96  1  0  0  0
 16 17  2  0  0  0
 16 21  1  0  0  0
 16 31  1  0  0  0
 17 18  1  0  0  0
 17 97  1  0  0  0
 18 19  2  0  0  0
 18 98  1  0  0  0
 19 20  1  0  0  0
 19 24  1  0  0  0
 20 21  2  0  0  0
 20 99  1  0  0  0
 21 23  1  0  0  0
 22 28  1  0  0  0
 22 32  2  0  0  0
 26 27  1  0  0  0
 28100  1  0  0  0
 28101  1  0  0  0
 29102  1  0  0  0
 29103  1  0  0  0
 33 34  1  0  0  0
 33 66  1  0  0  0
 33 70  2  0  0  0
 34 36  1  0  0  0
 34 59  1  0  0  0
 34104  1  0  0  0
 35 44  2  0  0  0
 35 45  1  0  0  0
 35 68  1  0  0  0
 36 56  1  0  0  0
 36105  1  0  0  0
 37 39  1  0  0  0
 37 47  1  0  0  0
 37 66  1  0  0  0
 37106  1  0  0  0
 38 43  2  0  0  0
 38 46  1  0  0  0
 38 47  1  0  0  0
 39 64  1  0  0  0
 39 67  2  0  0  0
 40 52  1  0  0  0
 40 53  2  0  0  0
 40 58  1  0  0  0
 41107  1  0  0  0
 41108  1  0  0  0
 41109  1  0  0  0
 41 48  1  0  0  0
 42 43  1  0  0  0
 42 66  1  0  0  0
 42110  1  0  0  0
 42111  1  0  0  0
 43 44  1  0  0  0
 44112  1  0  0  0
 45 46  2  0  0  0
 45113  1  0  0  0
 46114  1  0  0  0
 47115  1  0  0  0
 47116  1  0  0  0
 48 56  1  0  0  0
 48 65  1  0  0  0
 48117  1  0  0  0
 49 50  1  0  0  0
 49 53  1  0  0  0
 49 64  1  0  0  0
 49118  1  0  0  0
 50 51  1  0  0  0
 50119  1  0  0  0
 50120  1  0  0  0
 51 52  1  0  0  0
 51121  1  0  0  0
 51122  1  0  0  0
 52123  1  0  0  0
 52124  1  0  0  0
 53 54  1  0  0  0
 54 55  2  0  0  0
 54125  1  0  0  0
 55 57  1  0  0  0
 55126  1  0  0  0
 56 69  2  0  0  0
 57 58  2  0  0  0
 57127  1  0  0  0
 58128  1  0  0  0
 59 60  1  0  0  0
 59 61  1  0  0  0
 59 62  1  0  0  0
 60129  1  0  0  0
 60130  1  0  0  0
 60131  1  0  0  0
 61132  1  0  0  0
 61133  1  0  0  0
 61134  1  0  0  0
 62135  1  0  0  0
 62136  1  0  0  0
 62137  1  0  0  0
 63 65  1  0  0  0
 63138  1  0  0  0
 63139  1  0  0  0
 63140  1  0  0  0
 64141  1  0  0  0
 65142  1  0  0  0
 68 79  1  0  0  0
 71 81  1  0  0  0
 71143  1  0  0  0
 71144  1  0  0  0
 71 76  1  0  0  0
 72 81  1  0  0  0
 72145  1  0  0  0
 72146  1  0  0  0
 72 78  1  0  0  0
 73 77  1  0  0  0
 73 82  1  0  0  0
 73147  1  0  0  0
 73148  1  0  0  0
 74 79  1  0  0  0
 74 83  1  0  0  0
 74149  1  0  0  0
 74150  1  0  0  0
 75 79  1  0  0  0
 75 83  1  0  0  0
 75151  1  0  0  0
 75152  1  0  0  0
 76 77  1  0  0  0
 76 78  1  0  0  0
 76153  1  0  0  0
 77 80  1  0  0  0
 77154  1  0  0  0
 78 82  1  0  0  0
 78155  1  0  0  0
 79156  1  0  0  0
 80157  1  0  0  0
 80158  1  0  0  0
 80 83  1  0  0  0
 82159  1  0  0  0
 82160  1  0  0  0
 83161  1  0  0  0
M  CHG  2  82   1  83   1
M  ISO  4   1 100  68 101  79 101  81 100
M  END
> <chiral flag>
0

> <version>
0

> <s_m_source_file>
/data/baiqing/PycharmProjects/Reinvent-master-3.2/result/LINK_invent/BTK/process_docking_weight1_custom_sum_contain_oxygen_bond_distance_aromatic_linkinvent_7_9_3/rearranged_h_0196.sdf

> <i_m_source_file_index>
17

> <r_mmod_Potential_Energy-OPLS-2005>
190.189971923828

> <r_mmod_Stretch_Energy-OPLS-2005>
153.988952636719

> <r_mmod_Bend_Energy-OPLS-2005>
284.953735351562

> <r_mmod_Torsional_Energy-OPLS-2005>
443.853179931641

> <r_mmod_Improper_Torsional_Energy-OPLS-2005>
11.6685018539429

> <r_mmod_Van_der_Waal_Energy-OPLS-2005>
112.660125732422

> <r_mmod_Electrostatic_Energy-OPLS-2005>
119.268264770508

> <r_mmod_Solvation_Energy-OPLS-2005>
-1035.29150390625

> <b_mmod_Minimization_Converged-OPLS-2005>
0

> <r_mmod_RMS_Derivative-OPLS-2005>
2.03588056564331

$$$$
17
                    3D
 Structure written by MMmdl.
162171  0  0  1  0            999 V2000
  -30.6699  -14.6035   20.5228 C   0  0  0  0  0  0
  -30.4230  -12.3777   19.4488 C   0  0  0  0  0  0
  -29.4993  -12.5048   18.2200 C   0  0  0  0  0  0
  -28.0223  -12.3504   18.6327 C   0  0  0  0  0  0
  -27.6495  -13.2214   19.8625 C   0  0  2  0  0  0
  -28.6945  -13.0850   20.9921 C   0  0  0  0  0  0
  -25.2536  -13.8181   20.5692 C   0  0  0  0  0  0
  -24.1810  -13.0438   20.9198 C   0  0  0  0  0  0
  -24.6386  -11.6911   20.8745 C   0  0  0  0  0  0
  -23.9059  -10.4290   21.0401 C   0  0  0  0  0  0
  -24.3611   -9.4206   21.9179 C   0  0  0  0  0  0
  -23.6291   -8.2239   22.0750 C   0  0  0  0  0  0
  -22.4273   -8.0276   21.3542 C   0  0  0  0  0  0
  -21.9907   -9.0247   20.4643 C   0  0  0  0  0  0
  -22.7231  -10.2128   20.3050 C   0  0  0  0  0  0
  -21.6853   -6.0729   22.5276 C   0  0  0  0  0  0
  -21.4013   -6.5636   23.8206 C   0  0  0  0  0  0
  -21.3662   -5.6792   24.9172 C   0  0  0  0  0  0
  -21.6046   -4.3053   24.7224 C   0  0  0  0  0  0
  -21.8820   -3.8142   23.4344 C   0  0  0  0  0  0
  -21.9190   -4.6958   22.3400 C   0  0  0  0  0  0
  -22.7833  -13.5222   21.1862 C   0  0  0  0  0  0
  -22.1661   -4.2142   21.0978 F   0  0  0  0  0  0
  -21.5631   -3.4539   25.7738 F   0  0  0  0  0  0
  -30.0091  -13.4096   20.4202 N   0  0  0  0  0  0
  -26.2968  -12.9373   20.3327 N   0  0  0  0  0  0
  -25.9317  -11.6523   20.5767 N   0  0  0  0  0  0
  -22.0479  -12.8208   22.0417 N   0  0  0  0  0  0
  -25.4250  -15.1901   20.4096 N   0  0  0  0  0  0
  -31.8367  -14.7020   20.1406 O   0  0  0  0  0  0
  -21.6642   -6.8871   21.4239 O   0  0  0  0  0  0
  -22.3520  -14.5533   20.6715 O   0  0  0  0  0  0
  -24.6235  -31.8620   23.2052 C   0  0  0  0  0  0
  -25.9094  -32.4791   23.8369 C   0  0  1  0  0  0
  -27.2222  -27.3426   20.1092 C   0  0  0  0  0  0
  -25.5920  -33.8592   24.2295 N   0  0  0  0  0  0
  -23.4155  -30.4867   21.5478 C   0  0  2  0  0  0
  -24.8610  -28.9480   20.1099 C   0  0  0  0  0  0
  -22.7463  -29.4631   22.4952 C   0  0  0  0  0  0
  -18.0283  -28.1381   22.8492 C   0  0  0  0  0  0
  -24.1487  -36.7296   23.2639 C   0  0  0  0  0  0
  -25.9550  -30.8002   21.3727 C   0  0  0  0  0  0
  -26.0290  -29.4304   20.7133 C   0  0  0  0  0  0
  -27.2127  -28.6390   20.7042 C   0  0  0  0  0  0
  -26.0308  -26.9094   19.4806 C   0  0  0  0  0  0
  -24.8628  -27.6922   19.4851 C   0  0  0  0  0  0
  -23.6280  -29.8247   20.1615 C   0  0  0  0  0  0
  -25.4111  -36.3092   24.0332 C   0  0  1  0  0  0
  -20.5881  -28.3678   23.1298 C   0  0  2  0  0  0
  -20.6773  -26.9405   22.5415 C   0  0  0  0  0  0
  -19.5749  -26.6385   21.5216 C   0  0  0  0  0  0
  -18.1928  -26.7927   22.1626 C   0  0  0  0  0  0
  -19.1535  -28.8847   23.2890 C   0  0  0  0  0  0
  -18.9458  -30.1452   23.8903 C   0  0  0  0  0  0
  -17.6457  -30.6584   24.0564 C   0  0  0  0  0  0
  -25.9049  -34.9460   23.5114 C   0  0  0  0  0  0
  -16.5349  -29.9082   23.6329 C   0  0  0  0  0  0
  -16.7270  -28.6501   23.0351 C   0  0  0  0  0  0
  -26.4488  -31.6590   25.0728 C   0  0  0  0  0  0
  -25.3730  -31.3715   26.1459 C   0  0  0  0  0  0
  -27.0327  -30.3020   24.6159 C   0  0  0  0  0  0
  -27.6052  -32.4320   25.7496 C   0  0  0  0  0  0
  -27.5580  -37.1805   24.8464 C   0  0  0  0  0  0
  -21.4180  -29.3034   22.3696 N   0  0  0  0  0  0
  -26.4290  -37.3785   23.9412 N   0  0  0  0  0  0
  -24.6835  -31.0653   22.0991 N   0  0  0  0  0  0
  -23.4201  -28.8168   23.3019 O   0  0  0  0  0  0
  -28.3482  -26.5123   20.1626 O   0  0  0  0  0  0
  -26.5614  -34.8922   22.4678 O   0  0  0  0  0  0
  -23.5404  -32.1408   23.7394 O   0  0  0  0  0  0
  -31.7422  -17.4605   21.2891 C   0  0  0  0  0  0
  -31.6521  -17.8445   19.8030 C   0  0  0  0  0  0
  -28.8312  -21.7862   21.2348 C   0  0  0  0  0  0
  -30.4585  -22.1087   19.5750 C   0  0  0  0  0  0
  -28.7821  -20.2354   20.9178 C   0  0  0  0  0  0
  -30.3794  -20.6007   19.1851 C   0  0  0  0  0  0
  -30.2372  -17.1530   21.2239 C   0  0  1  0  0  0
  -30.1699  -18.2252   20.0412 C   0  0  1  0  0  0
  -29.3241  -24.1061   20.4099 C   0  0  0  0  0  0
  -28.1519  -25.0652   19.9667 C   0  0  0  0  0  0
  -29.1790  -22.6459   20.0749 N   0  0  0  0  0  0
  -29.9305  -15.6943   20.9093 N   0  0  0  0  0  0
  -30.0684  -19.7236   20.3552 N   0  3  0  0  0  0
  -31.4666  -12.4800   19.1465 H   0  0  0  0  0  0
  -30.3399  -11.3847   19.8929 H   0  0  0  0  0  0
  -29.7596  -11.7534   17.4734 H   0  0  0  0  0  0
  -29.6495  -13.4752   17.7445 H   0  0  0  0  0  0
  -27.8526  -11.2976   18.8617 H   0  0  0  0  0  0
  -27.3685  -12.5869   17.7923 H   0  0  0  0  0  0
  -27.6667  -14.2567   19.5219 H   0  0  0  0  0  0
  -28.7003  -12.0691   21.3896 H   0  0  0  0  0  0
  -28.4460  -13.7330   21.8341 H   0  0  0  0  0  0
  -25.2754   -9.5685   22.4754 H   0  0  0  0  0  0
  -24.0002   -7.4631   22.7469 H   0  0  0  0  0  0
  -21.0838   -8.8755   19.8951 H   0  0  0  0  0  0
  -22.3681  -10.9661   19.6159 H   0  0  0  0  0  0
  -21.2006   -7.6144   23.9708 H   0  0  0  0  0  0
  -21.1488   -6.0524   25.9077 H   0  0  0  0  0  0
  -22.0598   -2.7604   23.2844 H   0  0  0  0  0  0
  -22.4098  -11.9856   22.4778 H   0  0  0  0  0  0
  -21.1096  -13.1224   22.2634 H   0  0  0  0  0  0
  -24.6559  -15.8438   20.5098 H   0  0  0  0  0  0
  -26.2700  -15.6256   20.0624 H   0  0  0  0  0  0
  -26.7162  -32.5471   23.1119 H   0  0  0  0  0  0
  -25.0065  -33.9740   25.0438 H   0  0  0  0  0  0
  -22.7079  -31.3066   21.4082 H   0  0  0  0  0  0
  -23.3752  -35.9626   23.3301 H   0  0  0  0  0  0
  -24.3580  -36.8915   22.2054 H   0  0  0  0  0  0
  -23.7235  -37.6497   23.6657 H   0  0  0  0  0  0
  -26.0835  -31.5664   20.6068 H   0  0  0  0  0  0
  -26.8367  -30.8474   22.0002 H   0  0  0  0  0  0
  -28.1094  -29.0047   21.1850 H   0  0  0  0  0  0
  -25.9717  -25.9521   18.9847 H   0  0  0  0  0  0
  -23.9683  -27.3187   19.0058 H   0  0  0  0  0  0
  -23.7440  -30.6028   19.4062 H   0  0  0  0  0  0
  -22.7488  -29.2525   19.8600 H   0  0  0  0  0  0
  -25.1290  -36.1948   25.0825 H   0  0  0  0  0  0
  -20.9973  -28.3246   24.1419 H   0  0  0  0  0  0
  -20.5677  -26.2285   23.3608 H   0  0  0  0  0  0
  -21.6641  -26.7443   22.1205 H   0  0  0  0  0  0
  -19.6910  -25.6299   21.1236 H   0  0  0  0  0  0
  -19.6687  -27.3204   20.6752 H   0  0  0  0  0  0
  -17.4200  -26.6680   21.4023 H   0  0  0  0  0  0
  -18.0324  -26.0065   22.9017 H   0  0  0  0  0  0
  -19.7931  -30.7267   24.2275 H   0  0  0  0  0  0
  -17.5009  -31.6264   24.5165 H   0  0  0  0  0  0
  -15.5347  -30.2983   23.7651 H   0  0  0  0  0  0
  -15.8671  -28.0821   22.7059 H   0  0  0  0  0  0
  -24.5907  -30.7060   25.7788 H   0  0  0  0  0  0
  -24.8916  -32.2875   26.4895 H   0  0  0  0  0  0
  -25.8062  -30.8886   27.0227 H   0  0  0  0  0  0
  -26.2892  -29.6777   24.1189 H   0  0  0  0  0  0
  -27.4044  -29.7266   25.4647 H   0  0  0  0  0  0
  -27.8755  -30.4317   23.9365 H   0  0  0  0  0  0
  -27.2668  -33.3624   26.2070 H   0  0  0  0  0  0
  -28.3865  -32.6872   25.0324 H   0  0  0  0  0  0
  -28.0716  -31.8447   26.5415 H   0  0  0  0  0  0
  -28.2593  -38.0106   24.7518 H   0  0  0  0  0  0
  -28.1079  -36.2638   24.6277 H   0  0  0  0  0  0
  -27.2300  -37.1439   25.8867 H   0  0  0  0  0  0
  -20.9352  -29.8757   21.6911 H   0  0  0  0  0  0
  -26.0173  -38.2861   24.1412 H   0  0  0  0  0  0
  -31.9660  -18.3131   21.9336 H   0  0  0  0  0  0
  -32.4145  -16.6394   21.5336 H   0  0  0  0  0  0
  -31.7575  -17.0029   19.1183 H   0  0  0  0  0  0
  -32.3518  -18.6319   19.5274 H   0  0  0  0  0  0
  -29.5416  -21.9598   22.0459 H   0  0  0  0  0  0
  -27.8587  -22.0986   21.6193 H   0  0  0  0  0  0
  -30.7536  -22.6746   18.6894 H   0  0  0  0  0  0
  -31.2498  -22.2636   20.3119 H   0  0  0  0  0  0
  -27.9696  -20.0247   20.2217 H   0  0  0  0  0  0
  -28.5516  -19.6873   21.8314 H   0  0  0  0  0  0
  -31.3275  -20.3253   18.7284 H   0  0  0  0  0  0
  -29.6269  -20.4557   18.4090 H   0  0  0  0  0  0
  -29.7133  -17.4909   22.1190 H   0  0  0  0  0  0
  -29.5072  -17.9299   19.2262 H   0  0  0  0  0  0
  -29.5107  -24.2279   21.4783 H   0  0  0  0  0  0
  -30.2219  -24.4915   19.9233 H   0  0  0  0  0  0
  -27.2542  -24.7457   20.4986 H   0  0  0  0  0  0
  -27.9677  -24.8964   18.9048 H   0  0  0  0  0  0
  -28.9748  -15.4409   21.1122 H   0  0  0  0  0  0
  -30.7720  -19.9198   21.0497 H   0  0  0  0  0  0
  1 25  1  0  0  0
  1 30  2  0  0  0
  1 82  1  0  0  0
  2  3  1  0  0  0
  2 25  1  0  0  0
  2 84  1  0  0  0
  2 85  1  0  0  0
  3  4  1  0  0  0
  3 86  1  0  0  0
  3 87  1  0  0  0
  4  5  1  0  0  0
  4 88  1  0  0  0
  4 89  1  0  0  0
  5  6  1  0  0  0
  5 26  1  0  0  0
  5 90  1  0  0  0
  6 25  1  0  0  0
  6 91  1  0  0  0
  6 92  1  0  0  0
  7  8  2  0  0  0
  7 26  1  0  0  0
  7 29  1  0  0  0
  8  9  1  0  0  0
  8 22  1  0  0  0
  9 10  1  0  0  0
  9 27  2  0  0  0
 10 11  2  0  0  0
 10 15  1  0  0  0
 11 12  1  0  0  0
 11 93  1  0  0  0
 12 13  2  0  0  0
 12 94  1  0  0  0
 13 14  1  0  0  0
 13 31  1  0  0  0
 14 15  2  0  0  0
 14 95  1  0  0  0
 15 96  1  0  0  0
 16 17  2  0  0  0
 16 21  1  0  0  0
 16 31  1  0  0  0
 17 18  1  0  0  0
 17 97  1  0  0  0
 18 19  2  0  0  0
 18 98  1  0  0  0
 19 20  1  0  0  0
 19 24  1  0  0  0
 20 21  2  0  0  0
 20 99  1  0  0  0
 21 23  1  0  0  0
 22 28  1  0  0  0
 22 32  2  0  0  0
 26 27  1  0  0  0
 28100  1  0  0  0
 28101  1  0  0  0
 29102  1  0  0  0
 29103  1  0  0  0
 33 34  1  0  0  0
 33 66  1  0  0  0
 33 70  2  0  0  0
 34 36  1  0  0  0
 34 59  1  0  0  0
 34104  1  0  0  0
 35 44  2  0  0  0
 35 45  1  0  0  0
 35 68  1  0  0  0
 36 56  1  0  0  0
 36105  1  0  0  0
 37 39  1  0  0  0
 37 47  1  0  0  0
 37 66  1  0  0  0
 37106  1  0  0  0
 38 43  2  0  0  0
 38 46  1  0  0  0
 38 47  1  0  0  0
 39 64  1  0  0  0
 39 67  2  0  0  0
 40 52  1  0  0  0
 40 53  2  0  0  0
 40 58  1  0  0  0
 41107  1  0  0  0
 41108  1  0  0  0
 41109  1  0  0  0
 41 48  1  0  0  0
 42 43  1  0  0  0
 42 66  1  0  0  0
 42110  1  0  0  0
 42111  1  0  0  0
 43 44  1  0  0  0
 44112  1  0  0  0
 45 46  2  0  0  0
 45113  1  0  0  0
 46114  1  0  0  0
 47115  1  0  0  0
 47116  1  0  0  0
 48 56  1  0  0  0
 48 65  1  0  0  0
 48117  1  0  0  0
 49 50  1  0  0  0
 49 53  1  0  0  0
 49 64  1  0  0  0
 49118  1  0  0  0
 50 51  1  0  0  0
 50119  1  0  0  0
 50120  1  0  0  0
 51 52  1  0  0  0
 51121  1  0  0  0
 51122  1  0  0  0
 52123  1  0  0  0
 52124  1  0  0  0
 53 54  1  0  0  0
 54 55  2  0  0  0
 54125  1  0  0  0
 55 57  1  0  0  0
 55126  1  0  0  0
 56 69  2  0  0  0
 57 58  2  0  0  0
 57127  1  0  0  0
 58128  1  0  0  0
 59 60  1  0  0  0
 59 61  1  0  0  0
 59 62  1  0  0  0
 60129  1  0  0  0
 60130  1  0  0  0
 60131  1  0  0  0
 61132  1  0  0  0
 61133  1  0  0  0
 61134  1  0  0  0
 62135  1  0  0  0
 62136  1  0  0  0
 62137  1  0  0  0
 63 65  1  0  0  0
 63138  1  0  0  0
 63139  1  0  0  0
 63140  1  0  0  0
 64141  1  0  0  0
 65142  1  0  0  0
 68 80  1  0  0  0
 71 72  1  0  0  0
 71 77  1  0  0  0
 71143  1  0  0  0
 71144  1  0  0  0
 72145  1  0  0  0
 72146  1  0  0  0
 72 78  1  0  0  0
 73 75  1  0  0  0
 73 81  1  0  0  0
 73147  1  0  0  0
 73148  1  0  0  0
 74 76  1  0  0  0
 74 81  1  0  0  0
 74149  1  0  0  0
 74150  1  0  0  0
 75151  1  0  0  0
 75152  1  0  0  0
 75 83  1  0  0  0
 76 83  1  0  0  0
 76153  1  0  0  0
 76154  1  0  0  0
 77 78  1  0  0  0
 77 82  1  0  0  0
 77155  1  0  0  0
 78 83  1  0  0  0
 78156  1  0  0  0
 79 80  1  0  0  0
 79 81  1  0  0  0
 79157  1  0  0  0
 79158  1  0  0  0
 80159  1  0  0  0
 80160  1  0  0  0
 82161  1  0  0  0
 83162  1  0  0  0
M  CHG  1  83   1
M  ISO  4   1 100  68 101  80 101  82 100
M  END
> <chiral flag>
0

> <version>
0

> <s_m_source_file>
/data/baiqing/PycharmProjects/Reinvent-master-3.2/result/LINK_invent/BTK/process_docking_weight1_custom_sum_contain_oxygen_bond_distance_aromatic_linkinvent_7_9_3/rearranged_h_0196.sdf

> <i_m_source_file_index>
18

> <r_mmod_Potential_Energy-OPLS-2005>
34.5719757080078

> <r_mmod_Stretch_Energy-OPLS-2005>
80.9800643920898

> <r_mmod_Bend_Energy-OPLS-2005>
167.160507202148

> <r_mmod_Torsional_Energy-OPLS-2005>
255.538238525391

> <r_mmod_Improper_Torsional_Energy-OPLS-2005>
3.55240702629089

> <r_mmod_Van_der_Waal_Energy-OPLS-2005>
152.029251098633

> <r_mmod_Electrostatic_Energy-OPLS-2005>
-207.470748901367

> <r_mmod_Solvation_Energy-OPLS-2005>
-456.378173828125

> <b_mmod_Minimization_Converged-OPLS-2005>
0

> <r_mmod_RMS_Derivative-OPLS-2005>
0.700254142284393

$$$$
18
                    3D
 Structure written by MMmdl.
164172  0  0  1  0            999 V2000
  -30.6695  -14.6169   20.4844 C   0  0  0  0  0  0
  -30.4167  -12.3770   19.4498 C   0  0  0  0  0  0
  -29.4919  -12.4942   18.2199 C   0  0  0  0  0  0
  -28.0179  -12.3408   18.6402 C   0  0  0  0  0  0
  -27.6451  -13.2244   19.8606 C   0  0  2  0  0  0
  -28.6928  -13.0990   20.9881 C   0  0  0  0  0  0
  -25.2518  -13.8194   20.5729 C   0  0  0  0  0  0
  -24.1785  -13.0430   20.9224 C   0  0  0  0  0  0
  -24.6373  -11.6918   20.8758 C   0  0  0  0  0  0
  -23.9054  -10.4284   21.0418 C   0  0  0  0  0  0
  -24.3610   -9.4204   21.9200 C   0  0  0  0  0  0
  -23.6296   -8.2229   22.0752 C   0  0  0  0  0  0
  -22.4275   -8.0270   21.3546 C   0  0  0  0  0  0
  -21.9919   -9.0236   20.4642 C   0  0  0  0  0  0
  -22.7228  -10.2127   20.3067 C   0  0  0  0  0  0
  -21.6837   -6.0735   22.5284 C   0  0  0  0  0  0
  -21.4004   -6.5642   23.8215 C   0  0  0  0  0  0
  -21.3671   -5.6799   24.9180 C   0  0  0  0  0  0
  -21.6049   -4.3058   24.7232 C   0  0  0  0  0  0
  -21.8820   -3.8152   23.4346 C   0  0  0  0  0  0
  -21.9190   -4.6967   22.3405 C   0  0  0  0  0  0
  -22.7809  -13.5209   21.1891 C   0  0  0  0  0  0
  -22.1657   -4.2152   21.0977 F   0  0  0  0  0  0
  -21.5646   -3.4550   25.7743 F   0  0  0  0  0  0
  -30.0008  -13.4232   20.4066 N   0  0  0  0  0  0
  -26.2943  -12.9392   20.3348 N   0  0  0  0  0  0
  -25.9300  -11.6534   20.5779 N   0  0  0  0  0  0
  -22.0463  -12.8166   22.0440 N   0  0  0  0  0  0
  -25.4269  -15.1910   20.4153 N   0  0  0  0  0  0
  -31.8563  -14.6829   20.1480 O   0  0  0  0  0  0
  -21.6631   -6.8875   21.4240 O   0  0  0  0  0  0
  -22.3479  -14.5521   20.6771 O   0  0  0  0  0  0
  -24.6220  -31.8613   23.2041 C   0  0  0  0  0  0
  -25.9076  -32.4777   23.8367 C   0  0  1  0  0  0
  -27.2246  -27.3532   20.1213 C   0  0  0  0  0  0
  -25.5912  -33.8574   24.2300 N   0  0  0  0  0  0
  -23.4147  -30.4855   21.5443 C   0  0  2  0  0  0
  -24.8630  -28.9391   20.1128 C   0  0  0  0  0  0
  -22.7449  -29.4642   22.4929 C   0  0  0  0  0  0
  -18.0289  -28.1387   22.8489 C   0  0  0  0  0  0
  -24.1488  -36.7295   23.2646 C   0  0  0  0  0  0
  -25.9509  -30.8036   21.3706 C   0  0  0  0  0  0
  -26.0276  -29.4312   20.7180 C   0  0  0  0  0  0
  -27.2153  -28.6504   20.7099 C   0  0  0  0  0  0
  -26.0459  -26.8973   19.4995 C   0  0  0  0  0  0
  -24.8720  -27.6777   19.4931 C   0  0  0  0  0  0
  -23.6297  -29.8178   20.1593 C   0  0  0  0  0  0
  -25.4113  -36.3085   24.0339 C   0  0  1  0  0  0
  -20.5889  -28.3698   23.1273 C   0  0  2  0  0  0
  -20.6783  -26.9426   22.5402 C   0  0  0  0  0  0
  -19.5758  -26.6403   21.5204 C   0  0  0  0  0  0
  -18.1934  -26.7936   22.1615 C   0  0  0  0  0  0
  -19.1540  -28.8856   23.2880 C   0  0  0  0  0  0
  -18.9457  -30.1458   23.8903 C   0  0  0  0  0  0
  -17.6459  -30.6588   24.0572 C   0  0  0  0  0  0
  -25.9045  -34.9451   23.5119 C   0  0  0  0  0  0
  -16.5348  -29.9090   23.6321 C   0  0  0  0  0  0
  -16.7273  -28.6509   23.0344 C   0  0  0  0  0  0
  -26.4501  -31.6570   25.0706 C   0  0  0  0  0  0
  -25.3776  -31.3620   26.1446 C   0  0  0  0  0  0
  -27.0360  -30.3018   24.6116 C   0  0  0  0  0  0
  -27.6083  -32.4296   25.7457 C   0  0  0  0  0  0
  -27.5581  -37.1793   24.8470 C   0  0  0  0  0  0
  -21.4173  -29.3039   22.3657 N   0  0  0  0  0  0
  -26.4295  -37.3771   23.9412 N   0  0  0  0  0  0
  -24.6812  -31.0654   22.0971 N   0  0  0  0  0  0
  -23.4190  -28.8195   23.3009 O   0  0  0  0  0  0
  -28.3566  -26.5462   20.1084 O   0  0  0  0  0  0
  -26.5612  -34.8914   22.4688 O   0  0  0  0  0  0
  -23.5395  -32.1414   23.7380 O   0  0  0  0  0  0
  -29.3040  -16.3619   21.6863 C   0  0  0  0  0  0
  -30.2162  -16.8279   19.4683 C   0  0  0  0  0  0
  -29.6385  -17.8840   21.8789 C   0  0  0  0  0  0
  -29.2403  -18.0535   19.4925 C   0  0  0  0  0  0
  -31.0866  -20.3116   20.4116 C   0  0  0  0  0  0
  -29.5349  -24.1527   18.8363 C   0  0  0  0  0  0
  -28.7159  -21.3022   20.1696 C   0  0  0  0  0  0
  -28.2885  -25.2444   20.7865 C   0  0  0  0  0  0
  -29.6168  -20.1875   20.8634 C   0  0  1  0  0  0
  -28.4780  -23.9149   19.9340 C   0  0  2  0  0  0
  -29.9171  -15.7730   20.4746 N   0  0  0  0  0  0
  -29.1525  -18.7578   20.7869 N   0  0  0  0  0  0
  -28.8360  -22.6913   20.7695 N   0  3  0  0  0  0
  -31.4601  -12.4734   19.1460 H   0  0  0  0  0  0
  -30.3301  -11.3896   19.9063 H   0  0  0  0  0  0
  -29.7477  -11.7353   17.4793 H   0  0  0  0  0  0
  -29.6400  -13.4591   17.7318 H   0  0  0  0  0  0
  -27.8590  -11.2908   18.8885 H   0  0  0  0  0  0
  -27.3556  -12.5565   17.8011 H   0  0  0  0  0  0
  -27.6569  -14.2563   19.5084 H   0  0  0  0  0  0
  -28.7001  -12.0855   21.3925 H   0  0  0  0  0  0
  -28.4508  -13.7537   21.8244 H   0  0  0  0  0  0
  -25.2759   -9.5674   22.4780 H   0  0  0  0  0  0
  -24.0020   -7.4608   22.7453 H   0  0  0  0  0  0
  -21.0874   -8.8727   19.8930 H   0  0  0  0  0  0
  -22.3686  -10.9660   19.6177 H   0  0  0  0  0  0
  -21.1973   -7.6151   23.9709 H   0  0  0  0  0  0
  -21.1506   -6.0536   25.9081 H   0  0  0  0  0  0
  -22.0592   -2.7615   23.2835 H   0  0  0  0  0  0
  -22.4087  -11.9818   22.4803 H   0  0  0  0  0  0
  -21.1074  -13.1155   22.2649 H   0  0  0  0  0  0
  -24.6696  -15.8556   20.5353 H   0  0  0  0  0  0
  -26.2911  -15.6228   20.1113 H   0  0  0  0  0  0
  -26.7132  -32.5469   23.1117 H   0  0  0  0  0  0
  -25.0067  -33.9735   25.0452 H   0  0  0  0  0  0
  -22.7085  -31.3062   21.4005 H   0  0  0  0  0  0
  -23.3748  -35.9626   23.3315 H   0  0  0  0  0  0
  -24.3578  -36.8928   22.2057 H   0  0  0  0  0  0
  -23.7246  -37.6501   23.6673 H   0  0  0  0  0  0
  -26.0773  -31.5651   20.6005 H   0  0  0  0  0  0
  -26.8320  -30.8549   21.9975 H   0  0  0  0  0  0
  -28.1145  -29.0246   21.1798 H   0  0  0  0  0  0
  -26.0334  -25.9343   19.0097 H   0  0  0  0  0  0
  -23.9826  -27.3046   19.0029 H   0  0  0  0  0  0
  -23.7486  -30.5942   19.4023 H   0  0  0  0  0  0
  -22.7499  -29.2475   19.8572 H   0  0  0  0  0  0
  -25.1289  -36.1945   25.0830 H   0  0  0  0  0  0
  -20.9989  -28.3288   24.1391 H   0  0  0  0  0  0
  -20.5701  -26.2309   23.3602 H   0  0  0  0  0  0
  -21.6652  -26.7478   22.1188 H   0  0  0  0  0  0
  -19.6934  -25.6323   21.1216 H   0  0  0  0  0  0
  -19.6689  -27.3230   20.6750 H   0  0  0  0  0  0
  -17.4211  -26.6692   21.4011 H   0  0  0  0  0  0
  -18.0341  -26.0071   22.9004 H   0  0  0  0  0  0
  -19.7933  -30.7271   24.2288 H   0  0  0  0  0  0
  -17.5010  -31.6271   24.5174 H   0  0  0  0  0  0
  -15.5351  -30.2992   23.7643 H   0  0  0  0  0  0
  -15.8681  -28.0832   22.7044 H   0  0  0  0  0  0
  -24.5974  -30.6957   25.7747 H   0  0  0  0  0  0
  -24.8927  -32.2729   26.4948 H   0  0  0  0  0  0
  -25.8140  -30.8739   27.0172 H   0  0  0  0  0  0
  -26.2900  -29.6694   24.1283 H   0  0  0  0  0  0
  -27.4260  -29.7322   25.4563 H   0  0  0  0  0  0
  -27.8684  -30.4334   23.9201 H   0  0  0  0  0  0
  -27.2749  -33.3613   26.2035 H   0  0  0  0  0  0
  -28.3885  -32.6828   25.0266 H   0  0  0  0  0  0
  -28.0776  -31.8422   26.5366 H   0  0  0  0  0  0
  -28.2588  -38.0097   24.7530 H   0  0  0  0  0  0
  -28.1096  -36.2630   24.6298 H   0  0  0  0  0  0
  -27.2296  -37.1443   25.8872 H   0  0  0  0  0  0
  -20.9354  -29.8734   21.6842 H   0  0  0  0  0  0
  -26.0184  -38.2853   24.1410 H   0  0  0  0  0  0
  -28.2236  -16.2186   21.6377 H   0  0  0  0  0  0
  -29.6418  -15.8153   22.5680 H   0  0  0  0  0  0
  -31.2410  -17.1807   19.6002 H   0  0  0  0  0  0
  -30.1806  -16.3767   18.4746 H   0  0  0  0  0  0
  -30.7196  -17.9825   21.9782 H   0  0  0  0  0  0
  -29.2189  -18.2350   22.8230 H   0  0  0  0  0  0
  -28.2398  -17.6791   19.2690 H   0  0  0  0  0  0
  -29.4729  -18.7494   18.6854 H   0  0  0  0  0  0
  -31.4745  -21.3117   20.6098 H   0  0  0  0  0  0
  -31.2042  -20.1360   19.3418 H   0  0  0  0  0  0
  -31.7418  -19.6152   20.9320 H   0  0  0  0  0  0
  -29.2197  -24.9577   18.1716 H   0  0  0  0  0  0
  -29.6950  -23.2767   18.2087 H   0  0  0  0  0  0
  -30.4956  -24.4456   19.2592 H   0  0  0  0  0  0
  -27.6666  -21.0146   20.2413 H   0  0  0  0  0  0
  -28.9375  -21.3281   19.1033 H   0  0  0  0  0  0
  -29.0958  -25.2793   21.5188 H   0  0  0  0  0  0
  -27.3765  -25.1710   21.3814 H   0  0  0  0  0  0
  -29.5865  -20.4196   21.9303 H   0  0  0  0  0  0
  -27.5252  -23.7079   19.4445 H   0  0  0  0  0  0
  -29.7827  -22.8038   21.0972 H   0  0  0  0  0  0
  -28.2535  -22.6846   21.5942 H   0  0  0  0  0  0
  1 25  1  0  0  0
  1 30  2  0  0  0
  1 81  1  0  0  0
  2  3  1  0  0  0
  2 25  1  0  0  0
  2 84  1  0  0  0
  2 85  1  0  0  0
  3  4  1  0  0  0
  3 86  1  0  0  0
  3 87  1  0  0  0
  4  5  1  0  0  0
  4 88  1  0  0  0
  4 89  1  0  0  0
  5  6  1  0  0  0
  5 26  1  0  0  0
  5 90  1  0  0  0
  6 25  1  0  0  0
  6 91  1  0  0  0
  6 92  1  0  0  0
  7  8  2  0  0  0
  7 26  1  0  0  0
  7 29  1  0  0  0
  8  9  1  0  0  0
  8 22  1  0  0  0
  9 10  1  0  0  0
  9 27  2  0  0  0
 10 11  2  0  0  0
 10 15  1  0  0  0
 11 12  1  0  0  0
 11 93  1  0  0  0
 12 13  2  0  0  0
 12 94  1  0  0  0
 13 14  1  0  0  0
 13 31  1  0  0  0
 14 15  2  0  0  0
 14 95  1  0  0  0
 15 96  1  0  0  0
 16 17  2  0  0  0
 16 21  1  0  0  0
 16 31  1  0  0  0
 17 18  1  0  0  0
 17 97  1  0  0  0
 18 19  2  0  0  0
 18 98  1  0  0  0
 19 20  1  0  0  0
 19 24  1  0  0  0
 20 21  2  0  0  0
 20 99  1  0  0  0
 21 23  1  0  0  0
 22 28  1  0  0  0
 22 32  2  0  0  0
 26 27  1  0  0  0
 28100  1  0  0  0
 28101  1  0  0  0
 29102  1  0  0  0
 29103  1  0  0  0
 33 34  1  0  0  0
 33 66  1  0  0  0
 33 70  2  0  0  0
 34 36  1  0  0  0
 34 59  1  0  0  0
 34104  1  0  0  0
 35 44  2  0  0  0
 35 45  1  0  0  0
 35 68  1  0  0  0
 36 56  1  0  0  0
 36105  1  0  0  0
 37 39  1  0  0  0
 37 47  1  0  0  0
 37 66  1  0  0  0
 37106  1  0  0  0
 38 43  2  0  0  0
 38 46  1  0  0  0
 38 47  1  0  0  0
 39 64  1  0  0  0
 39 67  2  0  0  0
 40 52  1  0  0  0
 40 53  2  0  0  0
 40 58  1  0  0  0
 41107  1  0  0  0
 41108  1  0  0  0
 41109  1  0  0  0
 41 48  1  0  0  0
 42 43  1  0  0  0
 42 66  1  0  0  0
 42110  1  0  0  0
 42111  1  0  0  0
 43 44  1  0  0  0
 44112  1  0  0  0
 45 46  2  0  0  0
 45113  1  0  0  0
 46114  1  0  0  0
 47115  1  0  0  0
 47116  1  0  0  0
 48 56  1  0  0  0
 48 65  1  0  0  0
 48117  1  0  0  0
 49 50  1  0  0  0
 49 53  1  0  0  0
 49 64  1  0  0  0
 49118  1  0  0  0
 50 51  1  0  0  0
 50119  1  0  0  0
 50120  1  0  0  0
 51 52  1  0  0  0
 51121  1  0  0  0
 51122  1  0  0  0
 52123  1  0  0  0
 52124  1  0  0  0
 53 54  1  0  0  0
 54 55  2  0  0  0
 54125  1  0  0  0
 55 57  1  0  0  0
 55126  1  0  0  0
 56 69  2  0  0  0
 57 58  2  0  0  0
 57127  1  0  0  0
 58128  1  0  0  0
 59 60  1  0  0  0
 59 61  1  0  0  0
 59 62  1  0  0  0
 60129  1  0  0  0
 60130  1  0  0  0
 60131  1  0  0  0
 61132  1  0  0  0
 61133  1  0  0  0
 61134  1  0  0  0
 62135  1  0  0  0
 62136  1  0  0  0
 62137  1  0  0  0
 63 65  1  0  0  0
 63138  1  0  0  0
 63139  1  0  0  0
 63140  1  0  0  0
 64141  1  0  0  0
 65142  1  0  0  0
 68 78  1  0  0  0
 71 73  1  0  0  0
 71 81  1  0  0  0
 71143  1  0  0  0
 71144  1  0  0  0
 72 74  1  0  0  0
 72 81  1  0  0  0
 72145  1  0  0  0
 72146  1  0  0  0
 73 82  1  0  0  0
 73147  1  0  0  0
 73148  1  0  0  0
 74 82  1  0  0  0
 74149  1  0  0  0
 74150  1  0  0  0
 75151  1  0  0  0
 75152  1  0  0  0
 75153  1  0  0  0
 75 79  1  0  0  0
 76154  1  0  0  0
 76155  1  0  0  0
 76156  1  0  0  0
 76 80  1  0  0  0
 77 79  1  0  0  0
 77 83  1  0  0  0
 77157  1  0  0  0
 77158  1  0  0  0
 78 80  1  0  0  0
 78159  1  0  0  0
 78160  1  0  0  0
 79 82  1  0  0  0
 79161  1  0  0  0
 80 83  1  0  0  0
 80162  1  0  0  0
 83163  1  0  0  0
 83164  1  0  0  0
M  CHG  1  83   1
M  ISO  4   1 100  68 101  78 101  81 100
M  END
> <chiral flag>
0

> <version>
0

> <s_m_source_file>
/data/baiqing/PycharmProjects/Reinvent-master-3.2/result/LINK_invent/BTK/process_docking_weight1_custom_sum_contain_oxygen_bond_distance_aromatic_linkinvent_7_9_3/rearranged_h_0196.sdf

> <i_m_source_file_index>
19

> <r_mmod_Potential_Energy-OPLS-2005>
168.279876708984

> <r_mmod_Stretch_Energy-OPLS-2005>
74.5205841064453

> <r_mmod_Bend_Energy-OPLS-2005>
143.620391845703

> <r_mmod_Torsional_Energy-OPLS-2005>
404.565948486328

> <r_mmod_Improper_Torsional_Energy-OPLS-2005>
16.3022689819336

> <r_mmod_Van_der_Waal_Energy-OPLS-2005>
131.745697021484

> <r_mmod_Electrostatic_Energy-OPLS-2005>
-207.803771972656

> <r_mmod_Solvation_Energy-OPLS-2005>
-433.553558349609

> <b_mmod_Minimization_Converged-OPLS-2005>
0

> <r_mmod_RMS_Derivative-OPLS-2005>
2.28259634971619

$$$$
19
                    3D
 Structure written by MMmdl.
169178  0  0  1  0            999 V2000
  -30.5981  -14.6069   20.6763 C   0  0  0  0  0  0
  -30.4422  -12.4421   19.4888 C   0  0  0  0  0  0
  -29.5246  -12.5413   18.2484 C   0  0  0  0  0  0
  -28.0409  -12.3507   18.6301 C   0  0  0  0  0  0
  -27.6396  -13.1937   19.8697 C   0  0  2  0  0  0
  -28.6581  -13.0048   21.0136 C   0  0  0  0  0  0
  -25.2557  -13.7989   20.5781 C   0  0  0  0  0  0
  -24.1714  -13.0093   20.9337 C   0  0  0  0  0  0
  -24.6373  -11.6747   20.8774 C   0  0  0  0  0  0
  -23.9018  -10.4053   21.0458 C   0  0  0  0  0  0
  -24.3542   -9.3931   21.9196 C   0  0  0  0  0  0
  -23.6155   -8.1984   22.0736 C   0  0  0  0  0  0
  -22.4166   -8.0112   21.3509 C   0  0  0  0  0  0
  -21.9849   -9.0085   20.4629 C   0  0  0  0  0  0
  -22.7231  -10.1967   20.3068 C   0  0  0  0  0  0
  -21.6714   -6.0655   22.5339 C   0  0  0  0  0  0
  -21.3926   -6.5553   23.8291 C   0  0  0  0  0  0
  -21.3705   -5.6729   24.9262 C   0  0  0  0  0  0
  -21.6071   -4.2990   24.7294 C   0  0  0  0  0  0
  -21.8777   -3.8069   23.4410 C   0  0  0  0  0  0
  -21.9109   -4.6879   22.3456 C   0  0  0  0  0  0
  -22.7847  -13.5119   21.1903 C   0  0  0  0  0  0
  -22.1572   -4.2084   21.1029 F   0  0  0  0  0  0
  -21.5709   -3.4491   25.7806 F   0  0  0  0  0  0
  -29.9665  -13.4120   20.4950 N   0  0  0  0  0  0
  -26.2852  -12.9070   20.3233 N   0  0  0  0  0  0
  -25.9243  -11.6282   20.5630 N   0  0  0  0  0  0
  -22.0314  -12.8104   22.0524 N   0  0  0  0  0  0
  -25.4166  -15.1622   20.4270 N   0  0  0  0  0  0
  -31.7372  -14.7841   20.2316 O   0  0  0  0  0  0
  -21.6429   -6.8781   21.4305 O   0  0  0  0  0  0
  -22.3603  -14.5341   20.6759 O   0  0  0  0  0  0
  -24.5857  -31.8489   23.2188 C   0  0  0  0  0  0
  -25.8910  -32.4591   23.8232 C   0  0  1  0  0  0
  -27.1343  -27.3857   20.1427 C   0  0  0  0  0  0
  -25.5963  -33.8348   24.2175 N   0  0  0  0  0  0
  -23.3325  -30.4753   21.5584 C   0  0  2  0  0  0
  -24.8192  -29.0025   20.1062 C   0  0  0  0  0  0
  -22.6730  -29.4670   22.5008 C   0  0  0  0  0  0
  -17.8221  -28.1609   22.8995 C   0  0  0  0  0  0
  -24.1501  -36.7221   23.2602 C   0  0  0  0  0  0
  -25.9162  -30.8039   21.4225 C   0  0  0  0  0  0
  -26.0155  -29.4515   20.7397 C   0  0  0  0  0  0
  -27.2049  -28.6485   20.8179 C   0  0  0  0  0  0
  -26.1083  -27.2219   19.2052 C   0  0  0  0  0  0
  -24.8593  -27.8376   19.3334 C   0  0  0  0  0  0
  -23.5884  -29.8679   20.1595 C   0  0  0  0  0  0
  -25.4114  -36.2906   24.0266 C   0  0  1  0  0  0
  -20.4480  -28.4122   23.2232 C   0  0  2  0  0  0
  -20.5617  -27.0221   22.5640 C   0  0  0  0  0  0
  -19.3661  -26.7481   21.5689 C   0  0  0  0  0  0
  -17.9533  -26.9026   22.0624 C   0  0  0  0  0  0
  -18.9842  -28.8429   23.3419 C   0  0  0  0  0  0
  -18.7855  -30.1408   23.8684 C   0  0  0  0  0  0
  -17.5300  -30.6500   24.0910 C   0  0  0  0  0  0
  -25.9112  -34.9228   23.5020 C   0  0  0  0  0  0
  -16.3859  -29.9386   23.7068 C   0  0  0  0  0  0
  -16.5395  -28.7085   23.0960 C   0  0  0  0  0  0
  -26.4381  -31.6491   25.0594 C   0  0  0  0  0  0
  -25.3641  -31.3720   26.1429 C   0  0  0  0  0  0
  -27.0356  -30.2821   24.6420 C   0  0  0  0  0  0
  -27.5945  -32.4235   25.7475 C   0  0  0  0  0  0
  -27.5605  -37.1717   24.8423 C   0  0  0  0  0  0
  -21.3191  -29.3155   22.4436 N   0  0  0  0  0  0
  -26.4258  -37.3631   23.9448 N   0  0  0  0  0  0
  -24.6071  -31.0661   22.1029 N   0  0  0  0  0  0
  -23.3261  -28.8217   23.2852 O   0  0  0  0  0  0
  -27.1908  -26.2256   20.9055 O   0  0  0  0  0  0
  -26.5657  -34.8717   22.4597 O   0  0  0  0  0  0
  -23.5170  -32.1454   23.7951 O   0  0  0  0  0  0
  -23.8891  -24.4080   22.1852 C   0  0  0  0  0  0
  -24.1719  -25.7319   21.5168 C   0  0  0  0  0  0
  -28.9684  -15.8940   22.1925 C   0  0  0  0  0  0
  -30.1882  -16.9697   20.3222 C   0  0  0  0  0  0
  -28.7585  -17.3544   22.6400 C   0  0  0  0  0  0
  -29.0460  -17.9595   20.2074 C   0  0  0  0  0  0
  -25.5223  -24.4132   22.4046 C   0  0  2  0  0  0
  -25.7703  -25.5719   21.2945 C   0  0  2  0  0  0
  -27.6201  -20.1023   22.7157 C   0  0  0  0  0  0
  -26.6482  -20.9549   21.9286 C   0  0  0  0  0  0
  -28.7077  -19.6460   21.8531 C   0  0  0  0  0  0
  -26.6647  -22.2512   22.7262 C   0  0  0  0  0  0
  -29.8167  -15.7025   20.9871 N   0  0  0  0  0  0
  -28.4318  -18.2698   21.5119 N   0  3  0  0  0  0
  -25.7585  -23.0583   21.9908 N   0  3  0  0  0  0
  -31.4774  -12.6239   19.1922 H   0  0  0  0  0  0
  -30.4368  -11.4397   19.9156 H   0  0  0  0  0  0
  -29.8258  -11.8050   17.5024 H   0  0  0  0  0  0
  -29.6545  -13.5152   17.7767 H   0  0  0  0  0  0
  -27.8820  -11.2904   18.8253 H   0  0  0  0  0  0
  -27.4025  -12.5971   17.7849 H   0  0  0  0  0  0
  -27.6581  -14.2344   19.5523 H   0  0  0  0  0  0
  -28.7005  -11.9738   21.3621 H   0  0  0  0  0  0
  -28.3438  -13.5400   21.9007 H   0  0  0  0  0  0
  -25.2689   -9.5242   22.4827 H   0  0  0  0  0  0
  -23.9771   -7.4306   22.7422 H   0  0  0  0  0  0
  -21.0786   -8.8613   19.8898 H   0  0  0  0  0  0
  -22.3710  -10.9483   19.6160 H   0  0  0  0  0  0
  -21.1851   -7.6055   23.9809 H   0  0  0  0  0  0
  -21.1655   -6.0448   25.9201 H   0  0  0  0  0  0
  -22.0532   -2.7523   23.2932 H   0  0  0  0  0  0
  -22.3724  -11.9799   22.5025 H   0  0  0  0  0  0
  -21.1018  -13.1402   22.2630 H   0  0  0  0  0  0
  -24.5460  -15.6909   20.4143 H   0  0  0  0  0  0
  -26.0622  -15.4727   19.7028 H   0  0  0  0  0  0
  -26.6913  -32.5125   23.0932 H   0  0  0  0  0  0
  -25.0205  -33.9433   25.0390 H   0  0  0  0  0  0
  -22.5842  -31.2417   21.4354 H   0  0  0  0  0  0
  -23.3771  -35.9536   23.3107 H   0  0  0  0  0  0
  -24.3690  -36.9034   22.2074 H   0  0  0  0  0  0
  -23.7312  -37.6346   23.6810 H   0  0  0  0  0  0
  -26.1346  -31.5345   20.6450 H   0  0  0  0  0  0
  -26.7807  -30.7755   22.1094 H   0  0  0  0  0  0
  -27.8883  -28.7665   21.6978 H   0  0  0  0  0  0
  -26.3275  -26.9495   18.1998 H   0  0  0  0  0  0
  -24.0180  -27.5169   18.6814 H   0  0  0  0  0  0
  -23.9188  -30.6753   19.4807 H   0  0  0  0  0  0
  -22.7018  -29.4100   19.6692 H   0  0  0  0  0  0
  -25.1328  -36.1586   25.0732 H   0  0  0  0  0  0
  -20.7712  -28.3701   24.2971 H   0  0  0  0  0  0
  -20.6131  -26.2313   23.2814 H   0  0  0  0  0  0
  -21.4816  -26.8360   22.0294 H   0  0  0  0  0  0
  -19.4180  -25.8742   20.9024 H   0  0  0  0  0  0
  -19.5646  -27.6349   20.9463 H   0  0  0  0  0  0
  -17.3730  -27.0951   21.1554 H   0  0  0  0  0  0
  -17.2208  -26.0936   22.3147 H   0  0  0  0  0  0
  -19.6420  -30.6821   24.1583 H   0  0  0  0  0  0
  -17.4547  -31.6374   24.5810 H   0  0  0  0  0  0
  -15.4085  -30.2697   23.9378 H   0  0  0  0  0  0
  -15.6522  -28.1440   22.7103 H   0  0  0  0  0  0
  -24.5724  -30.7177   25.7814 H   0  0  0  0  0  0
  -24.8976  -32.2957   26.4823 H   0  0  0  0  0  0
  -25.7870  -30.8849   27.0301 H   0  0  0  0  0  0
  -26.3079  -29.6405   24.1490 H   0  0  0  0  0  0
  -27.4025  -29.7196   25.5103 H   0  0  0  0  0  0
  -27.8926  -30.4004   23.9792 H   0  0  0  0  0  0
  -27.2523  -33.3582   26.2084 H   0  0  0  0  0  0
  -28.3856  -32.6809   25.0329 H   0  0  0  0  0  0
  -28.0669  -31.8357   26.5509 H   0  0  0  0  0  0
  -28.2379  -38.0235   24.7707 H   0  0  0  0  0  0
  -28.1345  -36.2784   24.5921 H   0  0  0  0  0  0
  -27.2406  -37.0945   25.8823 H   0  0  0  0  0  0
  -20.8341  -29.7834   21.7343 H   0  0  0  0  0  0
  -26.0059  -38.2618   24.1568 H   0  0  0  0  0  0
  -23.4378  -23.6939   21.5060 H   0  0  0  0  0  0
  -23.3617  -24.2736   23.1591 H   0  0  0  0  0  0
  -23.8789  -26.3186   22.3739 H   0  0  0  0  0  0
  -23.4284  -26.0283   20.7731 H   0  0  0  0  0  0
  -27.9494  -15.5556   21.9893 H   0  0  0  0  0  0
  -29.3355  -15.3184   23.0518 H   0  0  0  0  0  0
  -30.9824  -17.4681   20.8913 H   0  0  0  0  0  0
  -30.5272  -16.8320   19.2962 H   0  0  0  0  0  0
  -29.6320  -17.7269   23.1707 H   0  0  0  0  0  0
  -27.9612  -17.4144   23.3842 H   0  0  0  0  0  0
  -28.2590  -17.6906   19.5027 H   0  0  0  0  0  0
  -29.5148  -18.8362   19.7486 H   0  0  0  0  0  0
  -25.8093  -24.6566   23.3977 H   0  0  0  0  0  0
  -25.5878  -26.6137   21.7392 H   0  0  0  0  0  0
  -27.1413  -19.3970   23.3712 H   0  0  0  0  0  0
  -28.1445  -20.6977   23.4308 H   0  0  0  0  0  0
  -25.6744  -20.4533   21.8172 H   0  0  0  0  0  0
  -26.9022  -21.1289   20.8656 H   0  0  0  0  0  0
  -29.6891  -19.8386   22.3001 H   0  0  0  0  0  0
  -28.7283  -20.2611   20.9534 H   0  0  0  0  0  0
  -27.7528  -22.5833   22.7429 H   0  0  0  0  0  0
  -26.3201  -21.9630   23.7508 H   0  0  0  0  0  0
  -27.4321  -18.1785   21.3779 H   0  0  0  0  0  0
  -25.9359  -22.8318   21.0276 H   0  0  0  0  0  0
  -24.8865  -22.6284   22.2104 H   0  0  0  0  0  0
  1 25  1  0  0  0
  1 30  2  0  0  0
  1 83  1  0  0  0
  2  3  1  0  0  0
  2 25  1  0  0  0
  2 86  1  0  0  0
  2 87  1  0  0  0
  3  4  1  0  0  0
  3 88  1  0  0  0
  3 89  1  0  0  0
  4  5  1  0  0  0
  4 90  1  0  0  0
  4 91  1  0  0  0
  5  6  1  0  0  0
  5 26  1  0  0  0
  5 92  1  0  0  0
  6 25  1  0  0  0
  6 93  1  0  0  0
  6 94  1  0  0  0
  7  8  2  0  0  0
  7 26  1  0  0  0
  7 29  1  0  0  0
  8  9  1  0  0  0
  8 22  1  0  0  0
  9 10  1  0  0  0
  9 27  2  0  0  0
 10 11  2  0  0  0
 10 15  1  0  0  0
 11 12  1  0  0  0
 11 95  1  0  0  0
 12 13  2  0  0  0
 12 96  1  0  0  0
 13 14  1  0  0  0
 13 31  1  0  0  0
 14 15  2  0  0  0
 14 97  1  0  0  0
 15 98  1  0  0  0
 16 17  2  0  0  0
 16 21  1  0  0  0
 16 31  1  0  0  0
 17 18  1  0  0  0
 17 99  1  0  0  0
 18 19  2  0  0  0
 18100  1  0  0  0
 19 20  1  0  0  0
 19 24  1  0  0  0
 20 21  2  0  0  0
 20101  1  0  0  0
 21 23  1  0  0  0
 22 28  1  0  0  0
 22 32  2  0  0  0
 26 27  1  0  0  0
 28102  1  0  0  0
 28103  1  0  0  0
 29104  1  0  0  0
 29105  1  0  0  0
 33 34  1  0  0  0
 33 66  1  0  0  0
 33 70  2  0  0  0
 34 36  1  0  0  0
 34 59  1  0  0  0
 34106  1  0  0  0
 35 44  2  0  0  0
 35 45  1  0  0  0
 35 68  1  0  0  0
 36 56  1  0  0  0
 36107  1  0  0  0
 37 39  1  0  0  0
 37 47  1  0  0  0
 37 66  1  0  0  0
 37108  1  0  0  0
 38 43  2  0  0  0
 38 46  1  0  0  0
 38 47  1  0  0  0
 39 64  1  0  0  0
 39 67  2  0  0  0
 40 52  1  0  0  0
 40 53  2  0  0  0
 40 58  1  0  0  0
 41109  1  0  0  0
 41110  1  0  0  0
 41111  1  0  0  0
 41 48  1  0  0  0
 42 43  1  0  0  0
 42 66  1  0  0  0
 42112  1  0  0  0
 42113  1  0  0  0
 43 44  1  0  0  0
 44114  1  0  0  0
 45 46  2  0  0  0
 45115  1  0  0  0
 46116  1  0  0  0
 47117  1  0  0  0
 47118  1  0  0  0
 48 56  1  0  0  0
 48 65  1  0  0  0
 48119  1  0  0  0
 49 50  1  0  0  0
 49 53  1  0  0  0
 49 64  1  0  0  0
 49120  1  0  0  0
 50 51  1  0  0  0
 50121  1  0  0  0
 50122  1  0  0  0
 51 52  1  0  0  0
 51123  1  0  0  0
 51124  1  0  0  0
 52125  1  0  0  0
 52126  1  0  0  0
 53 54  1  0  0  0
 54 55  2  0  0  0
 54127  1  0  0  0
 55 57  1  0  0  0
 55128  1  0  0  0
 56 69  2  0  0  0
 57 58  2  0  0  0
 57129  1  0  0  0
 58130  1  0  0  0
 59 60  1  0  0  0
 59 61  1  0  0  0
 59 62  1  0  0  0
 60131  1  0  0  0
 60132  1  0  0  0
 60133  1  0  0  0
 61134  1  0  0  0
 61135  1  0  0  0
 61136  1  0  0  0
 62137  1  0  0  0
 62138  1  0  0  0
 62139  1  0  0  0
 63 65  1  0  0  0
 63140  1  0  0  0
 63141  1  0  0  0
 63142  1  0  0  0
 64143  1  0  0  0
 65144  1  0  0  0
 68 78  1  0  0  0
 71 72  1  0  0  0
 71 77  1  0  0  0
 71145  1  0  0  0
 71146  1  0  0  0
 72 78  1  0  0  0
 72147  1  0  0  0
 72148  1  0  0  0
 73 75  1  0  0  0
 73 83  1  0  0  0
 73149  1  0  0  0
 73150  1  0  0  0
 74 76  1  0  0  0
 74 83  1  0  0  0
 74151  1  0  0  0
 74152  1  0  0  0
 75 84  1  0  0  0
 75153  1  0  0  0
 75154  1  0  0  0
 76 84  1  0  0  0
 76155  1  0  0  0
 76156  1  0  0  0
 77 78  1  0  0  0
 77 85  1  0  0  0
 77157  1  0  0  0
 78158  1  0  0  0
 79 80  1  0  0  0
 79 81  1  0  0  0
 79159  1  0  0  0
 79160  1  0  0  0
 80 82  1  0  0  0
 80161  1  0  0  0
 80162  1  0  0  0
 81163  1  0  0  0
 81164  1  0  0  0
 81 84  1  0  0  0
 82 85  1  0  0  0
 82165  1  0  0  0
 82166  1  0  0  0
 84167  1  0  0  0
 85168  1  0  0  0
 85169  1  0  0  0
M  CHG  2  84   1  85   1
M  ISO  4   1 100  68 101  78 101  83 100
M  END
> <chiral flag>
0

> <version>
0

> <s_m_source_file>
/data/baiqing/PycharmProjects/Reinvent-master-3.2/result/LINK_invent/BTK/process_docking_weight1_custom_sum_contain_oxygen_bond_distance_aromatic_linkinvent_7_9_3/rearranged_h_0196.sdf

> <i_m_source_file_index>
20

> <r_mmod_Potential_Energy-OPLS-2005>
1204.01123046875

> <r_mmod_Stretch_Energy-OPLS-2005>
190.968338012695

> <r_mmod_Bend_Energy-OPLS-2005>
601.117309570312

> <r_mmod_Torsional_Energy-OPLS-2005>
645.920471191406

> <r_mmod_Improper_Torsional_Energy-OPLS-2005>
38.4002532958984

> <r_mmod_Van_der_Waal_Energy-OPLS-2005>
212.37614440918

> <r_mmod_Electrostatic_Energy-OPLS-2005>
92.4881134033203

> <r_mmod_Solvation_Energy-OPLS-2005>
-927.399780273438

> <b_mmod_Minimization_Converged-OPLS-2005>
0

> <r_mmod_RMS_Derivative-OPLS-2005>
92.2028961181641

$$$$
20
                    3D
 Structure written by MMmdl.
156165  0  0  1  0            999 V2000
  -30.5935  -14.8304   20.4384 C   0  0  0  0  0  0
  -30.4398  -12.5048   19.5035 C   0  0  0  0  0  0
  -29.5253  -12.5104   18.2571 C   0  0  0  0  0  0
  -28.0518  -12.3246   18.6658 C   0  0  0  0  0  0
  -27.6402  -13.2400   19.8492 C   0  0  2  0  0  0
  -28.6816  -13.2214   20.9911 C   0  0  0  0  0  0
  -25.2490  -13.8198   20.5690 C   0  0  0  0  0  0
  -24.1794  -13.0433   20.9202 C   0  0  0  0  0  0
  -24.6394  -11.6917   20.8742 C   0  0  0  0  0  0
  -23.9072  -10.4286   21.0399 C   0  0  0  0  0  0
  -24.3616   -9.4204   21.9178 C   0  0  0  0  0  0
  -23.6287   -8.2245   22.0753 C   0  0  0  0  0  0
  -22.4268   -8.0281   21.3547 C   0  0  0  0  0  0
  -21.9903   -9.0254   20.4652 C   0  0  0  0  0  0
  -22.7243  -10.2133   20.3054 C   0  0  0  0  0  0
  -21.6860   -6.0730   22.5270 C   0  0  0  0  0  0
  -21.4023   -6.5630   23.8208 C   0  0  0  0  0  0
  -21.3658   -5.6784   24.9165 C   0  0  0  0  0  0
  -21.6050   -4.3047   24.7220 C   0  0  0  0  0  0
  -21.8819   -3.8142   23.4337 C   0  0  0  0  0  0
  -21.9194   -4.6954   22.3396 C   0  0  0  0  0  0
  -22.7813  -13.5216   21.1855 C   0  0  0  0  0  0
  -22.1661   -4.2142   21.0972 F   0  0  0  0  0  0
  -21.5627   -3.4535   25.7732 F   0  0  0  0  0  0
  -29.9794  -13.5896   20.4095 N   0  0  0  0  0  0
  -26.2931  -12.9421   20.3274 N   0  0  0  0  0  0
  -25.9336  -11.6559   20.5742 N   0  0  0  0  0  0
  -22.0452  -12.8211   22.0410 N   0  0  0  0  0  0
  -25.4150  -15.1929   20.4082 N   0  0  0  0  0  0
  -31.7725  -14.9177   20.0890 O   0  0  0  0  0  0
  -21.6636   -6.8871   21.4235 O   0  0  0  0  0  0
  -22.3498  -14.5520   20.6695 O   0  0  0  0  0  0
  -24.6376  -31.8513   23.1958 C   0  0  0  0  0  0
  -25.9186  -32.4729   23.8310 C   0  0  1  0  0  0
  -27.2122  -27.1991   20.1235 C   0  0  0  0  0  0
  -25.5961  -33.8530   24.2238 N   0  0  0  0  0  0
  -23.4365  -30.4754   21.5421 C   0  0  2  0  0  0
  -24.8842  -28.9235   20.1054 C   0  0  0  0  0  0
  -22.7537  -29.4586   22.4902 C   0  0  0  0  0  0
  -18.0295  -28.1392   22.8469 C   0  0  0  0  0  0
  -24.1501  -36.7276   23.2631 C   0  0  0  0  0  0
  -25.9889  -30.7430   21.3885 C   0  0  0  0  0  0
  -26.0588  -29.3611   20.7292 C   0  0  0  0  0  0
  -27.2209  -28.5089   20.7367 C   0  0  0  0  0  0
  -26.0197  -26.8771   19.4284 C   0  0  0  0  0  0
  -24.8743  -27.6919   19.4426 C   0  0  0  0  0  0
  -23.6573  -29.8154   20.1568 C   0  0  0  0  0  0
  -25.4122  -36.3052   24.0319 C   0  0  1  0  0  0
  -20.5903  -28.3708   23.1258 C   0  0  2  0  0  0
  -20.6781  -26.9422   22.5405 C   0  0  0  0  0  0
  -19.5763  -26.6393   21.5200 C   0  0  0  0  0  0
  -18.1940  -26.7937   22.1606 C   0  0  0  0  0  0
  -19.1547  -28.8867   23.2859 C   0  0  0  0  0  0
  -18.9461  -30.1464   23.8881 C   0  0  0  0  0  0
  -17.6461  -30.6582   24.0565 C   0  0  0  0  0  0
  -25.9065  -34.9425   23.5083 C   0  0  0  0  0  0
  -16.5353  -29.9076   23.6338 C   0  0  0  0  0  0
  -16.7282  -28.6503   23.0340 C   0  0  0  0  0  0
  -26.4524  -31.6554   25.0714 C   0  0  0  0  0  0
  -25.3728  -31.3723   26.1422 C   0  0  0  0  0  0
  -27.0359  -30.2954   24.6236 C   0  0  0  0  0  0
  -27.6084  -32.4277   25.7496 C   0  0  0  0  0  0
  -27.5589  -37.1789   24.8449 C   0  0  0  0  0  0
  -21.4236  -29.3053   22.3651 N   0  0  0  0  0  0
  -26.4286  -37.3764   23.9413 N   0  0  0  0  0  0
  -24.7076  -31.0415   22.0982 N   0  0  0  0  0  0
  -23.4215  -28.8116   23.3010 O   0  0  0  0  0  0
  -28.2585  -26.2208   20.2187 O   0  0  0  0  0  0
  -26.5633  -34.8913   22.4650 O   0  0  0  0  0  0
  -23.5512  -32.1366   23.7211 O   0  0  0  0  0  0
  -29.7044  -22.0335   21.6709 C   0  0  0  0  0  0
  -29.3763  -23.3759   21.5325 C   0  0  0  0  0  0
  -29.2366  -21.3786   20.4947 C   0  0  0  0  0  0
  -29.7082  -18.7574   21.0863 C   0  0  0  0  0  0
  -29.3173  -19.4438   18.8405 C   0  0  0  0  0  0
  -30.0914  -17.4653   20.1810 C   0  0  2  0  0  0
  -29.2906  -17.8832   18.9201 C   0  0  2  0  0  0
  -27.9661  -24.8182   19.7702 C   0  0  0  0  0  0
  -28.6667  -22.3306   19.6983 N   0  0  0  0  0  0
  -28.7256  -23.5901   20.3253 N   0  0  0  0  0  0
  -29.3705  -19.9473   20.2078 N   0  0  0  0  0  0
  -29.8240  -15.9904   20.6100 N   0  0  0  0  0  0
  -29.7438  -17.2318   17.6797 N   0  3  0  0  0  0
  -31.4824  -12.6279   19.2042 H   0  0  0  0  0  0
  -30.3922  -11.5408   20.0121 H   0  0  0  0  0  0
  -29.8245  -11.7215   17.5660 H   0  0  0  0  0  0
  -29.6441  -13.4508   17.7175 H   0  0  0  0  0  0
  -27.9209  -11.2797   18.9489 H   0  0  0  0  0  0
  -27.3963  -12.4905   17.8100 H   0  0  0  0  0  0
  -27.6211  -14.2519   19.4456 H   0  0  0  0  0  0
  -28.7318  -12.2368   21.4578 H   0  0  0  0  0  0
  -28.3997  -13.9200   21.7804 H   0  0  0  0  0  0
  -25.2764   -9.5687   22.4754 H   0  0  0  0  0  0
  -23.9996   -7.4636   22.7483 H   0  0  0  0  0  0
  -21.0834   -8.8786   19.8959 H   0  0  0  0  0  0
  -22.3703  -10.9668   19.6166 H   0  0  0  0  0  0
  -21.2022   -7.6141   23.9707 H   0  0  0  0  0  0
  -21.1481   -6.0512   25.9069 H   0  0  0  0  0  0
  -22.0599   -2.7605   23.2842 H   0  0  0  0  0  0
  -22.4051  -11.9867   22.4806 H   0  0  0  0  0  0
  -21.1085  -13.1259   22.2612 H   0  0  0  0  0  0
  -24.6401  -15.8391   20.5124 H   0  0  0  0  0  0
  -26.2495  -15.6333   20.0462 H   0  0  0  0  0  0
  -26.7256  -32.5364   23.1047 H   0  0  0  0  0  0
  -25.0111  -33.9657   25.0388 H   0  0  0  0  0  0
  -22.7365  -31.3006   21.3967 H   0  0  0  0  0  0
  -23.3769  -35.9598   23.3243 H   0  0  0  0  0  0
  -24.3613  -36.8947   22.2056 H   0  0  0  0  0  0
  -23.7240  -37.6458   23.6686 H   0  0  0  0  0  0
  -26.1320  -31.5004   20.6164 H   0  0  0  0  0  0
  -26.8651  -30.7952   22.0225 H   0  0  0  0  0  0
  -28.1088  -28.8294   21.2627 H   0  0  0  0  0  0
  -25.9164  -25.9621   18.8667 H   0  0  0  0  0  0
  -23.9834  -27.3630   18.9252 H   0  0  0  0  0  0
  -23.7848  -30.5941   19.4039 H   0  0  0  0  0  0
  -22.7741  -29.2517   19.8499 H   0  0  0  0  0  0
  -25.1302  -36.1885   25.0807 H   0  0  0  0  0  0
  -20.9987  -28.3284   24.1385 H   0  0  0  0  0  0
  -20.5666  -26.2317   23.3610 H   0  0  0  0  0  0
  -21.6655  -26.7443   22.1210 H   0  0  0  0  0  0
  -19.6928  -25.6306   21.1226 H   0  0  0  0  0  0
  -19.6699  -27.3206   20.6732 H   0  0  0  0  0  0
  -17.4214  -26.6684   21.4003 H   0  0  0  0  0  0
  -18.0340  -26.0082   22.9004 H   0  0  0  0  0  0
  -19.7936  -30.7280   24.2252 H   0  0  0  0  0  0
  -17.5010  -31.6259   24.5174 H   0  0  0  0  0  0
  -15.5351  -30.2959   23.7676 H   0  0  0  0  0  0
  -15.8689  -28.0816   22.7052 H   0  0  0  0  0  0
  -24.5939  -30.7030   25.7756 H   0  0  0  0  0  0
  -24.8873  -32.2885   26.4786 H   0  0  0  0  0  0
  -25.8033  -30.8956   27.0236 H   0  0  0  0  0  0
  -26.2945  -29.6696   24.1254 H   0  0  0  0  0  0
  -27.4002  -29.7231   25.4775 H   0  0  0  0  0  0
  -27.8849  -30.4193   23.9512 H   0  0  0  0  0  0
  -27.2725  -33.3610   26.2027 H   0  0  0  0  0  0
  -28.3931  -32.6764   25.0341 H   0  0  0  0  0  0
  -28.0705  -31.8408   26.5444 H   0  0  0  0  0  0
  -28.2560  -38.0130   24.7548 H   0  0  0  0  0  0
  -28.1131  -36.2662   24.6199 H   0  0  0  0  0  0
  -27.2325  -37.1356   25.8854 H   0  0  0  0  0  0
  -20.9430  -29.8794   21.6864 H   0  0  0  0  0  0
  -26.0151  -38.2830   24.1426 H   0  0  0  0  0  0
  -30.2071  -21.5891   22.5170 H   0  0  0  0  0  0
  -29.5261  -24.1972   22.2186 H   0  0  0  0  0  0
  -30.5200  -19.0090   21.7699 H   0  0  0  0  0  0
  -28.8342  -18.5378   21.7007 H   0  0  0  0  0  0
  -28.4468  -19.8307   18.3091 H   0  0  0  0  0  0
  -30.2070  -19.7943   18.3153 H   0  0  0  0  0  0
  -31.1561  -17.5520   19.9556 H   0  0  0  0  0  0
  -28.2508  -17.5892   19.0783 H   0  0  0  0  0  0
  -26.9360  -24.5786   20.0310 H   0  0  0  0  0  0
  -28.0521  -24.7914   18.6823 H   0  0  0  0  0  0
  -28.8878  -15.8156   20.9430 H   0  0  0  0  0  0
  -30.6974  -17.4693   17.4731 H   0  0  0  0  0  0
  -29.1704  -17.5269   16.9091 H   0  0  0  0  0  0
  -29.6738  -16.2347   17.7558 H   0  0  0  0  0  0
  1 25  1  0  0  0
  1 30  2  0  0  0
  1 82  1  0  0  0
  2  3  1  0  0  0
  2 25  1  0  0  0
  2 84  1  0  0  0
  2 85  1  0  0  0
  3  4  1  0  0  0
  3 86  1  0  0  0
  3 87  1  0  0  0
  4  5  1  0  0  0
  4 88  1  0  0  0
  4 89  1  0  0  0
  5  6  1  0  0  0
  5 26  1  0  0  0
  5 90  1  0  0  0
  6 25  1  0  0  0
  6 91  1  0  0  0
  6 92  1  0  0  0
  7  8  2  0  0  0
  7 26  1  0  0  0
  7 29  1  0  0  0
  8  9  1  0  0  0
  8 22  1  0  0  0
  9 10  1  0  0  0
  9 27  2  0  0  0
 10 11  2  0  0  0
 10 15  1  0  0  0
 11 12  1  0  0  0
 11 93  1  0  0  0
 12 13  2  0  0  0
 12 94  1  0  0  0
 13 14  1  0  0  0
 13 31  1  0  0  0
 14 15  2  0  0  0
 14 95  1  0  0  0
 15 96  1  0  0  0
 16 17  2  0  0  0
 16 21  1  0  0  0
 16 31  1  0  0  0
 17 18  1  0  0  0
 17 97  1  0  0  0
 18 19  2  0  0  0
 18 98  1  0  0  0
 19 20  1  0  0  0
 19 24  1  0  0  0
 20 21  2  0  0  0
 20 99  1  0  0  0
 21 23  1  0  0  0
 22 28  1  0  0  0
 22 32  2  0  0  0
 26 27  1  0  0  0
 28100  1  0  0  0
 28101  1  0  0  0
 29102  1  0  0  0
 29103  1  0  0  0
 33 34  1  0  0  0
 33 66  1  0  0  0
 33 70  2  0  0  0
 34 36  1  0  0  0
 34 59  1  0  0  0
 34104  1  0  0  0
 35 44  2  0  0  0
 35 45  1  0  0  0
 35 68  1  0  0  0
 36 56  1  0  0  0
 36105  1  0  0  0
 37 39  1  0  0  0
 37 47  1  0  0  0
 37 66  1  0  0  0
 37106  1  0  0  0
 38 43  2  0  0  0
 38 46  1  0  0  0
 38 47  1  0  0  0
 39 64  1  0  0  0
 39 67  2  0  0  0
 40 52  1  0  0  0
 40 53  2  0  0  0
 40 58  1  0  0  0
 41107  1  0  0  0
 41108  1  0  0  0
 41109  1  0  0  0
 41 48  1  0  0  0
 42 43  1  0  0  0
 42 66  1  0  0  0
 42110  1  0  0  0
 42111  1  0  0  0
 43 44  1  0  0  0
 44112  1  0  0  0
 45 46  2  0  0  0
 45113  1  0  0  0
 46114  1  0  0  0
 47115  1  0  0  0
 47116  1  0  0  0
 48 56  1  0  0  0
 48 65  1  0  0  0
 48117  1  0  0  0
 49 50  1  0  0  0
 49 53  1  0  0  0
 49 64  1  0  0  0
 49118  1  0  0  0
 50 51  1  0  0  0
 50119  1  0  0  0
 50120  1  0  0  0
 51 52  1  0  0  0
 51121  1  0  0  0
 51122  1  0  0  0
 52123  1  0  0  0
 52124  1  0  0  0
 53 54  1  0  0  0
 54 55  2  0  0  0
 54125  1  0  0  0
 55 57  1  0  0  0
 55126  1  0  0  0
 56 69  2  0  0  0
 57 58  2  0  0  0
 57127  1  0  0  0
 58128  1  0  0  0
 59 60  1  0  0  0
 59 61  1  0  0  0
 59 62  1  0  0  0
 60129  1  0  0  0
 60130  1  0  0  0
 60131  1  0  0  0
 61132  1  0  0  0
 61133  1  0  0  0
 61134  1  0  0  0
 62135  1  0  0  0
 62136  1  0  0  0
 62137  1  0  0  0
 63 65  1  0  0  0
 63138  1  0  0  0
 63139  1  0  0  0
 63140  1  0  0  0
 64141  1  0  0  0
 65142  1  0  0  0
 68 78  1  0  0  0
 71 72  2  0  0  0
 71 73  1  0  0  0
 71143  1  0  0  0
 72 80  1  0  0  0
 72144  1  0  0  0
 73 79  2  0  0  0
 73 81  1  0  0  0
 74 76  1  0  0  0
 74 81  1  0  0  0
 74145  1  0  0  0
 74146  1  0  0  0
 75 77  1  0  0  0
 75 81  1  0  0  0
 75147  1  0  0  0
 75148  1  0  0  0
 76 77  1  0  0  0
 76 82  1  0  0  0
 76149  1  0  0  0
 77 83  1  0  0  0
 77150  1  0  0  0
 78 80  1  0  0  0
 78151  1  0  0  0
 78152  1  0  0  0
 79 80  1  0  0  0
 82153  1  0  0  0
 83154  1  0  0  0
 83155  1  0  0  0
 83156  1  0  0  0
M  CHG  1  83   1
M  ISO  4   1 100  68 101  78 101  82 100
M  END
> <chiral flag>
0

> <version>
0

> <s_m_source_file>
/data/baiqing/PycharmProjects/Reinvent-master-3.2/result/LINK_invent/BTK/process_docking_weight1_custom_sum_contain_oxygen_bond_distance_aromatic_linkinvent_7_9_3/rearranged_h_0196.sdf

> <i_m_source_file_index>
21

> <r_mmod_Potential_Energy-OPLS-2005>
-118.974670410156

> <r_mmod_Stretch_Energy-OPLS-2005>
155.081665039062

> <r_mmod_Bend_Energy-OPLS-2005>
249.312438964844

> <r_mmod_Torsional_Energy-OPLS-2005>
292.136932373047

> <r_mmod_Improper_Torsional_Energy-OPLS-2005>
7.15034055709839

> <r_mmod_Van_der_Waal_Energy-OPLS-2005>
116.354530334473

> <r_mmod_Electrostatic_Energy-OPLS-2005>
-537.892272949219

> <r_mmod_Solvation_Energy-OPLS-2005>
-534.514221191406

> <b_mmod_Minimization_Converged-OPLS-2005>
0

> <r_mmod_RMS_Derivative-OPLS-2005>
1.58290922641754

$$$$
21
                    3D
 Structure written by MMmdl.
160169  0  0  1  0            999 V2000
  -30.7084  -14.5359   20.5645 C   0  0  0  0  0  0
  -30.4253  -12.3549   19.4223 C   0  0  0  0  0  0
  -29.4893  -12.5029   18.2055 C   0  0  0  0  0  0
  -28.0151  -12.3365   18.6250 C   0  0  0  0  0  0
  -27.6552  -13.1852   19.8714 C   0  0  2  0  0  0
  -28.7120  -12.9864   20.9887 C   0  0  0  0  0  0
  -25.2577  -13.8090   20.5680 C   0  0  0  0  0  0
  -24.1810  -13.0411   20.9184 C   0  0  0  0  0  0
  -24.6335  -11.6865   20.8757 C   0  0  0  0  0  0
  -23.9002  -10.4269   21.0423 C   0  0  0  0  0  0
  -24.3566   -9.4186   21.9200 C   0  0  0  0  0  0
  -23.6252   -8.2223   22.0761 C   0  0  0  0  0  0
  -22.4244   -8.0256   21.3542 C   0  0  0  0  0  0
  -21.9867   -9.0229   20.4650 C   0  0  0  0  0  0
  -22.7184  -10.2111   20.3067 C   0  0  0  0  0  0
  -21.6837   -6.0708   22.5267 C   0  0  0  0  0  0
  -21.4003   -6.5623   23.8201 C   0  0  0  0  0  0
  -21.3665   -5.6782   24.9170 C   0  0  0  0  0  0
  -21.6045   -4.3046   24.7228 C   0  0  0  0  0  0
  -21.8821   -3.8127   23.4350 C   0  0  0  0  0  0
  -21.9192   -4.6943   22.3404 C   0  0  0  0  0  0
  -22.7840  -13.5250   21.1828 C   0  0  0  0  0  0
  -22.1668   -4.2131   21.0980 F   0  0  0  0  0  0
  -21.5628   -3.4532   25.7741 F   0  0  0  0  0  0
  -30.0173  -13.3590   20.4268 N   0  0  0  0  0  0
  -26.2989  -12.9205   20.3381 N   0  0  0  0  0  0
  -25.9252  -11.6399   20.5781 N   0  0  0  0  0  0
  -22.0462  -12.8269   22.0388 N   0  0  0  0  0  0
  -25.4288  -15.1798   20.4042 N   0  0  0  0  0  0
  -31.8583  -14.6322   20.1243 O   0  0  0  0  0  0
  -21.6613   -6.8850   21.4232 O   0  0  0  0  0  0
  -22.3551  -14.5570   20.6691 O   0  0  0  0  0  0
  -24.6175  -31.8671   23.2099 C   0  0  0  0  0  0
  -25.9064  -32.4816   23.8389 C   0  0  1  0  0  0
  -27.2293  -27.4099   20.0911 C   0  0  0  0  0  0
  -25.5916  -33.8614   24.2323 N   0  0  0  0  0  0
  -23.4053  -30.4923   21.5525 C   0  0  2  0  0  0
  -24.8484  -28.9571   20.1172 C   0  0  0  0  0  0
  -22.7419  -29.4661   22.4996 C   0  0  0  0  0  0
  -18.0274  -28.1383   22.8492 C   0  0  0  0  0  0
  -24.1492  -36.7311   23.2637 C   0  0  0  0  0  0
  -25.9378  -30.8252   21.3660 C   0  0  0  0  0  0
  -26.0134  -29.4593   20.7090 C   0  0  0  0  0  0
  -27.2068  -28.6961   20.6876 C   0  0  0  0  0  0
  -26.0365  -26.9281   19.5006 C   0  0  0  0  0  0
  -24.8557  -27.6912   19.5114 C   0  0  0  0  0  0
  -23.6138  -29.8284   20.1664 C   0  0  0  0  0  0
  -25.4113  -36.3104   24.0333 C   0  0  1  0  0  0
  -20.5864  -28.3670   23.1320 C   0  0  2  0  0  0
  -20.6771  -26.9408   22.5418 C   0  0  0  0  0  0
  -19.5750  -26.6392   21.5213 C   0  0  0  0  0  0
  -18.1926  -26.7931   22.1622 C   0  0  0  0  0  0
  -19.1522  -28.8843   23.2901 C   0  0  0  0  0  0
  -18.9451  -30.1451   23.8910 C   0  0  0  0  0  0
  -17.6453  -30.6589   24.0569 C   0  0  0  0  0  0
  -25.9040  -34.9469   23.5119 C   0  0  0  0  0  0
  -16.5344  -29.9092   23.6331 C   0  0  0  0  0  0
  -16.7263  -28.6511   23.0349 C   0  0  0  0  0  0
  -26.4488  -31.6597   25.0722 C   0  0  0  0  0  0
  -25.3758  -31.3700   26.1475 C   0  0  0  0  0  0
  -27.0319  -30.3037   24.6104 C   0  0  0  0  0  0
  -27.6067  -32.4319   25.7480 C   0  0  0  0  0  0
  -27.5578  -37.1816   24.8470 C   0  0  0  0  0  0
  -21.4145  -29.3037   22.3729 N   0  0  0  0  0  0
  -26.4302  -37.3787   23.9397 N   0  0  0  0  0  0
  -24.6723  -31.0754   22.1011 N   0  0  0  0  0  0
  -23.4183  -28.8195   23.3039 O   0  0  0  0  0  0
  -28.3989  -26.6643   20.0965 O   0  0  0  0  0  0
  -26.5597  -34.8922   22.4678 O   0  0  0  0  0  0
  -23.5366  -32.1436   23.7481 O   0  0  0  0  0  0
  -30.1017  -20.9653   19.0244 C   0  0  0  0  0  0
  -29.9056  -22.3008   18.9998 C   0  0  0  0  0  0
  -29.9714  -20.2155   20.2366 C   0  0  0  0  0  0
  -29.3747  -22.2506   21.2953 C   0  0  0  0  0  0
  -28.6537  -17.4888   21.6778 C   0  0  0  0  0  0
  -28.7445  -16.1057   21.0289 C   0  0  0  0  0  0
  -30.9442  -16.8139   21.5448 C   0  0  0  0  0  0
  -30.0482  -18.0788   21.5524 C   0  0  1  0  0  0
  -29.6423  -24.5037   20.1280 C   0  0  0  0  0  0
  -28.2786  -25.2270   19.9946 C   0  0  0  0  0  0
  -29.5734  -20.9597   21.3349 N   0  0  0  0  0  0
  -29.5633  -23.0256   20.1386 N   0  0  0  0  0  0
  -30.1322  -15.6321   21.1612 N   0  0  0  0  0  0
  -28.9668  -22.9237   22.4246 N   0  0  0  0  0  0
  -30.1840  -18.9372   20.3423 N   0  3  0  0  0  0
  -31.4641  -12.4629   19.1056 H   0  0  0  0  0  0
  -30.3578  -11.3493   19.8402 H   0  0  0  0  0  0
  -29.7449  -11.7679   17.4411 H   0  0  0  0  0  0
  -29.6355  -13.4817   17.7449 H   0  0  0  0  0  0
  -27.8504  -11.2807   18.8410 H   0  0  0  0  0  0
  -27.3538  -12.5853   17.7940 H   0  0  0  0  0  0
  -27.6766  -14.2136   19.5264 H   0  0  0  0  0  0
  -28.7301  -11.9386   21.2918 H   0  0  0  0  0  0
  -28.4880  -13.5176   21.9109 H   0  0  0  0  0  0
  -25.2714   -9.5664   22.4774 H   0  0  0  0  0  0
  -23.9965   -7.4612   22.7488 H   0  0  0  0  0  0
  -21.0794   -8.8747   19.8957 H   0  0  0  0  0  0
  -22.3645  -10.9656   19.6183 H   0  0  0  0  0  0
  -21.1981   -7.6127   23.9696 H   0  0  0  0  0  0
  -21.1494   -6.0514   25.9072 H   0  0  0  0  0  0
  -22.0598   -2.7588   23.2855 H   0  0  0  0  0  0
  -22.4046  -11.9933   22.4798 H   0  0  0  0  0  0
  -21.1091  -13.1346   22.2571 H   0  0  0  0  0  0
  -24.6622  -15.8348   20.5120 H   0  0  0  0  0  0
  -26.2783  -15.6143   20.0695 H   0  0  0  0  0  0
  -26.7128  -32.5515   23.1143 H   0  0  0  0  0  0
  -25.0083  -33.9778   25.0479 H   0  0  0  0  0  0
  -22.6951  -31.3101   21.4150 H   0  0  0  0  0  0
  -23.3741  -35.9661   23.3336 H   0  0  0  0  0  0
  -24.3577  -36.8892   22.2045 H   0  0  0  0  0  0
  -23.7268  -37.6535   23.6634 H   0  0  0  0  0  0
  -26.0550  -31.5936   20.6006 H   0  0  0  0  0  0
  -26.8241  -30.8745   21.9870 H   0  0  0  0  0  0
  -28.1068  -29.0832   21.1441 H   0  0  0  0  0  0
  -25.9877  -25.9637   19.0191 H   0  0  0  0  0  0
  -23.9585  -27.2974   19.0541 H   0  0  0  0  0  0
  -23.7285  -30.6061   19.4104 H   0  0  0  0  0  0
  -22.7358  -29.2544   19.8661 H   0  0  0  0  0  0
  -25.1294  -36.1970   25.0828 H   0  0  0  0  0  0
  -20.9946  -28.3233   24.1444 H   0  0  0  0  0  0
  -20.5688  -26.2269   23.3597 H   0  0  0  0  0  0
  -21.6641  -26.7468   22.1201 H   0  0  0  0  0  0
  -19.6912  -25.6306   21.1236 H   0  0  0  0  0  0
  -19.6690  -27.3208   20.6749 H   0  0  0  0  0  0
  -17.4195  -26.6681   21.4025 H   0  0  0  0  0  0
  -18.0327  -26.0074   22.9017 H   0  0  0  0  0  0
  -19.7925  -30.7269   24.2283 H   0  0  0  0  0  0
  -17.5008  -31.6271   24.5167 H   0  0  0  0  0  0
  -15.5346  -30.2998   23.7656 H   0  0  0  0  0  0
  -15.8661  -28.0840   22.7053 H   0  0  0  0  0  0
  -24.5922  -30.7060   25.7808 H   0  0  0  0  0  0
  -24.8964  -32.2855   26.4950 H   0  0  0  0  0  0
  -25.8118  -30.8844   27.0215 H   0  0  0  0  0  0
  -26.2855  -29.6789   24.1187 H   0  0  0  0  0  0
  -27.4117  -29.7286   25.4558 H   0  0  0  0  0  0
  -27.8683  -30.4351   23.9235 H   0  0  0  0  0  0
  -27.2686  -33.3602   26.2097 H   0  0  0  0  0  0
  -28.3853  -32.6910   25.0293 H   0  0  0  0  0  0
  -28.0767  -31.8426   26.5364 H   0  0  0  0  0  0
  -28.2624  -38.0085   24.7478 H   0  0  0  0  0  0
  -28.1045  -36.2614   24.6348 H   0  0  0  0  0  0
  -27.2289  -37.1532   25.8874 H   0  0  0  0  0  0
  -20.9304  -29.8754   21.6949 H   0  0  0  0  0  0
  -26.0190  -38.2871   24.1379 H   0  0  0  0  0  0
  -30.3622  -20.4282   18.1241 H   0  0  0  0  0  0
  -29.9923  -22.8810   18.0910 H   0  0  0  0  0  0
  -28.4129  -17.3791   22.7367 H   0  0  0  0  0  0
  -27.8757  -18.1145   21.2389 H   0  0  0  0  0  0
  -28.5035  -16.1917   19.9683 H   0  0  0  0  0  0
  -28.0024  -15.4760   21.5081 H   0  0  0  0  0  0
  -31.3203  -16.6341   22.5529 H   0  0  0  0  0  0
  -31.8196  -16.9682   20.9129 H   0  0  0  0  0  0
  -30.2783  -18.7084   22.4130 H   0  0  0  0  0  0
  -30.1497  -24.8438   21.0305 H   0  0  0  0  0  0
  -30.2836  -24.8197   19.3043 H   0  0  0  0  0  0
  -27.5978  -24.8709   20.7695 H   0  0  0  0  0  0
  -27.8543  -24.9471   19.0301 H   0  0  0  0  0  0
  -28.8126  -22.4767   23.3205 H   0  0  0  0  0  0
  -28.7824  -23.9170   22.4800 H   0  0  0  0  0  0
  -30.4873  -18.4641   19.4989 H   0  0  0  0  0  0
  1 25  1  0  0  0
  1 30  2  0  0  0
  1 83  1  0  0  0
  2  3  1  0  0  0
  2 25  1  0  0  0
  2 86  1  0  0  0
  2 87  1  0  0  0
  3  4  1  0  0  0
  3 88  1  0  0  0
  3 89  1  0  0  0
  4  5  1  0  0  0
  4 90  1  0  0  0
  4 91  1  0  0  0
  5  6  1  0  0  0
  5 26  1  0  0  0
  5 92  1  0  0  0
  6 25  1  0  0  0
  6 93  1  0  0  0
  6 94  1  0  0  0
  7  8  2  0  0  0
  7 26  1  0  0  0
  7 29  1  0  0  0
  8  9  1  0  0  0
  8 22  1  0  0  0
  9 10  1  0  0  0
  9 27  2  0  0  0
 10 11  2  0  0  0
 10 15  1  0  0  0
 11 12  1  0  0  0
 11 95  1  0  0  0
 12 13  2  0  0  0
 12 96  1  0  0  0
 13 14  1  0  0  0
 13 31  1  0  0  0
 14 15  2  0  0  0
 14 97  1  0  0  0
 15 98  1  0  0  0
 16 17  2  0  0  0
 16 21  1  0  0  0
 16 31  1  0  0  0
 17 18  1  0  0  0
 17 99  1  0  0  0
 18 19  2  0  0  0
 18100  1  0  0  0
 19 20  1  0  0  0
 19 24  1  0  0  0
 20 21  2  0  0  0
 20101  1  0  0  0
 21 23  1  0  0  0
 22 28  1  0  0  0
 22 32  2  0  0  0
 26 27  1  0  0  0
 28102  1  0  0  0
 28103  1  0  0  0
 29104  1  0  0  0
 29105  1  0  0  0
 33 34  1  0  0  0
 33 66  1  0  0  0
 33 70  2  0  0  0
 34 36  1  0  0  0
 34 59  1  0  0  0
 34106  1  0  0  0
 35 44  2  0  0  0
 35 45  1  0  0  0
 35 68  1  0  0  0
 36 56  1  0  0  0
 36107  1  0  0  0
 37 39  1  0  0  0
 37 47  1  0  0  0
 37 66  1  0  0  0
 37108  1  0  0  0
 38 43  2  0  0  0
 38 46  1  0  0  0
 38 47  1  0  0  0
 39 64  1  0  0  0
 39 67  2  0  0  0
 40 52  1  0  0  0
 40 53  2  0  0  0
 40 58  1  0  0  0
 41109  1  0  0  0
 41110  1  0  0  0
 41111  1  0  0  0
 41 48  1  0  0  0
 42 43  1  0  0  0
 42 66  1  0  0  0
 42112  1  0  0  0
 42113  1  0  0  0
 43 44  1  0  0  0
 44114  1  0  0  0
 45 46  2  0  0  0
 45115  1  0  0  0
 46116  1  0  0  0
 47117  1  0  0  0
 47118  1  0  0  0
 48 56  1  0  0  0
 48 65  1  0  0  0
 48119  1  0  0  0
 49 50  1  0  0  0
 49 53  1  0  0  0
 49 64  1  0  0  0
 49120  1  0  0  0
 50 51  1  0  0  0
 50121  1  0  0  0
 50122  1  0  0  0
 51 52  1  0  0  0
 51123  1  0  0  0
 51124  1  0  0  0
 52125  1  0  0  0
 52126  1  0  0  0
 53 54  1  0  0  0
 54 55  2  0  0  0
 54127  1  0  0  0
 55 57  1  0  0  0
 55128  1  0  0  0
 56 69  2  0  0  0
 57 58  2  0  0  0
 57129  1  0  0  0
 58130  1  0  0  0
 59 60  1  0  0  0
 59 61  1  0  0  0
 59 62  1  0  0  0
 60131  1  0  0  0
 60132  1  0  0  0
 60133  1  0  0  0
 61134  1  0  0  0
 61135  1  0  0  0
 61136  1  0  0  0
 62137  1  0  0  0
 62138  1  0  0  0
 62139  1  0  0  0
 63 65  1  0  0  0
 63140  1  0  0  0
 63141  1  0  0  0
 63142  1  0  0  0
 64143  1  0  0  0
 65144  1  0  0  0
 68 80  1  0  0  0
 71 72  2  0  0  0
 71 73  1  0  0  0
 71145  1  0  0  0
 72 82  1  0  0  0
 72146  1  0  0  0
 73 81  1  0  0  0
 73 85  2  0  0  0
 74 81  2  0  0  0
 74 82  1  0  0  0
 74 84  1  0  0  0
 75 76  1  0  0  0
 75 78  1  0  0  0
 75147  1  0  0  0
 75148  1  0  0  0
 76 83  1  0  0  0
 76149  1  0  0  0
 76150  1  0  0  0
 77 78  1  0  0  0
 77 83  1  0  0  0
 77151  1  0  0  0
 77152  1  0  0  0
 78 85  1  0  0  0
 78153  1  0  0  0
 79 80  1  0  0  0
 79 82  1  0  0  0
 79154  1  0  0  0
 79155  1  0  0  0
 80156  1  0  0  0
 80157  1  0  0  0
 84158  1  0  0  0
 84159  1  0  0  0
 85160  1  0  0  0
M  CHG  1  85   1
M  ISO  4   1 100  68 101  80 101  83 100
M  END
> <chiral flag>
0

> <version>
0

> <s_m_source_file>
/data/baiqing/PycharmProjects/Reinvent-master-3.2/result/LINK_invent/BTK/process_docking_weight1_custom_sum_contain_oxygen_bond_distance_aromatic_linkinvent_7_9_3/rearranged_h_0196.sdf

> <i_m_source_file_index>
22

> <r_mmod_Potential_Energy-OPLS-2005>
-85.0722198486328

> <r_mmod_Stretch_Energy-OPLS-2005>
52.546272277832

> <r_mmod_Bend_Energy-OPLS-2005>
154.502349853516

> <r_mmod_Torsional_Energy-OPLS-2005>
324.044067382812

> <r_mmod_Improper_Torsional_Energy-OPLS-2005>
3.76737189292908

> <r_mmod_Van_der_Waal_Energy-OPLS-2005>
182.113616943359

> <r_mmod_Electrostatic_Energy-OPLS-2005>
-397.552825927734

> <r_mmod_Solvation_Energy-OPLS-2005>
-424.417114257812

> <b_mmod_Minimization_Converged-OPLS-2005>
0

> <r_mmod_RMS_Derivative-OPLS-2005>
1.507000207901

$$$$
22
                    3D
 Structure written by MMmdl.
152161  0  0  1  0            999 V2000
  -30.5896  -14.7190   20.5173 C   0  0  0  0  0  0
  -30.4405  -12.4457   19.4779 C   0  0  0  0  0  0
  -29.5194  -12.5205   18.2390 C   0  0  0  0  0  0
  -28.0427  -12.3369   18.6477 C   0  0  0  0  0  0
  -27.6514  -13.2182   19.8684 C   0  0  2  0  0  0
  -28.6897  -13.0861   21.0013 C   0  0  0  0  0  0
  -25.2580  -13.8166   20.5700 C   0  0  0  0  0  0
  -24.1842  -13.0443   20.9142 C   0  0  0  0  0  0
  -24.6396  -11.6896   20.8702 C   0  0  0  0  0  0
  -23.9075  -10.4291   21.0400 C   0  0  0  0  0  0
  -24.3614   -9.4208   21.9188 C   0  0  0  0  0  0
  -23.6288   -8.2258   22.0758 C   0  0  0  0  0  0
  -22.4273   -8.0280   21.3551 C   0  0  0  0  0  0
  -21.9908   -9.0242   20.4646 C   0  0  0  0  0  0
  -22.7247  -10.2124   20.3053 C   0  0  0  0  0  0
  -21.6842   -6.0734   22.5286 C   0  0  0  0  0  0
  -21.4001   -6.5630   23.8220 C   0  0  0  0  0  0
  -21.3650   -5.6788   24.9178 C   0  0  0  0  0  0
  -21.6040   -4.3052   24.7238 C   0  0  0  0  0  0
  -21.8811   -3.8145   23.4356 C   0  0  0  0  0  0
  -21.9186   -4.6969   22.3404 C   0  0  0  0  0  0
  -22.7861  -13.5225   21.1812 C   0  0  0  0  0  0
  -22.1658   -4.2152   21.0980 F   0  0  0  0  0  0
  -21.5635   -3.4543   25.7758 F   0  0  0  0  0  0
  -29.9832  -13.4814   20.4372 N   0  0  0  0  0  0
  -26.2985  -12.9335   20.3336 N   0  0  0  0  0  0
  -25.9335  -11.6482   20.5753 N   0  0  0  0  0  0
  -22.0504  -12.8203   22.0350 N   0  0  0  0  0  0
  -25.4373  -15.1902   20.4181 N   0  0  0  0  0  0
  -31.7568  -14.8349   20.1219 O   0  0  0  0  0  0
  -21.6628   -6.8879   21.4249 O   0  0  0  0  0  0
  -22.3551  -14.5563   20.6706 O   0  0  0  0  0  0
  -24.6291  -31.8520   23.1982 C   0  0  0  0  0  0
  -25.9121  -32.4739   23.8324 C   0  0  1  0  0  0
  -27.2171  -27.2687   20.1323 C   0  0  0  0  0  0
  -25.5936  -33.8540   24.2256 N   0  0  0  0  0  0
  -23.4253  -30.4734   21.5419 C   0  0  2  0  0  0
  -24.8791  -28.9265   20.1069 C   0  0  0  0  0  0
  -22.7495  -29.4562   22.4924 C   0  0  0  0  0  0
  -18.0282  -28.1355   22.8466 C   0  0  0  0  0  0
  -24.1471  -36.7245   23.2655 C   0  0  0  0  0  0
  -25.9699  -30.7713   21.3731 C   0  0  0  0  0  0
  -26.0492  -29.3937   20.7187 C   0  0  0  0  0  0
  -27.2282  -28.5768   20.7208 C   0  0  0  0  0  0
  -26.0333  -26.8748   19.4760 C   0  0  0  0  0  0
  -24.8779  -27.6773   19.4698 C   0  0  0  0  0  0
  -23.6439  -29.8047   20.1591 C   0  0  0  0  0  0
  -25.4098  -36.3040   24.0336 C   0  0  1  0  0  0
  -20.5886  -28.3659   23.1285 C   0  0  2  0  0  0
  -20.6786  -26.9380   22.5392 C   0  0  0  0  0  0
  -19.5770  -26.6350   21.5204 C   0  0  0  0  0  0
  -18.1925  -26.7913   22.1572 C   0  0  0  0  0  0
  -19.1535  -28.8828   23.2880 C   0  0  0  0  0  0
  -18.9482  -30.1435   23.8908 C   0  0  0  0  0  0
  -17.6480  -30.6577   24.0534 C   0  0  0  0  0  0
  -25.9050  -34.9424   23.5087 C   0  0  0  0  0  0
  -16.5363  -29.9053   23.6349 C   0  0  0  0  0  0
  -16.7268  -28.6460   23.0378 C   0  0  0  0  0  0
  -26.4564  -31.6553   25.0676 C   0  0  0  0  0  0
  -25.3805  -31.3594   26.1382 C   0  0  0  0  0  0
  -27.0495  -30.3032   24.6062 C   0  0  0  0  0  0
  -27.6081  -32.4355   25.7455 C   0  0  0  0  0  0
  -27.5573  -37.1762   24.8477 C   0  0  0  0  0  0
  -21.4199  -29.3030   22.3714 N   0  0  0  0  0  0
  -26.4252  -37.3744   23.9457 N   0  0  0  0  0  0
  -24.6945  -31.0485   22.0956 N   0  0  0  0  0  0
  -23.4210  -28.8103   23.3016 O   0  0  0  0  0  0
  -28.2664  -26.3264   20.1784 O   0  0  0  0  0  0
  -26.5610  -34.8913   22.4641 O   0  0  0  0  0  0
  -23.5446  -32.1331   23.7280 O   0  0  0  0  0  0
  -27.5886  -22.4416   20.7519 C   0  0  0  0  0  0
  -28.4373  -23.5795   20.5552 C   0  0  0  0  0  0
  -29.3379  -20.9635   20.4510 C   0  0  0  0  0  0
  -29.2080  -17.8318   22.0229 C   0  0  0  0  0  0
  -29.1178  -16.2785   21.9112 C   0  0  0  0  0  0
  -29.9655  -17.1447   19.8949 C   0  0  0  0  0  0
  -29.2453  -18.3821   20.5893 C   0  0  2  0  0  0
  -27.9369  -25.0576   20.9173 C   0  0  0  0  0  0
  -28.0318  -21.1380   20.6978 N   0  0  0  0  0  0
  -29.7490  -23.3014   20.2954 N   0  0  0  0  0  0
  -30.1831  -22.0081   20.2339 N   0  0  0  0  0  0
  -29.7928  -15.8605   20.6673 N   0  0  0  0  0  0
  -29.9241  -19.6958   20.4115 O   0  0  0  0  0  0
  -31.4811  -12.5805   19.1798 H   0  0  0  0  0  0
  -30.3916  -11.4527   19.9300 H   0  0  0  0  0  0
  -29.8045  -11.7606   17.5106 H   0  0  0  0  0  0
  -29.6463  -13.4819   17.7394 H   0  0  0  0  0  0
  -27.9006  -11.2826   18.8919 H   0  0  0  0  0  0
  -27.3830  -12.5394   17.8023 H   0  0  0  0  0  0
  -27.6646  -14.2543   19.5261 H   0  0  0  0  0  0
  -28.7346  -12.0541   21.3565 H   0  0  0  0  0  0
  -28.4228  -13.6812   21.8724 H   0  0  0  0  0  0
  -25.2778   -9.5681   22.4748 H   0  0  0  0  0  0
  -23.9992   -7.4648   22.7477 H   0  0  0  0  0  0
  -21.0852   -8.8764   19.8940 H   0  0  0  0  0  0
  -22.3739  -10.9654   19.6150 H   0  0  0  0  0  0
  -21.1985   -7.6147   23.9735 H   0  0  0  0  0  0
  -21.1466   -6.0515   25.9082 H   0  0  0  0  0  0
  -22.0598   -2.7606   23.2873 H   0  0  0  0  0  0
  -22.4121  -11.9854   22.4732 H   0  0  0  0  0  0
  -21.1124  -13.1211   22.2560 H   0  0  0  0  0  0
  -24.6834  -15.8552   20.5572 H   0  0  0  0  0  0
  -26.3083  -15.6256   20.1442 H   0  0  0  0  0  0
  -26.7151  -32.5424   23.1049 H   0  0  0  0  0  0
  -25.0253  -33.9718   25.0512 H   0  0  0  0  0  0
  -22.7171  -31.2912   21.3947 H   0  0  0  0  0  0
  -23.3778  -35.9528   23.3224 H   0  0  0  0  0  0
  -24.3598  -36.8931   22.2083 H   0  0  0  0  0  0
  -23.7159  -37.6380   23.6760 H   0  0  0  0  0  0
  -26.0876  -31.5263   20.5948 H   0  0  0  0  0  0
  -26.8537  -30.8343   21.9941 H   0  0  0  0  0  0
  -28.1230  -28.9225   21.2175 H   0  0  0  0  0  0
  -25.9836  -25.9128   18.9870 H   0  0  0  0  0  0
  -23.9849  -27.3182   18.9796 H   0  0  0  0  0  0
  -23.7563  -30.5784   19.4012 H   0  0  0  0  0  0
  -22.7618  -29.2331   19.8619 H   0  0  0  0  0  0
  -25.1238  -36.1877   25.0819 H   0  0  0  0  0  0
  -20.9950  -28.3227   24.1412 H   0  0  0  0  0  0
  -20.5720  -26.2237   23.3564 H   0  0  0  0  0  0
  -21.6669  -26.7420   22.1174 H   0  0  0  0  0  0
  -19.6947  -25.6260   21.1239 H   0  0  0  0  0  0
  -19.6731  -27.3165   20.6737 H   0  0  0  0  0  0
  -17.4196  -26.6681   21.3957 H   0  0  0  0  0  0
  -18.0276  -26.0012   22.8916 H   0  0  0  0  0  0
  -19.7969  -30.7244   24.2261 H   0  0  0  0  0  0
  -17.5032  -31.6289   24.5075 H   0  0  0  0  0  0
  -15.5377  -30.2971   23.7712 H   0  0  0  0  0  0
  -15.8641  -28.0787   22.7140 H   0  0  0  0  0  0
  -24.6101  -30.6818   25.7708 H   0  0  0  0  0  0
  -24.8887  -32.2687   26.4834 H   0  0  0  0  0  0
  -25.8150  -30.8806   27.0161 H   0  0  0  0  0  0
  -26.3078  -29.6670   24.1219 H   0  0  0  0  0  0
  -27.4460  -29.7362   25.4501 H   0  0  0  0  0  0
  -27.8781  -30.4433   23.9111 H   0  0  0  0  0  0
  -27.2688  -33.3745   26.1849 H   0  0  0  0  0  0
  -28.3997  -32.6741   25.0339 H   0  0  0  0  0  0
  -28.0620  -31.8584   26.5511 H   0  0  0  0  0  0
  -28.2502  -38.0146   24.7645 H   0  0  0  0  0  0
  -28.1160  -36.2679   24.6163 H   0  0  0  0  0  0
  -27.2291  -37.1210   25.8872 H   0  0  0  0  0  0
  -20.9389  -29.8772   21.6930 H   0  0  0  0  0  0
  -26.0101  -38.2780   24.1579 H   0  0  0  0  0  0
  -26.5483  -22.5724   21.0128 H   0  0  0  0  0  0
  -30.1304  -18.0972   22.5414 H   0  0  0  0  0  0
  -28.3869  -18.2547   22.6046 H   0  0  0  0  0  0
  -28.0685  -15.9806   21.8625 H   0  0  0  0  0  0
  -29.5343  -15.7955   22.7987 H   0  0  0  0  0  0
  -31.0300  -17.3499   19.7893 H   0  0  0  0  0  0
  -29.5696  -17.0070   18.8881 H   0  0  0  0  0  0
  -28.2263  -18.4453   20.2071 H   0  0  0  0  0  0
  -28.3094  -25.2309   21.9280 H   0  0  0  0  0  0
  -26.8573  -24.9772   21.0467 H   0  0  0  0  0  0
  1 25  1  0  0  0
  1 30  2  0  0  0
  1 82  1  0  0  0
  2  3  1  0  0  0
  2 25  1  0  0  0
  2 84  1  0  0  0
  2 85  1  0  0  0
  3  4  1  0  0  0
  3 86  1  0  0  0
  3 87  1  0  0  0
  4  5  1  0  0  0
  4 88  1  0  0  0
  4 89  1  0  0  0
  5  6  1  0  0  0
  5 26  1  0  0  0
  5 90  1  0  0  0
  6 25  1  0  0  0
  6 91  1  0  0  0
  6 92  1  0  0  0
  7  8  2  0  0  0
  7 26  1  0  0  0
  7 29  1  0  0  0
  8  9  1  0  0  0
  8 22  1  0  0  0
  9 10  1  0  0  0
  9 27  2  0  0  0
 10 11  2  0  0  0
 10 15  1  0  0  0
 11 12  1  0  0  0
 11 93  1  0  0  0
 12 13  2  0  0  0
 12 94  1  0  0  0
 13 14  1  0  0  0
 13 31  1  0  0  0
 14 15  2  0  0  0
 14 95  1  0  0  0
 15 96  1  0  0  0
 16 17  2  0  0  0
 16 21  1  0  0  0
 16 31  1  0  0  0
 17 18  1  0  0  0
 17 97  1  0  0  0
 18 19  2  0  0  0
 18 98  1  0  0  0
 19 20  1  0  0  0
 19 24  1  0  0  0
 20 21  2  0  0  0
 20 99  1  0  0  0
 21 23  1  0  0  0
 22 28  1  0  0  0
 22 32  2  0  0  0
 26 27  1  0  0  0
 28100  1  0  0  0
 28101  1  0  0  0
 29102  1  0  0  0
 29103  1  0  0  0
 33 34  1  0  0  0
 33 66  1  0  0  0
 33 70  2  0  0  0
 34 36  1  0  0  0
 34 59  1  0  0  0
 34104  1  0  0  0
 35 44  2  0  0  0
 35 45  1  0  0  0
 35 68  1  0  0  0
 36 56  1  0  0  0
 36105  1  0  0  0
 37 39  1  0  0  0
 37 47  1  0  0  0
 37 66  1  0  0  0
 37106  1  0  0  0
 38 43  2  0  0  0
 38 46  1  0  0  0
 38 47  1  0  0  0
 39 64  1  0  0  0
 39 67  2  0  0  0
 40 52  1  0  0  0
 40 53  2  0  0  0
 40 58  1  0  0  0
 41107  1  0  0  0
 41108  1  0  0  0
 41109  1  0  0  0
 41 48  1  0  0  0
 42 43  1  0  0  0
 42 66  1  0  0  0
 42110  1  0  0  0
 42111  1  0  0  0
 43 44  1  0  0  0
 44112  1  0  0  0
 45 46  2  0  0  0
 45113  1  0  0  0
 46114  1  0  0  0
 47115  1  0  0  0
 47116  1  0  0  0
 48 56  1  0  0  0
 48 65  1  0  0  0
 48117  1  0  0  0
 49 50  1  0  0  0
 49 53  1  0  0  0
 49 64  1  0  0  0
 49118  1  0  0  0
 50 51  1  0  0  0
 50119  1  0  0  0
 50120  1  0  0  0
 51 52  1  0  0  0
 51121  1  0  0  0
 51122  1  0  0  0
 52123  1  0  0  0
 52124  1  0  0  0
 53 54  1  0  0  0
 54 55  2  0  0  0
 54125  1  0  0  0
 55 57  1  0  0  0
 55126  1  0  0  0
 56 69  2  0  0  0
 57 58  2  0  0  0
 57127  1  0  0  0
 58128  1  0  0  0
 59 60  1  0  0  0
 59 61  1  0  0  0
 59 62  1  0  0  0
 60129  1  0  0  0
 60130  1  0  0  0
 60131  1  0  0  0
 61132  1  0  0  0
 61133  1  0  0  0
 61134  1  0  0  0
 62135  1  0  0  0
 62136  1  0  0  0
 62137  1  0  0  0
 63 65  1  0  0  0
 63138  1  0  0  0
 63139  1  0  0  0
 63140  1  0  0  0
 64141  1  0  0  0
 65142  1  0  0  0
 68 78  1  0  0  0
 71 72  2  0  0  0
 71 79  1  0  0  0
 71143  1  0  0  0
 72 78  1  0  0  0
 72 80  1  0  0  0
 73 79  2  0  0  0
 73 81  1  0  0  0
 73 83  1  0  0  0
 74 75  1  0  0  0
 74 77  1  0  0  0
 74144  1  0  0  0
 74145  1  0  0  0
 75 82  1  0  0  0
 75146  1  0  0  0
 75147  1  0  0  0
 76 77  1  0  0  0
 76 82  1  0  0  0
 76148  1  0  0  0
 76149  1  0  0  0
 77 83  1  0  0  0
 77150  1  0  0  0
 78151  1  0  0  0
 78152  1  0  0  0
 80 81  2  0  0  0
M  ISO  4   1 100  68 101  78 101  82 100
M  END
> <chiral flag>
0

> <version>
0

> <s_m_source_file>
/data/baiqing/PycharmProjects/Reinvent-master-3.2/result/LINK_invent/BTK/process_docking_weight1_custom_sum_contain_oxygen_bond_distance_aromatic_linkinvent_7_9_3/rearranged_h_0196.sdf

> <i_m_source_file_index>
23

> <r_mmod_Potential_Energy-OPLS-2005>
373.649505615234

> <r_mmod_Stretch_Energy-OPLS-2005>
116.471000671387

> <r_mmod_Bend_Energy-OPLS-2005>
214.168304443359

> <r_mmod_Torsional_Energy-OPLS-2005>
343.847625732422

> <r_mmod_Improper_Torsional_Energy-OPLS-2005>
13.9139175415039

> <r_mmod_Van_der_Waal_Energy-OPLS-2005>
139.714660644531

> <r_mmod_Electrostatic_Energy-OPLS-2005>
-304.809783935547

> <r_mmod_Solvation_Energy-OPLS-2005>
-228.555511474609

> <b_mmod_Minimization_Converged-OPLS-2005>
0

> <r_mmod_RMS_Derivative-OPLS-2005>
4.52511024475098

$$$$
23
                    3D
 Structure written by MMmdl.
160170  0  0  1  0            999 V2000
  -30.5709  -14.8428   20.4445 C   0  0  0  0  0  0
  -30.4369  -12.5203   19.4821 C   0  0  0  0  0  0
  -29.5130  -12.5196   18.2430 C   0  0  0  0  0  0
  -28.0418  -12.3247   18.6588 C   0  0  0  0  0  0
  -27.6352  -13.2381   19.8461 C   0  0  2  0  0  0
  -28.6797  -13.2111   20.9822 C   0  0  0  0  0  0
  -25.2483  -13.8196   20.5745 C   0  0  0  0  0  0
  -24.1776  -13.0438   20.9232 C   0  0  0  0  0  0
  -24.6369  -11.6919   20.8733 C   0  0  0  0  0  0
  -23.9044  -10.4296   21.0382 C   0  0  0  0  0  0
  -24.3592   -9.4219   21.9169 C   0  0  0  0  0  0
  -23.6274   -8.2245   22.0745 C   0  0  0  0  0  0
  -22.4254   -8.0268   21.3540 C   0  0  0  0  0  0
  -21.9891   -9.0244   20.4642 C   0  0  0  0  0  0
  -22.7205  -10.2127   20.3047 C   0  0  0  0  0  0
  -21.6860   -6.0713   22.5278 C   0  0  0  0  0  0
  -21.4016   -6.5622   23.8201 C   0  0  0  0  0  0
  -21.3668   -5.6777   24.9165 C   0  0  0  0  0  0
  -21.6048   -4.3043   24.7218 C   0  0  0  0  0  0
  -21.8820   -3.8130   23.4341 C   0  0  0  0  0  0
  -21.9202   -4.6946   22.3393 C   0  0  0  0  0  0
  -22.7800  -13.5229   21.1876 C   0  0  0  0  0  0
  -22.1663   -4.2129   21.0971 F   0  0  0  0  0  0
  -21.5636   -3.4527   25.7731 F   0  0  0  0  0  0
  -29.9679  -13.5970   20.3926 N   0  0  0  0  0  0
  -26.2899  -12.9415   20.3276 N   0  0  0  0  0  0
  -25.9297  -11.6555   20.5718 N   0  0  0  0  0  0
  -22.0437  -12.8231   22.0429 N   0  0  0  0  0  0
  -25.4206  -15.1928   20.4248 N   0  0  0  0  0  0
  -31.7667  -14.9345   20.1480 O   0  0  0  0  0  0
  -21.6636   -6.8852   21.4229 O   0  0  0  0  0  0
  -22.3499  -14.5538   20.6717 O   0  0  0  0  0  0
  -24.6389  -31.8498   23.1934 C   0  0  0  0  0  0
  -25.9188  -32.4727   23.8305 C   0  0  1  0  0  0
  -27.2173  -27.1920   20.1335 C   0  0  0  0  0  0
  -25.5987  -33.8532   24.2228 N   0  0  0  0  0  0
  -23.4386  -30.4697   21.5380 C   0  0  2  0  0  0
  -24.8873  -28.9135   20.1083 C   0  0  0  0  0  0
  -22.7558  -29.4549   22.4879 C   0  0  0  0  0  0
  -18.0312  -28.1373   22.8486 C   0  0  0  0  0  0
  -24.1489  -36.7249   23.2629 C   0  0  0  0  0  0
  -25.9902  -30.7426   21.3827 C   0  0  0  0  0  0
  -26.0639  -29.3590   20.7233 C   0  0  0  0  0  0
  -27.2316  -28.5131   20.7223 C   0  0  0  0  0  0
  -26.0105  -26.8403   19.4822 C   0  0  0  0  0  0
  -24.8715  -27.6651   19.4714 C   0  0  0  0  0  0
  -23.6601  -29.8049   20.1552 C   0  0  0  0  0  0
  -25.4120  -36.3038   24.0315 C   0  0  1  0  0  0
  -20.5921  -28.3683   23.1259 C   0  0  2  0  0  0
  -20.6794  -26.9398   22.5399 C   0  0  0  0  0  0
  -19.5760  -26.6368   21.5209 C   0  0  0  0  0  0
  -18.1944  -26.7922   22.1624 C   0  0  0  0  0  0
  -19.1568  -28.8853   23.2865 C   0  0  0  0  0  0
  -18.9480  -30.1458   23.8864 C   0  0  0  0  0  0
  -17.6476  -30.6580   24.0543 C   0  0  0  0  0  0
  -25.9067  -34.9423   23.5064 C   0  0  0  0  0  0
  -16.5364  -29.9065   23.6334 C   0  0  0  0  0  0
  -16.7296  -28.6477   23.0368 C   0  0  0  0  0  0
  -26.4526  -31.6585   25.0727 C   0  0  0  0  0  0
  -25.3738  -31.3791   26.1448 C   0  0  0  0  0  0
  -27.0355  -30.2989   24.6258 C   0  0  0  0  0  0
  -27.6075  -32.4334   25.7510 C   0  0  0  0  0  0
  -27.5575  -37.1775   24.8457 C   0  0  0  0  0  0
  -21.4255  -29.3031   22.3650 N   0  0  0  0  0  0
  -26.4267  -37.3767   23.9418 N   0  0  0  0  0  0
  -24.7086  -31.0405   22.0937 N   0  0  0  0  0  0
  -23.4236  -28.8080   23.2996 O   0  0  0  0  0  0
  -28.2800  -26.2293   20.1970 O   0  0  0  0  0  0
  -26.5614  -34.8915   22.4615 O   0  0  0  0  0  0
  -23.5530  -32.1341   23.7198 O   0  0  0  0  0  0
  -27.0345  -19.9817   20.0093 C   0  0  0  0  0  0
  -26.1727  -21.0676   19.7483 C   0  0  0  0  0  0
  -28.2841  -20.5140   20.2111 C   0  0  0  0  0  0
  -23.7876  -22.1656   19.8622 C   0  0  0  0  0  0
  -23.6700  -20.7882   20.4600 C   0  0  0  0  0  0
  -29.2884  -18.5168   21.4575 C   0  0  0  0  0  0
  -29.5827  -18.4502   19.4774 C   0  0  0  0  0  0
  -24.7106  -21.0573   19.3953 C   0  0  0  0  0  0
  -30.1444  -17.5113   20.6031 C   0  0  0  0  0  0
  -28.8491  -23.3469   20.2645 C   0  0  0  0  0  0
  -27.9406  -24.7382   20.0507 C   0  0  0  0  0  0
  -26.8112  -22.2102   19.8008 N   0  0  0  0  0  0
  -28.1078  -21.9866   20.1278 N   0  0  0  0  0  0
  -29.4570  -19.6055   20.4350 N   0  0  0  0  0  0
  -29.7876  -15.9936   20.6276 N   0  0  0  0  0  0
  -31.4726  -12.6679   19.1721 H   0  0  0  0  0  0
  -30.4101  -11.5532   19.9867 H   0  0  0  0  0  0
  -29.8128  -11.7333   17.5482 H   0  0  0  0  0  0
  -29.6212  -13.4636   17.7061 H   0  0  0  0  0  0
  -27.9144  -11.2786   18.9397 H   0  0  0  0  0  0
  -27.3824  -12.4945   17.8065 H   0  0  0  0  0  0
  -27.6142  -14.2510   19.4434 H   0  0  0  0  0  0
  -28.7426  -12.2194   21.4335 H   0  0  0  0  0  0
  -28.3964  -13.8961   21.7831 H   0  0  0  0  0  0
  -25.2722   -9.5716   22.4755 H   0  0  0  0  0  0
  -23.9997   -7.4637   22.7464 H   0  0  0  0  0  0
  -21.0826   -8.8737   19.8944 H   0  0  0  0  0  0
  -22.3635  -10.9656   19.6160 H   0  0  0  0  0  0
  -21.1995   -7.6130   23.9695 H   0  0  0  0  0  0
  -21.1494   -6.0506   25.9068 H   0  0  0  0  0  0
  -22.0596   -2.7597   23.2838 H   0  0  0  0  0  0
  -22.4027  -11.9897   22.4843 H   0  0  0  0  0  0
  -21.1047  -13.1259   22.2587 H   0  0  0  0  0  0
  -24.6607  -15.8493   20.5618 H   0  0  0  0  0  0
  -26.2713  -15.6353   20.1052 H   0  0  0  0  0  0
  -26.7244  -32.5347   23.1032 H   0  0  0  0  0  0
  -25.0249  -33.9681   25.0454 H   0  0  0  0  0  0
  -22.7374  -31.2939   21.3902 H   0  0  0  0  0  0
  -23.3774  -35.9553   23.3257 H   0  0  0  0  0  0
  -24.3577  -36.8925   22.2052 H   0  0  0  0  0  0
  -23.7234  -37.6432   23.6674 H   0  0  0  0  0  0
  -26.1383  -31.5007   20.6120 H   0  0  0  0  0  0
  -26.8620  -30.7916   22.0228 H   0  0  0  0  0  0
  -28.1264  -28.8482   21.2271 H   0  0  0  0  0  0
  -25.8979  -25.8909   18.9832 H   0  0  0  0  0  0
  -23.9756  -27.3210   18.9738 H   0  0  0  0  0  0
  -23.7860  -30.5774   19.3957 H   0  0  0  0  0  0
  -22.7768  -29.2399   19.8496 H   0  0  0  0  0  0
  -25.1316  -36.1843   25.0808 H   0  0  0  0  0  0
  -21.0024  -28.3237   24.1373 H   0  0  0  0  0  0
  -20.5694  -26.2290   23.3606 H   0  0  0  0  0  0
  -21.6659  -26.7407   22.1189 H   0  0  0  0  0  0
  -19.6908  -25.6274   21.1261 H   0  0  0  0  0  0
  -19.6696  -27.3148   20.6711 H   0  0  0  0  0  0
  -17.4228  -26.6700   21.4009 H   0  0  0  0  0  0
  -18.0306  -26.0058   22.9010 H   0  0  0  0  0  0
  -19.7959  -30.7294   24.2210 H   0  0  0  0  0  0
  -17.5027  -31.6256   24.5145 H   0  0  0  0  0  0
  -15.5361  -30.2949   23.7666 H   0  0  0  0  0  0
  -15.8708  -28.0771   22.7109 H   0  0  0  0  0  0
  -24.5886  -30.7167   25.7783 H   0  0  0  0  0  0
  -24.8955  -32.2986   26.4830 H   0  0  0  0  0  0
  -25.8048  -30.8997   27.0249 H   0  0  0  0  0  0
  -26.2933  -29.6761   24.1249 H   0  0  0  0  0  0
  -27.3967  -29.7256   25.4805 H   0  0  0  0  0  0
  -27.8857  -30.4239   23.9550 H   0  0  0  0  0  0
  -27.2683  -33.3678   26.1996 H   0  0  0  0  0  0
  -28.3931  -32.6830   25.0360 H   0  0  0  0  0  0
  -28.0671  -31.8512   26.5512 H   0  0  0  0  0  0
  -28.2556  -38.0103   24.7548 H   0  0  0  0  0  0
  -28.1115  -36.2645   24.6219 H   0  0  0  0  0  0
  -27.2304  -37.1356   25.8860 H   0  0  0  0  0  0
  -20.9437  -29.8786   21.6886 H   0  0  0  0  0  0
  -26.0133  -38.2822   24.1473 H   0  0  0  0  0  0
  -26.7533  -18.9392   20.0125 H   0  0  0  0  0  0
  -24.2094  -22.9512   20.4871 H   0  0  0  0  0  0
  -23.0176  -22.4925   19.1661 H   0  0  0  0  0  0
  -22.8065  -20.1894   20.1785 H   0  0  0  0  0  0
  -24.0139  -20.6598   21.4851 H   0  0  0  0  0  0
  -29.7391  -18.7527   22.4221 H   0  0  0  0  0  0
  -28.2541  -18.1924   21.5871 H   0  0  0  0  0  0
  -28.6293  -18.1024   19.0745 H   0  0  0  0  0  0
  -30.2920  -18.6364   18.6690 H   0  0  0  0  0  0
  -24.5344  -20.6340   18.4070 H   0  0  0  0  0  0
  -31.2123  -17.6875   20.7512 H   0  0  0  0  0  0
  -29.3209  -23.3658   21.2467 H   0  0  0  0  0  0
  -29.6625  -23.3438   19.5392 H   0  0  0  0  0  0
  -27.0767  -24.6144   20.7060 H   0  0  0  0  0  0
  -27.5748  -24.6415   19.0291 H   0  0  0  0  0  0
  -28.8193  -15.7956   20.8280 H   0  0  0  0  0  0
  1 25  1  0  0  0
  1 30  2  0  0  0
  1 85  1  0  0  0
  2  3  1  0  0  0
  2 25  1  0  0  0
  2 86  1  0  0  0
  2 87  1  0  0  0
  3  4  1  0  0  0
  3 88  1  0  0  0
  3 89  1  0  0  0
  4  5  1  0  0  0
  4 90  1  0  0  0
  4 91  1  0  0  0
  5  6  1  0  0  0
  5 26  1  0  0  0
  5 92  1  0  0  0
  6 25  1  0  0  0
  6 93  1  0  0  0
  6 94  1  0  0  0
  7  8  2  0  0  0
  7 26  1  0  0  0
  7 29  1  0  0  0
  8  9  1  0  0  0
  8 22  1  0  0  0
  9 10  1  0  0  0
  9 27  2  0  0  0
 10 11  2  0  0  0
 10 15  1  0  0  0
 11 12  1  0  0  0
 11 95  1  0  0  0
 12 13  2  0  0  0
 12 96  1  0  0  0
 13 14  1  0  0  0
 13 31  1  0  0  0
 14 15  2  0  0  0
 14 97  1  0  0  0
 15 98  1  0  0  0
 16 17  2  0  0  0
 16 21  1  0  0  0
 16 31  1  0  0  0
 17 18  1  0  0  0
 17 99  1  0  0  0
 18 19  2  0  0  0
 18100  1  0  0  0
 19 20  1  0  0  0
 19 24  1  0  0  0
 20 21  2  0  0  0
 20101  1  0  0  0
 21 23  1  0  0  0
 22 28  1  0  0  0
 22 32  2  0  0  0
 26 27  1  0  0  0
 28102  1  0  0  0
 28103  1  0  0  0
 29104  1  0  0  0
 29105  1  0  0  0
 33 34  1  0  0  0
 33 66  1  0  0  0
 33 70  2  0  0  0
 34 36  1  0  0  0
 34 59  1  0  0  0
 34106  1  0  0  0
 35 44  2  0  0  0
 35 45  1  0  0  0
 35 68  1  0  0  0
 36 56  1  0  0  0
 36107  1  0  0  0
 37 39  1  0  0  0
 37 47  1  0  0  0
 37 66  1  0  0  0
 37108  1  0  0  0
 38 43  2  0  0  0
 38 46  1  0  0  0
 38 47  1  0  0  0
 39 64  1  0  0  0
 39 67  2  0  0  0
 40 52  1  0  0  0
 40 53  2  0  0  0
 40 58  1  0  0  0
 41109  1  0  0  0
 41110  1  0  0  0
 41111  1  0  0  0
 41 48  1  0  0  0
 42 43  1  0  0  0
 42 66  1  0  0  0
 42112  1  0  0  0
 42113  1  0  0  0
 43 44  1  0  0  0
 44114  1  0  0  0
 45 46  2  0  0  0
 45115  1  0  0  0
 46116  1  0  0  0
 47117  1  0  0  0
 47118  1  0  0  0
 48 56  1  0  0  0
 48 65  1  0  0  0
 48119  1  0  0  0
 49 50  1  0  0  0
 49 53  1  0  0  0
 49 64  1  0  0  0
 49120  1  0  0  0
 50 51  1  0  0  0
 50121  1  0  0  0
 50122  1  0  0  0
 51 52  1  0  0  0
 51123  1  0  0  0
 51124  1  0  0  0
 52125  1  0  0  0
 52126  1  0  0  0
 53 54  1  0  0  0
 54 55  2  0  0  0
 54127  1  0  0  0
 55 57  1  0  0  0
 55128  1  0  0  0
 56 69  2  0  0  0
 57 58  2  0  0  0
 57129  1  0  0  0
 58130  1  0  0  0
 59 60  1  0  0  0
 59 61  1  0  0  0
 59 62  1  0  0  0
 60131  1  0  0  0
 60132  1  0  0  0
 60133  1  0  0  0
 61134  1  0  0  0
 61135  1  0  0  0
 61136  1  0  0  0
 62137  1  0  0  0
 62138  1  0  0  0
 62139  1  0  0  0
 63 65  1  0  0  0
 63140  1  0  0  0
 63141  1  0  0  0
 63142  1  0  0  0
 64143  1  0  0  0
 65144  1  0  0  0
 68 81  1  0  0  0
 71 72  1  0  0  0
 71 73  2  0  0  0
 71145  1  0  0  0
 72 82  2  0  0  0
 72 78  1  0  0  0
 73 83  1  0  0  0
 73 84  1  0  0  0
 74 75  1  0  0  0
 74 78  1  0  0  0
 74146  1  0  0  0
 74147  1  0  0  0
 75 78  1  0  0  0
 75148  1  0  0  0
 75149  1  0  0  0
 76 79  1  0  0  0
 76 84  1  0  0  0
 76150  1  0  0  0
 76151  1  0  0  0
 77 79  1  0  0  0
 77 84  1  0  0  0
 77152  1  0  0  0
 77153  1  0  0  0
 78154  1  0  0  0
 79 85  1  0  0  0
 79155  1  0  0  0
 80 81  1  0  0  0
 80 83  1  0  0  0
 80156  1  0  0  0
 80157  1  0  0  0
 81158  1  0  0  0
 81159  1  0  0  0
 82 83  1  0  0  0
 85160  1  0  0  0
M  ISO  4   1 100  68 101  81 101  85 100
M  END
> <chiral flag>
0

> <version>
0

> <s_m_source_file>
/data/baiqing/PycharmProjects/Reinvent-master-3.2/result/LINK_invent/BTK/process_docking_weight1_custom_sum_contain_oxygen_bond_distance_aromatic_linkinvent_7_9_3/rearranged_h_0196.sdf

> <i_m_source_file_index>
24

> <r_mmod_Potential_Energy-OPLS-2005>
335.447082519531

> <r_mmod_Stretch_Energy-OPLS-2005>
190.574645996094

> <r_mmod_Bend_Energy-OPLS-2005>
279.986206054688

> <r_mmod_Torsional_Energy-OPLS-2005>
274.0703125

> <r_mmod_Improper_Torsional_Energy-OPLS-2005>
12.5713310241699

> <r_mmod_Van_der_Waal_Energy-OPLS-2005>
124.579246520996

> <r_mmod_Electrostatic_Energy-OPLS-2005>
-433.105651855469

> <r_mmod_Solvation_Energy-OPLS-2005>
-249.079132080078

> <b_mmod_Minimization_Converged-OPLS-2005>
0

> <r_mmod_RMS_Derivative-OPLS-2005>
2.37560987472534

$$$$
24
                    3D
 Structure written by MMmdl.
163172  0  0  1  0            999 V2000
  -30.5675  -14.9321   20.4449 C   0  0  0  0  0  0
  -30.4348  -12.5832   19.4881 C   0  0  0  0  0  0
  -29.5150  -12.5194   18.2484 C   0  0  0  0  0  0
  -28.0501  -12.3076   18.6744 C   0  0  0  0  0  0
  -27.6279  -13.2476   19.8345 C   0  0  2  0  0  0
  -28.6722  -13.2831   20.9687 C   0  0  0  0  0  0
  -25.2471  -13.8222   20.5734 C   0  0  0  0  0  0
  -24.1778  -13.0445   20.9219 C   0  0  0  0  0  0
  -24.6389  -11.6928   20.8749 C   0  0  0  0  0  0
  -23.9075  -10.4297   21.0406 C   0  0  0  0  0  0
  -24.3625   -9.4211   21.9184 C   0  0  0  0  0  0
  -23.6295   -8.2247   22.0755 C   0  0  0  0  0  0
  -22.4275   -8.0283   21.3547 C   0  0  0  0  0  0
  -21.9910   -9.0261   20.4649 C   0  0  0  0  0  0
  -22.7244  -10.2139   20.3057 C   0  0  0  0  0  0
  -21.6855   -6.0734   22.5279 C   0  0  0  0  0  0
  -21.4016   -6.5638   23.8212 C   0  0  0  0  0  0
  -21.3660   -5.6790   24.9175 C   0  0  0  0  0  0
  -21.6043   -4.3055   24.7223 C   0  0  0  0  0  0
  -21.8818   -3.8147   23.4346 C   0  0  0  0  0  0
  -21.9192   -4.6963   22.3403 C   0  0  0  0  0  0
  -22.7800  -13.5225   21.1873 C   0  0  0  0  0  0
  -22.1661   -4.2149   21.0982 F   0  0  0  0  0  0
  -21.5625   -3.4538   25.7737 F   0  0  0  0  0  0
  -29.9435  -13.6895   20.3584 N   0  0  0  0  0  0
  -26.2885  -12.9452   20.3253 N   0  0  0  0  0  0
  -25.9320  -11.6582   20.5732 N   0  0  0  0  0  0
  -22.0449  -12.8216   22.0432 N   0  0  0  0  0  0
  -25.4185  -15.1951   20.4205 N   0  0  0  0  0  0
  -31.7724  -14.9572   20.1727 O   0  0  0  0  0  0
  -21.6640   -6.8877   21.4241 O   0  0  0  0  0  0
  -22.3488  -14.5530   20.6716 O   0  0  0  0  0  0
  -24.6434  -31.8447   23.1882 C   0  0  0  0  0  0
  -25.9205  -32.4699   23.8272 C   0  0  1  0  0  0
  -27.2153  -27.1366   20.1500 C   0  0  0  0  0  0
  -25.5954  -33.8506   24.2189 N   0  0  0  0  0  0
  -23.4468  -30.4645   21.5340 C   0  0  2  0  0  0
  -24.8958  -28.8917   20.1096 C   0  0  0  0  0  0
  -22.7568  -29.4552   22.4856 C   0  0  0  0  0  0
  -18.0306  -28.1397   22.8476 C   0  0  0  0  0  0
  -24.1492  -36.7256   23.2641 C   0  0  0  0  0  0
  -26.0034  -30.7180   21.3877 C   0  0  0  0  0  0
  -26.0741  -29.3300   20.7273 C   0  0  0  0  0  0
  -27.2352  -28.4695   20.7286 C   0  0  0  0  0  0
  -26.0105  -26.8003   19.4933 C   0  0  0  0  0  0
  -24.8773  -27.6405   19.4767 C   0  0  0  0  0  0
  -23.6729  -29.7943   20.1531 C   0  0  0  0  0  0
  -25.4125  -36.3036   24.0314 C   0  0  1  0  0  0
  -20.5919  -28.3724   23.1232 C   0  0  2  0  0  0
  -20.6790  -26.9426   22.5404 C   0  0  0  0  0  0
  -19.5764  -26.6382   21.5212 C   0  0  0  0  0  0
  -18.1945  -26.7934   22.1622 C   0  0  0  0  0  0
  -19.1562  -28.8877   23.2848 C   0  0  0  0  0  0
  -18.9480  -30.1473   23.8876 C   0  0  0  0  0  0
  -17.6476  -30.6592   24.0559 C   0  0  0  0  0  0
  -25.9074  -34.9410   23.5060 C   0  0  0  0  0  0
  -16.5368  -29.9085   23.6337 C   0  0  0  0  0  0
  -16.7290  -28.6504   23.0357 C   0  0  0  0  0  0
  -26.4519  -31.6572   25.0719 C   0  0  0  0  0  0
  -25.3700  -31.3772   26.1413 C   0  0  0  0  0  0
  -27.0383  -30.2965   24.6313 C   0  0  0  0  0  0
  -27.6049  -32.4343   25.7500 C   0  0  0  0  0  0
  -27.5577  -37.1785   24.8465 C   0  0  0  0  0  0
  -21.4259  -29.3049   22.3602 N   0  0  0  0  0  0
  -26.4289  -37.3748   23.9404 N   0  0  0  0  0  0
  -24.7178  -31.0304   22.0915 N   0  0  0  0  0  0
  -23.4213  -28.8100   23.3006 O   0  0  0  0  0  0
  -28.2658  -26.1485   20.2233 O   0  0  0  0  0  0
  -26.5663  -34.8906   22.4640 O   0  0  0  0  0  0
  -23.5553  -32.1322   23.7103 O   0  0  0  0  0  0
  -31.2998  -22.3269   19.8484 C   0  0  0  0  0  0
  -29.5495  -16.7878   21.8279 C   0  0  0  0  0  0
  -30.7476  -20.9212   19.5084 C   0  0  0  0  0  0
  -28.5528  -21.6943   20.2655 C   0  0  0  0  0  0
  -29.0093  -23.3202   20.3907 C   0  0  1  0  0  0
  -30.3066  -23.4823   19.5629 C   0  0  1  0  0  0
  -30.1370  -17.6645   20.7395 C   0  0  2  0  0  0
  -31.6331  -17.9431   20.7533 C   0  0  0  0  0  0
  -27.9745  -24.6220   20.0783 C   0  0  0  0  0  0
  -29.2269  -18.9749   20.1976 C   0  0  0  0  0  0
  -29.8128  -16.1436   20.5823 N   0  0  0  0  0  0
  -29.6143  -20.5201   20.3866 N   0  3  1  0  0  0
  -30.9465  -24.7934   19.8130 N   0  3  0  0  0  0
  -31.4687  -12.7319   19.1739 H   0  0  0  0  0  0
  -30.4241  -11.6357   20.0289 H   0  0  0  0  0  0
  -29.8310  -11.7149   17.5829 H   0  0  0  0  0  0
  -29.6024  -13.4440   17.6755 H   0  0  0  0  0  0
  -27.9514  -11.2685   18.9913 H   0  0  0  0  0  0
  -27.3831  -12.4308   17.8206 H   0  0  0  0  0  0
  -27.5915  -14.2475   19.4010 H   0  0  0  0  0  0
  -28.7599  -12.3124   21.4589 H   0  0  0  0  0  0
  -28.3743  -13.9967   21.7389 H   0  0  0  0  0  0
  -25.2767   -9.5685   22.4762 H   0  0  0  0  0  0
  -24.0001   -7.4634   22.7475 H   0  0  0  0  0  0
  -21.0838   -8.8780   19.8959 H   0  0  0  0  0  0
  -22.3697  -10.9677   19.6166 H   0  0  0  0  0  0
  -21.2015   -7.6145   23.9716 H   0  0  0  0  0  0
  -21.1481   -6.0521   25.9077 H   0  0  0  0  0  0
  -22.0597   -2.7606   23.2847 H   0  0  0  0  0  0
  -22.4067  -11.9885   22.4829 H   0  0  0  0  0  0
  -21.1064  -13.1237   22.2628 H   0  0  0  0  0  0
  -24.6568  -15.8535   20.5416 H   0  0  0  0  0  0
  -26.2794  -15.6338   20.1187 H   0  0  0  0  0  0
  -26.7272  -32.5302   23.1000 H   0  0  0  0  0  0
  -25.0072  -33.9622   25.0317 H   0  0  0  0  0  0
  -22.7493  -31.2906   21.3798 H   0  0  0  0  0  0
  -23.3763  -35.9580   23.3293 H   0  0  0  0  0  0
  -24.3574  -36.8901   22.2058 H   0  0  0  0  0  0
  -23.7241  -37.6445   23.6686 H   0  0  0  0  0  0
  -26.1628  -31.4742   20.6178 H   0  0  0  0  0  0
  -26.8723  -30.7647   22.0327 H   0  0  0  0  0  0
  -28.1324  -28.8007   21.2324 H   0  0  0  0  0  0
  -25.9075  -25.8445   19.0033 H   0  0  0  0  0  0
  -23.9776  -27.2996   18.9829 H   0  0  0  0  0  0
  -23.8109  -30.5693   19.3983 H   0  0  0  0  0  0
  -22.7873  -29.2377   19.8413 H   0  0  0  0  0  0
  -25.1314  -36.1862   25.0808 H   0  0  0  0  0  0
  -21.0013  -28.3318   24.1353 H   0  0  0  0  0  0
  -20.5682  -26.2339   23.3625 H   0  0  0  0  0  0
  -21.6656  -26.7431   22.1204 H   0  0  0  0  0  0
  -19.6925  -25.6286   21.1259 H   0  0  0  0  0  0
  -19.6700  -27.3178   20.6730 H   0  0  0  0  0  0
  -17.4213  -26.6681   21.4026 H   0  0  0  0  0  0
  -18.0344  -26.0082   22.9025 H   0  0  0  0  0  0
  -19.7954  -30.7296   24.2236 H   0  0  0  0  0  0
  -17.5029  -31.6268   24.5166 H   0  0  0  0  0  0
  -15.5368  -30.2980   23.7672 H   0  0  0  0  0  0
  -15.8691  -28.0815   22.7086 H   0  0  0  0  0  0
  -24.5879  -30.7120   25.7733 H   0  0  0  0  0  0
  -24.8889  -32.2961   26.4776 H   0  0  0  0  0  0
  -25.7977  -30.8984   27.0231 H   0  0  0  0  0  0
  -26.3003  -29.6687   24.1308 H   0  0  0  0  0  0
  -27.3971  -29.7268   25.4895 H   0  0  0  0  0  0
  -27.8923  -30.4191   23.9648 H   0  0  0  0  0  0
  -27.2637  -33.3661   26.2022 H   0  0  0  0  0  0
  -28.3883  -32.6880   25.0347 H   0  0  0  0  0  0
  -28.0691  -31.8512   26.5462 H   0  0  0  0  0  0
  -28.2590  -38.0086   24.7510 H   0  0  0  0  0  0
  -28.1079  -36.2616   24.6295 H   0  0  0  0  0  0
  -27.2293  -37.1436   25.8867 H   0  0  0  0  0  0
  -20.9470  -29.8761   21.6779 H   0  0  0  0  0  0
  -26.0158  -38.2817   24.1407 H   0  0  0  0  0  0
  -32.2040  -22.4827   19.2578 H   0  0  0  0  0  0
  -31.6201  -22.3511   20.8910 H   0  0  0  0  0  0
  -28.4995  -16.9137   22.0837 H   0  0  0  0  0  0
  -30.1888  -16.5265   22.6704 H   0  0  0  0  0  0
  -31.5713  -20.2191   19.5682 H   0  0  0  0  0  0
  -30.4220  -20.8932   18.4673 H   0  0  0  0  0  0
  -28.0668  -21.5686   19.2972 H   0  0  0  0  0  0
  -27.7691  -21.5030   20.9986 H   0  0  0  0  0  0
  -29.2890  -23.4371   21.4382 H   0  0  0  0  0  0
  -30.0421  -23.4541   18.5041 H   0  0  0  0  0  0
  -32.0249  -17.9907   19.7370 H   0  0  0  0  0  0
  -32.1815  -17.1738   21.2949 H   0  0  0  0  0  0
  -31.8447  -18.8737   21.2774 H   0  0  0  0  0  0
  -27.0837  -24.4395   20.6803 H   0  0  0  0  0  0
  -27.6477  -24.4853   19.0470 H   0  0  0  0  0  0
  -28.2381  -18.8637   20.6432 H   0  0  0  0  0  0
  -29.0595  -18.8230   19.1311 H   0  0  0  0  0  0
  -29.9472  -20.5679   21.3385 H   0  0  0  0  0  0
  -31.2761  -24.8722   20.7591 H   0  0  0  0  0  0
  -30.2899  -25.5402   19.6515 H   0  0  0  0  0  0
  -31.7282  -24.9341   19.1965 H   0  0  0  0  0  0
  1 25  1  0  0  0
  1 30  2  0  0  0
  1 81  1  0  0  0
  2  3  1  0  0  0
  2 25  1  0  0  0
  2 84  1  0  0  0
  2 85  1  0  0  0
  3  4  1  0  0  0
  3 86  1  0  0  0
  3 87  1  0  0  0
  4  5  1  0  0  0
  4 88  1  0  0  0
  4 89  1  0  0  0
  5  6  1  0  0  0
  5 26  1  0  0  0
  5 90  1  0  0  0
  6 25  1  0  0  0
  6 91  1  0  0  0
  6 92  1  0  0  0
  7  8  2  0  0  0
  7 26  1  0  0  0
  7 29  1  0  0  0
  8  9  1  0  0  0
  8 22  1  0  0  0
  9 10  1  0  0  0
  9 27  2  0  0  0
 10 11  2  0  0  0
 10 15  1  0  0  0
 11 12  1  0  0  0
 11 93  1  0  0  0
 12 13  2  0  0  0
 12 94  1  0  0  0
 13 14  1  0  0  0
 13 31  1  0  0  0
 14 15  2  0  0  0
 14 95  1  0  0  0
 15 96  1  0  0  0
 16 17  2  0  0  0
 16 21  1  0  0  0
 16 31  1  0  0  0
 17 18  1  0  0  0
 17 97  1  0  0  0
 18 19  2  0  0  0
 18 98  1  0  0  0
 19 20  1  0  0  0
 19 24  1  0  0  0
 20 21  2  0  0  0
 20 99  1  0  0  0
 21 23  1  0  0  0
 22 28  1  0  0  0
 22 32  2  0  0  0
 26 27  1  0  0  0
 28100  1  0  0  0
 28101  1  0  0  0
 29102  1  0  0  0
 29103  1  0  0  0
 33 34  1  0  0  0
 33 66  1  0  0  0
 33 70  2  0  0  0
 34 36  1  0  0  0
 34 59  1  0  0  0
 34104  1  0  0  0
 35 44  2  0  0  0
 35 45  1  0  0  0
 35 68  1  0  0  0
 36 56  1  0  0  0
 36105  1  0  0  0
 37 39  1  0  0  0
 37 47  1  0  0  0
 37 66  1  0  0  0
 37106  1  0  0  0
 38 43  2  0  0  0
 38 46  1  0  0  0
 38 47  1  0  0  0
 39 64  1  0  0  0
 39 67  2  0  0  0
 40 52  1  0  0  0
 40 53  2  0  0  0
 40 58  1  0  0  0
 41107  1  0  0  0
 41108  1  0  0  0
 41109  1  0  0  0
 41 48  1  0  0  0
 42 43  1  0  0  0
 42 66  1  0  0  0
 42110  1  0  0  0
 42111  1  0  0  0
 43 44  1  0  0  0
 44112  1  0  0  0
 45 46  2  0  0  0
 45113  1  0  0  0
 46114  1  0  0  0
 47115  1  0  0  0
 47116  1  0  0  0
 48 56  1  0  0  0
 48 65  1  0  0  0
 48117  1  0  0  0
 49 50  1  0  0  0
 49 53  1  0  0  0
 49 64  1  0  0  0
 49118  1  0  0  0
 50 51  1  0  0  0
 50119  1  0  0  0
 50120  1  0  0  0
 51 52  1  0  0  0
 51121  1  0  0  0
 51122  1  0  0  0
 52123  1  0  0  0
 52124  1  0  0  0
 53 54  1  0  0  0
 54 55  2  0  0  0
 54125  1  0  0  0
 55 57  1  0  0  0
 55126  1  0  0  0
 56 69  2  0  0  0
 57 58  2  0  0  0
 57127  1  0  0  0
 58128  1  0  0  0
 59 60  1  0  0  0
 59 61  1  0  0  0
 59 62  1  0  0  0
 60129  1  0  0  0
 60130  1  0  0  0
 60131  1  0  0  0
 61132  1  0  0  0
 61133  1  0  0  0
 61134  1  0  0  0
 62135  1  0  0  0
 62136  1  0  0  0
 62137  1  0  0  0
 63 65  1  0  0  0
 63138  1  0  0  0
 63139  1  0  0  0
 63140  1  0  0  0
 64141  1  0  0  0
 65142  1  0  0  0
 68 79  1  0  0  0
 71 73  1  0  0  0
 71 76  1  0  0  0
 71143  1  0  0  0
 71144  1  0  0  0
 72 77  1  0  0  0
 72 81  1  0  0  0
 72145  1  0  0  0
 72146  1  0  0  0
 73 82  1  0  0  0
 73147  1  0  0  0
 73148  1  0  0  0
 74 75  1  0  0  0
 74 82  1  0  0  0
 74149  1  0  0  0
 74150  1  0  0  0
 75 76  1  0  0  0
 75 79  1  0  0  0
 75151  1  0  0  0
 76 83  1  0  0  0
 76152  1  0  0  0
 77 78  1  0  0  0
 77 80  1  0  0  0
 77 81  1  0  0  0
 78153  1  0  0  0
 78154  1  0  0  0
 78155  1  0  0  0
 79156  1  0  0  0
 79157  1  0  0  0
 80158  1  0  0  0
 80159  1  0  0  0
 80 82  1  0  0  0
 82160  1  0  0  0
 83161  1  0  0  0
 83162  1  0  0  0
 83163  1  0  0  0
M  CHG  2  82   1  83   1
M  ISO  4   1 100  68 101  79 101  81 100
M  END
> <chiral flag>
0

> <version>
0

> <s_m_source_file>
/data/baiqing/PycharmProjects/Reinvent-master-3.2/result/LINK_invent/BTK/process_docking_weight1_custom_sum_contain_oxygen_bond_distance_aromatic_linkinvent_7_9_3/rearranged_h_0196.sdf

> <i_m_source_file_index>
25

> <r_mmod_Potential_Energy-OPLS-2005>
321.877380371094

> <r_mmod_Stretch_Energy-OPLS-2005>
286.192565917969

> <r_mmod_Bend_Energy-OPLS-2005>
264.252868652344

> <r_mmod_Torsional_Energy-OPLS-2005>
384.664520263672

> <r_mmod_Improper_Torsional_Energy-OPLS-2005>
13.5527400970459

> <r_mmod_Van_der_Waal_Energy-OPLS-2005>
121.948890686035

> <r_mmod_Electrostatic_Energy-OPLS-2005>
80.7712326049805

> <r_mmod_Solvation_Energy-OPLS-2005>
-1015.82672119141

> <b_mmod_Minimization_Converged-OPLS-2005>
0

> <r_mmod_RMS_Derivative-OPLS-2005>
0.837628722190857

$$$$
25
                    3D
 Structure written by MMmdl.
160169  0  0  1  0            999 V2000
  -30.5819  -14.8152   20.4532 C   0  0  0  0  0  0
  -30.4402  -12.4991   19.4921 C   0  0  0  0  0  0
  -29.5217  -12.5003   18.2500 C   0  0  0  0  0  0
  -28.0503  -12.3099   18.6668 C   0  0  0  0  0  0
  -27.6383  -13.2335   19.8440 C   0  0  2  0  0  0
  -28.6779  -13.2116   20.9840 C   0  0  0  0  0  0
  -25.2516  -13.8200   20.5707 C   0  0  0  0  0  0
  -24.1796  -13.0455   20.9205 C   0  0  0  0  0  0
  -24.6386  -11.6929   20.8737 C   0  0  0  0  0  0
  -23.9064  -10.4305   21.0407 C   0  0  0  0  0  0
  -24.3609   -9.4215   21.9180 C   0  0  0  0  0  0
  -23.6287   -8.2253   22.0752 C   0  0  0  0  0  0
  -22.4269   -8.0289   21.3548 C   0  0  0  0  0  0
  -21.9902   -9.0264   20.4647 C   0  0  0  0  0  0
  -22.7234  -10.2144   20.3063 C   0  0  0  0  0  0
  -21.6856   -6.0727   22.5277 C   0  0  0  0  0  0
  -21.4017   -6.5636   23.8207 C   0  0  0  0  0  0
  -21.3657   -5.6789   24.9169 C   0  0  0  0  0  0
  -21.6048   -4.3053   24.7222 C   0  0  0  0  0  0
  -21.8820   -3.8140   23.4345 C   0  0  0  0  0  0
  -21.9196   -4.6955   22.3401 C   0  0  0  0  0  0
  -22.7823  -13.5261   21.1871 C   0  0  0  0  0  0
  -22.1669   -4.2152   21.0973 F   0  0  0  0  0  0
  -21.5627   -3.4527   25.7727 F   0  0  0  0  0  0
  -29.9694  -13.5778   20.3950 N   0  0  0  0  0  0
  -26.2916  -12.9399   20.3241 N   0  0  0  0  0  0
  -25.9312  -11.6547   20.5723 N   0  0  0  0  0  0
  -22.0468  -12.8246   22.0420 N   0  0  0  0  0  0
  -25.4279  -15.1918   20.4178 N   0  0  0  0  0  0
  -31.7813  -14.8988   20.1751 O   0  0  0  0  0  0
  -21.6650   -6.8873   21.4244 O   0  0  0  0  0  0
  -22.3509  -14.5572   20.6725 O   0  0  0  0  0  0
  -24.6355  -31.8521   23.1951 C   0  0  0  0  0  0
  -25.9165  -32.4737   23.8309 C   0  0  1  0  0  0
  -27.2254  -27.2278   20.1441 C   0  0  0  0  0  0
  -25.5947  -33.8541   24.2235 N   0  0  0  0  0  0
  -23.4327  -30.4732   21.5382 C   0  0  2  0  0  0
  -24.8846  -28.9120   20.1105 C   0  0  0  0  0  0
  -22.7509  -29.4591   22.4900 C   0  0  0  0  0  0
  -18.0296  -28.1370   22.8473 C   0  0  0  0  0  0
  -24.1495  -36.7275   23.2638 C   0  0  0  0  0  0
  -25.9815  -30.7530   21.3808 C   0  0  0  0  0  0
  -26.0563  -29.3715   20.7261 C   0  0  0  0  0  0
  -27.2306  -28.5439   20.7296 C   0  0  0  0  0  0
  -26.0332  -26.8499   19.4883 C   0  0  0  0  0  0
  -24.8792  -27.6593   19.4779 C   0  0  0  0  0  0
  -23.6551  -29.8029   20.1563 C   0  0  0  0  0  0
  -25.4116  -36.3060   24.0327 C   0  0  1  0  0  0
  -20.5891  -28.3703   23.1245 C   0  0  2  0  0  0
  -20.6785  -26.9411   22.5404 C   0  0  0  0  0  0
  -19.5771  -26.6361   21.5210 C   0  0  0  0  0  0
  -18.1950  -26.7912   22.1621 C   0  0  0  0  0  0
  -19.1537  -28.8852   23.2852 C   0  0  0  0  0  0
  -18.9462  -30.1453   23.8890 C   0  0  0  0  0  0
  -17.6456  -30.6575   24.0544 C   0  0  0  0  0  0
  -25.9056  -34.9433   23.5078 C   0  0  0  0  0  0
  -16.5350  -29.9054   23.6322 C   0  0  0  0  0  0
  -16.7276  -28.6463   23.0356 C   0  0  0  0  0  0
  -26.4508  -31.6576   25.0718 C   0  0  0  0  0  0
  -25.3715  -31.3758   26.1427 C   0  0  0  0  0  0
  -27.0354  -30.2990   24.6238 C   0  0  0  0  0  0
  -27.6056  -32.4319   25.7493 C   0  0  0  0  0  0
  -27.5574  -37.1793   24.8462 C   0  0  0  0  0  0
  -21.4206  -29.3042   22.3637 N   0  0  0  0  0  0
  -26.4285  -37.3765   23.9405 N   0  0  0  0  0  0
  -24.7023  -31.0445   22.0951 N   0  0  0  0  0  0
  -23.4176  -28.8152   23.3025 O   0  0  0  0  0  0
  -28.3034  -26.3006   20.1695 O   0  0  0  0  0  0
  -26.5623  -34.8920   22.4648 O   0  0  0  0  0  0
  -23.5498  -32.1358   23.7230 O   0  0  0  0  0  0
  -28.4903  -22.1656   21.1228 C   0  0  0  0  0  0
  -28.3964  -20.6108   20.6733 C   0  0  0  0  0  0
  -27.1259  -21.3343   22.7983 C   0  0  0  0  0  0
  -29.8734  -17.1121   19.5091 C   0  0  0  0  0  0
  -29.7817  -17.0717   21.5182 C   0  0  0  0  0  0
  -29.0922  -18.0382   20.4926 C   0  0  0  0  0  0
  -26.2344  -20.6479   21.7203 C   0  0  1  0  0  0
  -25.1059  -21.5442   21.1776 C   0  0  0  0  0  0
  -28.8767  -23.4958   20.2837 C   0  0  0  0  0  0
  -28.0313  -24.8768   20.6348 C   0  0  0  0  0  0
  -27.9330  -22.4178   22.2417 N   0  0  0  0  0  0
  -29.7794  -15.9706   20.4901 N   0  0  0  0  0  0
  -27.1231  -20.1727   20.6514 N   0  3  0  0  0  0
  -29.3584  -19.5899   20.5371 N   0  0  0  0  0  0
  -31.4807  -12.6394   19.1924 H   0  0  0  0  0  0
  -30.4079  -11.5337   19.9991 H   0  0  0  0  0  0
  -29.8210  -11.7134   17.5572 H   0  0  0  0  0  0
  -29.6313  -13.4413   17.7100 H   0  0  0  0  0  0
  -27.9313  -11.2658   18.9599 H   0  0  0  0  0  0
  -27.3898  -12.4643   17.8134 H   0  0  0  0  0  0
  -27.6209  -14.2459   19.4378 H   0  0  0  0  0  0
  -28.7288  -12.2283   21.4529 H   0  0  0  0  0  0
  -28.3999  -13.9164   21.7696 H   0  0  0  0  0  0
  -25.2759   -9.5687   22.4737 H   0  0  0  0  0  0
  -24.0000   -7.4644   22.7460 H   0  0  0  0  0  0
  -21.0832   -8.8780   19.8947 H   0  0  0  0  0  0
  -22.3691  -10.9675   19.6161 H   0  0  0  0  0  0
  -21.2017   -7.6144   23.9713 H   0  0  0  0  0  0
  -21.1476   -6.0514   25.9071 H   0  0  0  0  0  0
  -22.0601   -2.7603   23.2840 H   0  0  0  0  0  0
  -22.4091  -11.9915   22.4820 H   0  0  0  0  0  0
  -21.1079  -13.1256   22.2627 H   0  0  0  0  0  0
  -24.6728  -15.8553   20.5495 H   0  0  0  0  0  0
  -26.2958  -15.6206   20.1247 H   0  0  0  0  0  0
  -26.7219  -32.5380   23.1040 H   0  0  0  0  0  0
  -25.0128  -33.9665   25.0404 H   0  0  0  0  0  0
  -22.7314  -31.2972   21.3867 H   0  0  0  0  0  0
  -23.3759  -35.9601   23.3299 H   0  0  0  0  0  0
  -24.3598  -36.8904   22.2052 H   0  0  0  0  0  0
  -23.7243  -37.6480   23.6655 H   0  0  0  0  0  0
  -26.1224  -31.5124   20.6101 H   0  0  0  0  0  0
  -26.8581  -30.8064   22.0151 H   0  0  0  0  0  0
  -28.1260  -28.8899   21.2272 H   0  0  0  0  0  0
  -25.9793  -25.8974   18.9815 H   0  0  0  0  0  0
  -23.9867  -27.3041   18.9802 H   0  0  0  0  0  0
  -23.7800  -30.5759   19.3968 H   0  0  0  0  0  0
  -22.7737  -29.2355   19.8525 H   0  0  0  0  0  0
  -25.1303  -36.1898   25.0818 H   0  0  0  0  0  0
  -20.9968  -28.3284   24.1364 H   0  0  0  0  0  0
  -20.5682  -26.2314   23.3613 H   0  0  0  0  0  0
  -21.6655  -26.7426   22.1204 H   0  0  0  0  0  0
  -19.6948  -25.6256   21.1273 H   0  0  0  0  0  0
  -19.6719  -27.3153   20.6713 H   0  0  0  0  0  0
  -17.4225  -26.6642   21.4019 H   0  0  0  0  0  0
  -18.0368  -26.0064   22.9027 H   0  0  0  0  0  0
  -19.7943  -30.7249   24.2271 H   0  0  0  0  0  0
  -17.5004  -31.6265   24.5136 H   0  0  0  0  0  0
  -15.5346  -30.2944   23.7643 H   0  0  0  0  0  0
  -15.8678  -28.0767   22.7090 H   0  0  0  0  0  0
  -24.5865  -30.7139   25.7759 H   0  0  0  0  0  0
  -24.8934  -32.2947   26.4837 H   0  0  0  0  0  0
  -25.8015  -30.8935   27.0214 H   0  0  0  0  0  0
  -26.2959  -29.6732   24.1232 H   0  0  0  0  0  0
  -27.3995  -29.7265   25.4779 H   0  0  0  0  0  0
  -27.8856  -30.4266   23.9531 H   0  0  0  0  0  0
  -27.2653  -33.3607   26.2086 H   0  0  0  0  0  0
  -28.3858  -32.6903   25.0317 H   0  0  0  0  0  0
  -28.0729  -31.8434   26.5396 H   0  0  0  0  0  0
  -28.2590  -38.0093   24.7508 H   0  0  0  0  0  0
  -28.1076  -36.2624   24.6283 H   0  0  0  0  0  0
  -27.2302  -37.1451   25.8871 H   0  0  0  0  0  0
  -20.9408  -29.8744   21.6823 H   0  0  0  0  0  0
  -26.0165  -38.2846   24.1393 H   0  0  0  0  0  0
  -27.7666  -20.5957   23.2826 H   0  0  0  0  0  0
  -26.4839  -21.7267   23.5883 H   0  0  0  0  0  0
  -30.8909  -17.4465   19.2913 H   0  0  0  0  0  0
  -29.3260  -16.9351   18.5829 H   0  0  0  0  0  0
  -29.1512  -16.8570   22.3826 H   0  0  0  0  0  0
  -30.7766  -17.3901   21.8409 H   0  0  0  0  0  0
  -28.0256  -17.8188   20.4443 H   0  0  0  0  0  0
  -25.7738  -19.7627   22.1627 H   0  0  0  0  0  0
  -25.4542  -22.5543   20.9642 H   0  0  0  0  0  0
  -24.3013  -21.6223   21.9083 H   0  0  0  0  0  0
  -24.6777  -21.1425   20.2596 H   0  0  0  0  0  0
  -28.7786  -23.2711   19.2219 H   0  0  0  0  0  0
  -29.9371  -23.6856   20.4497 H   0  0  0  0  0  0
  -28.0728  -24.9875   21.7189 H   0  0  0  0  0  0
  -26.9879  -24.6350   20.4431 H   0  0  0  0  0  0
  -26.8941  -19.2976   20.2091 H   0  0  0  0  0  0
  -30.3244  -19.8815   20.5912 H   0  0  0  0  0  0
  1 25  1  0  0  0
  1 30  2  0  0  0
  1 82  1  0  0  0
  2  3  1  0  0  0
  2 25  1  0  0  0
  2 85  1  0  0  0
  2 86  1  0  0  0
  3  4  1  0  0  0
  3 87  1  0  0  0
  3 88  1  0  0  0
  4  5  1  0  0  0
  4 89  1  0  0  0
  4 90  1  0  0  0
  5  6  1  0  0  0
  5 26  1  0  0  0
  5 91  1  0  0  0
  6 25  1  0  0  0
  6 92  1  0  0  0
  6 93  1  0  0  0
  7  8  2  0  0  0
  7 26  1  0  0  0
  7 29  1  0  0  0
  8  9  1  0  0  0
  8 22  1  0  0  0
  9 10  1  0  0  0
  9 27  2  0  0  0
 10 11  2  0  0  0
 10 15  1  0  0  0
 11 12  1  0  0  0
 11 94  1  0  0  0
 12 13  2  0  0  0
 12 95  1  0  0  0
 13 14  1  0  0  0
 13 31  1  0  0  0
 14 15  2  0  0  0
 14 96  1  0  0  0
 15 97  1  0  0  0
 16 17  2  0  0  0
 16 21  1  0  0  0
 16 31  1  0  0  0
 17 18  1  0  0  0
 17 98  1  0  0  0
 18 19  2  0  0  0
 18 99  1  0  0  0
 19 20  1  0  0  0
 19 24  1  0  0  0
 20 21  2  0  0  0
 20100  1  0  0  0
 21 23  1  0  0  0
 22 28  1  0  0  0
 22 32  2  0  0  0
 26 27  1  0  0  0
 28101  1  0  0  0
 28102  1  0  0  0
 29103  1  0  0  0
 29104  1  0  0  0
 33 34  1  0  0  0
 33 66  1  0  0  0
 33 70  2  0  0  0
 34 36  1  0  0  0
 34 59  1  0  0  0
 34105  1  0  0  0
 35 44  2  0  0  0
 35 45  1  0  0  0
 35 68  1  0  0  0
 36 56  1  0  0  0
 36106  1  0  0  0
 37 39  1  0  0  0
 37 47  1  0  0  0
 37 66  1  0  0  0
 37107  1  0  0  0
 38 43  2  0  0  0
 38 46  1  0  0  0
 38 47  1  0  0  0
 39 64  1  0  0  0
 39 67  2  0  0  0
 40 52  1  0  0  0
 40 53  2  0  0  0
 40 58  1  0  0  0
 41108  1  0  0  0
 41109  1  0  0  0
 41110  1  0  0  0
 41 48  1  0  0  0
 42 43  1  0  0  0
 42 66  1  0  0  0
 42111  1  0  0  0
 42112  1  0  0  0
 43 44  1  0  0  0
 44113  1  0  0  0
 45 46  2  0  0  0
 45114  1  0  0  0
 46115  1  0  0  0
 47116  1  0  0  0
 47117  1  0  0  0
 48 56  1  0  0  0
 48 65  1  0  0  0
 48118  1  0  0  0
 49 50  1  0  0  0
 49 53  1  0  0  0
 49 64  1  0  0  0
 49119  1  0  0  0
 50 51  1  0  0  0
 50120  1  0  0  0
 50121  1  0  0  0
 51 52  1  0  0  0
 51122  1  0  0  0
 51123  1  0  0  0
 52124  1  0  0  0
 52125  1  0  0  0
 53 54  1  0  0  0
 54 55  2  0  0  0
 54126  1  0  0  0
 55 57  1  0  0  0
 55127  1  0  0  0
 56 69  2  0  0  0
 57 58  2  0  0  0
 57128  1  0  0  0
 58129  1  0  0  0
 59 60  1  0  0  0
 59 61  1  0  0  0
 59 62  1  0  0  0
 60130  1  0  0  0
 60131  1  0  0  0
 60132  1  0  0  0
 61133  1  0  0  0
 61134  1  0  0  0
 61135  1  0  0  0
 62136  1  0  0  0
 62137  1  0  0  0
 62138  1  0  0  0
 63 65  1  0  0  0
 63139  1  0  0  0
 63140  1  0  0  0
 63141  1  0  0  0
 64142  1  0  0  0
 65143  1  0  0  0
 68 80  1  0  0  0
 71 72  1  0  0  0
 71 79  1  0  0  0
 71 81  2  0  0  0
 72 83  2  0  0  0
 72 84  1  0  0  0
 73 77  1  0  0  0
 73 81  1  0  0  0
 73144  1  0  0  0
 73145  1  0  0  0
 74 76  1  0  0  0
 74 82  1  0  0  0
 74146  1  0  0  0
 74147  1  0  0  0
 75 76  1  0  0  0
 75 82  1  0  0  0
 75148  1  0  0  0
 75149  1  0  0  0
 76 84  1  0  0  0
 76150  1  0  0  0
 77 78  1  0  0  0
 77 83  1  0  0  0
 77151  1  0  0  0
 78152  1  0  0  0
 78153  1  0  0  0
 78154  1  0  0  0
 79 80  1  0  0  0
 79155  1  0  0  0
 79156  1  0  0  0
 80157  1  0  0  0
 80158  1  0  0  0
 83159  1  0  0  0
 84160  1  0  0  0
M  CHG  1  83   1
M  ISO  4   1 100  68 101  80 101  82 100
M  END
> <chiral flag>
0

> <version>
0

> <s_m_source_file>
/data/baiqing/PycharmProjects/Reinvent-master-3.2/result/LINK_invent/BTK/process_docking_weight1_custom_sum_contain_oxygen_bond_distance_aromatic_linkinvent_7_9_3/rearranged_h_0196.sdf

> <i_m_source_file_index>
26

> <r_mmod_Potential_Energy-OPLS-2005>
341.690124511719

> <r_mmod_Stretch_Energy-OPLS-2005>
172.130859375

> <r_mmod_Bend_Energy-OPLS-2005>
242.542663574219

> <r_mmod_Torsional_Energy-OPLS-2005>
316.81396484375

> <r_mmod_Improper_Torsional_Energy-OPLS-2005>
27.4765853881836

> <r_mmod_Van_der_Waal_Energy-OPLS-2005>
132.793838500977

> <r_mmod_Electrostatic_Energy-OPLS-2005>
-185.794525146484

> <r_mmod_Solvation_Energy-OPLS-2005>
-479.796600341797

> <b_mmod_Minimization_Converged-OPLS-2005>
0

> <r_mmod_RMS_Derivative-OPLS-2005>
2.41960978507996

$$$$
26
                    3D
 Structure written by MMmdl.
154162  0  0  1  0            999 V2000
  -30.3355  -15.5241   20.3465 C   0  0  0  0  0  0
  -30.4202  -13.0100   19.5327 C   0  0  0  0  0  0
  -29.5394  -12.6325   18.3134 C   0  0  0  0  0  0
  -28.1040  -12.3025   18.7501 C   0  0  0  0  0  0
  -27.5907  -13.3015   19.8121 C   0  0  2  0  0  0
  -28.6105  -13.5944   20.9332 C   0  0  0  0  0  0
  -25.2328  -13.8288   20.5821 C   0  0  0  0  0  0
  -24.1692  -13.0418   20.9264 C   0  0  0  0  0  0
  -24.6392  -11.6940   20.8760 C   0  0  0  0  0  0
  -23.9126  -10.4291   21.0411 C   0  0  0  0  0  0
  -24.3666   -9.4206   21.9200 C   0  0  0  0  0  0
  -23.6324   -8.2252   22.0757 C   0  0  0  0  0  0
  -22.4301   -8.0314   21.3554 C   0  0  0  0  0  0
  -21.9953   -9.0288   20.4657 C   0  0  0  0  0  0
  -22.7296  -10.2147   20.3072 C   0  0  0  0  0  0
  -21.6858   -6.0755   22.5277 C   0  0  0  0  0  0
  -21.4014   -6.5656   23.8210 C   0  0  0  0  0  0
  -21.3660   -5.6813   24.9176 C   0  0  0  0  0  0
  -21.6035   -4.3073   24.7218 C   0  0  0  0  0  0
  -21.8830   -3.8163   23.4346 C   0  0  0  0  0  0
  -21.9184   -4.6976   22.3398 C   0  0  0  0  0  0
  -22.7733  -13.5193   21.1911 C   0  0  0  0  0  0
  -22.1661   -4.2180   21.0967 F   0  0  0  0  0  0
  -21.5623   -3.4540   25.7716 F   0  0  0  0  0  0
  -29.7934  -14.1831   20.2763 N   0  0  0  0  0  0
  -26.2733  -12.9587   20.3244 N   0  0  0  0  0  0
  -25.9328  -11.6664   20.5730 N   0  0  0  0  0  0
  -22.0382  -12.8158   22.0434 N   0  0  0  0  0  0
  -25.3955  -15.2039   20.4359 N   0  0  0  0  0  0
  -31.5700  -15.4620   20.1873 O   0  0  0  0  0  0
  -21.6644   -6.8907   21.4254 O   0  0  0  0  0  0
  -22.3402  -14.5471   20.6735 O   0  0  0  0  0  0
  -24.6736  -31.8093   23.1615 C   0  0  0  0  0  0
  -25.9377  -32.4529   23.8096 C   0  0  1  0  0  0
  -27.2067  -26.7778   20.2365 C   0  0  0  0  0  0
  -25.6023  -33.8353   24.2016 N   0  0  0  0  0  0
  -23.4901  -30.4175   21.5171 C   0  0  2  0  0  0
  -24.9434  -28.7667   20.1340 C   0  0  0  0  0  0
  -22.7675  -29.4389   22.4798 C   0  0  0  0  0  0
  -18.0309  -28.1389   22.8463 C   0  0  0  0  0  0
  -24.1484  -36.7153   23.2651 C   0  0  0  0  0  0
  -26.0695  -30.5724   21.4093 C   0  0  0  0  0  0
  -26.1349  -29.1420   20.7694 C   0  0  0  0  0  0
  -27.2569  -28.1750   20.7854 C   0  0  0  0  0  0
  -25.9867  -26.5902   19.5464 C   0  0  0  0  0  0
  -24.9032  -27.5140   19.4977 C   0  0  0  0  0  0
  -23.7361  -29.7156   20.1517 C   0  0  0  0  0  0
  -25.4133  -36.2934   24.0290 C   0  0  1  0  0  0
  -20.5937  -28.3731   23.1176 C   0  0  2  0  0  0
  -20.6794  -26.9408   22.5380 C   0  0  0  0  0  0
  -19.5750  -26.6340   21.5207 C   0  0  0  0  0  0
  -18.1942  -26.7908   22.1641 C   0  0  0  0  0  0
  -19.1568  -28.8893   23.2797 C   0  0  0  0  0  0
  -18.9479  -30.1491   23.8814 C   0  0  0  0  0  0
  -17.6470  -30.6591   24.0556 C   0  0  0  0  0  0
  -25.9119  -34.9336   23.4980 C   0  0  0  0  0  0
  -16.5371  -29.9076   23.6358 C   0  0  0  0  0  0
  -16.7291  -28.6505   23.0365 C   0  0  0  0  0  0
  -26.4589  -31.6515   25.0676 C   0  0  0  0  0  0
  -25.3681  -31.3810   26.1313 C   0  0  0  0  0  0
  -27.0491  -30.2864   24.6490 C   0  0  0  0  0  0
  -27.6054  -32.4335   25.7497 C   0  0  0  0  0  0
  -27.5549  -37.1743   24.8478 C   0  0  0  0  0  0
  -21.4350  -29.3035   22.3534 N   0  0  0  0  0  0
  -26.4270  -37.3677   23.9410 N   0  0  0  0  0  0
  -24.7669  -30.9598   22.0841 N   0  0  0  0  0  0
  -23.4183  -28.7970   23.3078 O   0  0  0  0  0  0
  -28.2216  -25.6352   20.2122 O   0  0  0  0  0  0
  -26.5729  -34.8894   22.4581 O   0  0  0  0  0  0
  -23.5797  -32.1146   23.6666 O   0  0  0  0  0  0
  -29.6603  -18.0605   21.3973 C   0  0  0  0  0  0
  -28.9011  -19.6260   21.3833 C   0  0  0  0  0  0
  -28.9371  -19.5356   19.1395 C   0  0  0  0  0  0
  -29.6185  -17.9475   19.1623 C   0  0  2  0  0  0
  -29.1177  -17.2359   17.8787 C   0  0  0  0  0  0
  -28.4133  -22.2328   19.8987 C   0  0  0  0  0  0
  -28.2487  -23.9565   20.6347 C   0  0  0  0  0  0
  -29.6108  -16.8913   20.3308 N   0  0  0  0  0  0
  -29.1011  -20.6562   20.2212 N   0  3  2  0  0  0
  -29.6159  -17.8847   16.7178 O   0  0  0  0  0  0
  -31.4136  -13.2704   19.1687 H   0  0  0  0  0  0
  -30.5748  -12.1574   20.1957 H   0  0  0  0  0  0
  -29.9757  -11.7933   17.7714 H   0  0  0  0  0  0
  -29.5222  -13.4703   17.6164 H   0  0  0  0  0  0
  -28.1026  -11.2952   19.1664 H   0  0  0  0  0  0
  -27.4399  -12.2807   17.8845 H   0  0  0  0  0  0
  -27.4648  -14.2348   19.2591 H   0  0  0  0  0  0
  -28.8485  -12.7069   21.5212 H   0  0  0  0  0  0
  -28.1979  -14.3244   21.6315 H   0  0  0  0  0  0
  -25.2808   -9.5656   22.4778 H   0  0  0  0  0  0
  -24.0015   -7.4636   22.7490 H   0  0  0  0  0  0
  -21.0876   -8.8845   19.8971 H   0  0  0  0  0  0
  -22.3794  -10.9699   19.6189 H   0  0  0  0  0  0
  -21.2025   -7.6160   23.9732 H   0  0  0  0  0  0
  -21.1464   -6.0524   25.9081 H   0  0  0  0  0  0
  -22.0597   -2.7628   23.2818 H   0  0  0  0  0  0
  -22.4034  -11.9835   22.4833 H   0  0  0  0  0  0
  -21.1015  -13.1212   22.2664 H   0  0  0  0  0  0
  -24.6367  -15.8565   20.6000 H   0  0  0  0  0  0
  -26.2590  -15.6581   20.1667 H   0  0  0  0  0  0
  -26.7470  -32.5027   23.0803 H   0  0  0  0  0  0
  -25.0100  -33.9382   25.0131 H   0  0  0  0  0  0
  -22.8151  -31.2561   21.3345 H   0  0  0  0  0  0
  -23.3769  -35.9463   23.3301 H   0  0  0  0  0  0
  -24.3539  -36.8812   22.2070 H   0  0  0  0  0  0
  -23.7231  -37.6333   23.6717 H   0  0  0  0  0  0
  -26.2539  -31.2920   20.6117 H   0  0  0  0  0  0
  -26.9299  -30.6450   22.0611 H   0  0  0  0  0  0
  -28.1623  -28.4709   21.2967 H   0  0  0  0  0  0
  -25.8446  -25.6418   19.0505 H   0  0  0  0  0  0
  -24.0014  -27.2143   18.9808 H   0  0  0  0  0  0
  -23.9071  -30.4754   19.3887 H   0  0  0  0  0  0
  -22.8419  -29.1767   19.8316 H   0  0  0  0  0  0
  -25.1345  -36.1686   25.0781 H   0  0  0  0  0  0
  -21.0040  -28.3322   24.1282 H   0  0  0  0  0  0
  -20.5744  -26.2340   23.3610 H   0  0  0  0  0  0
  -21.6664  -26.7433   22.1149 H   0  0  0  0  0  0
  -19.6859  -25.6228   21.1263 H   0  0  0  0  0  0
  -19.6675  -27.3106   20.6709 H   0  0  0  0  0  0
  -17.4186  -26.6635   21.4083 H   0  0  0  0  0  0
  -18.0379  -26.0086   22.9083 H   0  0  0  0  0  0
  -19.7974  -30.7325   24.2122 H   0  0  0  0  0  0
  -17.5036  -31.6252   24.5179 H   0  0  0  0  0  0
  -15.5375  -30.2962   23.7702 H   0  0  0  0  0  0
  -15.8678  -28.0806   22.7123 H   0  0  0  0  0  0
  -24.5918  -30.7081   25.7649 H   0  0  0  0  0  0
  -24.8805  -32.3028   26.4511 H   0  0  0  0  0  0
  -25.7899  -30.9160   27.0235 H   0  0  0  0  0  0
  -26.3207  -29.6521   24.1440 H   0  0  0  0  0  0
  -27.3935  -29.7246   25.5184 H   0  0  0  0  0  0
  -27.9175  -30.4018   23.9995 H   0  0  0  0  0  0
  -27.2626  -33.3721   26.1851 H   0  0  0  0  0  0
  -28.3990  -32.6726   25.0411 H   0  0  0  0  0  0
  -28.0562  -31.8579   26.5593 H   0  0  0  0  0  0
  -28.2578  -38.0028   24.7492 H   0  0  0  0  0  0
  -28.1027  -36.2549   24.6349 H   0  0  0  0  0  0
  -27.2250  -37.1453   25.8879 H   0  0  0  0  0  0
  -20.9604  -29.8707   21.6637 H   0  0  0  0  0  0
  -26.0090  -38.2724   24.1421 H   0  0  0  0  0  0
  -30.7229  -18.2587   21.5397 H   0  0  0  0  0  0
  -29.3619  -17.5892   22.3365 H   0  0  0  0  0  0
  -29.2192  -20.1323   22.2934 H   0  0  0  0  0  0
  -27.8264  -19.4816   21.5118 H   0  0  0  0  0  0
  -27.8579  -19.3979   19.0346 H   0  0  0  0  0  0
  -29.2301  -20.0070   18.2012 H   0  0  0  0  0  0
  -30.6857  -18.1152   19.0047 H   0  0  0  0  0  0
  -28.0276  -17.2101   17.8548 H   0  0  0  0  0  0
  -29.4473  -16.1969   17.8250 H   0  0  0  0  0  0
  -28.9922  -22.4710   19.0055 H   0  0  0  0  0  0
  -27.4173  -22.0111   19.5127 H   0  0  0  0  0  0
  -29.1233  -23.9750   21.2850 H   0  0  0  0  0  0
  -27.4227  -23.8629   21.3377 H   0  0  0  0  0  0
  -30.0911  -20.8558   20.2580 H   0  0  0  0  0  0
  -29.2626  -17.4476   15.9485 H   0  0  0  0  0  0
  1 25  1  0  0  0
  1 30  2  0  0  0
  1 78  1  0  0  0
  2  3  1  0  0  0
  2 25  1  0  0  0
  2 81  1  0  0  0
  2 82  1  0  0  0
  3  4  1  0  0  0
  3 83  1  0  0  0
  3 84  1  0  0  0
  4  5  1  0  0  0
  4 85  1  0  0  0
  4 86  1  0  0  0
  5  6  1  0  0  0
  5 26  1  0  0  0
  5 87  1  0  0  0
  6 25  1  0  0  0
  6 88  1  0  0  0
  6 89  1  0  0  0
  7  8  2  0  0  0
  7 26  1  0  0  0
  7 29  1  0  0  0
  8  9  1  0  0  0
  8 22  1  0  0  0
  9 10  1  0  0  0
  9 27  2  0  0  0
 10 11  2  0  0  0
 10 15  1  0  0  0
 11 12  1  0  0  0
 11 90  1  0  0  0
 12 13  2  0  0  0
 12 91  1  0  0  0
 13 14  1  0  0  0
 13 31  1  0  0  0
 14 15  2  0  0  0
 14 92  1  0  0  0
 15 93  1  0  0  0
 16 17  2  0  0  0
 16 21  1  0  0  0
 16 31  1  0  0  0
 17 18  1  0  0  0
 17 94  1  0  0  0
 18 19  2  0  0  0
 18 95  1  0  0  0
 19 20  1  0  0  0
 19 24  1  0  0  0
 20 21  2  0  0  0
 20 96  1  0  0  0
 21 23  1  0  0  0
 22 28  1  0  0  0
 22 32  2  0  0  0
 26 27  1  0  0  0
 28 97  1  0  0  0
 28 98  1  0  0  0
 29 99  1  0  0  0
 29100  1  0  0  0
 33 34  1  0  0  0
 33 66  1  0  0  0
 33 70  2  0  0  0
 34 36  1  0  0  0
 34 59  1  0  0  0
 34101  1  0  0  0
 35 44  2  0  0  0
 35 45  1  0  0  0
 35 68  1  0  0  0
 36 56  1  0  0  0
 36102  1  0  0  0
 37 39  1  0  0  0
 37 47  1  0  0  0
 37 66  1  0  0  0
 37103  1  0  0  0
 38 43  2  0  0  0
 38 46  1  0  0  0
 38 47  1  0  0  0
 39 64  1  0  0  0
 39 67  2  0  0  0
 40 52  1  0  0  0
 40 53  2  0  0  0
 40 58  1  0  0  0
 41104  1  0  0  0
 41105  1  0  0  0
 41106  1  0  0  0
 41 48  1  0  0  0
 42 43  1  0  0  0
 42 66  1  0  0  0
 42107  1  0  0  0
 42108  1  0  0  0
 43 44  1  0  0  0
 44109  1  0  0  0
 45 46  2  0  0  0
 45110  1  0  0  0
 46111  1  0  0  0
 47112  1  0  0  0
 47113  1  0  0  0
 48 56  1  0  0  0
 48 65  1  0  0  0
 48114  1  0  0  0
 49 50  1  0  0  0
 49 53  1  0  0  0
 49 64  1  0  0  0
 49115  1  0  0  0
 50 51  1  0  0  0
 50116  1  0  0  0
 50117  1  0  0  0
 51 52  1  0  0  0
 51118  1  0  0  0
 51119  1  0  0  0
 52120  1  0  0  0
 52121  1  0  0  0
 53 54  1  0  0  0
 54 55  2  0  0  0
 54122  1  0  0  0
 55 57  1  0  0  0
 55123  1  0  0  0
 56 69  2  0  0  0
 57 58  2  0  0  0
 57124  1  0  0  0
 58125  1  0  0  0
 59 60  1  0  0  0
 59 61  1  0  0  0
 59 62  1  0  0  0
 60126  1  0  0  0
 60127  1  0  0  0
 60128  1  0  0  0
 61129  1  0  0  0
 61130  1  0  0  0
 61131  1  0  0  0
 62132  1  0  0  0
 62133  1  0  0  0
 62134  1  0  0  0
 63 65  1  0  0  0
 63135  1  0  0  0
 63136  1  0  0  0
 63137  1  0  0  0
 64138  1  0  0  0
 65139  1  0  0  0
 68 77  1  0  0  0
 71 72  1  0  0  0
 71 78  1  0  0  0
 71140  1  0  0  0
 71141  1  0  0  0
 72 79  1  0  0  0
 72142  1  0  0  0
 72143  1  0  0  0
 73 74  1  0  0  0
 73 79  1  0  0  0
 73144  1  0  0  0
 73145  1  0  0  0
 74 75  1  0  0  0
 74 78  1  0  0  0
 74146  1  0  0  0
 75 80  1  0  0  0
 75147  1  0  0  0
 75148  1  0  0  0
 76 77  1  0  0  0
 76149  1  0  0  0
 76150  1  0  0  0
 76 79  1  0  0  0
 77151  1  0  0  0
 77152  1  0  0  0
 79153  1  0  0  0
 80154  1  0  0  0
M  CHG  1  79   1
M  ISO  4   1 100  68 101  77 101  78 100
M  END
> <chiral flag>
0

> <version>
0

> <s_m_source_file>
/data/baiqing/PycharmProjects/Reinvent-master-3.2/result/LINK_invent/BTK/process_docking_weight1_custom_sum_contain_oxygen_bond_distance_aromatic_linkinvent_7_9_3/rearranged_h_0196.sdf

> <i_m_source_file_index>
27

> <r_mmod_Potential_Energy-OPLS-2005>
2156.14428710938

> <r_mmod_Stretch_Energy-OPLS-2005>
820.721618652344

> <r_mmod_Bend_Energy-OPLS-2005>
722.892639160156

> <r_mmod_Torsional_Energy-OPLS-2005>
406.710784912109

> <r_mmod_Improper_Torsional_Energy-OPLS-2005>
11.0940933227539

> <r_mmod_Van_der_Waal_Energy-OPLS-2005>
114.969604492188

> <r_mmod_Electrostatic_Energy-OPLS-2005>
-215.471145629883

> <r_mmod_Solvation_Energy-OPLS-2005>
-440.987762451172

> <b_mmod_Minimization_Converged-OPLS-2005>
0

> <r_mmod_RMS_Derivative-OPLS-2005>
5.39061641693115

$$$$
27
                    3D
 Structure written by MMmdl.
161169  0  0  1  0            999 V2000
  -30.6746  -14.6216   20.4640 C   0  0  0  0  0  0
  -30.4151  -12.3779   19.4480 C   0  0  0  0  0  0
  -29.4952  -12.4898   18.2152 C   0  0  0  0  0  0
  -28.0189  -12.3430   18.6312 C   0  0  0  0  0  0
  -27.6433  -13.2278   19.8508 C   0  0  2  0  0  0
  -28.6915  -13.1296   20.9792 C   0  0  0  0  0  0
  -25.2529  -13.8204   20.5707 C   0  0  0  0  0  0
  -24.1804  -13.0452   20.9186 C   0  0  0  0  0  0
  -24.6383  -11.6926   20.8733 C   0  0  0  0  0  0
  -23.9061  -10.4300   21.0399 C   0  0  0  0  0  0
  -24.3621   -9.4220   21.9179 C   0  0  0  0  0  0
  -23.6299   -8.2252   22.0750 C   0  0  0  0  0  0
  -22.4280   -8.0284   21.3542 C   0  0  0  0  0  0
  -21.9914   -9.0254   20.4643 C   0  0  0  0  0  0
  -22.7237  -10.2135   20.3050 C   0  0  0  0  0  0
  -21.6858   -6.0738   22.5275 C   0  0  0  0  0  0
  -21.4014   -6.5645   23.8209 C   0  0  0  0  0  0
  -21.3657   -5.6798   24.9171 C   0  0  0  0  0  0
  -21.6039   -4.3058   24.7225 C   0  0  0  0  0  0
  -21.8821   -3.8149   23.4347 C   0  0  0  0  0  0
  -21.9195   -4.6963   22.3399 C   0  0  0  0  0  0
  -22.7824  -13.5229   21.1847 C   0  0  0  0  0  0
  -22.1665   -4.2152   21.0974 F   0  0  0  0  0  0
  -21.5626   -3.4536   25.7738 F   0  0  0  0  0  0
  -30.0003  -13.4340   20.3917 N   0  0  0  0  0  0
  -26.2949  -12.9401   20.3306 N   0  0  0  0  0  0
  -25.9318  -11.6547   20.5753 N   0  0  0  0  0  0
  -22.0474  -12.8216   22.0409 N   0  0  0  0  0  0
  -25.4252  -15.1927   20.4155 N   0  0  0  0  0  0
  -31.8727  -14.6832   20.1706 O   0  0  0  0  0  0
  -21.6642   -6.8886   21.4240 O   0  0  0  0  0  0
  -22.3507  -14.5539   20.6702 O   0  0  0  0  0  0
  -24.6246  -31.8601   23.2026 C   0  0  0  0  0  0
  -25.9102  -32.4784   23.8357 C   0  0  1  0  0  0
  -27.2178  -27.3310   20.1189 C   0  0  0  0  0  0
  -25.5930  -33.8595   24.2290 N   0  0  0  0  0  0
  -23.4188  -30.4821   21.5449 C   0  0  2  0  0  0
  -24.8622  -28.9327   20.1135 C   0  0  0  0  0  0
  -22.7477  -29.4620   22.4960 C   0  0  0  0  0  0
  -18.0281  -28.1401   22.8492 C   0  0  0  0  0  0
  -24.1490  -36.7306   23.2641 C   0  0  0  0  0  0
  -25.9565  -30.7961   21.3670 C   0  0  0  0  0  0
  -26.0305  -29.4205   20.7163 C   0  0  0  0  0  0
  -27.2147  -28.6317   20.7058 C   0  0  0  0  0  0
  -26.0312  -26.8816   19.5035 C   0  0  0  0  0  0
  -24.8634  -27.6699   19.4988 C   0  0  0  0  0  0
  -23.6310  -29.8136   20.1601 C   0  0  0  0  0  0
  -25.4121  -36.3105   24.0330 C   0  0  1  0  0  0
  -20.5875  -28.3687   23.1316 C   0  0  2  0  0  0
  -20.6781  -26.9413   22.5419 C   0  0  0  0  0  0
  -19.5748  -26.6386   21.5225 C   0  0  0  0  0  0
  -18.1927  -26.7935   22.1621 C   0  0  0  0  0  0
  -19.1530  -28.8861   23.2890 C   0  0  0  0  0  0
  -18.9453  -30.1458   23.8896 C   0  0  0  0  0  0
  -17.6455  -30.6595   24.0568 C   0  0  0  0  0  0
  -25.9049  -34.9466   23.5114 C   0  0  0  0  0  0
  -16.5352  -29.9100   23.6318 C   0  0  0  0  0  0
  -16.7264  -28.6519   23.0341 C   0  0  0  0  0  0
  -26.4488  -31.6594   25.0725 C   0  0  0  0  0  0
  -25.3714  -31.3735   26.1440 C   0  0  0  0  0  0
  -27.0315  -30.3035   24.6130 C   0  0  0  0  0  0
  -27.6073  -32.4314   25.7480 C   0  0  0  0  0  0
  -27.5577  -37.1805   24.8471 C   0  0  0  0  0  0
  -21.4183  -29.3058   22.3729 N   0  0  0  0  0  0
  -26.4296  -37.3804   23.9406 N   0  0  0  0  0  0
  -24.6868  -31.0635   22.0957 N   0  0  0  0  0  0
  -23.4199  -28.8135   23.3017 O   0  0  0  0  0  0
  -28.3382  -26.5020   20.1087 O   0  0  0  0  0  0
  -26.5616  -34.8946   22.4675 O   0  0  0  0  0  0
  -23.5413  -32.1392   23.7357 O   0  0  0  0  0  0
  -30.2999  -16.7033   21.6900 C   0  0  0  0  0  0
  -29.7698  -16.5468   19.2969 C   0  0  0  0  0  0
  -29.6827  -18.1457   21.6733 C   0  0  0  0  0  0
  -29.1681  -17.9912   19.3800 C   0  0  0  0  0  0
  -31.0565  -20.5990   19.2566 C   0  0  0  0  0  0
  -28.4405  -23.8436   19.8536 C   0  0  0  0  0  0
  -28.6841  -21.2139   20.0006 C   0  0  0  0  0  0
  -28.2115  -25.1621   20.7193 C   0  0  0  0  0  0
  -29.9518  -20.2949   20.2862 C   0  0  1  0  0  0
  -29.9480  -15.7895   20.5699 N   0  0  0  0  0  0
  -29.8798  -18.7936   20.3747 N   0  0  0  0  0  0
  -28.7348  -22.5820   20.6572 N   0  3  0  0  0  0
  -31.4606  -12.4691   19.1470 H   0  0  0  0  0  0
  -30.3215  -11.3948   19.9133 H   0  0  0  0  0  0
  -29.7529  -11.7264   17.4796 H   0  0  0  0  0  0
  -29.6471  -13.4521   17.7234 H   0  0  0  0  0  0
  -27.8488  -11.2926   18.8694 H   0  0  0  0  0  0
  -27.3662  -12.5684   17.7875 H   0  0  0  0  0  0
  -27.6461  -14.2559   19.4897 H   0  0  0  0  0  0
  -28.6990  -12.1316   21.4199 H   0  0  0  0  0  0
  -28.4558  -13.8242   21.7871 H   0  0  0  0  0  0
  -25.2770   -9.5699   22.4745 H   0  0  0  0  0  0
  -24.0009   -7.4650   22.7472 H   0  0  0  0  0  0
  -21.0846   -8.8773   19.8953 H   0  0  0  0  0  0
  -22.3698  -10.9671   19.6151 H   0  0  0  0  0  0
  -21.2005   -7.6156   23.9718 H   0  0  0  0  0  0
  -21.1470   -6.0523   25.9078 H   0  0  0  0  0  0
  -22.0600   -2.7610   23.2841 H   0  0  0  0  0  0
  -22.4105  -11.9881   22.4797 H   0  0  0  0  0  0
  -21.1084  -13.1226   22.2602 H   0  0  0  0  0  0
  -24.6661  -15.8536   20.5396 H   0  0  0  0  0  0
  -26.2941  -15.6330   20.1406 H   0  0  0  0  0  0
  -26.7165  -32.5434   23.1093 H   0  0  0  0  0  0
  -25.0100  -33.9760   25.0448 H   0  0  0  0  0  0
  -22.7108  -31.3004   21.4003 H   0  0  0  0  0  0
  -23.3767  -35.9625   23.3322 H   0  0  0  0  0  0
  -24.3579  -36.8891   22.2049 H   0  0  0  0  0  0
  -23.7223  -37.6506   23.6652 H   0  0  0  0  0  0
  -26.0754  -31.5510   20.5887 H   0  0  0  0  0  0
  -26.8451  -30.8543   21.9840 H   0  0  0  0  0  0
  -28.1162  -29.0035   21.1738 H   0  0  0  0  0  0
  -26.0025  -25.9119   19.0284 H   0  0  0  0  0  0
  -23.9679  -27.2906   19.0264 H   0  0  0  0  0  0
  -23.7478  -30.5887   19.4011 H   0  0  0  0  0  0
  -22.7520  -29.2404   19.8588 H   0  0  0  0  0  0
  -25.1292  -36.1952   25.0819 H   0  0  0  0  0  0
  -20.9959  -28.3240   24.1443 H   0  0  0  0  0  0
  -20.5711  -26.2288   23.3609 H   0  0  0  0  0  0
  -21.6644  -26.7453   22.1187 H   0  0  0  0  0  0
  -19.6920  -25.6302   21.1236 H   0  0  0  0  0  0
  -19.6702  -27.3220   20.6783 H   0  0  0  0  0  0
  -17.4203  -26.6693   21.4016 H   0  0  0  0  0  0
  -18.0304  -26.0094   22.9017 H   0  0  0  0  0  0
  -19.7930  -30.7276   24.2280 H   0  0  0  0  0  0
  -17.5009  -31.6263   24.5170 H   0  0  0  0  0  0
  -15.5355  -30.3001   23.7665 H   0  0  0  0  0  0
  -15.8653  -28.0839   22.7070 H   0  0  0  0  0  0
  -24.5902  -30.7055   25.7772 H   0  0  0  0  0  0
  -24.8881  -32.2910   26.4831 H   0  0  0  0  0  0
  -25.8021  -30.8931   27.0232 H   0  0  0  0  0  0
  -26.2863  -29.6807   24.1164 H   0  0  0  0  0  0
  -27.4065  -29.7252   25.4584 H   0  0  0  0  0  0
  -27.8718  -30.4378   23.9311 H   0  0  0  0  0  0
  -27.2713  -33.3647   26.2029 H   0  0  0  0  0  0
  -28.3897  -32.6800   25.0288 H   0  0  0  0  0  0
  -28.0730  -31.8429   26.5393 H   0  0  0  0  0  0
  -28.2608  -38.0091   24.7512 H   0  0  0  0  0  0
  -28.1037  -36.2614   24.6288 H   0  0  0  0  0  0
  -27.2290  -37.1450   25.8874 H   0  0  0  0  0  0
  -20.9376  -29.8762   21.6921 H   0  0  0  0  0  0
  -26.0170  -38.2870   24.1415 H   0  0  0  0  0  0
  -30.0277  -16.2184   22.6292 H   0  0  0  0  0  0
  -31.3862  -16.8117   21.7198 H   0  0  0  0  0  0
  -30.7396  -16.6297   18.8014 H   0  0  0  0  0  0
  -29.1533  -15.9518   18.6209 H   0  0  0  0  0  0
  -30.1626  -18.7390   22.4525 H   0  0  0  0  0  0
  -28.6203  -18.1167   21.9224 H   0  0  0  0  0  0
  -28.1045  -17.9519   19.6255 H   0  0  0  0  0  0
  -29.2406  -18.4622   18.3995 H   0  0  0  0  0  0
  -31.2597  -21.6679   19.1907 H   0  0  0  0  0  0
  -30.7854  -20.2612   18.2560 H   0  0  0  0  0  0
  -31.9928  -20.1079   19.5254 H   0  0  0  0  0  0
  -29.2766  -23.9998   19.1746 H   0  0  0  0  0  0
  -27.5634  -23.6788   19.2269 H   0  0  0  0  0  0
  -27.7881  -20.7164   20.3720 H   0  0  0  0  0  0
  -28.5305  -21.3177   18.9256 H   0  0  0  0  0  0
  -28.9562  -25.1579   21.5151 H   0  0  0  0  0  0
  -27.2551  -25.0768   21.2379 H   0  0  0  0  0  0
  -30.3483  -20.6103   21.2527 H   0  0  0  0  0  0
  -28.0809  -22.5341   21.4227 H   0  0  0  0  0  0
  -29.6463  -22.6836   21.0762 H   0  0  0  0  0  0
  1 25  1  0  0  0
  1 30  2  0  0  0
  1 80  1  0  0  0
  2  3  1  0  0  0
  2 25  1  0  0  0
  2 83  1  0  0  0
  2 84  1  0  0  0
  3  4  1  0  0  0
  3 85  1  0  0  0
  3 86  1  0  0  0
  4  5  1  0  0  0
  4 87  1  0  0  0
  4 88  1  0  0  0
  5  6  1  0  0  0
  5 26  1  0  0  0
  5 89  1  0  0  0
  6 25  1  0  0  0
  6 90  1  0  0  0
  6 91  1  0  0  0
  7  8  2  0  0  0
  7 26  1  0  0  0
  7 29  1  0  0  0
  8  9  1  0  0  0
  8 22  1  0  0  0
  9 10  1  0  0  0
  9 27  2  0  0  0
 10 11  2  0  0  0
 10 15  1  0  0  0
 11 12  1  0  0  0
 11 92  1  0  0  0
 12 13  2  0  0  0
 12 93  1  0  0  0
 13 14  1  0  0  0
 13 31  1  0  0  0
 14 15  2  0  0  0
 14 94  1  0  0  0
 15 95  1  0  0  0
 16 17  2  0  0  0
 16 21  1  0  0  0
 16 31  1  0  0  0
 17 18  1  0  0  0
 17 96  1  0  0  0
 18 19  2  0  0  0
 18 97  1  0  0  0
 19 20  1  0  0  0
 19 24  1  0  0  0
 20 21  2  0  0  0
 20 98  1  0  0  0
 21 23  1  0  0  0
 22 28  1  0  0  0
 22 32  2  0  0  0
 26 27  1  0  0  0
 28 99  1  0  0  0
 28100  1  0  0  0
 29101  1  0  0  0
 29102  1  0  0  0
 33 34  1  0  0  0
 33 66  1  0  0  0
 33 70  2  0  0  0
 34 36  1  0  0  0
 34 59  1  0  0  0
 34103  1  0  0  0
 35 44  2  0  0  0
 35 45  1  0  0  0
 35 68  1  0  0  0
 36 56  1  0  0  0
 36104  1  0  0  0
 37 39  1  0  0  0
 37 47  1  0  0  0
 37 66  1  0  0  0
 37105  1  0  0  0
 38 43  2  0  0  0
 38 46  1  0  0  0
 38 47  1  0  0  0
 39 64  1  0  0  0
 39 67  2  0  0  0
 40 52  1  0  0  0
 40 53  2  0  0  0
 40 58  1  0  0  0
 41106  1  0  0  0
 41107  1  0  0  0
 41108  1  0  0  0
 41 48  1  0  0  0
 42 43  1  0  0  0
 42 66  1  0  0  0
 42109  1  0  0  0
 42110  1  0  0  0
 43 44  1  0  0  0
 44111  1  0  0  0
 45 46  2  0  0  0
 45112  1  0  0  0
 46113  1  0  0  0
 47114  1  0  0  0
 47115  1  0  0  0
 48 56  1  0  0  0
 48 65  1  0  0  0
 48116  1  0  0  0
 49 50  1  0  0  0
 49 53  1  0  0  0
 49 64  1  0  0  0
 49117  1  0  0  0
 50 51  1  0  0  0
 50118  1  0  0  0
 50119  1  0  0  0
 51 52  1  0  0  0
 51120  1  0  0  0
 51121  1  0  0  0
 52122  1  0  0  0
 52123  1  0  0  0
 53 54  1  0  0  0
 54 55  2  0  0  0
 54124  1  0  0  0
 55 57  1  0  0  0
 55125  1  0  0  0
 56 69  2  0  0  0
 57 58  2  0  0  0
 57126  1  0  0  0
 58127  1  0  0  0
 59 60  1  0  0  0
 59 61  1  0  0  0
 59 62  1  0  0  0
 60128  1  0  0  0
 60129  1  0  0  0
 60130  1  0  0  0
 61131  1  0  0  0
 61132  1  0  0  0
 61133  1  0  0  0
 62134  1  0  0  0
 62135  1  0  0  0
 62136  1  0  0  0
 63 65  1  0  0  0
 63137  1  0  0  0
 63138  1  0  0  0
 63139  1  0  0  0
 64140  1  0  0  0
 65141  1  0  0  0
 68 78  1  0  0  0
 71 73  1  0  0  0
 71 80  1  0  0  0
 71142  1  0  0  0
 71143  1  0  0  0
 72 74  1  0  0  0
 72 80  1  0  0  0
 72144  1  0  0  0
 72145  1  0  0  0
 73 81  1  0  0  0
 73146  1  0  0  0
 73147  1  0  0  0
 74 81  1  0  0  0
 74148  1  0  0  0
 74149  1  0  0  0
 75150  1  0  0  0
 75151  1  0  0  0
 75152  1  0  0  0
 75 79  1  0  0  0
 76 78  1  0  0  0
 76 82  1  0  0  0
 76153  1  0  0  0
 76154  1  0  0  0
 77 79  1  0  0  0
 77 82  1  0  0  0
 77155  1  0  0  0
 77156  1  0  0  0
 78157  1  0  0  0
 78158  1  0  0  0
 79 81  1  0  0  0
 79159  1  0  0  0
 82160  1  0  0  0
 82161  1  0  0  0
M  CHG  1  82   1
M  ISO  4   1 100  68 101  78 101  80 100
M  END
> <chiral flag>
0

> <version>
0

> <s_m_source_file>
/data/baiqing/PycharmProjects/Reinvent-master-3.2/result/LINK_invent/BTK/process_docking_weight1_custom_sum_contain_oxygen_bond_distance_aromatic_linkinvent_7_9_3/rearranged_h_0196.sdf

> <i_m_source_file_index>
28

> <r_mmod_Potential_Energy-OPLS-2005>
176.016326904297

> <r_mmod_Stretch_Energy-OPLS-2005>
76.1716003417969

> <r_mmod_Bend_Energy-OPLS-2005>
174.107574462891

> <r_mmod_Torsional_Energy-OPLS-2005>
408.304107666016

> <r_mmod_Improper_Torsional_Energy-OPLS-2005>
11.3709707260132

> <r_mmod_Van_der_Waal_Energy-OPLS-2005>
122.848731994629

> <r_mmod_Electrostatic_Energy-OPLS-2005>
-212.341522216797

> <r_mmod_Solvation_Energy-OPLS-2005>
-451.050537109375

> <b_mmod_Minimization_Converged-OPLS-2005>
0

> <r_mmod_RMS_Derivative-OPLS-2005>
2.51481127738953

$$$$
28
                    3D
 Structure written by MMmdl.
166175  0  0  1  0            999 V2000
  -30.6687  -14.8038   20.4533 C   0  0  0  0  0  0
  -30.4159  -12.5018   19.4879 C   0  0  0  0  0  0
  -29.5033  -12.5037   18.2439 C   0  0  0  0  0  0
  -28.0385  -12.2997   18.6655 C   0  0  0  0  0  0
  -27.6275  -13.2267   19.8376 C   0  0  2  0  0  0
  -28.6750  -13.2619   20.9743 C   0  0  0  0  0  0
  -25.2490  -13.8168   20.5737 C   0  0  0  0  0  0
  -24.1771  -13.0417   20.9223 C   0  0  0  0  0  0
  -24.6357  -11.6891   20.8759 C   0  0  0  0  0  0
  -23.9040  -10.4279   21.0419 C   0  0  0  0  0  0
  -24.3597   -9.4193   21.9192 C   0  0  0  0  0  0
  -23.6271   -8.2226   22.0755 C   0  0  0  0  0  0
  -22.4261   -8.0265   21.3534 C   0  0  0  0  0  0
  -21.9891   -9.0239   20.4646 C   0  0  0  0  0  0
  -22.7215  -10.2117   20.3064 C   0  0  0  0  0  0
  -21.6841   -6.0726   22.5277 C   0  0  0  0  0  0
  -21.4012   -6.5633   23.8209 C   0  0  0  0  0  0
  -21.3660   -5.6790   24.9175 C   0  0  0  0  0  0
  -21.6045   -4.3055   24.7229 C   0  0  0  0  0  0
  -21.8819   -3.8142   23.4352 C   0  0  0  0  0  0
  -21.9185   -4.6953   22.3401 C   0  0  0  0  0  0
  -22.7802  -13.5212   21.1873 C   0  0  0  0  0  0
  -22.1654   -4.2140   21.0977 F   0  0  0  0  0  0
  -21.5628   -3.4542   25.7746 F   0  0  0  0  0  0
  -29.9708  -13.6083   20.3780 N   0  0  0  0  0  0
  -26.2876  -12.9346   20.3279 N   0  0  0  0  0  0
  -25.9285  -11.6503   20.5780 N   0  0  0  0  0  0
  -22.0438  -12.8205   22.0422 N   0  0  0  0  0  0
  -25.4261  -15.1889   20.4228 N   0  0  0  0  0  0
  -31.8639  -14.7849   20.1493 O   0  0  0  0  0  0
  -21.6619   -6.8865   21.4238 O   0  0  0  0  0  0
  -22.3503  -14.5517   20.6716 O   0  0  0  0  0  0
  -24.6364  -31.8533   23.2000 C   0  0  0  0  0  0
  -25.9172  -32.4748   23.8356 C   0  0  1  0  0  0
  -27.2063  -27.2148   20.1310 C   0  0  0  0  0  0
  -25.5951  -33.8560   24.2269 N   0  0  0  0  0  0
  -23.4345  -30.4799   21.5442 C   0  0  2  0  0  0
  -24.8813  -28.9312   20.1082 C   0  0  0  0  0  0
  -22.7518  -29.4606   22.4896 C   0  0  0  0  0  0
  -18.0296  -28.1396   22.8499 C   0  0  0  0  0  0
  -24.1485  -36.7269   23.2643 C   0  0  0  0  0  0
  -25.9878  -30.7501   21.3911 C   0  0  0  0  0  0
  -26.0580  -29.3726   20.7275 C   0  0  0  0  0  0
  -27.2232  -28.5276   20.7305 C   0  0  0  0  0  0
  -26.0075  -26.8769   19.4548 C   0  0  0  0  0  0
  -24.8649  -27.6935   19.4599 C   0  0  0  0  0  0
  -23.6547  -29.8218   20.1591 C   0  0  0  0  0  0
  -25.4119  -36.3069   24.0325 C   0  0  1  0  0  0
  -20.5898  -28.3723   23.1245 C   0  0  2  0  0  0
  -20.6780  -26.9436   22.5401 C   0  0  0  0  0  0
  -19.5744  -26.6393   21.5216 C   0  0  0  0  0  0
  -18.1923  -26.7938   22.1629 C   0  0  0  0  0  0
  -19.1548  -28.8878   23.2867 C   0  0  0  0  0  0
  -18.9470  -30.1474   23.8898 C   0  0  0  0  0  0
  -17.6469  -30.6601   24.0562 C   0  0  0  0  0  0
  -25.9062  -34.9436   23.5099 C   0  0  0  0  0  0
  -16.5365  -29.9092   23.6344 C   0  0  0  0  0  0
  -16.7282  -28.6503   23.0387 C   0  0  0  0  0  0
  -26.4516  -31.6593   25.0765 C   0  0  0  0  0  0
  -25.3721  -31.3763   26.1474 C   0  0  0  0  0  0
  -27.0375  -30.2996   24.6308 C   0  0  0  0  0  0
  -27.6069  -32.4351   25.7522 C   0  0  0  0  0  0
  -27.5575  -37.1795   24.8471 C   0  0  0  0  0  0
  -21.4218  -29.3064   22.3625 N   0  0  0  0  0  0
  -26.4292  -37.3768   23.9411 N   0  0  0  0  0  0
  -24.7055  -31.0453   22.1004 N   0  0  0  0  0  0
  -23.4191  -28.8135   23.3007 O   0  0  0  0  0  0
  -28.2465  -26.2371   20.2260 O   0  0  0  0  0  0
  -26.5632  -34.8907   22.4666 O   0  0  0  0  0  0
  -23.5496  -32.1393   23.7251 O   0  0  0  0  0  0
  -29.6512  -22.8883   19.4493 C   0  0  0  0  0  0
  -30.0171  -21.4975   19.5192 C   0  0  0  0  0  0
  -28.6363  -23.4173   20.2930 C   0  0  0  0  0  0
  -29.3633  -20.6175   20.4362 C   0  0  0  0  0  0
  -28.6395  -18.1806   20.1382 C   0  0  0  0  0  0
  -29.2473  -16.7604   19.7646 C   0  0  0  0  0  0
  -30.4127  -18.6172   21.6179 C   0  0  0  0  0  0
  -30.9289  -17.1004   21.4714 C   0  0  1  0  0  0
  -31.0597  -20.9500   18.5616 C   0  0  0  0  0  0
  -30.9910  -15.5203   25.0009 C   0  0  0  0  0  0
  -27.8379  -24.7877   19.9811 C   0  0  0  0  0  0
  -31.5035  -16.6042   22.8285 C   0  0  0  0  0  0
  -28.0713  -22.5160   21.1721 N   0  0  0  0  0  0
  -28.4204  -21.1925   21.2492 N   0  0  0  0  0  0
  -29.6545  -19.1833   20.4903 N   0  0  0  0  0  0
  -30.0720  -16.0415   20.7907 N   0  0  0  0  0  0
  -30.4578  -16.1426   23.7726 N   0  3  0  0  0  0
  -31.4575  -12.5991   19.1778 H   0  0  0  0  0  0
  -30.3529  -11.5454   20.0093 H   0  0  0  0  0  0
  -29.8057  -11.7183   17.5501 H   0  0  0  0  0  0
  -29.6089  -13.4469   17.7053 H   0  0  0  0  0  0
  -27.9271  -11.2568   18.9626 H   0  0  0  0  0  0
  -27.3734  -12.4453   17.8130 H   0  0  0  0  0  0
  -27.5793  -14.2151   19.3935 H   0  0  0  0  0  0
  -28.7309  -12.3012   21.4880 H   0  0  0  0  0  0
  -28.3898  -14.0010   21.7238 H   0  0  0  0  0  0
  -25.2742   -9.5656   22.4767 H   0  0  0  0  0  0
  -23.9970   -7.4619   22.7474 H   0  0  0  0  0  0
  -21.0819   -8.8759   19.8957 H   0  0  0  0  0  0
  -22.3679  -10.9654   19.6170 H   0  0  0  0  0  0
  -21.2013   -7.6143   23.9712 H   0  0  0  0  0  0
  -21.1481   -6.0526   25.9075 H   0  0  0  0  0  0
  -22.0601   -2.7607   23.2862 H   0  0  0  0  0  0
  -22.4041  -11.9857   22.4789 H   0  0  0  0  0  0
  -21.1064  -13.1248   22.2646 H   0  0  0  0  0  0
  -24.6702  -15.8522   20.5536 H   0  0  0  0  0  0
  -26.2896  -15.6249   20.1296 H   0  0  0  0  0  0
  -26.7240  -32.5379   23.1092 H   0  0  0  0  0  0
  -25.0108  -33.9705   25.0421 H   0  0  0  0  0  0
  -22.7338  -31.3046   21.3995 H   0  0  0  0  0  0
  -23.3764  -35.9578   23.3296 H   0  0  0  0  0  0
  -24.3573  -36.8915   22.2061 H   0  0  0  0  0  0
  -23.7220  -37.6453   23.6687 H   0  0  0  0  0  0
  -26.1386  -31.5112   20.6241 H   0  0  0  0  0  0
  -26.8599  -30.7925   22.0318 H   0  0  0  0  0  0
  -28.1152  -28.8550   21.2463 H   0  0  0  0  0  0
  -25.8925  -25.9448   18.9255 H   0  0  0  0  0  0
  -23.9692  -27.3540   18.9583 H   0  0  0  0  0  0
  -23.7811  -30.6017   19.4074 H   0  0  0  0  0  0
  -22.7712  -29.2596   19.8515 H   0  0  0  0  0  0
  -25.1301  -36.1913   25.0815 H   0  0  0  0  0  0
  -21.0002  -28.3325   24.1357 H   0  0  0  0  0  0
  -20.5687  -26.2346   23.3621 H   0  0  0  0  0  0
  -21.6646  -26.7453   22.1190 H   0  0  0  0  0  0
  -19.6901  -25.6297   21.1259 H   0  0  0  0  0  0
  -19.6665  -27.3190   20.6732 H   0  0  0  0  0  0
  -17.4191  -26.6717   21.4027 H   0  0  0  0  0  0
  -18.0310  -26.0071   22.9014 H   0  0  0  0  0  0
  -19.7944  -30.7295   24.2270 H   0  0  0  0  0  0
  -17.5022  -31.6279   24.5157 H   0  0  0  0  0  0
  -15.5365  -30.2998   23.7661 H   0  0  0  0  0  0
  -15.8679  -28.0805   22.7137 H   0  0  0  0  0  0
  -24.5873  -30.7146   25.7793 H   0  0  0  0  0  0
  -24.8937  -32.2937   26.4908 H   0  0  0  0  0  0
  -25.8007  -30.8919   27.0255 H   0  0  0  0  0  0
  -26.2985  -29.6729   24.1299 H   0  0  0  0  0  0
  -27.3987  -29.7281   25.4871 H   0  0  0  0  0  0
  -27.8895  -30.4250   23.9623 H   0  0  0  0  0  0
  -27.2701  -33.3697   26.2021 H   0  0  0  0  0  0
  -28.3905  -32.6847   25.0354 H   0  0  0  0  0  0
  -28.0703  -31.8529   26.5497 H   0  0  0  0  0  0
  -28.2598  -38.0087   24.7522 H   0  0  0  0  0  0
  -28.1075  -36.2622   24.6306 H   0  0  0  0  0  0
  -27.2292  -37.1458   25.8874 H   0  0  0  0  0  0
  -20.9413  -29.8800   21.6833 H   0  0  0  0  0  0
  -26.0166  -38.2837   24.1419 H   0  0  0  0  0  0
  -30.0853  -23.5263   18.6936 H   0  0  0  0  0  0
  -27.9404  -18.0761   20.9717 H   0  0  0  0  0  0
  -28.0487  -18.5549   19.3008 H   0  0  0  0  0  0
  -29.8574  -16.8761   18.8663 H   0  0  0  0  0  0
  -28.4186  -16.1269   19.4671 H   0  0  0  0  0  0
  -31.2730  -19.2646   21.8011 H   0  0  0  0  0  0
  -29.7900  -18.7092   22.5091 H   0  0  0  0  0  0
  -31.7952  -17.2123   20.8157 H   0  0  0  0  0  0
  -31.5760  -21.7481   18.0289 H   0  0  0  0  0  0
  -30.5825  -20.2994   17.8282 H   0  0  0  0  0  0
  -31.8058  -20.3659   19.1005 H   0  0  0  0  0  0
  -30.1744  -15.1623   25.6280 H   0  0  0  0  0  0
  -31.5734  -16.2348   25.5835 H   0  0  0  0  0  0
  -31.6299  -14.6678   24.7665 H   0  0  0  0  0  0
  -26.8767  -24.6423   20.4761 H   0  0  0  0  0  0
  -27.6418  -24.7144   18.9112 H   0  0  0  0  0  0
  -32.0878  -17.3966   23.3002 H   0  0  0  0  0  0
  -32.2100  -15.7900   22.6586 H   0  0  0  0  0  0
  -29.8793  -16.9210   24.0456 H   0  0  0  0  0  0
  -29.8602  -15.4705   23.3231 H   0  0  0  0  0  0
  1 25  1  0  0  0
  1 30  2  0  0  0
  1 86  1  0  0  0
  2  3  1  0  0  0
  2 25  1  0  0  0
  2 88  1  0  0  0
  2 89  1  0  0  0
  3  4  1  0  0  0
  3 90  1  0  0  0
  3 91  1  0  0  0
  4  5  1  0  0  0
  4 92  1  0  0  0
  4 93  1  0  0  0
  5  6  1  0  0  0
  5 26  1  0  0  0
  5 94  1  0  0  0
  6 25  1  0  0  0
  6 95  1  0  0  0
  6 96  1  0  0  0
  7  8  2  0  0  0
  7 26  1  0  0  0
  7 29  1  0  0  0
  8  9  1  0  0  0
  8 22  1  0  0  0
  9 10  1  0  0  0
  9 27  2  0  0  0
 10 11  2  0  0  0
 10 15  1  0  0  0
 11 12  1  0  0  0
 11 97  1  0  0  0
 12 13  2  0  0  0
 12 98  1  0  0  0
 13 14  1  0  0  0
 13 31  1  0  0  0
 14 15  2  0  0  0
 14 99  1  0  0  0
 15100  1  0  0  0
 16 17  2  0  0  0
 16 21  1  0  0  0
 16 31  1  0  0  0
 17 18  1  0  0  0
 17101  1  0  0  0
 18 19  2  0  0  0
 18102  1  0  0  0
 19 20  1  0  0  0
 19 24  1  0  0  0
 20 21  2  0  0  0
 20103  1  0  0  0
 21 23  1  0  0  0
 22 28  1  0  0  0
 22 32  2  0  0  0
 26 27  1  0  0  0
 28104  1  0  0  0
 28105  1  0  0  0
 29106  1  0  0  0
 29107  1  0  0  0
 33 34  1  0  0  0
 33 66  1  0  0  0
 33 70  2  0  0  0
 34 36  1  0  0  0
 34 59  1  0  0  0
 34108  1  0  0  0
 35 44  2  0  0  0
 35 45  1  0  0  0
 35 68  1  0  0  0
 36 56  1  0  0  0
 36109  1  0  0  0
 37 39  1  0  0  0
 37 47  1  0  0  0
 37 66  1  0  0  0
 37110  1  0  0  0
 38 43  2  0  0  0
 38 46  1  0  0  0
 38 47  1  0  0  0
 39 64  1  0  0  0
 39 67  2  0  0  0
 40 52  1  0  0  0
 40 53  2  0  0  0
 40 58  1  0  0  0
 41111  1  0  0  0
 41112  1  0  0  0
 41113  1  0  0  0
 41 48  1  0  0  0
 42 43  1  0  0  0
 42 66  1  0  0  0
 42114  1  0  0  0
 42115  1  0  0  0
 43 44  1  0  0  0
 44116  1  0  0  0
 45 46  2  0  0  0
 45117  1  0  0  0
 46118  1  0  0  0
 47119  1  0  0  0
 47120  1  0  0  0
 48 56  1  0  0  0
 48 65  1  0  0  0
 48121  1  0  0  0
 49 50  1  0  0  0
 49 53  1  0  0  0
 49 64  1  0  0  0
 49122  1  0  0  0
 50 51  1  0  0  0
 50123  1  0  0  0
 50124  1  0  0  0
 51 52  1  0  0  0
 51125  1  0  0  0
 51126  1  0  0  0
 52127  1  0  0  0
 52128  1  0  0  0
 53 54  1  0  0  0
 54 55  2  0  0  0
 54129  1  0  0  0
 55 57  1  0  0  0
 55130  1  0  0  0
 56 69  2  0  0  0
 57 58  2  0  0  0
 57131  1  0  0  0
 58132  1  0  0  0
 59 60  1  0  0  0
 59 61  1  0  0  0
 59 62  1  0  0  0
 60133  1  0  0  0
 60134  1  0  0  0
 60135  1  0  0  0
 61136  1  0  0  0
 61137  1  0  0  0
 61138  1  0  0  0
 62139  1  0  0  0
 62140  1  0  0  0
 62141  1  0  0  0
 63 65  1  0  0  0
 63142  1  0  0  0
 63143  1  0  0  0
 63144  1  0  0  0
 64145  1  0  0  0
 65146  1  0  0  0
 68 81  1  0  0  0
 71 72  2  0  0  0
 71 73  1  0  0  0
 71147  1  0  0  0
 72 74  1  0  0  0
 72 79  1  0  0  0
 73 81  1  0  0  0
 73 83  2  0  0  0
 74 84  2  0  0  0
 74 85  1  0  0  0
 75 76  1  0  0  0
 75 85  1  0  0  0
 75148  1  0  0  0
 75149  1  0  0  0
 76 86  1  0  0  0
 76150  1  0  0  0
 76151  1  0  0  0
 77 78  1  0  0  0
 77 85  1  0  0  0
 77152  1  0  0  0
 77153  1  0  0  0
 78 82  1  0  0  0
 78 86  1  0  0  0
 78154  1  0  0  0
 79155  1  0  0  0
 79156  1  0  0  0
 79157  1  0  0  0
 80 87  1  0  0  0
 80158  1  0  0  0
 80159  1  0  0  0
 80160  1  0  0  0
 81161  1  0  0  0
 81162  1  0  0  0
 82 87  1  0  0  0
 82163  1  0  0  0
 82164  1  0  0  0
 83 84  1  0  0  0
 87165  1  0  0  0
 87166  1  0  0  0
M  CHG  1  87   1
M  ISO  4   1 100  68 101  81 101  86 100
M  END
> <chiral flag>
0

> <version>
0

> <s_m_source_file>
/data/baiqing/PycharmProjects/Reinvent-master-3.2/result/LINK_invent/BTK/process_docking_weight1_custom_sum_contain_oxygen_bond_distance_aromatic_linkinvent_7_9_3/rearranged_h_0196.sdf

> <i_m_source_file_index>
29

> <r_mmod_Potential_Energy-OPLS-2005>
381.627258300781

> <r_mmod_Stretch_Energy-OPLS-2005>
149.171691894531

> <r_mmod_Bend_Energy-OPLS-2005>
236.479354858398

> <r_mmod_Torsional_Energy-OPLS-2005>
411.818725585938

> <r_mmod_Improper_Torsional_Energy-OPLS-2005>
13.5653667449951

> <r_mmod_Van_der_Waal_Energy-OPLS-2005>
150.475494384766

> <r_mmod_Electrostatic_Energy-OPLS-2005>
-230.726989746094

> <r_mmod_Solvation_Energy-OPLS-2005>
-474.331024169922

> <b_mmod_Minimization_Converged-OPLS-2005>
0

> <r_mmod_RMS_Derivative-OPLS-2005>
1.48392260074615

$$$$
29
                    3D
 Structure written by MMmdl.
168177  0  0  1  0            999 V2000
  -30.7600  -14.4352   20.6742 C   0  0  0  0  0  0
  -30.4086  -12.3168   19.4356 C   0  0  0  0  0  0
  -29.4950  -12.5320   18.2147 C   0  0  0  0  0  0
  -28.0137  -12.3956   18.6062 C   0  0  0  0  0  0
  -27.6660  -13.2012   19.8825 C   0  0  2  0  0  0
  -28.7011  -12.9414   21.0077 C   0  0  0  0  0  0
  -25.2598  -13.8142   20.5659 C   0  0  0  0  0  0
  -24.1840  -13.0423   20.9164 C   0  0  0  0  0  0
  -24.6398  -11.6898   20.8743 C   0  0  0  0  0  0
  -23.9028  -10.4272   21.0403 C   0  0  0  0  0  0
  -24.3587   -9.4201   21.9199 C   0  0  0  0  0  0
  -23.6278   -8.2235   22.0725 C   0  0  0  0  0  0
  -22.4263   -8.0277   21.3516 C   0  0  0  0  0  0
  -21.9901   -9.0251   20.4637 C   0  0  0  0  0  0
  -22.7198  -10.2137   20.3048 C   0  0  0  0  0  0
  -21.6851   -6.0722   22.5280 C   0  0  0  0  0  0
  -21.4035   -6.5612   23.8225 C   0  0  0  0  0  0
  -21.3659   -5.6748   24.9173 C   0  0  0  0  0  0
  -21.6059   -4.3015   24.7225 C   0  0  0  0  0  0
  -21.8818   -3.8119   23.4335 C   0  0  0  0  0  0
  -21.9192   -4.6950   22.3402 C   0  0  0  0  0  0
  -22.7845  -13.5239   21.1776 C   0  0  0  0  0  0
  -22.1652   -4.2120   21.0971 F   0  0  0  0  0  0
  -21.5605   -3.4514   25.7733 F   0  0  0  0  0  0
  -30.0351  -13.2850   20.4909 N   0  0  0  0  0  0
  -26.3013  -12.9321   20.3344 N   0  0  0  0  0  0
  -25.9317  -11.6468   20.5724 N   0  0  0  0  0  0
  -22.0452  -12.8341   22.0406 N   0  0  0  0  0  0
  -25.4331  -15.1865   20.4080 N   0  0  0  0  0  0
  -31.8126  -14.6150   20.0441 O   0  0  0  0  0  0
  -21.6613   -6.8882   21.4238 O   0  0  0  0  0  0
  -22.3590  -14.5555   20.6571 O   0  0  0  0  0  0
  -24.6053  -31.8726   23.2162 C   0  0  0  0  0  0
  -25.8946  -32.4864   23.8459 C   0  0  1  0  0  0
  -27.2451  -27.4828   20.0992 C   0  0  0  0  0  0
  -25.5761  -33.8669   24.2339 N   0  0  0  0  0  0
  -23.3968  -30.4931   21.5591 C   0  0  2  0  0  0
  -24.8481  -28.9563   20.1302 C   0  0  0  0  0  0
  -22.7373  -29.4671   22.5083 C   0  0  0  0  0  0
  -18.0251  -28.1408   22.8514 C   0  0  0  0  0  0
  -24.1458  -36.7327   23.2659 C   0  0  0  0  0  0
  -25.9207  -30.8513   21.3637 C   0  0  0  0  0  0
  -26.0019  -29.4847   20.7224 C   0  0  0  0  0  0
  -27.2049  -28.7516   20.7118 C   0  0  0  0  0  0
  -26.0816  -26.9577   19.5029 C   0  0  0  0  0  0
  -24.8787  -27.6898   19.5201 C   0  0  0  0  0  0
  -23.6047  -29.8168   20.1770 C   0  0  0  0  0  0
  -25.4095  -36.3145   24.0335 C   0  0  1  0  0  0
  -20.5858  -28.3639   23.1353 C   0  0  2  0  0  0
  -20.6743  -26.9378   22.5457 C   0  0  0  0  0  0
  -19.5698  -26.6409   21.5251 C   0  0  0  0  0  0
  -18.1873  -26.7980   22.1641 C   0  0  0  0  0  0
  -19.1505  -28.8834   23.2955 C   0  0  0  0  0  0
  -18.9450  -30.1466   23.8926 C   0  0  0  0  0  0
  -17.6451  -30.6611   24.0592 C   0  0  0  0  0  0
  -25.8976  -34.9503   23.5160 C   0  0  0  0  0  0
  -16.5330  -29.9129   23.6352 C   0  0  0  0  0  0
  -16.7248  -28.6563   23.0348 C   0  0  0  0  0  0
  -26.4470  -31.6656   25.0749 C   0  0  0  0  0  0
  -25.3793  -31.3764   26.1559 C   0  0  0  0  0  0
  -27.0370  -30.3129   24.6127 C   0  0  0  0  0  0
  -27.6095  -32.4467   25.7360 C   0  0  0  0  0  0
  -27.5585  -37.1839   24.8469 C   0  0  0  0  0  0
  -21.4121  -29.2985   22.3760 N   0  0  0  0  0  0
  -26.4305  -37.3793   23.9376 N   0  0  0  0  0  0
  -24.6603  -31.0876   22.1045 N   0  0  0  0  0  0
  -23.4144  -28.8226   23.3129 O   0  0  0  0  0  0
  -28.4132  -26.7690   20.0363 O   0  0  0  0  0  0
  -26.5619  -34.8959   22.4776 O   0  0  0  0  0  0
  -23.5240  -32.1469   23.7545 O   0  0  0  0  0  0
  -29.1918  -17.4030   21.9290 C   0  0  0  0  0  0
  -29.0610  -15.8821   21.8664 C   0  0  0  0  0  0
  -31.3638  -16.4031   22.0337 C   0  0  0  0  0  0
  -31.9819  -19.7161   23.0450 C   0  0  0  0  0  0
  -30.3931  -20.0806   21.8283 C   0  0  0  0  0  0
  -31.6246  -20.9316   22.1627 C   0  0  1  0  0  0
  -30.5845  -17.6405   22.5084 C   0  0  1  0  0  0
  -31.4621  -22.3421   22.7512 C   0  0  0  0  0  0
  -30.6746  -24.6550   22.2271 C   0  0  0  0  0  0
  -28.7942  -26.1531   21.2658 C   0  0  0  0  0  0
  -30.2287  -25.6075   21.0861 C   0  0  1  0  0  0
  -30.4076  -15.3397   21.6376 N   0  0  0  0  0  0
  -31.1544  -26.7278   20.9504 N   0  0  0  0  0  0
  -31.2383  -18.9060   22.0707 N   0  3  2  0  0  0
  -31.1218  -23.3455   21.7060 N   0  3  0  0  0  0
  -31.4540  -12.3889   19.1364 H   0  0  0  0  0  0
  -30.2983  -11.2961   19.8138 H   0  0  0  0  0  0
  -29.7481  -11.8116   17.4344 H   0  0  0  0  0  0
  -29.6813  -13.5205   17.7884 H   0  0  0  0  0  0
  -27.8022  -11.3395   18.7666 H   0  0  0  0  0  0
  -27.3813  -12.7133   17.7745 H   0  0  0  0  0  0
  -27.7200  -14.2476   19.5952 H   0  0  0  0  0  0
  -28.6848  -11.8836   21.2766 H   0  0  0  0  0  0
  -28.4503  -13.4473   21.9377 H   0  0  0  0  0  0
  -25.2735   -9.5664   22.4771 H   0  0  0  0  0  0
  -23.9962   -7.4626   22.7477 H   0  0  0  0  0  0
  -21.0790   -8.8768   19.9001 H   0  0  0  0  0  0
  -22.3632  -10.9669   19.6144 H   0  0  0  0  0  0
  -21.2041   -7.6118   23.9727 H   0  0  0  0  0  0
  -21.1475   -6.0472   25.9077 H   0  0  0  0  0  0
  -22.0611   -2.7581   23.2829 H   0  0  0  0  0  0
  -22.3956  -11.9988   22.4843 H   0  0  0  0  0  0
  -21.1086  -13.1462   22.2562 H   0  0  0  0  0  0
  -24.6637  -15.8411   20.5048 H   0  0  0  0  0  0
  -26.2728  -15.6157   20.0423 H   0  0  0  0  0  0
  -26.7007  -32.5619   23.1215 H   0  0  0  0  0  0
  -24.9780  -33.9870   25.0394 H   0  0  0  0  0  0
  -22.6791  -31.3055   21.4239 H   0  0  0  0  0  0
  -23.3720  -35.9660   23.3360 H   0  0  0  0  0  0
  -24.3540  -36.8919   22.2067 H   0  0  0  0  0  0
  -23.7225  -37.6538   23.6680 H   0  0  0  0  0  0
  -26.0323  -31.6195   20.5960 H   0  0  0  0  0  0
  -26.8065  -30.9020   21.9848 H   0  0  0  0  0  0
  -28.1011  -29.1658   21.1519 H   0  0  0  0  0  0
  -26.1078  -25.9885   19.0250 H   0  0  0  0  0  0
  -23.9906  -27.2793   19.0632 H   0  0  0  0  0  0
  -23.7024  -30.5868   19.4095 H   0  0  0  0  0  0
  -22.7327  -29.2233   19.8961 H   0  0  0  0  0  0
  -25.1310  -36.2024   25.0828 H   0  0  0  0  0  0
  -20.9961  -28.3230   24.1464 H   0  0  0  0  0  0
  -20.5630  -26.2245   23.3649 H   0  0  0  0  0  0
  -21.6633  -26.7461   22.1237 H   0  0  0  0  0  0
  -19.6827  -25.6325   21.1265 H   0  0  0  0  0  0
  -19.6647  -27.3255   20.6808 H   0  0  0  0  0  0
  -17.4173  -26.6747   21.4008 H   0  0  0  0  0  0
  -18.0198  -26.0152   22.9053 H   0  0  0  0  0  0
  -19.7917  -30.7305   24.2267 H   0  0  0  0  0  0
  -17.5000  -31.6264   24.5241 H   0  0  0  0  0  0
  -15.5321  -30.3023   23.7669 H   0  0  0  0  0  0
  -15.8667  -28.0910   22.6992 H   0  0  0  0  0  0
  -24.5859  -30.7196   25.7952 H   0  0  0  0  0  0
  -24.9125  -32.2926   26.5179 H   0  0  0  0  0  0
  -25.8228  -30.8841   27.0218 H   0  0  0  0  0  0
  -26.2906  -29.6673   24.1466 H   0  0  0  0  0  0
  -27.4495  -29.7595   25.4589 H   0  0  0  0  0  0
  -27.8557  -30.4542   23.9047 H   0  0  0  0  0  0
  -27.2732  -33.3773   26.1973 H   0  0  0  0  0  0
  -28.3742  -32.7081   25.0001 H   0  0  0  0  0  0
  -28.0954  -31.8629   26.5189 H   0  0  0  0  0  0
  -28.2669  -38.0089   24.7530 H   0  0  0  0  0  0
  -28.1043  -36.2655   24.6301 H   0  0  0  0  0  0
  -27.2326  -37.1480   25.8882 H   0  0  0  0  0  0
  -20.9251  -29.8723   21.7027 H   0  0  0  0  0  0
  -26.0209  -38.2859   24.1393 H   0  0  0  0  0  0
  -28.4007  -17.8656   22.5244 H   0  0  0  0  0  0
  -29.1170  -17.7954   20.9132 H   0  0  0  0  0  0
  -28.3503  -15.6314   21.0846 H   0  0  0  0  0  0
  -28.6825  -15.4920   22.8133 H   0  0  0  0  0  0
  -32.0201  -16.0454   22.8260 H   0  0  0  0  0  0
  -32.0093  -16.6921   21.2041 H   0  0  0  0  0  0
  -31.5202  -19.7423   24.0391 H   0  0  0  0  0  0
  -33.0481  -19.4815   23.1012 H   0  0  0  0  0  0
  -30.0288  -20.1627   20.8004 H   0  0  0  0  0  0
  -29.5792  -20.1873   22.5482 H   0  0  0  0  0  0
  -32.3161  -20.9593   21.3084 H   0  0  0  0  0  0
  -30.5102  -17.6357   23.5984 H   0  0  0  0  0  0
  -32.3899  -22.6465   23.2416 H   0  0  0  0  0  0
  -30.6868  -22.3445   23.5182 H   0  0  0  0  0  0
  -29.8585  -24.4978   22.9355 H   0  0  0  0  0  0
  -31.4930  -25.0812   22.8118 H   0  0  0  0  0  0
  -28.7196  -26.8388   22.1205 H   0  0  0  0  0  0
  -28.1013  -25.3284   21.4609 H   0  0  0  0  0  0
  -30.2571  -25.0599   20.1424 H   0  0  0  0  0  0
  -31.1299  -27.2943   21.7954 H   0  0  0  0  0  0
  -30.7758  -27.3511   20.2440 H   0  0  0  0  0  0
  -31.8030  -18.7357   21.2517 H   0  0  0  0  0  0
  -30.3809  -22.9891   21.1241 H   0  0  0  0  0  0
  -31.9201  -23.5005   21.1090 H   0  0  0  0  0  0
  1 25  1  0  0  0
  1 30  2  0  0  0
  1 82  1  0  0  0
  2  3  1  0  0  0
  2 25  1  0  0  0
  2 86  1  0  0  0
  2 87  1  0  0  0
  3  4  1  0  0  0
  3 88  1  0  0  0
  3 89  1  0  0  0
  4  5  1  0  0  0
  4 90  1  0  0  0
  4 91  1  0  0  0
  5  6  1  0  0  0
  5 26  1  0  0  0
  5 92  1  0  0  0
  6 25  1  0  0  0
  6 93  1  0  0  0
  6 94  1  0  0  0
  7  8  2  0  0  0
  7 26  1  0  0  0
  7 29  1  0  0  0
  8  9  1  0  0  0
  8 22  1  0  0  0
  9 10  1  0  0  0
  9 27  2  0  0  0
 10 11  2  0  0  0
 10 15  1  0  0  0
 11 12  1  0  0  0
 11 95  1  0  0  0
 12 13  2  0  0  0
 12 96  1  0  0  0
 13 14  1  0  0  0
 13 31  1  0  0  0
 14 15  2  0  0  0
 14 97  1  0  0  0
 15 98  1  0  0  0
 16 17  2  0  0  0
 16 21  1  0  0  0
 16 31  1  0  0  0
 17 18  1  0  0  0
 17 99  1  0  0  0
 18 19  2  0  0  0
 18100  1  0  0  0
 19 20  1  0  0  0
 19 24  1  0  0  0
 20 21  2  0  0  0
 20101  1  0  0  0
 21 23  1  0  0  0
 22 28  1  0  0  0
 22 32  2  0  0  0
 26 27  1  0  0  0
 28102  1  0  0  0
 28103  1  0  0  0
 29104  1  0  0  0
 29105  1  0  0  0
 33 34  1  0  0  0
 33 66  1  0  0  0
 33 70  2  0  0  0
 34 36  1  0  0  0
 34 59  1  0  0  0
 34106  1  0  0  0
 35 44  2  0  0  0
 35 45  1  0  0  0
 35 68  1  0  0  0
 36 56  1  0  0  0
 36107  1  0  0  0
 37 39  1  0  0  0
 37 47  1  0  0  0
 37 66  1  0  0  0
 37108  1  0  0  0
 38 43  2  0  0  0
 38 46  1  0  0  0
 38 47  1  0  0  0
 39 64  1  0  0  0
 39 67  2  0  0  0
 40 52  1  0  0  0
 40 53  2  0  0  0
 40 58  1  0  0  0
 41109  1  0  0  0
 41110  1  0  0  0
 41111  1  0  0  0
 41 48  1  0  0  0
 42 43  1  0  0  0
 42 66  1  0  0  0
 42112  1  0  0  0
 42113  1  0  0  0
 43 44  1  0  0  0
 44114  1  0  0  0
 45 46  2  0  0  0
 45115  1  0  0  0
 46116  1  0  0  0
 47117  1  0  0  0
 47118  1  0  0  0
 48 56  1  0  0  0
 48 65  1  0  0  0
 48119  1  0  0  0
 49 50  1  0  0  0
 49 53  1  0  0  0
 49 64  1  0  0  0
 49120  1  0  0  0
 50 51  1  0  0  0
 50121  1  0  0  0
 50122  1  0  0  0
 51 52  1  0  0  0
 51123  1  0  0  0
 51124  1  0  0  0
 52125  1  0  0  0
 52126  1  0  0  0
 53 54  1  0  0  0
 54 55  2  0  0  0
 54127  1  0  0  0
 55 57  1  0  0  0
 55128  1  0  0  0
 56 69  2  0  0  0
 57 58  2  0  0  0
 57129  1  0  0  0
 58130  1  0  0  0
 59 60  1  0  0  0
 59 61  1  0  0  0
 59 62  1  0  0  0
 60131  1  0  0  0
 60132  1  0  0  0
 60133  1  0  0  0
 61134  1  0  0  0
 61135  1  0  0  0
 61136  1  0  0  0
 62137  1  0  0  0
 62138  1  0  0  0
 62139  1  0  0  0
 63 65  1  0  0  0
 63140  1  0  0  0
 63141  1  0  0  0
 63142  1  0  0  0
 64143  1  0  0  0
 65144  1  0  0  0
 68 80  1  0  0  0
 71 72  1  0  0  0
 71145  1  0  0  0
 71146  1  0  0  0
 71 77  1  0  0  0
 72 82  1  0  0  0
 72147  1  0  0  0
 72148  1  0  0  0
 73 77  1  0  0  0
 73 82  1  0  0  0
 73149  1  0  0  0
 73150  1  0  0  0
 74 76  1  0  0  0
 74151  1  0  0  0
 74152  1  0  0  0
 74 84  1  0  0  0
 75 76  1  0  0  0
 75 84  1  0  0  0
 75153  1  0  0  0
 75154  1  0  0  0
 76 78  1  0  0  0
 76155  1  0  0  0
 77 84  1  0  0  0
 77156  1  0  0  0
 78 85  1  0  0  0
 78157  1  0  0  0
 78158  1  0  0  0
 79 81  1  0  0  0
 79 85  1  0  0  0
 79159  1  0  0  0
 79160  1  0  0  0
 80 81  1  0  0  0
 80161  1  0  0  0
 80162  1  0  0  0
 81 83  1  0  0  0
 81163  1  0  0  0
 83164  1  0  0  0
 83165  1  0  0  0
 84166  1  0  0  0
 85167  1  0  0  0
 85168  1  0  0  0
M  CHG  2  84   1  85   1
M  ISO  4   1 100  68 101  80 101  82 100
M  END
> <chiral flag>
0

> <version>
0

> <s_m_source_file>
/data/baiqing/PycharmProjects/Reinvent-master-3.2/result/LINK_invent/BTK/process_docking_weight1_custom_sum_contain_oxygen_bond_distance_aromatic_linkinvent_7_9_3/rearranged_h_0196.sdf

> <i_m_source_file_index>
30

> <r_mmod_Potential_Energy-OPLS-2005>
-121.778686523438

> <r_mmod_Stretch_Energy-OPLS-2005>
40.0596923828125

> <r_mmod_Bend_Energy-OPLS-2005>
149.636962890625

> <r_mmod_Torsional_Energy-OPLS-2005>
384.630096435547

> <r_mmod_Improper_Torsional_Energy-OPLS-2005>
5.8361439704895

> <r_mmod_Van_der_Waal_Energy-OPLS-2005>
143.257766723633

> <r_mmod_Electrostatic_Energy-OPLS-2005>
133.196487426758

> <r_mmod_Solvation_Energy-OPLS-2005>
-986.843078613281

> <b_mmod_Minimization_Converged-OPLS-2005>
0

> <r_mmod_RMS_Derivative-OPLS-2005>
6.54760026931763

$$$$
30
                    3D
 Structure written by MMmdl.
167176  0  0  1  0            999 V2000
  -30.7472  -14.4965   20.4549 C   0  0  0  0  0  0
  -30.4086  -12.2962   19.4081 C   0  0  0  0  0  0
  -29.4923  -12.4970   18.1841 C   0  0  0  0  0  0
  -28.0211  -12.3475   18.6060 C   0  0  0  0  0  0
  -27.6601  -13.2138   19.8417 C   0  0  2  0  0  0
  -28.7142  -13.0681   20.9625 C   0  0  0  0  0  0
  -25.2655  -13.8161   20.5531 C   0  0  0  0  0  0
  -24.1891  -13.0488   20.9198 C   0  0  0  0  0  0
  -24.6449  -11.6934   20.8744 C   0  0  0  0  0  0
  -23.9023  -10.4383   21.0425 C   0  0  0  0  0  0
  -24.3694   -9.4245   21.9066 C   0  0  0  0  0  0
  -23.6400   -8.2270   22.0600 C   0  0  0  0  0  0
  -22.4311   -8.0359   21.3504 C   0  0  0  0  0  0
  -21.9850   -9.0396   20.4691 C   0  0  0  0  0  0
  -22.7133  -10.2315   20.3143 C   0  0  0  0  0  0
  -21.6889   -6.0749   22.5255 C   0  0  0  0  0  0
  -21.4050   -6.5644   23.8178 C   0  0  0  0  0  0
  -21.3660   -5.6799   24.9127 C   0  0  0  0  0  0
  -21.6053   -4.3061   24.7222 C   0  0  0  0  0  0
  -21.8828   -3.8160   23.4349 C   0  0  0  0  0  0
  -21.9224   -4.6958   22.3404 C   0  0  0  0  0  0
  -22.7930  -13.5230   21.1898 C   0  0  0  0  0  0
  -22.1705   -4.2118   21.0996 F   0  0  0  0  0  0
  -21.5602   -3.4535   25.7724 F   0  0  0  0  0  0
  -30.0405  -13.3332   20.3844 N   0  0  0  0  0  0
  -26.3061  -12.9314   20.3197 N   0  0  0  0  0  0
  -25.9384  -11.6471   20.5730 N   0  0  0  0  0  0
  -22.0829  -12.8511   22.0905 N   0  0  0  0  0  0
  -25.4444  -15.1836   20.3719 N   0  0  0  0  0  0
  -31.9430  -14.5535   20.1497 O   0  0  0  0  0  0
  -21.6712   -6.8903   21.4213 O   0  0  0  0  0  0
  -22.3374  -14.5252   20.6416 O   0  0  0  0  0  0
  -24.6158  -31.8644   23.2138 C   0  0  0  0  0  0
  -25.9078  -32.4769   23.8422 C   0  0  1  0  0  0
  -27.2508  -27.4271   20.0693 C   0  0  0  0  0  0
  -25.5978  -33.8583   24.2346 N   0  0  0  0  0  0
  -23.4070  -30.4838   21.5539 C   0  0  2  0  0  0
  -24.8502  -28.9421   20.1266 C   0  0  0  0  0  0
  -22.7428  -29.4629   22.5038 C   0  0  0  0  0  0
  -18.0281  -28.1379   22.8484 C   0  0  0  0  0  0
  -24.1511  -36.7234   23.2652 C   0  0  0  0  0  0
  -25.9416  -30.8149   21.3865 C   0  0  0  0  0  0
  -26.0117  -29.4565   20.7122 C   0  0  0  0  0  0
  -27.2122  -28.7053   20.6775 C   0  0  0  0  0  0
  -26.0535  -26.9146   19.5157 C   0  0  0  0  0  0
  -24.8624  -27.6676   19.5370 C   0  0  0  0  0  0
  -23.6151  -29.8132   20.1703 C   0  0  0  0  0  0
  -25.4151  -36.3067   24.0342 C   0  0  1  0  0  0
  -20.5866  -28.3642   23.1342 C   0  0  2  0  0  0
  -20.6783  -26.9387   22.5414 C   0  0  0  0  0  0
  -19.5756  -26.6378   21.5218 C   0  0  0  0  0  0
  -18.1933  -26.7925   22.1634 C   0  0  0  0  0  0
  -19.1525  -28.8842   23.2895 C   0  0  0  0  0  0
  -18.9454  -30.1455   23.8861 C   0  0  0  0  0  0
  -17.6454  -30.6587   24.0558 C   0  0  0  0  0  0
  -25.9067  -34.9440   23.5121 C   0  0  0  0  0  0
  -16.5346  -29.9067   23.6368 C   0  0  0  0  0  0
  -16.7268  -28.6512   23.0347 C   0  0  0  0  0  0
  -26.4489  -31.6635   25.0829 C   0  0  0  0  0  0
  -25.3792  -31.3794   26.1622 C   0  0  0  0  0  0
  -27.0365  -30.3063   24.6375 C   0  0  0  0  0  0
  -27.6018  -32.4417   25.7621 C   0  0  0  0  0  0
  -27.5596  -37.1781   24.8490 C   0  0  0  0  0  0
  -21.4155  -29.2987   22.3763 N   0  0  0  0  0  0
  -26.4340  -37.3756   23.9395 N   0  0  0  0  0  0
  -24.6693  -31.0719   22.1059 N   0  0  0  0  0  0
  -23.4187  -28.8206   23.3120 O   0  0  0  0  0  0
  -28.4562  -26.7432   20.0512 O   0  0  0  0  0  0
  -26.5570  -34.8881   22.4654 O   0  0  0  0  0  0
  -23.5341  -32.1416   23.7521 O   0  0  0  0  0  0
  -28.1435  -21.8267   19.8959 C   0  0  0  0  0  0
  -25.6579  -19.9353   18.9908 C   0  0  0  0  0  0
  -26.7684  -20.5504   18.1397 C   0  0  0  0  0  0
  -29.2590  -17.6007   18.9690 C   0  0  0  0  0  0
  -28.5151  -17.3860   21.3562 C   0  0  0  0  0  0
  -30.3866  -16.6020   19.3021 C   0  0  0  0  0  0
  -29.6378  -16.3479   21.6005 C   0  0  0  0  0  0
  -26.4044  -18.8611   19.7748 C   0  0  0  0  0  0
  -28.0154  -20.5311   19.0571 C   0  0  2  0  0  0
  -28.8581  -18.3964   20.2278 C   0  0  0  0  0  0
  -28.4540  -24.2648   20.0917 C   0  0  0  0  0  0
  -28.6238  -25.5535   19.2552 C   0  0  0  0  0  0
  -30.0118  -15.6399   20.3665 N   0  0  0  0  0  0
  -28.4499  -23.0086   19.3195 N   0  0  0  0  0  0
  -27.7685  -19.3983   20.0033 N   0  3  2  0  0  0
  -27.9384  -21.7496   21.1104 O   0  0  0  0  0  0
  -31.4567  -12.3341   19.1158 H   0  0  0  0  0  0
  -30.2667  -11.3026   19.8354 H   0  0  0  0  0  0
  -29.6450  -13.4871   17.7493 H   0  0  0  0  0  0
  -29.7333  -11.7825   17.3978 H   0  0  0  0  0  0
  -27.8561  -11.2928   18.8290 H   0  0  0  0  0  0
  -27.3631  -12.5822   17.7689 H   0  0  0  0  0  0
  -27.6809  -14.2478   19.5010 H   0  0  0  0  0  0
  -28.6924  -12.0581   21.3788 H   0  0  0  0  0  0
  -28.4941  -13.7491   21.7841 H   0  0  0  0  0  0
  -25.2991   -9.5655   22.4437 H   0  0  0  0  0  0
  -24.0231   -7.4574   22.7122 H   0  0  0  0  0  0
  -21.0698   -8.8998   19.9100 H   0  0  0  0  0  0
  -22.3498  -10.9949   19.6404 H   0  0  0  0  0  0
  -21.2123   -7.6160   23.9680 H   0  0  0  0  0  0
  -21.1364   -6.0545   25.9005 H   0  0  0  0  0  0
  -22.0636   -2.7640   23.2888 H   0  0  0  0  0  0
  -21.1438  -13.1419   22.3166 H   0  0  0  0  0  0
  -22.5081  -12.1197   22.6411 H   0  0  0  0  0  0
  -24.6741  -15.8382   20.4272 H   0  0  0  0  0  0
  -26.2793  -15.5687   19.9520 H   0  0  0  0  0  0
  -26.7156  -32.5399   23.1166 H   0  0  0  0  0  0
  -25.0264  -33.9788   25.0584 H   0  0  0  0  0  0
  -22.6973  -31.3009   21.4095 H   0  0  0  0  0  0
  -23.3812  -35.9523   23.3324 H   0  0  0  0  0  0
  -24.3589  -36.8831   22.2058 H   0  0  0  0  0  0
  -23.7211  -37.6431   23.6639 H   0  0  0  0  0  0
  -26.1112  -31.6035   20.6505 H   0  0  0  0  0  0
  -26.8043  -30.8142   22.0437 H   0  0  0  0  0  0
  -28.1195  -29.1107   21.1043 H   0  0  0  0  0  0
  -26.0176  -25.9301   19.0769 H   0  0  0  0  0  0
  -23.9627  -27.2497   19.1107 H   0  0  0  0  0  0
  -23.7385  -30.5862   19.4107 H   0  0  0  0  0  0
  -22.7377  -29.2377   19.8632 H   0  0  0  0  0  0
  -25.1334  -36.1937   25.0834 H   0  0  0  0  0  0
  -20.9921  -28.3156   24.1483 H   0  0  0  0  0  0
  -20.5778  -26.2196   23.3554 H   0  0  0  0  0  0
  -21.6638  -26.7493   22.1143 H   0  0  0  0  0  0
  -19.6917  -25.6291   21.1227 H   0  0  0  0  0  0
  -19.6717  -27.3197   20.6743 H   0  0  0  0  0  0
  -17.4205  -26.6660   21.4028 H   0  0  0  0  0  0
  -18.0358  -26.0072   22.9033 H   0  0  0  0  0  0
  -19.7923  -30.7303   24.2196 H   0  0  0  0  0  0
  -17.5003  -31.6259   24.5141 H   0  0  0  0  0  0
  -15.5341  -30.2945   23.7742 H   0  0  0  0  0  0
  -15.8662  -28.0827   22.7070 H   0  0  0  0  0  0
  -24.5870  -30.7231   25.8023 H   0  0  0  0  0  0
  -24.9113  -32.2971   26.5190 H   0  0  0  0  0  0
  -25.8191  -30.8888   27.0315 H   0  0  0  0  0  0
  -26.2949  -29.6792   24.1424 H   0  0  0  0  0  0
  -27.4032  -29.7386   25.4938 H   0  0  0  0  0  0
  -27.8828  -30.4333   23.9632 H   0  0  0  0  0  0
  -27.2541  -33.3631   26.2310 H   0  0  0  0  0  0
  -28.3785  -32.7160   25.0476 H   0  0  0  0  0  0
  -28.0748  -31.8530   26.5492 H   0  0  0  0  0  0
  -28.2660  -38.0041   24.7528 H   0  0  0  0  0  0
  -28.1061  -36.2575   24.6366 H   0  0  0  0  0  0
  -27.2287  -37.1473   25.8893 H   0  0  0  0  0  0
  -20.9370  -29.8615   21.6874 H   0  0  0  0  0  0
  -26.0232  -38.2852   24.1354 H   0  0  0  0  0  0
  -24.8155  -19.5435   18.4204 H   0  0  0  0  0  0
  -25.2649  -20.6809   19.6821 H   0  0  0  0  0  0
  -26.4936  -21.5418   17.7800 H   0  0  0  0  0  0
  -26.9427  -19.9225   17.2627 H   0  0  0  0  0  0
  -28.4066  -17.0654   18.5482 H   0  0  0  0  0  0
  -29.6135  -18.2772   18.1901 H   0  0  0  0  0  0
  -28.3101  -17.9266   22.2808 H   0  0  0  0  0  0
  -27.6015  -16.8414   21.1185 H   0  0  0  0  0  0
  -31.2751  -17.1591   19.6111 H   0  0  0  0  0  0
  -30.6588  -16.0692   18.3888 H   0  0  0  0  0  0
  -29.3161  -15.6385   22.3610 H   0  0  0  0  0  0
  -30.5186  -16.8427   22.0106 H   0  0  0  0  0  0
  -26.4525  -17.9451   19.1885 H   0  0  0  0  0  0
  -25.9108  -18.6245   20.7187 H   0  0  0  0  0  0
  -28.9218  -20.3962   18.4669 H   0  0  0  0  0  0
  -29.7296  -18.9699   20.5484 H   0  0  0  0  0  0
  -27.5175  -24.3224   20.6484 H   0  0  0  0  0  0
  -29.2542  -24.2151   20.8330 H   0  0  0  0  0  0
  -28.0010  -25.5655   18.3619 H   0  0  0  0  0  0
  -29.6474  -25.5755   18.8810 H   0  0  0  0  0  0
  -28.6722  -23.0445   18.3324 H   0  0  0  0  0  0
  -27.7045  -19.9408   20.8607 H   0  0  0  0  0  0
  1 25  1  0  0  0
  1 30  2  0  0  0
  1 83  1  0  0  0
  2  3  1  0  0  0
  2 25  1  0  0  0
  2 87  1  0  0  0
  2 88  1  0  0  0
  3  4  1  0  0  0
  3 89  1  0  0  0
  3 90  1  0  0  0
  4  5  1  0  0  0
  4 91  1  0  0  0
  4 92  1  0  0  0
  5  6  1  0  0  0
  5 26  1  0  0  0
  5 93  1  0  0  0
  6 25  1  0  0  0
  6 94  1  0  0  0
  6 95  1  0  0  0
  7  8  2  0  0  0
  7 26  1  0  0  0
  7 29  1  0  0  0
  8  9  1  0  0  0
  8 22  1  0  0  0
  9 10  1  0  0  0
  9 27  2  0  0  0
 10 11  2  0  0  0
 10 15  1  0  0  0
 11 12  1  0  0  0
 11 96  1  0  0  0
 12 13  2  0  0  0
 12 97  1  0  0  0
 13 14  1  0  0  0
 13 31  1  0  0  0
 14 15  2  0  0  0
 14 98  1  0  0  0
 15 99  1  0  0  0
 16 17  2  0  0  0
 16 21  1  0  0  0
 16 31  1  0  0  0
 17 18  1  0  0  0
 17100  1  0  0  0
 18 19  2  0  0  0
 18101  1  0  0  0
 19 20  1  0  0  0
 19 24  1  0  0  0
 20 21  2  0  0  0
 20102  1  0  0  0
 21 23  1  0  0  0
 22 28  1  0  0  0
 22 32  2  0  0  0
 26 27  1  0  0  0
 28103  1  0  0  0
 28104  1  0  0  0
 29105  1  0  0  0
 29106  1  0  0  0
 33 34  1  0  0  0
 33 66  1  0  0  0
 33 70  2  0  0  0
 34 36  1  0  0  0
 34 59  1  0  0  0
 34107  1  0  0  0
 35 44  2  0  0  0
 35 45  1  0  0  0
 35 68  1  0  0  0
 36 56  1  0  0  0
 36108  1  0  0  0
 37 39  1  0  0  0
 37 47  1  0  0  0
 37 66  1  0  0  0
 37109  1  0  0  0
 38 43  2  0  0  0
 38 46  1  0  0  0
 38 47  1  0  0  0
 39 64  1  0  0  0
 39 67  2  0  0  0
 40 52  1  0  0  0
 40 53  2  0  0  0
 40 58  1  0  0  0
 41110  1  0  0  0
 41111  1  0  0  0
 41112  1  0  0  0
 41 48  1  0  0  0
 42 43  1  0  0  0
 42 66  1  0  0  0
 42113  1  0  0  0
 42114  1  0  0  0
 43 44  1  0  0  0
 44115  1  0  0  0
 45 46  2  0  0  0
 45116  1  0  0  0
 46117  1  0  0  0
 47118  1  0  0  0
 47119  1  0  0  0
 48 56  1  0  0  0
 48 65  1  0  0  0
 48120  1  0  0  0
 49 50  1  0  0  0
 49 53  1  0  0  0
 49 64  1  0  0  0
 49121  1  0  0  0
 50 51  1  0  0  0
 50122  1  0  0  0
 50123  1  0  0  0
 51 52  1  0  0  0
 51124  1  0  0  0
 51125  1  0  0  0
 52126  1  0  0  0
 52127  1  0  0  0
 53 54  1  0  0  0
 54 55  2  0  0  0
 54128  1  0  0  0
 55 57  1  0  0  0
 55129  1  0  0  0
 56 69  2  0  0  0
 57 58  2  0  0  0
 57130  1  0  0  0
 58131  1  0  0  0
 59 60  1  0  0  0
 59 61  1  0  0  0
 59 62  1  0  0  0
 60132  1  0  0  0
 60133  1  0  0  0
 60134  1  0  0  0
 61135  1  0  0  0
 61136  1  0  0  0
 61137  1  0  0  0
 62138  1  0  0  0
 62139  1  0  0  0
 62140  1  0  0  0
 63 65  1  0  0  0
 63141  1  0  0  0
 63142  1  0  0  0
 63143  1  0  0  0
 64144  1  0  0  0
 65145  1  0  0  0
 68 82  1  0  0  0
 71 84  1  0  0  0
 71 86  2  0  0  0
 71 79  1  0  0  0
 72 73  1  0  0  0
 72 78  1  0  0  0
 72146  1  0  0  0
 72147  1  0  0  0
 73 79  1  0  0  0
 73148  1  0  0  0
 73149  1  0  0  0
 74 76  1  0  0  0
 74150  1  0  0  0
 74151  1  0  0  0
 74 80  1  0  0  0
 75 77  1  0  0  0
 75 80  1  0  0  0
 75152  1  0  0  0
 75153  1  0  0  0
 76 83  1  0  0  0
 76154  1  0  0  0
 76155  1  0  0  0
 77 83  1  0  0  0
 77156  1  0  0  0
 77157  1  0  0  0
 78158  1  0  0  0
 78159  1  0  0  0
 78 85  1  0  0  0
 79 85  1  0  0  0
 79160  1  0  0  0
 80 85  1  0  0  0
 80161  1  0  0  0
 81 82  1  0  0  0
 81 84  1  0  0  0
 81162  1  0  0  0
 81163  1  0  0  0
 82164  1  0  0  0
 82165  1  0  0  0
 84166  1  0  0  0
 85167  1  0  0  0
M  CHG  1  85   1
M  ISO  4   1 100  68 101  82 101  83 100
M  END
> <chiral flag>
0

> <version>
0

> <s_m_source_file>
/data/baiqing/PycharmProjects/Reinvent-master-3.2/result/LINK_invent/BTK/process_docking_weight1_custom_sum_contain_oxygen_bond_distance_aromatic_linkinvent_7_9_3/rearranged_h_0196.sdf

> <i_m_source_file_index>
31

> <r_mmod_Potential_Energy-OPLS-2005>
40.526985168457

> <r_mmod_Stretch_Energy-OPLS-2005>
42.9893112182617

> <r_mmod_Bend_Energy-OPLS-2005>
148.367233276367

> <r_mmod_Torsional_Energy-OPLS-2005>
369.292144775391

> <r_mmod_Improper_Torsional_Energy-OPLS-2005>
20.271448135376

> <r_mmod_Van_der_Waal_Energy-OPLS-2005>
135.869125366211

> <r_mmod_Electrostatic_Energy-OPLS-2005>
-263.854400634766

> <r_mmod_Solvation_Energy-OPLS-2005>
-439.453521728516

> <b_mmod_Minimization_Converged-OPLS-2005>
0

> <r_mmod_RMS_Derivative-OPLS-2005>
7.7606053352356

$$$$
31
                    3D
 Structure written by MMmdl.
155163  0  0  1  0            999 V2000
  -30.5385  -14.9497   20.4387 C   0  0  0  0  0  0
  -30.4442  -12.5834   19.5143 C   0  0  0  0  0  0
  -29.5345  -12.5277   18.2648 C   0  0  0  0  0  0
  -28.0657  -12.3122   18.6805 C   0  0  0  0  0  0
  -27.6349  -13.2442   19.8445 C   0  0  2  0  0  0
  -28.6743  -13.2622   20.9853 C   0  0  0  0  0  0
  -25.2507  -13.8182   20.5688 C   0  0  0  0  0  0
  -24.1812  -13.0443   20.9208 C   0  0  0  0  0  0
  -24.6402  -11.6899   20.8727 C   0  0  0  0  0  0
  -23.9068  -10.4292   21.0390 C   0  0  0  0  0  0
  -24.3614   -9.4207   21.9177 C   0  0  0  0  0  0
  -23.6279   -8.2254   22.0763 C   0  0  0  0  0  0
  -22.4261   -8.0301   21.3554 C   0  0  0  0  0  0
  -21.9891   -9.0265   20.4653 C   0  0  0  0  0  0
  -22.7227  -10.2138   20.3051 C   0  0  0  0  0  0
  -21.6845   -6.0733   22.5277 C   0  0  0  0  0  0
  -21.4005   -6.5640   23.8208 C   0  0  0  0  0  0
  -21.3666   -5.6798   24.9179 C   0  0  0  0  0  0
  -21.6033   -4.3057   24.7233 C   0  0  0  0  0  0
  -21.8813   -3.8139   23.4358 C   0  0  0  0  0  0
  -21.9188   -4.6952   22.3409 C   0  0  0  0  0  0
  -22.7842  -13.5232   21.1893 C   0  0  0  0  0  0
  -22.1653   -4.2131   21.0986 F   0  0  0  0  0  0
  -21.5640   -3.4548   25.7752 F   0  0  0  0  0  0
  -29.9502  -13.6851   20.3917 N   0  0  0  0  0  0
  -26.2920  -12.9400   20.3243 N   0  0  0  0  0  0
  -25.9334  -11.6528   20.5707 N   0  0  0  0  0  0
  -22.0478  -12.8231   22.0438 N   0  0  0  0  0  0
  -25.4245  -15.1909   20.4097 N   0  0  0  0  0  0
  -31.7394  -15.0223   20.1600 O   0  0  0  0  0  0
  -21.6634   -6.8891   21.4251 O   0  0  0  0  0  0
  -22.3539  -14.5558   20.6758 O   0  0  0  0  0  0
  -24.6423  -31.8443   23.1877 C   0  0  0  0  0  0
  -25.9198  -32.4700   23.8274 C   0  0  1  0  0  0
  -27.2227  -27.1371   20.1731 C   0  0  0  0  0  0
  -25.5938  -33.8502   24.2189 N   0  0  0  0  0  0
  -23.4445  -30.4616   21.5337 C   0  0  2  0  0  0
  -24.8963  -28.8786   20.1203 C   0  0  0  0  0  0
  -22.7532  -29.4553   22.4878 C   0  0  0  0  0  0
  -18.0303  -28.1406   22.8431 C   0  0  0  0  0  0
  -24.1489  -36.7247   23.2644 C   0  0  0  0  0  0
  -25.9997  -30.7191   21.3848 C   0  0  0  0  0  0
  -26.0718  -29.3269   20.7372 C   0  0  0  0  0  0
  -27.2383  -28.4741   20.7400 C   0  0  0  0  0  0
  -26.0214  -26.7790   19.5300 C   0  0  0  0  0  0
  -24.8835  -27.6182   19.5010 C   0  0  0  0  0  0
  -23.6719  -29.7832   20.1564 C   0  0  0  0  0  0
  -25.4124  -36.3035   24.0318 C   0  0  1  0  0  0
  -20.5887  -28.3717   23.1242 C   0  0  2  0  0  0
  -20.6809  -26.9426   22.5412 C   0  0  0  0  0  0
  -19.5813  -26.6370   21.5206 C   0  0  0  0  0  0
  -18.1965  -26.7959   22.1566 C   0  0  0  0  0  0
  -19.1543  -28.8880   23.2826 C   0  0  0  0  0  0
  -18.9461  -30.1461   23.8862 C   0  0  0  0  0  0
  -17.6454  -30.6591   24.0540 C   0  0  0  0  0  0
  -25.9072  -34.9411   23.5066 C   0  0  0  0  0  0
  -16.5354  -29.9084   23.6324 C   0  0  0  0  0  0
  -16.7282  -28.6505   23.0324 C   0  0  0  0  0  0
  -26.4505  -31.6579   25.0735 C   0  0  0  0  0  0
  -25.3678  -31.3785   26.1434 C   0  0  0  0  0  0
  -27.0363  -30.2977   24.6311 C   0  0  0  0  0  0
  -27.6039  -32.4343   25.7520 C   0  0  0  0  0  0
  -27.5569  -37.1785   24.8462 C   0  0  0  0  0  0
  -21.4233  -29.3036   22.3607 N   0  0  0  0  0  0
  -26.4279  -37.3757   23.9409 N   0  0  0  0  0  0
  -24.7154  -31.0285   22.0917 N   0  0  0  0  0  0
  -23.4172  -28.8132   23.3053 O   0  0  0  0  0  0
  -28.3198  -26.2058   20.1431 O   0  0  0  0  0  0
  -26.5665  -34.8901   22.4655 O   0  0  0  0  0  0
  -23.5545  -32.1316   23.7105 O   0  0  0  0  0  0
  -26.7756  -22.9584   19.6157 C   0  0  0  0  0  0
  -28.2795  -23.3124   19.7744 C   0  0  1  0  0  0
  -26.9394  -21.8126   20.6527 C   0  0  2  0  0  0
  -28.2893  -21.6059   19.9742 C   0  0  2  0  0  0
  -28.3054  -24.7364   20.6658 C   0  0  0  0  0  0
  -30.0967  -17.6899   20.6322 C   0  0  0  0  0  0
  -28.9836  -18.9597   20.4146 C   0  0  0  0  0  0
  -25.9405  -20.7553   20.7343 N   0  0  0  0  0  0
  -29.7567  -16.1325   20.6044 N   0  0  0  0  0  0
  -29.2896  -20.5249   20.5623 N   0  3  0  0  0  0
  -31.4862  -12.7275   19.2192 H   0  0  0  0  0  0
  -30.4258  -11.6276   20.0408 H   0  0  0  0  0  0
  -29.8605  -11.7299   17.5964 H   0  0  0  0  0  0
  -29.6331  -13.4551   17.6980 H   0  0  0  0  0  0
  -27.9723  -11.2745   19.0000 H   0  0  0  0  0  0
  -27.4013  -12.4287   17.8243 H   0  0  0  0  0  0
  -27.6036  -14.2478   19.4226 H   0  0  0  0  0  0
  -28.7545  -12.2749   21.4431 H   0  0  0  0  0  0
  -28.3724  -13.9411   21.7846 H   0  0  0  0  0  0
  -25.2757   -9.5680   22.4763 H   0  0  0  0  0  0
  -23.9969   -7.4648   22.7484 H   0  0  0  0  0  0
  -21.0821   -8.8774   19.8970 H   0  0  0  0  0  0
  -22.3664  -10.9679   19.6170 H   0  0  0  0  0  0
  -21.1976   -7.6141   23.9703 H   0  0  0  0  0  0
  -21.1502   -6.0532   25.9081 H   0  0  0  0  0  0
  -22.0576   -2.7593   23.2860 H   0  0  0  0  0  0
  -22.4054  -11.9873   22.4823 H   0  0  0  0  0  0
  -21.1111  -13.1292   22.2643 H   0  0  0  0  0  0
  -24.6581  -15.8479   20.5128 H   0  0  0  0  0  0
  -26.2615  -15.6163   20.0365 H   0  0  0  0  0  0
  -26.7272  -32.5320   23.1008 H   0  0  0  0  0  0
  -25.0052  -33.9640   25.0307 H   0  0  0  0  0  0
  -22.7472  -31.2886   21.3780 H   0  0  0  0  0  0
  -23.3768  -35.9564   23.3302 H   0  0  0  0  0  0
  -24.3553  -36.8881   22.2052 H   0  0  0  0  0  0
  -23.7212  -37.6429   23.6682 H   0  0  0  0  0  0
  -26.1489  -31.4691   20.6081 H   0  0  0  0  0  0
  -26.8743  -30.7782   22.0216 H   0  0  0  0  0  0
  -28.1421  -28.8210   21.2217 H   0  0  0  0  0  0
  -25.9544  -25.8175   19.0421 H   0  0  0  0  0  0
  -23.9873  -27.2708   19.0088 H   0  0  0  0  0  0
  -23.8035  -30.5553   19.3978 H   0  0  0  0  0  0
  -22.7867  -29.2223   19.8506 H   0  0  0  0  0  0
  -25.1309  -36.1867   25.0808 H   0  0  0  0  0  0
  -20.9940  -28.3319   24.1367 H   0  0  0  0  0  0
  -20.5725  -26.2327   23.3617 H   0  0  0  0  0  0
  -21.6683  -26.7469   22.1192 H   0  0  0  0  0  0
  -19.7011  -25.6265   21.1313 H   0  0  0  0  0  0
  -19.6815  -27.3134   20.6708 H   0  0  0  0  0  0
  -17.4273  -26.6663   21.3944 H   0  0  0  0  0  0
  -18.0339  -26.0094   22.8949 H   0  0  0  0  0  0
  -19.7929  -30.7272   24.2262 H   0  0  0  0  0  0
  -17.5025  -31.6258   24.5169 H   0  0  0  0  0  0
  -15.5361  -30.2974   23.7714 H   0  0  0  0  0  0
  -15.8671  -28.0819   22.7074 H   0  0  0  0  0  0
  -24.5881  -30.7100   25.7762 H   0  0  0  0  0  0
  -24.8845  -32.2976   26.4768 H   0  0  0  0  0  0
  -25.7967  -30.9028   27.0265 H   0  0  0  0  0  0
  -26.2987  -29.6730   24.1268 H   0  0  0  0  0  0
  -27.3910  -29.7256   25.4891 H   0  0  0  0  0  0
  -27.8920  -30.4221   23.9674 H   0  0  0  0  0  0
  -27.2640  -33.3669   26.2038 H   0  0  0  0  0  0
  -28.3889  -32.6858   25.0379 H   0  0  0  0  0  0
  -28.0669  -31.8503   26.5484 H   0  0  0  0  0  0
  -28.2592  -38.0083   24.7523 H   0  0  0  0  0  0
  -28.1064  -36.2608   24.6285 H   0  0  0  0  0  0
  -27.2286  -37.1430   25.8868 H   0  0  0  0  0  0
  -20.9441  -29.8671   21.6744 H   0  0  0  0  0  0
  -26.0147  -38.2827   24.1426 H   0  0  0  0  0  0
  -26.5058  -22.6334   18.6080 H   0  0  0  0  0  0
  -26.0828  -23.7360   19.9352 H   0  0  0  0  0  0
  -28.7548  -23.5049   18.8139 H   0  0  0  0  0  0
  -27.0531  -22.2364   21.6531 H   0  0  0  0  0  0
  -28.1382  -21.1826   18.9746 H   0  0  0  0  0  0
  -29.2039  -24.6864   21.2816 H   0  0  0  0  0  0
  -27.5040  -24.6990   21.4032 H   0  0  0  0  0  0
  -30.8991  -17.8361   19.9069 H   0  0  0  0  0  0
  -30.5769  -17.8507   21.5982 H   0  0  0  0  0  0
  -28.5770  -18.8360   19.4120 H   0  0  0  0  0  0
  -28.1400  -18.7620   21.0756 H   0  0  0  0  0  0
  -25.0122  -21.1650   20.6726 H   0  0  0  0  0  0
  -25.9515  -20.3612   21.6725 H   0  0  0  0  0  0
  -28.7865  -15.9254   20.7945 H   0  0  0  0  0  0
  -29.4324  -20.7259   21.5374 H   0  0  0  0  0  0
  -30.1724  -20.6856   20.1076 H   0  0  0  0  0  0
  1 25  1  0  0  0
  1 30  2  0  0  0
  1 79  1  0  0  0
  2  3  1  0  0  0
  2 25  1  0  0  0
  2 81  1  0  0  0
  2 82  1  0  0  0
  3  4  1  0  0  0
  3 83  1  0  0  0
  3 84  1  0  0  0
  4  5  1  0  0  0
  4 85  1  0  0  0
  4 86  1  0  0  0
  5  6  1  0  0  0
  5 26  1  0  0  0
  5 87  1  0  0  0
  6 25  1  0  0  0
  6 88  1  0  0  0
  6 89  1  0  0  0
  7  8  2  0  0  0
  7 26  1  0  0  0
  7 29  1  0  0  0
  8  9  1  0  0  0
  8 22  1  0  0  0
  9 10  1  0  0  0
  9 27  2  0  0  0
 10 11  2  0  0  0
 10 15  1  0  0  0
 11 12  1  0  0  0
 11 90  1  0  0  0
 12 13  2  0  0  0
 12 91  1  0  0  0
 13 14  1  0  0  0
 13 31  1  0  0  0
 14 15  2  0  0  0
 14 92  1  0  0  0
 15 93  1  0  0  0
 16 17  2  0  0  0
 16 21  1  0  0  0
 16 31  1  0  0  0
 17 18  1  0  0  0
 17 94  1  0  0  0
 18 19  2  0  0  0
 18 95  1  0  0  0
 19 20  1  0  0  0
 19 24  1  0  0  0
 20 21  2  0  0  0
 20 96  1  0  0  0
 21 23  1  0  0  0
 22 28  1  0  0  0
 22 32  2  0  0  0
 26 27  1  0  0  0
 28 97  1  0  0  0
 28 98  1  0  0  0
 29 99  1  0  0  0
 29100  1  0  0  0
 33 34  1  0  0  0
 33 66  1  0  0  0
 33 70  2  0  0  0
 34 36  1  0  0  0
 34 59  1  0  0  0
 34101  1  0  0  0
 35 44  2  0  0  0
 35 45  1  0  0  0
 35 68  1  0  0  0
 36 56  1  0  0  0
 36102  1  0  0  0
 37 39  1  0  0  0
 37 47  1  0  0  0
 37 66  1  0  0  0
 37103  1  0  0  0
 38 43  2  0  0  0
 38 46  1  0  0  0
 38 47  1  0  0  0
 39 64  1  0  0  0
 39 67  2  0  0  0
 40 52  1  0  0  0
 40 53  2  0  0  0
 40 58  1  0  0  0
 41104  1  0  0  0
 41105  1  0  0  0
 41106  1  0  0  0
 41 48  1  0  0  0
 42 43  1  0  0  0
 42 66  1  0  0  0
 42107  1  0  0  0
 42108  1  0  0  0
 43 44  1  0  0  0
 44109  1  0  0  0
 45 46  2  0  0  0
 45110  1  0  0  0
 46111  1  0  0  0
 47112  1  0  0  0
 47113  1  0  0  0
 48 56  1  0  0  0
 48 65  1  0  0  0
 48114  1  0  0  0
 49 50  1  0  0  0
 49 53  1  0  0  0
 49 64  1  0  0  0
 49115  1  0  0  0
 50 51  1  0  0  0
 50116  1  0  0  0
 50117  1  0  0  0
 51 52  1  0  0  0
 51118  1  0  0  0
 51119  1  0  0  0
 52120  1  0  0  0
 52121  1  0  0  0
 53 54  1  0  0  0
 54 55  2  0  0  0
 54122  1  0  0  0
 55 57  1  0  0  0
 55123  1  0  0  0
 56 69  2  0  0  0
 57 58  2  0  0  0
 57124  1  0  0  0
 58125  1  0  0  0
 59 60  1  0  0  0
 59 61  1  0  0  0
 59 62  1  0  0  0
 60126  1  0  0  0
 60127  1  0  0  0
 60128  1  0  0  0
 61129  1  0  0  0
 61130  1  0  0  0
 61131  1  0  0  0
 62132  1  0  0  0
 62133  1  0  0  0
 62134  1  0  0  0
 63 65  1  0  0  0
 63135  1  0  0  0
 63136  1  0  0  0
 63137  1  0  0  0
 64138  1  0  0  0
 65139  1  0  0  0
 68 75  1  0  0  0
 71 72  1  0  0  0
 71 73  1  0  0  0
 71140  1  0  0  0
 71141  1  0  0  0
 72 74  1  0  0  0
 72 75  1  0  0  0
 72142  1  0  0  0
 73 74  1  0  0  0
 73 78  1  0  0  0
 73143  1  0  0  0
 74 80  1  0  0  0
 74144  1  0  0  0
 75145  1  0  0  0
 75146  1  0  0  0
 76 77  1  0  0  0
 76 79  1  0  0  0
 76147  1  0  0  0
 76148  1  0  0  0
 77 80  1  0  0  0
 77149  1  0  0  0
 77150  1  0  0  0
 78151  1  0  0  0
 78152  1  0  0  0
 79153  1  0  0  0
 80154  1  0  0  0
 80155  1  0  0  0
M  CHG  1  80   1
M  ISO  4   1 100  68 101  75 101  79 100
M  END
> <chiral flag>
0

> <version>
0

> <s_m_source_file>
/data/baiqing/PycharmProjects/Reinvent-master-3.2/result/LINK_invent/BTK/process_docking_weight1_custom_sum_contain_oxygen_bond_distance_aromatic_linkinvent_7_9_3/rearranged_h_0196.sdf

> <i_m_source_file_index>
32

> <r_mmod_Potential_Energy-OPLS-2005>
372.499237060547

> <r_mmod_Stretch_Energy-OPLS-2005>
288.535736083984

> <r_mmod_Bend_Energy-OPLS-2005>
390.815063476562

> <r_mmod_Torsional_Energy-OPLS-2005>
239.386795043945

> <r_mmod_Improper_Torsional_Energy-OPLS-2005>
4.19382810592651

> <r_mmod_Van_der_Waal_Energy-OPLS-2005>
116.370666503906

> <r_mmod_Electrostatic_Energy-OPLS-2005>
-337.144104003906

> <r_mmod_Solvation_Energy-OPLS-2005>
-512.503540039062

> <b_mmod_Minimization_Converged-OPLS-2005>
0

> <r_mmod_RMS_Derivative-OPLS-2005>
3.90086007118225

$$$$
32
                    3D
 Structure written by MMmdl.
175184  0  0  1  0            999 V2000
  -30.6484  -14.6020   20.5162 C   0  0  0  0  0  0
  -30.4315  -12.3660   19.4736 C   0  0  0  0  0  0
  -29.5181  -12.4946   18.2370 C   0  0  0  0  0  0
  -28.0384  -12.3359   18.6411 C   0  0  0  0  0  0
  -27.6540  -13.2143   19.8639 C   0  0  2  0  0  0
  -28.6907  -13.0784   21.0005 C   0  0  0  0  0  0
  -25.2573  -13.8167   20.5693 C   0  0  0  0  0  0
  -24.1826  -13.0441   20.9185 C   0  0  0  0  0  0
  -24.6369  -11.6912   20.8734 C   0  0  0  0  0  0
  -23.9048  -10.4301   21.0422 C   0  0  0  0  0  0
  -24.3616   -9.4207   21.9192 C   0  0  0  0  0  0
  -23.6287   -8.2244   22.0751 C   0  0  0  0  0  0
  -22.4275   -8.0291   21.3550 C   0  0  0  0  0  0
  -21.9913   -9.0268   20.4659 C   0  0  0  0  0  0
  -22.7234  -10.2143   20.3062 C   0  0  0  0  0  0
  -21.6850   -6.0735   22.5282 C   0  0  0  0  0  0
  -21.4022   -6.5632   23.8221 C   0  0  0  0  0  0
  -21.3662   -5.6776   24.9176 C   0  0  0  0  0  0
  -21.6042   -4.3044   24.7232 C   0  0  0  0  0  0
  -21.8813   -3.8144   23.4350 C   0  0  0  0  0  0
  -21.9180   -4.6960   22.3403 C   0  0  0  0  0  0
  -22.7850  -13.5261   21.1820 C   0  0  0  0  0  0
  -22.1653   -4.2143   21.0979 F   0  0  0  0  0  0
  -21.5620   -3.4528   25.7752 F   0  0  0  0  0  0
  -30.0074  -13.3979   20.4373 N   0  0  0  0  0  0
  -26.2990  -12.9342   20.3317 N   0  0  0  0  0  0
  -25.9303  -11.6500   20.5748 N   0  0  0  0  0  0
  -22.0444  -12.8318   22.0383 N   0  0  0  0  0  0
  -25.4281  -15.1887   20.4144 N   0  0  0  0  0  0
  -31.8224  -14.7198   20.1509 O   0  0  0  0  0  0
  -21.6632   -6.8892   21.4255 O   0  0  0  0  0  0
  -22.3575  -14.5552   20.6609 O   0  0  0  0  0  0
  -24.6245  -31.8615   23.2042 C   0  0  0  0  0  0
  -25.9110  -32.4769   23.8372 C   0  0  1  0  0  0
  -27.2098  -27.3365   20.1122 C   0  0  0  0  0  0
  -25.5936  -33.8570   24.2282 N   0  0  0  0  0  0
  -23.4168  -30.4872   21.5451 C   0  0  2  0  0  0
  -24.8615  -28.9524   20.1056 C   0  0  0  0  0  0
  -22.7464  -29.4633   22.4922 C   0  0  0  0  0  0
  -18.0291  -28.1377   22.8496 C   0  0  0  0  0  0
  -24.1485  -36.7287   23.2643 C   0  0  0  0  0  0
  -25.9597  -30.7949   21.3827 C   0  0  0  0  0  0
  -26.0286  -29.4304   20.7125 C   0  0  0  0  0  0
  -27.2090  -28.6327   20.7061 C   0  0  0  0  0  0
  -26.0220  -26.9108   19.4757 C   0  0  0  0  0  0
  -24.8585  -27.6985   19.4785 C   0  0  0  0  0  0
  -23.6297  -29.8282   20.1580 C   0  0  0  0  0  0
  -25.4107  -36.3064   24.0326 C   0  0  1  0  0  0
  -20.5892  -28.3673   23.1287 C   0  0  2  0  0  0
  -20.6767  -26.9394   22.5410 C   0  0  0  0  0  0
  -19.5742  -26.6369   21.5211 C   0  0  0  0  0  0
  -18.1925  -26.7924   22.1624 C   0  0  0  0  0  0
  -19.1545  -28.8840   23.2889 C   0  0  0  0  0  0
  -18.9460  -30.1451   23.8892 C   0  0  0  0  0  0
  -17.6458  -30.6578   24.0554 C   0  0  0  0  0  0
  -25.9050  -34.9443   23.5096 C   0  0  0  0  0  0
  -16.5346  -29.9068   23.6335 C   0  0  0  0  0  0
  -16.7280  -28.6485   23.0357 C   0  0  0  0  0  0
  -26.4510  -31.6603   25.0761 C   0  0  0  0  0  0
  -25.3750  -31.3759   26.1500 C   0  0  0  0  0  0
  -27.0387  -30.3012   24.6279 C   0  0  0  0  0  0
  -27.6049  -32.4382   25.7520 C   0  0  0  0  0  0
  -27.5571  -37.1795   24.8463 C   0  0  0  0  0  0
  -21.4194  -29.3028   22.3674 N   0  0  0  0  0  0
  -26.4283  -37.3751   23.9406 N   0  0  0  0  0  0
  -24.6838  -31.0649   22.0984 N   0  0  0  0  0  0
  -23.4210  -28.8164   23.2993 O   0  0  0  0  0  0
  -28.3239  -26.4940   20.1789 O   0  0  0  0  0  0
  -26.5599  -34.8898   22.4654 O   0  0  0  0  0  0
  -23.5417  -32.1421   23.7372 O   0  0  0  0  0  0
  -29.7674  -17.8463   21.9385 C   0  0  0  0  0  0
  -30.1967  -18.0332   19.5104 C   0  0  0  0  0  0
  -30.9356  -21.8230   21.9168 C   0  0  0  0  0  0
  -29.2772  -16.3698   21.7322 C   0  0  0  0  0  0
  -29.6773  -16.5739   19.3392 C   0  0  0  0  0  0
  -31.2637  -20.3457   21.8654 C   0  0  0  0  0  0
  -29.5925  -18.8152   20.7126 C   0  0  0  0  0  0
  -29.5668  -21.4483   21.3378 C   0  0  1  0  0  0
  -32.1011  -27.6209   19.0621 C   0  0  0  0  0  0
  -28.9044  -22.4842   20.3378 C   0  0  0  0  0  0
  -32.2226  -26.0976   19.2160 C   0  0  0  0  0  0
  -31.2744  -25.5390   20.3004 C   0  0  0  0  0  0
  -28.1069  -25.0412   20.0347 C   0  0  0  0  0  0
  -29.2437  -24.0435   20.5237 C   0  0  2  0  0  0
  -29.8379  -15.7156   20.5319 N   0  0  0  0  0  0
  -30.2442  -20.1959   20.8148 N   0  3  1  0  0  0
  -30.5166  -24.3601   19.8163 N   0  3  0  0  0  0
  -31.4795  -12.4616   19.1865 H   0  0  0  0  0  0
  -30.3412  -11.3756   19.9226 H   0  0  0  0  0  0
  -29.7888  -11.7453   17.4912 H   0  0  0  0  0  0
  -29.6714  -13.4662   17.7636 H   0  0  0  0  0  0
  -27.8758  -11.2837   18.8821 H   0  0  0  0  0  0
  -27.3932  -12.5550   17.7915 H   0  0  0  0  0  0
  -27.6729  -14.2474   19.5153 H   0  0  0  0  0  0
  -28.6950  -12.0676   21.4099 H   0  0  0  0  0  0
  -28.4393  -13.7397   21.8301 H   0  0  0  0  0  0
  -25.2766   -9.5656   22.4761 H   0  0  0  0  0  0
  -23.9969   -7.4640   22.7485 H   0  0  0  0  0  0
  -21.0828   -8.8810   19.8998 H   0  0  0  0  0  0
  -22.3711  -10.9680   19.6162 H   0  0  0  0  0  0
  -21.2035   -7.6144   23.9733 H   0  0  0  0  0  0
  -21.1483   -6.0503   25.9073 H   0  0  0  0  0  0
  -22.0587   -2.7608   23.2843 H   0  0  0  0  0  0
  -22.4017  -12.0005   22.4872 H   0  0  0  0  0  0
  -21.1054  -13.1387   22.2514 H   0  0  0  0  0  0
  -24.6622  -15.8423   20.5314 H   0  0  0  0  0  0
  -26.2836  -15.6295   20.1008 H   0  0  0  0  0  0
  -26.7179  -32.5431   23.1124 H   0  0  0  0  0  0
  -25.0103  -33.9721   25.0437 H   0  0  0  0  0  0
  -22.7097  -31.3070   21.4029 H   0  0  0  0  0  0
  -23.3730  -35.9640   23.3320 H   0  0  0  0  0  0
  -24.3576  -36.8890   22.2057 H   0  0  0  0  0  0
  -23.7262  -37.6497   23.6666 H   0  0  0  0  0  0
  -26.1120  -31.5712   20.6315 H   0  0  0  0  0  0
  -26.8305  -30.8202   22.0256 H   0  0  0  0  0  0
  -28.1052  -28.9903   21.1936 H   0  0  0  0  0  0
  -25.9556  -25.9560   18.9764 H   0  0  0  0  0  0
  -23.9644  -27.3282   18.9978 H   0  0  0  0  0  0
  -23.7454  -30.6051   19.4020 H   0  0  0  0  0  0
  -22.7530  -29.2542   19.8552 H   0  0  0  0  0  0
  -25.1288  -36.1907   25.0814 H   0  0  0  0  0  0
  -20.9999  -28.3230   24.1401 H   0  0  0  0  0  0
  -20.5654  -26.2272   23.3601 H   0  0  0  0  0  0
  -21.6632  -26.7405   22.1204 H   0  0  0  0  0  0
  -19.6886  -25.6276   21.1240 H   0  0  0  0  0  0
  -19.6683  -27.3173   20.6738 H   0  0  0  0  0  0
  -17.4197  -26.6703   21.4020 H   0  0  0  0  0  0
  -18.0312  -26.0062   22.9012 H   0  0  0  0  0  0
  -19.7930  -30.7279   24.2247 H   0  0  0  0  0  0
  -17.5001  -31.6257   24.5155 H   0  0  0  0  0  0
  -15.5347  -30.2952   23.7655 H   0  0  0  0  0  0
  -15.8686  -28.0785   22.7080 H   0  0  0  0  0  0
  -24.5866  -30.7179   25.7821 H   0  0  0  0  0  0
  -24.9039  -32.2962   26.4975 H   0  0  0  0  0  0
  -25.8085  -30.8876   27.0244 H   0  0  0  0  0  0
  -26.3006  -29.6731   24.1281 H   0  0  0  0  0  0
  -27.4022  -29.7293   25.4832 H   0  0  0  0  0  0
  -27.8900  -30.4254   23.9576 H   0  0  0  0  0  0
  -27.2605  -33.3650   26.2116 H   0  0  0  0  0  0
  -28.3837  -32.7017   25.0353 H   0  0  0  0  0  0
  -28.0772  -31.8543   26.5429 H   0  0  0  0  0  0
  -28.2582  -38.0091   24.7474 H   0  0  0  0  0  0
  -28.1066  -36.2615   24.6323 H   0  0  0  0  0  0
  -27.2301  -37.1490   25.8870 H   0  0  0  0  0  0
  -20.9350  -29.8760   21.6897 H   0  0  0  0  0  0
  -26.0162  -38.2823   24.1391 H   0  0  0  0  0  0
  -30.8233  -17.7730   22.2008 H   0  0  0  0  0  0
  -29.2655  -18.2669   22.8108 H   0  0  0  0  0  0
  -30.0090  -18.5751   18.5829 H   0  0  0  0  0  0
  -31.2817  -17.9911   19.6209 H   0  0  0  0  0  0
  -31.5787  -22.3918   21.2452 H   0  0  0  0  0  0
  -30.9137  -22.2576   22.9171 H   0  0  0  0  0  0
  -28.1878  -16.3499   21.6512 H   0  0  0  0  0  0
  -29.5214  -15.7854   22.6215 H   0  0  0  0  0  0
  -30.1719  -16.1162   18.4799 H   0  0  0  0  0  0
  -28.6171  -16.5986   19.0836 H   0  0  0  0  0  0
  -31.0257  -19.8889   22.8258 H   0  0  0  0  0  0
  -32.2781  -20.1073   21.5419 H   0  0  0  0  0  0
  -28.5278  -18.9676   20.5262 H   0  0  0  0  0  0
  -28.8910  -21.1800   22.1541 H   0  0  0  0  0  0
  -32.7923  -28.0007   18.3088 H   0  0  0  0  0  0
  -32.3185  -28.1321   20.0000 H   0  0  0  0  0  0
  -31.0923  -27.9008   18.7531 H   0  0  0  0  0  0
  -27.8236  -22.3686   20.4380 H   0  0  0  0  0  0
  -29.0965  -22.1928   19.3047 H   0  0  0  0  0  0
  -33.2525  -25.8333   19.4635 H   0  0  0  0  0  0
  -32.0261  -25.6387   18.2462 H   0  0  0  0  0  0
  -30.6073  -26.3291   20.6336 H   0  0  0  0  0  0
  -31.8435  -25.2609   21.1882 H   0  0  0  0  0  0
  -27.2009  -24.7757   20.5836 H   0  0  0  0  0  0
  -27.9026  -24.8317   18.9839 H   0  0  0  0  0  0
  -29.3834  -24.2185   21.5923 H   0  0  0  0  0  0
  -30.6654  -20.4066   19.9236 H   0  0  0  0  0  0
  -31.1442  -23.5760   19.8933 H   0  0  0  0  0  0
  -30.3187  -24.4882   18.8356 H   0  0  0  0  0  0
  1 25  1  0  0  0
  1 30  2  0  0  0
  1 85  1  0  0  0
  2  3  1  0  0  0
  2 25  1  0  0  0
  2 88  1  0  0  0
  2 89  1  0  0  0
  3  4  1  0  0  0
  3 90  1  0  0  0
  3 91  1  0  0  0
  4  5  1  0  0  0
  4 92  1  0  0  0
  4 93  1  0  0  0
  5  6  1  0  0  0
  5 26  1  0  0  0
  5 94  1  0  0  0
  6 25  1  0  0  0
  6 95  1  0  0  0
  6 96  1  0  0  0
  7  8  2  0  0  0
  7 26  1  0  0  0
  7 29  1  0  0  0
  8  9  1  0  0  0
  8 22  1  0  0  0
  9 10  1  0  0  0
  9 27  2  0  0  0
 10 11  2  0  0  0
 10 15  1  0  0  0
 11 12  1  0  0  0
 11 97  1  0  0  0
 12 13  2  0  0  0
 12 98  1  0  0  0
 13 14  1  0  0  0
 13 31  1  0  0  0
 14 15  2  0  0  0
 14 99  1  0  0  0
 15100  1  0  0  0
 16 17  2  0  0  0
 16 21  1  0  0  0
 16 31  1  0  0  0
 17 18  1  0  0  0
 17101  1  0  0  0
 18 19  2  0  0  0
 18102  1  0  0  0
 19 20  1  0  0  0
 19 24  1  0  0  0
 20 21  2  0  0  0
 20103  1  0  0  0
 21 23  1  0  0  0
 22 28  1  0  0  0
 22 32  2  0  0  0
 26 27  1  0  0  0
 28104  1  0  0  0
 28105  1  0  0  0
 29106  1  0  0  0
 29107  1  0  0  0
 33 34  1  0  0  0
 33 66  1  0  0  0
 33 70  2  0  0  0
 34 36  1  0  0  0
 34 59  1  0  0  0
 34108  1  0  0  0
 35 44  2  0  0  0
 35 45  1  0  0  0
 35 68  1  0  0  0
 36 56  1  0  0  0
 36109  1  0  0  0
 37 39  1  0  0  0
 37 47  1  0  0  0
 37 66  1  0  0  0
 37110  1  0  0  0
 38 43  2  0  0  0
 38 46  1  0  0  0
 38 47  1  0  0  0
 39 64  1  0  0  0
 39 67  2  0  0  0
 40 52  1  0  0  0
 40 53  2  0  0  0
 40 58  1  0  0  0
 41111  1  0  0  0
 41112  1  0  0  0
 41113  1  0  0  0
 41 48  1  0  0  0
 42 43  1  0  0  0
 42 66  1  0  0  0
 42114  1  0  0  0
 42115  1  0  0  0
 43 44  1  0  0  0
 44116  1  0  0  0
 45 46  2  0  0  0
 45117  1  0  0  0
 46118  1  0  0  0
 47119  1  0  0  0
 47120  1  0  0  0
 48 56  1  0  0  0
 48 65  1  0  0  0
 48121  1  0  0  0
 49 50  1  0  0  0
 49 53  1  0  0  0
 49 64  1  0  0  0
 49122  1  0  0  0
 50 51  1  0  0  0
 50123  1  0  0  0
 50124  1  0  0  0
 51 52  1  0  0  0
 51125  1  0  0  0
 51126  1  0  0  0
 52127  1  0  0  0
 52128  1  0  0  0
 53 54  1  0  0  0
 54 55  2  0  0  0
 54129  1  0  0  0
 55 57  1  0  0  0
 55130  1  0  0  0
 56 69  2  0  0  0
 57 58  2  0  0  0
 57131  1  0  0  0
 58132  1  0  0  0
 59 60  1  0  0  0
 59 61  1  0  0  0
 59 62  1  0  0  0
 60133  1  0  0  0
 60134  1  0  0  0
 60135  1  0  0  0
 61136  1  0  0  0
 61137  1  0  0  0
 61138  1  0  0  0
 62139  1  0  0  0
 62140  1  0  0  0
 62141  1  0  0  0
 63 65  1  0  0  0
 63142  1  0  0  0
 63143  1  0  0  0
 63144  1  0  0  0
 64145  1  0  0  0
 65146  1  0  0  0
 68 83  1  0  0  0
 71 74  1  0  0  0
 71147  1  0  0  0
 71148  1  0  0  0
 71 77  1  0  0  0
 72 75  1  0  0  0
 72 77  1  0  0  0
 72149  1  0  0  0
 72150  1  0  0  0
 73 76  1  0  0  0
 73 78  1  0  0  0
 73151  1  0  0  0
 73152  1  0  0  0
 74 85  1  0  0  0
 74153  1  0  0  0
 74154  1  0  0  0
 75 85  1  0  0  0
 75155  1  0  0  0
 75156  1  0  0  0
 76157  1  0  0  0
 76158  1  0  0  0
 76 86  1  0  0  0
 77 86  1  0  0  0
 77159  1  0  0  0
 78 80  1  0  0  0
 78 86  1  0  0  0
 78160  1  0  0  0
 79 81  1  0  0  0
 79161  1  0  0  0
 79162  1  0  0  0
 79163  1  0  0  0
 80164  1  0  0  0
 80165  1  0  0  0
 80 84  1  0  0  0
 81 82  1  0  0  0
 81166  1  0  0  0
 81167  1  0  0  0
 82 87  1  0  0  0
 82168  1  0  0  0
 82169  1  0  0  0
 83 84  1  0  0  0
 83170  1  0  0  0
 83171  1  0  0  0
 84 87  1  0  0  0
 84172  1  0  0  0
 86173  1  0  0  0
 87174  1  0  0  0
 87175  1  0  0  0
M  CHG  2  86   1  87   1
M  ISO  4   1 100  68 101  83 101  85 100
M  END
> <chiral flag>
0

> <version>
0

> <s_m_source_file>
/data/baiqing/PycharmProjects/Reinvent-master-3.2/result/LINK_invent/BTK/process_docking_weight1_custom_sum_contain_oxygen_bond_distance_aromatic_linkinvent_7_9_3/rearranged_h_0196.sdf

> <i_m_source_file_index>
33

> <r_mmod_Potential_Energy-OPLS-2005>
168.028427124023

> <r_mmod_Stretch_Energy-OPLS-2005>
81.3830871582031

> <r_mmod_Bend_Energy-OPLS-2005>
161.564895629883

> <r_mmod_Torsional_Energy-OPLS-2005>
407.856781005859

> <r_mmod_Improper_Torsional_Energy-OPLS-2005>
15.4491720199585

> <r_mmod_Van_der_Waal_Energy-OPLS-2005>
129.601348876953

> <r_mmod_Electrostatic_Energy-OPLS-2005>
257.898742675781

> <r_mmod_Solvation_Energy-OPLS-2005>
-928.3779296875

> <b_mmod_Minimization_Converged-OPLS-2005>
0

> <r_mmod_RMS_Derivative-OPLS-2005>
3.13810586929321

$$$$
33
                    3D
 Structure written by MMmdl.
181190  0  0  1  0            999 V2000
  -30.6443  -14.5607   20.4966 C   0  0  0  0  0  0
  -30.4290  -12.3396   19.4323 C   0  0  0  0  0  0
  -29.4952  -12.4912   18.2113 C   0  0  0  0  0  0
  -28.0177  -12.3410   18.6307 C   0  0  0  0  0  0
  -27.6544  -13.2061   19.8677 C   0  0  2  0  0  0
  -28.7024  -13.0295   20.9897 C   0  0  0  0  0  0
  -25.2569  -13.8159   20.5703 C   0  0  0  0  0  0
  -24.1823  -13.0434   20.9215 C   0  0  0  0  0  0
  -24.6369  -11.6896   20.8761 C   0  0  0  0  0  0
  -23.9042  -10.4280   21.0424 C   0  0  0  0  0  0
  -24.3606   -9.4198   21.9197 C   0  0  0  0  0  0
  -23.6295   -8.2227   22.0747 C   0  0  0  0  0  0
  -22.4278   -8.0266   21.3541 C   0  0  0  0  0  0
  -21.9904   -9.0241   20.4644 C   0  0  0  0  0  0
  -22.7217  -10.2131   20.3065 C   0  0  0  0  0  0
  -21.6837   -6.0733   22.5285 C   0  0  0  0  0  0
  -21.4001   -6.5638   23.8220 C   0  0  0  0  0  0
  -21.3665   -5.6789   24.9184 C   0  0  0  0  0  0
  -21.6051   -4.3054   24.7231 C   0  0  0  0  0  0
  -21.8815   -3.8142   23.4350 C   0  0  0  0  0  0
  -21.9191   -4.6960   22.3406 C   0  0  0  0  0  0
  -22.7852  -13.5243   21.1891 C   0  0  0  0  0  0
  -22.1662   -4.2139   21.0984 F   0  0  0  0  0  0
  -21.5641   -3.4539   25.7743 F   0  0  0  0  0  0
  -30.0185  -13.3513   20.4166 N   0  0  0  0  0  0
  -26.2991  -12.9314   20.3367 N   0  0  0  0  0  0
  -25.9300  -11.6483   20.5802 N   0  0  0  0  0  0
  -22.0499  -12.8211   22.0430 N   0  0  0  0  0  0
  -25.4317  -15.1863   20.4101 N   0  0  0  0  0  0
  -31.8141  -14.7277   20.1432 O   0  0  0  0  0  0
  -21.6638   -6.8868   21.4246 O   0  0  0  0  0  0
  -22.3540  -14.5563   20.6753 O   0  0  0  0  0  0
  -24.6159  -31.8640   23.2038 C   0  0  0  0  0  0
  -25.9043  -32.4798   23.8358 C   0  0  1  0  0  0
  -27.2214  -27.3668   20.1054 C   0  0  0  0  0  0
  -25.5857  -33.8593   24.2294 N   0  0  0  0  0  0
  -23.4075  -30.4872   21.5445 C   0  0  2  0  0  0
  -24.8496  -28.9384   20.1146 C   0  0  0  0  0  0
  -22.7439  -29.4646   22.4964 C   0  0  0  0  0  0
  -18.0290  -28.1359   22.8523 C   0  0  0  0  0  0
  -24.1482  -36.7306   23.2646 C   0  0  0  0  0  0
  -25.9428  -30.8060   21.3683 C   0  0  0  0  0  0
  -26.0118  -29.4316   20.7216 C   0  0  0  0  0  0
  -27.1960  -28.6507   20.7184 C   0  0  0  0  0  0
  -26.0454  -26.9154   19.4699 C   0  0  0  0  0  0
  -24.8633  -27.6812   19.4892 C   0  0  0  0  0  0
  -23.6158  -29.8134   20.1617 C   0  0  0  0  0  0
  -25.4091  -36.3095   24.0356 C   0  0  1  0  0  0
  -20.5889  -28.3631   23.1311 C   0  0  2  0  0  0
  -20.6758  -26.9357   22.5413 C   0  0  0  0  0  0
  -19.5739  -26.6347   21.5233 C   0  0  0  0  0  0
  -18.1920  -26.7908   22.1635 C   0  0  0  0  0  0
  -19.1557  -28.8802   23.2924 C   0  0  0  0  0  0
  -18.9473  -30.1424   23.8904 C   0  0  0  0  0  0
  -17.6482  -30.6565   24.0558 C   0  0  0  0  0  0
  -25.9030  -34.9470   23.5139 C   0  0  0  0  0  0
  -16.5364  -29.9069   23.6325 C   0  0  0  0  0  0
  -16.7281  -28.6483   23.0357 C   0  0  0  0  0  0
  -26.4406  -31.6615   25.0732 C   0  0  0  0  0  0
  -25.3666  -31.3769   26.1485 C   0  0  0  0  0  0
  -27.0250  -30.3048   24.6156 C   0  0  0  0  0  0
  -27.5992  -32.4305   25.7472 C   0  0  0  0  0  0
  -27.5591  -37.1759   24.8435 C   0  0  0  0  0  0
  -21.4155  -29.3015   22.3714 N   0  0  0  0  0  0
  -26.4250  -37.3801   23.9461 N   0  0  0  0  0  0
  -24.6742  -31.0691   22.0971 N   0  0  0  0  0  0
  -23.4214  -28.8222   23.3043 O   0  0  0  0  0  0
  -28.4097  -26.6427   20.0323 O   0  0  0  0  0  0
  -26.5621  -34.8946   22.4728 O   0  0  0  0  0  0
  -23.5346  -32.1407   23.7408 O   0  0  0  0  0  0
  -29.9553  -23.4986   20.3059 C   0  0  0  0  0  0
  -28.9934  -22.6656   20.9131 C   0  0  0  0  0  0
  -27.7032  -23.2518   21.0039 C   0  0  0  0  0  0
  -28.5011  -25.2800   20.2109 C   0  0  0  0  0  0
  -29.6577  -17.9643   19.8094 C   0  0  0  0  0  0
  -29.8585  -19.5059   20.0501 C   0  0  0  0  0  0
  -29.8326  -19.1132   22.4475 C   0  0  0  0  0  0
  -29.5573  -17.5898   22.2818 C   0  0  1  0  0  0
  -30.1727  -17.0527   20.9647 C   0  0  1  0  0  0
  -25.8693  -23.0630   22.7812 C   0  0  0  0  0  0
  -29.3476  -16.6984   29.5684 C   0  0  0  0  0  0
  -29.4759  -21.4224   21.7272 C   0  0  0  0  0  0
  -26.4708  -22.4954   21.4887 C   0  0  0  0  0  0
  -30.0873  -16.7887   23.4944 C   0  0  0  0  0  0
  -29.8562  -16.2704   25.7999 C   0  0  0  0  0  0
  -29.1353  -16.6296   27.1091 C   0  0  0  0  0  0
  -29.7097  -24.7840   19.9679 N   0  0  0  0  0  0
  -27.4802  -24.5508   20.6666 N   0  0  0  0  0  0
  -29.8367  -15.6089   20.7978 N   0  0  0  0  0  0
  -29.3063  -17.0478   24.6953 N   0  0  0  0  0  0
  -29.2830  -19.9666   21.3472 N   0  3  1  0  0  0
  -29.9643  -16.3131   28.2864 N   0  3  0  0  0  0
  -31.4725  -12.4528   19.1340 H   0  0  0  0  0  0
  -30.3445  -11.3408   19.8628 H   0  0  0  0  0  0
  -29.7437  -11.7488   17.4517 H   0  0  0  0  0  0
  -29.6459  -13.4680   17.7469 H   0  0  0  0  0  0
  -27.8447  -11.2895   18.8578 H   0  0  0  0  0  0
  -27.3584  -12.5820   17.7945 H   0  0  0  0  0  0
  -27.6805  -14.2448   19.5379 H   0  0  0  0  0  0
  -28.6979  -12.0010   21.3539 H   0  0  0  0  0  0
  -28.4673  -13.6494   21.8560 H   0  0  0  0  0  0
  -25.2750   -9.5682   22.4771 H   0  0  0  0  0  0
  -24.0011   -7.4611   22.7448 H   0  0  0  0  0  0
  -21.0833   -8.8753   19.8942 H   0  0  0  0  0  0
  -22.3671  -10.9676   19.6176 H   0  0  0  0  0  0
  -21.1970   -7.6143   23.9720 H   0  0  0  0  0  0
  -21.1500   -6.0523   25.9092 H   0  0  0  0  0  0
  -22.0585   -2.7600   23.2856 H   0  0  0  0  0  0
  -22.4094  -11.9835   22.4761 H   0  0  0  0  0  0
  -21.1142  -13.1250   22.2699 H   0  0  0  0  0  0
  -24.6601  -15.8388   20.4942 H   0  0  0  0  0  0
  -26.2755  -15.6177   20.0573 H   0  0  0  0  0  0
  -26.7130  -32.5460   23.1132 H   0  0  0  0  0  0
  -24.9901  -33.9763   25.0366 H   0  0  0  0  0  0
  -22.6952  -31.3026   21.3978 H   0  0  0  0  0  0
  -23.3765  -35.9606   23.3220 H   0  0  0  0  0  0
  -24.3623  -36.9000   22.2082 H   0  0  0  0  0  0
  -23.7196  -37.6476   23.6704 H   0  0  0  0  0  0
  -26.0652  -31.5679   20.5984 H   0  0  0  0  0  0
  -26.8280  -30.8602   21.9905 H   0  0  0  0  0  0
  -28.0934  -29.0351   21.1802 H   0  0  0  0  0  0
  -26.0328  -25.9619   18.9590 H   0  0  0  0  0  0
  -23.9704  -27.2986   19.0131 H   0  0  0  0  0  0
  -23.7262  -30.5793   19.3935 H   0  0  0  0  0  0
  -22.7364  -29.2354   19.8681 H   0  0  0  0  0  0
  -25.1260  -36.1910   25.0832 H   0  0  0  0  0  0
  -20.9984  -28.3162   24.1440 H   0  0  0  0  0  0
  -20.5615  -26.2257   23.3617 H   0  0  0  0  0  0
  -21.6629  -26.7354   22.1226 H   0  0  0  0  0  0
  -19.6870  -25.6268   21.1231 H   0  0  0  0  0  0
  -19.6645  -27.3191   20.6790 H   0  0  0  0  0  0
  -17.4179  -26.6701   21.4039 H   0  0  0  0  0  0
  -18.0274  -26.0067   22.9030 H   0  0  0  0  0  0
  -19.7959  -30.7252   24.2253 H   0  0  0  0  0  0
  -17.5037  -31.6262   24.5146 H   0  0  0  0  0  0
  -15.5368  -30.2969   23.7640 H   0  0  0  0  0  0
  -15.8686  -28.0790   22.7049 H   0  0  0  0  0  0
  -24.5786  -30.7165   25.7827 H   0  0  0  0  0  0
  -24.8922  -32.2978   26.4898 H   0  0  0  0  0  0
  -25.7995  -30.8932   27.0256 H   0  0  0  0  0  0
  -26.2838  -29.6825   24.1127 H   0  0  0  0  0  0
  -27.3943  -29.7243   25.4612 H   0  0  0  0  0  0
  -27.8681  -30.4393   23.9391 H   0  0  0  0  0  0
  -27.2624  -33.3602   26.2067 H   0  0  0  0  0  0
  -28.3769  -32.6853   25.0275 H   0  0  0  0  0  0
  -28.0694  -31.8426   26.5372 H   0  0  0  0  0  0
  -28.2468  -38.0187   24.7646 H   0  0  0  0  0  0
  -28.1219  -36.2728   24.5997 H   0  0  0  0  0  0
  -27.2377  -37.1077   25.8844 H   0  0  0  0  0  0
  -20.9296  -29.8783   21.6995 H   0  0  0  0  0  0
  -26.0119  -38.2847   24.1555 H   0  0  0  0  0  0
  -30.9779  -23.1729   20.1883 H   0  0  0  0  0  0
  -30.1543  -17.6843   18.8793 H   0  0  0  0  0  0
  -28.5966  -17.7760   19.6441 H   0  0  0  0  0  0
  -29.3987  -20.0697   19.2375 H   0  0  0  0  0  0
  -30.9236  -19.7447   20.0215 H   0  0  0  0  0  0
  -30.9104  -19.2723   22.5209 H   0  0  0  0  0  0
  -29.4179  -19.4423   23.4015 H   0  0  0  0  0  0
  -28.4762  -17.4544   22.2299 H   0  0  0  0  0  0
  -31.2587  -17.1543   21.0231 H   0  0  0  0  0  0
  -24.9614  -22.5215   23.0505 H   0  0  0  0  0  0
  -25.5982  -24.1133   22.6633 H   0  0  0  0  0  0
  -26.5674  -22.9859   23.6148 H   0  0  0  0  0  0
  -30.0236  -16.4841   30.3949 H   0  0  0  0  0  0
  -28.4223  -16.1484   29.7361 H   0  0  0  0  0  0
  -29.1214  -17.7640   29.5885 H   0  0  0  0  0  0
  -29.0153  -21.5519   22.7084 H   0  0  0  0  0  0
  -30.5436  -21.5660   21.9118 H   0  0  0  0  0  0
  -26.6996  -21.4394   21.6303 H   0  0  0  0  0  0
  -25.7186  -22.5239   20.6970 H   0  0  0  0  0  0
  -31.1403  -17.0216   23.6618 H   0  0  0  0  0  0
  -30.0352  -15.7173   23.2954 H   0  0  0  0  0  0
  -29.7741  -15.1996   25.6018 H   0  0  0  0  0  0
  -30.9195  -16.4990   25.8887 H   0  0  0  0  0  0
  -28.1766  -16.1114   27.1673 H   0  0  0  0  0  0
  -28.9208  -17.6997   27.1272 H   0  0  0  0  0  0
  -28.8823  -15.3512   21.0013 H   0  0  0  0  0  0
  -28.3403  -16.7627   24.5442 H   0  0  0  0  0  0
  -28.2917  -19.7878   21.3158 H   0  0  0  0  0  0
  -30.1554  -15.3246   28.3015 H   0  0  0  0  0  0
  -30.8437  -16.7954   28.2013 H   0  0  0  0  0  0
  1 25  1  0  0  0
  1 30  2  0  0  0
  1 89  1  0  0  0
  2  3  1  0  0  0
  2 25  1  0  0  0
  2 93  1  0  0  0
  2 94  1  0  0  0
  3  4  1  0  0  0
  3 95  1  0  0  0
  3 96  1  0  0  0
  4  5  1  0  0  0
  4 97  1  0  0  0
  4 98  1  0  0  0
  5  6  1  0  0  0
  5 26  1  0  0  0
  5 99  1  0  0  0
  6 25  1  0  0  0
  6100  1  0  0  0
  6101  1  0  0  0
  7  8  2  0  0  0
  7 26  1  0  0  0
  7 29  1  0  0  0
  8  9  1  0  0  0
  8 22  1  0  0  0
  9 10  1  0  0  0
  9 27  2  0  0  0
 10 11  2  0  0  0
 10 15  1  0  0  0
 11 12  1  0  0  0
 11102  1  0  0  0
 12 13  2  0  0  0
 12103  1  0  0  0
 13 14  1  0  0  0
 13 31  1  0  0  0
 14 15  2  0  0  0
 14104  1  0  0  0
 15105  1  0  0  0
 16 17  2  0  0  0
 16 21  1  0  0  0
 16 31  1  0  0  0
 17 18  1  0  0  0
 17106  1  0  0  0
 18 19  2  0  0  0
 18107  1  0  0  0
 19 20  1  0  0  0
 19 24  1  0  0  0
 20 21  2  0  0  0
 20108  1  0  0  0
 21 23  1  0  0  0
 22 28  1  0  0  0
 22 32  2  0  0  0
 26 27  1  0  0  0
 28109  1  0  0  0
 28110  1  0  0  0
 29111  1  0  0  0
 29112  1  0  0  0
 33 34  1  0  0  0
 33 66  1  0  0  0
 33 70  2  0  0  0
 34 36  1  0  0  0
 34 59  1  0  0  0
 34113  1  0  0  0
 35 44  2  0  0  0
 35 45  1  0  0  0
 35 68  1  0  0  0
 36 56  1  0  0  0
 36114  1  0  0  0
 37 39  1  0  0  0
 37 47  1  0  0  0
 37 66  1  0  0  0
 37115  1  0  0  0
 38 43  2  0  0  0
 38 46  1  0  0  0
 38 47  1  0  0  0
 39 64  1  0  0  0
 39 67  2  0  0  0
 40 52  1  0  0  0
 40 53  2  0  0  0
 40 58  1  0  0  0
 41116  1  0  0  0
 41117  1  0  0  0
 41118  1  0  0  0
 41 48  1  0  0  0
 42 43  1  0  0  0
 42 66  1  0  0  0
 42119  1  0  0  0
 42120  1  0  0  0
 43 44  1  0  0  0
 44121  1  0  0  0
 45 46  2  0  0  0
 45122  1  0  0  0
 46123  1  0  0  0
 47124  1  0  0  0
 47125  1  0  0  0
 48 56  1  0  0  0
 48 65  1  0  0  0
 48126  1  0  0  0
 49 50  1  0  0  0
 49 53  1  0  0  0
 49 64  1  0  0  0
 49127  1  0  0  0
 50 51  1  0  0  0
 50128  1  0  0  0
 50129  1  0  0  0
 51 52  1  0  0  0
 51130  1  0  0  0
 51131  1  0  0  0
 52132  1  0  0  0
 52133  1  0  0  0
 53 54  1  0  0  0
 54 55  2  0  0  0
 54134  1  0  0  0
 55 57  1  0  0  0
 55135  1  0  0  0
 56 69  2  0  0  0
 57 58  2  0  0  0
 57136  1  0  0  0
 58137  1  0  0  0
 59 60  1  0  0  0
 59 61  1  0  0  0
 59 62  1  0  0  0
 60138  1  0  0  0
 60139  1  0  0  0
 60140  1  0  0  0
 61141  1  0  0  0
 61142  1  0  0  0
 61143  1  0  0  0
 62144  1  0  0  0
 62145  1  0  0  0
 62146  1  0  0  0
 63 65  1  0  0  0
 63147  1  0  0  0
 63148  1  0  0  0
 63149  1  0  0  0
 64150  1  0  0  0
 65151  1  0  0  0
 68 74  1  0  0  0
 71 72  2  0  0  0
 71 87  1  0  0  0
 71152  1  0  0  0
 72 73  1  0  0  0
 72 82  1  0  0  0
 73 83  1  0  0  0
 73 88  2  0  0  0
 74 87  2  0  0  0
 74 88  1  0  0  0
 75 76  1  0  0  0
 75 79  1  0  0  0
 75153  1  0  0  0
 75154  1  0  0  0
 76 91  1  0  0  0
 76155  1  0  0  0
 76156  1  0  0  0
 77 78  1  0  0  0
 77 91  1  0  0  0
 77157  1  0  0  0
 77158  1  0  0  0
 78 79  1  0  0  0
 78 84  1  0  0  0
 78159  1  0  0  0
 79 89  1  0  0  0
 79160  1  0  0  0
 80 83  1  0  0  0
 80161  1  0  0  0
 80162  1  0  0  0
 80163  1  0  0  0
 81 92  1  0  0  0
 81164  1  0  0  0
 81165  1  0  0  0
 81166  1  0  0  0
 82167  1  0  0  0
 82168  1  0  0  0
 82 91  1  0  0  0
 83169  1  0  0  0
 83170  1  0  0  0
 84 90  1  0  0  0
 84171  1  0  0  0
 84172  1  0  0  0
 85 86  1  0  0  0
 85 90  1  0  0  0
 85173  1  0  0  0
 85174  1  0  0  0
 86 92  1  0  0  0
 86175  1  0  0  0
 86176  1  0  0  0
 89177  1  0  0  0
 90178  1  0  0  0
 91179  1  0  0  0
 92180  1  0  0  0
 92181  1  0  0  0
M  CHG  2  91   1  92   1
M  ISO  4   1 100  68 101  74 101  89 100
M  END
> <chiral flag>
0

> <version>
0

> <s_m_source_file>
/data/baiqing/PycharmProjects/Reinvent-master-3.2/result/LINK_invent/BTK/process_docking_weight1_custom_sum_contain_oxygen_bond_distance_aromatic_linkinvent_7_9_3/rearranged_h_0196.sdf

> <i_m_source_file_index>
34

> <r_mmod_Potential_Energy-OPLS-2005>
-548.40380859375

> <r_mmod_Stretch_Energy-OPLS-2005>
56.2114143371582

> <r_mmod_Bend_Energy-OPLS-2005>
162.138809204102

> <r_mmod_Torsional_Energy-OPLS-2005>
246.442092895508

> <r_mmod_Improper_Torsional_Energy-OPLS-2005>
8.25746917724609

> <r_mmod_Van_der_Waal_Energy-OPLS-2005>
156.452774047852

> <r_mmod_Electrostatic_Energy-OPLS-2005>
-271.164398193359

> <r_mmod_Solvation_Energy-OPLS-2005>
-933.074096679688

> <b_mmod_Minimization_Converged-OPLS-2005>
0

> <r_mmod_RMS_Derivative-OPLS-2005>
4.35125064849854

$$$$
34
                    3D
 Structure written by MMmdl.
163172  0  0  1  0            999 V2000
  -30.6838  -14.4414   20.4554 C   0  0  0  0  0  0
  -30.4225  -12.2528   19.4025 C   0  0  0  0  0  0
  -29.4836  -12.4614   18.1941 C   0  0  0  0  0  0
  -28.0018  -12.3534   18.6131 C   0  0  0  0  0  0
  -27.6594  -13.1840   19.8787 C   0  0  2  0  0  0
  -28.7193  -12.9786   20.9883 C   0  0  0  0  0  0
  -25.2618  -13.8097   20.5756 C   0  0  0  0  0  0
  -24.1848  -13.0399   20.9216 C   0  0  0  0  0  0
  -24.6372  -11.6864   20.8782 C   0  0  0  0  0  0
  -23.9022  -10.4272   21.0432 C   0  0  0  0  0  0
  -24.3598   -9.4179   21.9204 C   0  0  0  0  0  0
  -23.6291   -8.2211   22.0750 C   0  0  0  0  0  0
  -22.4269   -8.0264   21.3540 C   0  0  0  0  0  0
  -21.9898   -9.0237   20.4632 C   0  0  0  0  0  0
  -22.7208  -10.2123   20.3055 C   0  0  0  0  0  0
  -21.6827   -6.0733   22.5281 C   0  0  0  0  0  0
  -21.3984   -6.5638   23.8219 C   0  0  0  0  0  0
  -21.3672   -5.6797   24.9191 C   0  0  0  0  0  0
  -21.6061   -4.3065   24.7241 C   0  0  0  0  0  0
  -21.8811   -3.8152   23.4361 C   0  0  0  0  0  0
  -21.9190   -4.6963   22.3411 C   0  0  0  0  0  0
  -22.7874  -13.5213   21.1887 C   0  0  0  0  0  0
  -22.1661   -4.2153   21.0986 F   0  0  0  0  0  0
  -21.5653   -3.4539   25.7746 F   0  0  0  0  0  0
  -30.0468  -13.2462   20.4113 N   0  0  0  0  0  0
  -26.3042  -12.9206   20.3496 N   0  0  0  0  0  0
  -25.9300  -11.6391   20.5859 N   0  0  0  0  0  0
  -22.0513  -12.8192   22.0423 N   0  0  0  0  0  0
  -25.4362  -15.1799   20.4136 N   0  0  0  0  0  0
  -31.8822  -14.6047   20.2063 O   0  0  0  0  0  0
  -21.6629   -6.8865   21.4237 O   0  0  0  0  0  0
  -22.3582  -14.5546   20.6755 O   0  0  0  0  0  0
  -24.6090  -31.8718   23.2129 C   0  0  0  0  0  0
  -25.9005  -32.4849   23.8420 C   0  0  1  0  0  0
  -27.2567  -27.4932   20.0747 C   0  0  0  0  0  0
  -25.5866  -33.8646   24.2351 N   0  0  0  0  0  0
  -23.3977  -30.4932   21.5498 C   0  0  2  0  0  0
  -24.8501  -28.9629   20.1162 C   0  0  0  0  0  0
  -22.7397  -29.4672   22.4977 C   0  0  0  0  0  0
  -18.0275  -28.1388   22.8492 C   0  0  0  0  0  0
  -24.1483  -36.7341   23.2634 C   0  0  0  0  0  0
  -25.9215  -30.8513   21.3602 C   0  0  0  0  0  0
  -26.0031  -29.4875   20.7130 C   0  0  0  0  0  0
  -27.2054  -28.7527   20.7019 C   0  0  0  0  0  0
  -26.0838  -26.9593   19.4937 C   0  0  0  0  0  0
  -24.8817  -27.6925   19.5100 C   0  0  0  0  0  0
  -23.6081  -29.8245   20.1645 C   0  0  0  0  0  0
  -25.4108  -36.3136   24.0337 C   0  0  1  0  0  0
  -20.5856  -28.3680   23.1320 C   0  0  2  0  0  0
  -20.6765  -26.9412   22.5426 C   0  0  0  0  0  0
  -19.5741  -26.6389   21.5222 C   0  0  0  0  0  0
  -18.1916  -26.7939   22.1622 C   0  0  0  0  0  0
  -19.1516  -28.8852   23.2907 C   0  0  0  0  0  0
  -18.9439  -30.1452   23.8919 C   0  0  0  0  0  0
  -17.6441  -30.6596   24.0567 C   0  0  0  0  0  0
  -25.9030  -34.9491   23.5145 C   0  0  0  0  0  0
  -16.5335  -29.9103   23.6312 C   0  0  0  0  0  0
  -16.7260  -28.6515   23.0339 C   0  0  0  0  0  0
  -26.4447  -31.6609   25.0726 C   0  0  0  0  0  0
  -25.3736  -31.3696   26.1478 C   0  0  0  0  0  0
  -27.0269  -30.3046   24.6079 C   0  0  0  0  0  0
  -27.6039  -32.4308   25.7490 C   0  0  0  0  0  0
  -27.5589  -37.1822   24.8456 C   0  0  0  0  0  0
  -21.4126  -29.3043   22.3731 N   0  0  0  0  0  0
  -26.4309  -37.3807   23.9397 N   0  0  0  0  0  0
  -24.6608  -31.0843   22.1011 N   0  0  0  0  0  0
  -23.4173  -28.8215   23.3028 O   0  0  0  0  0  0
  -28.4411  -26.8023   20.0780 O   0  0  0  0  0  0
  -26.5599  -34.8932   22.4715 O   0  0  0  0  0  0
  -23.5291  -32.1457   23.7538 O   0  0  0  0  0  0
  -29.6035  -16.0479   19.0075 C   0  0  0  0  0  0
  -30.0246  -16.8063   20.9338 C   0  0  0  0  0  0
  -30.4412  -23.0488   19.6602 C   0  0  0  0  0  0
  -28.4693  -23.5887   19.4383 C   0  0  0  0  0  0
  -29.9862  -17.4137   19.5345 C   0  0  0  0  0  0
  -29.1290  -22.2988   19.9072 C   0  0  1  0  0  0
  -29.0488  -18.5672   19.1966 C   0  0  0  0  0  0
  -28.7952  -21.0125   19.1614 C   0  0  0  0  0  0
  -30.1044  -25.4433   19.0041 C   0  0  0  0  0  0
  -28.9607  -26.4478   18.7999 C   0  0  0  0  0  0
  -29.8302  -15.4751   20.3447 N   0  0  0  0  0  0
  -29.6879  -24.2905   19.8374 N   0  3  2  0  0  0
  -29.5648  -19.8618   19.6715 N   0  3  0  0  0  0
  -31.4665  -12.3464   19.0936 H   0  0  0  0  0  0
  -30.3121  -11.2444   19.8061 H   0  0  0  0  0  0
  -29.6970  -11.7198   17.4242 H   0  0  0  0  0  0
  -29.6691  -13.4315   17.7321 H   0  0  0  0  0  0
  -27.7811  -11.3003   18.7924 H   0  0  0  0  0  0
  -27.3553  -12.6539   17.7865 H   0  0  0  0  0  0
  -27.6768  -14.2257   19.5781 H   0  0  0  0  0  0
  -28.6877  -11.9556   21.3652 H   0  0  0  0  0  0
  -28.5255  -13.6262   21.8458 H   0  0  0  0  0  0
  -25.2731   -9.5656   22.4811 H   0  0  0  0  0  0
  -24.0005   -7.4580   22.7431 H   0  0  0  0  0  0
  -21.0840   -8.8716   19.8923 H   0  0  0  0  0  0
  -22.3648  -10.9674   19.6184 H   0  0  0  0  0  0
  -21.1926   -7.6142   23.9724 H   0  0  0  0  0  0
  -21.1522   -6.0530   25.9101 H   0  0  0  0  0  0
  -22.0579   -2.7606   23.2849 H   0  0  0  0  0  0
  -22.4078  -11.9816   22.4784 H   0  0  0  0  0  0
  -21.1133  -13.1228   22.2637 H   0  0  0  0  0  0
  -24.6743  -15.8396   20.5312 H   0  0  0  0  0  0
  -26.3068  -15.6208   20.1464 H   0  0  0  0  0  0
  -26.7084  -32.5581   23.1202 H   0  0  0  0  0  0
  -24.9983  -33.9822   25.0465 H   0  0  0  0  0  0
  -22.6847  -31.3079   21.4116 H   0  0  0  0  0  0
  -23.3733  -35.9683   23.3314 H   0  0  0  0  0  0
  -24.3577  -36.8942   22.2046 H   0  0  0  0  0  0
  -23.7250  -37.6557   23.6641 H   0  0  0  0  0  0
  -26.0263  -31.6180   20.5917 H   0  0  0  0  0  0
  -26.8128  -30.9091   21.9745 H   0  0  0  0  0  0
  -28.0985  -29.1590   21.1560 H   0  0  0  0  0  0
  -26.0914  -25.9795   19.0375 H   0  0  0  0  0  0
  -23.9910  -27.2765   19.0578 H   0  0  0  0  0  0
  -23.7167  -30.6021   19.4076 H   0  0  0  0  0  0
  -22.7341  -29.2433   19.8646 H   0  0  0  0  0  0
  -25.1287  -36.2017   25.0834 H   0  0  0  0  0  0
  -20.9959  -28.3250   24.1435 H   0  0  0  0  0  0
  -20.5688  -26.2282   23.3615 H   0  0  0  0  0  0
  -21.6633  -26.7471   22.1195 H   0  0  0  0  0  0
  -19.6894  -25.6300   21.1249 H   0  0  0  0  0  0
  -19.6688  -27.3204   20.6764 H   0  0  0  0  0  0
  -17.4194  -26.6701   21.4011 H   0  0  0  0  0  0
  -18.0294  -26.0075   22.9024 H   0  0  0  0  0  0
  -19.7928  -30.7270   24.2288 H   0  0  0  0  0  0
  -17.5002  -31.6269   24.5173 H   0  0  0  0  0  0
  -15.5341  -30.3015   23.7625 H   0  0  0  0  0  0
  -15.8653  -28.0852   22.7030 H   0  0  0  0  0  0
  -24.5859  -30.7112   25.7798 H   0  0  0  0  0  0
  -24.8981  -32.2858   26.5006 H   0  0  0  0  0  0
  -25.8071  -30.8779   27.0195 H   0  0  0  0  0  0
  -26.2808  -29.6822   24.1122 H   0  0  0  0  0  0
  -27.4031  -29.7258   25.4531 H   0  0  0  0  0  0
  -27.8647  -30.4366   23.9226 H   0  0  0  0  0  0
  -27.2656  -33.3578   26.2146 H   0  0  0  0  0  0
  -28.3811  -32.6935   25.0301 H   0  0  0  0  0  0
  -28.0752  -31.8392   26.5346 H   0  0  0  0  0  0
  -28.2603  -38.0125   24.7505 H   0  0  0  0  0  0
  -28.1094  -36.2655   24.6283 H   0  0  0  0  0  0
  -27.2301  -37.1471   25.8858 H   0  0  0  0  0  0
  -20.9278  -29.8759   21.6954 H   0  0  0  0  0  0
  -26.0200  -38.2889   24.1393 H   0  0  0  0  0  0
  -30.2769  -15.6962   18.2207 H   0  0  0  0  0  0
  -28.5706  -15.9999   18.6618 H   0  0  0  0  0  0
  -29.1961  -17.1200   21.5725 H   0  0  0  0  0  0
  -30.9842  -16.9515   21.4350 H   0  0  0  0  0  0
  -30.8320  -22.9118   18.6493 H   0  0  0  0  0  0
  -31.2140  -22.8890   20.4143 H   0  0  0  0  0  0
  -27.5837  -23.8771   20.0069 H   0  0  0  0  0  0
  -28.2856  -23.6072   18.3619 H   0  0  0  0  0  0
  -31.0061  -17.6233   19.2034 H   0  0  0  0  0  0
  -28.9635  -22.1863   20.9810 H   0  0  0  0  0  0
  -28.0608  -18.3923   19.6262 H   0  0  0  0  0  0
  -28.9116  -18.6178   18.1136 H   0  0  0  0  0  0
  -28.9770  -21.1255   18.0907 H   0  0  0  0  0  0
  -27.7292  -20.8062   19.2669 H   0  0  0  0  0  0
  -30.9492  -25.9273   19.4955 H   0  0  0  0  0  0
  -30.4603  -25.1061   18.0311 H   0  0  0  0  0  0
  -28.1991  -26.0202   18.1466 H   0  0  0  0  0  0
  -29.3414  -27.3392   18.2977 H   0  0  0  0  0  0
  -29.6325  -24.5450   20.8133 H   0  0  0  0  0  0
  -30.5235  -19.9610   19.3781 H   0  0  0  0  0  0
  -29.5449  -19.8649   20.6786 H   0  0  0  0  0  0
  1 25  1  0  0  0
  1 30  2  0  0  0
  1 81  1  0  0  0
  2  3  1  0  0  0
  2 25  1  0  0  0
  2 84  1  0  0  0
  2 85  1  0  0  0
  3  4  1  0  0  0
  3 86  1  0  0  0
  3 87  1  0  0  0
  4  5  1  0  0  0
  4 88  1  0  0  0
  4 89  1  0  0  0
  5  6  1  0  0  0
  5 26  1  0  0  0
  5 90  1  0  0  0
  6 25  1  0  0  0
  6 91  1  0  0  0
  6 92  1  0  0  0
  7  8  2  0  0  0
  7 26  1  0  0  0
  7 29  1  0  0  0
  8  9  1  0  0  0
  8 22  1  0  0  0
  9 10  1  0  0  0
  9 27  2  0  0  0
 10 11  2  0  0  0
 10 15  1  0  0  0
 11 12  1  0  0  0
 11 93  1  0  0  0
 12 13  2  0  0  0
 12 94  1  0  0  0
 13 14  1  0  0  0
 13 31  1  0  0  0
 14 15  2  0  0  0
 14 95  1  0  0  0
 15 96  1  0  0  0
 16 17  2  0  0  0
 16 21  1  0  0  0
 16 31  1  0  0  0
 17 18  1  0  0  0
 17 97  1  0  0  0
 18 19  2  0  0  0
 18 98  1  0  0  0
 19 20  1  0  0  0
 19 24  1  0  0  0
 20 21  2  0  0  0
 20 99  1  0  0  0
 21 23  1  0  0  0
 22 28  1  0  0  0
 22 32  2  0  0  0
 26 27  1  0  0  0
 28100  1  0  0  0
 28101  1  0  0  0
 29102  1  0  0  0
 29103  1  0  0  0
 33 34  1  0  0  0
 33 66  1  0  0  0
 33 70  2  0  0  0
 34 36  1  0  0  0
 34 59  1  0  0  0
 34104  1  0  0  0
 35 44  2  0  0  0
 35 45  1  0  0  0
 35 68  1  0  0  0
 36 56  1  0  0  0
 36105  1  0  0  0
 37 39  1  0  0  0
 37 47  1  0  0  0
 37 66  1  0  0  0
 37106  1  0  0  0
 38 43  2  0  0  0
 38 46  1  0  0  0
 38 47  1  0  0  0
 39 64  1  0  0  0
 39 67  2  0  0  0
 40 52  1  0  0  0
 40 53  2  0  0  0
 40 58  1  0  0  0
 41107  1  0  0  0
 41108  1  0  0  0
 41109  1  0  0  0
 41 48  1  0  0  0
 42 43  1  0  0  0
 42 66  1  0  0  0
 42110  1  0  0  0
 42111  1  0  0  0
 43 44  1  0  0  0
 44112  1  0  0  0
 45 46  2  0  0  0
 45113  1  0  0  0
 46114  1  0  0  0
 47115  1  0  0  0
 47116  1  0  0  0
 48 56  1  0  0  0
 48 65  1  0  0  0
 48117  1  0  0  0
 49 50  1  0  0  0
 49 53  1  0  0  0
 49 64  1  0  0  0
 49118  1  0  0  0
 50 51  1  0  0  0
 50119  1  0  0  0
 50120  1  0  0  0
 51 52  1  0  0  0
 51121  1  0  0  0
 51122  1  0  0  0
 52123  1  0  0  0
 52124  1  0  0  0
 53 54  1  0  0  0
 54 55  2  0  0  0
 54125  1  0  0  0
 55 57  1  0  0  0
 55126  1  0  0  0
 56 69  2  0  0  0
 57 58  2  0  0  0
 57127  1  0  0  0
 58128  1  0  0  0
 59 60  1  0  0  0
 59 61  1  0  0  0
 59 62  1  0  0  0
 60129  1  0  0  0
 60130  1  0  0  0
 60131  1  0  0  0
 61132  1  0  0  0
 61133  1  0  0  0
 61134  1  0  0  0
 62135  1  0  0  0
 62136  1  0  0  0
 62137  1  0  0  0
 63 65  1  0  0  0
 63138  1  0  0  0
 63139  1  0  0  0
 63140  1  0  0  0
 64141  1  0  0  0
 65142  1  0  0  0
 68 80  1  0  0  0
 71 75  1  0  0  0
 71 81  1  0  0  0
 71143  1  0  0  0
 71144  1  0  0  0
 72 75  1  0  0  0
 72 81  1  0  0  0
 72145  1  0  0  0
 72146  1  0  0  0
 73 76  1  0  0  0
 73 82  1  0  0  0
 73147  1  0  0  0
 73148  1  0  0  0
 74 76  1  0  0  0
 74 82  1  0  0  0
 74149  1  0  0  0
 74150  1  0  0  0
 75 77  1  0  0  0
 75151  1  0  0  0
 76 78  1  0  0  0
 76152  1  0  0  0
 77 83  1  0  0  0
 77153  1  0  0  0
 77154  1  0  0  0
 78 83  1  0  0  0
 78155  1  0  0  0
 78156  1  0  0  0
 79 80  1  0  0  0
 79157  1  0  0  0
 79158  1  0  0  0
 79 82  1  0  0  0
 80159  1  0  0  0
 80160  1  0  0  0
 82161  1  0  0  0
 83162  1  0  0  0
 83163  1  0  0  0
M  CHG  2  82   1  83   1
M  ISO  4   1 100  68 101  80 101  81 100
M  END
> <chiral flag>
0

> <version>
0

> <s_m_source_file>
/data/baiqing/PycharmProjects/Reinvent-master-3.2/result/LINK_invent/BTK/process_docking_weight1_custom_sum_contain_oxygen_bond_distance_aromatic_linkinvent_7_9_3/rearranged_h_0196.sdf

> <i_m_source_file_index>
35

> <r_mmod_Potential_Energy-OPLS-2005>
-196.447799682617

> <r_mmod_Stretch_Energy-OPLS-2005>
31.0756893157959

> <r_mmod_Bend_Energy-OPLS-2005>
105.38663482666

> <r_mmod_Torsional_Energy-OPLS-2005>
357.318756103516

> <r_mmod_Improper_Torsional_Energy-OPLS-2005>
19.5741596221924

> <r_mmod_Van_der_Waal_Energy-OPLS-2005>
131.158111572266

> <r_mmod_Electrostatic_Energy-OPLS-2005>
115.13663482666

> <r_mmod_Solvation_Energy-OPLS-2005>
-973.445495605469

> <b_mmod_Minimization_Converged-OPLS-2005>
0

> <r_mmod_RMS_Derivative-OPLS-2005>
3.03943204879761

$$$$
35
                    3D
 Structure written by MMmdl.
180190  0  0  1  0            999 V2000
  -30.7946  -14.3961   20.5268 C   0  0  0  0  0  0
  -30.4216  -12.2608   19.4019 C   0  0  0  0  0  0
  -29.4940  -12.4789   18.1926 C   0  0  0  0  0  0
  -28.0111  -12.3662   18.6065 C   0  0  0  0  0  0
  -27.6671  -13.2106   19.8627 C   0  0  2  0  0  0
  -28.7228  -13.0249   20.9758 C   0  0  0  0  0  0
  -25.2709  -13.8156   20.5789 C   0  0  0  0  0  0
  -24.1909  -13.0417   20.9183 C   0  0  0  0  0  0
  -24.6468  -11.6883   20.8698 C   0  0  0  0  0  0
  -23.9132  -10.4270   21.0359 C   0  0  0  0  0  0
  -24.3685   -9.4197   21.9147 C   0  0  0  0  0  0
  -23.6346   -8.2230   22.0714 C   0  0  0  0  0  0
  -22.4294   -8.0294   21.3536 C   0  0  0  0  0  0
  -21.9878   -9.0301   20.4718 C   0  0  0  0  0  0
  -22.7238  -10.2154   20.3098 C   0  0  0  0  0  0
  -21.6878   -6.0775   22.5297 C   0  0  0  0  0  0
  -21.3995   -6.5606   23.8258 C   0  0  0  0  0  0
  -21.3670   -5.6697   24.9171 C   0  0  0  0  0  0
  -21.6087   -4.2975   24.7176 C   0  0  0  0  0  0
  -21.8839   -3.8124   23.4266 C   0  0  0  0  0  0
  -21.9183   -4.7010   22.3374 C   0  0  0  0  0  0
  -22.7926  -13.5130   21.1810 C   0  0  0  0  0  0
  -22.1649   -4.2246   21.0950 F   0  0  0  0  0  0
  -21.5663   -3.4420   25.7670 F   0  0  0  0  0  0
  -30.0598  -13.2608   20.4068 N   0  0  0  0  0  0
  -26.3126  -12.9322   20.3355 N   0  0  0  0  0  0
  -25.9403  -11.6491   20.5749 N   0  0  0  0  0  0
  -22.0652  -12.7926   22.0297 N   0  0  0  0  0  0
  -25.4565  -15.1858   20.4343 N   0  0  0  0  0  0
  -31.9801  -14.4866   20.1959 O   0  0  0  0  0  0
  -21.6594   -6.8934   21.4282 O   0  0  0  0  0  0
  -22.3581  -14.5429   20.6715 O   0  0  0  0  0  0
  -24.6158  -31.8716   23.2109 C   0  0  0  0  0  0
  -25.9039  -32.4874   23.8408 C   0  0  1  0  0  0
  -27.2000  -27.4235   20.0733 C   0  0  0  0  0  0
  -25.5880  -33.8653   24.2336 N   0  0  0  0  0  0
  -23.4035  -30.4964   21.5479 C   0  0  2  0  0  0
  -24.8424  -28.9676   20.1069 C   0  0  0  0  0  0
  -22.7415  -29.4670   22.4930 C   0  0  0  0  0  0
  -18.0278  -28.1360   22.8484 C   0  0  0  0  0  0
  -24.1487  -36.7334   23.2641 C   0  0  0  0  0  0
  -25.9376  -30.8231   21.3713 C   0  0  0  0  0  0
  -26.0069  -29.4609   20.7115 C   0  0  0  0  0  0
  -27.1927  -28.6903   20.7042 C   0  0  0  0  0  0
  -26.0341  -26.9655   19.4344 C   0  0  0  0  0  0
  -24.8491  -27.7162   19.4698 C   0  0  0  0  0  0
  -23.6107  -29.8405   20.1594 C   0  0  0  0  0  0
  -25.4125  -36.3161   24.0343 C   0  0  1  0  0  0
  -20.5872  -28.3666   23.1280 C   0  0  2  0  0  0
  -20.6770  -26.9406   22.5373 C   0  0  0  0  0  0
  -19.5731  -26.6376   21.5178 C   0  0  0  0  0  0
  -18.1919  -26.7909   22.1608 C   0  0  0  0  0  0
  -19.1535  -28.8826   23.2884 C   0  0  0  0  0  0
  -18.9457  -30.1434   23.8902 C   0  0  0  0  0  0
  -17.6461  -30.6576   24.0559 C   0  0  0  0  0  0
  -25.9026  -34.9517   23.5144 C   0  0  0  0  0  0
  -16.5348  -29.9077   23.6332 C   0  0  0  0  0  0
  -16.7268  -28.6489   23.0352 C   0  0  0  0  0  0
  -26.4451  -31.6659   25.0742 C   0  0  0  0  0  0
  -25.3737  -31.3730   26.1493 C   0  0  0  0  0  0
  -27.0303  -30.3130   24.6171 C   0  0  0  0  0  0
  -27.6017  -32.4377   25.7512 C   0  0  0  0  0  0
  -27.5607  -37.1830   24.8478 C   0  0  0  0  0  0
  -21.4129  -29.3046   22.3682 N   0  0  0  0  0  0
  -26.4339  -37.3822   23.9398 N   0  0  0  0  0  0
  -24.6703  -31.0810   22.1008 N   0  0  0  0  0  0
  -23.4207  -28.8203   23.2957 O   0  0  0  0  0  0
  -28.3059  -26.6041   20.0961 O   0  0  0  0  0  0
  -26.5591  -34.8964   22.4703 O   0  0  0  0  0  0
  -23.5332  -32.1440   23.7475 O   0  0  0  0  0  0
  -29.1092  -25.4290   22.0524 C   0  0  0  0  0  0
  -27.9167  -23.6104   22.8894 C   0  0  0  0  0  0
  -27.0743  -23.6259   21.7273 C   0  0  0  0  0  0
  -28.2394  -25.5139   20.9524 C   0  0  0  0  0  0
  -28.8797  -21.7399   24.4102 C   0  0  0  0  0  0
  -29.8733  -16.2091   19.3421 C   0  0  0  0  0  0
  -30.4273  -16.3968   21.7832 C   0  0  0  0  0  0
  -28.2913  -20.8060   25.4860 C   0  0  0  0  0  0
  -30.5705  -17.5765   19.2737 C   0  0  0  0  0  0
  -30.0011  -17.8826   21.6712 C   0  0  0  0  0  0
  -26.4940  -22.0233   24.5596 C   0  0  0  0  0  0
  -27.7782  -22.7744   24.1753 C   0  0  2  0  0  0
  -25.8055  -22.7735   21.4968 C   0  0  0  0  0  0
  -28.1168  -20.1353   20.8212 C   0  0  0  0  0  0
  -28.7509  -19.1117   19.8472 C   0  0  0  0  0  0
  -26.8706  -20.8238   20.2193 C   0  0  0  0  0  0
  -28.9530  -24.4851   23.0036 N   0  0  0  0  0  0
  -27.2619  -24.5781   20.7694 N   0  0  0  0  0  0
  -30.0870  -15.5297   20.6339 N   0  0  0  0  0  0
  -26.9106  -21.2646   25.7451 N   0  3  0  0  0  0
  -30.0350  -18.4943   20.3029 N   0  3  0  0  0  0
  -25.9584  -21.3090   21.2723 N   0  3  0  0  0  0
  -31.4668  -12.3380   19.0870 H   0  0  0  0  0  0
  -30.2957  -11.2560   19.8114 H   0  0  0  0  0  0
  -29.7083  -11.7435   17.4145 H   0  0  0  0  0  0
  -29.6967  -13.4515   17.7457 H   0  0  0  0  0  0
  -27.8056  -11.3115   18.7917 H   0  0  0  0  0  0
  -27.3652  -12.6496   17.7726 H   0  0  0  0  0  0
  -27.7017  -14.2515   19.5460 H   0  0  0  0  0  0
  -28.6658  -12.0118   21.3741 H   0  0  0  0  0  0
  -28.5249  -13.7055   21.8050 H   0  0  0  0  0  0
  -25.2825   -9.5648   22.4762 H   0  0  0  0  0  0
  -24.0095   -7.4632   22.7418 H   0  0  0  0  0  0
  -21.0724   -8.8870   19.9173 H   0  0  0  0  0  0
  -22.3644  -10.9716   19.6273 H   0  0  0  0  0  0
  -21.1937   -7.6089   23.9862 H   0  0  0  0  0  0
  -21.1508   -6.0327   25.9106 H   0  0  0  0  0  0
  -22.0609   -2.7612   23.2680 H   0  0  0  0  0  0
  -21.1114  -13.0525   22.2315 H   0  0  0  0  0  0
  -22.4582  -11.9725   22.4658 H   0  0  0  0  0  0
  -24.7049  -15.8527   20.5494 H   0  0  0  0  0  0
  -26.3352  -15.6100   20.1753 H   0  0  0  0  0  0
  -26.7069  -32.5602   23.1112 H   0  0  0  0  0  0
  -25.0059  -33.9810   25.0511 H   0  0  0  0  0  0
  -22.6949  -31.3171   21.4110 H   0  0  0  0  0  0
  -23.3776  -35.9631   23.3316 H   0  0  0  0  0  0
  -24.3558  -36.8939   22.2053 H   0  0  0  0  0  0
  -23.7206  -37.6527   23.6642 H   0  0  0  0  0  0
  -26.0698  -31.5917   20.6065 H   0  0  0  0  0  0
  -26.8195  -30.8689   21.9977 H   0  0  0  0  0  0
  -28.0961  -29.0547   21.1743 H   0  0  0  0  0  0
  -26.0307  -26.0110   18.9262 H   0  0  0  0  0  0
  -23.9531  -27.3324   18.9972 H   0  0  0  0  0  0
  -23.7241  -30.6219   19.4062 H   0  0  0  0  0  0
  -22.7286  -29.2699   19.8585 H   0  0  0  0  0  0
  -25.1297  -36.2032   25.0839 H   0  0  0  0  0  0
  -21.0005  -28.3243   24.1382 H   0  0  0  0  0  0
  -20.5688  -26.2277   23.3564 H   0  0  0  0  0  0
  -21.6638  -26.7439   22.1155 H   0  0  0  0  0  0
  -19.6901  -25.6289   21.1209 H   0  0  0  0  0  0
  -19.6677  -27.3174   20.6714 H   0  0  0  0  0  0
  -17.4191  -26.6646   21.4031 H   0  0  0  0  0  0
  -18.0351  -26.0056   22.9024 H   0  0  0  0  0  0
  -19.7934  -30.7234   24.2303 H   0  0  0  0  0  0
  -17.5015  -31.6270   24.5120 H   0  0  0  0  0  0
  -15.5354  -30.2974   23.7643 H   0  0  0  0  0  0
  -15.8662  -28.0793   22.7080 H   0  0  0  0  0  0
  -24.5858  -30.7146   25.7796 H   0  0  0  0  0  0
  -24.8985  -32.2881   26.5082 H   0  0  0  0  0  0
  -25.8101  -30.8788   27.0195 H   0  0  0  0  0  0
  -26.2855  -29.6849   24.1276 H   0  0  0  0  0  0
  -27.4090  -29.7416   25.4647 H   0  0  0  0  0  0
  -27.8705  -30.4444   23.9334 H   0  0  0  0  0  0
  -27.2628  -33.3623   26.2209 H   0  0  0  0  0  0
  -28.3787  -32.7049   25.0326 H   0  0  0  0  0  0
  -28.0766  -31.8478   26.5366 H   0  0  0  0  0  0
  -28.2646  -38.0105   24.7520 H   0  0  0  0  0  0
  -28.1080  -36.2645   24.6328 H   0  0  0  0  0  0
  -27.2317  -37.1512   25.8875 H   0  0  0  0  0  0
  -20.9256  -29.8855   21.6976 H   0  0  0  0  0  0
  -26.0256  -38.2916   24.1351 H   0  0  0  0  0  0
  -29.8864  -26.1628   22.2022 H   0  0  0  0  0  0
  -29.0960  -21.1839   23.4998 H   0  0  0  0  0  0
  -29.8127  -22.2098   24.7287 H   0  0  0  0  0  0
  -30.2386  -15.6117   18.5031 H   0  0  0  0  0  0
  -28.8022  -16.3047   19.1744 H   0  0  0  0  0  0
  -31.5029  -16.3596   21.9736 H   0  0  0  0  0  0
  -29.9782  -15.9578   22.6783 H   0  0  0  0  0  0
  -28.8760  -20.8399   26.4061 H   0  0  0  0  0  0
  -28.2842  -19.7772   25.1291 H   0  0  0  0  0  0
  -30.4553  -18.0110   18.2749 H   0  0  0  0  0  0
  -31.6487  -17.4563   19.4152 H   0  0  0  0  0  0
  -30.6360  -18.4951   22.3128 H   0  0  0  0  0  0
  -29.0110  -17.9374   22.1103 H   0  0  0  0  0  0
  -26.2018  -21.2793   23.8193 H   0  0  0  0  0  0
  -25.6449  -22.6772   24.7641 H   0  0  0  0  0  0
  -27.8826  -23.5159   24.9704 H   0  0  0  0  0  0
  -25.2676  -23.1623   20.6282 H   0  0  0  0  0  0
  -25.1161  -22.9282   22.3283 H   0  0  0  0  0  0
  -28.8523  -20.8852   21.1191 H   0  0  0  0  0  0
  -27.8027  -19.6170   21.7274 H   0  0  0  0  0  0
  -28.9317  -19.5997   18.8888 H   0  0  0  0  0  0
  -28.0216  -18.3287   19.6437 H   0  0  0  0  0  0
  -26.3032  -20.0765   19.6570 H   0  0  0  0  0  0
  -27.1362  -21.6058   19.5058 H   0  0  0  0  0  0
  -26.9312  -21.9054   26.5218 H   0  0  0  0  0  0
  -26.2843  -20.5109   25.9843 H   0  0  0  0  0  0
  -30.7116  -19.2471   20.3345 H   0  0  0  0  0  0
  -25.0434  -20.9842   20.9963 H   0  0  0  0  0  0
  -26.1382  -20.8232   22.1302 H   0  0  0  0  0  0
  1 25  1  0  0  0
  1 30  2  0  0  0
  1 89  1  0  0  0
  2  3  1  0  0  0
  2 25  1  0  0  0
  2 93  1  0  0  0
  2 94  1  0  0  0
  3  4  1  0  0  0
  3 95  1  0  0  0
  3 96  1  0  0  0
  4  5  1  0  0  0
  4 97  1  0  0  0
  4 98  1  0  0  0
  5  6  1  0  0  0
  5 26  1  0  0  0
  5 99  1  0  0  0
  6 25  1  0  0  0
  6100  1  0  0  0
  6101  1  0  0  0
  7  8  2  0  0  0
  7 26  1  0  0  0
  7 29  1  0  0  0
  8  9  1  0  0  0
  8 22  1  0  0  0
  9 10  1  0  0  0
  9 27  2  0  0  0
 10 11  2  0  0  0
 10 15  1  0  0  0
 11 12  1  0  0  0
 11102  1  0  0  0
 12 13  2  0  0  0
 12103  1  0  0  0
 13 14  1  0  0  0
 13 31  1  0  0  0
 14 15  2  0  0  0
 14104  1  0  0  0
 15105  1  0  0  0
 16 17  2  0  0  0
 16 21  1  0  0  0
 16 31  1  0  0  0
 17 18  1  0  0  0
 17106  1  0  0  0
 18 19  2  0  0  0
 18107  1  0  0  0
 19 20  1  0  0  0
 19 24  1  0  0  0
 20 21  2  0  0  0
 20108  1  0  0  0
 21 23  1  0  0  0
 22 28  1  0  0  0
 22 32  2  0  0  0
 26 27  1  0  0  0
 28109  1  0  0  0
 28110  1  0  0  0
 29111  1  0  0  0
 29112  1  0  0  0
 33 34  1  0  0  0
 33 66  1  0  0  0
 33 70  2  0  0  0
 34 36  1  0  0  0
 34 59  1  0  0  0
 34113  1  0  0  0
 35 44  2  0  0  0
 35 45  1  0  0  0
 35 68  1  0  0  0
 36 56  1  0  0  0
 36114  1  0  0  0
 37 39  1  0  0  0
 37 47  1  0  0  0
 37 66  1  0  0  0
 37115  1  0  0  0
 38 43  2  0  0  0
 38 46  1  0  0  0
 38 47  1  0  0  0
 39 64  1  0  0  0
 39 67  2  0  0  0
 40 52  1  0  0  0
 40 53  2  0  0  0
 40 58  1  0  0  0
 41116  1  0  0  0
 41117  1  0  0  0
 41118  1  0  0  0
 41 48  1  0  0  0
 42 43  1  0  0  0
 42 66  1  0  0  0
 42119  1  0  0  0
 42120  1  0  0  0
 43 44  1  0  0  0
 44121  1  0  0  0
 45 46  2  0  0  0
 45122  1  0  0  0
 46123  1  0  0  0
 47124  1  0  0  0
 47125  1  0  0  0
 48 56  1  0  0  0
 48 65  1  0  0  0
 48126  1  0  0  0
 49 50  1  0  0  0
 49 53  1  0  0  0
 49 64  1  0  0  0
 49127  1  0  0  0
 50 51  1  0  0  0
 50128  1  0  0  0
 50129  1  0  0  0
 51 52  1  0  0  0
 51130  1  0  0  0
 51131  1  0  0  0
 52132  1  0  0  0
 52133  1  0  0  0
 53 54  1  0  0  0
 54 55  2  0  0  0
 54134  1  0  0  0
 55 57  1  0  0  0
 55135  1  0  0  0
 56 69  2  0  0  0
 57 58  2  0  0  0
 57136  1  0  0  0
 58137  1  0  0  0
 59 60  1  0  0  0
 59 61  1  0  0  0
 59 62  1  0  0  0
 60138  1  0  0  0
 60139  1  0  0  0
 60140  1  0  0  0
 61141  1  0  0  0
 61142  1  0  0  0
 61143  1  0  0  0
 62144  1  0  0  0
 62145  1  0  0  0
 62146  1  0  0  0
 63 65  1  0  0  0
 63147  1  0  0  0
 63148  1  0  0  0
 63149  1  0  0  0
 64150  1  0  0  0
 65151  1  0  0  0
 68 74  1  0  0  0
 71 74  2  0  0  0
 71 87  1  0  0  0
 71152  1  0  0  0
 72 73  1  0  0  0
 72 87  2  0  0  0
 72 82  1  0  0  0
 73 83  1  0  0  0
 73 88  2  0  0  0
 74 88  1  0  0  0
 75 78  1  0  0  0
 75 82  1  0  0  0
 75153  1  0  0  0
 75154  1  0  0  0
 76 79  1  0  0  0
 76 89  1  0  0  0
 76155  1  0  0  0
 76156  1  0  0  0
 77 80  1  0  0  0
 77 89  1  0  0  0
 77157  1  0  0  0
 77158  1  0  0  0
 78 90  1  0  0  0
 78159  1  0  0  0
 78160  1  0  0  0
 79 91  1  0  0  0
 79161  1  0  0  0
 79162  1  0  0  0
 80 91  1  0  0  0
 80163  1  0  0  0
 80164  1  0  0  0
 81 82  1  0  0  0
 81 90  1  0  0  0
 81165  1  0  0  0
 81166  1  0  0  0
 82167  1  0  0  0
 83 92  1  0  0  0
 83168  1  0  0  0
 83169  1  0  0  0
 84 85  1  0  0  0
 84 86  1  0  0  0
 84170  1  0  0  0
 84171  1  0  0  0
 85172  1  0  0  0
 85173  1  0  0  0
 85 91  1  0  0  0
 86 92  1  0  0  0
 86174  1  0  0  0
 86175  1  0  0  0
 90176  1  0  0  0
 90177  1  0  0  0
 91178  1  0  0  0
 92179  1  0  0  0
 92180  1  0  0  0
M  CHG  3  90   1  91   1  92   1
M  ISO  4   1 100  68 101  74 101  89 100
M  END
> <chiral flag>
0

> <version>
0

> <s_m_source_file>
/data/baiqing/PycharmProjects/Reinvent-master-3.2/result/LINK_invent/BTK/process_docking_weight1_custom_sum_contain_oxygen_bond_distance_aromatic_linkinvent_7_9_3/rearranged_h_0196.sdf

> <i_m_source_file_index>
36

> <r_mmod_Potential_Energy-OPLS-2005>
-66.4297943115234

> <r_mmod_Stretch_Energy-OPLS-2005>
46.1042823791504

> <r_mmod_Bend_Energy-OPLS-2005>
186.429016113281

> <r_mmod_Torsional_Energy-OPLS-2005>
484.304718017578

> <r_mmod_Improper_Torsional_Energy-OPLS-2005>
15.4334869384766

> <r_mmod_Van_der_Waal_Energy-OPLS-2005>
158.263488769531

> <r_mmod_Electrostatic_Energy-OPLS-2005>
753.294921875

> <r_mmod_Solvation_Energy-OPLS-2005>
-1736.01123046875

> <b_mmod_Minimization_Converged-OPLS-2005>
0

> <r_mmod_RMS_Derivative-OPLS-2005>
7.75026273727417

$$$$
36
                    3D
 Structure written by MMmdl.
164173  0  0  1  0            999 V2000
  -30.7333  -14.5312   20.6466 C   0  0  0  0  0  0
  -30.4131  -12.3645   19.4592 C   0  0  0  0  0  0
  -29.4884  -12.5161   18.2341 C   0  0  0  0  0  0
  -28.0165  -12.3478   18.6461 C   0  0  0  0  0  0
  -27.6476  -13.2194   19.8696 C   0  0  2  0  0  0
  -28.6790  -13.0638   21.0026 C   0  0  0  0  0  0
  -25.2500  -13.8244   20.5714 C   0  0  0  0  0  0
  -24.1753  -13.0501   20.9291 C   0  0  0  0  0  0
  -24.6324  -11.6983   20.8773 C   0  0  0  0  0  0
  -23.9009  -10.4318   21.0368 C   0  0  0  0  0  0
  -24.3583   -9.4243   21.9143 C   0  0  0  0  0  0
  -23.6289   -8.2254   22.0712 C   0  0  0  0  0  0
  -22.4254   -8.0266   21.3529 C   0  0  0  0  0  0
  -21.9883   -9.0213   20.4597 C   0  0  0  0  0  0
  -22.7193  -10.2119   20.3018 C   0  0  0  0  0  0
  -21.6866   -6.0708   22.5289 C   0  0  0  0  0  0
  -21.4012   -6.5580   23.8232 C   0  0  0  0  0  0
  -21.3672   -5.6713   24.9192 C   0  0  0  0  0  0
  -21.6070   -4.2985   24.7216 C   0  0  0  0  0  0
  -21.8835   -3.8096   23.4336 C   0  0  0  0  0  0
  -21.9207   -4.6927   22.3402 C   0  0  0  0  0  0
  -22.7768  -13.5293   21.1928 C   0  0  0  0  0  0
  -22.1672   -4.2120   21.0979 F   0  0  0  0  0  0
  -21.5651   -3.4468   25.7738 F   0  0  0  0  0  0
  -30.0232  -13.3665   20.4706 N   0  0  0  0  0  0
  -26.2893  -12.9406   20.3312 N   0  0  0  0  0  0
  -25.9245  -11.6571   20.5799 N   0  0  0  0  0  0
  -22.0348  -12.8267   22.0475 N   0  0  0  0  0  0
  -25.4303  -15.1926   20.4101 N   0  0  0  0  0  0
  -31.7560  -14.7684   19.9967 O   0  0  0  0  0  0
  -21.6650   -6.8826   21.4239 O   0  0  0  0  0  0
  -22.3472  -14.5571   20.6751 O   0  0  0  0  0  0
  -24.6376  -31.8533   23.1897 C   0  0  0  0  0  0
  -25.9223  -32.4713   23.8244 C   0  0  1  0  0  0
  -27.2398  -27.3100   20.0717 C   0  0  0  0  0  0
  -25.6035  -33.8508   24.2187 N   0  0  0  0  0  0
  -23.4304  -30.4687   21.5369 C   0  0  2  0  0  0
  -24.8743  -28.9118   20.1084 C   0  0  0  0  0  0
  -22.7511  -29.4570   22.4927 C   0  0  0  0  0  0
  -18.0306  -28.1362   22.8453 C   0  0  0  0  0  0
  -24.1492  -36.7262   23.2628 C   0  0  0  0  0  0
  -25.9711  -30.7718   21.3628 C   0  0  0  0  0  0
  -26.0430  -29.3975   20.7070 C   0  0  0  0  0  0
  -27.2261  -28.6021   20.6809 C   0  0  0  0  0  0
  -26.0409  -26.8658   19.4702 C   0  0  0  0  0  0
  -24.8730  -27.6523   19.4875 C   0  0  0  0  0  0
  -23.6419  -29.7882   20.1583 C   0  0  0  0  0  0
  -25.4128  -36.3016   24.0291 C   0  0  1  0  0  0
  -20.5894  -28.3659   23.1263 C   0  0  2  0  0  0
  -20.6770  -26.9393   22.5364 C   0  0  0  0  0  0
  -19.5762  -26.6358   21.5149 C   0  0  0  0  0  0
  -18.1953  -26.7902   22.1595 C   0  0  0  0  0  0
  -19.1554  -28.8829   23.2847 C   0  0  0  0  0  0
  -18.9489  -30.1418   23.8876 C   0  0  0  0  0  0
  -17.6492  -30.6558   24.0557 C   0  0  0  0  0  0
  -25.9089  -34.9410   23.5028 C   0  0  0  0  0  0
  -16.5378  -29.9053   23.6343 C   0  0  0  0  0  0
  -16.7289  -28.6474   23.0350 C   0  0  0  0  0  0
  -26.4612  -31.6564   25.0655 C   0  0  0  0  0  0
  -25.3809  -31.3790   26.1362 C   0  0  0  0  0  0
  -27.0494  -30.2976   24.6198 C   0  0  0  0  0  0
  -27.6154  -32.4296   25.7496 C   0  0  0  0  0  0
  -27.5555  -37.1773   24.8458 C   0  0  0  0  0  0
  -21.4214  -29.3013   22.3669 N   0  0  0  0  0  0
  -26.4276  -37.3724   23.9381 N   0  0  0  0  0  0
  -24.6989  -31.0482   22.0892 N   0  0  0  0  0  0
  -23.4200  -28.8133   23.3034 O   0  0  0  0  0  0
  -28.3929  -26.5146   20.0905 O   0  0  0  0  0  0
  -26.5605  -34.8898   22.4565 O   0  0  0  0  0  0
  -23.5536  -32.1364   23.7214 O   0  0  0  0  0  0
  -27.5420  -21.4962   21.2095 C   0  0  0  0  0  0
  -26.9777  -22.7166   21.6120 C   0  0  0  0  0  0
  -28.4914  -21.5280   20.1792 C   0  0  0  0  0  0
  -28.2241  -23.8692   20.0643 C   0  0  0  0  0  0
  -30.6564  -16.3149   23.7995 C   0  0  0  0  0  0
  -29.9741  -17.3605   22.9395 C   0  0  0  0  0  0
  -30.4340  -15.0460   22.9742 C   0  0  0  0  0  0
  -30.4009  -16.9489   21.5263 C   0  0  1  0  0  0
  -25.9316  -22.7872   22.7057 C   0  0  0  0  0  0
  -29.0561  -20.1874   19.6146 C   0  0  0  0  0  0
  -28.5162  -25.2345   19.3510 C   0  0  0  0  0  0
  -29.6602  -17.8096   20.4187 C   0  0  0  0  0  0
  -27.3228  -23.8846   21.0397 N   0  0  0  0  0  0
  -28.8256  -22.7348   19.6199 N   0  0  0  0  0  0
  -30.2594  -15.4410   21.5541 N   0  0  0  0  0  0
  -29.7378  -19.3065   20.6230 N   0  3  0  0  0  0
  -31.4593  -12.4672   19.1676 H   0  0  0  0  0  0
  -30.3262  -11.3625   19.8834 H   0  0  0  0  0  0
  -29.7434  -11.7797   17.4697 H   0  0  0  0  0  0
  -29.6361  -13.5007   17.7869 H   0  0  0  0  0  0
  -27.8603  -11.2936   18.8859 H   0  0  0  0  0  0
  -27.3521  -12.5740   17.8118 H   0  0  0  0  0  0
  -27.6787  -14.2616   19.5527 H   0  0  0  0  0  0
  -28.6545  -12.0542   21.4152 H   0  0  0  0  0  0
  -28.3826  -13.7148   21.8179 H   0  0  0  0  0  0
  -25.2713   -9.5764   22.4738 H   0  0  0  0  0  0
  -24.0037   -7.4644   22.7399 H   0  0  0  0  0  0
  -21.0849   -8.8694   19.8864 H   0  0  0  0  0  0
  -22.3614  -10.9649   19.6131 H   0  0  0  0  0  0
  -21.1984   -7.6079   23.9767 H   0  0  0  0  0  0
  -21.1477   -6.0394   25.9108 H   0  0  0  0  0  0
  -22.0609   -2.7554   23.2840 H   0  0  0  0  0  0
  -22.3880  -11.9957   22.4968 H   0  0  0  0  0  0
  -21.0955  -13.1274   22.2607 H   0  0  0  0  0  0
  -24.6926  -15.8722   20.5573 H   0  0  0  0  0  0
  -26.2836  -15.5994   20.0447 H   0  0  0  0  0  0
  -26.7305  -32.5349   23.0995 H   0  0  0  0  0  0
  -25.0255  -33.9652   25.0385 H   0  0  0  0  0  0
  -22.7294  -31.2903   21.3783 H   0  0  0  0  0  0
  -23.3714  -35.9637   23.3313 H   0  0  0  0  0  0
  -24.3568  -36.8878   22.2043 H   0  0  0  0  0  0
  -23.7308  -37.6488   23.6649 H   0  0  0  0  0  0
  -26.0965  -31.5263   20.5858 H   0  0  0  0  0  0
  -26.8560  -30.8260   21.9858 H   0  0  0  0  0  0
  -28.1340  -28.9736   21.1343 H   0  0  0  0  0  0
  -25.9726  -25.8996   18.9955 H   0  0  0  0  0  0
  -23.9731  -27.2649   19.0271 H   0  0  0  0  0  0
  -23.7594  -30.5452   19.3828 H   0  0  0  0  0  0
  -22.7642  -29.2051   19.8706 H   0  0  0  0  0  0
  -25.1315  -36.1835   25.0781 H   0  0  0  0  0  0
  -20.9963  -28.3175   24.1388 H   0  0  0  0  0  0
  -20.5628  -26.2258   23.3536 H   0  0  0  0  0  0
  -21.6640  -26.7383   22.1176 H   0  0  0  0  0  0
  -19.6915  -25.6251   21.1198 H   0  0  0  0  0  0
  -19.6715  -27.3145   20.6660 H   0  0  0  0  0  0
  -17.4197  -26.6591   21.4032 H   0  0  0  0  0  0
  -18.0429  -26.0060   22.9030 H   0  0  0  0  0  0
  -19.7984  -30.7196   24.2243 H   0  0  0  0  0  0
  -17.5079  -31.6238   24.5171 H   0  0  0  0  0  0
  -15.5382  -30.2965   23.7683 H   0  0  0  0  0  0
  -15.8673  -28.0795   22.7097 H   0  0  0  0  0  0
  -24.9155  -32.3046   26.4792 H   0  0  0  0  0  0
  -25.8058  -30.8867   27.0129 H   0  0  0  0  0  0
  -24.5869  -30.7281   25.7632 H   0  0  0  0  0  0
  -26.3144  -29.6628   24.1272 H   0  0  0  0  0  0
  -27.4254  -29.7357   25.4750 H   0  0  0  0  0  0
  -27.8944  -30.4253   23.9429 H   0  0  0  0  0  0
  -27.2711  -33.3527   26.2197 H   0  0  0  0  0  0
  -28.3951  -32.6986   25.0349 H   0  0  0  0  0  0
  -28.0820  -31.8341   26.5380 H   0  0  0  0  0  0
  -28.2578  -38.0046   24.7443 H   0  0  0  0  0  0
  -28.1038  -36.2583   24.6357 H   0  0  0  0  0  0
  -27.2255  -37.1501   25.8850 H   0  0  0  0  0  0
  -20.9432  -29.8784   21.6904 H   0  0  0  0  0  0
  -26.0138  -38.2782   24.1389 H   0  0  0  0  0  0
  -27.2193  -20.5573   21.6435 H   0  0  0  0  0  0
  -30.2518  -16.2540   24.8094 H   0  0  0  0  0  0
  -31.7265  -16.5328   23.8930 H   0  0  0  0  0  0
  -30.2641  -18.3754   23.2073 H   0  0  0  0  0  0
  -28.8847  -17.2794   23.0342 H   0  0  0  0  0  0
  -29.5503  -14.5341   23.3538 H   0  0  0  0  0  0
  -31.2702  -14.3562   23.1210 H   0  0  0  0  0  0
  -31.4717  -17.1529   21.4425 H   0  0  0  0  0  0
  -26.3787  -23.1105   23.6458 H   0  0  0  0  0  0
  -25.4627  -21.8176   22.8647 H   0  0  0  0  0  0
  -25.1467  -23.4969   22.4462 H   0  0  0  0  0  0
  -29.7369  -20.3726   18.7827 H   0  0  0  0  0  0
  -28.2136  -19.6409   19.1888 H   0  0  0  0  0  0
  -27.9583  -25.2596   18.4163 H   0  0  0  0  0  0
  -29.5529  -25.1764   19.0213 H   0  0  0  0  0  0
  -28.6103  -17.5285   20.3697 H   0  0  0  0  0  0
  -30.0973  -17.5880   19.4426 H   0  0  0  0  0  0
  -29.3378  -19.5420   21.5154 H   0  0  0  0  0  0
  -30.7050  -19.5844   20.6348 H   0  0  0  0  0  0
  1 25  1  0  0  0
  1 30  2  0  0  0
  1 85  1  0  0  0
  2  3  1  0  0  0
  2 25  1  0  0  0
  2 87  1  0  0  0
  2 88  1  0  0  0
  3  4  1  0  0  0
  3 89  1  0  0  0
  3 90  1  0  0  0
  4  5  1  0  0  0
  4 91  1  0  0  0
  4 92  1  0  0  0
  5  6  1  0  0  0
  5 26  1  0  0  0
  5 93  1  0  0  0
  6 25  1  0  0  0
  6 94  1  0  0  0
  6 95  1  0  0  0
  7  8  2  0  0  0
  7 26  1  0  0  0
  7 29  1  0  0  0
  8  9  1  0  0  0
  8 22  1  0  0  0
  9 10  1  0  0  0
  9 27  2  0  0  0
 10 11  2  0  0  0
 10 15  1  0  0  0
 11 12  1  0  0  0
 11 96  1  0  0  0
 12 13  2  0  0  0
 12 97  1  0  0  0
 13 14  1  0  0  0
 13 31  1  0  0  0
 14 15  2  0  0  0
 14 98  1  0  0  0
 15 99  1  0  0  0
 16 17  2  0  0  0
 16 21  1  0  0  0
 16 31  1  0  0  0
 17 18  1  0  0  0
 17100  1  0  0  0
 18 19  2  0  0  0
 18101  1  0  0  0
 19 20  1  0  0  0
 19 24  1  0  0  0
 20 21  2  0  0  0
 20102  1  0  0  0
 21 23  1  0  0  0
 22 28  1  0  0  0
 22 32  2  0  0  0
 26 27  1  0  0  0
 28103  1  0  0  0
 28104  1  0  0  0
 29105  1  0  0  0
 29106  1  0  0  0
 33 34  1  0  0  0
 33 66  1  0  0  0
 33 70  2  0  0  0
 34 36  1  0  0  0
 34 59  1  0  0  0
 34107  1  0  0  0
 35 44  2  0  0  0
 35 45  1  0  0  0
 35 68  1  0  0  0
 36 56  1  0  0  0
 36108  1  0  0  0
 37 39  1  0  0  0
 37 47  1  0  0  0
 37 66  1  0  0  0
 37109  1  0  0  0
 38 43  2  0  0  0
 38 46  1  0  0  0
 38 47  1  0  0  0
 39 64  1  0  0  0
 39 67  2  0  0  0
 40 52  1  0  0  0
 40 53  2  0  0  0
 40 58  1  0  0  0
 41110  1  0  0  0
 41111  1  0  0  0
 41112  1  0  0  0
 41 48  1  0  0  0
 42 43  1  0  0  0
 42 66  1  0  0  0
 42113  1  0  0  0
 42114  1  0  0  0
 43 44  1  0  0  0
 44115  1  0  0  0
 45 46  2  0  0  0
 45116  1  0  0  0
 46117  1  0  0  0
 47118  1  0  0  0
 47119  1  0  0  0
 48 56  1  0  0  0
 48 65  1  0  0  0
 48120  1  0  0  0
 49 50  1  0  0  0
 49 53  1  0  0  0
 49 64  1  0  0  0
 49121  1  0  0  0
 50 51  1  0  0  0
 50122  1  0  0  0
 50123  1  0  0  0
 51 52  1  0  0  0
 51124  1  0  0  0
 51125  1  0  0  0
 52126  1  0  0  0
 52127  1  0  0  0
 53 54  1  0  0  0
 54 55  2  0  0  0
 54128  1  0  0  0
 55 57  1  0  0  0
 55129  1  0  0  0
 56 69  2  0  0  0
 57 58  2  0  0  0
 57130  1  0  0  0
 58131  1  0  0  0
 59 60  1  0  0  0
 59 61  1  0  0  0
 59 62  1  0  0  0
 60132  1  0  0  0
 60133  1  0  0  0
 60134  1  0  0  0
 61135  1  0  0  0
 61136  1  0  0  0
 61137  1  0  0  0
 62138  1  0  0  0
 62139  1  0  0  0
 62140  1  0  0  0
 63 65  1  0  0  0
 63141  1  0  0  0
 63142  1  0  0  0
 63143  1  0  0  0
 64144  1  0  0  0
 65145  1  0  0  0
 68 81  1  0  0  0
 71 72  2  0  0  0
 71 73  1  0  0  0
 71146  1  0  0  0
 72 79  1  0  0  0
 72 83  1  0  0  0
 73 80  1  0  0  0
 73 84  2  0  0  0
 74 81  1  0  0  0
 74 83  2  0  0  0
 74 84  1  0  0  0
 75 76  1  0  0  0
 75 77  1  0  0  0
 75147  1  0  0  0
 75148  1  0  0  0
 76 78  1  0  0  0
 76149  1  0  0  0
 76150  1  0  0  0
 77 85  1  0  0  0
 77151  1  0  0  0
 77152  1  0  0  0
 78 82  1  0  0  0
 78 85  1  0  0  0
 78153  1  0  0  0
 79154  1  0  0  0
 79155  1  0  0  0
 79156  1  0  0  0
 80 86  1  0  0  0
 80157  1  0  0  0
 80158  1  0  0  0
 81159  1  0  0  0
 81160  1  0  0  0
 82 86  1  0  0  0
 82161  1  0  0  0
 82162  1  0  0  0
 86163  1  0  0  0
 86164  1  0  0  0
M  CHG  1  86   1
M  ISO  4   1 100  68 101  81 101  85 100
M  END
> <chiral flag>
0

> <version>
0

> <s_m_source_file>
/data/baiqing/PycharmProjects/Reinvent-master-3.2/result/LINK_invent/BTK/process_docking_weight1_custom_sum_contain_oxygen_bond_distance_aromatic_linkinvent_7_9_3/rearranged_h_0196.sdf

> <i_m_source_file_index>
37

> <r_mmod_Potential_Energy-OPLS-2005>
-419.482513427734

> <r_mmod_Stretch_Energy-OPLS-2005>
76.6708984375

> <r_mmod_Bend_Energy-OPLS-2005>
178.53173828125

> <r_mmod_Torsional_Energy-OPLS-2005>
314.065185546875

> <r_mmod_Improper_Torsional_Energy-OPLS-2005>
6.04318904876709

> <r_mmod_Van_der_Waal_Energy-OPLS-2005>
142.799026489258

> <r_mmod_Electrostatic_Energy-OPLS-2005>
-678.622802734375

> <r_mmod_Solvation_Energy-OPLS-2005>
-494.857849121094

> <b_mmod_Minimization_Converged-OPLS-2005>
0

> <r_mmod_RMS_Derivative-OPLS-2005>
6.7742748260498

$$$$
37
                    3D
 Structure written by MMmdl.
161170  0  0  1  0            999 V2000
  -30.5946  -14.8349   20.4700 C   0  0  0  0  0  0
  -30.4420  -12.5340   19.4667 C   0  0  0  0  0  0
  -29.5110  -12.5204   18.2326 C   0  0  0  0  0  0
  -28.0438  -12.2961   18.6541 C   0  0  0  0  0  0
  -27.6334  -13.2023   19.8431 C   0  0  2  0  0  0
  -28.6865  -13.1532   20.9722 C   0  0  0  0  0  0
  -25.2478  -13.8118   20.5734 C   0  0  0  0  0  0
  -24.1734  -13.0402   20.9204 C   0  0  0  0  0  0
  -24.6311  -11.6872   20.8730 C   0  0  0  0  0  0
  -23.9004  -10.4270   21.0425 C   0  0  0  0  0  0
  -24.3587   -9.4199   21.9206 C   0  0  0  0  0  0
  -23.6268   -8.2223   22.0769 C   0  0  0  0  0  0
  -22.4247   -8.0271   21.3558 C   0  0  0  0  0  0
  -21.9869   -9.0243   20.4653 C   0  0  0  0  0  0
  -22.7195  -10.2132   20.3061 C   0  0  0  0  0  0
  -21.6852   -6.0723   22.5283 C   0  0  0  0  0  0
  -21.4021   -6.5623   23.8219 C   0  0  0  0  0  0
  -21.3650   -5.6770   24.9174 C   0  0  0  0  0  0
  -21.6038   -4.3032   24.7226 C   0  0  0  0  0  0
  -21.8819   -3.8135   23.4341 C   0  0  0  0  0  0
  -21.9199   -4.6954   22.3401 C   0  0  0  0  0  0
  -22.7779  -13.5235   21.1845 C   0  0  0  0  0  0
  -22.1674   -4.2144   21.0979 F   0  0  0  0  0  0
  -21.5614   -3.4520   25.7740 F   0  0  0  0  0  0
  -29.9559  -13.6019   20.3830 N   0  0  0  0  0  0
  -26.2867  -12.9274   20.3237 N   0  0  0  0  0  0
  -25.9224  -11.6448   20.5699 N   0  0  0  0  0  0
  -22.0369  -12.8297   22.0401 N   0  0  0  0  0  0
  -25.4129  -15.1839   20.4252 N   0  0  0  0  0  0
  -31.7960  -14.8669   20.1829 O   0  0  0  0  0  0
  -21.6619   -6.8872   21.4247 O   0  0  0  0  0  0
  -22.3505  -14.5547   20.6660 O   0  0  0  0  0  0
  -24.6313  -31.8556   23.1981 C   0  0  0  0  0  0
  -25.9129  -32.4761   23.8344 C   0  0  1  0  0  0
  -27.2123  -27.2365   20.1122 C   0  0  0  0  0  0
  -25.5899  -33.8560   24.2233 N   0  0  0  0  0  0
  -23.4302  -30.4796   21.5468 C   0  0  2  0  0  0
  -24.8719  -28.9273   20.1093 C   0  0  0  0  0  0
  -22.7522  -29.4604   22.4948 C   0  0  0  0  0  0
  -18.0297  -28.1436   22.8496 C   0  0  0  0  0  0
  -24.1475  -36.7286   23.2632 C   0  0  0  0  0  0
  -25.9792  -30.7551   21.3864 C   0  0  0  0  0  0
  -26.0468  -29.3773   20.7237 C   0  0  0  0  0  0
  -27.2129  -28.5431   20.7189 C   0  0  0  0  0  0
  -26.0142  -26.8732   19.4519 C   0  0  0  0  0  0
  -24.8619  -27.6821   19.4645 C   0  0  0  0  0  0
  -23.6475  -29.8196   20.1608 C   0  0  0  0  0  0
  -25.4105  -36.3067   24.0308 C   0  0  1  0  0  0
  -20.5902  -28.3720   23.1288 C   0  0  2  0  0  0
  -20.6804  -26.9449   22.5422 C   0  0  0  0  0  0
  -19.5763  -26.6415   21.5245 C   0  0  0  0  0  0
  -18.1941  -26.7976   22.1655 C   0  0  0  0  0  0
  -19.1555  -28.8898   23.2892 C   0  0  0  0  0  0
  -18.9473  -30.1509   23.8888 C   0  0  0  0  0  0
  -17.6470  -30.6627   24.0581 C   0  0  0  0  0  0
  -25.9056  -34.9447   23.5081 C   0  0  0  0  0  0
  -16.5361  -29.9132   23.6340 C   0  0  0  0  0  0
  -16.7288  -28.6567   23.0337 C   0  0  0  0  0  0
  -26.4467  -31.6603   25.0755 C   0  0  0  0  0  0
  -25.3642  -31.3830   26.1452 C   0  0  0  0  0  0
  -27.0300  -30.2987   24.6306 C   0  0  0  0  0  0
  -27.6024  -32.4340   25.7528 C   0  0  0  0  0  0
  -27.5581  -37.1784   24.8452 C   0  0  0  0  0  0
  -21.4231  -29.3050   22.3668 N   0  0  0  0  0  0
  -26.4273  -37.3781   23.9422 N   0  0  0  0  0  0
  -24.7007  -31.0480   22.0987 N   0  0  0  0  0  0
  -23.4214  -28.8120   23.3042 O   0  0  0  0  0  0
  -28.3093  -26.3323   20.1942 O   0  0  0  0  0  0
  -26.5671  -34.8909   22.4674 O   0  0  0  0  0  0
  -23.5454  -32.1431   23.7218 O   0  0  0  0  0  0
  -30.8815  -21.9780   18.0079 C   0  0  0  0  0  0
  -29.8101  -21.1221   19.5796 C   0  0  0  0  0  0
  -28.3103  -17.8631   21.2150 C   0  0  0  0  0  0
  -28.5018  -16.3427   20.9857 C   0  0  0  0  0  0
  -30.4548  -17.4710   20.3331 C   0  0  0  0  0  0
  -29.2598  -18.5337   20.2305 C   0  0  2  0  0  0
  -31.8245  -22.1356   16.8660 C   0  0  0  0  0  0
  -30.0016  -24.1449   21.4557 C   0  0  0  0  0  0
  -28.2282  -24.8879   19.7258 C   0  0  0  0  0  0
  -28.9441  -23.6107   20.4765 C   0  0  1  0  0  0
  -30.5698  -20.7699   18.5474 N   0  0  0  0  0  0
  -30.3239  -23.0309   18.5880 N   0  0  0  0  0  0
  -29.5847  -22.5171   19.6112 N   0  0  0  0  0  0
  -29.9004  -16.0680   20.5943 N   0  0  0  0  0  0
  -29.4015  -20.0421   20.4331 N   0  0  0  0  0  0
  -31.4707  -12.6959   19.1383 H   0  0  0  0  0  0
  -30.4499  -11.5664   19.9696 H   0  0  0  0  0  0
  -29.8263  -11.7467   17.5300 H   0  0  0  0  0  0
  -29.5980  -13.4694   17.6998 H   0  0  0  0  0  0
  -27.9271  -11.2500   18.9384 H   0  0  0  0  0  0
  -27.3781  -12.4547   17.8046 H   0  0  0  0  0  0
  -27.6131  -14.1956   19.4130 H   0  0  0  0  0  0
  -28.7788  -12.1300   21.3415 H   0  0  0  0  0  0
  -28.4032  -13.7352   21.8455 H   0  0  0  0  0  0
  -25.2738   -9.5684   22.4777 H   0  0  0  0  0  0
  -23.9994   -7.4614   22.7478 H   0  0  0  0  0  0
  -21.0801   -8.8766   19.8959 H   0  0  0  0  0  0
  -22.3673  -10.9675   19.6155 H   0  0  0  0  0  0
  -21.2030   -7.6132   23.9739 H   0  0  0  0  0  0
  -21.1458   -6.0481   25.9078 H   0  0  0  0  0  0
  -22.0612   -2.7601   23.2832 H   0  0  0  0  0  0
  -22.3959  -11.9991   22.4867 H   0  0  0  0  0  0
  -21.0989  -13.1379   22.2553 H   0  0  0  0  0  0
  -24.6574  -15.8433   20.5773 H   0  0  0  0  0  0
  -26.2769  -15.6291   20.1523 H   0  0  0  0  0  0
  -26.7193  -32.5391   23.1092 H   0  0  0  0  0  0
  -24.9936  -33.9718   25.0297 H   0  0  0  0  0  0
  -22.7307  -31.3048   21.4058 H   0  0  0  0  0  0
  -23.3743  -35.9611   23.3252 H   0  0  0  0  0  0
  -24.3583  -36.8956   22.2058 H   0  0  0  0  0  0
  -23.7193  -37.6449   23.6704 H   0  0  0  0  0  0
  -26.1260  -31.5136   20.6173 H   0  0  0  0  0  0
  -26.8553  -30.8043   22.0226 H   0  0  0  0  0  0
  -28.1075  -28.8809   21.2216 H   0  0  0  0  0  0
  -25.9214  -25.9427   18.9149 H   0  0  0  0  0  0
  -23.9618  -27.3403   18.9706 H   0  0  0  0  0  0
  -23.7821  -30.6030   19.4149 H   0  0  0  0  0  0
  -22.7622  -29.2645   19.8440 H   0  0  0  0  0  0
  -25.1276  -36.1928   25.0799 H   0  0  0  0  0  0
  -21.0006  -28.3301   24.1409 H   0  0  0  0  0  0
  -20.5765  -26.2333   23.3632 H   0  0  0  0  0  0
  -21.6665  -26.7543   22.1166 H   0  0  0  0  0  0
  -19.6928  -25.6325   21.1282 H   0  0  0  0  0  0
  -19.6658  -27.3225   20.6767 H   0  0  0  0  0  0
  -17.4211  -26.6715   21.4063 H   0  0  0  0  0  0
  -18.0324  -26.0160   22.9085 H   0  0  0  0  0  0
  -19.7946  -30.7352   24.2230 H   0  0  0  0  0  0
  -17.5021  -31.6294   24.5208 H   0  0  0  0  0  0
  -15.5364  -30.3031   23.7671 H   0  0  0  0  0  0
  -15.8697  -28.0900   22.7013 H   0  0  0  0  0  0
  -24.5815  -30.7185   25.7779 H   0  0  0  0  0  0
  -24.8831  -32.3036   26.4771 H   0  0  0  0  0  0
  -25.7886  -30.9074   27.0304 H   0  0  0  0  0  0
  -26.2914  -29.6767   24.1242 H   0  0  0  0  0  0
  -27.3826  -29.7235   25.4881 H   0  0  0  0  0  0
  -27.8865  -30.4198   23.9670 H   0  0  0  0  0  0
  -27.2644  -33.3663   26.2074 H   0  0  0  0  0  0
  -28.3860  -32.6862   25.0368 H   0  0  0  0  0  0
  -28.0683  -31.8490   26.5476 H   0  0  0  0  0  0
  -28.2556  -38.0125   24.7567 H   0  0  0  0  0  0
  -28.1119  -36.2659   24.6189 H   0  0  0  0  0  0
  -27.2330  -37.1324   25.8860 H   0  0  0  0  0  0
  -20.9442  -29.8738   21.6824 H   0  0  0  0  0  0
  -26.0142  -38.2837   24.1484 H   0  0  0  0  0  0
  -28.5898  -18.1115   22.2399 H   0  0  0  0  0  0
  -27.2713  -18.1690   21.0779 H   0  0  0  0  0  0
  -27.8658  -16.0938   20.1424 H   0  0  0  0  0  0
  -28.1652  -15.8045   21.8698 H   0  0  0  0  0  0
  -31.1090  -17.7292   21.1686 H   0  0  0  0  0  0
  -31.0721  -17.4893   19.4320 H   0  0  0  0  0  0
  -28.8217  -18.4191   19.2355 H   0  0  0  0  0  0
  -32.0855  -21.1676   16.4382 H   0  0  0  0  0  0
  -32.7432  -22.6150   17.2057 H   0  0  0  0  0  0
  -31.3828  -22.7487   16.0809 H   0  0  0  0  0  0
  -29.5599  -24.8363   22.1745 H   0  0  0  0  0  0
  -30.7927  -24.6811   20.9306 H   0  0  0  0  0  0
  -30.4616  -23.3329   22.0184 H   0  0  0  0  0  0
  -27.1919  -24.5679   19.6698 H   0  0  0  0  0  0
  -28.5570  -24.9230   18.6873 H   0  0  0  0  0  0
  -28.1765  -23.1133   21.0718 H   0  0  0  0  0  0
  -28.8678  -20.3848   21.2244 H   0  0  0  0  0  0
  1 25  1  0  0  0
  1 30  2  0  0  0
  1 84  1  0  0  0
  2  3  1  0  0  0
  2 25  1  0  0  0
  2 86  1  0  0  0
  2 87  1  0  0  0
  3  4  1  0  0  0
  3 88  1  0  0  0
  3 89  1  0  0  0
  4  5  1  0  0  0
  4 90  1  0  0  0
  4 91  1  0  0  0
  5  6  1  0  0  0
  5 26  1  0  0  0
  5 92  1  0  0  0
  6 25  1  0  0  0
  6 93  1  0  0  0
  6 94  1  0  0  0
  7  8  2  0  0  0
  7 26  1  0  0  0
  7 29  1  0  0  0
  8  9  1  0  0  0
  8 22  1  0  0  0
  9 10  1  0  0  0
  9 27  2  0  0  0
 10 11  2  0  0  0
 10 15  1  0  0  0
 11 12  1  0  0  0
 11 95  1  0  0  0
 12 13  2  0  0  0
 12 96  1  0  0  0
 13 14  1  0  0  0
 13 31  1  0  0  0
 14 15  2  0  0  0
 14 97  1  0  0  0
 15 98  1  0  0  0
 16 17  2  0  0  0
 16 21  1  0  0  0
 16 31  1  0  0  0
 17 18  1  0  0  0
 17 99  1  0  0  0
 18 19  2  0  0  0
 18100  1  0  0  0
 19 20  1  0  0  0
 19 24  1  0  0  0
 20 21  2  0  0  0
 20101  1  0  0  0
 21 23  1  0  0  0
 22 28  1  0  0  0
 22 32  2  0  0  0
 26 27  1  0  0  0
 28102  1  0  0  0
 28103  1  0  0  0
 29104  1  0  0  0
 29105  1  0  0  0
 33 34  1  0  0  0
 33 66  1  0  0  0
 33 70  2  0  0  0
 34 36  1  0  0  0
 34 59  1  0  0  0
 34106  1  0  0  0
 35 44  2  0  0  0
 35 45  1  0  0  0
 35 68  1  0  0  0
 36 56  1  0  0  0
 36107  1  0  0  0
 37 39  1  0  0  0
 37 47  1  0  0  0
 37 66  1  0  0  0
 37108  1  0  0  0
 38 43  2  0  0  0
 38 46  1  0  0  0
 38 47  1  0  0  0
 39 64  1  0  0  0
 39 67  2  0  0  0
 40 52  1  0  0  0
 40 53  2  0  0  0
 40 58  1  0  0  0
 41109  1  0  0  0
 41110  1  0  0  0
 41111  1  0  0  0
 41 48  1  0  0  0
 42 43  1  0  0  0
 42 66  1  0  0  0
 42112  1  0  0  0
 42113  1  0  0  0
 43 44  1  0  0  0
 44114  1  0  0  0
 45 46  2  0  0  0
 45115  1  0  0  0
 46116  1  0  0  0
 47117  1  0  0  0
 47118  1  0  0  0
 48 56  1  0  0  0
 48 65  1  0  0  0
 48119  1  0  0  0
 49 50  1  0  0  0
 49 53  1  0  0  0
 49 64  1  0  0  0
 49120  1  0  0  0
 50 51  1  0  0  0
 50121  1  0  0  0
 50122  1  0  0  0
 51 52  1  0  0  0
 51123  1  0  0  0
 51124  1  0  0  0
 52125  1  0  0  0
 52126  1  0  0  0
 53 54  1  0  0  0
 54 55  2  0  0  0
 54127  1  0  0  0
 55 57  1  0  0  0
 55128  1  0  0  0
 56 69  2  0  0  0
 57 58  2  0  0  0
 57129  1  0  0  0
 58130  1  0  0  0
 59 60  1  0  0  0
 59 61  1  0  0  0
 59 62  1  0  0  0
 60131  1  0  0  0
 60132  1  0  0  0
 60133  1  0  0  0
 61134  1  0  0  0
 61135  1  0  0  0
 61136  1  0  0  0
 62137  1  0  0  0
 62138  1  0  0  0
 62139  1  0  0  0
 63 65  1  0  0  0
 63140  1  0  0  0
 63141  1  0  0  0
 63142  1  0  0  0
 64143  1  0  0  0
 65144  1  0  0  0
 68 79  1  0  0  0
 71 77  1  0  0  0
 71 81  1  0  0  0
 71 82  2  0  0  0
 72 81  2  0  0  0
 72 83  1  0  0  0
 72 85  1  0  0  0
 73 74  1  0  0  0
 73 76  1  0  0  0
 73145  1  0  0  0
 73146  1  0  0  0
 74 84  1  0  0  0
 74147  1  0  0  0
 74148  1  0  0  0
 75 76  1  0  0  0
 75 84  1  0  0  0
 75149  1  0  0  0
 75150  1  0  0  0
 76 85  1  0  0  0
 76151  1  0  0  0
 77152  1  0  0  0
 77153  1  0  0  0
 77154  1  0  0  0
 78155  1  0  0  0
 78156  1  0  0  0
 78157  1  0  0  0
 78 80  1  0  0  0
 79 80  1  0  0  0
 79158  1  0  0  0
 79159  1  0  0  0
 80 83  1  0  0  0
 80160  1  0  0  0
 82 83  1  0  0  0
 85161  1  0  0  0
M  ISO  4   1 100  68 101  79 101  84 100
M  END
> <chiral flag>
0

> <version>
0

> <s_m_source_file>
/data/baiqing/PycharmProjects/Reinvent-master-3.2/result/LINK_invent/BTK/process_docking_weight1_custom_sum_contain_oxygen_bond_distance_aromatic_linkinvent_7_9_3/rearranged_h_0196.sdf

> <i_m_source_file_index>
38

> <r_mmod_Potential_Energy-OPLS-2005>
351.897155761719

> <r_mmod_Stretch_Energy-OPLS-2005>
149.409591674805

> <r_mmod_Bend_Energy-OPLS-2005>
281.006042480469

> <r_mmod_Torsional_Energy-OPLS-2005>
316.938659667969

> <r_mmod_Improper_Torsional_Energy-OPLS-2005>
7.59515285491943

> <r_mmod_Van_der_Waal_Energy-OPLS-2005>
121.279861450195

> <r_mmod_Electrostatic_Energy-OPLS-2005>
-400.391845703125

> <r_mmod_Solvation_Energy-OPLS-2005>
-237.421783447266

> <b_mmod_Minimization_Converged-OPLS-2005>
0

> <r_mmod_RMS_Derivative-OPLS-2005>
3.75706362724304

$$$$
38
                    3D
 Structure written by MMmdl.
169178  0  0  1  0            999 V2000
  -30.7019  -14.5168   20.5156 C   0  0  0  0  0  0
  -30.4193  -12.3033   19.4603 C   0  0  0  0  0  0
  -29.5080  -12.5418   18.2425 C   0  0  0  0  0  0
  -28.0327  -12.3852   18.6556 C   0  0  0  0  0  0
  -27.6764  -13.1987   19.9273 C   0  0  2  0  0  0
  -28.7327  -12.9969   21.0435 C   0  0  0  0  0  0
  -25.2601  -13.7887   20.5727 C   0  0  0  0  0  0
  -24.1825  -13.0234   20.9146 C   0  0  0  0  0  0
  -24.6396  -11.6709   20.8792 C   0  0  0  0  0  0
  -23.9057  -10.4200   21.0408 C   0  0  0  0  0  0
  -24.3581   -9.4119   21.9218 C   0  0  0  0  0  0
  -23.6264   -8.2157   22.0814 C   0  0  0  0  0  0
  -22.4292   -8.0245   21.3489 C   0  0  0  0  0  0
  -21.9862   -9.0243   20.4654 C   0  0  0  0  0  0
  -22.7223  -10.2088   20.3092 C   0  0  0  0  0  0
  -21.6817   -6.0715   22.5254 C   0  0  0  0  0  0
  -21.4013   -6.5648   23.8220 C   0  0  0  0  0  0
  -21.3640   -5.6802   24.9200 C   0  0  0  0  0  0
  -21.6070   -4.3072   24.7223 C   0  0  0  0  0  0
  -21.8809   -3.8135   23.4362 C   0  0  0  0  0  0
  -21.9203   -4.6946   22.3402 C   0  0  0  0  0  0
  -22.7861  -13.5151   21.1800 C   0  0  0  0  0  0
  -22.1673   -4.2131   21.0978 F   0  0  0  0  0  0
  -21.5599   -3.4578   25.7745 F   0  0  0  0  0  0
  -30.0553  -13.3082   20.4742 N   0  0  0  0  0  0
  -26.3118  -12.9112   20.3669 N   0  0  0  0  0  0
  -25.9360  -11.6314   20.5960 N   0  0  0  0  0  0
  -22.0448  -12.8172   22.0308 N   0  0  0  0  0  0
  -25.4233  -15.1425   20.3877 N   0  0  0  0  0  0
  -31.8089  -14.6890   19.9980 O   0  0  0  0  0  0
  -21.6632   -6.8840   21.4203 O   0  0  0  0  0  0
  -22.3590  -14.5490   20.6693 O   0  0  0  0  0  0
  -24.6174  -31.8600   23.2005 C   0  0  0  0  0  0
  -25.9052  -32.4749   23.8310 C   0  0  1  0  0  0
  -27.2890  -27.3996   20.1120 C   0  0  0  0  0  0
  -25.5858  -33.8536   24.2254 N   0  0  0  0  0  0
  -23.4095  -30.4743   21.5375 C   0  0  2  0  0  0
  -24.8686  -28.9267   20.1144 C   0  0  0  0  0  0
  -22.7424  -29.4615   22.4938 C   0  0  0  0  0  0
  -18.0322  -28.1454   22.8476 C   0  0  0  0  0  0
  -24.1475  -36.7316   23.2653 C   0  0  0  0  0  0
  -25.9370  -30.8144   21.3532 C   0  0  0  0  0  0
  -26.0218  -29.4419   20.7064 C   0  0  0  0  0  0
  -27.2226  -28.6883   20.7017 C   0  0  0  0  0  0
  -26.1096  -26.9021   19.4925 C   0  0  0  0  0  0
  -24.9105  -27.6577   19.4957 C   0  0  0  0  0  0
  -23.6194  -29.7880   20.1600 C   0  0  0  0  0  0
  -25.4086  -36.3063   24.0344 C   0  0  1  0  0  0
  -20.5897  -28.3776   23.1476 C   0  0  2  0  0  0
  -20.6715  -26.9349   22.5990 C   0  0  0  0  0  0
  -19.5917  -26.6183   21.5595 C   0  0  0  0  0  0
  -18.1946  -26.7996   22.1628 C   0  0  0  0  0  0
  -19.1546  -28.8921   23.2950 C   0  0  0  0  0  0
  -18.9433  -30.1522   23.8948 C   0  0  0  0  0  0
  -17.6423  -30.6640   24.0481 C   0  0  0  0  0  0
  -25.9033  -34.9436   23.5085 C   0  0  0  0  0  0
  -16.5344  -29.9132   23.6269 C   0  0  0  0  0  0
  -16.7314  -28.6566   23.0248 C   0  0  0  0  0  0
  -26.4499  -31.6552   25.0659 C   0  0  0  0  0  0
  -25.3746  -31.3690   26.1388 C   0  0  0  0  0  0
  -27.0299  -30.2970   24.6072 C   0  0  0  0  0  0
  -27.6069  -32.4282   25.7426 C   0  0  0  0  0  0
  -27.5567  -37.1803   24.8465 C   0  0  0  0  0  0
  -21.4165  -29.2977   22.3689 N   0  0  0  0  0  0
  -26.4270  -37.3755   23.9408 N   0  0  0  0  0  0
  -24.6717  -31.0669   22.0900 N   0  0  0  0  0  0
  -23.4167  -28.8275   23.3060 O   0  0  0  0  0  0
  -28.5140  -26.7287   20.1578 O   0  0  0  0  0  0
  -26.5615  -34.8933   22.4705 O   0  0  0  0  0  0
  -23.5353  -32.1354   23.7434 O   0  0  0  0  0  0
  -26.6236  -17.8615   20.6735 C   0  0  0  0  0  0
  -27.6642  -17.3998   19.8245 C   0  0  0  0  0  0
  -28.7881  -17.6767   20.5642 C   0  0  0  0  0  0
  -28.0447  -21.1749   22.2337 C   0  0  0  0  0  0
  -29.7551  -20.7517   20.4048 C   0  0  0  0  0  0
  -28.0731  -22.6302   21.7045 C   0  0  0  0  0  0
  -30.0940  -22.2951   20.3991 C   0  0  0  0  0  0
  -29.0601  -20.1132   21.6429 C   0  0  1  0  0  0
  -26.5876  -17.7354   17.5997 C   0  0  0  0  0  0
  -27.5082  -16.8293   18.4336 C   0  0  0  0  0  0
  -30.1514  -16.9933   20.5884 C   0  0  0  0  0  0
  -29.4586  -24.6491   21.2547 C   0  0  0  0  0  0
  -28.6683  -25.2818   20.0381 C   0  0  0  0  0  0
  -27.0816  -18.6680   21.5925 N   0  0  0  0  0  0
  -28.3869  -18.8206   21.2791 N   0  0  0  0  0  0
  -29.9941  -15.5641   20.9831 N   0  0  0  0  0  0
  -29.4261  -23.1368   21.4392 N   0  3  1  0  0  0
  -31.4757  -12.3505   19.1945 H   0  0  0  0  0  0
  -30.2562  -11.2886   19.8418 H   0  0  0  0  0  0
  -29.7479  -11.8556   17.4285 H   0  0  0  0  0  0
  -29.6798  -13.5491   17.8612 H   0  0  0  0  0  0
  -27.8544  -11.3183   18.8508 H   0  0  0  0  0  0
  -27.3757  -12.6665   17.8375 H   0  0  0  0  0  0
  -27.7204  -14.2551   19.6676 H   0  0  0  0  0  0
  -28.7102  -11.9617   21.3850 H   0  0  0  0  0  0
  -28.5155  -13.5985   21.9259 H   0  0  0  0  0  0
  -25.2685   -9.5632   22.4862 H   0  0  0  0  0  0
  -23.9993   -7.4546   22.7539 H   0  0  0  0  0  0
  -21.0802   -8.8727   19.8976 H   0  0  0  0  0  0
  -22.3655  -10.9660   19.6292 H   0  0  0  0  0  0
  -21.2014   -7.6175   23.9665 H   0  0  0  0  0  0
  -21.1488   -6.0586   25.9075 H   0  0  0  0  0  0
  -22.0617   -2.7605   23.2871 H   0  0  0  0  0  0
  -22.3992  -11.9732   22.4641 H   0  0  0  0  0  0
  -21.1150  -13.1323   22.2683 H   0  0  0  0  0  0
  -24.6391  -15.7867   20.4129 H   0  0  0  0  0  0
  -26.2897  -15.5530   20.0653 H   0  0  0  0  0  0
  -26.7124  -32.5405   23.1064 H   0  0  0  0  0  0
  -24.9880  -33.9660   25.0291 H   0  0  0  0  0  0
  -22.6990  -31.2880   21.3860 H   0  0  0  0  0  0
  -23.3687  -35.9691   23.3310 H   0  0  0  0  0  0
  -24.3592  -36.8942   22.2075 H   0  0  0  0  0  0
  -23.7297  -37.6559   23.6659 H   0  0  0  0  0  0
  -26.0410  -31.5641   20.5668 H   0  0  0  0  0  0
  -26.8283  -30.8830   21.9631 H   0  0  0  0  0  0
  -28.1056  -29.0980   21.1761 H   0  0  0  0  0  0
  -26.1044  -25.9398   18.9992 H   0  0  0  0  0  0
  -24.0297  -27.2520   19.0179 H   0  0  0  0  0  0
  -23.7108  -30.5454   19.3790 H   0  0  0  0  0  0
  -22.7448  -29.1968   19.8824 H   0  0  0  0  0  0
  -25.1274  -36.1916   25.0835 H   0  0  0  0  0  0
  -20.9993  -28.3612   24.1562 H   0  0  0  0  0  0
  -20.5254  -26.2555   23.4412 H   0  0  0  0  0  0
  -21.6713  -26.7055   22.2178 H   0  0  0  0  0  0
  -19.7025  -25.5891   21.2144 H   0  0  0  0  0  0
  -19.7179  -27.2621   20.6877 H   0  0  0  0  0  0
  -17.4463  -26.6938   21.3755 H   0  0  0  0  0  0
  -17.9940  -26.0151   22.8964 H   0  0  0  0  0  0
  -19.7848  -30.7415   24.2387 H   0  0  0  0  0  0
  -17.4978  -31.6396   24.4960 H   0  0  0  0  0  0
  -15.5355  -30.3107   23.7441 H   0  0  0  0  0  0
  -15.8745  -28.0885   22.6908 H   0  0  0  0  0  0
  -24.5937  -30.7015   25.7760 H   0  0  0  0  0  0
  -24.8883  -32.2818   26.4811 H   0  0  0  0  0  0
  -25.8076  -30.8895   27.0166 H   0  0  0  0  0  0
  -26.2832  -29.6741   24.1110 H   0  0  0  0  0  0
  -27.4033  -29.7246   25.4589 H   0  0  0  0  0  0
  -27.8688  -30.4301   23.9225 H   0  0  0  0  0  0
  -27.2700  -33.3616   26.1979 H   0  0  0  0  0  0
  -28.3868  -32.6814   25.0215 H   0  0  0  0  0  0
  -28.0708  -31.8376   26.5344 H   0  0  0  0  0  0
  -28.2604  -38.0095   24.7459 H   0  0  0  0  0  0
  -28.1052  -36.2616   24.6294 H   0  0  0  0  0  0
  -27.2284  -37.1455   25.8881 H   0  0  0  0  0  0
  -20.9352  -29.8448   21.6698 H   0  0  0  0  0  0
  -26.0140  -38.2841   24.1356 H   0  0  0  0  0  0
  -25.5511  -17.7720   20.6081 H   0  0  0  0  0  0
  -27.0203  -20.9439   21.9496 H   0  0  0  0  0  0
  -28.0589  -21.1361   23.3205 H   0  0  0  0  0  0
  -29.0918  -20.5609   19.5620 H   0  0  0  0  0  0
  -30.6565  -20.1831   20.1681 H   0  0  0  0  0  0
  -27.5455  -23.2908   22.3964 H   0  0  0  0  0  0
  -27.5427  -22.6601   20.7511 H   0  0  0  0  0  0
  -29.7353  -22.6542   19.4353 H   0  0  0  0  0  0
  -31.1721  -22.4561   20.3972 H   0  0  0  0  0  0
  -29.8094  -19.8650   22.3924 H   0  0  0  0  0  0
  -26.4679  -17.3783   16.5781 H   0  0  0  0  0  0
  -26.9855  -18.7545   17.5469 H   0  0  0  0  0  0
  -25.5840  -17.7973   18.0183 H   0  0  0  0  0  0
  -27.1115  -15.8202   18.3844 H   0  0  0  0  0  0
  -28.4774  -16.7970   17.9320 H   0  0  0  0  0  0
  -30.6358  -17.0482   19.6146 H   0  0  0  0  0  0
  -30.8146  -17.5007   21.2952 H   0  0  0  0  0  0
  -29.0302  -25.0930   22.1642 H   0  0  0  0  0  0
  -30.4919  -25.0036   21.2722 H   0  0  0  0  0  0
  -27.7072  -24.7865   19.9406 H   0  0  0  0  0  0
  -29.2181  -25.1011   19.1083 H   0  0  0  0  0  0
  -29.1298  -15.3551   21.4491 H   0  0  0  0  0  0
  -29.9209  -22.9785   22.3042 H   0  0  0  0  0  0
  1 25  1  0  0  0
  1 30  2  0  0  0
  1 86  1  0  0  0
  2  3  1  0  0  0
  2 25  1  0  0  0
  2 88  1  0  0  0
  2 89  1  0  0  0
  3  4  1  0  0  0
  3 90  1  0  0  0
  3 91  1  0  0  0
  4  5  1  0  0  0
  4 92  1  0  0  0
  4 93  1  0  0  0
  5  6  1  0  0  0
  5 26  1  0  0  0
  5 94  1  0  0  0
  6 25  1  0  0  0
  6 95  1  0  0  0
  6 96  1  0  0  0
  7  8  2  0  0  0
  7 26  1  0  0  0
  7 29  1  0  0  0
  8  9  1  0  0  0
  8 22  1  0  0  0
  9 10  1  0  0  0
  9 27  2  0  0  0
 10 11  2  0  0  0
 10 15  1  0  0  0
 11 12  1  0  0  0
 11 97  1  0  0  0
 12 13  2  0  0  0
 12 98  1  0  0  0
 13 14  1  0  0  0
 13 31  1  0  0  0
 14 15  2  0  0  0
 14 99  1  0  0  0
 15100  1  0  0  0
 16 17  2  0  0  0
 16 21  1  0  0  0
 16 31  1  0  0  0
 17 18  1  0  0  0
 17101  1  0  0  0
 18 19  2  0  0  0
 18102  1  0  0  0
 19 20  1  0  0  0
 19 24  1  0  0  0
 20 21  2  0  0  0
 20103  1  0  0  0
 21 23  1  0  0  0
 22 28  1  0  0  0
 22 32  2  0  0  0
 26 27  1  0  0  0
 28104  1  0  0  0
 28105  1  0  0  0
 29106  1  0  0  0
 29107  1  0  0  0
 33 34  1  0  0  0
 33 66  1  0  0  0
 33 70  2  0  0  0
 34 36  1  0  0  0
 34 59  1  0  0  0
 34108  1  0  0  0
 35 44  2  0  0  0
 35 45  1  0  0  0
 35 68  1  0  0  0
 36 56  1  0  0  0
 36109  1  0  0  0
 37 39  1  0  0  0
 37 47  1  0  0  0
 37 66  1  0  0  0
 37110  1  0  0  0
 38 43  2  0  0  0
 38 46  1  0  0  0
 38 47  1  0  0  0
 39 64  1  0  0  0
 39 67  2  0  0  0
 40 52  1  0  0  0
 40 53  2  0  0  0
 40 58  1  0  0  0
 41111  1  0  0  0
 41112  1  0  0  0
 41113  1  0  0  0
 41 48  1  0  0  0
 42 43  1  0  0  0
 42 66  1  0  0  0
 42114  1  0  0  0
 42115  1  0  0  0
 43 44  1  0  0  0
 44116  1  0  0  0
 45 46  2  0  0  0
 45117  1  0  0  0
 46118  1  0  0  0
 47119  1  0  0  0
 47120  1  0  0  0
 48 56  1  0  0  0
 48 65  1  0  0  0
 48121  1  0  0  0
 49 50  1  0  0  0
 49 53  1  0  0  0
 49 64  1  0  0  0
 49122  1  0  0  0
 50 51  1  0  0  0
 50123  1  0  0  0
 50124  1  0  0  0
 51 52  1  0  0  0
 51125  1  0  0  0
 51126  1  0  0  0
 52127  1  0  0  0
 52128  1  0  0  0
 53 54  1  0  0  0
 54 55  2  0  0  0
 54129  1  0  0  0
 55 57  1  0  0  0
 55130  1  0  0  0
 56 69  2  0  0  0
 57 58  2  0  0  0
 57131  1  0  0  0
 58132  1  0  0  0
 59 60  1  0  0  0
 59 61  1  0  0  0
 59 62  1  0  0  0
 60133  1  0  0  0
 60134  1  0  0  0
 60135  1  0  0  0
 61136  1  0  0  0
 61137  1  0  0  0
 61138  1  0  0  0
 62139  1  0  0  0
 62140  1  0  0  0
 62141  1  0  0  0
 63 65  1  0  0  0
 63142  1  0  0  0
 63143  1  0  0  0
 63144  1  0  0  0
 64145  1  0  0  0
 65146  1  0  0  0
 68 83  1  0  0  0
 71 72  1  0  0  0
 71 84  2  0  0  0
 71147  1  0  0  0
 72 73  2  0  0  0
 72 80  1  0  0  0
 73 81  1  0  0  0
 73 85  1  0  0  0
 74 76  1  0  0  0
 74 78  1  0  0  0
 74148  1  0  0  0
 74149  1  0  0  0
 75 77  1  0  0  0
 75 78  1  0  0  0
 75150  1  0  0  0
 75151  1  0  0  0
 76 87  1  0  0  0
 76152  1  0  0  0
 76153  1  0  0  0
 77 87  1  0  0  0
 77154  1  0  0  0
 77155  1  0  0  0
 78 85  1  0  0  0
 78156  1  0  0  0
 79 80  1  0  0  0
 79157  1  0  0  0
 79158  1  0  0  0
 79159  1  0  0  0
 80160  1  0  0  0
 80161  1  0  0  0
 81 86  1  0  0  0
 81162  1  0  0  0
 81163  1  0  0  0
 82 83  1  0  0  0
 82164  1  0  0  0
 82165  1  0  0  0
 82 87  1  0  0  0
 83166  1  0  0  0
 83167  1  0  0  0
 84 85  1  0  0  0
 86168  1  0  0  0
 87169  1  0  0  0
M  CHG  1  87   1
M  ISO  4   1 100  68 101  83 101  86 100
M  END
> <chiral flag>
0

> <version>
0

> <s_m_source_file>
/data/baiqing/PycharmProjects/Reinvent-master-3.2/result/LINK_invent/BTK/process_docking_weight1_custom_sum_contain_oxygen_bond_distance_aromatic_linkinvent_7_9_3/rearranged_h_0196.sdf

> <i_m_source_file_index>
39

> <r_mmod_Potential_Energy-OPLS-2005>
36.9587821960449

> <r_mmod_Stretch_Energy-OPLS-2005>
66.9691390991211

> <r_mmod_Bend_Energy-OPLS-2005>
165.017852783203

> <r_mmod_Torsional_Energy-OPLS-2005>
396.725799560547

> <r_mmod_Improper_Torsional_Energy-OPLS-2005>
5.8577184677124

> <r_mmod_Van_der_Waal_Energy-OPLS-2005>
134.5498046875

> <r_mmod_Electrostatic_Energy-OPLS-2005>
-324.351379394531

> <r_mmod_Solvation_Energy-OPLS-2005>
-431.023132324219

> <b_mmod_Minimization_Converged-OPLS-2005>
0

> <r_mmod_RMS_Derivative-OPLS-2005>
14.5503406524658

$$$$
39
                    3D
 Structure written by MMmdl.
164172  0  0  1  0            999 V2000
  -30.7602  -14.4558   20.6214 C   0  0  0  0  0  0
  -30.4131  -12.3226   19.4144 C   0  0  0  0  0  0
  -29.4812  -12.4990   18.1999 C   0  0  0  0  0  0
  -28.0108  -12.3300   18.6207 C   0  0  0  0  0  0
  -27.6533  -13.1876   19.8586 C   0  0  2  0  0  0
  -28.7000  -13.0097   20.9872 C   0  0  0  0  0  0
  -25.2599  -13.8114   20.5676 C   0  0  0  0  0  0
  -24.1836  -13.0410   20.9188 C   0  0  0  0  0  0
  -24.6367  -11.6873   20.8755 C   0  0  0  0  0  0
  -23.9034  -10.4271   21.0419 C   0  0  0  0  0  0
  -24.3589   -9.4194   21.9195 C   0  0  0  0  0  0
  -23.6272   -8.2231   22.0761 C   0  0  0  0  0  0
  -22.4261   -8.0266   21.3541 C   0  0  0  0  0  0
  -21.9894   -9.0239   20.4649 C   0  0  0  0  0  0
  -22.7212  -10.2123   20.3061 C   0  0  0  0  0  0
  -21.6843   -6.0727   22.5274 C   0  0  0  0  0  0
  -21.4002   -6.5638   23.8208 C   0  0  0  0  0  0
  -21.3656   -5.6794   24.9174 C   0  0  0  0  0  0
  -21.6042   -4.3056   24.7230 C   0  0  0  0  0  0
  -21.8824   -3.8142   23.4354 C   0  0  0  0  0  0
  -21.9193   -4.6954   22.3401 C   0  0  0  0  0  0
  -22.7869  -13.5229   21.1848 C   0  0  0  0  0  0
  -22.1664   -4.2136   21.0978 F   0  0  0  0  0  0
  -21.5632   -3.4538   25.7750 F   0  0  0  0  0  0
  -30.0325  -13.3138   20.4387 N   0  0  0  0  0  0
  -26.2983  -12.9233   20.3304 N   0  0  0  0  0  0
  -25.9276  -11.6417   20.5753 N   0  0  0  0  0  0
  -22.0509  -12.8227   22.0407 N   0  0  0  0  0  0
  -25.4345  -15.1829   20.4088 N   0  0  0  0  0  0
  -31.8474  -14.6285   20.0615 O   0  0  0  0  0  0
  -21.6623   -6.8864   21.4234 O   0  0  0  0  0  0
  -22.3566  -14.5539   20.6696 O   0  0  0  0  0  0
  -24.6166  -31.8690   23.2135 C   0  0  0  0  0  0
  -25.9055  -32.4829   23.8436 C   0  0  1  0  0  0
  -27.2293  -27.4281   20.0899 C   0  0  0  0  0  0
  -25.5915  -33.8629   24.2363 N   0  0  0  0  0  0
  -23.4045  -30.4953   21.5537 C   0  0  2  0  0  0
  -24.8489  -28.9679   20.1125 C   0  0  0  0  0  0
  -22.7420  -29.4658   22.4981 C   0  0  0  0  0  0
  -18.0275  -28.1373   22.8493 C   0  0  0  0  0  0
  -24.1479  -36.7317   23.2646 C   0  0  0  0  0  0
  -25.9369  -30.8337   21.3694 C   0  0  0  0  0  0
  -26.0131  -29.4719   20.7069 C   0  0  0  0  0  0
  -27.2066  -28.7114   20.6876 C   0  0  0  0  0  0
  -26.0411  -26.9452   19.4894 C   0  0  0  0  0  0
  -24.8590  -27.7048   19.5010 C   0  0  0  0  0  0
  -23.6133  -29.8364   20.1652 C   0  0  0  0  0  0
  -25.4110  -36.3118   24.0343 C   0  0  1  0  0  0
  -20.5866  -28.3661   23.1305 C   0  0  2  0  0  0
  -20.6762  -26.9396   22.5414 C   0  0  0  0  0  0
  -19.5747  -26.6383   21.5205 C   0  0  0  0  0  0
  -18.1917  -26.7929   22.1604 C   0  0  0  0  0  0
  -19.1525  -28.8832   23.2900 C   0  0  0  0  0  0
  -18.9455  -30.1432   23.8921 C   0  0  0  0  0  0
  -17.6459  -30.6582   24.0552 C   0  0  0  0  0  0
  -25.9036  -34.9477   23.5148 C   0  0  0  0  0  0
  -16.5347  -29.9084   23.6320 C   0  0  0  0  0  0
  -16.7264  -28.6488   23.0367 C   0  0  0  0  0  0
  -26.4479  -31.6606   25.0760 C   0  0  0  0  0  0
  -25.3736  -31.3693   26.1497 C   0  0  0  0  0  0
  -27.0310  -30.3041   24.6160 C   0  0  0  0  0  0
  -27.6085  -32.4302   25.7500 C   0  0  0  0  0  0
  -27.5581  -37.1830   24.8480 C   0  0  0  0  0  0
  -21.4148  -29.3029   22.3708 N   0  0  0  0  0  0
  -26.4308  -37.3794   23.9395 N   0  0  0  0  0  0
  -24.6705  -31.0800   22.1034 N   0  0  0  0  0  0
  -23.4190  -28.8189   23.3014 O   0  0  0  0  0  0
  -28.3930  -26.6787   20.1118 O   0  0  0  0  0  0
  -26.5594  -34.8918   22.4706 O   0  0  0  0  0  0
  -23.5353  -32.1433   23.7524 O   0  0  0  0  0  0
  -31.6884  -17.4444   21.9244 C   0  0  0  0  0  0
  -29.4852  -17.5850   20.7462 C   0  0  0  0  0  0
  -31.2801  -16.0384   22.4395 C   0  0  0  0  0  0
  -29.1290  -16.2014   21.3357 C   0  0  0  0  0  0
  -30.4576  -18.3454   21.6720 C   0  0  0  0  0  0
  -31.1157  -22.7075   22.1789 C   0  0  0  0  0  0
  -29.5017  -24.4800   20.4697 C   0  0  0  0  0  0
  -29.7873  -20.7332   21.2324 C   0  0  0  0  0  0
  -28.2357  -25.2515   20.0385 C   0  0  0  0  0  0
  -30.3244  -22.1732   20.9666 C   0  0  1  0  0  0
  -30.3261  -15.3637   21.5385 N   0  0  0  0  0  0
  -29.1900  -23.0539   20.6479 N   0  0  0  0  0  0
  -30.8384  -19.6868   21.1455 N   0  3  0  0  0  0
  -31.4548  -12.4138   19.1007 H   0  0  0  0  0  0
  -30.3194  -11.3145   19.8215 H   0  0  0  0  0  0
  -29.7301  -11.7718   17.4255 H   0  0  0  0  0  0
  -29.6291  -13.4841   17.7546 H   0  0  0  0  0  0
  -27.8431  -11.2745   18.8378 H   0  0  0  0  0  0
  -27.3501  -12.5771   17.7887 H   0  0  0  0  0  0
  -27.6728  -14.2105   19.4955 H   0  0  0  0  0  0
  -28.6859  -11.9829   21.3547 H   0  0  0  0  0  0
  -28.4484  -13.6247   21.8515 H   0  0  0  0  0  0
  -25.2733   -9.5672   22.4780 H   0  0  0  0  0  0
  -23.9976   -7.4623   22.7484 H   0  0  0  0  0  0
  -21.0827   -8.8751   19.8953 H   0  0  0  0  0  0
  -22.3665  -10.9662   19.6180 H   0  0  0  0  0  0
  -21.1985   -7.6151   23.9701 H   0  0  0  0  0  0
  -21.1475   -6.0532   25.9076 H   0  0  0  0  0  0
  -22.0612   -2.7604   23.2858 H   0  0  0  0  0  0
  -22.4107  -11.9869   22.4778 H   0  0  0  0  0  0
  -21.1138  -13.1274   22.2626 H   0  0  0  0  0  0
  -24.6707  -15.8400   20.5233 H   0  0  0  0  0  0
  -26.2859  -15.6205   20.0828 H   0  0  0  0  0  0
  -26.7136  -32.5529   23.1211 H   0  0  0  0  0  0
  -25.0061  -33.9790   25.0502 H   0  0  0  0  0  0
  -22.6921  -31.3121   21.4184 H   0  0  0  0  0  0
  -23.3756  -35.9636   23.3301 H   0  0  0  0  0  0
  -24.3570  -36.8953   22.2066 H   0  0  0  0  0  0
  -23.7212  -37.6508   23.6673 H   0  0  0  0  0  0
  -26.0584  -31.6068   20.6094 H   0  0  0  0  0  0
  -26.8207  -30.8778   21.9939 H   0  0  0  0  0  0
  -28.1067  -29.0965   21.1479 H   0  0  0  0  0  0
  -26.0026  -25.9815   19.0045 H   0  0  0  0  0  0
  -23.9627  -27.3133   19.0383 H   0  0  0  0  0  0
  -23.7255  -30.6171   19.4115 H   0  0  0  0  0  0
  -22.7347  -29.2634   19.8656 H   0  0  0  0  0  0
  -25.1291  -36.2004   25.0840 H   0  0  0  0  0  0
  -20.9963  -28.3243   24.1426 H   0  0  0  0  0  0
  -20.5660  -26.2273   23.3608 H   0  0  0  0  0  0
  -21.6637  -26.7433   22.1218 H   0  0  0  0  0  0
  -19.6906  -25.6294   21.1241 H   0  0  0  0  0  0
  -19.6698  -27.3185   20.6730 H   0  0  0  0  0  0
  -17.4203  -26.6707   21.3987 H   0  0  0  0  0  0
  -18.0280  -26.0050   22.8969 H   0  0  0  0  0  0
  -19.7929  -30.7224   24.2336 H   0  0  0  0  0  0
  -17.5018  -31.6271   24.5149 H   0  0  0  0  0  0
  -15.5349  -30.3001   23.7634 H   0  0  0  0  0  0
  -15.8657  -28.0800   22.7115 H   0  0  0  0  0  0
  -24.5923  -30.7036   25.7813 H   0  0  0  0  0  0
  -24.8895  -32.2825   26.4962 H   0  0  0  0  0  0
  -25.8080  -30.8844   27.0243 H   0  0  0  0  0  0
  -26.2853  -29.6774   24.1254 H   0  0  0  0  0  0
  -27.4103  -29.7319   25.4639 H   0  0  0  0  0  0
  -27.8686  -30.4348   23.9301 H   0  0  0  0  0  0
  -27.2786  -33.3651   26.2032 H   0  0  0  0  0  0
  -28.3911  -32.6762   25.0311 H   0  0  0  0  0  0
  -28.0718  -31.8425   26.5429 H   0  0  0  0  0  0
  -28.2654  -38.0075   24.7470 H   0  0  0  0  0  0
  -28.1020  -36.2608   24.6392 H   0  0  0  0  0  0
  -27.2279  -37.1595   25.8879 H   0  0  0  0  0  0
  -20.9310  -29.8756   21.6934 H   0  0  0  0  0  0
  -26.0209  -38.2884   24.1360 H   0  0  0  0  0  0
  -32.2714  -17.3393   21.0075 H   0  0  0  0  0  0
  -32.3498  -17.9138   22.6538 H   0  0  0  0  0  0
  -28.5688  -18.1560   20.5979 H   0  0  0  0  0  0
  -29.9294  -17.4552   19.7576 H   0  0  0  0  0  0
  -30.8232  -16.1250   23.4262 H   0  0  0  0  0  0
  -32.1730  -15.4267   22.5847 H   0  0  0  0  0  0
  -28.4117  -15.7347   20.6750 H   0  0  0  0  0  0
  -28.6140  -16.3204   22.2896 H   0  0  0  0  0  0
  -29.9670  -18.4970   22.6352 H   0  0  0  0  0  0
  -31.8956  -22.0125   22.4886 H   0  0  0  0  0  0
  -30.4688  -22.8735   23.0415 H   0  0  0  0  0  0
  -31.6215  -23.6470   21.9541 H   0  0  0  0  0  0
  -29.8616  -24.9005   21.4088 H   0  0  0  0  0  0
  -30.2906  -24.6142   19.7273 H   0  0  0  0  0  0
  -29.0122  -20.4836   20.5067 H   0  0  0  0  0  0
  -29.3089  -20.7017   22.2127 H   0  0  0  0  0  0
  -27.4130  -24.9495   20.6919 H   0  0  0  0  0  0
  -27.9737  -24.9612   19.0197 H   0  0  0  0  0  0
  -30.9819  -22.1512   20.0944 H   0  0  0  0  0  0
  -28.7337  -22.7173   19.8019 H   0  0  0  0  0  0
  -31.1490  -19.6082   20.1905 H   0  0  0  0  0  0
  -31.6215  -20.0111   21.6891 H   0  0  0  0  0  0
  1 25  1  0  0  0
  1 30  2  0  0  0
  1 81  1  0  0  0
  2  3  1  0  0  0
  2 25  1  0  0  0
  2 84  1  0  0  0
  2 85  1  0  0  0
  3  4  1  0  0  0
  3 86  1  0  0  0
  3 87  1  0  0  0
  4  5  1  0  0  0
  4 88  1  0  0  0
  4 89  1  0  0  0
  5  6  1  0  0  0
  5 26  1  0  0  0
  5 90  1  0  0  0
  6 25  1  0  0  0
  6 91  1  0  0  0
  6 92  1  0  0  0
  7  8  2  0  0  0
  7 26  1  0  0  0
  7 29  1  0  0  0
  8  9  1  0  0  0
  8 22  1  0  0  0
  9 10  1  0  0  0
  9 27  2  0  0  0
 10 11  2  0  0  0
 10 15  1  0  0  0
 11 12  1  0  0  0
 11 93  1  0  0  0
 12 13  2  0  0  0
 12 94  1  0  0  0
 13 14  1  0  0  0
 13 31  1  0  0  0
 14 15  2  0  0  0
 14 95  1  0  0  0
 15 96  1  0  0  0
 16 17  2  0  0  0
 16 21  1  0  0  0
 16 31  1  0  0  0
 17 18  1  0  0  0
 17 97  1  0  0  0
 18 19  2  0  0  0
 18 98  1  0  0  0
 19 20  1  0  0  0
 19 24  1  0  0  0
 20 21  2  0  0  0
 20 99  1  0  0  0
 21 23  1  0  0  0
 22 28  1  0  0  0
 22 32  2  0  0  0
 26 27  1  0  0  0
 28100  1  0  0  0
 28101  1  0  0  0
 29102  1  0  0  0
 29103  1  0  0  0
 33 34  1  0  0  0
 33 66  1  0  0  0
 33 70  2  0  0  0
 34 36  1  0  0  0
 34 59  1  0  0  0
 34104  1  0  0  0
 35 44  2  0  0  0
 35 45  1  0  0  0
 35 68  1  0  0  0
 36 56  1  0  0  0
 36105  1  0  0  0
 37 39  1  0  0  0
 37 47  1  0  0  0
 37 66  1  0  0  0
 37106  1  0  0  0
 38 43  2  0  0  0
 38 46  1  0  0  0
 38 47  1  0  0  0
 39 64  1  0  0  0
 39 67  2  0  0  0
 40 52  1  0  0  0
 40 53  2  0  0  0
 40 58  1  0  0  0
 41107  1  0  0  0
 41108  1  0  0  0
 41109  1  0  0  0
 41 48  1  0  0  0
 42 43  1  0  0  0
 42 66  1  0  0  0
 42110  1  0  0  0
 42111  1  0  0  0
 43 44  1  0  0  0
 44112  1  0  0  0
 45 46  2  0  0  0
 45113  1  0  0  0
 46114  1  0  0  0
 47115  1  0  0  0
 47116  1  0  0  0
 48 56  1  0  0  0
 48 65  1  0  0  0
 48117  1  0  0  0
 49 50  1  0  0  0
 49 53  1  0  0  0
 49 64  1  0  0  0
 49118  1  0  0  0
 50 51  1  0  0  0
 50119  1  0  0  0
 50120  1  0  0  0
 51 52  1  0  0  0
 51121  1  0  0  0
 51122  1  0  0  0
 52123  1  0  0  0
 52124  1  0  0  0
 53 54  1  0  0  0
 54 55  2  0  0  0
 54125  1  0  0  0
 55 57  1  0  0  0
 55126  1  0  0  0
 56 69  2  0  0  0
 57 58  2  0  0  0
 57127  1  0  0  0
 58128  1  0  0  0
 59 60  1  0  0  0
 59 61  1  0  0  0
 59 62  1  0  0  0
 60129  1  0  0  0
 60130  1  0  0  0
 60131  1  0  0  0
 61132  1  0  0  0
 61133  1  0  0  0
 61134  1  0  0  0
 62135  1  0  0  0
 62136  1  0  0  0
 62137  1  0  0  0
 63 65  1  0  0  0
 63138  1  0  0  0
 63139  1  0  0  0
 63140  1  0  0  0
 64141  1  0  0  0
 65142  1  0  0  0
 68 79  1  0  0  0
 71 73  1  0  0  0
 71 75  1  0  0  0
 71143  1  0  0  0
 71144  1  0  0  0
 72 74  1  0  0  0
 72 75  1  0  0  0
 72145  1  0  0  0
 72146  1  0  0  0
 73 81  1  0  0  0
 73147  1  0  0  0
 73148  1  0  0  0
 74 81  1  0  0  0
 74149  1  0  0  0
 74150  1  0  0  0
 75 83  1  0  0  0
 75151  1  0  0  0
 76152  1  0  0  0
 76153  1  0  0  0
 76154  1  0  0  0
 76 80  1  0  0  0
 77 79  1  0  0  0
 77 82  1  0  0  0
 77155  1  0  0  0
 77156  1  0  0  0
 78 80  1  0  0  0
 78 83  1  0  0  0
 78157  1  0  0  0
 78158  1  0  0  0
 79159  1  0  0  0
 79160  1  0  0  0
 80 82  1  0  0  0
 80161  1  0  0  0
 82162  1  0  0  0
 83163  1  0  0  0
 83164  1  0  0  0
M  CHG  1  83   1
M  ISO  4   1 100  68 101  79 101  81 100
M  END
> <chiral flag>
0

> <version>
0

> <s_m_source_file>
/data/baiqing/PycharmProjects/Reinvent-master-3.2/result/LINK_invent/BTK/process_docking_weight1_custom_sum_contain_oxygen_bond_distance_aromatic_linkinvent_7_9_3/rearranged_h_0196.sdf

> <i_m_source_file_index>
40

> <r_mmod_Potential_Energy-OPLS-2005>
11.686863899231

> <r_mmod_Stretch_Energy-OPLS-2005>
41.1436958312988

> <r_mmod_Bend_Energy-OPLS-2005>
105.985862731934

> <r_mmod_Torsional_Energy-OPLS-2005>
312.351318359375

> <r_mmod_Improper_Torsional_Energy-OPLS-2005>
4.57306146621704

> <r_mmod_Van_der_Waal_Energy-OPLS-2005>
147.432067871094

> <r_mmod_Electrostatic_Energy-OPLS-2005>
-155.350540161133

> <r_mmod_Solvation_Energy-OPLS-2005>
-458.044189453125

> <b_mmod_Minimization_Converged-OPLS-2005>
0

> <r_mmod_RMS_Derivative-OPLS-2005>
1.55177187919617

$$$$
40
                    3D
 Structure written by MMmdl.
170179  0  0  1  0            999 V2000
  -30.6832  -14.4797   20.5082 C   0  0  0  0  0  0
  -30.4251  -12.2483   19.5027 C   0  0  0  0  0  0
  -29.5107  -12.3483   18.2589 C   0  0  0  0  0  0
  -28.0117  -12.3650   18.6050 C   0  0  0  0  0  0
  -27.6633  -13.2007   19.8675 C   0  0  2  0  0  0
  -28.6909  -13.0170   21.0029 C   0  0  0  0  0  0
  -25.2663  -13.8145   20.5533 C   0  0  0  0  0  0
  -24.1890  -13.0404   20.9010 C   0  0  0  0  0  0
  -24.6443  -11.6896   20.8665 C   0  0  0  0  0  0
  -23.9085  -10.4304   21.0382 C   0  0  0  0  0  0
  -24.3633   -9.4260   21.9176 C   0  0  0  0  0  0
  -23.6270   -8.2295   22.0775 C   0  0  0  0  0  0
  -22.4271   -8.0328   21.3551 C   0  0  0  0  0  0
  -21.9895   -9.0298   20.4633 C   0  0  0  0  0  0
  -22.7229  -10.2171   20.3043 C   0  0  0  0  0  0
  -21.6904   -6.0745   22.5269 C   0  0  0  0  0  0
  -21.4039   -6.5611   23.8206 C   0  0  0  0  0  0
  -21.3670   -5.6754   24.9158 C   0  0  0  0  0  0
  -21.6047   -4.3011   24.7225 C   0  0  0  0  0  0
  -21.8846   -3.8127   23.4324 C   0  0  0  0  0  0
  -21.9213   -4.6948   22.3389 C   0  0  0  0  0  0
  -22.7955  -13.5266   21.1688 C   0  0  0  0  0  0
  -22.1690   -4.2138   21.0967 F   0  0  0  0  0  0
  -21.5628   -3.4480   25.7729 F   0  0  0  0  0  0
  -30.0251  -13.2898   20.4549 N   0  0  0  0  0  0
  -26.3060  -12.9270   20.3283 N   0  0  0  0  0  0
  -25.9376  -11.6439   20.5743 N   0  0  0  0  0  0
  -22.0601  -12.8263   22.0259 N   0  0  0  0  0  0
  -25.4525  -15.1813   20.3889 N   0  0  0  0  0  0
  -31.8773  -14.6057   20.2344 O   0  0  0  0  0  0
  -21.6662   -6.8888   21.4229 O   0  0  0  0  0  0
  -22.3652  -14.5558   20.6523 O   0  0  0  0  0  0
  -24.6142  -31.8694   23.2133 C   0  0  0  0  0  0
  -25.9054  -32.4846   23.8413 C   0  0  1  0  0  0
  -27.1969  -27.4047   20.1434 C   0  0  0  0  0  0
  -25.5927  -33.8634   24.2371 N   0  0  0  0  0  0
  -23.3970  -30.4947   21.5571 C   0  0  2  0  0  0
  -24.8328  -28.9562   20.1155 C   0  0  0  0  0  0
  -22.7385  -29.4682   22.5061 C   0  0  0  0  0  0
  -18.0262  -28.1339   22.8523 C   0  0  0  0  0  0
  -24.1487  -36.7293   23.2644 C   0  0  0  0  0  0
  -25.9232  -30.8355   21.3596 C   0  0  0  0  0  0
  -25.9948  -29.4697   20.7014 C   0  0  0  0  0  0
  -27.1810  -28.7048   20.6996 C   0  0  0  0  0  0
  -26.0267  -26.9107   19.5279 C   0  0  0  0  0  0
  -24.8450  -27.6808   19.5225 C   0  0  0  0  0  0
  -23.5980  -29.8274   20.1711 C   0  0  0  0  0  0
  -25.4125  -36.3115   24.0349 C   0  0  1  0  0  0
  -20.5845  -28.3631   23.1348 C   0  0  2  0  0  0
  -20.6768  -26.9379   22.5417 C   0  0  0  0  0  0
  -19.5745  -26.6354   21.5222 C   0  0  0  0  0  0
  -18.1911  -26.7904   22.1615 C   0  0  0  0  0  0
  -19.1504  -28.8810   23.2922 C   0  0  0  0  0  0
  -18.9436  -30.1428   23.8919 C   0  0  0  0  0  0
  -17.6438  -30.6570   24.0542 C   0  0  0  0  0  0
  -25.9044  -34.9491   23.5155 C   0  0  0  0  0  0
  -16.5336  -29.9063   23.6318 C   0  0  0  0  0  0
  -16.7251  -28.6454   23.0400 C   0  0  0  0  0  0
  -26.4490  -31.6594   25.0729 C   0  0  0  0  0  0
  -25.3740  -31.3657   26.1447 C   0  0  0  0  0  0
  -27.0376  -30.3074   24.6074 C   0  0  0  0  0  0
  -27.6062  -32.4317   25.7486 C   0  0  0  0  0  0
  -27.5603  -37.1815   24.8473 C   0  0  0  0  0  0
  -21.4114  -29.3026   22.3790 N   0  0  0  0  0  0
  -26.4323  -37.3810   23.9400 N   0  0  0  0  0  0
  -24.6631  -31.0810   22.1011 N   0  0  0  0  0  0
  -23.4179  -28.8230   23.3084 O   0  0  0  0  0  0
  -28.3569  -26.6743   20.2555 O   0  0  0  0  0  0
  -26.5591  -34.8928   22.4703 O   0  0  0  0  0  0
  -23.5344  -32.1481   23.7534 O   0  0  0  0  0  0
  -28.8780  -18.8160   19.3191 C   0  0  0  0  0  0
  -29.1249  -18.6203   17.9303 C   0  0  0  0  0  0
  -29.7919  -16.6805   19.7597 C   0  0  0  0  0  0
  -30.1659  -16.6049   18.3706 C   0  0  0  0  0  0
  -27.4254  -20.3380   20.9612 C   0  0  0  0  0  0
  -29.6564  -21.0588   20.2530 C   0  0  0  0  0  0
  -26.9934  -21.8361   21.1704 C   0  0  0  0  0  0
  -29.2265  -22.5295   20.2215 C   0  0  0  0  0  0
  -28.4616  -20.2111   19.8369 C   0  0  1  0  0  0
  -28.0608  -19.7208   14.4254 C   0  0  0  0  0  0
  -28.7393  -19.5890   16.8128 C   0  0  0  0  0  0
  -27.6972  -24.3097   21.2223 C   0  0  0  0  0  0
  -28.3731  -25.2375   20.1374 C   0  0  0  0  0  0
  -29.1947  -17.8339   20.2149 N   0  0  0  0  0  0
  -29.7953  -17.5434   17.4890 N   0  0  0  0  0  0
  -29.8921  -15.5588   20.6510 N   0  0  0  0  0  0
  -28.1215  -22.8463   21.1893 N   0  3  1  0  0  0
  -28.5166  -18.8707   15.5403 N   0  3  0  0  0  0
  -31.0721  -15.3710   17.5711 Cl  0  0  0  0  0  0
  -31.4740  -12.3379   19.2139 H   0  0  0  0  0  0
  -30.3316  -11.2627   19.9686 H   0  0  0  0  0  0
  -29.7227  -11.5068   17.5990 H   0  0  0  0  0  0
  -29.7458  -13.2328   17.6849 H   0  0  0  0  0  0
  -27.6651  -11.3366   18.7139 H   0  0  0  0  0  0
  -27.4700  -12.7681   17.7469 H   0  0  0  0  0  0
  -27.7028  -14.2442   19.5594 H   0  0  0  0  0  0
  -28.6471  -11.9998   21.4037 H   0  0  0  0  0  0
  -28.4595  -13.6795   21.8398 H   0  0  0  0  0  0
  -25.2836   -9.5654   22.4700 H   0  0  0  0  0  0
  -23.9960   -7.4660   22.7488 H   0  0  0  0  0  0
  -21.0860   -8.8779   19.8906 H   0  0  0  0  0  0
  -22.3731  -10.9658   19.6106 H   0  0  0  0  0  0
  -21.2062   -7.6118   23.9675 H   0  0  0  0  0  0
  -21.1456   -6.0514   25.9034 H   0  0  0  0  0  0
  -22.0633   -2.7571   23.2872 H   0  0  0  0  0  0
  -22.4143  -11.9826   22.4483 H   0  0  0  0  0  0
  -21.1258  -13.1378   22.2517 H   0  0  0  0  0  0
  -24.6853  -15.8460   20.4026 H   0  0  0  0  0  0
  -26.3239  -15.5824   20.0667 H   0  0  0  0  0  0
  -26.7115  -32.5550   23.1163 H   0  0  0  0  0  0
  -25.0120  -33.9800   25.0558 H   0  0  0  0  0  0
  -22.6848  -31.3126   21.4248 H   0  0  0  0  0  0
  -23.3780  -35.9593   23.3307 H   0  0  0  0  0  0
  -24.3580  -36.8907   22.2057 H   0  0  0  0  0  0
  -23.7207  -37.6480   23.6664 H   0  0  0  0  0  0
  -26.0364  -31.6074   20.5978 H   0  0  0  0  0  0
  -26.8096  -30.8826   21.9827 H   0  0  0  0  0  0
  -28.0790  -29.0958   21.1559 H   0  0  0  0  0  0
  -26.0073  -25.9305   19.0724 H   0  0  0  0  0  0
  -23.9353  -27.2870   19.0861 H   0  0  0  0  0  0
  -23.7060  -30.6046   19.4137 H   0  0  0  0  0  0
  -22.7180  -29.2519   19.8782 H   0  0  0  0  0  0
  -25.1313  -36.1993   25.0854 H   0  0  0  0  0  0
  -20.9928  -28.3145   24.1475 H   0  0  0  0  0  0
  -20.5694  -26.2219   23.3582 H   0  0  0  0  0  0
  -21.6630  -26.7448   22.1185 H   0  0  0  0  0  0
  -19.6893  -25.6255   21.1266 H   0  0  0  0  0  0
  -19.6696  -27.3155   20.6745 H   0  0  0  0  0  0
  -17.4204  -26.6724   21.3974 H   0  0  0  0  0  0
  -18.0256  -26.0003   22.8952 H   0  0  0  0  0  0
  -19.7910  -30.7237   24.2302 H   0  0  0  0  0  0
  -17.4989  -31.6273   24.5091 H   0  0  0  0  0  0
  -15.5335  -30.2973   23.7622 H   0  0  0  0  0  0
  -15.8653  -28.0749   22.7177 H   0  0  0  0  0  0
  -24.5851  -30.7133   25.7694 H   0  0  0  0  0  0
  -24.9019  -32.2799   26.5038 H   0  0  0  0  0  0
  -25.8032  -30.8635   27.0122 H   0  0  0  0  0  0
  -26.2952  -29.6785   24.1153 H   0  0  0  0  0  0
  -27.4219  -29.7350   25.4523 H   0  0  0  0  0  0
  -27.8726  -30.4465   23.9217 H   0  0  0  0  0  0
  -27.2683  -33.3553   26.2194 H   0  0  0  0  0  0
  -28.3795  -32.6981   25.0276 H   0  0  0  0  0  0
  -28.0834  -31.8378   26.5289 H   0  0  0  0  0  0
  -28.2607  -38.0124   24.7546 H   0  0  0  0  0  0
  -28.1112  -36.2653   24.6289 H   0  0  0  0  0  0
  -27.2296  -37.1449   25.8867 H   0  0  0  0  0  0
  -20.9268  -29.8763   21.7036 H   0  0  0  0  0  0
  -26.0205  -38.2886   24.1396 H   0  0  0  0  0  0
  -26.5508  -19.7319   20.7240 H   0  0  0  0  0  0
  -27.8337  -19.9150   21.8811 H   0  0  0  0  0  0
  -30.0200  -20.7684   21.2413 H   0  0  0  0  0  0
  -30.4873  -20.9149   19.5612 H   0  0  0  0  0  0
  -26.4558  -21.8855   22.1203 H   0  0  0  0  0  0
  -26.2705  -22.1029   20.3962 H   0  0  0  0  0  0
  -28.9228  -22.7746   19.1991 H   0  0  0  0  0  0
  -30.1149  -23.1219   20.4429 H   0  0  0  0  0  0
  -27.9896  -20.7188   19.0023 H   0  0  0  0  0  0
  -27.9082  -19.1225   13.5293 H   0  0  0  0  0  0
  -28.7900  -20.5003   14.1952 H   0  0  0  0  0  0
  -27.1136  -20.1948   14.6802 H   0  0  0  0  0  0
  -29.5444  -20.3129   16.6937 H   0  0  0  0  0  0
  -27.8191  -20.1229   17.0393 H   0  0  0  0  0  0
  -26.6050  -24.4030   21.1855 H   0  0  0  0  0  0
  -27.9743  -24.6862   22.2130 H   0  0  0  0  0  0
  -28.1163  -24.9248   19.1260 H   0  0  0  0  0  0
  -29.4459  -25.0983   20.2390 H   0  0  0  0  0  0
  -29.0662  -15.3989   21.2050 H   0  0  0  0  0  0
  -28.5436  -22.6981   22.0954 H   0  0  0  0  0  0
  -29.3803  -18.4118   15.3021 H   0  0  0  0  0  0
  -27.8441  -18.1381   15.7056 H   0  0  0  0  0  0
  1 25  1  0  0  0
  1 30  2  0  0  0
  1 86  1  0  0  0
  2  3  1  0  0  0
  2 25  1  0  0  0
  2 90  1  0  0  0
  2 91  1  0  0  0
  3  4  1  0  0  0
  3 92  1  0  0  0
  3 93  1  0  0  0
  4  5  1  0  0  0
  4 94  1  0  0  0
  4 95  1  0  0  0
  5  6  1  0  0  0
  5 26  1  0  0  0
  5 96  1  0  0  0
  6 25  1  0  0  0
  6 97  1  0  0  0
  6 98  1  0  0  0
  7  8  2  0  0  0
  7 26  1  0  0  0
  7 29  1  0  0  0
  8  9  1  0  0  0
  8 22  1  0  0  0
  9 10  1  0  0  0
  9 27  2  0  0  0
 10 11  2  0  0  0
 10 15  1  0  0  0
 11 12  1  0  0  0
 11 99  1  0  0  0
 12 13  2  0  0  0
 12100  1  0  0  0
 13 14  1  0  0  0
 13 31  1  0  0  0
 14 15  2  0  0  0
 14101  1  0  0  0
 15102  1  0  0  0
 16 17  2  0  0  0
 16 21  1  0  0  0
 16 31  1  0  0  0
 17 18  1  0  0  0
 17103  1  0  0  0
 18 19  2  0  0  0
 18104  1  0  0  0
 19 20  1  0  0  0
 19 24  1  0  0  0
 20 21  2  0  0  0
 20105  1  0  0  0
 21 23  1  0  0  0
 22 28  1  0  0  0
 22 32  2  0  0  0
 26 27  1  0  0  0
 28106  1  0  0  0
 28107  1  0  0  0
 29108  1  0  0  0
 29109  1  0  0  0
 33 34  1  0  0  0
 33 66  1  0  0  0
 33 70  2  0  0  0
 34 36  1  0  0  0
 34 59  1  0  0  0
 34110  1  0  0  0
 35 44  2  0  0  0
 35 45  1  0  0  0
 35 68  1  0  0  0
 36 56  1  0  0  0
 36111  1  0  0  0
 37 39  1  0  0  0
 37 47  1  0  0  0
 37 66  1  0  0  0
 37112  1  0  0  0
 38 43  2  0  0  0
 38 46  1  0  0  0
 38 47  1  0  0  0
 39 64  1  0  0  0
 39 67  2  0  0  0
 40 52  1  0  0  0
 40 53  2  0  0  0
 40 58  1  0  0  0
 41113  1  0  0  0
 41114  1  0  0  0
 41115  1  0  0  0
 41 48  1  0  0  0
 42 43  1  0  0  0
 42 66  1  0  0  0
 42116  1  0  0  0
 42117  1  0  0  0
 43 44  1  0  0  0
 44118  1  0  0  0
 45 46  2  0  0  0
 45119  1  0  0  0
 46120  1  0  0  0
 47121  1  0  0  0
 47122  1  0  0  0
 48 56  1  0  0  0
 48 65  1  0  0  0
 48123  1  0  0  0
 49 50  1  0  0  0
 49 53  1  0  0  0
 49 64  1  0  0  0
 49124  1  0  0  0
 50 51  1  0  0  0
 50125  1  0  0  0
 50126  1  0  0  0
 51 52  1  0  0  0
 51127  1  0  0  0
 51128  1  0  0  0
 52129  1  0  0  0
 52130  1  0  0  0
 53 54  1  0  0  0
 54 55  2  0  0  0
 54131  1  0  0  0
 55 57  1  0  0  0
 55132  1  0  0  0
 56 69  2  0  0  0
 57 58  2  0  0  0
 57133  1  0  0  0
 58134  1  0  0  0
 59 60  1  0  0  0
 59 61  1  0  0  0
 59 62  1  0  0  0
 60135  1  0  0  0
 60136  1  0  0  0
 60137  1  0  0  0
 61138  1  0  0  0
 61139  1  0  0  0
 61140  1  0  0  0
 62141  1  0  0  0
 62142  1  0  0  0
 62143  1  0  0  0
 63 65  1  0  0  0
 63144  1  0  0  0
 63145  1  0  0  0
 63146  1  0  0  0
 64147  1  0  0  0
 65148  1  0  0  0
 68 83  1  0  0  0
 71 72  2  0  0  0
 71 84  1  0  0  0
 71 79  1  0  0  0
 72 81  1  0  0  0
 72 85  1  0  0  0
 73 74  1  0  0  0
 73 84  2  0  0  0
 73 86  1  0  0  0
 74 85  2  0  0  0
 74 89  1  0  0  0
 75 77  1  0  0  0
 75 79  1  0  0  0
 75149  1  0  0  0
 75150  1  0  0  0
 76 78  1  0  0  0
 76 79  1  0  0  0
 76151  1  0  0  0
 76152  1  0  0  0
 77 87  1  0  0  0
 77153  1  0  0  0
 77154  1  0  0  0
 78 87  1  0  0  0
 78155  1  0  0  0
 78156  1  0  0  0
 79157  1  0  0  0
 80 88  1  0  0  0
 80158  1  0  0  0
 80159  1  0  0  0
 80160  1  0  0  0
 81 88  1  0  0  0
 81161  1  0  0  0
 81162  1  0  0  0
 82 83  1  0  0  0
 82163  1  0  0  0
 82164  1  0  0  0
 82 87  1  0  0  0
 83165  1  0  0  0
 83166  1  0  0  0
 86167  1  0  0  0
 87168  1  0  0  0
 88169  1  0  0  0
 88170  1  0  0  0
M  CHG  2  87   1  88   1
M  ISO  4   1 100  68 101  83 101  86 100
M  END
> <chiral flag>
0

> <version>
0

> <s_m_source_file>
/data/baiqing/PycharmProjects/Reinvent-master-3.2/result/LINK_invent/BTK/process_docking_weight1_custom_sum_contain_oxygen_bond_distance_aromatic_linkinvent_7_9_3/rearranged_h_0196.sdf

> <i_m_source_file_index>
41

> <r_mmod_Potential_Energy-OPLS-2005>
-209.971954345703

> <r_mmod_Stretch_Energy-OPLS-2005>
57.2690238952637

> <r_mmod_Bend_Energy-OPLS-2005>
167.95036315918

> <r_mmod_Torsional_Energy-OPLS-2005>
291.263641357422

> <r_mmod_Improper_Torsional_Energy-OPLS-2005>
8.45245170593262

> <r_mmod_Van_der_Waal_Energy-OPLS-2005>
185.111526489258

> <r_mmod_Electrostatic_Energy-OPLS-2005>
-21.2161903381348

> <r_mmod_Solvation_Energy-OPLS-2005>
-929.523986816406

> <b_mmod_Minimization_Converged-OPLS-2005>
0

> <r_mmod_RMS_Derivative-OPLS-2005>
8.11464786529541

$$$$
41
                    3D
 Structure written by MMmdl.
161171  0  0  1  0            999 V2000
  -30.6107  -14.9423   20.4110 C   0  0  0  0  0  0
  -30.4194  -12.5917   19.4935 C   0  0  0  0  0  0
  -29.5084  -12.5295   18.2492 C   0  0  0  0  0  0
  -28.0444  -12.3160   18.6724 C   0  0  0  0  0  0
  -27.6208  -13.2573   19.8303 C   0  0  2  0  0  0
  -28.6668  -13.3279   20.9633 C   0  0  0  0  0  0
  -25.2421  -13.8232   20.5732 C   0  0  0  0  0  0
  -24.1752  -13.0445   20.9241 C   0  0  0  0  0  0
  -24.6384  -11.6938   20.8767 C   0  0  0  0  0  0
  -23.9077  -10.4293   21.0405 C   0  0  0  0  0  0
  -24.3622   -9.4205   21.9187 C   0  0  0  0  0  0
  -23.6299   -8.2240   22.0753 C   0  0  0  0  0  0
  -22.4286   -8.0271   21.3534 C   0  0  0  0  0  0
  -21.9917   -9.0250   20.4644 C   0  0  0  0  0  0
  -22.7247  -10.2131   20.3058 C   0  0  0  0  0  0
  -21.6852   -6.0731   22.5275 C   0  0  0  0  0  0
  -21.4009   -6.5636   23.8207 C   0  0  0  0  0  0
  -21.3664   -5.6790   24.9174 C   0  0  0  0  0  0
  -21.6052   -4.3054   24.7219 C   0  0  0  0  0  0
  -21.8817   -3.8138   23.4338 C   0  0  0  0  0  0
  -21.9186   -4.6958   22.3396 C   0  0  0  0  0  0
  -22.7771  -13.5210   21.1883 C   0  0  0  0  0  0
  -22.1660   -4.2145   21.0974 F   0  0  0  0  0  0
  -21.5638   -3.4538   25.7731 F   0  0  0  0  0  0
  -29.9396  -13.7198   20.3456 N   0  0  0  0  0  0
  -26.2850  -12.9486   20.3253 N   0  0  0  0  0  0
  -25.9314  -11.6606   20.5750 N   0  0  0  0  0  0
  -22.0413  -12.8203   22.0436 N   0  0  0  0  0  0
  -25.4080  -15.1954   20.4162 N   0  0  0  0  0  0
  -31.8272  -14.9005   20.1979 O   0  0  0  0  0  0
  -21.6641   -6.8871   21.4235 O   0  0  0  0  0  0
  -22.3456  -14.5510   20.6716 O   0  0  0  0  0  0
  -24.6432  -31.8459   23.1913 C   0  0  0  0  0  0
  -25.9207  -32.4703   23.8298 C   0  0  1  0  0  0
  -27.2029  -27.1351   20.1520 C   0  0  0  0  0  0
  -25.5968  -33.8511   24.2212 N   0  0  0  0  0  0
  -23.4456  -30.4677   21.5370 C   0  0  2  0  0  0
  -24.8927  -28.8987   20.1119 C   0  0  0  0  0  0
  -22.7568  -29.4555   22.4866 C   0  0  0  0  0  0
  -18.0306  -28.1389   22.8471 C   0  0  0  0  0  0
  -24.1494  -36.7259   23.2641 C   0  0  0  0  0  0
  -26.0030  -30.7187   21.3917 C   0  0  0  0  0  0
  -26.0718  -29.3310   20.7328 C   0  0  0  0  0  0
  -27.2300  -28.4653   20.7361 C   0  0  0  0  0  0
  -26.0008  -26.8137   19.4825 C   0  0  0  0  0  0
  -24.8703  -27.6539   19.4710 C   0  0  0  0  0  0
  -23.6725  -29.8024   20.1550 C   0  0  0  0  0  0
  -25.4125  -36.3038   24.0317 C   0  0  1  0  0  0
  -20.5917  -28.3718   23.1236 C   0  0  2  0  0  0
  -20.6786  -26.9424   22.5398 C   0  0  0  0  0  0
  -19.5765  -26.6376   21.5205 C   0  0  0  0  0  0
  -18.1946  -26.7928   22.1615 C   0  0  0  0  0  0
  -19.1560  -28.8873   23.2844 C   0  0  0  0  0  0
  -18.9473  -30.1467   23.8869 C   0  0  0  0  0  0
  -17.6468  -30.6584   24.0555 C   0  0  0  0  0  0
  -25.9074  -34.9411   23.5069 C   0  0  0  0  0  0
  -16.5360  -29.9074   23.6336 C   0  0  0  0  0  0
  -16.7289  -28.6493   23.0356 C   0  0  0  0  0  0
  -26.4532  -31.6562   25.0736 C   0  0  0  0  0  0
  -25.3714  -31.3739   26.1427 C   0  0  0  0  0  0
  -27.0391  -30.2956   24.6308 C   0  0  0  0  0  0
  -27.6063  -32.4317   25.7520 C   0  0  0  0  0  0
  -27.5578  -37.1790   24.8462 C   0  0  0  0  0  0
  -21.4259  -29.3052   22.3616 N   0  0  0  0  0  0
  -26.4289  -37.3749   23.9404 N   0  0  0  0  0  0
  -24.7172  -31.0319   22.0950 N   0  0  0  0  0  0
  -23.4219  -28.8094   23.3003 O   0  0  0  0  0  0
  -28.2450  -26.1396   20.2055 O   0  0  0  0  0  0
  -26.5649  -34.8900   22.4640 O   0  0  0  0  0  0
  -23.5555  -32.1340   23.7131 O   0  0  0  0  0  0
  -30.7324  -21.2512   19.6835 C   0  0  0  0  0  0
  -30.2540  -23.5540   19.6570 C   0  0  0  0  0  0
  -28.9457  -23.3479   20.1680 C   0  0  0  0  0  0
  -29.4707  -20.9003   20.2199 C   0  0  0  0  0  0
  -32.2497  -25.2653   19.4394 C   0  0  0  0  0  0
  -31.2286  -25.8931   20.3455 C   0  0  0  0  0  0
  -30.0169  -18.7636   21.5547 C   0  0  0  0  0  0
  -29.0565  -18.4550   19.4110 C   0  0  0  0  0  0
  -30.7837  -17.3895   21.1671 C   0  0  0  0  0  0
  -28.8976  -16.8832   19.8282 C   0  0  0  0  0  0
  -30.7825  -24.9117   19.2785 C   0  0  0  0  0  0
  -27.9019  -24.6182   20.2851 C   0  0  0  0  0  0
  -31.1111  -22.5259   19.4106 N   0  0  0  0  0  0
  -28.5827  -21.9895   20.4461 N   0  0  0  0  0  0
  -29.2086  -19.4627   20.5087 N   0  0  0  0  0  0
  -29.9959  -16.2212   20.6243 N   0  0  0  0  0  0
  -31.4577  -12.7155   19.1823 H   0  0  0  0  0  0
  -30.3874  -11.6510   20.0456 H   0  0  0  0  0  0
  -29.8309  -11.7293   17.5825 H   0  0  0  0  0  0
  -29.5952  -13.4567   17.6805 H   0  0  0  0  0  0
  -27.9435  -11.2769   18.9880 H   0  0  0  0  0  0
  -27.3784  -12.4418   17.8174 H   0  0  0  0  0  0
  -27.5689  -14.2511   19.3872 H   0  0  0  0  0  0
  -28.7562  -12.3735   21.4839 H   0  0  0  0  0  0
  -28.3694  -14.0658   21.7101 H   0  0  0  0  0  0
  -25.2756   -9.5695   22.4775 H   0  0  0  0  0  0
  -24.0009   -7.4631   22.7472 H   0  0  0  0  0  0
  -21.0851   -8.8769   19.8952 H   0  0  0  0  0  0
  -22.3694  -10.9673   19.6178 H   0  0  0  0  0  0
  -21.2002   -7.6145   23.9712 H   0  0  0  0  0  0
  -21.1498   -6.0519   25.9080 H   0  0  0  0  0  0
  -22.0593   -2.7600   23.2833 H   0  0  0  0  0  0
  -22.4027  -11.9877   22.4848 H   0  0  0  0  0  0
  -21.1025  -13.1223   22.2622 H   0  0  0  0  0  0
  -24.6419  -15.8493   20.5335 H   0  0  0  0  0  0
  -26.2631  -15.6356   20.1052 H   0  0  0  0  0  0
  -26.7270  -32.5308   23.1028 H   0  0  0  0  0  0
  -25.0115  -33.9631   25.0362 H   0  0  0  0  0  0
  -22.7482  -31.2942   21.3851 H   0  0  0  0  0  0
  -23.3764  -35.9580   23.3283 H   0  0  0  0  0  0
  -24.3586  -36.8911   22.2060 H   0  0  0  0  0  0
  -23.7237  -37.6446   23.6687 H   0  0  0  0  0  0
  -26.1604  -31.4740   20.6206 H   0  0  0  0  0  0
  -26.8730  -30.7674   22.0344 H   0  0  0  0  0  0
  -28.1274  -28.7901   21.2442 H   0  0  0  0  0  0
  -25.8915  -25.8791   18.9579 H   0  0  0  0  0  0
  -23.9731  -27.3239   18.9652 H   0  0  0  0  0  0
  -23.8135  -30.5791   19.4026 H   0  0  0  0  0  0
  -22.7863  -29.2477   19.8404 H   0  0  0  0  0  0
  -25.1312  -36.1872   25.0808 H   0  0  0  0  0  0
  -21.0004  -28.3294   24.1360 H   0  0  0  0  0  0
  -20.5677  -26.2330   23.3612 H   0  0  0  0  0  0
  -21.6651  -26.7427   22.1200 H   0  0  0  0  0  0
  -19.6926  -25.6279   21.1253 H   0  0  0  0  0  0
  -19.6704  -27.3167   20.6721 H   0  0  0  0  0  0
  -17.4218  -26.6675   21.4015 H   0  0  0  0  0  0
  -18.0345  -26.0069   22.9010 H   0  0  0  0  0  0
  -19.7948  -30.7289   24.2225 H   0  0  0  0  0  0
  -17.5022  -31.6262   24.5155 H   0  0  0  0  0  0
  -15.5358  -30.2965   23.7675 H   0  0  0  0  0  0
  -15.8690  -28.0802   22.7087 H   0  0  0  0  0  0
  -24.5907  -30.7076   25.7747 H   0  0  0  0  0  0
  -24.8889  -32.2912   26.4810 H   0  0  0  0  0  0
  -25.8003  -30.8944   27.0237 H   0  0  0  0  0  0
  -26.3005  -29.6682   24.1307 H   0  0  0  0  0  0
  -27.3997  -29.7255   25.4883 H   0  0  0  0  0  0
  -27.8925  -30.4196   23.9635 H   0  0  0  0  0  0
  -27.2669  -33.3642   26.2046 H   0  0  0  0  0  0
  -28.3912  -32.6835   25.0373 H   0  0  0  0  0  0
  -28.0692  -31.8472   26.5485 H   0  0  0  0  0  0
  -28.2578  -38.0104   24.7513 H   0  0  0  0  0  0
  -28.1090  -36.2630   24.6278 H   0  0  0  0  0  0
  -27.2295  -37.1422   25.8864 H   0  0  0  0  0  0
  -20.9465  -29.8792   21.6821 H   0  0  0  0  0  0
  -26.0158  -38.2819   24.1396 H   0  0  0  0  0  0
  -31.4666  -20.4874   19.4702 H   0  0  0  0  0  0
  -32.9160  -24.5254   19.8787 H   0  0  0  0  0  0
  -32.6977  -25.9039   18.6809 H   0  0  0  0  0  0
  -31.0196  -26.9499   20.1878 H   0  0  0  0  0  0
  -31.2064  -25.5634   21.3821 H   0  0  0  0  0  0
  -30.7500  -19.4656   21.9557 H   0  0  0  0  0  0
  -29.3449  -18.5528   22.3879 H   0  0  0  0  0  0
  -28.1855  -18.7461   18.8222 H   0  0  0  0  0  0
  -29.9062  -18.5546   18.7330 H   0  0  0  0  0  0
  -31.3135  -17.0407   22.0547 H   0  0  0  0  0  0
  -31.5691  -17.6232   20.4447 H   0  0  0  0  0  0
  -28.7577  -16.3066   18.9124 H   0  0  0  0  0  0
  -27.9744  -16.7648   20.3954 H   0  0  0  0  0  0
  -30.2526  -25.3154   18.4175 H   0  0  0  0  0  0
  -27.3520  -24.4773   21.2164 H   0  0  0  0  0  0
  -27.1905  -24.3898   19.4966 H   0  0  0  0  0  0
  1 25  1  0  0  0
  1 30  2  0  0  0
  1 86  1  0  0  0
  2  3  1  0  0  0
  2 25  1  0  0  0
  2 87  1  0  0  0
  2 88  1  0  0  0
  3  4  1  0  0  0
  3 89  1  0  0  0
  3 90  1  0  0  0
  4  5  1  0  0  0
  4 91  1  0  0  0
  4 92  1  0  0  0
  5  6  1  0  0  0
  5 26  1  0  0  0
  5 93  1  0  0  0
  6 25  1  0  0  0
  6 94  1  0  0  0
  6 95  1  0  0  0
  7  8  2  0  0  0
  7 26  1  0  0  0
  7 29  1  0  0  0
  8  9  1  0  0  0
  8 22  1  0  0  0
  9 10  1  0  0  0
  9 27  2  0  0  0
 10 11  2  0  0  0
 10 15  1  0  0  0
 11 12  1  0  0  0
 11 96  1  0  0  0
 12 13  2  0  0  0
 12 97  1  0  0  0
 13 14  1  0  0  0
 13 31  1  0  0  0
 14 15  2  0  0  0
 14 98  1  0  0  0
 15 99  1  0  0  0
 16 17  2  0  0  0
 16 21  1  0  0  0
 16 31  1  0  0  0
 17 18  1  0  0  0
 17100  1  0  0  0
 18 19  2  0  0  0
 18101  1  0  0  0
 19 20  1  0  0  0
 19 24  1  0  0  0
 20 21  2  0  0  0
 20102  1  0  0  0
 21 23  1  0  0  0
 22 28  1  0  0  0
 22 32  2  0  0  0
 26 27  1  0  0  0
 28103  1  0  0  0
 28104  1  0  0  0
 29105  1  0  0  0
 29106  1  0  0  0
 33 34  1  0  0  0
 33 66  1  0  0  0
 33 70  2  0  0  0
 34 36  1  0  0  0
 34 59  1  0  0  0
 34107  1  0  0  0
 35 44  2  0  0  0
 35 45  1  0  0  0
 35 68  1  0  0  0
 36 56  1  0  0  0
 36108  1  0  0  0
 37 39  1  0  0  0
 37 47  1  0  0  0
 37 66  1  0  0  0
 37109  1  0  0  0
 38 43  2  0  0  0
 38 46  1  0  0  0
 38 47  1  0  0  0
 39 64  1  0  0  0
 39 67  2  0  0  0
 40 52  1  0  0  0
 40 53  2  0  0  0
 40 58  1  0  0  0
 41110  1  0  0  0
 41111  1  0  0  0
 41112  1  0  0  0
 41 48  1  0  0  0
 42 43  1  0  0  0
 42 66  1  0  0  0
 42113  1  0  0  0
 42114  1  0  0  0
 43 44  1  0  0  0
 44115  1  0  0  0
 45 46  2  0  0  0
 45116  1  0  0  0
 46117  1  0  0  0
 47118  1  0  0  0
 47119  1  0  0  0
 48 56  1  0  0  0
 48 65  1  0  0  0
 48120  1  0  0  0
 49 50  1  0  0  0
 49 53  1  0  0  0
 49 64  1  0  0  0
 49121  1  0  0  0
 50 51  1  0  0  0
 50122  1  0  0  0
 50123  1  0  0  0
 51 52  1  0  0  0
 51124  1  0  0  0
 51125  1  0  0  0
 52126  1  0  0  0
 52127  1  0  0  0
 53 54  1  0  0  0
 54 55  2  0  0  0
 54128  1  0  0  0
 55 57  1  0  0  0
 55129  1  0  0  0
 56 69  2  0  0  0
 57 58  2  0  0  0
 57130  1  0  0  0
 58131  1  0  0  0
 59 60  1  0  0  0
 59 61  1  0  0  0
 59 62  1  0  0  0
 60132  1  0  0  0
 60133  1  0  0  0
 60134  1  0  0  0
 61135  1  0  0  0
 61136  1  0  0  0
 61137  1  0  0  0
 62138  1  0  0  0
 62139  1  0  0  0
 62140  1  0  0  0
 63 65  1  0  0  0
 63141  1  0  0  0
 63142  1  0  0  0
 63143  1  0  0  0
 64144  1  0  0  0
 65145  1  0  0  0
 68 82  1  0  0  0
 71 74  2  0  0  0
 71 83  1  0  0  0
 71146  1  0  0  0
 72 73  1  0  0  0
 72 83  2  0  0  0
 72 81  1  0  0  0
 73 82  1  0  0  0
 73 84  2  0  0  0
 74 84  1  0  0  0
 74 85  1  0  0  0
 75 76  1  0  0  0
 75 81  1  0  0  0
 75147  1  0  0  0
 75148  1  0  0  0
 76 81  1  0  0  0
 76149  1  0  0  0
 76150  1  0  0  0
 77 79  1  0  0  0
 77 85  1  0  0  0
 77151  1  0  0  0
 77152  1  0  0  0
 78 80  1  0  0  0
 78 85  1  0  0  0
 78153  1  0  0  0
 78154  1  0  0  0
 79 86  1  0  0  0
 79155  1  0  0  0
 79156  1  0  0  0
 80 86  1  0  0  0
 80157  1  0  0  0
 80158  1  0  0  0
 81159  1  0  0  0
 82160  1  0  0  0
 82161  1  0  0  0
M  ISO  4   1 100  68 101  82 101  86 100
M  END
> <chiral flag>
0

> <version>
0

> <s_m_source_file>
/data/baiqing/PycharmProjects/Reinvent-master-3.2/result/LINK_invent/BTK/process_docking_weight1_custom_sum_contain_oxygen_bond_distance_aromatic_linkinvent_7_9_3/rearranged_h_0196.sdf

> <i_m_source_file_index>
42

> <r_mmod_Potential_Energy-OPLS-2005>
763.100280761719

> <r_mmod_Stretch_Energy-OPLS-2005>
232.265472412109

> <r_mmod_Bend_Energy-OPLS-2005>
259.317169189453

> <r_mmod_Torsional_Energy-OPLS-2005>
404.337524414062

> <r_mmod_Improper_Torsional_Energy-OPLS-2005>
9.07552623748779

> <r_mmod_Van_der_Waal_Energy-OPLS-2005>
143.564590454102

> <r_mmod_Electrostatic_Energy-OPLS-2005>
-244.957733154297

> <r_mmod_Solvation_Energy-OPLS-2005>
-233.958480834961

> <b_mmod_Minimization_Converged-OPLS-2005>
0

> <r_mmod_RMS_Derivative-OPLS-2005>
1.33107793331146

$$$$
42
                    3D
 Structure written by MMmdl.
165175  0  0  1  0            999 V2000
  -30.7503  -14.4241   20.5946 C   0  0  0  0  0  0
  -30.4056  -12.2859   19.4231 C   0  0  0  0  0  0
  -29.4880  -12.5105   18.2069 C   0  0  0  0  0  0
  -28.0107  -12.3746   18.6187 C   0  0  0  0  0  0
  -27.6607  -13.2117   19.8785 C   0  0  2  0  0  0
  -28.7022  -13.0027   21.0021 C   0  0  0  0  0  0
  -25.2573  -13.8175   20.5703 C   0  0  0  0  0  0
  -24.1820  -13.0431   20.9167 C   0  0  0  0  0  0
  -24.6379  -11.6912   20.8723 C   0  0  0  0  0  0
  -23.9043  -10.4294   21.0385 C   0  0  0  0  0  0
  -24.3594   -9.4220   21.9170 C   0  0  0  0  0  0
  -23.6284   -8.2250   22.0743 C   0  0  0  0  0  0
  -22.4265   -8.0277   21.3542 C   0  0  0  0  0  0
  -21.9897   -9.0238   20.4634 C   0  0  0  0  0  0
  -22.7210  -10.2128   20.3043 C   0  0  0  0  0  0
  -21.6859   -6.0721   22.5272 C   0  0  0  0  0  0
  -21.4012   -6.5627   23.8199 C   0  0  0  0  0  0
  -21.3667   -5.6786   24.9171 C   0  0  0  0  0  0
  -21.6043   -4.3048   24.7222 C   0  0  0  0  0  0
  -21.8822   -3.8133   23.4349 C   0  0  0  0  0  0
  -21.9193   -4.6948   22.3399 C   0  0  0  0  0  0
  -22.7854  -13.5233   21.1834 C   0  0  0  0  0  0
  -22.1668   -4.2135   21.0978 F   0  0  0  0  0  0
  -21.5636   -3.4533   25.7737 F   0  0  0  0  0  0
  -30.0368  -13.2768   20.4450 N   0  0  0  0  0  0
  -26.3014  -12.9353   20.3398 N   0  0  0  0  0  0
  -25.9309  -11.6505   20.5765 N   0  0  0  0  0  0
  -22.0498  -12.8214   22.0394 N   0  0  0  0  0  0
  -25.4286  -15.1891   20.4156 N   0  0  0  0  0  0
  -31.8581  -14.5953   20.0784 O   0  0  0  0  0  0
  -21.6644   -6.8867   21.4233 O   0  0  0  0  0  0
  -22.3557  -14.5563   20.6726 O   0  0  0  0  0  0
  -24.6128  -31.8687   23.2122 C   0  0  0  0  0  0
  -25.9022  -32.4832   23.8413 C   0  0  1  0  0  0
  -27.2398  -27.4506   20.0707 C   0  0  0  0  0  0
  -25.5874  -33.8634   24.2328 N   0  0  0  0  0  0
  -23.3990  -30.4933   21.5532 C   0  0  2  0  0  0
  -24.8436  -28.9636   20.1129 C   0  0  0  0  0  0
  -22.7381  -29.4666   22.5004 C   0  0  0  0  0  0
  -18.0266  -28.1381   22.8498 C   0  0  0  0  0  0
  -24.1482  -36.7318   23.2638 C   0  0  0  0  0  0
  -25.9274  -30.8374   21.3640 C   0  0  0  0  0  0
  -26.0031  -29.4735   20.7080 C   0  0  0  0  0  0
  -27.1985  -28.7207   20.6906 C   0  0  0  0  0  0
  -26.0499  -26.9461   19.4913 C   0  0  0  0  0  0
  -24.8611  -27.6976   19.5067 C   0  0  0  0  0  0
  -23.6041  -29.8260   20.1677 C   0  0  0  0  0  0
  -25.4110  -36.3126   24.0335 C   0  0  1  0  0  0
  -20.5843  -28.3669   23.1332 C   0  0  2  0  0  0
  -20.6749  -26.9398   22.5451 C   0  0  0  0  0  0
  -19.5749  -26.6387   21.5222 C   0  0  0  0  0  0
  -18.1907  -26.7946   22.1596 C   0  0  0  0  0  0
  -19.1508  -28.8842   23.2913 C   0  0  0  0  0  0
  -18.9437  -30.1446   23.8923 C   0  0  0  0  0  0
  -17.6444  -30.6580   24.0583 C   0  0  0  0  0  0
  -25.9038  -34.9486   23.5134 C   0  0  0  0  0  0
  -16.5343  -29.9086   23.6328 C   0  0  0  0  0  0
  -16.7261  -28.6503   23.0355 C   0  0  0  0  0  0
  -26.4447  -31.6616   25.0741 C   0  0  0  0  0  0
  -25.3705  -31.3718   26.1476 C   0  0  0  0  0  0
  -27.0274  -30.3059   24.6127 C   0  0  0  0  0  0
  -27.6034  -32.4334   25.7477 C   0  0  0  0  0  0
  -27.5600  -37.1797   24.8444 C   0  0  0  0  0  0
  -21.4113  -29.3023   22.3732 N   0  0  0  0  0  0
  -26.4297  -37.3809   23.9417 N   0  0  0  0  0  0
  -24.6642  -31.0814   22.1007 N   0  0  0  0  0  0
  -23.4156  -28.8210   23.3041 O   0  0  0  0  0  0
  -28.4292  -26.7484   20.1057 O   0  0  0  0  0  0
  -26.5602  -34.8927   22.4697 O   0  0  0  0  0  0
  -23.5326  -32.1432   23.7528 O   0  0  0  0  0  0
  -30.9183  -24.5742   19.6561 C   0  0  0  0  0  0
  -31.5999  -23.4280   20.1212 C   0  0  0  0  0  0
  -29.5110  -24.5740   19.6772 C   0  0  0  0  0  0
  -30.8021  -22.3551   20.5993 C   0  0  0  0  0  0
  -33.8933  -24.0206   18.9855 C   0  0  0  0  0  0
  -33.8841  -22.5214   19.1577 C   0  0  0  0  0  0
  -30.8046  -16.1401   22.3273 C   0  0  0  0  0  0
  -30.0082  -16.7318   20.5024 C   0  0  0  0  0  0
  -33.1034  -23.3939   20.1160 C   0  0  0  0  0  0
  -30.2395  -17.4640   21.8179 C   0  0  0  0  0  0
  -31.4402  -21.0678   21.1336 C   0  0  0  0  0  0
  -28.7162  -25.7499   19.1151 C   0  0  0  0  0  0
  -31.1320  -18.7169   21.8639 C   0  0  0  0  0  0
  -28.8072  -23.5147   20.1556 N   0  0  0  0  0  0
  -29.4431  -22.4275   20.6133 N   0  0  0  0  0  0
  -30.1267  -15.4466   21.2187 N   0  0  0  0  0  0
  -30.4944  -19.9401   21.3178 N   0  3  0  0  0  0
  -31.4541  -12.3528   19.1302 H   0  0  0  0  0  0
  -30.2735  -11.2786   19.8211 H   0  0  0  0  0  0
  -29.7256  -11.7979   17.4168 H   0  0  0  0  0  0
  -29.6633  -13.5018   17.7861 H   0  0  0  0  0  0
  -27.8178  -11.3189   18.8115 H   0  0  0  0  0  0
  -27.3619  -12.6570   17.7887 H   0  0  0  0  0  0
  -27.7034  -14.2590   19.5797 H   0  0  0  0  0  0
  -28.6663  -11.9789   21.3764 H   0  0  0  0  0  0
  -28.4717  -13.6362   21.8601 H   0  0  0  0  0  0
  -25.2727   -9.5723   22.4749 H   0  0  0  0  0  0
  -23.9997   -7.4655   22.7479 H   0  0  0  0  0  0
  -21.0823   -8.8737   19.8951 H   0  0  0  0  0  0
  -22.3637  -10.9658   19.6160 H   0  0  0  0  0  0
  -21.2003   -7.6129   23.9708 H   0  0  0  0  0  0
  -21.1488   -6.0515   25.9082 H   0  0  0  0  0  0
  -22.0594   -2.7594   23.2852 H   0  0  0  0  0  0
  -22.4110  -11.9859   22.4744 H   0  0  0  0  0  0
  -21.1117  -13.1245   22.2601 H   0  0  0  0  0  0
  -24.6660  -15.8486   20.5327 H   0  0  0  0  0  0
  -26.2959  -15.6297   20.1341 H   0  0  0  0  0  0
  -26.7097  -32.5550   23.1189 H   0  0  0  0  0  0
  -25.0032  -33.9804   25.0479 H   0  0  0  0  0  0
  -22.6889  -31.3113   21.4164 H   0  0  0  0  0  0
  -23.3759  -35.9629   23.3281 H   0  0  0  0  0  0
  -24.3574  -36.8961   22.2056 H   0  0  0  0  0  0
  -23.7201  -37.6498   23.6675 H   0  0  0  0  0  0
  -26.0406  -31.6061   20.5987 H   0  0  0  0  0  0
  -26.8150  -30.8893   21.9838 H   0  0  0  0  0  0
  -28.0944  -29.1128   21.1509 H   0  0  0  0  0  0
  -25.9896  -25.9655   19.0478 H   0  0  0  0  0  0
  -23.9643  -27.2923   19.0592 H   0  0  0  0  0  0
  -23.7030  -30.6012   19.4067 H   0  0  0  0  0  0
  -22.7294  -29.2415   19.8773 H   0  0  0  0  0  0
  -25.1279  -36.2001   25.0826 H   0  0  0  0  0  0
  -20.9951  -28.3248   24.1450 H   0  0  0  0  0  0
  -20.5623  -26.2276   23.3638 H   0  0  0  0  0  0
  -21.6630  -26.7415   22.1284 H   0  0  0  0  0  0
  -19.6910  -25.6297   21.1245 H   0  0  0  0  0  0
  -19.6720  -27.3201   20.6758 H   0  0  0  0  0  0
  -17.4209  -26.6765   21.3956 H   0  0  0  0  0  0
  -18.0244  -26.0052   22.8943 H   0  0  0  0  0  0
  -19.7905  -30.7263   24.2315 H   0  0  0  0  0  0
  -17.4985  -31.6249   24.5199 H   0  0  0  0  0  0
  -15.5342  -30.3003   23.7620 H   0  0  0  0  0  0
  -15.8662  -28.0826   22.7067 H   0  0  0  0  0  0
  -24.5990  -30.6917   25.7842 H   0  0  0  0  0  0
  -24.8748  -32.2852   26.4779 H   0  0  0  0  0  0
  -25.8077  -30.9055   27.0314 H   0  0  0  0  0  0
  -26.2825  -29.6831   24.1164 H   0  0  0  0  0  0
  -27.4005  -29.7295   25.4600 H   0  0  0  0  0  0
  -27.8672  -30.4372   23.9298 H   0  0  0  0  0  0
  -27.2672  -33.3627   26.2087 H   0  0  0  0  0  0
  -28.3807  -32.6906   25.0270 H   0  0  0  0  0  0
  -28.0741  -31.8439   26.5355 H   0  0  0  0  0  0
  -28.2598  -38.0116   24.7542 H   0  0  0  0  0  0
  -28.1113  -36.2653   24.6201 H   0  0  0  0  0  0
  -27.2328  -37.1377   25.8844 H   0  0  0  0  0  0
  -20.9271  -29.8750   21.6962 H   0  0  0  0  0  0
  -26.0189  -38.2876   24.1465 H   0  0  0  0  0  0
  -31.4542  -25.4316   19.2744 H   0  0  0  0  0  0
  -33.3568  -24.4169   18.1239 H   0  0  0  0  0  0
  -34.8154  -24.5413   19.2389 H   0  0  0  0  0  0
  -34.8097  -22.0710   19.5125 H   0  0  0  0  0  0
  -33.3314  -21.9392   18.4223 H   0  0  0  0  0  0
  -30.4429  -15.8687   23.3196 H   0  0  0  0  0  0
  -31.8959  -16.0922   22.2941 H   0  0  0  0  0  0
  -30.7913  -16.9220   19.7627 H   0  0  0  0  0  0
  -29.0220  -16.9143   20.0732 H   0  0  0  0  0  0
  -33.4991  -23.5088   21.1242 H   0  0  0  0  0  0
  -29.2820  -17.6379   22.3127 H   0  0  0  0  0  0
  -31.9360  -21.2977   22.0769 H   0  0  0  0  0  0
  -32.2153  -20.7516   20.4351 H   0  0  0  0  0  0
  -27.8564  -25.3368   18.5977 H   0  0  0  0  0  0
  -29.3112  -26.2300   18.3367 H   0  0  0  0  0  0
  -32.0553  -18.5215   21.3157 H   0  0  0  0  0  0
  -31.4355  -18.9190   22.8921 H   0  0  0  0  0  0
  -30.0792  -19.7484   20.4221 H   0  0  0  0  0  0
  -29.7575  -20.2534   21.9276 H   0  0  0  0  0  0
  1 25  1  0  0  0
  1 30  2  0  0  0
  1 86  1  0  0  0
  2  3  1  0  0  0
  2 25  1  0  0  0
  2 88  1  0  0  0
  2 89  1  0  0  0
  3  4  1  0  0  0
  3 90  1  0  0  0
  3 91  1  0  0  0
  4  5  1  0  0  0
  4 92  1  0  0  0
  4 93  1  0  0  0
  5  6  1  0  0  0
  5 26  1  0  0  0
  5 94  1  0  0  0
  6 25  1  0  0  0
  6 95  1  0  0  0
  6 96  1  0  0  0
  7  8  2  0  0  0
  7 26  1  0  0  0
  7 29  1  0  0  0
  8  9  1  0  0  0
  8 22  1  0  0  0
  9 10  1  0  0  0
  9 27  2  0  0  0
 10 11  2  0  0  0
 10 15  1  0  0  0
 11 12  1  0  0  0
 11 97  1  0  0  0
 12 13  2  0  0  0
 12 98  1  0  0  0
 13 14  1  0  0  0
 13 31  1  0  0  0
 14 15  2  0  0  0
 14 99  1  0  0  0
 15100  1  0  0  0
 16 17  2  0  0  0
 16 21  1  0  0  0
 16 31  1  0  0  0
 17 18  1  0  0  0
 17101  1  0  0  0
 18 19  2  0  0  0
 18102  1  0  0  0
 19 20  1  0  0  0
 19 24  1  0  0  0
 20 21  2  0  0  0
 20103  1  0  0  0
 21 23  1  0  0  0
 22 28  1  0  0  0
 22 32  2  0  0  0
 26 27  1  0  0  0
 28104  1  0  0  0
 28105  1  0  0  0
 29106  1  0  0  0
 29107  1  0  0  0
 33 34  1  0  0  0
 33 66  1  0  0  0
 33 70  2  0  0  0
 34 36  1  0  0  0
 34 59  1  0  0  0
 34108  1  0  0  0
 35 44  2  0  0  0
 35 45  1  0  0  0
 35 68  1  0  0  0
 36 56  1  0  0  0
 36109  1  0  0  0
 37 39  1  0  0  0
 37 47  1  0  0  0
 37 66  1  0  0  0
 37110  1  0  0  0
 38 43  2  0  0  0
 38 46  1  0  0  0
 38 47  1  0  0  0
 39 64  1  0  0  0
 39 67  2  0  0  0
 40 52  1  0  0  0
 40 53  2  0  0  0
 40 58  1  0  0  0
 41111  1  0  0  0
 41112  1  0  0  0
 41113  1  0  0  0
 41 48  1  0  0  0
 42 43  1  0  0  0
 42 66  1  0  0  0
 42114  1  0  0  0
 42115  1  0  0  0
 43 44  1  0  0  0
 44116  1  0  0  0
 45 46  2  0  0  0
 45117  1  0  0  0
 46118  1  0  0  0
 47119  1  0  0  0
 47120  1  0  0  0
 48 56  1  0  0  0
 48 65  1  0  0  0
 48121  1  0  0  0
 49 50  1  0  0  0
 49 53  1  0  0  0
 49 64  1  0  0  0
 49122  1  0  0  0
 50 51  1  0  0  0
 50123  1  0  0  0
 50124  1  0  0  0
 51 52  1  0  0  0
 51125  1  0  0  0
 51126  1  0  0  0
 52127  1  0  0  0
 52128  1  0  0  0
 53 54  1  0  0  0
 54 55  2  0  0  0
 54129  1  0  0  0
 55 57  1  0  0  0
 55130  1  0  0  0
 56 69  2  0  0  0
 57 58  2  0  0  0
 57131  1  0  0  0
 58132  1  0  0  0
 59 60  1  0  0  0
 59 61  1  0  0  0
 59 62  1  0  0  0
 60133  1  0  0  0
 60134  1  0  0  0
 60135  1  0  0  0
 61136  1  0  0  0
 61137  1  0  0  0
 61138  1  0  0  0
 62139  1  0  0  0
 62140  1  0  0  0
 62141  1  0  0  0
 63 65  1  0  0  0
 63142  1  0  0  0
 63143  1  0  0  0
 63144  1  0  0  0
 64145  1  0  0  0
 65146  1  0  0  0
 68 82  1  0  0  0
 71 72  2  0  0  0
 71 73  1  0  0  0
 71147  1  0  0  0
 72 74  1  0  0  0
 72 79  1  0  0  0
 73 82  1  0  0  0
 73 84  2  0  0  0
 74 81  1  0  0  0
 74 85  2  0  0  0
 75 76  1  0  0  0
 75 79  1  0  0  0
 75148  1  0  0  0
 75149  1  0  0  0
 76 79  1  0  0  0
 76150  1  0  0  0
 76151  1  0  0  0
 77 80  1  0  0  0
 77 86  1  0  0  0
 77152  1  0  0  0
 77153  1  0  0  0
 78 80  1  0  0  0
 78 86  1  0  0  0
 78154  1  0  0  0
 78155  1  0  0  0
 79156  1  0  0  0
 80 83  1  0  0  0
 80157  1  0  0  0
 81 87  1  0  0  0
 81158  1  0  0  0
 81159  1  0  0  0
 82160  1  0  0  0
 82161  1  0  0  0
 83 87  1  0  0  0
 83162  1  0  0  0
 83163  1  0  0  0
 84 85  1  0  0  0
 87164  1  0  0  0
 87165  1  0  0  0
M  CHG  1  87   1
M  ISO  4   1 100  68 101  82 101  86 100
M  END
> <chiral flag>
0

> <version>
0

> <s_m_source_file>
/data/baiqing/PycharmProjects/Reinvent-master-3.2/result/LINK_invent/BTK/process_docking_weight1_custom_sum_contain_oxygen_bond_distance_aromatic_linkinvent_7_9_3/rearranged_h_0196.sdf

> <i_m_source_file_index>
43

> <r_mmod_Potential_Energy-OPLS-2005>
-109.244590759277

> <r_mmod_Stretch_Energy-OPLS-2005>
38.3520698547363

> <r_mmod_Bend_Energy-OPLS-2005>
111.007804870605

> <r_mmod_Torsional_Energy-OPLS-2005>
305.716644287109

> <r_mmod_Improper_Torsional_Energy-OPLS-2005>
10.7700710296631

> <r_mmod_Van_der_Waal_Energy-OPLS-2005>
159.196517944336

> <r_mmod_Electrostatic_Energy-OPLS-2005>
-268.321136474609

> <r_mmod_Solvation_Energy-OPLS-2005>
-477.111267089844

> <b_mmod_Minimization_Converged-OPLS-2005>
0

> <r_mmod_RMS_Derivative-OPLS-2005>
2.00037956237793

$$$$
43
                    3D
 Structure written by MMmdl.
168178  0  0  1  0            999 V2000
  -30.5938  -14.9472   20.4175 C   0  0  0  0  0  0
  -30.4262  -12.5927   19.4948 C   0  0  0  0  0  0
  -29.5137  -12.5169   18.2519 C   0  0  0  0  0  0
  -28.0498  -12.3063   18.6788 C   0  0  0  0  0  0
  -27.6246  -13.2537   19.8316 C   0  0  2  0  0  0
  -28.6696  -13.3161   20.9654 C   0  0  0  0  0  0
  -25.2452  -13.8237   20.5728 C   0  0  0  0  0  0
  -24.1767  -13.0452   20.9227 C   0  0  0  0  0  0
  -24.6387  -11.6940   20.8756 C   0  0  0  0  0  0
  -23.9074  -10.4301   21.0410 C   0  0  0  0  0  0
  -24.3624   -9.4215   21.9183 C   0  0  0  0  0  0
  -23.6302   -8.2248   22.0749 C   0  0  0  0  0  0
  -22.4284   -8.0281   21.3548 C   0  0  0  0  0  0
  -21.9918   -9.0259   20.4653 C   0  0  0  0  0  0
  -22.7246  -10.2138   20.3065 C   0  0  0  0  0  0
  -21.6857   -6.0732   22.5274 C   0  0  0  0  0  0
  -21.4017   -6.5634   23.8206 C   0  0  0  0  0  0
  -21.3660   -5.6786   24.9167 C   0  0  0  0  0  0
  -21.6046   -4.3049   24.7223 C   0  0  0  0  0  0
  -21.8814   -3.8143   23.4342 C   0  0  0  0  0  0
  -21.9192   -4.6960   22.3400 C   0  0  0  0  0  0
  -22.7788  -13.5225   21.1878 C   0  0  0  0  0  0
  -22.1661   -4.2142   21.0978 F   0  0  0  0  0  0
  -21.5635   -3.4535   25.7739 F   0  0  0  0  0  0
  -29.9357  -13.7188   20.3440 N   0  0  0  0  0  0
  -26.2873  -12.9479   20.3252 N   0  0  0  0  0  0
  -25.9322  -11.6602   20.5744 N   0  0  0  0  0  0
  -22.0438  -12.8219   22.0436 N   0  0  0  0  0  0
  -25.4150  -15.1968   20.4161 N   0  0  0  0  0  0
  -31.8090  -14.9113   20.1905 O   0  0  0  0  0  0
  -21.6643   -6.8881   21.4240 O   0  0  0  0  0  0
  -22.3465  -14.5523   20.6710 O   0  0  0  0  0  0
  -24.6457  -31.8436   23.1880 C   0  0  0  0  0  0
  -25.9220  -32.4695   23.8273 C   0  0  1  0  0  0
  -27.2107  -27.1204   20.1485 C   0  0  0  0  0  0
  -25.5962  -33.8499   24.2185 N   0  0  0  0  0  0
  -23.4494  -30.4638   21.5344 C   0  0  2  0  0  0
  -24.8970  -28.8905   20.1101 C   0  0  0  0  0  0
  -22.7577  -29.4545   22.4855 C   0  0  0  0  0  0
  -18.0308  -28.1390   22.8478 C   0  0  0  0  0  0
  -24.1493  -36.7256   23.2641 C   0  0  0  0  0  0
  -26.0075  -30.7119   21.3889 C   0  0  0  0  0  0
  -26.0772  -29.3228   20.7285 C   0  0  0  0  0  0
  -27.2361  -28.4556   20.7281 C   0  0  0  0  0  0
  -26.0026  -26.7969   19.4905 C   0  0  0  0  0  0
  -24.8739  -27.6423   19.4747 C   0  0  0  0  0  0
  -23.6759  -29.7959   20.1535 C   0  0  0  0  0  0
  -25.4120  -36.3032   24.0315 C   0  0  1  0  0  0
  -20.5922  -28.3721   23.1229 C   0  0  2  0  0  0
  -20.6791  -26.9425   22.5397 C   0  0  0  0  0  0
  -19.5759  -26.6376   21.5211 C   0  0  0  0  0  0
  -18.1944  -26.7926   22.1630 C   0  0  0  0  0  0
  -19.1564  -28.8874   23.2843 C   0  0  0  0  0  0
  -18.9478  -30.1469   23.8869 C   0  0  0  0  0  0
  -17.6475  -30.6589   24.0552 C   0  0  0  0  0  0
  -25.9078  -34.9409   23.5061 C   0  0  0  0  0  0
  -16.5367  -29.9079   23.6336 C   0  0  0  0  0  0
  -16.7291  -28.6496   23.0358 C   0  0  0  0  0  0
  -26.4527  -31.6567   25.0724 C   0  0  0  0  0  0
  -25.3710  -31.3776   26.1424 C   0  0  0  0  0  0
  -27.0382  -30.2957   24.6320 C   0  0  0  0  0  0
  -27.6060  -32.4330   25.7502 C   0  0  0  0  0  0
  -27.5574  -37.1783   24.8460 C   0  0  0  0  0  0
  -21.4268  -29.3051   22.3605 N   0  0  0  0  0  0
  -26.4283  -37.3746   23.9408 N   0  0  0  0  0  0
  -24.7209  -31.0275   22.0922 N   0  0  0  0  0  0
  -23.4211  -28.8092   23.3010 O   0  0  0  0  0  0
  -28.2495  -26.1164   20.2175 O   0  0  0  0  0  0
  -26.5662  -34.8908   22.4639 O   0  0  0  0  0  0
  -23.5571  -32.1317   23.7087 O   0  0  0  0  0  0
  -28.9516  -23.3200   20.2818 C   0  0  0  0  0  0
  -29.6183  -21.0322   20.3254 C   0  0  0  0  0  0
  -31.1194  -22.7278   20.4233 C   0  0  0  0  0  0
  -30.6679  -18.7229   19.7236 C   0  0  0  0  0  0
  -28.6027  -18.5490   20.8755 C   0  0  0  0  0  0
  -30.3624  -17.2229   19.2386 C   0  0  0  0  0  0
  -29.1805  -17.0546   21.2818 C   0  0  0  0  0  0
  -32.8839  -24.4213   20.8801 C   0  0  0  0  0  0
  -33.3896  -22.4085   21.3179 C   0  0  0  0  0  0
  -34.1672  -23.7335   21.3796 C   0  0  0  0  0  0
  -35.3263  -25.3885   22.8066 C   0  0  0  0  0  0
  -27.9062  -24.5889   20.1169 C   0  0  0  0  0  0
  -28.5933  -21.9614   20.2678 N   0  0  0  0  0  0
  -30.2192  -23.6990   20.3658 N   0  0  0  0  0  0
  -30.8780  -21.4231   20.4009 N   0  0  0  0  0  0
  -29.5219  -19.5410   20.2230 N   0  0  0  0  0  0
  -32.4897  -23.1006   20.4058 N   0  0  0  0  0  0
  -29.9223  -16.2089   20.2617 N   0  0  0  0  0  0
  -34.5691  -24.1240   22.7500 N   0  3  0  0  0  0
  -31.4618  -12.7264   19.1788 H   0  0  0  0  0  0
  -30.4063  -11.6534   20.0509 H   0  0  0  0  0  0
  -29.8364  -11.7092   17.5933 H   0  0  0  0  0  0
  -29.5998  -13.4396   17.6748 H   0  0  0  0  0  0
  -27.9537  -11.2698   19.0048 H   0  0  0  0  0  0
  -27.3828  -12.4186   17.8236 H   0  0  0  0  0  0
  -27.5805  -14.2487   19.3869 H   0  0  0  0  0  0
  -28.7648  -12.3555   21.4739 H   0  0  0  0  0  0
  -28.3709  -14.0432   21.7215 H   0  0  0  0  0  0
  -25.2770   -9.5693   22.4749 H   0  0  0  0  0  0
  -24.0010   -7.4640   22.7472 H   0  0  0  0  0  0
  -21.0844   -8.8793   19.8967 H   0  0  0  0  0  0
  -22.3710  -10.9677   19.6175 H   0  0  0  0  0  0
  -21.2008   -7.6140   23.9708 H   0  0  0  0  0  0
  -21.1491   -6.0516   25.9069 H   0  0  0  0  0  0
  -22.0596   -2.7606   23.2842 H   0  0  0  0  0  0
  -22.4064  -11.9899   22.4851 H   0  0  0  0  0  0
  -21.1056  -13.1249   22.2630 H   0  0  0  0  0  0
  -24.6513  -15.8542   20.5294 H   0  0  0  0  0  0
  -26.2695  -15.6332   20.0953 H   0  0  0  0  0  0
  -26.7289  -32.5289   23.0996 H   0  0  0  0  0  0
  -25.0082  -33.9610   25.0316 H   0  0  0  0  0  0
  -22.7530  -31.2910   21.3812 H   0  0  0  0  0  0
  -23.3766  -35.9580   23.3281 H   0  0  0  0  0  0
  -24.3581  -36.8911   22.2062 H   0  0  0  0  0  0
  -23.7241  -37.6443   23.6689 H   0  0  0  0  0  0
  -26.1663  -31.4671   20.6179 H   0  0  0  0  0  0
  -26.8765  -30.7595   22.0333 H   0  0  0  0  0  0
  -28.1352  -28.7821   21.2312 H   0  0  0  0  0  0
  -25.8848  -25.8479   18.9924 H   0  0  0  0  0  0
  -23.9743  -27.3071   18.9763 H   0  0  0  0  0  0
  -23.8161  -30.5715   19.3999 H   0  0  0  0  0  0
  -22.7888  -29.2419   19.8406 H   0  0  0  0  0  0
  -25.1313  -36.1856   25.0808 H   0  0  0  0  0  0
  -21.0010  -28.3308   24.1351 H   0  0  0  0  0  0
  -20.5689  -26.2335   23.3617 H   0  0  0  0  0  0
  -21.6654  -26.7430   22.1192 H   0  0  0  0  0  0
  -19.6918  -25.6279   21.1261 H   0  0  0  0  0  0
  -19.6689  -27.3168   20.6726 H   0  0  0  0  0  0
  -17.4209  -26.6659   21.4040 H   0  0  0  0  0  0
  -18.0354  -26.0077   22.9039 H   0  0  0  0  0  0
  -19.7953  -30.7290   24.2224 H   0  0  0  0  0  0
  -17.5030  -31.6269   24.5154 H   0  0  0  0  0  0
  -15.5364  -30.2967   23.7678 H   0  0  0  0  0  0
  -15.8693  -28.0806   22.7084 H   0  0  0  0  0  0
  -24.5814  -30.7223   25.7722 H   0  0  0  0  0  0
  -24.8995  -32.2981   26.4880 H   0  0  0  0  0  0
  -25.7973  -30.8878   27.0188 H   0  0  0  0  0  0
  -26.2997  -29.6681   24.1318 H   0  0  0  0  0  0
  -27.3967  -29.7261   25.4903 H   0  0  0  0  0  0
  -27.8923  -30.4177   23.9655 H   0  0  0  0  0  0
  -27.2648  -33.3629   26.2059 H   0  0  0  0  0  0
  -28.3876  -32.6896   25.0340 H   0  0  0  0  0  0
  -28.0724  -31.8478   26.5434 H   0  0  0  0  0  0
  -28.2583  -38.0092   24.7522 H   0  0  0  0  0  0
  -28.1083  -36.2622   24.6267 H   0  0  0  0  0  0
  -27.2295  -37.1408   25.8866 H   0  0  0  0  0  0
  -20.9477  -29.8769   21.6792 H   0  0  0  0  0  0
  -26.0150  -38.2816   24.1417 H   0  0  0  0  0  0
  -31.1040  -19.2589   18.8788 H   0  0  0  0  0  0
  -31.4421  -18.7086   20.4917 H   0  0  0  0  0  0
  -28.1784  -19.0196   21.7622 H   0  0  0  0  0  0
  -27.7632  -18.4109   20.1922 H   0  0  0  0  0  0
  -31.2555  -16.8611   18.7268 H   0  0  0  0  0  0
  -29.5981  -17.2502   18.4611 H   0  0  0  0  0  0
  -28.3505  -16.4583   21.6611 H   0  0  0  0  0  0
  -29.8527  -17.1764   22.1329 H   0  0  0  0  0  0
  -33.0348  -25.1483   20.0814 H   0  0  0  0  0  0
  -32.2371  -24.8015   21.6739 H   0  0  0  0  0  0
  -32.9005  -22.1245   22.2525 H   0  0  0  0  0  0
  -33.9309  -21.5778   20.8637 H   0  0  0  0  0  0
  -34.9864  -23.7666   20.6576 H   0  0  0  0  0  0
  -35.6397  -25.5979   23.8294 H   0  0  0  0  0  0
  -34.7201  -26.2258   22.4604 H   0  0  0  0  0  0
  -36.2213  -25.3347   22.1857 H   0  0  0  0  0  0
  -27.0960  -24.4011   20.8215 H   0  0  0  0  0  0
  -27.4789  -24.4300   19.1281 H   0  0  0  0  0  0
  -35.1627  -23.4035   23.1284 H   0  0  0  0  0  0
  -33.7661  -24.1961   23.3526 H   0  0  0  0  0  0
  1 25  1  0  0  0
  1 30  2  0  0  0
  1 88  1  0  0  0
  2  3  1  0  0  0
  2 25  1  0  0  0
  2 90  1  0  0  0
  2 91  1  0  0  0
  3  4  1  0  0  0
  3 92  1  0  0  0
  3 93  1  0  0  0
  4  5  1  0  0  0
  4 94  1  0  0  0
  4 95  1  0  0  0
  5  6  1  0  0  0
  5 26  1  0  0  0
  5 96  1  0  0  0
  6 25  1  0  0  0
  6 97  1  0  0  0
  6 98  1  0  0  0
  7  8  2  0  0  0
  7 26  1  0  0  0
  7 29  1  0  0  0
  8  9  1  0  0  0
  8 22  1  0  0  0
  9 10  1  0  0  0
  9 27  2  0  0  0
 10 11  2  0  0  0
 10 15  1  0  0  0
 11 12  1  0  0  0
 11 99  1  0  0  0
 12 13  2  0  0  0
 12100  1  0  0  0
 13 14  1  0  0  0
 13 31  1  0  0  0
 14 15  2  0  0  0
 14101  1  0  0  0
 15102  1  0  0  0
 16 17  2  0  0  0
 16 21  1  0  0  0
 16 31  1  0  0  0
 17 18  1  0  0  0
 17103  1  0  0  0
 18 19  2  0  0  0
 18104  1  0  0  0
 19 20  1  0  0  0
 19 24  1  0  0  0
 20 21  2  0  0  0
 20105  1  0  0  0
 21 23  1  0  0  0
 22 28  1  0  0  0
 22 32  2  0  0  0
 26 27  1  0  0  0
 28106  1  0  0  0
 28107  1  0  0  0
 29108  1  0  0  0
 29109  1  0  0  0
 33 34  1  0  0  0
 33 66  1  0  0  0
 33 70  2  0  0  0
 34 36  1  0  0  0
 34 59  1  0  0  0
 34110  1  0  0  0
 35 44  2  0  0  0
 35 45  1  0  0  0
 35 68  1  0  0  0
 36 56  1  0  0  0
 36111  1  0  0  0
 37 39  1  0  0  0
 37 47  1  0  0  0
 37 66  1  0  0  0
 37112  1  0  0  0
 38 43  2  0  0  0
 38 46  1  0  0  0
 38 47  1  0  0  0
 39 64  1  0  0  0
 39 67  2  0  0  0
 40 52  1  0  0  0
 40 53  2  0  0  0
 40 58  1  0  0  0
 41113  1  0  0  0
 41114  1  0  0  0
 41115  1  0  0  0
 41 48  1  0  0  0
 42 43  1  0  0  0
 42 66  1  0  0  0
 42116  1  0  0  0
 42117  1  0  0  0
 43 44  1  0  0  0
 44118  1  0  0  0
 45 46  2  0  0  0
 45119  1  0  0  0
 46120  1  0  0  0
 47121  1  0  0  0
 47122  1  0  0  0
 48 56  1  0  0  0
 48 65  1  0  0  0
 48123  1  0  0  0
 49 50  1  0  0  0
 49 53  1  0  0  0
 49 64  1  0  0  0
 49124  1  0  0  0
 50 51  1  0  0  0
 50125  1  0  0  0
 50126  1  0  0  0
 51 52  1  0  0  0
 51127  1  0  0  0
 51128  1  0  0  0
 52129  1  0  0  0
 52130  1  0  0  0
 53 54  1  0  0  0
 54 55  2  0  0  0
 54131  1  0  0  0
 55 57  1  0  0  0
 55132  1  0  0  0
 56 69  2  0  0  0
 57 58  2  0  0  0
 57133  1  0  0  0
 58134  1  0  0  0
 59 60  1  0  0  0
 59 61  1  0  0  0
 59 62  1  0  0  0
 60135  1  0  0  0
 60136  1  0  0  0
 60137  1  0  0  0
 61138  1  0  0  0
 61139  1  0  0  0
 61140  1  0  0  0
 62141  1  0  0  0
 62142  1  0  0  0
 62143  1  0  0  0
 63 65  1  0  0  0
 63144  1  0  0  0
 63145  1  0  0  0
 63146  1  0  0  0
 64147  1  0  0  0
 65148  1  0  0  0
 68 82  1  0  0  0
 71 82  1  0  0  0
 71 83  2  0  0  0
 71 84  1  0  0  0
 72 83  1  0  0  0
 72 85  2  0  0  0
 72 86  1  0  0  0
 73 84  2  0  0  0
 73 85  1  0  0  0
 73 87  1  0  0  0
 74 76  1  0  0  0
 74 86  1  0  0  0
 74149  1  0  0  0
 74150  1  0  0  0
 75 77  1  0  0  0
 75 86  1  0  0  0
 75151  1  0  0  0
 75152  1  0  0  0
 76 88  1  0  0  0
 76153  1  0  0  0
 76154  1  0  0  0
 77 88  1  0  0  0
 77155  1  0  0  0
 77156  1  0  0  0
 78 80  1  0  0  0
 78 87  1  0  0  0
 78157  1  0  0  0
 78158  1  0  0  0
 79 80  1  0  0  0
 79 87  1  0  0  0
 79159  1  0  0  0
 79160  1  0  0  0
 80 89  1  0  0  0
 80161  1  0  0  0
 81 89  1  0  0  0
 81162  1  0  0  0
 81163  1  0  0  0
 81164  1  0  0  0
 82165  1  0  0  0
 82166  1  0  0  0
 89167  1  0  0  0
 89168  1  0  0  0
M  CHG  1  89   1
M  ISO  4   1 100  68 101  82 101  88 100
M  END
> <chiral flag>
0

> <version>
0

> <s_m_source_file>
/data/baiqing/PycharmProjects/Reinvent-master-3.2/result/LINK_invent/BTK/process_docking_weight1_custom_sum_contain_oxygen_bond_distance_aromatic_linkinvent_7_9_3/rearranged_h_0196.sdf

> <i_m_source_file_index>
44

> <r_mmod_Potential_Energy-OPLS-2005>
-341.406951904297

> <r_mmod_Stretch_Energy-OPLS-2005>
237.924606323242

> <r_mmod_Bend_Energy-OPLS-2005>
310.023803710938

> <r_mmod_Torsional_Energy-OPLS-2005>
374.273803710938

> <r_mmod_Improper_Torsional_Energy-OPLS-2005>
25.568416595459

> <r_mmod_Van_der_Waal_Energy-OPLS-2005>
171.302169799805

> <r_mmod_Electrostatic_Energy-OPLS-2005>
-1116.37512207031

> <r_mmod_Solvation_Energy-OPLS-2005>
-544.67236328125

> <b_mmod_Minimization_Converged-OPLS-2005>
0

> <r_mmod_RMS_Derivative-OPLS-2005>
1.37523663043976

$$$$
44
                    3D
 Structure written by MMmdl.
149158  0  0  1  0            999 V2000
  -30.4970  -15.1123   20.3918 C   0  0  0  0  0  0
  -30.4350  -12.7027   19.5105 C   0  0  0  0  0  0
  -29.5260  -12.5516   18.2686 C   0  0  0  0  0  0
  -28.0668  -12.3063   18.6924 C   0  0  0  0  0  0
  -27.6184  -13.2624   19.8288 C   0  0  2  0  0  0
  -28.6580  -13.3766   20.9633 C   0  0  0  0  0  0
  -25.2433  -13.8227   20.5747 C   0  0  0  0  0  0
  -24.1756  -13.0439   20.9221 C   0  0  0  0  0  0
  -24.6390  -11.6933   20.8751 C   0  0  0  0  0  0
  -23.9078  -10.4302   21.0409 C   0  0  0  0  0  0
  -24.3628   -9.4219   21.9192 C   0  0  0  0  0  0
  -23.6299   -8.2252   22.0762 C   0  0  0  0  0  0
  -22.4289   -8.0285   21.3543 C   0  0  0  0  0  0
  -21.9921   -9.0262   20.4653 C   0  0  0  0  0  0
  -22.7247  -10.2142   20.3067 C   0  0  0  0  0  0
  -21.6857   -6.0739   22.5286 C   0  0  0  0  0  0
  -21.4015   -6.5647   23.8214 C   0  0  0  0  0  0
  -21.3662   -5.6805   24.9175 C   0  0  0  0  0  0
  -21.6036   -4.3067   24.7233 C   0  0  0  0  0  0
  -21.8818   -3.8153   23.4358 C   0  0  0  0  0  0
  -21.9192   -4.6965   22.3408 C   0  0  0  0  0  0
  -22.7782  -13.5213   21.1870 C   0  0  0  0  0  0
  -22.1665   -4.2153   21.0986 F   0  0  0  0  0  0
  -21.5624   -3.4552   25.7743 F   0  0  0  0  0  0
  -29.9046  -13.8364   20.3377 N   0  0  0  0  0  0
  -26.2854  -12.9483   20.3249 N   0  0  0  0  0  0
  -25.9336  -11.6600   20.5738 N   0  0  0  0  0  0
  -22.0428  -12.8210   22.0423 N   0  0  0  0  0  0
  -25.4103  -15.1960   20.4236 N   0  0  0  0  0  0
  -31.7159  -15.1181   20.1716 O   0  0  0  0  0  0
  -21.6641   -6.8888   21.4253 O   0  0  0  0  0  0
  -22.3477  -14.5518   20.6711 O   0  0  0  0  0  0
  -24.6558  -31.8332   23.1804 C   0  0  0  0  0  0
  -25.9272  -32.4640   23.8242 C   0  0  1  0  0  0
  -27.2192  -27.0199   20.1647 C   0  0  0  0  0  0
  -25.5982  -33.8453   24.2147 N   0  0  0  0  0  0
  -23.4673  -30.4477   21.5285 C   0  0  2  0  0  0
  -24.9193  -28.8564   20.1120 C   0  0  0  0  0  0
  -22.7635  -29.4476   22.4833 C   0  0  0  0  0  0
  -18.0319  -28.1396   22.8479 C   0  0  0  0  0  0
  -24.1500  -36.7230   23.2644 C   0  0  0  0  0  0
  -26.0321  -30.6683   21.3977 C   0  0  0  0  0  0
  -26.1017  -29.2689   20.7382 C   0  0  0  0  0  0
  -27.2496  -28.3702   20.7441 C   0  0  0  0  0  0
  -26.0081  -26.7412   19.4919 C   0  0  0  0  0  0
  -24.8920  -27.6100   19.4690 C   0  0  0  0  0  0
  -23.7021  -29.7725   20.1516 C   0  0  0  0  0  0
  -25.4135  -36.2995   24.0309 C   0  0  1  0  0  0
  -20.5937  -28.3733   23.1217 C   0  0  2  0  0  0
  -20.6799  -26.9424   22.5402 C   0  0  0  0  0  0
  -19.5765  -26.6373   21.5222 C   0  0  0  0  0  0
  -18.1951  -26.7933   22.1632 C   0  0  0  0  0  0
  -19.1577  -28.8886   23.2835 C   0  0  0  0  0  0
  -18.9478  -30.1487   23.8853 C   0  0  0  0  0  0
  -17.6468  -30.6586   24.0555 C   0  0  0  0  0  0
  -25.9087  -34.9374   23.5042 C   0  0  0  0  0  0
  -16.5359  -29.9073   23.6339 C   0  0  0  0  0  0
  -16.7300  -28.6496   23.0352 C   0  0  0  0  0  0
  -26.4550  -31.6541   25.0728 C   0  0  0  0  0  0
  -25.3703  -31.3755   26.1399 C   0  0  0  0  0  0
  -27.0441  -30.2921   24.6393 C   0  0  0  0  0  0
  -27.6072  -32.4326   25.7515 C   0  0  0  0  0  0
  -27.5564  -37.1798   24.8476 C   0  0  0  0  0  0
  -21.4313  -29.3038   22.3579 N   0  0  0  0  0  0
  -26.4299  -37.3712   23.9368 N   0  0  0  0  0  0
  -24.7397  -31.0076   22.0896 N   0  0  0  0  0  0
  -23.4212  -28.8022   23.3037 O   0  0  0  0  0  0
  -28.2295  -25.9530   20.2427 O   0  0  0  0  0  0
  -26.5672  -34.8892   22.4620 O   0  0  0  0  0  0
  -23.5639  -32.1252   23.6940 O   0  0  0  0  0  0
  -28.4711  -21.5232   20.1799 C   0  0  0  0  0  0
  -30.9383  -22.1252   20.7578 C   0  0  0  0  0  0
  -29.4222  -20.3772   20.3913 C   0  0  0  0  0  0
  -28.8310  -22.9857   20.2862 C   0  0  0  0  0  0
  -30.0191  -17.5684   19.4265 C   0  0  0  0  0  0
  -29.6629  -17.5102   21.3893 C   0  0  0  0  0  0
  -29.2771  -18.6688   20.3313 C   0  0  0  0  0  0
  -27.8919  -24.3903   20.0450 C   0  0  0  0  0  0
  -30.6673  -20.8103   20.6822 N   0  0  0  0  0  0
  -30.1307  -23.1832   20.5866 N   0  0  0  0  0  0
  -29.7477  -16.3694   20.3580 N   0  0  0  0  0  0
  -31.4637  -12.8827   19.1920 H   0  0  0  0  0  0
  -30.4643  -11.7788   20.0908 H   0  0  0  0  0  0
  -29.8768  -11.7355   17.6371 H   0  0  0  0  0  0
  -29.5822  -13.4574   17.6619 H   0  0  0  0  0  0
  -27.9930  -11.2716   19.0301 H   0  0  0  0  0  0
  -27.4000  -12.3944   17.8336 H   0  0  0  0  0  0
  -27.5525  -14.2458   19.3611 H   0  0  0  0  0  0
  -28.7924  -12.4296   21.4873 H   0  0  0  0  0  0
  -28.3260  -14.1050   21.7068 H   0  0  0  0  0  0
  -25.2780   -9.5687   22.4767 H   0  0  0  0  0  0
  -24.0002   -7.4650   22.7505 H   0  0  0  0  0  0
  -21.0841   -8.8779   19.8974 H   0  0  0  0  0  0
  -22.3699  -10.9678   19.6176 H   0  0  0  0  0  0
  -21.2005   -7.6160   23.9717 H   0  0  0  0  0  0
  -21.1484   -6.0536   25.9074 H   0  0  0  0  0  0
  -22.0588   -2.7622   23.2854 H   0  0  0  0  0  0
  -22.4070  -11.9891   22.4823 H   0  0  0  0  0  0
  -21.1044  -13.1239   22.2624 H   0  0  0  0  0  0
  -24.6436  -15.8480   20.5483 H   0  0  0  0  0  0
  -26.2708  -15.6475   20.1389 H   0  0  0  0  0  0
  -26.7351  -32.5203   23.0974 H   0  0  0  0  0  0
  -25.0141  -33.9557   25.0306 H   0  0  0  0  0  0
  -22.7767  -31.2780   21.3672 H   0  0  0  0  0  0
  -23.3765  -35.9568   23.3332 H   0  0  0  0  0  0
  -24.3567  -36.8835   22.2051 H   0  0  0  0  0  0
  -23.7284  -37.6443   23.6675 H   0  0  0  0  0  0
  -26.2028  -31.4178   20.6237 H   0  0  0  0  0  0
  -26.8959  -30.7207   22.0484 H   0  0  0  0  0  0
  -28.1448  -28.6825   21.2631 H   0  0  0  0  0  0
  -25.8853  -25.7905   18.9953 H   0  0  0  0  0  0
  -23.9916  -27.2915   18.9600 H   0  0  0  0  0  0
  -23.8502  -30.5468   19.3983 H   0  0  0  0  0  0
  -22.8139  -29.2213   19.8361 H   0  0  0  0  0  0
  -25.1347  -36.1826   25.0814 H   0  0  0  0  0  0
  -21.0031  -28.3334   24.1338 H   0  0  0  0  0  0
  -20.5698  -26.2347   23.3633 H   0  0  0  0  0  0
  -21.6666  -26.7422   22.1189 H   0  0  0  0  0  0
  -19.6925  -25.6281   21.1266 H   0  0  0  0  0  0
  -19.6696  -27.3180   20.6754 H   0  0  0  0  0  0
  -17.4219  -26.6690   21.4032 H   0  0  0  0  0  0
  -18.0336  -26.0078   22.9031 H   0  0  0  0  0  0
  -19.7942  -30.7331   24.2190 H   0  0  0  0  0  0
  -17.4999  -31.6254   24.5172 H   0  0  0  0  0  0
  -15.5348  -30.2939   23.7681 H   0  0  0  0  0  0
  -15.8709  -28.0790   22.7073 H   0  0  0  0  0  0
  -24.5912  -30.7072   25.7700 H   0  0  0  0  0  0
  -24.8855  -32.2943   26.4716 H   0  0  0  0  0  0
  -25.7952  -30.8993   27.0248 H   0  0  0  0  0  0
  -26.3092  -29.6618   24.1369 H   0  0  0  0  0  0
  -27.3986  -29.7249   25.5010 H   0  0  0  0  0  0
  -27.9033  -30.4127   23.9791 H   0  0  0  0  0  0
  -27.2672  -33.3670   26.1998 H   0  0  0  0  0  0
  -28.3935  -32.6814   25.0372 H   0  0  0  0  0  0
  -28.0698  -31.8515   26.5502 H   0  0  0  0  0  0
  -28.2636  -38.0033   24.7418 H   0  0  0  0  0  0
  -28.1019  -36.2567   24.6470 H   0  0  0  0  0  0
  -27.2257  -37.1624   25.8874 H   0  0  0  0  0  0
  -20.9556  -29.8729   21.6712 H   0  0  0  0  0  0
  -26.0174  -38.2802   24.1297 H   0  0  0  0  0  0
  -27.4462  -21.2853   19.9257 H   0  0  0  0  0  0
  -31.9663  -22.3653   20.9818 H   0  0  0  0  0  0
  -29.5711  -17.4784   18.4361 H   0  0  0  0  0  0
  -31.0835  -17.7874   19.3145 H   0  0  0  0  0  0
  -30.6152  -17.7042   21.8882 H   0  0  0  0  0  0
  -28.8904  -17.3703   22.1457 H   0  0  0  0  0  0
  -28.2114  -18.5452   20.1359 H   0  0  0  0  0  0
  -26.9752  -24.2116   20.6075 H   0  0  0  0  0  0
  -27.5965  -24.3103   18.9997 H   0  0  0  0  0  0
  1 25  1  0  0  0
  1 30  2  0  0  0
  1 81  1  0  0  0
  2  3  1  0  0  0
  2 25  1  0  0  0
  2 82  1  0  0  0
  2 83  1  0  0  0
  3  4  1  0  0  0
  3 84  1  0  0  0
  3 85  1  0  0  0
  4  5  1  0  0  0
  4 86  1  0  0  0
  4 87  1  0  0  0
  5  6  1  0  0  0
  5 26  1  0  0  0
  5 88  1  0  0  0
  6 25  1  0  0  0
  6 89  1  0  0  0
  6 90  1  0  0  0
  7  8  2  0  0  0
  7 26  1  0  0  0
  7 29  1  0  0  0
  8  9  1  0  0  0
  8 22  1  0  0  0
  9 10  1  0  0  0
  9 27  2  0  0  0
 10 11  2  0  0  0
 10 15  1  0  0  0
 11 12  1  0  0  0
 11 91  1  0  0  0
 12 13  2  0  0  0
 12 92  1  0  0  0
 13 14  1  0  0  0
 13 31  1  0  0  0
 14 15  2  0  0  0
 14 93  1  0  0  0
 15 94  1  0  0  0
 16 17  2  0  0  0
 16 21  1  0  0  0
 16 31  1  0  0  0
 17 18  1  0  0  0
 17 95  1  0  0  0
 18 19  2  0  0  0
 18 96  1  0  0  0
 19 20  1  0  0  0
 19 24  1  0  0  0
 20 21  2  0  0  0
 20 97  1  0  0  0
 21 23  1  0  0  0
 22 28  1  0  0  0
 22 32  2  0  0  0
 26 27  1  0  0  0
 28 98  1  0  0  0
 28 99  1  0  0  0
 29100  1  0  0  0
 29101  1  0  0  0
 33 34  1  0  0  0
 33 66  1  0  0  0
 33 70  2  0  0  0
 34 36  1  0  0  0
 34 59  1  0  0  0
 34102  1  0  0  0
 35 44  2  0  0  0
 35 45  1  0  0  0
 35 68  1  0  0  0
 36 56  1  0  0  0
 36103  1  0  0  0
 37 39  1  0  0  0
 37 47  1  0  0  0
 37 66  1  0  0  0
 37104  1  0  0  0
 38 43  2  0  0  0
 38 46  1  0  0  0
 38 47  1  0  0  0
 39 64  1  0  0  0
 39 67  2  0  0  0
 40 52  1  0  0  0
 40 53  2  0  0  0
 40 58  1  0  0  0
 41105  1  0  0  0
 41106  1  0  0  0
 41107  1  0  0  0
 41 48  1  0  0  0
 42 43  1  0  0  0
 42 66  1  0  0  0
 42108  1  0  0  0
 42109  1  0  0  0
 43 44  1  0  0  0
 44110  1  0  0  0
 45 46  2  0  0  0
 45111  1  0  0  0
 46112  1  0  0  0
 47113  1  0  0  0
 47114  1  0  0  0
 48 56  1  0  0  0
 48 65  1  0  0  0
 48115  1  0  0  0
 49 50  1  0  0  0
 49 53  1  0  0  0
 49 64  1  0  0  0
 49116  1  0  0  0
 50 51  1  0  0  0
 50117  1  0  0  0
 50118  1  0  0  0
 51 52  1  0  0  0
 51119  1  0  0  0
 51120  1  0  0  0
 52121  1  0  0  0
 52122  1  0  0  0
 53 54  1  0  0  0
 54 55  2  0  0  0
 54123  1  0  0  0
 55 57  1  0  0  0
 55124  1  0  0  0
 56 69  2  0  0  0
 57 58  2  0  0  0
 57125  1  0  0  0
 58126  1  0  0  0
 59 60  1  0  0  0
 59 61  1  0  0  0
 59 62  1  0  0  0
 60127  1  0  0  0
 60128  1  0  0  0
 60129  1  0  0  0
 61130  1  0  0  0
 61131  1  0  0  0
 61132  1  0  0  0
 62133  1  0  0  0
 62134  1  0  0  0
 62135  1  0  0  0
 63 65  1  0  0  0
 63136  1  0  0  0
 63137  1  0  0  0
 63138  1  0  0  0
 64139  1  0  0  0
 65140  1  0  0  0
 68 78  1  0  0  0
 71 73  2  0  0  0
 71 74  1  0  0  0
 71141  1  0  0  0
 72 79  2  0  0  0
 72 80  1  0  0  0
 72142  1  0  0  0
 73 79  1  0  0  0
 73 77  1  0  0  0
 74 78  1  0  0  0
 74 80  2  0  0  0
 75 77  1  0  0  0
 75 81  1  0  0  0
 75143  1  0  0  0
 75144  1  0  0  0
 76 77  1  0  0  0
 76 81  1  0  0  0
 76145  1  0  0  0
 76146  1  0  0  0
 77147  1  0  0  0
 78148  1  0  0  0
 78149  1  0  0  0
M  ISO  4   1 100  68 101  78 101  81 100
M  END
> <chiral flag>
0

> <version>
0

> <s_m_source_file>
/data/baiqing/PycharmProjects/Reinvent-master-3.2/result/LINK_invent/BTK/process_docking_weight1_custom_sum_contain_oxygen_bond_distance_aromatic_linkinvent_7_9_3/rearranged_h_0196.sdf

> <i_m_source_file_index>
45

> <r_mmod_Potential_Energy-OPLS-2005>
495.43310546875

> <r_mmod_Stretch_Energy-OPLS-2005>
367.464630126953

> <r_mmod_Bend_Energy-OPLS-2005>
329.366149902344

> <r_mmod_Torsional_Energy-OPLS-2005>
253.767700195312

> <r_mmod_Improper_Torsional_Energy-OPLS-2005>
15.3879461288452

> <r_mmod_Van_der_Waal_Energy-OPLS-2005>
135.510650634766

> <r_mmod_Electrostatic_Energy-OPLS-2005>
-687.268188476562

> <r_mmod_Solvation_Energy-OPLS-2005>
-240.793670654297

> <b_mmod_Minimization_Converged-OPLS-2005>
0

> <r_mmod_RMS_Derivative-OPLS-2005>
2.66050601005554

$$$$
45
                    3D
 Structure written by MMmdl.
168177  0  0  1  0            999 V2000
  -30.5346  -14.9625   20.4239 C   0  0  0  0  0  0
  -30.4376  -12.6023   19.4824 C   0  0  0  0  0  0
  -29.5175  -12.5426   18.2409 C   0  0  0  0  0  0
  -28.0516  -12.3187   18.6616 C   0  0  0  0  0  0
  -27.6260  -13.2458   19.8289 C   0  0  2  0  0  0
  -28.6709  -13.2803   20.9635 C   0  0  0  0  0  0
  -25.2460  -13.8188   20.5662 C   0  0  0  0  0  0
  -24.1775  -13.0421   20.9211 C   0  0  0  0  0  0
  -24.6394  -11.6914   20.8738 C   0  0  0  0  0  0
  -23.9076  -10.4293   21.0390 C   0  0  0  0  0  0
  -24.3630   -9.4208   21.9164 C   0  0  0  0  0  0
  -23.6321   -8.2225   22.0728 C   0  0  0  0  0  0
  -22.4299   -8.0264   21.3521 C   0  0  0  0  0  0
  -21.9935   -9.0231   20.4615 C   0  0  0  0  0  0
  -22.7252  -10.2121   20.3030 C   0  0  0  0  0  0
  -21.6864   -6.0736   22.5281 C   0  0  0  0  0  0
  -21.4011   -6.5638   23.8216 C   0  0  0  0  0  0
  -21.3669   -5.6792   24.9176 C   0  0  0  0  0  0
  -21.6052   -4.3051   24.7224 C   0  0  0  0  0  0
  -21.8809   -3.8144   23.4347 C   0  0  0  0  0  0
  -21.9184   -4.6964   22.3405 C   0  0  0  0  0  0
  -22.7802  -13.5185   21.1910 C   0  0  0  0  0  0
  -22.1652   -4.2145   21.0984 F   0  0  0  0  0  0
  -21.5657   -3.4538   25.7740 F   0  0  0  0  0  0
  -29.9405  -13.7015   20.3552 N   0  0  0  0  0  0
  -26.2874  -12.9412   20.3186 N   0  0  0  0  0  0
  -25.9324  -11.6555   20.5709 N   0  0  0  0  0  0
  -22.0458  -12.8159   22.0459 N   0  0  0  0  0  0
  -25.4154  -15.1915   20.4050 N   0  0  0  0  0  0
  -31.7497  -15.0197   20.2097 O   0  0  0  0  0  0
  -21.6654   -6.8870   21.4233 O   0  0  0  0  0  0
  -22.3485  -14.5490   20.6769 O   0  0  0  0  0  0
  -24.6464  -31.8434   23.1892 C   0  0  0  0  0  0
  -25.9231  -32.4686   23.8279 C   0  0  1  0  0  0
  -27.2182  -27.1252   20.1552 C   0  0  0  0  0  0
  -25.5972  -33.8485   24.2223 N   0  0  0  0  0  0
  -23.4486  -30.4625   21.5334 C   0  0  2  0  0  0
  -24.8955  -28.8799   20.1147 C   0  0  0  0  0  0
  -22.7570  -29.4572   22.4872 C   0  0  0  0  0  0
  -18.0330  -28.1384   22.8494 C   0  0  0  0  0  0
  -24.1475  -36.7236   23.2649 C   0  0  0  0  0  0
  -26.0046  -30.7113   21.3873 C   0  0  0  0  0  0
  -26.0734  -29.3208   20.7294 C   0  0  0  0  0  0
  -27.2386  -28.4616   20.7266 C   0  0  0  0  0  0
  -26.0143  -26.7844   19.5040 C   0  0  0  0  0  0
  -24.8788  -27.6273   19.4828 C   0  0  0  0  0  0
  -23.6722  -29.7852   20.1544 C   0  0  0  0  0  0
  -25.4099  -36.3031   24.0355 C   0  0  1  0  0  0
  -20.5940  -28.3740   23.1234 C   0  0  2  0  0  0
  -20.6813  -26.9440   22.5407 C   0  0  0  0  0  0
  -19.5797  -26.6391   21.5203 C   0  0  0  0  0  0
  -18.1977  -26.7933   22.1613 C   0  0  0  0  0  0
  -19.1578  -28.8869   23.2863 C   0  0  0  0  0  0
  -18.9482  -30.1461   23.8909 C   0  0  0  0  0  0
  -17.6487  -30.6595   24.0542 C   0  0  0  0  0  0
  -25.9060  -34.9400   23.5099 C   0  0  0  0  0  0
  -16.5377  -29.9087   23.6320 C   0  0  0  0  0  0
  -16.7311  -28.6478   23.0402 C   0  0  0  0  0  0
  -26.4557  -31.6545   25.0717 C   0  0  0  0  0  0
  -25.3766  -31.3687   26.1430 C   0  0  0  0  0  0
  -27.0423  -30.2961   24.6262 C   0  0  0  0  0  0
  -27.6114  -32.4275   25.7483 C   0  0  0  0  0  0
  -27.5567  -37.1766   24.8475 C   0  0  0  0  0  0
  -21.4261  -29.3072   22.3599 N   0  0  0  0  0  0
  -26.4262  -37.3743   23.9443 N   0  0  0  0  0  0
  -24.7193  -31.0282   22.0917 N   0  0  0  0  0  0
  -23.4203  -28.8130   23.3041 O   0  0  0  0  0  0
  -28.2874  -26.1550   20.1533 O   0  0  0  0  0  0
  -26.5621  -34.8919   22.4668 O   0  0  0  0  0  0
  -23.5586  -32.1288   23.7132 O   0  0  0  0  0  0
  -32.1067  -18.5572   20.5646 C   0  0  0  0  0  0
  -31.2477  -17.8831   21.6308 C   0  0  0  0  0  0
  -31.2024  -19.6118   19.9305 C   0  0  0  0  0  0
  -26.9558  -19.0662   18.7739 C   0  0  0  0  0  0
  -29.8822  -17.6696   20.9559 C   0  0  1  0  0  0
  -29.7693  -19.0501   19.9785 C   0  0  1  0  0  0
  -27.8778  -20.2560   18.9402 C   0  0  2  0  0  0
  -25.5889  -21.1461   18.4979 C   0  0  0  0  0  0
  -28.8566  -21.7335   20.7069 C   0  0  0  0  0  0
  -28.0980  -24.6611   20.5792 C   0  0  0  0  0  0
  -28.8196  -23.2569   19.9404 C   0  0  1  0  0  0
  -29.7309  -16.1368   20.5369 N   0  0  0  0  0  0
  -28.7861  -20.2804   20.0910 N   0  0  0  0  0  0
  -26.4780  -20.3152   19.3340 N   0  3  1  0  0  0
  -30.2165  -23.5953   19.6020 N   0  3  0  0  0  0
  -31.4721  -12.7603   19.1752 H   0  0  0  0  0  0
  -30.4263  -11.6498   20.0154 H   0  0  0  0  0  0
  -29.8427  -11.7533   17.5629 H   0  0  0  0  0  0
  -29.5968  -13.4754   17.6801 H   0  0  0  0  0  0
  -27.9502  -11.2757   18.9623 H   0  0  0  0  0  0
  -27.3833  -12.4485   17.8077 H   0  0  0  0  0  0
  -27.5882  -14.2471   19.3998 H   0  0  0  0  0  0
  -28.7629  -12.3043   21.4421 H   0  0  0  0  0  0
  -28.3667  -13.9814   21.7420 H   0  0  0  0  0  0
  -25.2773   -9.5700   22.4738 H   0  0  0  0  0  0
  -24.0043   -7.4616   22.7452 H   0  0  0  0  0  0
  -21.0859   -8.8731   19.8940 H   0  0  0  0  0  0
  -22.3686  -10.9643   19.6136 H   0  0  0  0  0  0
  -21.1996   -7.6146   23.9712 H   0  0  0  0  0  0
  -21.1519   -6.0529   25.9084 H   0  0  0  0  0  0
  -22.0587   -2.7606   23.2847 H   0  0  0  0  0  0
  -22.4111  -11.9826   22.4835 H   0  0  0  0  0  0
  -21.1052  -13.1132   22.2648 H   0  0  0  0  0  0
  -24.6487  -15.8458   20.5154 H   0  0  0  0  0  0
  -26.2585  -15.6238   20.0557 H   0  0  0  0  0  0
  -26.7293  -32.5297   23.1000 H   0  0  0  0  0  0
  -25.0173  -33.9554   25.0415 H   0  0  0  0  0  0
  -22.7536  -31.2906   21.3769 H   0  0  0  0  0  0
  -23.3756  -35.9540   23.3280 H   0  0  0  0  0  0
  -24.3570  -36.8875   22.2061 H   0  0  0  0  0  0
  -23.7192  -37.6428   23.6672 H   0  0  0  0  0  0
  -26.1603  -31.4606   20.6095 H   0  0  0  0  0  0
  -26.8743  -30.7610   22.0320 H   0  0  0  0  0  0
  -28.1421  -28.7993   21.2130 H   0  0  0  0  0  0
  -25.9320  -25.8284   19.0075 H   0  0  0  0  0  0
  -23.9842  -27.2854   18.9812 H   0  0  0  0  0  0
  -23.8108  -30.5552   19.3958 H   0  0  0  0  0  0
  -22.7848  -29.2304   19.8454 H   0  0  0  0  0  0
  -25.1274  -36.1855   25.0845 H   0  0  0  0  0  0
  -21.0028  -28.3309   24.1360 H   0  0  0  0  0  0
  -20.5697  -26.2346   23.3629 H   0  0  0  0  0  0
  -21.6682  -26.7467   22.1204 H   0  0  0  0  0  0
  -19.6968  -25.6292   21.1260 H   0  0  0  0  0  0
  -19.6725  -27.3161   20.6698 H   0  0  0  0  0  0
  -17.4253  -26.6708   21.4011 H   0  0  0  0  0  0
  -18.0371  -26.0052   22.8979 H   0  0  0  0  0  0
  -19.7954  -30.7253   24.2315 H   0  0  0  0  0  0
  -17.5047  -31.6275   24.5129 H   0  0  0  0  0  0
  -15.5383  -30.2999   23.7636 H   0  0  0  0  0  0
  -15.8712  -28.0757   22.7209 H   0  0  0  0  0  0
  -24.5979  -30.6993   25.7755 H   0  0  0  0  0  0
  -24.8914  -32.2838   26.4835 H   0  0  0  0  0  0
  -25.8088  -30.8887   27.0226 H   0  0  0  0  0  0
  -26.3017  -29.6669   24.1314 H   0  0  0  0  0  0
  -27.4124  -29.7266   25.4797 H   0  0  0  0  0  0
  -27.8895  -30.4238   23.9520 H   0  0  0  0  0  0
  -27.2769  -33.3625   26.1987 H   0  0  0  0  0  0
  -28.3965  -32.6725   25.0315 H   0  0  0  0  0  0
  -28.0747  -31.8436   26.5453 H   0  0  0  0  0  0
  -28.2586  -38.0065   24.7537 H   0  0  0  0  0  0
  -28.1067  -36.2601   24.6270 H   0  0  0  0  0  0
  -27.2304  -37.1366   25.8885 H   0  0  0  0  0  0
  -20.9499  -29.8742   21.6717 H   0  0  0  0  0  0
  -26.0142  -38.2831   24.1420 H   0  0  0  0  0  0
  -32.4026  -17.8260   19.8114 H   0  0  0  0  0  0
  -33.0211  -18.9863   20.9738 H   0  0  0  0  0  0
  -31.1311  -18.5597   22.4793 H   0  0  0  0  0  0
  -31.7116  -16.9790   22.0267 H   0  0  0  0  0  0
  -31.5075  -19.8531   18.9108 H   0  0  0  0  0  0
  -31.2937  -20.5249   20.5160 H   0  0  0  0  0  0
  -26.9249  -18.2904   19.5352 H   0  0  0  0  0  0
  -26.5074  -18.8515   17.8064 H   0  0  0  0  0  0
  -29.1244  -17.7874   21.7312 H   0  0  0  0  0  0
  -29.6004  -18.6229   18.9873 H   0  0  0  0  0  0
  -28.0737  -20.8545   18.0517 H   0  0  0  0  0  0
  -24.5602  -20.7967   18.5744 H   0  0  0  0  0  0
  -25.8742  -21.1343   17.4456 H   0  0  0  0  0  0
  -25.6195  -22.1782   18.8451 H   0  0  0  0  0  0
  -27.9550  -21.7657   21.3196 H   0  0  0  0  0  0
  -29.6501  -21.7352   21.4571 H   0  0  0  0  0  0
  -28.3855  -24.6774   21.6315 H   0  0  0  0  0  0
  -27.0265  -24.4683   20.6141 H   0  0  0  0  0  0
  -28.3165  -23.1072   18.9850 H   0  0  0  0  0  0
  -28.7560  -15.8765   20.5279 H   0  0  0  0  0  0
  -26.2883  -20.2607   20.3215 H   0  0  0  0  0  0
  -30.7406  -23.8115   20.4331 H   0  0  0  0  0  0
  -30.2522  -24.4036   19.0026 H   0  0  0  0  0  0
  -30.6711  -22.8327   19.1314 H   0  0  0  0  0  0
  1 25  1  0  0  0
  1 30  2  0  0  0
  1 82  1  0  0  0
  2  3  1  0  0  0
  2 25  1  0  0  0
  2 86  1  0  0  0
  2 87  1  0  0  0
  3  4  1  0  0  0
  3 88  1  0  0  0
  3 89  1  0  0  0
  4  5  1  0  0  0
  4 90  1  0  0  0
  4 91  1  0  0  0
  5  6  1  0  0  0
  5 26  1  0  0  0
  5 92  1  0  0  0
  6 25  1  0  0  0
  6 93  1  0  0  0
  6 94  1  0  0  0
  7  8  2  0  0  0
  7 26  1  0  0  0
  7 29  1  0  0  0
  8  9  1  0  0  0
  8 22  1  0  0  0
  9 10  1  0  0  0
  9 27  2  0  0  0
 10 11  2  0  0  0
 10 15  1  0  0  0
 11 12  1  0  0  0
 11 95  1  0  0  0
 12 13  2  0  0  0
 12 96  1  0  0  0
 13 14  1  0  0  0
 13 31  1  0  0  0
 14 15  2  0  0  0
 14 97  1  0  0  0
 15 98  1  0  0  0
 16 17  2  0  0  0
 16 21  1  0  0  0
 16 31  1  0  0  0
 17 18  1  0  0  0
 17 99  1  0  0  0
 18 19  2  0  0  0
 18100  1  0  0  0
 19 20  1  0  0  0
 19 24  1  0  0  0
 20 21  2  0  0  0
 20101  1  0  0  0
 21 23  1  0  0  0
 22 28  1  0  0  0
 22 32  2  0  0  0
 26 27  1  0  0  0
 28102  1  0  0  0
 28103  1  0  0  0
 29104  1  0  0  0
 29105  1  0  0  0
 33 34  1  0  0  0
 33 66  1  0  0  0
 33 70  2  0  0  0
 34 36  1  0  0  0
 34 59  1  0  0  0
 34106  1  0  0  0
 35 44  2  0  0  0
 35 45  1  0  0  0
 35 68  1  0  0  0
 36 56  1  0  0  0
 36107  1  0  0  0
 37 39  1  0  0  0
 37 47  1  0  0  0
 37 66  1  0  0  0
 37108  1  0  0  0
 38 43  2  0  0  0
 38 46  1  0  0  0
 38 47  1  0  0  0
 39 64  1  0  0  0
 39 67  2  0  0  0
 40 52  1  0  0  0
 40 53  2  0  0  0
 40 58  1  0  0  0
 41109  1  0  0  0
 41110  1  0  0  0
 41111  1  0  0  0
 41 48  1  0  0  0
 42 43  1  0  0  0
 42 66  1  0  0  0
 42112  1  0  0  0
 42113  1  0  0  0
 43 44  1  0  0  0
 44114  1  0  0  0
 45 46  2  0  0  0
 45115  1  0  0  0
 46116  1  0  0  0
 47117  1  0  0  0
 47118  1  0  0  0
 48 56  1  0  0  0
 48 65  1  0  0  0
 48119  1  0  0  0
 49 50  1  0  0  0
 49 53  1  0  0  0
 49 64  1  0  0  0
 49120  1  0  0  0
 50 51  1  0  0  0
 50121  1  0  0  0
 50122  1  0  0  0
 51 52  1  0  0  0
 51123  1  0  0  0
 51124  1  0  0  0
 52125  1  0  0  0
 52126  1  0  0  0
 53 54  1  0  0  0
 54 55  2  0  0  0
 54127  1  0  0  0
 55 57  1  0  0  0
 55128  1  0  0  0
 56 69  2  0  0  0
 57 58  2  0  0  0
 57129  1  0  0  0
 58130  1  0  0  0
 59 60  1  0  0  0
 59 61  1  0  0  0
 59 62  1  0  0  0
 60131  1  0  0  0
 60132  1  0  0  0
 60133  1  0  0  0
 61134  1  0  0  0
 61135  1  0  0  0
 61136  1  0  0  0
 62137  1  0  0  0
 62138  1  0  0  0
 62139  1  0  0  0
 63 65  1  0  0  0
 63140  1  0  0  0
 63141  1  0  0  0
 63142  1  0  0  0
 64143  1  0  0  0
 65144  1  0  0  0
 68 80  1  0  0  0
 71 72  1  0  0  0
 71 73  1  0  0  0
 71145  1  0  0  0
 71146  1  0  0  0
 72 75  1  0  0  0
 72147  1  0  0  0
 72148  1  0  0  0
 73 76  1  0  0  0
 73149  1  0  0  0
 73150  1  0  0  0
 74 77  1  0  0  0
 74 84  1  0  0  0
 74151  1  0  0  0
 74152  1  0  0  0
 75 76  1  0  0  0
 75 82  1  0  0  0
 75153  1  0  0  0
 76 83  1  0  0  0
 76154  1  0  0  0
 77 83  1  0  0  0
 77 84  1  0  0  0
 77155  1  0  0  0
 78156  1  0  0  0
 78157  1  0  0  0
 78158  1  0  0  0
 78 84  1  0  0  0
 79 81  1  0  0  0
 79 83  1  0  0  0
 79159  1  0  0  0
 79160  1  0  0  0
 80 81  1  0  0  0
 80161  1  0  0  0
 80162  1  0  0  0
 81 85  1  0  0  0
 81163  1  0  0  0
 82164  1  0  0  0
 84165  1  0  0  0
 85166  1  0  0  0
 85167  1  0  0  0
 85168  1  0  0  0
M  CHG  2  84   1  85   1
M  ISO  4   1 100  68 101  80 101  82 100
M  END
> <chiral flag>
0

> <version>
0

> <s_m_source_file>
/data/baiqing/PycharmProjects/Reinvent-master-3.2/result/LINK_invent/BTK/process_docking_weight1_custom_sum_contain_oxygen_bond_distance_aromatic_linkinvent_7_9_3/rearranged_h_0196.sdf

> <i_m_source_file_index>
46

> <r_mmod_Potential_Energy-OPLS-2005>
341.683135986328

> <r_mmod_Stretch_Energy-OPLS-2005>
299.306732177734

> <r_mmod_Bend_Energy-OPLS-2005>
397.063171386719

> <r_mmod_Torsional_Energy-OPLS-2005>
320.681030273438

> <r_mmod_Improper_Torsional_Energy-OPLS-2005>
4.53569602966309

> <r_mmod_Van_der_Waal_Energy-OPLS-2005>
103.179405212402

> <r_mmod_Electrostatic_Energy-OPLS-2005>
19.0485935211182

> <r_mmod_Solvation_Energy-OPLS-2005>
-1000.49212646484

> <b_mmod_Minimization_Converged-OPLS-2005>
0

> <r_mmod_RMS_Derivative-OPLS-2005>
3.63157176971436

$$$$
46
                    3D
 Structure written by MMmdl.
155163  0  0  1  0            999 V2000
  -30.5312  -14.9743   20.3459 C   0  0  0  0  0  0
  -30.4504  -12.6021   19.4682 C   0  0  0  0  0  0
  -29.5331  -12.6029   18.2266 C   0  0  0  0  0  0
  -28.0647  -12.3716   18.6462 C   0  0  0  0  0  0
  -27.6402  -13.2711   19.8386 C   0  0  2  0  0  0
  -28.6946  -13.2984   20.9653 C   0  0  0  0  0  0
  -25.2473  -13.8282   20.5766 C   0  0  0  0  0  0
  -24.1819  -13.0479   20.9233 C   0  0  0  0  0  0
  -24.6420  -11.6948   20.8676 C   0  0  0  0  0  0
  -23.9119  -10.4323   21.0375 C   0  0  0  0  0  0
  -24.3628   -9.4225   21.9163 C   0  0  0  0  0  0
  -23.6290   -8.2257   22.0750 C   0  0  0  0  0  0
  -22.4264   -8.0309   21.3560 C   0  0  0  0  0  0
  -21.9918   -9.0314   20.4664 C   0  0  0  0  0  0
  -22.7283  -10.2164   20.3060 C   0  0  0  0  0  0
  -21.6871   -6.0721   22.5259 C   0  0  0  0  0  0
  -21.4034   -6.5599   23.8183 C   0  0  0  0  0  0
  -21.3674   -5.6722   24.9159 C   0  0  0  0  0  0
  -21.6063   -4.3010   24.7193 C   0  0  0  0  0  0
  -21.8816   -3.8114   23.4305 C   0  0  0  0  0  0
  -21.9200   -4.6942   22.3349 C   0  0  0  0  0  0
  -22.7809  -13.5265   21.1870 C   0  0  0  0  0  0
  -22.1670   -4.2119   21.0942 F   0  0  0  0  0  0
  -21.5660   -3.4470   25.7701 F   0  0  0  0  0  0
  -29.9641  -13.6991   20.3500 N   0  0  0  0  0  0
  -26.2994  -12.9557   20.3271 N   0  0  0  0  0  0
  -25.9386  -11.6687   20.5581 N   0  0  0  0  0  0
  -22.0344  -12.8325   22.0388 N   0  0  0  0  0  0
  -25.4024  -15.2030   20.4131 N   0  0  0  0  0  0
  -31.7487  -15.0357   20.1327 O   0  0  0  0  0  0
  -21.6638   -6.8911   21.4234 O   0  0  0  0  0  0
  -22.3546  -14.5605   20.6745 O   0  0  0  0  0  0
  -24.6434  -31.8413   23.1825 C   0  0  0  0  0  0
  -25.9194  -32.4676   23.8224 C   0  0  1  0  0  0
  -27.2076  -27.1113   20.0987 C   0  0  0  0  0  0
  -25.5908  -33.8481   24.2147 N   0  0  0  0  0  0
  -23.4480  -30.4612   21.5303 C   0  0  2  0  0  0
  -24.8917  -28.8746   20.1112 C   0  0  0  0  0  0
  -22.7572  -29.4500   22.4802 C   0  0  0  0  0  0
  -18.0312  -28.1413   22.8478 C   0  0  0  0  0  0
  -24.1475  -36.7270   23.2643 C   0  0  0  0  0  0
  -26.0075  -30.6953   21.3878 C   0  0  0  0  0  0
  -26.0731  -29.3013   20.7324 C   0  0  0  0  0  0
  -27.2304  -28.4299   20.7240 C   0  0  0  0  0  0
  -26.0037  -26.7999   19.4386 C   0  0  0  0  0  0
  -24.8680  -27.6356   19.4555 C   0  0  0  0  0  0
  -23.6823  -29.7958   20.1485 C   0  0  0  0  0  0
  -25.4087  -36.3023   24.0328 C   0  0  1  0  0  0
  -20.5928  -28.3701   23.1253 C   0  0  2  0  0  0
  -20.6774  -26.9385   22.5431 C   0  0  0  0  0  0
  -19.5760  -26.6370   21.5228 C   0  0  0  0  0  0
  -18.1947  -26.7947   22.1646 C   0  0  0  0  0  0
  -19.1578  -28.8863   23.2876 C   0  0  0  0  0  0
  -18.9479  -30.1458   23.8892 C   0  0  0  0  0  0
  -17.6466  -30.6569   24.0564 C   0  0  0  0  0  0
  -25.9058  -34.9405   23.5052 C   0  0  0  0  0  0
  -16.5354  -29.9071   23.6319 C   0  0  0  0  0  0
  -16.7305  -28.6513   23.0309 C   0  0  0  0  0  0
  -26.4475  -31.6537   25.0673 C   0  0  0  0  0  0
  -25.3610  -31.3732   26.1328 C   0  0  0  0  0  0
  -27.0336  -30.2935   24.6248 C   0  0  0  0  0  0
  -27.6022  -32.4259   25.7466 C   0  0  0  0  0  0
  -27.5588  -37.1747   24.8420 C   0  0  0  0  0  0
  -21.4263  -29.3025   22.3594 N   0  0  0  0  0  0
  -26.4220  -37.3756   23.9458 N   0  0  0  0  0  0
  -24.7211  -31.0214   22.0897 N   0  0  0  0  0  0
  -23.4214  -28.8033   23.2930 O   0  0  0  0  0  0
  -28.2601  -26.1200   20.0437 O   0  0  0  0  0  0
  -26.5690  -34.8922   22.4667 O   0  0  0  0  0  0
  -23.5541  -32.1329   23.6983 O   0  0  0  0  0  0
  -29.1961  -18.1594   18.6794 C   0  0  0  0  0  0
  -28.3810  -19.4845   18.9718 C   0  0  0  0  0  0
  -29.4826  -19.0228   20.8366 C   0  0  0  0  0  0
  -29.9199  -17.6867   19.9710 C   0  0  1  0  0  0
  -28.6633  -21.6598   20.4440 C   0  0  0  0  0  0
  -28.0168  -24.5931   20.3255 C   0  0  0  0  0  0
  -28.5814  -23.1408   19.6013 C   0  0  1  0  0  0
  -29.1833  -20.2510   19.9397 N   0  0  0  0  0  0
  -29.7118  -16.1462   20.3536 N   0  0  0  0  0  0
  -29.8520  -23.3375   18.8578 N   0  3  0  0  0  0
  -31.4906  -12.7455   19.1706 H   0  0  0  0  0  0
  -30.4171  -11.6397   19.9779 H   0  0  0  0  0  0
  -29.8666  -11.8586   17.5016 H   0  0  0  0  0  0
  -29.6237  -13.5713   17.7251 H   0  0  0  0  0  0
  -27.9475  -11.3252   18.9201 H   0  0  0  0  0  0
  -27.4050  -12.5478   17.7958 H   0  0  0  0  0  0
  -27.6046  -14.2840   19.4355 H   0  0  0  0  0  0
  -28.7793  -12.3401   21.4814 H   0  0  0  0  0  0
  -28.4148  -14.0344   21.7193 H   0  0  0  0  0  0
  -25.2761   -9.5727   22.4733 H   0  0  0  0  0  0
  -24.0006   -7.4671   22.7463 H   0  0  0  0  0  0
  -21.0864   -8.8883   19.8962 H   0  0  0  0  0  0
  -22.3780  -10.9719   19.6158 H   0  0  0  0  0  0
  -21.2012   -7.6087   23.9744 H   0  0  0  0  0  0
  -21.1518   -6.0405   25.9075 H   0  0  0  0  0  0
  -22.0583   -2.7587   23.2765 H   0  0  0  0  0  0
  -22.3868  -12.0050   22.4976 H   0  0  0  0  0  0
  -21.0988  -13.1520   22.2429 H   0  0  0  0  0  0
  -24.6074  -15.8308   20.4873 H   0  0  0  0  0  0
  -26.2371  -15.6551   20.0638 H   0  0  0  0  0  0
  -26.7238  -32.5278   23.0929 H   0  0  0  0  0  0
  -24.9921  -33.9566   25.0201 H   0  0  0  0  0  0
  -22.7511  -31.2871   21.3744 H   0  0  0  0  0  0
  -23.3764  -35.9567   23.3171 H   0  0  0  0  0  0
  -24.3594  -36.9044   22.2087 H   0  0  0  0  0  0
  -23.7175  -37.6393   23.6786 H   0  0  0  0  0  0
  -26.1501  -31.4363   20.5999 H   0  0  0  0  0  0
  -26.8841  -30.7648   22.0199 H   0  0  0  0  0  0
  -28.1227  -28.7385   21.2487 H   0  0  0  0  0  0
  -25.9387  -25.8720   18.8870 H   0  0  0  0  0  0
  -23.9744  -27.3111   18.9384 H   0  0  0  0  0  0
  -23.8497  -30.5780   19.4071 H   0  0  0  0  0  0
  -22.7934  -29.2625   19.8102 H   0  0  0  0  0  0
  -25.1253  -36.1810   25.0803 H   0  0  0  0  0  0
  -21.0062  -28.3299   24.1364 H   0  0  0  0  0  0
  -20.5664  -26.2283   23.3655 H   0  0  0  0  0  0
  -21.6645  -26.7379   22.1234 H   0  0  0  0  0  0
  -19.6885  -25.6279   21.1270 H   0  0  0  0  0  0
  -19.6713  -27.3166   20.6758 H   0  0  0  0  0  0
  -17.4214  -26.6696   21.4057 H   0  0  0  0  0  0
  -18.0326  -26.0116   22.9075 H   0  0  0  0  0  0
  -19.7927  -30.7290   24.2280 H   0  0  0  0  0  0
  -17.4991  -31.6253   24.5182 H   0  0  0  0  0  0
  -15.5342  -30.2943   23.7650 H   0  0  0  0  0  0
  -15.8733  -28.0842   22.6957 H   0  0  0  0  0  0
  -24.5724  -30.7216   25.7541 H   0  0  0  0  0  0
  -24.8840  -32.2931   26.4721 H   0  0  0  0  0  0
  -25.7798  -30.8823   27.0128 H   0  0  0  0  0  0
  -26.2931  -29.6628   24.1329 H   0  0  0  0  0  0
  -27.4021  -29.7263   25.4803 H   0  0  0  0  0  0
  -27.8797  -30.4158   23.9483 H   0  0  0  0  0  0
  -27.2633  -33.3536   26.2076 H   0  0  0  0  0  0
  -28.3810  -32.6869   25.0295 H   0  0  0  0  0  0
  -28.0726  -31.8346   26.5335 H   0  0  0  0  0  0
  -28.2438  -38.0207   24.7669 H   0  0  0  0  0  0
  -28.1244  -36.2747   24.5964 H   0  0  0  0  0  0
  -27.2384  -37.1041   25.8827 H   0  0  0  0  0  0
  -20.9417  -29.8759   21.6836 H   0  0  0  0  0  0
  -26.0086  -38.2785   24.1589 H   0  0  0  0  0  0
  -29.9575  -18.3610   17.9246 H   0  0  0  0  0  0
  -28.5551  -17.3824   18.2656 H   0  0  0  0  0  0
  -27.4204  -19.2039   19.4189 H   0  0  0  0  0  0
  -28.1339  -20.0644   18.0798 H   0  0  0  0  0  0
  -30.2680  -19.2786   21.5478 H   0  0  0  0  0  0
  -28.6026  -18.7865   21.4408 H   0  0  0  0  0  0
  -30.9999  -17.7750   19.8114 H   0  0  0  0  0  0
  -27.6613  -21.5053   20.8563 H   0  0  0  0  0  0
  -29.2822  -21.8816   21.3182 H   0  0  0  0  0  0
  -28.3545  -24.5151   21.3570 H   0  0  0  0  0  0
  -26.9351  -24.4548   20.4117 H   0  0  0  0  0  0
  -27.8619  -22.9560   18.7963 H   0  0  0  0  0  0
  -28.7365  -15.8933   20.4104 H   0  0  0  0  0  0
  -30.5972  -23.7246   19.4136 H   0  0  0  0  0  0
  -29.7267  -23.9275   18.0485 H   0  0  0  0  0  0
  -30.1622  -22.4436   18.5155 H   0  0  0  0  0  0
  1 25  1  0  0  0
  1 30  2  0  0  0
  1 79  1  0  0  0
  2  3  1  0  0  0
  2 25  1  0  0  0
  2 81  1  0  0  0
  2 82  1  0  0  0
  3  4  1  0  0  0
  3 83  1  0  0  0
  3 84  1  0  0  0
  4  5  1  0  0  0
  4 85  1  0  0  0
  4 86  1  0  0  0
  5  6  1  0  0  0
  5 26  1  0  0  0
  5 87  1  0  0  0
  6 25  1  0  0  0
  6 88  1  0  0  0
  6 89  1  0  0  0
  7  8  2  0  0  0
  7 26  1  0  0  0
  7 29  1  0  0  0
  8  9  1  0  0  0
  8 22  1  0  0  0
  9 10  1  0  0  0
  9 27  2  0  0  0
 10 11  2  0  0  0
 10 15  1  0  0  0
 11 12  1  0  0  0
 11 90  1  0  0  0
 12 13  2  0  0  0
 12 91  1  0  0  0
 13 14  1  0  0  0
 13 31  1  0  0  0
 14 15  2  0  0  0
 14 92  1  0  0  0
 15 93  1  0  0  0
 16 17  2  0  0  0
 16 21  1  0  0  0
 16 31  1  0  0  0
 17 18  1  0  0  0
 17 94  1  0  0  0
 18 19  2  0  0  0
 18 95  1  0  0  0
 19 20  1  0  0  0
 19 24  1  0  0  0
 20 21  2  0  0  0
 20 96  1  0  0  0
 21 23  1  0  0  0
 22 28  1  0  0  0
 22 32  2  0  0  0
 26 27  1  0  0  0
 28 97  1  0  0  0
 28 98  1  0  0  0
 29 99  1  0  0  0
 29100  1  0  0  0
 33 34  1  0  0  0
 33 66  1  0  0  0
 33 70  2  0  0  0
 34 36  1  0  0  0
 34 59  1  0  0  0
 34101  1  0  0  0
 35 44  2  0  0  0
 35 45  1  0  0  0
 35 68  1  0  0  0
 36 56  1  0  0  0
 36102  1  0  0  0
 37 39  1  0  0  0
 37 47  1  0  0  0
 37 66  1  0  0  0
 37103  1  0  0  0
 38 43  2  0  0  0
 38 46  1  0  0  0
 38 47  1  0  0  0
 39 64  1  0  0  0
 39 67  2  0  0  0
 40 52  1  0  0  0
 40 53  2  0  0  0
 40 58  1  0  0  0
 41104  1  0  0  0
 41105  1  0  0  0
 41106  1  0  0  0
 41 48  1  0  0  0
 42 43  1  0  0  0
 42 66  1  0  0  0
 42107  1  0  0  0
 42108  1  0  0  0
 43 44  1  0  0  0
 44109  1  0  0  0
 45 46  2  0  0  0
 45110  1  0  0  0
 46111  1  0  0  0
 47112  1  0  0  0
 47113  1  0  0  0
 48 56  1  0  0  0
 48 65  1  0  0  0
 48114  1  0  0  0
 49 50  1  0  0  0
 49 53  1  0  0  0
 49 64  1  0  0  0
 49115  1  0  0  0
 50 51  1  0  0  0
 50116  1  0  0  0
 50117  1  0  0  0
 51 52  1  0  0  0
 51118  1  0  0  0
 51119  1  0  0  0
 52120  1  0  0  0
 52121  1  0  0  0
 53 54  1  0  0  0
 54 55  2  0  0  0
 54122  1  0  0  0
 55 57  1  0  0  0
 55123  1  0  0  0
 56 69  2  0  0  0
 57 58  2  0  0  0
 57124  1  0  0  0
 58125  1  0  0  0
 59 60  1  0  0  0
 59 61  1  0  0  0
 59 62  1  0  0  0
 60126  1  0  0  0
 60127  1  0  0  0
 60128  1  0  0  0
 61129  1  0  0  0
 61130  1  0  0  0
 61131  1  0  0  0
 62132  1  0  0  0
 62133  1  0  0  0
 62134  1  0  0  0
 63 65  1  0  0  0
 63135  1  0  0  0
 63136  1  0  0  0
 63137  1  0  0  0
 64138  1  0  0  0
 65139  1  0  0  0
 68 76  1  0  0  0
 71 72  1  0  0  0
 71 74  1  0  0  0
 71140  1  0  0  0
 71141  1  0  0  0
 72 78  1  0  0  0
 72142  1  0  0  0
 72143  1  0  0  0
 73 74  1  0  0  0
 73 78  1  0  0  0
 73144  1  0  0  0
 73145  1  0  0  0
 74 79  1  0  0  0
 74146  1  0  0  0
 75 77  1  0  0  0
 75 78  1  0  0  0
 75147  1  0  0  0
 75148  1  0  0  0
 76 77  1  0  0  0
 76149  1  0  0  0
 76150  1  0  0  0
 77 80  1  0  0  0
 77151  1  0  0  0
 79152  1  0  0  0
 80153  1  0  0  0
 80154  1  0  0  0
 80155  1  0  0  0
M  CHG  1  80   1
M  ISO  4   1 100  68 101  76 101  79 100
M  END
> <chiral flag>
0

> <version>
0

> <s_m_source_file>
/data/baiqing/PycharmProjects/Reinvent-master-3.2/result/LINK_invent/BTK/process_docking_weight1_custom_sum_contain_oxygen_bond_distance_aromatic_linkinvent_7_9_3/rearranged_h_0196.sdf

> <i_m_source_file_index>
47

> <r_mmod_Potential_Energy-OPLS-2005>
426.117248535156

> <r_mmod_Stretch_Energy-OPLS-2005>
295.680725097656

> <r_mmod_Bend_Energy-OPLS-2005>
344.451568603516

> <r_mmod_Torsional_Energy-OPLS-2005>
286.395965576172

> <r_mmod_Improper_Torsional_Energy-OPLS-2005>
6.03103733062744

> <r_mmod_Van_der_Waal_Energy-OPLS-2005>
108.067176818848

> <r_mmod_Electrostatic_Energy-OPLS-2005>
-348.811370849609

> <r_mmod_Solvation_Energy-OPLS-2005>
-478.647003173828

> <b_mmod_Minimization_Converged-OPLS-2005>
0

> <r_mmod_RMS_Derivative-OPLS-2005>
10.0028820037842

$$$$
47
                    3D
 Structure written by MMmdl.
157166  0  0  1  0            999 V2000
  -30.5625  -15.1677   20.4071 C   0  0  0  0  0  0
  -30.4227  -12.7605   19.5088 C   0  0  0  0  0  0
  -29.5246  -12.5646   18.2657 C   0  0  0  0  0  0
  -28.0737  -12.3052   18.6993 C   0  0  0  0  0  0
  -27.6084  -13.2788   19.8167 C   0  0  2  0  0  0
  -28.6513  -13.4584   20.9452 C   0  0  0  0  0  0
  -25.2384  -13.8265   20.5824 C   0  0  0  0  0  0
  -24.1738  -13.0455   20.9256 C   0  0  0  0  0  0
  -24.6381  -11.6932   20.8737 C   0  0  0  0  0  0
  -23.9071  -10.4295   21.0392 C   0  0  0  0  0  0
  -24.3626   -9.4221   21.9170 C   0  0  0  0  0  0
  -23.6292   -8.2271   22.0759 C   0  0  0  0  0  0
  -22.4286   -8.0298   21.3548 C   0  0  0  0  0  0
  -21.9915   -9.0266   20.4652 C   0  0  0  0  0  0
  -22.7238  -10.2139   20.3041 C   0  0  0  0  0  0
  -21.6886   -6.0731   22.5269 C   0  0  0  0  0  0
  -21.4029   -6.5620   23.8208 C   0  0  0  0  0  0
  -21.3677   -5.6775   24.9157 C   0  0  0  0  0  0
  -21.6050   -4.3031   24.7214 C   0  0  0  0  0  0
  -21.8815   -3.8131   23.4330 C   0  0  0  0  0  0
  -21.9170   -4.6948   22.3387 C   0  0  0  0  0  0
  -22.7725  -13.5205   21.1811 C   0  0  0  0  0  0
  -22.1631   -4.2132   21.0959 F   0  0  0  0  0  0
  -21.5623   -3.4519   25.7732 F   0  0  0  0  0  0
  -29.8904  -13.9260   20.3056 N   0  0  0  0  0  0
  -26.2825  -12.9556   20.3252 N   0  0  0  0  0  0
  -25.9321  -11.6645   20.5702 N   0  0  0  0  0  0
  -22.0343  -12.8285   22.0381 N   0  0  0  0  0  0
  -25.3999  -15.2029   20.4366 N   0  0  0  0  0  0
  -31.7826  -15.0626   20.2257 O   0  0  0  0  0  0
  -21.6644   -6.8894   21.4247 O   0  0  0  0  0  0
  -22.3440  -14.5493   20.6560 O   0  0  0  0  0  0
  -24.6515  -31.8351   23.1802 C   0  0  0  0  0  0
  -25.9255  -32.4644   23.8217 C   0  0  1  0  0  0
  -27.2006  -27.0222   20.1879 C   0  0  0  0  0  0
  -25.5976  -33.8454   24.2097 N   0  0  0  0  0  0
  -23.4601  -30.4546   21.5234 C   0  0  2  0  0  0
  -24.9097  -28.8595   20.1121 C   0  0  0  0  0  0
  -22.7586  -29.4520   22.4747 C   0  0  0  0  0  0
  -18.0305  -28.1438   22.8503 C   0  0  0  0  0  0
  -24.1482  -36.7239   23.2650 C   0  0  0  0  0  0
  -26.0232  -30.6758   21.3908 C   0  0  0  0  0  0
  -26.0933  -29.2725   20.7424 C   0  0  0  0  0  0
  -27.2399  -28.3751   20.7552 C   0  0  0  0  0  0
  -25.9931  -26.7358   19.5155 C   0  0  0  0  0  0
  -24.8804  -27.6097   19.4784 C   0  0  0  0  0  0
  -23.6946  -29.7821   20.1443 C   0  0  0  0  0  0
  -25.4123  -36.2996   24.0289 C   0  0  1  0  0  0
  -20.5920  -28.3776   23.1210 C   0  0  2  0  0  0
  -20.6781  -26.9458   22.5412 C   0  0  0  0  0  0
  -19.5741  -26.6415   21.5233 C   0  0  0  0  0  0
  -18.1930  -26.7980   22.1651 C   0  0  0  0  0  0
  -19.1554  -28.8912   23.2867 C   0  0  0  0  0  0
  -18.9486  -30.1494   23.8908 C   0  0  0  0  0  0
  -17.6473  -30.6632   24.0582 C   0  0  0  0  0  0
  -25.9087  -34.9370   23.4996 C   0  0  0  0  0  0
  -16.5355  -29.9132   23.6345 C   0  0  0  0  0  0
  -16.7286  -28.6539   23.0398 C   0  0  0  0  0  0
  -26.4575  -31.6561   25.0682 C   0  0  0  0  0  0
  -25.3767  -31.3808   26.1377 C   0  0  0  0  0  0
  -27.0400  -30.2915   24.6333 C   0  0  0  0  0  0
  -27.6015  -32.4403   25.7536 C   0  0  0  0  0  0
  -27.5546  -37.1770   24.8451 C   0  0  0  0  0  0
  -21.4257  -29.3068   22.3526 N   0  0  0  0  0  0
  -26.4253  -37.3721   23.9415 N   0  0  0  0  0  0
  -24.7320  -31.0111   22.0877 N   0  0  0  0  0  0
  -23.4178  -28.8043   23.2922 O   0  0  0  0  0  0
  -28.2260  -25.9749   20.2046 O   0  0  0  0  0  0
  -26.5694  -34.8897   22.4595 O   0  0  0  0  0  0
  -23.5598  -32.1277   23.6961 O   0  0  0  0  0  0
  -28.4966  -21.4991   22.4289 C   0  0  0  0  0  0
  -29.9349  -21.6892   22.0627 C   0  0  0  0  0  0
  -28.6261  -17.1396   20.7253 C   0  0  0  0  0  0
  -30.8648  -17.8048   20.3285 C   0  0  0  0  0  0
  -28.4717  -18.7145   21.2362 C   0  0  0  0  0  0
  -30.3186  -19.3116   19.8695 C   0  0  0  0  0  0
  -28.9129  -21.4644   20.9529 C   0  0  0  0  0  0
  -28.6123  -22.8968   20.0327 C   0  0  0  0  0  0
  -27.9752  -24.4351   20.5928 C   0  0  0  0  0  0
  -29.9968  -16.5352   20.4395 N   0  0  0  0  0  0
  -29.0146  -19.9016   20.4071 N   0  3  0  0  0  0
  -31.4507  -12.9199   19.1793 H   0  0  0  0  0  0
  -30.4442  -11.8553   20.1181 H   0  0  0  0  0  0
  -29.8955  -11.7383   17.6569 H   0  0  0  0  0  0
  -29.5737  -13.4506   17.6300 H   0  0  0  0  0  0
  -28.0219  -11.2790   19.0662 H   0  0  0  0  0  0
  -27.4085  -12.3512   17.8380 H   0  0  0  0  0  0
  -27.5120  -14.2430   19.3152 H   0  0  0  0  0  0
  -28.8186  -12.5290   21.4927 H   0  0  0  0  0  0
  -28.3070  -14.1949   21.6721 H   0  0  0  0  0  0
  -25.2788   -9.5681   22.4730 H   0  0  0  0  0  0
  -23.9986   -7.4664   22.7515 H   0  0  0  0  0  0
  -21.0826   -8.8785   19.8984 H   0  0  0  0  0  0
  -22.3705  -10.9658   19.6136 H   0  0  0  0  0  0
  -21.2064   -7.6143   23.9709 H   0  0  0  0  0  0
  -21.1500   -6.0499   25.9068 H   0  0  0  0  0  0
  -22.0583   -2.7593   23.2818 H   0  0  0  0  0  0
  -22.3969  -12.0054   22.4942 H   0  0  0  0  0  0
  -21.0916  -13.1308   22.2470 H   0  0  0  0  0  0
  -24.6211  -15.8400   20.5489 H   0  0  0  0  0  0
  -26.2439  -15.6535   20.1120 H   0  0  0  0  0  0
  -26.7298  -32.5206   23.0920 H   0  0  0  0  0  0
  -25.0078  -33.9566   25.0218 H   0  0  0  0  0  0
  -22.7650  -31.2829   21.3635 H   0  0  0  0  0  0
  -23.3725  -35.9577   23.3278 H   0  0  0  0  0  0
  -24.3549  -36.8926   22.2065 H   0  0  0  0  0  0
  -23.7241  -37.6423   23.6727 H   0  0  0  0  0  0
  -26.1860  -31.4171   20.6057 H   0  0  0  0  0  0
  -26.8874  -30.7338   22.0418 H   0  0  0  0  0  0
  -28.1376  -28.6935   21.2662 H   0  0  0  0  0  0
  -25.8842  -25.7799   19.0207 H   0  0  0  0  0  0
  -23.9828  -27.2895   18.9667 H   0  0  0  0  0  0
  -23.8441  -30.5547   19.3884 H   0  0  0  0  0  0
  -22.8029  -29.2370   19.8290 H   0  0  0  0  0  0
  -25.1311  -36.1799   25.0766 H   0  0  0  0  0  0
  -21.0052  -28.3407   24.1313 H   0  0  0  0  0  0
  -20.5685  -26.2388   23.3652 H   0  0  0  0  0  0
  -21.6644  -26.7455   22.1182 H   0  0  0  0  0  0
  -19.6883  -25.6320   21.1282 H   0  0  0  0  0  0
  -19.6682  -27.3203   20.6741 H   0  0  0  0  0  0
  -17.4197  -26.6749   21.4070 H   0  0  0  0  0  0
  -18.0309  -26.0133   22.9051 H   0  0  0  0  0  0
  -19.7943  -30.7325   24.2287 H   0  0  0  0  0  0
  -17.5026  -31.6303   24.5197 H   0  0  0  0  0  0
  -15.5362  -30.3054   23.7651 H   0  0  0  0  0  0
  -15.8683  -28.0845   22.7150 H   0  0  0  0  0  0
  -24.5942  -30.7134   25.7768 H   0  0  0  0  0  0
  -24.8988  -32.2998   26.4736 H   0  0  0  0  0  0
  -25.8082  -30.9074   27.0198 H   0  0  0  0  0  0
  -26.2971  -29.6679   24.1323 H   0  0  0  0  0  0
  -27.3907  -29.7210   25.4949 H   0  0  0  0  0  0
  -27.8959  -30.4070   23.9679 H   0  0  0  0  0  0
  -27.2466  -33.3715   26.1982 H   0  0  0  0  0  0
  -28.3914  -32.6984   25.0468 H   0  0  0  0  0  0
  -28.0569  -31.8652   26.5607 H   0  0  0  0  0  0
  -28.2539  -38.0104   24.7501 H   0  0  0  0  0  0
  -28.1071  -36.2608   24.6253 H   0  0  0  0  0  0
  -27.2261  -37.1364   25.8864 H   0  0  0  0  0  0
  -20.9456  -29.8805   21.6730 H   0  0  0  0  0  0
  -26.0092  -38.2762   24.1495 H   0  0  0  0  0  0
  -27.9658  -22.3746   22.7912 H   0  0  0  0  0  0
  -28.2753  -20.6027   23.0014 H   0  0  0  0  0  0
  -30.6476  -20.8954   22.2782 H   0  0  0  0  0  0
  -30.3262  -22.6930   22.2224 H   0  0  0  0  0  0
  -28.1663  -16.5240   21.4991 H   0  0  0  0  0  0
  -28.0097  -16.9970   19.8366 H   0  0  0  0  0  0
  -31.3246  -17.9195   21.3126 H   0  0  0  0  0  0
  -31.7147  -17.5842   19.6800 H   0  0  0  0  0  0
  -28.9605  -18.7319   22.2112 H   0  0  0  0  0  0
  -27.4216  -18.9262   21.4484 H   0  0  0  0  0  0
  -31.1055  -20.0481   20.0335 H   0  0  0  0  0  0
  -30.1916  -19.3015   18.7862 H   0  0  0  0  0  0
  -29.5568  -23.1342   19.5403 H   0  0  0  0  0  0
  -27.9719  -22.5976   19.2002 H   0  0  0  0  0  0
  -28.1405  -24.4413   21.6710 H   0  0  0  0  0  0
  -26.8953  -24.3069   20.5088 H   0  0  0  0  0  0
  -28.4174  -19.9086   19.5918 H   0  0  0  0  0  0
  1 25  1  0  0  0
  1 30  2  0  0  0
  1 80  1  0  0  0
  2  3  1  0  0  0
  2 25  1  0  0  0
  2 82  1  0  0  0
  2 83  1  0  0  0
  3  4  1  0  0  0
  3 84  1  0  0  0
  3 85  1  0  0  0
  4  5  1  0  0  0
  4 86  1  0  0  0
  4 87  1  0  0  0
  5  6  1  0  0  0
  5 26  1  0  0  0
  5 88  1  0  0  0
  6 25  1  0  0  0
  6 89  1  0  0  0
  6 90  1  0  0  0
  7  8  2  0  0  0
  7 26  1  0  0  0
  7 29  1  0  0  0
  8  9  1  0  0  0
  8 22  1  0  0  0
  9 10  1  0  0  0
  9 27  2  0  0  0
 10 11  2  0  0  0
 10 15  1  0  0  0
 11 12  1  0  0  0
 11 91  1  0  0  0
 12 13  2  0  0  0
 12 92  1  0  0  0
 13 14  1  0  0  0
 13 31  1  0  0  0
 14 15  2  0  0  0
 14 93  1  0  0  0
 15 94  1  0  0  0
 16 17  2  0  0  0
 16 21  1  0  0  0
 16 31  1  0  0  0
 17 18  1  0  0  0
 17 95  1  0  0  0
 18 19  2  0  0  0
 18 96  1  0  0  0
 19 20  1  0  0  0
 19 24  1  0  0  0
 20 21  2  0  0  0
 20 97  1  0  0  0
 21 23  1  0  0  0
 22 28  1  0  0  0
 22 32  2  0  0  0
 26 27  1  0  0  0
 28 98  1  0  0  0
 28 99  1  0  0  0
 29100  1  0  0  0
 29101  1  0  0  0
 33 34  1  0  0  0
 33 66  1  0  0  0
 33 70  2  0  0  0
 34 36  1  0  0  0
 34 59  1  0  0  0
 34102  1  0  0  0
 35 44  2  0  0  0
 35 45  1  0  0  0
 35 68  1  0  0  0
 36 56  1  0  0  0
 36103  1  0  0  0
 37 39  1  0  0  0
 37 47  1  0  0  0
 37 66  1  0  0  0
 37104  1  0  0  0
 38 43  2  0  0  0
 38 46  1  0  0  0
 38 47  1  0  0  0
 39 64  1  0  0  0
 39 67  2  0  0  0
 40 52  1  0  0  0
 40 53  2  0  0  0
 40 58  1  0  0  0
 41105  1  0  0  0
 41106  1  0  0  0
 41107  1  0  0  0
 41 48  1  0  0  0
 42 43  1  0  0  0
 42 66  1  0  0  0
 42108  1  0  0  0
 42109  1  0  0  0
 43 44  1  0  0  0
 44110  1  0  0  0
 45 46  2  0  0  0
 45111  1  0  0  0
 46112  1  0  0  0
 47113  1  0  0  0
 47114  1  0  0  0
 48 56  1  0  0  0
 48 65  1  0  0  0
 48115  1  0  0  0
 49 50  1  0  0  0
 49 53  1  0  0  0
 49 64  1  0  0  0
 49116  1  0  0  0
 50 51  1  0  0  0
 50117  1  0  0  0
 50118  1  0  0  0
 51 52  1  0  0  0
 51119  1  0  0  0
 51120  1  0  0  0
 52121  1  0  0  0
 52122  1  0  0  0
 53 54  1  0  0  0
 54 55  2  0  0  0
 54123  1  0  0  0
 55 57  1  0  0  0
 55124  1  0  0  0
 56 69  2  0  0  0
 57 58  2  0  0  0
 57125  1  0  0  0
 58126  1  0  0  0
 59 60  1  0  0  0
 59 61  1  0  0  0
 59 62  1  0  0  0
 60127  1  0  0  0
 60128  1  0  0  0
 60129  1  0  0  0
 61130  1  0  0  0
 61131  1  0  0  0
 61132  1  0  0  0
 62133  1  0  0  0
 62134  1  0  0  0
 62135  1  0  0  0
 63 65  1  0  0  0
 63136  1  0  0  0
 63137  1  0  0  0
 63138  1  0  0  0
 64139  1  0  0  0
 65140  1  0  0  0
 68 79  1  0  0  0
 71 72  1  0  0  0
 71 77  1  0  0  0
 71141  1  0  0  0
 71142  1  0  0  0
 72 77  1  0  0  0
 72143  1  0  0  0
 72144  1  0  0  0
 73 75  1  0  0  0
 73 80  1  0  0  0
 73145  1  0  0  0
 73146  1  0  0  0
 74 76  1  0  0  0
 74 80  1  0  0  0
 74147  1  0  0  0
 74148  1  0  0  0
 75149  1  0  0  0
 75150  1  0  0  0
 75 81  1  0  0  0
 76 81  1  0  0  0
 76151  1  0  0  0
 76152  1  0  0  0
 77 78  1  0  0  0
 77 81  1  0  0  0
 78 79  1  0  0  0
 78153  1  0  0  0
 78154  1  0  0  0
 79155  1  0  0  0
 79156  1  0  0  0
 81157  1  0  0  0
M  CHG  1  81   1
M  ISO  4   1 100  68 101  79 101  80 100
M  END
> <chiral flag>
0

> <version>
0

> <s_m_source_file>
/data/baiqing/PycharmProjects/Reinvent-master-3.2/result/LINK_invent/BTK/process_docking_weight1_custom_sum_contain_oxygen_bond_distance_aromatic_linkinvent_7_9_3/rearranged_h_0196.sdf

> <i_m_source_file_index>
48

> <r_mmod_Potential_Energy-OPLS-2005>
1112.27990722656

> <r_mmod_Stretch_Energy-OPLS-2005>
426.164489746094

> <r_mmod_Bend_Energy-OPLS-2005>
415.851623535156

> <r_mmod_Torsional_Energy-OPLS-2005>
446.234039306641

> <r_mmod_Improper_Torsional_Energy-OPLS-2005>
6.19190454483032

> <r_mmod_Van_der_Waal_Energy-OPLS-2005>
121.457855224609

> <r_mmod_Electrostatic_Energy-OPLS-2005>
-185.082275390625

> <r_mmod_Solvation_Energy-OPLS-2005>
-463.212097167969

> <b_mmod_Minimization_Converged-OPLS-2005>
0

> <r_mmod_RMS_Derivative-OPLS-2005>
6.00312471389771

$$$$
48
                    3D
 Structure written by MMmdl.
160169  0  0  1  0            999 V2000
  -30.6799  -14.4796   20.6106 C   0  0  0  0  0  0
  -30.4229  -12.3289   19.4148 C   0  0  0  0  0  0
  -29.4895  -12.5350   18.2059 C   0  0  0  0  0  0
  -28.0107  -12.3828   18.6167 C   0  0  0  0  0  0
  -27.6601  -13.2062   19.8832 C   0  0  2  0  0  0
  -28.6979  -12.9717   21.0028 C   0  0  0  0  0  0
  -25.2565  -13.8166   20.5654 C   0  0  0  0  0  0
  -24.1830  -13.0435   20.9167 C   0  0  0  0  0  0
  -24.6397  -11.6909   20.8755 C   0  0  0  0  0  0
  -23.9074  -10.4297   21.0415 C   0  0  0  0  0  0
  -24.3636   -9.4205   21.9182 C   0  0  0  0  0  0
  -23.6317   -8.2244   22.0741 C   0  0  0  0  0  0
  -22.4302   -8.0288   21.3527 C   0  0  0  0  0  0
  -21.9930   -9.0261   20.4630 C   0  0  0  0  0  0
  -22.7254  -10.2138   20.3046 C   0  0  0  0  0  0
  -21.6860   -6.0752   22.5279 C   0  0  0  0  0  0
  -21.4018   -6.5648   23.8216 C   0  0  0  0  0  0
  -21.3664   -5.6793   24.9172 C   0  0  0  0  0  0
  -21.6044   -4.3058   24.7220 C   0  0  0  0  0  0
  -21.8817   -3.8156   23.4341 C   0  0  0  0  0  0
  -21.9191   -4.6977   22.3398 C   0  0  0  0  0  0
  -22.7864  -13.5237   21.1854 C   0  0  0  0  0  0
  -22.1659   -4.2165   21.0975 F   0  0  0  0  0  0
  -21.5628   -3.4535   25.7730 F   0  0  0  0  0  0
  -30.0288  -13.2936   20.4557 N   0  0  0  0  0  0
  -26.3003  -12.9328   20.3393 N   0  0  0  0  0  0
  -25.9308  -11.6500   20.5777 N   0  0  0  0  0  0
  -22.0538  -12.8201   22.0421 N   0  0  0  0  0  0
  -25.4317  -15.1887   20.4012 N   0  0  0  0  0  0
  -31.7872  -14.7034   20.1100 O   0  0  0  0  0  0
  -21.6642   -6.8899   21.4250 O   0  0  0  0  0  0
  -22.3543  -14.5558   20.6730 O   0  0  0  0  0  0
  -24.6197  -31.8709   23.2083 C   0  0  0  0  0  0
  -25.9097  -32.4760   23.8380 C   0  0  1  0  0  0
  -27.2083  -27.3826   20.1377 C   0  0  0  0  0  0
  -25.5947  -33.8584   24.2289 N   0  0  0  0  0  0
  -23.4034  -30.4992   21.5467 C   0  0  2  0  0  0
  -24.8470  -28.9662   20.0980 C   0  0  0  0  0  0
  -22.7377  -29.4752   22.4979 C   0  0  0  0  0  0
  -18.0278  -28.1353   22.8498 C   0  0  0  0  0  0
  -24.1501  -36.7338   23.2636 C   0  0  0  0  0  0
  -25.9362  -30.8184   21.3698 C   0  0  0  0  0  0
  -26.0027  -29.4479   20.7197 C   0  0  0  0  0  0
  -27.1822  -28.6607   20.7515 C   0  0  0  0  0  0
  -26.0455  -26.9593   19.4421 C   0  0  0  0  0  0
  -24.8638  -27.7186   19.4496 C   0  0  0  0  0  0
  -23.6092  -29.8331   20.1592 C   0  0  0  0  0  0
  -25.4118  -36.3079   24.0315 C   0  0  1  0  0  0
  -20.5866  -28.3660   23.1244 C   0  0  2  0  0  0
  -20.6776  -26.9402   22.5400 C   0  0  0  0  0  0
  -19.5769  -26.6356   21.5184 C   0  0  0  0  0  0
  -18.1947  -26.7902   22.1610 C   0  0  0  0  0  0
  -19.1538  -28.8825   23.2877 C   0  0  0  0  0  0
  -18.9504  -30.1433   23.8894 C   0  0  0  0  0  0
  -17.6540  -30.6572   24.0584 C   0  0  0  0  0  0
  -25.9035  -34.9450   23.5097 C   0  0  0  0  0  0
  -16.5401  -29.9104   23.6373 C   0  0  0  0  0  0
  -16.7290  -28.6498   23.0414 C   0  0  0  0  0  0
  -26.4452  -31.6559   25.0771 C   0  0  0  0  0  0
  -25.3656  -31.3772   26.1469 C   0  0  0  0  0  0
  -27.0347  -30.2954   24.6350 C   0  0  0  0  0  0
  -27.5962  -32.4326   25.7574 C   0  0  0  0  0  0
  -27.5577  -37.1842   24.8441 C   0  0  0  0  0  0
  -21.4127  -29.3070   22.3646 N   0  0  0  0  0  0
  -26.4302  -37.3751   23.9361 N   0  0  0  0  0  0
  -24.6699  -31.0793   22.0985 N   0  0  0  0  0  0
  -23.4150  -28.8369   23.3084 O   0  0  0  0  0  0
  -28.3170  -26.5547   20.2721 O   0  0  0  0  0  0
  -26.5617  -34.8876   22.4682 O   0  0  0  0  0  0
  -23.5374  -32.1588   23.7386 O   0  0  0  0  0  0
  -29.2464  -21.6819   21.3152 C   0  0  0  0  0  0
  -28.7328  -20.2279   21.3921 C   0  0  0  0  0  0
  -31.2879  -20.8940   20.6332 C   0  0  0  0  0  0
  -27.9504  -24.4712   22.8566 C   0  0  0  0  0  0
  -28.2601  -22.8074   21.7007 C   0  0  2  0  0  0
  -28.6315  -24.3163   21.4916 C   0  0  1  0  0  0
  -28.0781  -25.1118   20.2793 C   0  0  0  0  0  0
  -29.3415  -17.8691   20.8173 C   0  0  0  0  0  0
  -30.3514  -16.8590   21.4574 C   0  0  0  0  0  0
  -30.4475  -21.9630   20.9586 N   0  0  0  0  0  0
  -30.9802  -19.6291   20.6133 N   0  0  0  0  0  0
  -29.6741  -19.3114   20.9850 N   0  0  0  0  0  0
  -32.5768  -21.1939   20.3062 N   0  0  0  0  0  0
  -29.9813  -15.4410   21.2512 N   0  0  0  0  0  0
  -28.3001  -23.0856   23.1320 N   0  3  0  0  0  0
  -27.5935  -19.9483   21.7836 O   0  0  0  0  0  0
  -31.4626  -12.4506   19.1075 H   0  0  0  0  0  0
  -30.3395  -11.3117   19.7969 H   0  0  0  0  0  0
  -29.7344  -11.8297   17.4076 H   0  0  0  0  0  0
  -29.6473  -13.5344   17.7978 H   0  0  0  0  0  0
  -27.8222  -11.3241   18.8016 H   0  0  0  0  0  0
  -27.3611  -12.6695   17.7881 H   0  0  0  0  0  0
  -27.7119  -14.2581   19.6036 H   0  0  0  0  0  0
  -28.6798  -11.9291   21.3241 H   0  0  0  0  0  0
  -28.4488  -13.5501   21.8934 H   0  0  0  0  0  0
  -25.2788   -9.5677   22.4738 H   0  0  0  0  0  0
  -24.0021   -7.4630   22.7442 H   0  0  0  0  0  0
  -21.0870   -8.8800   19.8929 H   0  0  0  0  0  0
  -22.3742  -10.9687   19.6149 H   0  0  0  0  0  0
  -21.2014   -7.6155   23.9732 H   0  0  0  0  0  0
  -21.1487   -6.0514   25.9077 H   0  0  0  0  0  0
  -22.0594   -2.7620   23.2830 H   0  0  0  0  0  0
  -22.4159  -11.9840   22.4774 H   0  0  0  0  0  0
  -21.1147  -13.1184   22.2646 H   0  0  0  0  0  0
  -24.6660  -15.8472   20.4914 H   0  0  0  0  0  0
  -26.2833  -15.6206   20.0677 H   0  0  0  0  0  0
  -26.7199  -32.5432   23.1136 H   0  0  0  0  0  0
  -25.0102  -33.9738   25.0440 H   0  0  0  0  0  0
  -22.6887  -31.3149   21.4057 H   0  0  0  0  0  0
  -23.3729  -35.9708   23.3314 H   0  0  0  0  0  0
  -24.3587  -36.8976   22.2045 H   0  0  0  0  0  0
  -23.7320  -37.6573   23.6664 H   0  0  0  0  0  0
  -26.0724  -31.5850   20.5996 H   0  0  0  0  0  0
  -26.8088  -30.8380   22.0110 H   0  0  0  0  0  0
  -28.0458  -29.0221   21.2964 H   0  0  0  0  0  0
  -26.0246  -26.0298   18.8970 H   0  0  0  0  0  0
  -23.9831  -27.3442   18.9513 H   0  0  0  0  0  0
  -23.6920  -30.6155   19.3998 H   0  0  0  0  0  0
  -22.7343  -29.2403   19.8764 H   0  0  0  0  0  0
  -25.1298  -36.1905   25.0809 H   0  0  0  0  0  0
  -20.9919  -28.3230   24.1407 H   0  0  0  0  0  0
  -20.5619  -26.2330   23.3635 H   0  0  0  0  0  0
  -21.6663  -26.7444   22.1283 H   0  0  0  0  0  0
  -19.6969  -25.6273   21.1293 H   0  0  0  0  0  0
  -19.6700  -27.3102   20.6654 H   0  0  0  0  0  0
  -17.4225  -26.6644   21.4013 H   0  0  0  0  0  0
  -18.0385  -26.0043   22.9014 H   0  0  0  0  0  0
  -19.8025  -30.7211   24.2236 H   0  0  0  0  0  0
  -17.5173  -31.6281   24.5140 H   0  0  0  0  0  0
  -15.5436  -30.3059   23.7671 H   0  0  0  0  0  0
  -15.8688  -28.0800   22.7158 H   0  0  0  0  0  0
  -24.5806  -30.7137   25.7781 H   0  0  0  0  0  0
  -24.8947  -32.3007   26.4839 H   0  0  0  0  0  0
  -25.7925  -30.8997   27.0292 H   0  0  0  0  0  0
  -26.3042  -29.6642   24.1277 H   0  0  0  0  0  0
  -27.3846  -29.7215   25.4935 H   0  0  0  0  0  0
  -27.8949  -30.4159   23.9771 H   0  0  0  0  0  0
  -27.2505  -33.3553   26.2209 H   0  0  0  0  0  0
  -28.3752  -32.7021   25.0443 H   0  0  0  0  0  0
  -28.0661  -31.8518   26.5503 H   0  0  0  0  0  0
  -28.2581  -38.0153   24.7447 H   0  0  0  0  0  0
  -28.1070  -36.2671   24.6274 H   0  0  0  0  0  0
  -27.2285  -37.1471   25.8846 H   0  0  0  0  0  0
  -20.9208  -29.8809   21.6923 H   0  0  0  0  0  0
  -26.0173  -38.2826   24.1350 H   0  0  0  0  0  0
  -26.8675  -24.6034   22.8028 H   0  0  0  0  0  0
  -28.4044  -25.2021   23.5250 H   0  0  0  0  0  0
  -27.2409  -22.5768   21.3873 H   0  0  0  0  0  0
  -29.7057  -24.4800   21.5979 H   0  0  0  0  0  0
  -27.0243  -24.8545   20.2517 H   0  0  0  0  0  0
  -28.5021  -24.7108   19.3636 H   0  0  0  0  0  0
  -28.3439  -17.6532   21.2028 H   0  0  0  0  0  0
  -29.3032  -17.6813   19.7447 H   0  0  0  0  0  0
  -30.4026  -17.0312   22.5322 H   0  0  0  0  0  0
  -31.3585  -17.0373   21.0818 H   0  0  0  0  0  0
  -32.9705  -22.1277   20.2992 H   0  0  0  0  0  0
  -33.2921  -20.4906   20.1650 H   0  0  0  0  0  0
  -29.0923  -15.1544   21.6324 H   0  0  0  0  0  0
  -27.6287  -22.5910   23.6959 H   0  0  0  0  0  0
  -29.2408  -23.0016   23.4829 H   0  0  0  0  0  0
  1 25  1  0  0  0
  1 30  2  0  0  0
  1 84  1  0  0  0
  2  3  1  0  0  0
  2 25  1  0  0  0
  2 87  1  0  0  0
  2 88  1  0  0  0
  3  4  1  0  0  0
  3 89  1  0  0  0
  3 90  1  0  0  0
  4  5  1  0  0  0
  4 91  1  0  0  0
  4 92  1  0  0  0
  5  6  1  0  0  0
  5 26  1  0  0  0
  5 93  1  0  0  0
  6 25  1  0  0  0
  6 94  1  0  0  0
  6 95  1  0  0  0
  7  8  2  0  0  0
  7 26  1  0  0  0
  7 29  1  0  0  0
  8  9  1  0  0  0
  8 22  1  0  0  0
  9 10  1  0  0  0
  9 27  2  0  0  0
 10 11  2  0  0  0
 10 15  1  0  0  0
 11 12  1  0  0  0
 11 96  1  0  0  0
 12 13  2  0  0  0
 12 97  1  0  0  0
 13 14  1  0  0  0
 13 31  1  0  0  0
 14 15  2  0  0  0
 14 98  1  0  0  0
 15 99  1  0  0  0
 16 17  2  0  0  0
 16 21  1  0  0  0
 16 31  1  0  0  0
 17 18  1  0  0  0
 17100  1  0  0  0
 18 19  2  0  0  0
 18101  1  0  0  0
 19 20  1  0  0  0
 19 24  1  0  0  0
 20 21  2  0  0  0
 20102  1  0  0  0
 21 23  1  0  0  0
 22 28  1  0  0  0
 22 32  2  0  0  0
 26 27  1  0  0  0
 28103  1  0  0  0
 28104  1  0  0  0
 29105  1  0  0  0
 29106  1  0  0  0
 33 34  1  0  0  0
 33 66  1  0  0  0
 33 70  2  0  0  0
 34 36  1  0  0  0
 34 59  1  0  0  0
 34107  1  0  0  0
 35 44  2  0  0  0
 35 45  1  0  0  0
 35 68  1  0  0  0
 36 56  1  0  0  0
 36108  1  0  0  0
 37 39  1  0  0  0
 37 47  1  0  0  0
 37 66  1  0  0  0
 37109  1  0  0  0
 38 43  2  0  0  0
 38 46  1  0  0  0
 38 47  1  0  0  0
 39 64  1  0  0  0
 39 67  2  0  0  0
 40 52  1  0  0  0
 40 53  2  0  0  0
 40 58  1  0  0  0
 41110  1  0  0  0
 41111  1  0  0  0
 41112  1  0  0  0
 41 48  1  0  0  0
 42 43  1  0  0  0
 42 66  1  0  0  0
 42113  1  0  0  0
 42114  1  0  0  0
 43 44  1  0  0  0
 44115  1  0  0  0
 45 46  2  0  0  0
 45116  1  0  0  0
 46117  1  0  0  0
 47118  1  0  0  0
 47119  1  0  0  0
 48 56  1  0  0  0
 48 65  1  0  0  0
 48120  1  0  0  0
 49 50  1  0  0  0
 49 53  1  0  0  0
 49 64  1  0  0  0
 49121  1  0  0  0
 50 51  1  0  0  0
 50122  1  0  0  0
 50123  1  0  0  0
 51 52  1  0  0  0
 51124  1  0  0  0
 51125  1  0  0  0
 52126  1  0  0  0
 52127  1  0  0  0
 53 54  1  0  0  0
 54 55  2  0  0  0
 54128  1  0  0  0
 55 57  1  0  0  0
 55129  1  0  0  0
 56 69  2  0  0  0
 57 58  2  0  0  0
 57130  1  0  0  0
 58131  1  0  0  0
 59 60  1  0  0  0
 59 61  1  0  0  0
 59 62  1  0  0  0
 60132  1  0  0  0
 60133  1  0  0  0
 60134  1  0  0  0
 61135  1  0  0  0
 61136  1  0  0  0
 61137  1  0  0  0
 62138  1  0  0  0
 62139  1  0  0  0
 62140  1  0  0  0
 63 65  1  0  0  0
 63141  1  0  0  0
 63142  1  0  0  0
 63143  1  0  0  0
 64144  1  0  0  0
 65145  1  0  0  0
 68 77  1  0  0  0
 71 72  1  0  0  0
 71 80  2  0  0  0
 71 75  1  0  0  0
 72 82  1  0  0  0
 72 86  2  0  0  0
 73 80  1  0  0  0
 73 81  2  0  0  0
 73 83  1  0  0  0
 74 76  1  0  0  0
 74 85  1  0  0  0
 74146  1  0  0  0
 74147  1  0  0  0
 75 76  1  0  0  0
 75 85  1  0  0  0
 75148  1  0  0  0
 76 77  1  0  0  0
 76149  1  0  0  0
 77150  1  0  0  0
 77151  1  0  0  0
 78 79  1  0  0  0
 78 82  1  0  0  0
 78152  1  0  0  0
 78153  1  0  0  0
 79 84  1  0  0  0
 79154  1  0  0  0
 79155  1  0  0  0
 81 82  1  0  0  0
 83156  1  0  0  0
 83157  1  0  0  0
 84158  1  0  0  0
 85159  1  0  0  0
 85160  1  0  0  0
M  CHG  1  85   1
M  ISO  4   1 100  68 101  77 101  84 100
M  END
> <chiral flag>
0

> <version>
0

> <s_m_source_file>
/data/baiqing/PycharmProjects/Reinvent-master-3.2/result/LINK_invent/BTK/process_docking_weight1_custom_sum_contain_oxygen_bond_distance_aromatic_linkinvent_7_9_3/rearranged_h_0196.sdf

> <i_m_source_file_index>
49

> <r_mmod_Potential_Energy-OPLS-2005>
-445.293792724609

> <r_mmod_Stretch_Energy-OPLS-2005>
59.4634590148926

> <r_mmod_Bend_Energy-OPLS-2005>
151.963302612305

> <r_mmod_Torsional_Energy-OPLS-2005>
221.335861206055

> <r_mmod_Improper_Torsional_Energy-OPLS-2005>
3.22774195671082

> <r_mmod_Van_der_Waal_Energy-OPLS-2005>
187.687606811523

> <r_mmod_Electrostatic_Energy-OPLS-2005>
-574.420227050781

> <r_mmod_Solvation_Energy-OPLS-2005>
-520.666931152344

> <b_mmod_Minimization_Converged-OPLS-2005>
0

> <r_mmod_RMS_Derivative-OPLS-2005>
9.01768207550049

$$$$
49
                    3D
 Structure written by MMmdl.
154163  0  0  1  0            999 V2000
  -30.6813  -14.8325   20.4433 C   0  0  0  0  0  0
  -30.4069  -12.5257   19.4866 C   0  0  0  0  0  0
  -29.4981  -12.4938   18.2425 C   0  0  0  0  0  0
  -28.0370  -12.2807   18.6706 C   0  0  0  0  0  0
  -27.6197  -13.2276   19.8232 C   0  0  2  0  0  0
  -28.6668  -13.2951   20.9605 C   0  0  0  0  0  0
  -25.2442  -13.8166   20.5706 C   0  0  0  0  0  0
  -24.1754  -13.0415   20.9247 C   0  0  0  0  0  0
  -24.6353  -11.6897   20.8784 C   0  0  0  0  0  0
  -23.9043  -10.4278   21.0430 C   0  0  0  0  0  0
  -24.3605   -9.4193   21.9198 C   0  0  0  0  0  0
  -23.6285   -8.2226   22.0757 C   0  0  0  0  0  0
  -22.4268   -8.0269   21.3545 C   0  0  0  0  0  0
  -21.9901   -9.0242   20.4649 C   0  0  0  0  0  0
  -22.7224  -10.2123   20.3067 C   0  0  0  0  0  0
  -21.6848   -6.0728   22.5279 C   0  0  0  0  0  0
  -21.4011   -6.5635   23.8211 C   0  0  0  0  0  0
  -21.3658   -5.6790   24.9174 C   0  0  0  0  0  0
  -21.6044   -4.3052   24.7227 C   0  0  0  0  0  0
  -21.8819   -3.8143   23.4349 C   0  0  0  0  0  0
  -21.9191   -4.6957   22.3403 C   0  0  0  0  0  0
  -22.7781  -13.5205   21.1895 C   0  0  0  0  0  0
  -22.1661   -4.2143   21.0981 F   0  0  0  0  0  0
  -21.5630   -3.4537   25.7740 F   0  0  0  0  0  0
  -29.9504  -13.6548   20.3481 N   0  0  0  0  0  0
  -26.2832  -12.9359   20.3218 N   0  0  0  0  0  0
  -25.9272  -11.6515   20.5767 N   0  0  0  0  0  0
  -22.0428  -12.8199   22.0451 N   0  0  0  0  0  0
  -25.4099  -15.1887   20.4102 N   0  0  0  0  0  0
  -31.8872  -14.7435   20.1924 O   0  0  0  0  0  0
  -21.6633   -6.8867   21.4239 O   0  0  0  0  0  0
  -22.3474  -14.5510   20.6732 O   0  0  0  0  0  0
  -24.6357  -31.8513   23.1950 C   0  0  0  0  0  0
  -25.9164  -32.4731   23.8309 C   0  0  1  0  0  0
  -27.2170  -27.2173   20.1241 C   0  0  0  0  0  0
  -25.5942  -33.8535   24.2229 N   0  0  0  0  0  0
  -23.4340  -30.4742   21.5392 C   0  0  2  0  0  0
  -24.8802  -28.9171   20.1060 C   0  0  0  0  0  0
  -22.7525  -29.4583   22.4888 C   0  0  0  0  0  0
  -18.0297  -28.1390   22.8482 C   0  0  0  0  0  0
  -24.1491  -36.7272   23.2641 C   0  0  0  0  0  0
  -25.9842  -30.7498   21.3817 C   0  0  0  0  0  0
  -26.0539  -29.3698   20.7200 C   0  0  0  0  0  0
  -27.2202  -28.5314   20.7205 C   0  0  0  0  0  0
  -26.0097  -26.8395   19.4923 C   0  0  0  0  0  0
  -24.8660  -27.6618   19.4824 C   0  0  0  0  0  0
  -23.6538  -29.8095   20.1550 C   0  0  0  0  0  0
  -25.4120  -36.3055   24.0321 C   0  0  1  0  0  0
  -20.5904  -28.3706   23.1256 C   0  0  2  0  0  0
  -20.6783  -26.9418   22.5406 C   0  0  0  0  0  0
  -19.5757  -26.6382   21.5211 C   0  0  0  0  0  0
  -18.1938  -26.7930   22.1624 C   0  0  0  0  0  0
  -19.1552  -28.8865   23.2862 C   0  0  0  0  0  0
  -18.9471  -30.1464   23.8884 C   0  0  0  0  0  0
  -17.6469  -30.6588   24.0561 C   0  0  0  0  0  0
  -25.9065  -34.9427   23.5080 C   0  0  0  0  0  0
  -16.5360  -29.9084   23.6333 C   0  0  0  0  0  0
  -16.7283  -28.6502   23.0354 C   0  0  0  0  0  0
  -26.4513  -31.6575   25.0720 C   0  0  0  0  0  0
  -25.3719  -31.3741   26.1430 C   0  0  0  0  0  0
  -27.0371  -30.2983   24.6249 C   0  0  0  0  0  0
  -27.6054  -32.4330   25.7500 C   0  0  0  0  0  0
  -27.5577  -37.1793   24.8466 C   0  0  0  0  0  0
  -21.4227  -29.3045   22.3636 N   0  0  0  0  0  0
  -26.4290  -37.3759   23.9406 N   0  0  0  0  0  0
  -24.7040  -31.0442   22.0944 N   0  0  0  0  0  0
  -23.4207  -28.8125   23.3003 O   0  0  0  0  0  0
  -28.3013  -26.2971   20.2295 O   0  0  0  0  0  0
  -26.5643  -34.8911   22.4654 O   0  0  0  0  0  0
  -23.5496  -32.1355   23.7221 O   0  0  0  0  0  0
  -27.6970  -22.4492   19.6512 C   0  0  0  0  0  0
  -29.7512  -22.9671   20.6085 C   0  0  0  0  0  0
  -28.5835  -23.5047   20.0027 C   0  0  0  0  0  0
  -29.0881  -20.7088   20.3955 C   0  0  0  0  0  0
  -30.5932  -18.7161   21.1372 C   0  0  0  0  0  0
  -28.4943  -18.1658   20.0736 C   0  0  0  0  0  0
  -31.0866  -17.3226   20.5506 C   0  0  0  0  0  0
  -28.7624  -16.6927   20.6757 C   0  0  0  0  0  0
  -28.4033  -25.0107   19.4347 C   0  0  0  0  0  0
  -27.9410  -21.1065   19.8399 N   0  0  0  0  0  0
  -29.9856  -21.6186   20.8005 N   0  0  0  0  0  0
  -29.3731  -19.2791   20.5261 N   0  0  0  0  0  0
  -30.1519  -16.1442   20.5917 N   0  0  0  0  0  0
  -31.4470  -12.6174   19.1706 H   0  0  0  0  0  0
  -30.3517  -11.5815   20.0311 H   0  0  0  0  0  0
  -29.8091  -11.6974   17.5650 H   0  0  0  0  0  0
  -29.5927  -13.4279   17.6865 H   0  0  0  0  0  0
  -27.9373  -11.2430   18.9912 H   0  0  0  0  0  0
  -27.3687  -12.4010   17.8171 H   0  0  0  0  0  0
  -27.5633  -14.1985   19.3411 H   0  0  0  0  0  0
  -28.7396  -12.3411   21.4846 H   0  0  0  0  0  0
  -28.3784  -14.0367   21.7066 H   0  0  0  0  0  0
  -25.2748   -9.5671   22.4775 H   0  0  0  0  0  0
  -23.9995   -7.4614   22.7472 H   0  0  0  0  0  0
  -21.0834   -8.8759   19.8952 H   0  0  0  0  0  0
  -22.3683  -10.9666   19.6180 H   0  0  0  0  0  0
  -21.2002   -7.6143   23.9712 H   0  0  0  0  0  0
  -21.1481   -6.0522   25.9077 H   0  0  0  0  0  0
  -22.0601   -2.7605   23.2850 H   0  0  0  0  0  0
  -22.4048  -11.9865   22.4844 H   0  0  0  0  0  0
  -21.1045  -13.1223   22.2655 H   0  0  0  0  0  0
  -24.6392  -15.8382   20.5231 H   0  0  0  0  0  0
  -26.2509  -15.6283   20.0636 H   0  0  0  0  0  0
  -26.7228  -32.5360   23.1041 H   0  0  0  0  0  0
  -25.0075  -33.9663   25.0365 H   0  0  0  0  0  0
  -22.7325  -31.2980   21.3922 H   0  0  0  0  0  0
  -23.3755  -35.9603   23.3299 H   0  0  0  0  0  0
  -24.3577  -36.8905   22.2056 H   0  0  0  0  0  0
  -23.7244  -37.6470   23.6675 H   0  0  0  0  0  0
  -26.1317  -31.5101   20.6135 H   0  0  0  0  0  0
  -26.8583  -30.7955   22.0197 H   0  0  0  0  0  0
  -28.1151  -28.8711   21.2231 H   0  0  0  0  0  0
  -25.8852  -25.8689   19.0413 H   0  0  0  0  0  0
  -23.9625  -27.3038   19.0079 H   0  0  0  0  0  0
  -23.7824  -30.5867   19.4008 H   0  0  0  0  0  0
  -22.7702  -29.2473   19.8474 H   0  0  0  0  0  0
  -25.1306  -36.1893   25.0814 H   0  0  0  0  0  0
  -20.9998  -28.3290   24.1376 H   0  0  0  0  0  0
  -20.5679  -26.2318   23.3617 H   0  0  0  0  0  0
  -21.6650  -26.7434   22.1203 H   0  0  0  0  0  0
  -19.6918  -25.6289   21.1249 H   0  0  0  0  0  0
  -19.6693  -27.3185   20.6736 H   0  0  0  0  0  0
  -17.4207  -26.6674   21.4029 H   0  0  0  0  0  0
  -18.0340  -26.0075   22.9025 H   0  0  0  0  0  0
  -19.7946  -30.7283   24.2249 H   0  0  0  0  0  0
  -17.5022  -31.6267   24.5165 H   0  0  0  0  0  0
  -15.5360  -30.2981   23.7664 H   0  0  0  0  0  0
  -15.8683  -28.0816   22.7077 H   0  0  0  0  0  0
  -24.5900  -30.7085   25.7754 H   0  0  0  0  0  0
  -24.8905  -32.2916   26.4824 H   0  0  0  0  0  0
  -25.8021  -30.8937   27.0226 H   0  0  0  0  0  0
  -26.2971  -29.6716   24.1257 H   0  0  0  0  0  0
  -27.4013  -29.7265   25.4794 H   0  0  0  0  0  0
  -27.8866  -30.4240   23.9532 H   0  0  0  0  0  0
  -27.2650  -33.3639   26.2048 H   0  0  0  0  0  0
  -28.3880  -32.6877   25.0341 H   0  0  0  0  0  0
  -28.0705  -31.8477   26.5443 H   0  0  0  0  0  0
  -28.2593  -38.0091   24.7508 H   0  0  0  0  0  0
  -28.1075  -36.2621   24.6300 H   0  0  0  0  0  0
  -27.2293  -37.1450   25.8868 H   0  0  0  0  0  0
  -20.9420  -29.8767   21.6835 H   0  0  0  0  0  0
  -26.0164  -38.2831   24.1405 H   0  0  0  0  0  0
  -26.7824  -22.6774   19.1239 H   0  0  0  0  0  0
  -30.5633  -23.6243   20.8820 H   0  0  0  0  0  0
  -31.4033  -19.4395   21.0342 H   0  0  0  0  0  0
  -30.4182  -18.6189   22.2095 H   0  0  0  0  0  0
  -27.4604  -18.4451   20.2821 H   0  0  0  0  0  0
  -28.5699  -18.1208   18.9863 H   0  0  0  0  0  0
  -31.9998  -17.0678   21.0920 H   0  0  0  0  0  0
  -31.3930  -17.4644   19.5129 H   0  0  0  0  0  0
  -28.0851  -16.0186   20.1711 H   0  0  0  0  0  0
  -28.4685  -16.6760   21.7260 H   0  0  0  0  0  0
  -27.6623  -24.9663   18.6413 H   0  0  0  0  0  0
  -29.3206  -25.1648   18.8656 H   0  0  0  0  0  0
  1 25  1  0  0  0
  1 30  2  0  0  0
  1 83  1  0  0  0
  2  3  1  0  0  0
  2 25  1  0  0  0
  2 84  1  0  0  0
  2 85  1  0  0  0
  3  4  1  0  0  0
  3 86  1  0  0  0
  3 87  1  0  0  0
  4  5  1  0  0  0
  4 88  1  0  0  0
  4 89  1  0  0  0
  5  6  1  0  0  0
  5 26  1  0  0  0
  5 90  1  0  0  0
  6 25  1  0  0  0
  6 91  1  0  0  0
  6 92  1  0  0  0
  7  8  2  0  0  0
  7 26  1  0  0  0
  7 29  1  0  0  0
  8  9  1  0  0  0
  8 22  1  0  0  0
  9 10  1  0  0  0
  9 27  2  0  0  0
 10 11  2  0  0  0
 10 15  1  0  0  0
 11 12  1  0  0  0
 11 93  1  0  0  0
 12 13  2  0  0  0
 12 94  1  0  0  0
 13 14  1  0  0  0
 13 31  1  0  0  0
 14 15  2  0  0  0
 14 95  1  0  0  0
 15 96  1  0  0  0
 16 17  2  0  0  0
 16 21  1  0  0  0
 16 31  1  0  0  0
 17 18  1  0  0  0
 17 97  1  0  0  0
 18 19  2  0  0  0
 18 98  1  0  0  0
 19 20  1  0  0  0
 19 24  1  0  0  0
 20 21  2  0  0  0
 20 99  1  0  0  0
 21 23  1  0  0  0
 22 28  1  0  0  0
 22 32  2  0  0  0
 26 27  1  0  0  0
 28100  1  0  0  0
 28101  1  0  0  0
 29102  1  0  0  0
 29103  1  0  0  0
 33 34  1  0  0  0
 33 66  1  0  0  0
 33 70  2  0  0  0
 34 36  1  0  0  0
 34 59  1  0  0  0
 34104  1  0  0  0
 35 44  2  0  0  0
 35 45  1  0  0  0
 35 68  1  0  0  0
 36 56  1  0  0  0
 36105  1  0  0  0
 37 39  1  0  0  0
 37 47  1  0  0  0
 37 66  1  0  0  0
 37106  1  0  0  0
 38 43  2  0  0  0
 38 46  1  0  0  0
 38 47  1  0  0  0
 39 64  1  0  0  0
 39 67  2  0  0  0
 40 52  1  0  0  0
 40 53  2  0  0  0
 40 58  1  0  0  0
 41107  1  0  0  0
 41108  1  0  0  0
 41109  1  0  0  0
 41 48  1  0  0  0
 42 43  1  0  0  0
 42 66  1  0  0  0
 42110  1  0  0  0
 42111  1  0  0  0
 43 44  1  0  0  0
 44112  1  0  0  0
 45 46  2  0  0  0
 45113  1  0  0  0
 46114  1  0  0  0
 47115  1  0  0  0
 47116  1  0  0  0
 48 56  1  0  0  0
 48 65  1  0  0  0
 48117  1  0  0  0
 49 50  1  0  0  0
 49 53  1  0  0  0
 49 64  1  0  0  0
 49118  1  0  0  0
 50 51  1  0  0  0
 50119  1  0  0  0
 50120  1  0  0  0
 51 52  1  0  0  0
 51121  1  0  0  0
 51122  1  0  0  0
 52123  1  0  0  0
 52124  1  0  0  0
 53 54  1  0  0  0
 54 55  2  0  0  0
 54125  1  0  0  0
 55 57  1  0  0  0
 55126  1  0  0  0
 56 69  2  0  0  0
 57 58  2  0  0  0
 57127  1  0  0  0
 58128  1  0  0  0
 59 60  1  0  0  0
 59 61  1  0  0  0
 59 62  1  0  0  0
 60129  1  0  0  0
 60130  1  0  0  0
 60131  1  0  0  0
 61132  1  0  0  0
 61133  1  0  0  0
 61134  1  0  0  0
 62135  1  0  0  0
 62136  1  0  0  0
 62137  1  0  0  0
 63 65  1  0  0  0
 63138  1  0  0  0
 63139  1  0  0  0
 63140  1  0  0  0
 64141  1  0  0  0
 65142  1  0  0  0
 68 79  1  0  0  0
 71 73  2  0  0  0
 71 80  1  0  0  0
 71143  1  0  0  0
 72 73  1  0  0  0
 72 81  2  0  0  0
 72144  1  0  0  0
 73 79  1  0  0  0
 74 80  2  0  0  0
 74 81  1  0  0  0
 74 82  1  0  0  0
 75 77  1  0  0  0
 75 82  1  0  0  0
 75145  1  0  0  0
 75146  1  0  0  0
 76 78  1  0  0  0
 76 82  1  0  0  0
 76147  1  0  0  0
 76148  1  0  0  0
 77 83  1  0  0  0
 77149  1  0  0  0
 77150  1  0  0  0
 78 83  1  0  0  0
 78151  1  0  0  0
 78152  1  0  0  0
 79153  1  0  0  0
 79154  1  0  0  0
M  ISO  4   1 100  68 101  79 101  83 100
M  END
> <chiral flag>
0

> <version>
0

> <s_m_source_file>
/data/baiqing/PycharmProjects/Reinvent-master-3.2/result/LINK_invent/BTK/process_docking_weight1_custom_sum_contain_oxygen_bond_distance_aromatic_linkinvent_7_9_3/rearranged_h_0196.sdf

> <i_m_source_file_index>
50

> <r_mmod_Potential_Energy-OPLS-2005>
-42.3775787353516

> <r_mmod_Stretch_Energy-OPLS-2005>
143.66618347168

> <r_mmod_Bend_Energy-OPLS-2005>
248.999542236328

> <r_mmod_Torsional_Energy-OPLS-2005>
326.934112548828

> <r_mmod_Improper_Torsional_Energy-OPLS-2005>
7.51696586608887

> <r_mmod_Van_der_Waal_Energy-OPLS-2005>
164.306686401367

> <r_mmod_Electrostatic_Energy-OPLS-2005>
-818.894470214844

> <r_mmod_Solvation_Energy-OPLS-2005>
-245.939407348633

> <b_mmod_Minimization_Converged-OPLS-2005>
0

> <r_mmod_RMS_Derivative-OPLS-2005>
0.104264311492443

$$$$
51
                    3D
 Structure written by MMmdl.
156165  0  0  1  0            999 V2000
  -30.6822  -14.4334   20.5945 C   0  0  0  0  0  0
  -30.4303  -12.2960   19.3905 C   0  0  0  0  0  0
  -29.4928  -12.5328   18.1884 C   0  0  0  0  0  0
  -28.0124  -12.3883   18.5982 C   0  0  0  0  0  0
  -27.6690  -13.1948   19.8785 C   0  0  2  0  0  0
  -28.7110  -12.9207   20.9850 C   0  0  0  0  0  0
  -25.2626  -13.8125   20.5637 C   0  0  0  0  0  0
  -24.1858  -13.0429   20.9137 C   0  0  0  0  0  0
  -24.6409  -11.6896   20.8721 C   0  0  0  0  0  0
  -23.9071  -10.4294   21.0395 C   0  0  0  0  0  0
  -24.3632   -9.4204   21.9164 C   0  0  0  0  0  0
  -23.6303   -8.2242   22.0745 C   0  0  0  0  0  0
  -22.4276   -8.0293   21.3549 C   0  0  0  0  0  0
  -21.9912   -9.0254   20.4647 C   0  0  0  0  0  0
  -22.7244  -10.2126   20.3045 C   0  0  0  0  0  0
  -21.6842   -6.0733   22.5272 C   0  0  0  0  0  0
  -21.4018   -6.5632   23.8208 C   0  0  0  0  0  0
  -21.3676   -5.6778   24.9159 C   0  0  0  0  0  0
  -21.6056   -4.3049   24.7201 C   0  0  0  0  0  0
  -21.8825   -3.8144   23.4322 C   0  0  0  0  0  0
  -21.9186   -4.6964   22.3381 C   0  0  0  0  0  0
  -22.7890  -13.5260   21.1765 C   0  0  0  0  0  0
  -22.1660   -4.2156   21.0957 F   0  0  0  0  0  0
  -21.5643   -3.4543   25.7716 F   0  0  0  0  0  0
  -30.0430  -13.2432   20.4444 N   0  0  0  0  0  0
  -26.3064  -12.9281   20.3349 N   0  0  0  0  0  0
  -25.9329  -11.6463   20.5742 N   0  0  0  0  0  0
  -22.0519  -12.8306   22.0363 N   0  0  0  0  0  0
  -25.4369  -15.1834   20.4026 N   0  0  0  0  0  0
  -31.7842  -14.6864   20.1007 O   0  0  0  0  0  0
  -21.6652   -6.8884   21.4236 O   0  0  0  0  0  0
  -22.3582  -14.5540   20.6561 O   0  0  0  0  0  0
  -24.6115  -31.8702   23.2142 C   0  0  0  0  0  0
  -25.9043  -32.4819   23.8415 C   0  0  1  0  0  0
  -27.2411  -27.4724   20.0879 C   0  0  0  0  0  0
  -25.5944  -33.8618   24.2364 N   0  0  0  0  0  0
  -23.3966  -30.4932   21.5531 C   0  0  2  0  0  0
  -24.8405  -28.9631   20.1151 C   0  0  0  0  0  0
  -22.7379  -29.4667   22.5011 C   0  0  0  0  0  0
  -18.0262  -28.1374   22.8477 C   0  0  0  0  0  0
  -24.1484  -36.7283   23.2640 C   0  0  0  0  0  0
  -25.9203  -30.8456   21.3608 C   0  0  0  0  0  0
  -25.9971  -29.4848   20.7067 C   0  0  0  0  0  0
  -27.1986  -28.7485   20.6870 C   0  0  0  0  0  0
  -26.0655  -26.9513   19.5008 C   0  0  0  0  0  0
  -24.8681  -27.6942   19.5105 C   0  0  0  0  0  0
  -23.6008  -29.8269   20.1669 C   0  0  0  0  0  0
  -25.4099  -36.3097   24.0351 C   0  0  1  0  0  0
  -20.5841  -28.3660   23.1316 C   0  0  2  0  0  0
  -20.6756  -26.9406   22.5411 C   0  0  0  0  0  0
  -19.5737  -26.6380   21.5200 C   0  0  0  0  0  0
  -18.1915  -26.7922   22.1607 C   0  0  0  0  0  0
  -19.1511  -28.8832   23.2893 C   0  0  0  0  0  0
  -18.9444  -30.1434   23.8906 C   0  0  0  0  0  0
  -17.6453  -30.6586   24.0555 C   0  0  0  0  0  0
  -25.9034  -34.9469   23.5140 C   0  0  0  0  0  0
  -16.5339  -29.9076   23.6338 C   0  0  0  0  0  0
  -16.7254  -28.6489   23.0365 C   0  0  0  0  0  0
  -26.4514  -31.6578   25.0717 C   0  0  0  0  0  0
  -25.3822  -31.3657   26.1493 C   0  0  0  0  0  0
  -27.0354  -30.3031   24.6064 C   0  0  0  0  0  0
  -27.6116  -32.4291   25.7453 C   0  0  0  0  0  0
  -27.5578  -37.1779   24.8471 C   0  0  0  0  0  0
  -21.4114  -29.3030   22.3730 N   0  0  0  0  0  0
  -26.4275  -37.3789   23.9437 N   0  0  0  0  0  0
  -24.6605  -31.0836   22.1016 N   0  0  0  0  0  0
  -23.4161  -28.8225   23.3060 O   0  0  0  0  0  0
  -28.4422  -26.8038   20.0816 O   0  0  0  0  0  0
  -26.5581  -34.8912   22.4694 O   0  0  0  0  0  0
  -23.5322  -32.1459   23.7557 O   0  0  0  0  0  0
  -28.1829  -22.2483   19.1226 C   0  0  0  0  0  0
  -29.0053  -21.1691   19.3058 C   0  0  0  0  0  0
  -29.5297  -17.4606   22.4463 C   0  0  0  0  0  0
  -30.1977  -16.7814   21.2675 C   0  0  2  0  0  0
  -29.0509  -17.7740   21.0507 C   0  0  2  0  0  0
  -28.6495  -19.7230   19.5386 C   0  0  0  0  0  0
  -28.7527  -24.7267   18.8325 C   0  0  0  0  0  0
  -28.4273  -25.3832   20.1813 C   0  0  0  0  0  0
  -30.3276  -21.6222   19.2848 N   0  0  0  0  0  0
  -30.3411  -22.9075   19.0968 N   0  0  0  0  0  0
  -29.0524  -23.3141   18.9991 N   0  0  0  0  0  0
  -29.9387  -15.3744   21.1966 N   0  0  0  0  0  0
  -29.4117  -19.1653   20.6744 N   0  3  0  0  0  0
  -31.4723  -12.4123   19.0868 H   0  0  0  0  0  0
  -30.3388  -11.2685   19.7484 H   0  0  0  0  0  0
  -29.7232  -11.8383   17.3802 H   0  0  0  0  0  0
  -29.6638  -13.5326   17.7872 H   0  0  0  0  0  0
  -27.8146  -11.3270   18.7556 H   0  0  0  0  0  0
  -27.3667  -12.6994   17.7765 H   0  0  0  0  0  0
  -27.7261  -14.2526   19.6168 H   0  0  0  0  0  0
  -28.6864  -11.8675   21.2736 H   0  0  0  0  0  0
  -28.4692  -13.4725   21.8935 H   0  0  0  0  0  0
  -25.2787   -9.5687   22.4716 H   0  0  0  0  0  0
  -24.0021   -7.4644   22.7459 H   0  0  0  0  0  0
  -21.0837   -8.8758   19.8965 H   0  0  0  0  0  0
  -22.3692  -10.9650   19.6153 H   0  0  0  0  0  0
  -21.2005   -7.6138   23.9715 H   0  0  0  0  0  0
  -21.1511   -6.0500   25.9062 H   0  0  0  0  0  0
  -22.0585   -2.7606   23.2800 H   0  0  0  0  0  0
  -22.4156  -12.0040   22.4874 H   0  0  0  0  0  0
  -21.1120  -13.1318   22.2490 H   0  0  0  0  0  0
  -24.6708  -15.8401   20.5064 H   0  0  0  0  0  0
  -26.2800  -15.6133   20.0482 H   0  0  0  0  0  0
  -26.7114  -32.5540   23.1179 H   0  0  0  0  0  0
  -25.0196  -33.9794   25.0581 H   0  0  0  0  0  0
  -22.6852  -31.3107   21.4178 H   0  0  0  0  0  0
  -23.3751  -35.9611   23.3306 H   0  0  0  0  0  0
  -24.3600  -36.8879   22.2058 H   0  0  0  0  0  0
  -23.7208  -37.6480   23.6636 H   0  0  0  0  0  0
  -26.0410  -31.6141   20.5955 H   0  0  0  0  0  0
  -26.8051  -30.8889   21.9850 H   0  0  0  0  0  0
  -28.0953  -29.1544   21.1362 H   0  0  0  0  0  0
  -26.0654  -25.9851   19.0195 H   0  0  0  0  0  0
  -23.9799  -27.2874   19.0468 H   0  0  0  0  0  0
  -23.7067  -30.6026   19.4081 H   0  0  0  0  0  0
  -22.7235  -29.2469   19.8700 H   0  0  0  0  0  0
  -25.1252  -36.1965   25.0835 H   0  0  0  0  0  0
  -20.9934  -28.3224   24.1433 H   0  0  0  0  0  0
  -20.5661  -26.2271   23.3594 H   0  0  0  0  0  0
  -21.6630  -26.7456   22.1204 H   0  0  0  0  0  0
  -19.6916  -25.6292   21.1222 H   0  0  0  0  0  0
  -19.6676  -27.3196   20.6735 H   0  0  0  0  0  0
  -17.4188  -26.6656   21.4014 H   0  0  0  0  0  0
  -18.0332  -26.0055   22.8993 H   0  0  0  0  0  0
  -19.7925  -30.7233   24.2287 H   0  0  0  0  0  0
  -17.5014  -31.6277   24.5144 H   0  0  0  0  0  0
  -15.5348  -30.2992   23.7663 H   0  0  0  0  0  0
  -15.8638  -28.0809   22.7111 H   0  0  0  0  0  0
  -24.6015  -30.6974   25.7844 H   0  0  0  0  0  0
  -24.9010  -32.2790   26.4978 H   0  0  0  0  0  0
  -25.8222  -30.8818   27.0217 H   0  0  0  0  0  0
  -26.2881  -29.6755   24.1189 H   0  0  0  0  0  0
  -27.4231  -29.7287   25.4485 H   0  0  0  0  0  0
  -27.8668  -30.4370   23.9145 H   0  0  0  0  0  0
  -27.2779  -33.3583   26.2076 H   0  0  0  0  0  0
  -28.3892  -32.6850   25.0245 H   0  0  0  0  0  0
  -28.0835  -31.8394   26.5319 H   0  0  0  0  0  0
  -28.2570  -38.0106   24.7560 H   0  0  0  0  0  0
  -28.1088  -36.2631   24.6215 H   0  0  0  0  0  0
  -27.2316  -37.1337   25.8881 H   0  0  0  0  0  0
  -20.9289  -29.8736   21.6928 H   0  0  0  0  0  0
  -26.0157  -38.2854   24.1472 H   0  0  0  0  0  0
  -27.1050  -22.3461   19.0802 H   0  0  0  0  0  0
  -30.1273  -18.1875   22.9936 H   0  0  0  0  0  0
  -28.8626  -16.8702   23.0738 H   0  0  0  0  0  0
  -31.2047  -17.1183   21.0145 H   0  0  0  0  0  0
  -28.0519  -17.4449   20.7651 H   0  0  0  0  0  0
  -28.8411  -19.1356   18.6396 H   0  0  0  0  0  0
  -27.5801  -19.6405   19.7466 H   0  0  0  0  0  0
  -29.6175  -25.2193   18.3818 H   0  0  0  0  0  0
  -27.9260  -24.8388   18.1311 H   0  0  0  0  0  0
  -29.2071  -25.1219   20.8979 H   0  0  0  0  0  0
  -27.4978  -24.9962   20.6042 H   0  0  0  0  0  0
  -29.0621  -15.0498   21.5734 H   0  0  0  0  0  0
  -30.3901  -19.2430   20.4525 H   0  0  0  0  0  0
  -29.2344  -19.7747   21.4538 H   0  0  0  0  0  0
  1 25  1  0  0  0
  1 30  2  0  0  0
  1 82  1  0  0  0
  2  3  1  0  0  0
  2 25  1  0  0  0
  2 84  1  0  0  0
  2 85  1  0  0  0
  3  4  1  0  0  0
  3 86  1  0  0  0
  3 87  1  0  0  0
  4  5  1  0  0  0
  4 88  1  0  0  0
  4 89  1  0  0  0
  5  6  1  0  0  0
  5 26  1  0  0  0
  5 90  1  0  0  0
  6 25  1  0  0  0
  6 91  1  0  0  0
  6 92  1  0  0  0
  7  8  2  0  0  0
  7 26  1  0  0  0
  7 29  1  0  0  0
  8  9  1  0  0  0
  8 22  1  0  0  0
  9 10  1  0  0  0
  9 27  2  0  0  0
 10 11  2  0  0  0
 10 15  1  0  0  0
 11 12  1  0  0  0
 11 93  1  0  0  0
 12 13  2  0  0  0
 12 94  1  0  0  0
 13 14  1  0  0  0
 13 31  1  0  0  0
 14 15  2  0  0  0
 14 95  1  0  0  0
 15 96  1  0  0  0
 16 17  2  0  0  0
 16 21  1  0  0  0
 16 31  1  0  0  0
 17 18  1  0  0  0
 17 97  1  0  0  0
 18 19  2  0  0  0
 18 98  1  0  0  0
 19 20  1  0  0  0
 19 24  1  0  0  0
 20 21  2  0  0  0
 20 99  1  0  0  0
 21 23  1  0  0  0
 22 28  1  0  0  0
 22 32  2  0  0  0
 26 27  1  0  0  0
 28100  1  0  0  0
 28101  1  0  0  0
 29102  1  0  0  0
 29103  1  0  0  0
 33 34  1  0  0  0
 33 66  1  0  0  0
 33 70  2  0  0  0
 34 36  1  0  0  0
 34 59  1  0  0  0
 34104  1  0  0  0
 35 44  2  0  0  0
 35 45  1  0  0  0
 35 68  1  0  0  0
 36 56  1  0  0  0
 36105  1  0  0  0
 37 39  1  0  0  0
 37 47  1  0  0  0
 37 66  1  0  0  0
 37106  1  0  0  0
 38 43  2  0  0  0
 38 46  1  0  0  0
 38 47  1  0  0  0
 39 64  1  0  0  0
 39 67  2  0  0  0
 40 52  1  0  0  0
 40 53  2  0  0  0
 40 58  1  0  0  0
 41107  1  0  0  0
 41108  1  0  0  0
 41109  1  0  0  0
 41 48  1  0  0  0
 42 43  1  0  0  0
 42 66  1  0  0  0
 42110  1  0  0  0
 42111  1  0  0  0
 43 44  1  0  0  0
 44112  1  0  0  0
 45 46  2  0  0  0
 45113  1  0  0  0
 46114  1  0  0  0
 47115  1  0  0  0
 47116  1  0  0  0
 48 56  1  0  0  0
 48 65  1  0  0  0
 48117  1  0  0  0
 49 50  1  0  0  0
 49 53  1  0  0  0
 49 64  1  0  0  0
 49118  1  0  0  0
 50 51  1  0  0  0
 50119  1  0  0  0
 50120  1  0  0  0
 51 52  1  0  0  0
 51121  1  0  0  0
 51122  1  0  0  0
 52123  1  0  0  0
 52124  1  0  0  0
 53 54  1  0  0  0
 54 55  2  0  0  0
 54125  1  0  0  0
 55 57  1  0  0  0
 55126  1  0  0  0
 56 69  2  0  0  0
 57 58  2  0  0  0
 57127  1  0  0  0
 58128  1  0  0  0
 59 60  1  0  0  0
 59 61  1  0  0  0
 59 62  1  0  0  0
 60129  1  0  0  0
 60130  1  0  0  0
 60131  1  0  0  0
 61132  1  0  0  0
 61133  1  0  0  0
 61134  1  0  0  0
 62135  1  0  0  0
 62136  1  0  0  0
 62137  1  0  0  0
 63 65  1  0  0  0
 63138  1  0  0  0
 63139  1  0  0  0
 63140  1  0  0  0
 64141  1  0  0  0
 65142  1  0  0  0
 68 78  1  0  0  0
 71 72  2  0  0  0
 71 81  1  0  0  0
 71143  1  0  0  0
 72 76  1  0  0  0
 72 79  1  0  0  0
 73 74  1  0  0  0
 73 75  1  0  0  0
 73144  1  0  0  0
 73145  1  0  0  0
 74 75  1  0  0  0
 74 82  1  0  0  0
 74146  1  0  0  0
 75 83  1  0  0  0
 75147  1  0  0  0
 76 83  1  0  0  0
 76148  1  0  0  0
 76149  1  0  0  0
 77 78  1  0  0  0
 77 81  1  0  0  0
 77150  1  0  0  0
 77151  1  0  0  0
 78152  1  0  0  0
 78153  1  0  0  0
 79 80  2  0  0  0
 80 81  1  0  0  0
 82154  1  0  0  0
 83155  1  0  0  0
 83156  1  0  0  0
M  CHG  1  83   1
M  ISO  4   1 100  68 101  78 101  82 100
M  END
> <chiral flag>
0

> <version>
0

> <s_m_source_file>
/data/baiqing/PycharmProjects/Reinvent-master-3.2/result/LINK_invent/BTK/process_docking_weight1_custom_sum_contain_oxygen_bond_distance_aromatic_linkinvent_7_9_3/rearranged_h_0196.sdf

> <i_m_source_file_index>
51

> <r_mmod_Potential_Energy-OPLS-2005>
-326.571960449219

> <r_mmod_Stretch_Energy-OPLS-2005>
30.6469135284424

> <r_mmod_Bend_Energy-OPLS-2005>
100.163589477539

> <r_mmod_Torsional_Energy-OPLS-2005>
276.796234130859

> <r_mmod_Improper_Torsional_Energy-OPLS-2005>
3.79438090324402

> <r_mmod_Van_der_Waal_Energy-OPLS-2005>
127.21639251709

> <r_mmod_Electrostatic_Energy-OPLS-2005>
-373.791656494141

> <r_mmod_Solvation_Energy-OPLS-2005>
-501.047973632812

> <b_mmod_Minimization_Converged-OPLS-2005>
0

> <r_mmod_RMS_Derivative-OPLS-2005>
3.61031103134155

$$$$
52
                    3D
 Structure written by MMmdl.
169179  0  0  1  0            999 V2000
  -30.6665  -14.8308   20.4409 C   0  0  0  0  0  0
  -30.4121  -12.5262   19.4743 C   0  0  0  0  0  0
  -29.4970  -12.5062   18.2343 C   0  0  0  0  0  0
  -28.0307  -12.3162   18.6605 C   0  0  0  0  0  0
  -27.6245  -13.2484   19.8331 C   0  0  2  0  0  0
  -28.6752  -13.2687   20.9626 C   0  0  0  0  0  0
  -25.2441  -13.8220   20.5728 C   0  0  0  0  0  0
  -24.1758  -13.0443   20.9236 C   0  0  0  0  0  0
  -24.6380  -11.6929   20.8768 C   0  0  0  0  0  0
  -23.9068  -10.4292   21.0408 C   0  0  0  0  0  0
  -24.3622   -9.4208   21.9185 C   0  0  0  0  0  0
  -23.6296   -8.2239   22.0752 C   0  0  0  0  0  0
  -22.4277   -8.0275   21.3540 C   0  0  0  0  0  0
  -21.9915   -9.0249   20.4642 C   0  0  0  0  0  0
  -22.7242  -10.2127   20.3055 C   0  0  0  0  0  0
  -21.6854   -6.0739   22.5277 C   0  0  0  0  0  0
  -21.4011   -6.5642   23.8212 C   0  0  0  0  0  0
  -21.3661   -5.6793   24.9174 C   0  0  0  0  0  0
  -21.6047   -4.3057   24.7222 C   0  0  0  0  0  0
  -21.8817   -3.8147   23.4344 C   0  0  0  0  0  0
  -21.9191   -4.6965   22.3400 C   0  0  0  0  0  0
  -22.7778  -13.5211   21.1888 C   0  0  0  0  0  0
  -22.1659   -4.2149   21.0978 F   0  0  0  0  0  0
  -21.5632   -3.4540   25.7734 F   0  0  0  0  0  0
  -29.9503  -13.6459   20.3418 N   0  0  0  0  0  0
  -26.2866  -12.9462   20.3270 N   0  0  0  0  0  0
  -25.9312  -11.6589   20.5762 N   0  0  0  0  0  0
  -22.0438  -12.8188   22.0440 N   0  0  0  0  0  0
  -25.4112  -15.1940   20.4141 N   0  0  0  0  0  0
  -31.8816  -14.7469   20.2340 O   0  0  0  0  0  0
  -21.6640   -6.8877   21.4236 O   0  0  0  0  0  0
  -22.3456  -14.5515   20.6740 O   0  0  0  0  0  0
  -24.6364  -31.8496   23.1943 C   0  0  0  0  0  0
  -25.9170  -32.4727   23.8304 C   0  0  1  0  0  0
  -27.2162  -27.2105   20.1225 C   0  0  0  0  0  0
  -25.5948  -33.8531   24.2230 N   0  0  0  0  0  0
  -23.4358  -30.4740   21.5378 C   0  0  2  0  0  0
  -24.8819  -28.9148   20.1041 C   0  0  0  0  0  0
  -22.7538  -29.4574   22.4871 C   0  0  0  0  0  0
  -18.0297  -28.1404   22.8482 C   0  0  0  0  0  0
  -24.1486  -36.7255   23.2645 C   0  0  0  0  0  0
  -25.9861  -30.7468   21.3809 C   0  0  0  0  0  0
  -26.0555  -29.3656   20.7200 C   0  0  0  0  0  0
  -27.2196  -28.5235   20.7236 C   0  0  0  0  0  0
  -26.0101  -26.8362   19.4866 C   0  0  0  0  0  0
  -24.8671  -27.6600   19.4786 C   0  0  0  0  0  0
  -23.6571  -29.8098   20.1531 C   0  0  0  0  0  0
  -25.4113  -36.3038   24.0331 C   0  0  1  0  0  0
  -20.5911  -28.3704   23.1253 C   0  0  2  0  0  0
  -20.6784  -26.9418   22.5398 C   0  0  0  0  0  0
  -19.5757  -26.6381   21.5213 C   0  0  0  0  0  0
  -18.1933  -26.7944   22.1619 C   0  0  0  0  0  0
  -19.1559  -28.8872   23.2859 C   0  0  0  0  0  0
  -18.9479  -30.1475   23.8875 C   0  0  0  0  0  0
  -17.6477  -30.6594   24.0570 C   0  0  0  0  0  0
  -25.9062  -34.9420   23.5076 C   0  0  0  0  0  0
  -16.5363  -29.9095   23.6342 C   0  0  0  0  0  0
  -16.7283  -28.6519   23.0345 C   0  0  0  0  0  0
  -26.4529  -31.6574   25.0713 C   0  0  0  0  0  0
  -25.3739  -31.3732   26.1422 C   0  0  0  0  0  0
  -27.0399  -30.2989   24.6231 C   0  0  0  0  0  0
  -27.6068  -32.4334   25.7491 C   0  0  0  0  0  0
  -27.5570  -37.1780   24.8473 C   0  0  0  0  0  0
  -21.4235  -29.3042   22.3629 N   0  0  0  0  0  0
  -26.4273  -37.3751   23.9431 N   0  0  0  0  0  0
  -24.7062  -31.0425   22.0941 N   0  0  0  0  0  0
  -23.4218  -28.8106   23.2973 O   0  0  0  0  0  0
  -28.2900  -26.2787   20.2331 O   0  0  0  0  0  0
  -26.5626  -34.8914   22.4641 O   0  0  0  0  0  0
  -23.5500  -32.1335   23.7206 O   0  0  0  0  0  0
  -28.6264  -21.3031   18.7537 C   0  0  0  0  0  0
  -28.9556  -20.6672   19.9986 C   0  0  0  0  0  0
  -28.5591  -23.4748   19.7069 C   0  0  0  0  0  0
  -25.4833  -20.6578   15.5646 C   0  0  0  0  0  0
  -25.8971  -21.0017   16.9971 C   0  0  0  0  0  0
  -26.9049  -20.1329   15.3509 C   0  0  0  0  0  0
  -30.1914  -18.5258   19.2677 C   0  0  0  0  0  0
  -30.9395  -17.2813   19.8983 C   0  0  0  0  0  0
  -28.8507  -16.7211   20.9550 C   0  0  0  0  0  0
  -27.3600  -21.0207   16.5218 C   0  0  0  0  0  0
  -28.8197  -18.3153   21.2701 C   0  0  2  0  0  0
  -27.4414  -18.6988   21.8298 C   0  0  0  0  0  0
  -28.4747  -20.5255   17.4473 C   0  0  0  0  0  0
  -28.4475  -25.0632   19.3381 C   0  0  0  0  0  0
  -28.4677  -22.6641   18.6341 N   0  0  0  0  0  0
  -29.0298  -21.5590   21.0562 N   0  0  0  0  0  0
  -28.8440  -22.9259   20.9242 N   0  0  0  0  0  0
  -29.2245  -19.2183   20.1506 N   0  0  0  0  0  0
  -30.0936  -16.1288   20.3580 N   0  0  0  0  0  0
  -31.4501  -12.6300   19.1547 H   0  0  0  0  0  0
  -30.3644  -11.5758   20.0089 H   0  0  0  0  0  0
  -29.7958  -11.7082   17.5531 H   0  0  0  0  0  0
  -29.6024  -13.4409   17.6807 H   0  0  0  0  0  0
  -27.9119  -11.2739   18.9603 H   0  0  0  0  0  0
  -27.3642  -12.4625   17.8094 H   0  0  0  0  0  0
  -27.5891  -14.2512   19.4069 H   0  0  0  0  0  0
  -28.7474  -12.2935   21.4462 H   0  0  0  0  0  0
  -28.3918  -13.9752   21.7417 H   0  0  0  0  0  0
  -25.2757   -9.5685   22.4770 H   0  0  0  0  0  0
  -23.9999   -7.4629   22.7471 H   0  0  0  0  0  0
  -21.0845   -8.8764   19.8942 H   0  0  0  0  0  0
  -22.3694  -10.9671   19.6166 H   0  0  0  0  0  0
  -21.1999   -7.6151   23.9713 H   0  0  0  0  0  0
  -21.1490   -6.0525   25.9077 H   0  0  0  0  0  0
  -22.0597   -2.7608   23.2840 H   0  0  0  0  0  0
  -22.4062  -11.9841   22.4804 H   0  0  0  0  0  0
  -21.1053  -13.1200   22.2667 H   0  0  0  0  0  0
  -24.6428  -15.8469   20.5240 H   0  0  0  0  0  0
  -26.2598  -15.6322   20.0838 H   0  0  0  0  0  0
  -26.7228  -32.5356   23.1033 H   0  0  0  0  0  0
  -25.0139  -33.9662   25.0405 H   0  0  0  0  0  0
  -22.7352  -31.2980   21.3892 H   0  0  0  0  0  0
  -23.3760  -35.9574   23.3289 H   0  0  0  0  0  0
  -24.3574  -36.8880   22.2059 H   0  0  0  0  0  0
  -23.7219  -37.6444   23.6682 H   0  0  0  0  0  0
  -26.1312  -31.5064   20.6111 H   0  0  0  0  0  0
  -26.8620  -30.7940   22.0168 H   0  0  0  0  0  0
  -28.1128  -28.8590   21.2321 H   0  0  0  0  0  0
  -25.8920  -25.8633   19.0362 H   0  0  0  0  0  0
  -23.9636  -27.3037   19.0019 H   0  0  0  0  0  0
  -23.7881  -30.5890   19.4012 H   0  0  0  0  0  0
  -22.7739  -29.2488   19.8427 H   0  0  0  0  0  0
  -25.1294  -36.1864   25.0821 H   0  0  0  0  0  0
  -21.0009  -28.3275   24.1371 H   0  0  0  0  0  0
  -20.5672  -26.2319   23.3606 H   0  0  0  0  0  0
  -21.6647  -26.7419   22.1192 H   0  0  0  0  0  0
  -19.6921  -25.6285   21.1245 H   0  0  0  0  0  0
  -19.6708  -27.3189   20.6745 H   0  0  0  0  0  0
  -17.4209  -26.6697   21.4014 H   0  0  0  0  0  0
  -18.0321  -26.0086   22.9010 H   0  0  0  0  0  0
  -19.7957  -30.7301   24.2218 H   0  0  0  0  0  0
  -17.5035  -31.6277   24.5168 H   0  0  0  0  0  0
  -15.5364  -30.2997   23.7687 H   0  0  0  0  0  0
  -15.8681  -28.0849   22.7055 H   0  0  0  0  0  0
  -24.5949  -30.7042   25.7752 H   0  0  0  0  0  0
  -24.8903  -32.2901   26.4803 H   0  0  0  0  0  0
  -25.8045  -30.8950   27.0227 H   0  0  0  0  0  0
  -26.3003  -29.6708   24.1255 H   0  0  0  0  0  0
  -27.4078  -29.7277   25.4762 H   0  0  0  0  0  0
  -27.8877  -30.4267   23.9496 H   0  0  0  0  0  0
  -27.2682  -33.3666   26.2009 H   0  0  0  0  0  0
  -28.3919  -32.6832   25.0342 H   0  0  0  0  0  0
  -28.0708  -31.8498   26.5453 H   0  0  0  0  0  0
  -28.2565  -38.0097   24.7520 H   0  0  0  0  0  0
  -28.1069  -36.2615   24.6278 H   0  0  0  0  0  0
  -27.2288  -37.1393   25.8875 H   0  0  0  0  0  0
  -20.9420  -29.8780   21.6852 H   0  0  0  0  0  0
  -26.0131  -38.2807   24.1462 H   0  0  0  0  0  0
  -25.2632  -21.5416   14.9623 H   0  0  0  0  0  0
  -24.6994  -19.9032   15.4829 H   0  0  0  0  0  0
  -25.6881  -20.1944   17.7017 H   0  0  0  0  0  0
  -25.5258  -21.9596   17.3638 H   0  0  0  0  0  0
  -27.3479  -20.3856   14.3867 H   0  0  0  0  0  0
  -26.9947  -19.0652   15.5629 H   0  0  0  0  0  0
  -29.6845  -18.1699   18.3724 H   0  0  0  0  0  0
  -30.9362  -19.2490   18.9305 H   0  0  0  0  0  0
  -31.5538  -17.6100   20.7378 H   0  0  0  0  0  0
  -31.6438  -16.9348   19.1394 H   0  0  0  0  0  0
  -28.0323  -16.4831   20.2765 H   0  0  0  0  0  0
  -28.6387  -16.1897   21.8823 H   0  0  0  0  0  0
  -27.5922  -22.0167   16.1360 H   0  0  0  0  0  0
  -29.5448  -18.4924   22.0671 H   0  0  0  0  0  0
  -26.6645  -18.6079   21.0702 H   0  0  0  0  0  0
  -27.4201  -19.7188   22.2116 H   0  0  0  0  0  0
  -27.1654  -18.0491   22.6613 H   0  0  0  0  0  0
  -28.2421  -19.4923   17.6884 H   0  0  0  0  0  0
  -29.4352  -20.5228   16.9321 H   0  0  0  0  0  0
  -27.7642  -25.1362   18.4948 H   0  0  0  0  0  0
  -29.4101  -25.2563   18.8656 H   0  0  0  0  0  0
  1 25  1  0  0  0
  1 30  2  0  0  0
  1 89  1  0  0  0
  2  3  1  0  0  0
  2 25  1  0  0  0
  2 90  1  0  0  0
  2 91  1  0  0  0
  3  4  1  0  0  0
  3 92  1  0  0  0
  3 93  1  0  0  0
  4  5  1  0  0  0
  4 94  1  0  0  0
  4 95  1  0  0  0
  5  6  1  0  0  0
  5 26  1  0  0  0
  5 96  1  0  0  0
  6 25  1  0  0  0
  6 97  1  0  0  0
  6 98  1  0  0  0
  7  8  2  0  0  0
  7 26  1  0  0  0
  7 29  1  0  0  0
  8  9  1  0  0  0
  8 22  1  0  0  0
  9 10  1  0  0  0
  9 27  2  0  0  0
 10 11  2  0  0  0
 10 15  1  0  0  0
 11 12  1  0  0  0
 11 99  1  0  0  0
 12 13  2  0  0  0
 12100  1  0  0  0
 13 14  1  0  0  0
 13 31  1  0  0  0
 14 15  2  0  0  0
 14101  1  0  0  0
 15102  1  0  0  0
 16 17  2  0  0  0
 16 21  1  0  0  0
 16 31  1  0  0  0
 17 18  1  0  0  0
 17103  1  0  0  0
 18 19  2  0  0  0
 18104  1  0  0  0
 19 20  1  0  0  0
 19 24  1  0  0  0
 20 21  2  0  0  0
 20105  1  0  0  0
 21 23  1  0  0  0
 22 28  1  0  0  0
 22 32  2  0  0  0
 26 27  1  0  0  0
 28106  1  0  0  0
 28107  1  0  0  0
 29108  1  0  0  0
 29109  1  0  0  0
 33 34  1  0  0  0
 33 66  1  0  0  0
 33 70  2  0  0  0
 34 36  1  0  0  0
 34 59  1  0  0  0
 34110  1  0  0  0
 35 44  2  0  0  0
 35 45  1  0  0  0
 35 68  1  0  0  0
 36 56  1  0  0  0
 36111  1  0  0  0
 37 39  1  0  0  0
 37 47  1  0  0  0
 37 66  1  0  0  0
 37112  1  0  0  0
 38 43  2  0  0  0
 38 46  1  0  0  0
 38 47  1  0  0  0
 39 64  1  0  0  0
 39 67  2  0  0  0
 40 52  1  0  0  0
 40 53  2  0  0  0
 40 58  1  0  0  0
 41113  1  0  0  0
 41114  1  0  0  0
 41115  1  0  0  0
 41 48  1  0  0  0
 42 43  1  0  0  0
 42 66  1  0  0  0
 42116  1  0  0  0
 42117  1  0  0  0
 43 44  1  0  0  0
 44118  1  0  0  0
 45 46  2  0  0  0
 45119  1  0  0  0
 46120  1  0  0  0
 47121  1  0  0  0
 47122  1  0  0  0
 48 56  1  0  0  0
 48 65  1  0  0  0
 48123  1  0  0  0
 49 50  1  0  0  0
 49 53  1  0  0  0
 49 64  1  0  0  0
 49124  1  0  0  0
 50 51  1  0  0  0
 50125  1  0  0  0
 50126  1  0  0  0
 51 52  1  0  0  0
 51127  1  0  0  0
 51128  1  0  0  0
 52129  1  0  0  0
 52130  1  0  0  0
 53 54  1  0  0  0
 54 55  2  0  0  0
 54131  1  0  0  0
 55 57  1  0  0  0
 55132  1  0  0  0
 56 69  2  0  0  0
 57 58  2  0  0  0
 57133  1  0  0  0
 58134  1  0  0  0
 59 60  1  0  0  0
 59 61  1  0  0  0
 59 62  1  0  0  0
 60135  1  0  0  0
 60136  1  0  0  0
 60137  1  0  0  0
 61138  1  0  0  0
 61139  1  0  0  0
 61140  1  0  0  0
 62141  1  0  0  0
 62142  1  0  0  0
 62143  1  0  0  0
 63 65  1  0  0  0
 63144  1  0  0  0
 63145  1  0  0  0
 63146  1  0  0  0
 64147  1  0  0  0
 65148  1  0  0  0
 68 84  1  0  0  0
 71 72  1  0  0  0
 71 83  1  0  0  0
 71 85  2  0  0  0
 72 86  2  0  0  0
 72 88  1  0  0  0
 73 84  1  0  0  0
 73 85  1  0  0  0
 73 87  2  0  0  0
 74 75  1  0  0  0
 74 76  1  0  0  0
 74149  1  0  0  0
 74150  1  0  0  0
 75 80  1  0  0  0
 75151  1  0  0  0
 75152  1  0  0  0
 76 80  1  0  0  0
 76153  1  0  0  0
 76154  1  0  0  0
 77 78  1  0  0  0
 77 88  1  0  0  0
 77155  1  0  0  0
 77156  1  0  0  0
 78 89  1  0  0  0
 78157  1  0  0  0
 78158  1  0  0  0
 79 81  1  0  0  0
 79 89  1  0  0  0
 79159  1  0  0  0
 79160  1  0  0  0
 80 83  1  0  0  0
 80161  1  0  0  0
 81 82  1  0  0  0
 81 88  1  0  0  0
 81162  1  0  0  0
 82163  1  0  0  0
 82164  1  0  0  0
 82165  1  0  0  0
 83166  1  0  0  0
 83167  1  0  0  0
 84168  1  0  0  0
 84169  1  0  0  0
 86 87  1  0  0  0
M  ISO  4   1 100  68 101  84 101  89 100
M  END
> <chiral flag>
0

> <version>
0

> <s_m_source_file>
/data/baiqing/PycharmProjects/Reinvent-master-3.2/result/LINK_invent/BTK/process_docking_weight1_custom_sum_contain_oxygen_bond_distance_aromatic_linkinvent_7_9_3/rearranged_h_0196.sdf

> <i_m_source_file_index>
52

> <r_mmod_Potential_Energy-OPLS-2005>
650.285461425781

> <r_mmod_Stretch_Energy-OPLS-2005>
168.554641723633

> <r_mmod_Bend_Energy-OPLS-2005>
304.725830078125

> <r_mmod_Torsional_Energy-OPLS-2005>
366.290924072266

> <r_mmod_Improper_Torsional_Energy-OPLS-2005>
13.3531723022461

> <r_mmod_Van_der_Waal_Energy-OPLS-2005>
155.945785522461

> <r_mmod_Electrostatic_Energy-OPLS-2005>
-259.501342773438

> <r_mmod_Solvation_Energy-OPLS-2005>
-231.244186401367

> <b_mmod_Minimization_Converged-OPLS-2005>
0

> <r_mmod_RMS_Derivative-OPLS-2005>
1.30361354351044

$$$$
53
                    3D
 Structure written by MMmdl.
161170  0  0  1  0            999 V2000
  -30.6951  -14.4854   20.5383 C   0  0  0  0  0  0
  -30.4196  -12.3027   19.4314 C   0  0  0  0  0  0
  -29.4957  -12.4854   18.2086 C   0  0  0  0  0  0
  -28.0127  -12.3651   18.6158 C   0  0  0  0  0  0
  -27.6620  -13.2066   19.8734 C   0  0  2  0  0  0
  -28.7053  -13.0077   20.9983 C   0  0  0  0  0  0
  -25.2602  -13.8167   20.5682 C   0  0  0  0  0  0
  -24.1841  -13.0448   20.9149 C   0  0  0  0  0  0
  -24.6397  -11.6905   20.8732 C   0  0  0  0  0  0
  -23.9053  -10.4302   21.0412 C   0  0  0  0  0  0
  -24.3605   -9.4220   21.9198 C   0  0  0  0  0  0
  -23.6281   -8.2253   22.0779 C   0  0  0  0  0  0
  -22.4272   -8.0288   21.3556 C   0  0  0  0  0  0
  -21.9907   -9.0251   20.4643 C   0  0  0  0  0  0
  -22.7234  -10.2121   20.3053 C   0  0  0  0  0  0
  -21.6837   -6.0737   22.5271 C   0  0  0  0  0  0
  -21.3997   -6.5644   23.8204 C   0  0  0  0  0  0
  -21.3641   -5.6794   24.9167 C   0  0  0  0  0  0
  -21.6036   -4.3063   24.7220 C   0  0  0  0  0  0
  -21.8822   -3.8154   23.4348 C   0  0  0  0  0  0
  -21.9188   -4.6967   22.3399 C   0  0  0  0  0  0
  -22.7873  -13.5248   21.1816 C   0  0  0  0  0  0
  -22.1662   -4.2168   21.0971 F   0  0  0  0  0  0
  -21.5627   -3.4555   25.7744 F   0  0  0  0  0  0
  -30.0325  -13.3025   20.4383 N   0  0  0  0  0  0
  -26.3040  -12.9331   20.3386 N   0  0  0  0  0  0
  -25.9328  -11.6488   20.5776 N   0  0  0  0  0  0
  -22.0505  -12.8238   22.0373 N   0  0  0  0  0  0
  -25.4357  -15.1891   20.4115 N   0  0  0  0  0  0
  -31.8314  -14.6588   20.0904 O   0  0  0  0  0  0
  -21.6626   -6.8887   21.4252 O   0  0  0  0  0  0
  -22.3565  -14.5546   20.6658 O   0  0  0  0  0  0
  -24.6180  -31.8678   23.2069 C   0  0  0  0  0  0
  -25.9071  -32.4813   23.8376 C   0  0  1  0  0  0
  -27.2320  -27.4076   20.0904 C   0  0  0  0  0  0
  -25.5931  -33.8607   24.2303 N   0  0  0  0  0  0
  -23.4027  -30.4897   21.5485 C   0  0  2  0  0  0
  -24.8475  -28.9494   20.1127 C   0  0  0  0  0  0
  -22.7394  -29.4692   22.5011 C   0  0  0  0  0  0
  -18.0257  -28.1411   22.8526 C   0  0  0  0  0  0
  -24.1457  -36.7243   23.2664 C   0  0  0  0  0  0
  -25.9343  -30.8211   21.3639 C   0  0  0  0  0  0
  -26.0078  -29.4516   20.7137 C   0  0  0  0  0  0
  -27.1971  -28.6862   20.7016 C   0  0  0  0  0  0
  -26.0467  -26.9233   19.4881 C   0  0  0  0  0  0
  -24.8644  -27.6865   19.4969 C   0  0  0  0  0  0
  -23.6093  -29.8174   20.1645 C   0  0  0  0  0  0
  -25.4103  -36.3077   24.0332 C   0  0  1  0  0  0
  -20.5843  -28.3716   23.1316 C   0  0  2  0  0  0
  -20.6759  -26.9452   22.5419 C   0  0  0  0  0  0
  -19.5719  -26.6409   21.5241 C   0  0  0  0  0  0
  -18.1888  -26.7961   22.1635 C   0  0  0  0  0  0
  -19.1510  -28.8889   23.2911 C   0  0  0  0  0  0
  -18.9455  -30.1500   23.8918 C   0  0  0  0  0  0
  -17.6457  -30.6624   24.0603 C   0  0  0  0  0  0
  -25.9054  -34.9466   23.5108 C   0  0  0  0  0  0
  -16.5346  -29.9130   23.6383 C   0  0  0  0  0  0
  -16.7255  -28.6544   23.0397 C   0  0  0  0  0  0
  -26.4513  -31.6610   25.0719 C   0  0  0  0  0  0
  -25.3775  -31.3598   26.1422 C   0  0  0  0  0  0
  -27.0465  -30.3116   24.6086 C   0  0  0  0  0  0
  -27.6015  -32.4414   25.7522 C   0  0  0  0  0  0
  -27.5541  -37.1764   24.8508 C   0  0  0  0  0  0
  -21.4123  -29.3075   22.3720 N   0  0  0  0  0  0
  -26.4271  -37.3779   23.9446 N   0  0  0  0  0  0
  -24.6691  -31.0756   22.0970 N   0  0  0  0  0  0
  -23.4150  -28.8262   23.3093 O   0  0  0  0  0  0
  -28.4150  -26.6855   20.1205 O   0  0  0  0  0  0
  -26.5627  -34.8929   22.4675 O   0  0  0  0  0  0
  -23.5373  -32.1464   23.7464 O   0  0  0  0  0  0
  -29.5730  -21.5277   23.7373 C   0  0  0  0  0  0
  -29.4209  -20.4188   21.8356 C   0  0  0  0  0  0
  -29.2133  -22.6271   21.8676 C   0  0  0  0  0  0
  -29.6892  -17.8894   21.8049 C   0  0  0  0  0  0
  -29.7181  -19.0749   19.7222 C   0  0  0  0  0  0
  -30.3197  -16.9575   20.7490 C   0  0  2  0  0  0
  -29.7762  -17.5625   19.4366 C   0  0  2  0  0  0
  -28.1496  -24.1574   20.1675 C   0  0  0  0  0  0
  -28.5496  -25.4462   19.3961 C   0  0  0  0  0  0
  -29.5931  -20.3426   23.1425 N   0  0  0  0  0  0
  -29.3918  -22.7142   23.1667 N   0  0  0  0  0  0
  -29.2162  -21.5264   21.1178 N   0  0  0  0  0  0
  -29.4893  -19.1956   21.1574 N   0  0  0  0  0  0
  -29.0638  -23.8630   21.2701 N   0  0  0  0  0  0
  -29.9527  -15.5389   20.9281 N   0  0  0  0  0  0
  -30.5612  -17.2196   18.2358 N   0  3  0  0  0  0
  -31.4664  -12.3920   19.1346 H   0  0  0  0  0  0
  -30.3117  -11.2980   19.8421 H   0  0  0  0  0  0
  -29.7347  -11.7424   17.4463 H   0  0  0  0  0  0
  -29.6728  -13.4583   17.7489 H   0  0  0  0  0  0
  -27.8095  -11.3103   18.8030 H   0  0  0  0  0  0
  -27.3718  -12.6546   17.7813 H   0  0  0  0  0  0
  -27.7005  -14.2512   19.5632 H   0  0  0  0  0  0
  -28.6853  -11.9807   21.3680 H   0  0  0  0  0  0
  -28.4765  -13.6359   21.8609 H   0  0  0  0  0  0
  -25.2748   -9.5692   22.4778 H   0  0  0  0  0  0
  -23.9972   -7.4655   22.7534 H   0  0  0  0  0  0
  -21.0843   -8.8755   19.8953 H   0  0  0  0  0  0
  -22.3709  -10.9639   19.6152 H   0  0  0  0  0  0
  -21.1977   -7.6149   23.9707 H   0  0  0  0  0  0
  -21.1447   -6.0536   25.9067 H   0  0  0  0  0  0
  -22.0610   -2.7617   23.2847 H   0  0  0  0  0  0
  -22.4128  -11.9864   22.4678 H   0  0  0  0  0  0
  -21.1137  -13.1297   22.2607 H   0  0  0  0  0  0
  -24.6678  -15.8453   20.5056 H   0  0  0  0  0  0
  -26.2949  -15.6276   20.1070 H   0  0  0  0  0  0
  -26.7136  -32.5517   23.1133 H   0  0  0  0  0  0
  -25.0141  -33.9792   25.0491 H   0  0  0  0  0  0
  -22.6907  -31.3040   21.4045 H   0  0  0  0  0  0
  -23.3756  -35.9535   23.3338 H   0  0  0  0  0  0
  -24.3523  -36.8875   22.2072 H   0  0  0  0  0  0
  -23.7159  -37.6407   23.6715 H   0  0  0  0  0  0
  -26.0482  -31.5829   20.5914 H   0  0  0  0  0  0
  -26.8238  -30.8781   21.9793 H   0  0  0  0  0  0
  -28.0955  -29.0724   21.1631 H   0  0  0  0  0  0
  -26.0051  -25.9554   19.0122 H   0  0  0  0  0  0
  -23.9739  -27.2912   19.0284 H   0  0  0  0  0  0
  -23.7056  -30.5872   19.3983 H   0  0  0  0  0  0
  -22.7336  -29.2315   19.8799 H   0  0  0  0  0  0
  -25.1283  -36.1929   25.0819 H   0  0  0  0  0  0
  -20.9949  -28.3316   24.1436 H   0  0  0  0  0  0
  -20.5734  -26.2329   23.3618 H   0  0  0  0  0  0
  -21.6617  -26.7535   22.1168 H   0  0  0  0  0  0
  -19.6887  -25.6320   21.1283 H   0  0  0  0  0  0
  -19.6656  -27.3223   20.6768 H   0  0  0  0  0  0
  -17.4164  -26.6786   21.4015 H   0  0  0  0  0  0
  -18.0245  -26.0079   22.8997 H   0  0  0  0  0  0
  -19.7917  -30.7342   24.2264 H   0  0  0  0  0  0
  -17.5000  -31.6293   24.5213 H   0  0  0  0  0  0
  -15.5358  -30.3048   23.7706 H   0  0  0  0  0  0
  -15.8624  -28.0896   22.7127 H   0  0  0  0  0  0
  -24.5969  -30.6964   25.7677 H   0  0  0  0  0  0
  -24.8961  -32.2698   26.4998 H   0  0  0  0  0  0
  -25.8125  -30.8633   27.0102 H   0  0  0  0  0  0
  -26.3023  -29.6719   24.1324 H   0  0  0  0  0  0
  -27.4518  -29.7492   25.4511 H   0  0  0  0  0  0
  -27.8690  -30.4538   23.9075 H   0  0  0  0  0  0
  -27.2578  -33.3730   26.2033 H   0  0  0  0  0  0
  -28.3857  -32.6965   25.0386 H   0  0  0  0  0  0
  -28.0642  -31.8609   26.5513 H   0  0  0  0  0  0
  -28.2558  -38.0051   24.7601 H   0  0  0  0  0  0
  -28.1034  -36.2600   24.6326 H   0  0  0  0  0  0
  -27.2240  -37.1404   25.8898 H   0  0  0  0  0  0
  -20.9311  -29.8785   21.6916 H   0  0  0  0  0  0
  -26.0144  -38.2837   24.1493 H   0  0  0  0  0  0
  -29.7273  -21.5310   24.8070 H   0  0  0  0  0  0
  -30.3296  -17.9547   22.6854 H   0  0  0  0  0  0
  -28.7194  -17.5121   22.1359 H   0  0  0  0  0  0
  -28.9264  -19.5606   19.1475 H   0  0  0  0  0  0
  -30.6621  -19.5645   19.4737 H   0  0  0  0  0  0
  -31.4044  -17.0898   20.8002 H   0  0  0  0  0  0
  -28.7530  -17.2119   19.2842 H   0  0  0  0  0  0
  -28.1547  -23.3178   19.4707 H   0  0  0  0  0  0
  -27.1301  -24.2344   20.5484 H   0  0  0  0  0  0
  -28.0269  -25.4956   18.4392 H   0  0  0  0  0  0
  -29.5998  -25.3566   19.1178 H   0  0  0  0  0  0
  -29.1328  -24.6215   21.9378 H   0  0  0  0  0  0
  -29.0223  -15.3359   21.2623 H   0  0  0  0  0  0
  -31.5116  -17.5365   18.3188 H   0  0  0  0  0  0
  -30.1562  -17.6480   17.4217 H   0  0  0  0  0  0
  -30.5758  -16.2262   18.0881 H   0  0  0  0  0  0
  1 25  1  0  0  0
  1 30  2  0  0  0
  1 85  1  0  0  0
  2  3  1  0  0  0
  2 25  1  0  0  0
  2 87  1  0  0  0
  2 88  1  0  0  0
  3  4  1  0  0  0
  3 89  1  0  0  0
  3 90  1  0  0  0
  4  5  1  0  0  0
  4 91  1  0  0  0
  4 92  1  0  0  0
  5  6  1  0  0  0
  5 26  1  0  0  0
  5 93  1  0  0  0
  6 25  1  0  0  0
  6 94  1  0  0  0
  6 95  1  0  0  0
  7  8  2  0  0  0
  7 26  1  0  0  0
  7 29  1  0  0  0
  8  9  1  0  0  0
  8 22  1  0  0  0
  9 10  1  0  0  0
  9 27  2  0  0  0
 10 11  2  0  0  0
 10 15  1  0  0  0
 11 12  1  0  0  0
 11 96  1  0  0  0
 12 13  2  0  0  0
 12 97  1  0  0  0
 13 14  1  0  0  0
 13 31  1  0  0  0
 14 15  2  0  0  0
 14 98  1  0  0  0
 15 99  1  0  0  0
 16 17  2  0  0  0
 16 21  1  0  0  0
 16 31  1  0  0  0
 17 18  1  0  0  0
 17100  1  0  0  0
 18 19  2  0  0  0
 18101  1  0  0  0
 19 20  1  0  0  0
 19 24  1  0  0  0
 20 21  2  0  0  0
 20102  1  0  0  0
 21 23  1  0  0  0
 22 28  1  0  0  0
 22 32  2  0  0  0
 26 27  1  0  0  0
 28103  1  0  0  0
 28104  1  0  0  0
 29105  1  0  0  0
 29106  1  0  0  0
 33 34  1  0  0  0
 33 66  1  0  0  0
 33 70  2  0  0  0
 34 36  1  0  0  0
 34 59  1  0  0  0
 34107  1  0  0  0
 35 44  2  0  0  0
 35 45  1  0  0  0
 35 68  1  0  0  0
 36 56  1  0  0  0
 36108  1  0  0  0
 37 39  1  0  0  0
 37 47  1  0  0  0
 37 66  1  0  0  0
 37109  1  0  0  0
 38 43  2  0  0  0
 38 46  1  0  0  0
 38 47  1  0  0  0
 39 64  1  0  0  0
 39 67  2  0  0  0
 40 52  1  0  0  0
 40 53  2  0  0  0
 40 58  1  0  0  0
 41110  1  0  0  0
 41111  1  0  0  0
 41112  1  0  0  0
 41 48  1  0  0  0
 42 43  1  0  0  0
 42 66  1  0  0  0
 42113  1  0  0  0
 42114  1  0  0  0
 43 44  1  0  0  0
 44115  1  0  0  0
 45 46  2  0  0  0
 45116  1  0  0  0
 46117  1  0  0  0
 47118  1  0  0  0
 47119  1  0  0  0
 48 56  1  0  0  0
 48 65  1  0  0  0
 48120  1  0  0  0
 49 50  1  0  0  0
 49 53  1  0  0  0
 49 64  1  0  0  0
 49121  1  0  0  0
 50 51  1  0  0  0
 50122  1  0  0  0
 50123  1  0  0  0
 51 52  1  0  0  0
 51124  1  0  0  0
 51125  1  0  0  0
 52126  1  0  0  0
 52127  1  0  0  0
 53 54  1  0  0  0
 54 55  2  0  0  0
 54128  1  0  0  0
 55 57  1  0  0  0
 55129  1  0  0  0
 56 69  2  0  0  0
 57 58  2  0  0  0
 57130  1  0  0  0
 58131  1  0  0  0
 59 60  1  0  0  0
 59 61  1  0  0  0
 59 62  1  0  0  0
 60132  1  0  0  0
 60133  1  0  0  0
 60134  1  0  0  0
 61135  1  0  0  0
 61136  1  0  0  0
 61137  1  0  0  0
 62138  1  0  0  0
 62139  1  0  0  0
 62140  1  0  0  0
 63 65  1  0  0  0
 63141  1  0  0  0
 63142  1  0  0  0
 63143  1  0  0  0
 64144  1  0  0  0
 65145  1  0  0  0
 68 79  1  0  0  0
 71 80  2  0  0  0
 71 81  1  0  0  0
 71146  1  0  0  0
 72 80  1  0  0  0
 72 82  2  0  0  0
 72 83  1  0  0  0
 73 81  2  0  0  0
 73 82  1  0  0  0
 73 84  1  0  0  0
 74 76  1  0  0  0
 74 83  1  0  0  0
 74147  1  0  0  0
 74148  1  0  0  0
 75 77  1  0  0  0
 75 83  1  0  0  0
 75149  1  0  0  0
 75150  1  0  0  0
 76 77  1  0  0  0
 76 85  1  0  0  0
 76151  1  0  0  0
 77 86  1  0  0  0
 77152  1  0  0  0
 78 79  1  0  0  0
 78 84  1  0  0  0
 78153  1  0  0  0
 78154  1  0  0  0
 79155  1  0  0  0
 79156  1  0  0  0
 84157  1  0  0  0
 85158  1  0  0  0
 86159  1  0  0  0
 86160  1  0  0  0
 86161  1  0  0  0
M  CHG  1  86   1
M  ISO  4   1 100  68 101  79 101  85 100
M  END
> <chiral flag>
0

> <version>
0

> <s_m_source_file>
/data/baiqing/PycharmProjects/Reinvent-master-3.2/result/LINK_invent/BTK/process_docking_weight1_custom_sum_contain_oxygen_bond_distance_aromatic_linkinvent_7_9_3/rearranged_h_0196.sdf

> <i_m_source_file_index>
53

> <r_mmod_Potential_Energy-OPLS-2005>
-1309.74890136719

> <r_mmod_Stretch_Energy-OPLS-2005>
38.0831031799316

> <r_mmod_Bend_Energy-OPLS-2005>
143.737075805664

> <r_mmod_Torsional_Energy-OPLS-2005>
274.472991943359

> <r_mmod_Improper_Torsional_Energy-OPLS-2005>
9.47561931610107

> <r_mmod_Van_der_Waal_Energy-OPLS-2005>
175.656158447266

> <r_mmod_Electrostatic_Energy-OPLS-2005>
-1437.73022460938

> <r_mmod_Solvation_Energy-OPLS-2005>
-529.440490722656

> <b_mmod_Minimization_Converged-OPLS-2005>
0

> <r_mmod_RMS_Derivative-OPLS-2005>
3.40615797042847

$$$$
54
                    3D
 Structure written by MMmdl.
154163  0  0  1  0            999 V2000
  -30.4982  -15.0725   20.3914 C   0  0  0  0  0  0
  -30.4416  -12.6751   19.4969 C   0  0  0  0  0  0
  -29.5240  -12.5545   18.2570 C   0  0  0  0  0  0
  -28.0625  -12.3150   18.6780 C   0  0  0  0  0  0
  -27.6221  -13.2590   19.8263 C   0  0  2  0  0  0
  -28.6653  -13.3419   20.9602 C   0  0  0  0  0  0
  -25.2453  -13.8238   20.5727 C   0  0  0  0  0  0
  -24.1781  -13.0444   20.9249 C   0  0  0  0  0  0
  -24.6411  -11.6938   20.8765 C   0  0  0  0  0  0
  -23.9095  -10.4298   21.0412 C   0  0  0  0  0  0
  -24.3642   -9.4203   21.9176 C   0  0  0  0  0  0
  -23.6308   -8.2241   22.0744 C   0  0  0  0  0  0
  -22.4286   -8.0290   21.3542 C   0  0  0  0  0  0
  -21.9948   -9.0261   20.4629 C   0  0  0  0  0  0
  -22.7283  -10.2136   20.3039 C   0  0  0  0  0  0
  -21.6860   -6.0744   22.5283 C   0  0  0  0  0  0
  -21.4020   -6.5644   23.8220 C   0  0  0  0  0  0
  -21.3665   -5.6790   24.9179 C   0  0  0  0  0  0
  -21.6038   -4.3054   24.7223 C   0  0  0  0  0  0
  -21.8825   -3.8149   23.4347 C   0  0  0  0  0  0
  -21.9199   -4.6970   22.3404 C   0  0  0  0  0  0
  -22.7797  -13.5199   21.1893 C   0  0  0  0  0  0
  -22.1674   -4.2155   21.0983 F   0  0  0  0  0  0
  -21.5630   -3.4536   25.7735 F   0  0  0  0  0  0
  -29.9212  -13.7925   20.3457 N   0  0  0  0  0  0
  -26.2868  -12.9485   20.3212 N   0  0  0  0  0  0
  -25.9340  -11.6611   20.5713 N   0  0  0  0  0  0
  -22.0458  -12.8167   22.0445 N   0  0  0  0  0  0
  -25.4114  -15.1964   20.4133 N   0  0  0  0  0  0
  -31.7155  -15.1141   20.1749 O   0  0  0  0  0  0
  -21.6652   -6.8886   21.4237 O   0  0  0  0  0  0
  -22.3470  -14.5496   20.6723 O   0  0  0  0  0  0
  -24.6514  -31.8339   23.1815 C   0  0  0  0  0  0
  -25.9256  -32.4629   23.8225 C   0  0  1  0  0  0
  -27.2172  -27.0459   20.1674 C   0  0  0  0  0  0
  -25.5987  -33.8437   24.2138 N   0  0  0  0  0  0
  -23.4588  -30.4490   21.5293 C   0  0  2  0  0  0
  -24.9093  -28.8555   20.1157 C   0  0  0  0  0  0
  -22.7609  -29.4474   22.4844 C   0  0  0  0  0  0
  -18.0313  -28.1391   22.8457 C   0  0  0  0  0  0
  -24.1500  -36.7230   23.2643 C   0  0  0  0  0  0
  -26.0204  -30.6775   21.3947 C   0  0  0  0  0  0
  -26.0898  -29.2793   20.7382 C   0  0  0  0  0  0
  -27.2426  -28.3942   20.7407 C   0  0  0  0  0  0
  -26.0087  -26.7431   19.5034 C   0  0  0  0  0  0
  -24.8866  -27.6041   19.4802 C   0  0  0  0  0  0
  -23.6901  -29.7692   20.1528 C   0  0  0  0  0  0
  -25.4138  -36.2990   24.0304 C   0  0  1  0  0  0
  -20.5926  -28.3711   23.1224 C   0  0  2  0  0  0
  -20.6780  -26.9405   22.5397 C   0  0  0  0  0  0
  -19.5757  -26.6365   21.5206 C   0  0  0  0  0  0
  -18.1942  -26.7930   22.1613 C   0  0  0  0  0  0
  -19.1569  -28.8881   23.2823 C   0  0  0  0  0  0
  -18.9478  -30.1484   23.8837 C   0  0  0  0  0  0
  -17.6468  -30.6580   24.0553 C   0  0  0  0  0  0
  -25.9087  -34.9363   23.5033 C   0  0  0  0  0  0
  -16.5359  -29.9056   23.6354 C   0  0  0  0  0  0
  -16.7296  -28.6487   23.0351 C   0  0  0  0  0  0
  -26.4558  -31.6533   25.0711 C   0  0  0  0  0  0
  -25.3727  -31.3741   26.1399 C   0  0  0  0  0  0
  -27.0454  -30.2913   24.6372 C   0  0  0  0  0  0
  -27.6063  -32.4329   25.7512 C   0  0  0  0  0  0
  -27.5580  -37.1776   24.8463 C   0  0  0  0  0  0
  -21.4291  -29.3026   22.3594 N   0  0  0  0  0  0
  -26.4297  -37.3710   23.9398 N   0  0  0  0  0  0
  -24.7307  -31.0106   22.0896 N   0  0  0  0  0  0
  -23.4212  -28.8033   23.3036 O   0  0  0  0  0  0
  -28.2705  -26.0320   20.1888 O   0  0  0  0  0  0
  -26.5656  -34.8874   22.4608 O   0  0  0  0  0  0
  -23.5619  -32.1261   23.6986 O   0  0  0  0  0  0
  -30.9767  -23.6441   18.2459 C   0  0  0  0  0  0
  -31.2633  -22.2797   18.2355 C   0  0  0  0  0  0
  -29.1794  -23.3314   19.7359 C   0  0  0  0  0  0
  -29.4976  -21.7995   19.7324 C   0  0  0  0  0  0
  -29.7578  -18.5870   21.8583 C   0  0  0  0  0  0
  -29.7125  -20.1566   21.6358 C   0  0  0  0  0  0
  -29.1520  -19.0787   19.6878 C   0  0  0  0  0  0
  -29.9898  -17.8834   20.5003 C   0  0  2  0  0  0
  -28.0727  -24.4399   20.3184 C   0  0  0  0  0  0
  -29.9674  -24.1422   18.9784 N   0  0  0  0  0  0
  -30.5448  -21.4038   18.9596 N   0  0  0  0  0  0
  -29.0598  -20.4992   20.3577 N   0  0  0  0  0  0
  -29.7109  -16.2833   20.4760 N   0  0  0  0  0  0
  -31.4696  -12.8552   19.1782 H   0  0  0  0  0  0
  -30.4653  -11.7377   20.0555 H   0  0  0  0  0  0
  -29.8631  -11.7508   17.6017 H   0  0  0  0  0  0
  -29.5866  -13.4730   17.6715 H   0  0  0  0  0  0
  -27.9761  -11.2767   18.9987 H   0  0  0  0  0  0
  -27.3988  -12.4260   17.8192 H   0  0  0  0  0  0
  -27.5644  -14.2478   19.3698 H   0  0  0  0  0  0
  -28.7887  -12.3798   21.4594 H   0  0  0  0  0  0
  -28.3430  -14.0506   21.7242 H   0  0  0  0  0  0
  -25.2791   -9.5683   22.4742 H   0  0  0  0  0  0
  -24.0032   -7.4631   22.7453 H   0  0  0  0  0  0
  -21.0906   -8.8775   19.8910 H   0  0  0  0  0  0
  -22.3758  -10.9673   19.6137 H   0  0  0  0  0  0
  -21.2008   -7.6148   23.9728 H   0  0  0  0  0  0
  -21.1488   -6.0517   25.9085 H   0  0  0  0  0  0
  -22.0596   -2.7609   23.2846 H   0  0  0  0  0  0
  -22.4129  -11.9865   22.4859 H   0  0  0  0  0  0
  -21.1033  -13.1112   22.2573 H   0  0  0  0  0  0
  -24.6410  -15.8470   20.5182 H   0  0  0  0  0  0
  -26.2440  -15.6334   20.0418 H   0  0  0  0  0  0
  -26.7319  -32.5198   23.0935 H   0  0  0  0  0  0
  -25.0144  -33.9536   25.0296 H   0  0  0  0  0  0
  -22.7652  -31.2765   21.3664 H   0  0  0  0  0  0
  -23.3765  -35.9559   23.3284 H   0  0  0  0  0  0
  -24.3576  -36.8900   22.2064 H   0  0  0  0  0  0
  -23.7256  -37.6416   23.6706 H   0  0  0  0  0  0
  -26.1862  -31.4294   20.6219 H   0  0  0  0  0  0
  -26.8862  -30.7273   22.0434 H   0  0  0  0  0  0
  -28.1434  -28.7215   21.2421 H   0  0  0  0  0  0
  -25.9084  -25.7943   18.9984 H   0  0  0  0  0  0
  -23.9886  -27.2758   18.9738 H   0  0  0  0  0  0
  -23.8304  -30.5380   19.3922 H   0  0  0  0  0  0
  -22.8042  -29.2112   19.8441 H   0  0  0  0  0  0
  -25.1331  -36.1804   25.0795 H   0  0  0  0  0  0
  -20.9996  -28.3291   24.1353 H   0  0  0  0  0  0
  -20.5659  -26.2319   23.3615 H   0  0  0  0  0  0
  -21.6647  -26.7386   22.1209 H   0  0  0  0  0  0
  -19.6908  -25.6266   21.1255 H   0  0  0  0  0  0
  -19.6710  -27.3159   20.6726 H   0  0  0  0  0  0
  -17.4212  -26.6681   21.4016 H   0  0  0  0  0  0
  -18.0335  -26.0081   22.9024 H   0  0  0  0  0  0
  -19.7956  -30.7328   24.2154 H   0  0  0  0  0  0
  -17.5016  -31.6255   24.5160 H   0  0  0  0  0  0
  -15.5353  -30.2923   23.7726 H   0  0  0  0  0  0
  -15.8705  -28.0794   22.7071 H   0  0  0  0  0  0
  -24.5912  -30.7084   25.7715 H   0  0  0  0  0  0
  -24.8918  -32.2935   26.4752 H   0  0  0  0  0  0
  -25.8008  -30.8960   27.0220 H   0  0  0  0  0  0
  -26.3110  -29.6597   24.1370 H   0  0  0  0  0  0
  -27.4016  -29.7253   25.4988 H   0  0  0  0  0  0
  -27.9026  -30.4111   23.9748 H   0  0  0  0  0  0
  -27.2626  -33.3649   26.2006 H   0  0  0  0  0  0
  -28.3924  -32.6871   25.0390 H   0  0  0  0  0  0
  -28.0676  -31.8523   26.5511 H   0  0  0  0  0  0
  -28.2573  -38.0092   24.7514 H   0  0  0  0  0  0
  -28.1109  -36.2624   24.6301 H   0  0  0  0  0  0
  -27.2291  -37.1418   25.8861 H   0  0  0  0  0  0
  -20.9516  -29.8738   21.6756 H   0  0  0  0  0  0
  -26.0157  -38.2776   24.1404 H   0  0  0  0  0  0
  -31.5598  -24.3404   17.6596 H   0  0  0  0  0  0
  -32.0727  -21.8870   17.6372 H   0  0  0  0  0  0
  -28.7978  -18.2642   22.2620 H   0  0  0  0  0  0
  -30.5138  -18.3105   22.5958 H   0  0  0  0  0  0
  -30.7305  -20.5511   21.6365 H   0  0  0  0  0  0
  -29.1937  -20.6431   22.4634 H   0  0  0  0  0  0
  -28.1195  -18.7400   19.5822 H   0  0  0  0  0  0
  -29.5230  -19.1476   18.6642 H   0  0  0  0  0  0
  -31.0451  -18.0044   20.2480 H   0  0  0  0  0  0
  -27.9418  -24.2208   21.3780 H   0  0  0  0  0  0
  -27.1212  -24.1689   19.8634 H   0  0  0  0  0  0
  -28.7293  -16.0675   20.5636 H   0  0  0  0  0  0
  1 25  1  0  0  0
  1 30  2  0  0  0
  1 83  1  0  0  0
  2  3  1  0  0  0
  2 25  1  0  0  0
  2 84  1  0  0  0
  2 85  1  0  0  0
  3  4  1  0  0  0
  3 86  1  0  0  0
  3 87  1  0  0  0
  4  5  1  0  0  0
  4 88  1  0  0  0
  4 89  1  0  0  0
  5  6  1  0  0  0
  5 26  1  0  0  0
  5 90  1  0  0  0
  6 25  1  0  0  0
  6 91  1  0  0  0
  6 92  1  0  0  0
  7  8  2  0  0  0
  7 26  1  0  0  0
  7 29  1  0  0  0
  8  9  1  0  0  0
  8 22  1  0  0  0
  9 10  1  0  0  0
  9 27  2  0  0  0
 10 11  2  0  0  0
 10 15  1  0  0  0
 11 12  1  0  0  0
 11 93  1  0  0  0
 12 13  2  0  0  0
 12 94  1  0  0  0
 13 14  1  0  0  0
 13 31  1  0  0  0
 14 15  2  0  0  0
 14 95  1  0  0  0
 15 96  1  0  0  0
 16 17  2  0  0  0
 16 21  1  0  0  0
 16 31  1  0  0  0
 17 18  1  0  0  0
 17 97  1  0  0  0
 18 19  2  0  0  0
 18 98  1  0  0  0
 19 20  1  0  0  0
 19 24  1  0  0  0
 20 21  2  0  0  0
 20 99  1  0  0  0
 21 23  1  0  0  0
 22 28  1  0  0  0
 22 32  2  0  0  0
 26 27  1  0  0  0
 28100  1  0  0  0
 28101  1  0  0  0
 29102  1  0  0  0
 29103  1  0  0  0
 33 34  1  0  0  0
 33 66  1  0  0  0
 33 70  2  0  0  0
 34 36  1  0  0  0
 34 59  1  0  0  0
 34104  1  0  0  0
 35 44  2  0  0  0
 35 45  1  0  0  0
 35 68  1  0  0  0
 36 56  1  0  0  0
 36105  1  0  0  0
 37 39  1  0  0  0
 37 47  1  0  0  0
 37 66  1  0  0  0
 37106  1  0  0  0
 38 43  2  0  0  0
 38 46  1  0  0  0
 38 47  1  0  0  0
 39 64  1  0  0  0
 39 67  2  0  0  0
 40 52  1  0  0  0
 40 53  2  0  0  0
 40 58  1  0  0  0
 41107  1  0  0  0
 41108  1  0  0  0
 41109  1  0  0  0
 41 48  1  0  0  0
 42 43  1  0  0  0
 42 66  1  0  0  0
 42110  1  0  0  0
 42111  1  0  0  0
 43 44  1  0  0  0
 44112  1  0  0  0
 45 46  2  0  0  0
 45113  1  0  0  0
 46114  1  0  0  0
 47115  1  0  0  0
 47116  1  0  0  0
 48 56  1  0  0  0
 48 65  1  0  0  0
 48117  1  0  0  0
 49 50  1  0  0  0
 49 53  1  0  0  0
 49 64  1  0  0  0
 49118  1  0  0  0
 50 51  1  0  0  0
 50119  1  0  0  0
 50120  1  0  0  0
 51 52  1  0  0  0
 51121  1  0  0  0
 51122  1  0  0  0
 52123  1  0  0  0
 52124  1  0  0  0
 53 54  1  0  0  0
 54 55  2  0  0  0
 54125  1  0  0  0
 55 57  1  0  0  0
 55126  1  0  0  0
 56 69  2  0  0  0
 57 58  2  0  0  0
 57127  1  0  0  0
 58128  1  0  0  0
 59 60  1  0  0  0
 59 61  1  0  0  0
 59 62  1  0  0  0
 60129  1  0  0  0
 60130  1  0  0  0
 60131  1  0  0  0
 61132  1  0  0  0
 61133  1  0  0  0
 61134  1  0  0  0
 62135  1  0  0  0
 62136  1  0  0  0
 62137  1  0  0  0
 63 65  1  0  0  0
 63138  1  0  0  0
 63139  1  0  0  0
 63140  1  0  0  0
 64141  1  0  0  0
 65142  1  0  0  0
 68 79  1  0  0  0
 71 72  2  0  0  0
 71 80  1  0  0  0
 71143  1  0  0  0
 72 81  1  0  0  0
 72144  1  0  0  0
 73 74  1  0  0  0
 73 79  1  0  0  0
 73 80  2  0  0  0
 74 81  2  0  0  0
 74 82  1  0  0  0
 75 76  1  0  0  0
 75 78  1  0  0  0
 75145  1  0  0  0
 75146  1  0  0  0
 76 82  1  0  0  0
 76147  1  0  0  0
 76148  1  0  0  0
 77 78  1  0  0  0
 77 82  1  0  0  0
 77149  1  0  0  0
 77150  1  0  0  0
 78 83  1  0  0  0
 78151  1  0  0  0
 79152  1  0  0  0
 79153  1  0  0  0
 83154  1  0  0  0
M  ISO  4   1 100  68 101  79 101  83 100
M  END
> <chiral flag>
0

> <version>
0

> <s_m_source_file>
/data/baiqing/PycharmProjects/Reinvent-master-3.2/result/LINK_invent/BTK/process_docking_weight1_custom_sum_contain_oxygen_bond_distance_aromatic_linkinvent_7_9_3/rearranged_h_0196.sdf

> <i_m_source_file_index>
54

> <r_mmod_Potential_Energy-OPLS-2005>
929.221252441406

> <r_mmod_Stretch_Energy-OPLS-2005>
369.092926025391

> <r_mmod_Bend_Energy-OPLS-2005>
427.351165771484

> <r_mmod_Torsional_Energy-OPLS-2005>
274.6171875

> <r_mmod_Improper_Torsional_Energy-OPLS-2005>
10.3652095794678

> <r_mmod_Van_der_Waal_Energy-OPLS-2005>
132.596786499023

> <r_mmod_Electrostatic_Energy-OPLS-2005>
-310.333862304688

> <r_mmod_Solvation_Energy-OPLS-2005>
-256.261260986328

> <b_mmod_Minimization_Converged-OPLS-2005>
0

> <r_mmod_RMS_Derivative-OPLS-2005>
1.90117526054382

$$$$
55
                    3D
 Structure written by MMmdl.
168177  0  0  1  0            999 V2000
  -30.5616  -14.7259   20.4498 C   0  0  0  0  0  0
  -30.4277  -12.4377   19.4635 C   0  0  0  0  0  0
  -29.5004  -12.5196   18.2291 C   0  0  0  0  0  0
  -28.0218  -12.3603   18.6346 C   0  0  0  0  0  0
  -27.6403  -13.2278   19.8619 C   0  0  2  0  0  0
  -28.6869  -13.1194   20.9938 C   0  0  0  0  0  0
  -25.2465  -13.8193   20.5681 C   0  0  0  0  0  0
  -24.1789  -13.0417   20.9210 C   0  0  0  0  0  0
  -24.6403  -11.6894   20.8770 C   0  0  0  0  0  0
  -23.9105  -10.4281   21.0443 C   0  0  0  0  0  0
  -24.3642   -9.4183   21.9214 C   0  0  0  0  0  0
  -23.6319   -8.2223   22.0772 C   0  0  0  0  0  0
  -22.4303   -8.0281   21.3540 C   0  0  0  0  0  0
  -21.9958   -9.0249   20.4623 C   0  0  0  0  0  0
  -22.7296  -10.2122   20.3050 C   0  0  0  0  0  0
  -21.6852   -6.0744   22.5282 C   0  0  0  0  0  0
  -21.4011   -6.5645   23.8215 C   0  0  0  0  0  0
  -21.3658   -5.6810   24.9184 C   0  0  0  0  0  0
  -21.6054   -4.3075   24.7229 C   0  0  0  0  0  0
  -21.8823   -3.8156   23.4358 C   0  0  0  0  0  0
  -21.9190   -4.6976   22.3403 C   0  0  0  0  0  0
  -22.7800  -13.5146   21.1885 C   0  0  0  0  0  0
  -22.1664   -4.2153   21.0981 F   0  0  0  0  0  0
  -21.5640   -3.4556   25.7756 F   0  0  0  0  0  0
  -29.9850  -13.4806   20.4148 N   0  0  0  0  0  0
  -26.2920  -12.9398   20.3309 N   0  0  0  0  0  0
  -25.9337  -11.6542   20.5795 N   0  0  0  0  0  0
  -22.0467  -12.8072   22.0416 N   0  0  0  0  0  0
  -25.4115  -15.1937   20.4086 N   0  0  0  0  0  0
  -31.7467  -14.8771   20.1321 O   0  0  0  0  0  0
  -21.6643   -6.8899   21.4240 O   0  0  0  0  0  0
  -22.3475  -14.5476   20.6778 O   0  0  0  0  0  0
  -24.6287  -31.8567   23.1937 C   0  0  0  0  0  0
  -25.9118  -32.4735   23.8286 C   0  0  1  0  0  0
  -27.2059  -27.2682   20.1419 C   0  0  0  0  0  0
  -25.5939  -33.8541   24.2239 N   0  0  0  0  0  0
  -23.4218  -30.4740   21.5417 C   0  0  2  0  0  0
  -24.8680  -28.9202   20.1024 C   0  0  0  0  0  0
  -22.7468  -29.4600   22.4953 C   0  0  0  0  0  0
  -18.0291  -28.1419   22.8509 C   0  0  0  0  0  0
  -24.1458  -36.7234   23.2663 C   0  0  0  0  0  0
  -25.9668  -30.7673   21.3714 C   0  0  0  0  0  0
  -26.0323  -29.3921   20.7189 C   0  0  0  0  0  0
  -27.2018  -28.5731   20.7344 C   0  0  0  0  0  0
  -26.0273  -26.8559   19.4876 C   0  0  0  0  0  0
  -24.8718  -27.6642   19.4717 C   0  0  0  0  0  0
  -23.6315  -29.7976   20.1593 C   0  0  0  0  0  0
  -25.4078  -36.3007   24.0344 C   0  0  1  0  0  0
  -20.5883  -28.3679   23.1339 C   0  0  2  0  0  0
  -20.6747  -26.9412   22.5412 C   0  0  0  0  0  0
  -19.5726  -26.6390   21.5223 C   0  0  0  0  0  0
  -18.1911  -26.7980   22.1620 C   0  0  0  0  0  0
  -19.1531  -28.8879   23.2925 C   0  0  0  0  0  0
  -18.9423  -30.1478   23.8939 C   0  0  0  0  0  0
  -17.6417  -30.6628   24.0552 C   0  0  0  0  0  0
  -25.9028  -34.9404   23.5065 C   0  0  0  0  0  0
  -16.5316  -29.9053   23.6412 C   0  0  0  0  0  0
  -16.7275  -28.6497   23.0411 C   0  0  0  0  0  0
  -26.4564  -31.6565   25.0662 C   0  0  0  0  0  0
  -25.3769  -31.3653   26.1336 C   0  0  0  0  0  0
  -27.0538  -30.3017   24.6140 C   0  0  0  0  0  0
  -27.6029  -32.4379   25.7477 C   0  0  0  0  0  0
  -27.5571  -37.1749   24.8510 C   0  0  0  0  0  0
  -21.4171  -29.3024   22.3691 N   0  0  0  0  0  0
  -26.4277  -37.3669   23.9450 N   0  0  0  0  0  0
  -24.6915  -31.0524   22.0907 N   0  0  0  0  0  0
  -23.4161  -28.8162   23.3065 O   0  0  0  0  0  0
  -28.3137  -26.4157   20.2600 O   0  0  0  0  0  0
  -26.5548  -34.8898   22.4595 O   0  0  0  0  0  0
  -23.5433  -32.1429   23.7206 O   0  0  0  0  0  0
  -28.9043  -23.9762   22.8199 C   0  0  0  0  0  0
  -28.3257  -24.0313   24.1182 C   0  0  0  0  0  0
  -27.8458  -23.7735   21.9782 C   0  0  0  0  0  0
  -28.6314  -18.2296   20.0288 C   0  0  0  0  0  0
  -30.4720  -18.1477   21.4673 C   0  0  0  0  0  0
  -29.8822  -17.3016   20.3198 C   0  0  1  0  0  0
  -29.1418  -19.7358   20.1463 C   0  0  1  0  0  0
  -26.8217  -20.7417   19.5798 C   0  0  0  0  0  0
  -25.3190  -23.4451   22.4390 C   0  0  0  0  0  0
  -28.3876  -25.0084   19.7486 C   0  0  0  0  0  0
  -27.8499  -23.6583   20.4734 C   0  0  1  0  0  0
  -28.1153  -20.9897   20.3895 C   0  0  2  0  0  0
  -27.0189  -23.8399   24.0940 N   0  0  0  0  0  0
  -26.7136  -23.6748   22.7860 N   0  0  0  0  0  0
  -29.7064  -15.8068   20.6113 N   0  0  0  0  0  0
  -28.5807  -22.3937   20.0321 N   0  0  0  0  0  0
  -30.2099  -19.5958   21.1692 N   0  3  0  0  0  0
  -31.4697  -12.5660   19.1655 H   0  0  0  0  0  0
  -30.3639  -11.4548   19.9344 H   0  0  0  0  0  0
  -29.7675  -11.7568   17.4968 H   0  0  0  0  0  0
  -29.6367  -13.4799   17.7368 H   0  0  0  0  0  0
  -27.8433  -11.3061   18.8460 H   0  0  0  0  0  0
  -27.3794  -12.6086   17.7902 H   0  0  0  0  0  0
  -27.6443  -14.2577   19.5090 H   0  0  0  0  0  0
  -28.7184  -12.1085   21.4008 H   0  0  0  0  0  0
  -28.4288  -13.7754   21.8287 H   0  0  0  0  0  0
  -25.2800   -9.5641   22.4773 H   0  0  0  0  0  0
  -24.0016   -7.4626   22.7511 H   0  0  0  0  0  0
  -21.0890   -8.8768   19.8918 H   0  0  0  0  0  0
  -22.3790  -10.9651   19.6138 H   0  0  0  0  0  0
  -21.2000   -7.6158   23.9708 H   0  0  0  0  0  0
  -21.1477   -6.0549   25.9086 H   0  0  0  0  0  0
  -22.0598   -2.7616   23.2871 H   0  0  0  0  0  0
  -22.4173  -11.9716   22.4698 H   0  0  0  0  0  0
  -21.1075  -13.1017   22.2675 H   0  0  0  0  0  0
  -24.6311  -15.8345   20.5202 H   0  0  0  0  0  0
  -26.2381  -15.6389   20.0343 H   0  0  0  0  0  0
  -26.7143  -32.5439   23.0988 H   0  0  0  0  0  0
  -25.0262  -33.9712   25.0508 H   0  0  0  0  0  0
  -22.7158  -31.2930   21.3917 H   0  0  0  0  0  0
  -23.3742  -35.9538   23.3271 H   0  0  0  0  0  0
  -24.3605  -36.8925   22.2102 H   0  0  0  0  0  0
  -23.7144  -37.6372   23.6753 H   0  0  0  0  0  0
  -26.1084  -31.5122   20.5858 H   0  0  0  0  0  0
  -26.8428  -30.8201   22.0041 H   0  0  0  0  0  0
  -28.0898  -28.9116   21.2517 H   0  0  0  0  0  0
  -25.9700  -25.8889   19.0146 H   0  0  0  0  0  0
  -23.9763  -27.3078   18.9814 H   0  0  0  0  0  0
  -23.7216  -30.5670   19.3906 H   0  0  0  0  0  0
  -22.7525  -29.2126   19.8827 H   0  0  0  0  0  0
  -25.1203  -36.1827   25.0819 H   0  0  0  0  0  0
  -21.0005  -28.3240   24.1441 H   0  0  0  0  0  0
  -20.5724  -26.2272   23.3569 H   0  0  0  0  0  0
  -21.6617  -26.7484   22.1188 H   0  0  0  0  0  0
  -19.6873  -25.6293   21.1281 H   0  0  0  0  0  0
  -19.6655  -27.3161   20.6727 H   0  0  0  0  0  0
  -17.4166  -26.6808   21.3994 H   0  0  0  0  0  0
  -18.0244  -26.0130   22.9009 H   0  0  0  0  0  0
  -19.7875  -30.7294   24.2371 H   0  0  0  0  0  0
  -17.4947  -31.6368   24.5014 H   0  0  0  0  0  0
  -15.5288  -30.2878   23.7826 H   0  0  0  0  0  0
  -15.8696  -28.0772   22.7137 H   0  0  0  0  0  0
  -24.5975  -30.6992   25.7634 H   0  0  0  0  0  0
  -24.8937  -32.2822   26.4708 H   0  0  0  0  0  0
  -25.8072  -30.8852   27.0135 H   0  0  0  0  0  0
  -26.3204  -29.6585   24.1264 H   0  0  0  0  0  0
  -27.4451  -29.7379   25.4632 H   0  0  0  0  0  0
  -27.8923  -30.4397   23.9291 H   0  0  0  0  0  0
  -27.2623  -33.3796   26.1791 H   0  0  0  0  0  0
  -28.3966  -32.6759   25.0384 H   0  0  0  0  0  0
  -28.0540  -31.8680   26.5603 H   0  0  0  0  0  0
  -28.2476  -38.0141   24.7558 H   0  0  0  0  0  0
  -28.1151  -36.2644   24.6270 H   0  0  0  0  0  0
  -27.2360  -37.1319   25.8935 H   0  0  0  0  0  0
  -20.9318  -29.8728   21.6911 H   0  0  0  0  0  0
  -26.0156  -38.2755   24.1348 H   0  0  0  0  0  0
  -29.9431  -24.0977   22.5442 H   0  0  0  0  0  0
  -28.8157  -24.2017   25.0679 H   0  0  0  0  0  0
  -27.8538  -18.0558   20.7754 H   0  0  0  0  0  0
  -28.1902  -18.0430   19.0481 H   0  0  0  0  0  0
  -31.5376  -17.9577   21.6023 H   0  0  0  0  0  0
  -29.9754  -17.8940   22.4065 H   0  0  0  0  0  0
  -30.5517  -17.3779   19.4573 H   0  0  0  0  0  0
  -29.6541  -19.9396   19.2045 H   0  0  0  0  0  0
  -26.3164  -19.8305   19.9031 H   0  0  0  0  0  0
  -27.0360  -20.6298   18.5166 H   0  0  0  0  0  0
  -26.0876  -21.5411   19.6764 H   0  0  0  0  0  0
  -24.8207  -24.3943   22.2362 H   0  0  0  0  0  0
  -24.8029  -22.9461   23.2628 H   0  0  0  0  0  0
  -25.2381  -22.8013   21.5638 H   0  0  0  0  0  0
  -28.0646  -24.9915   18.7061 H   0  0  0  0  0  0
  -29.4710  -24.8799   19.6951 H   0  0  0  0  0  0
  -26.8122  -23.5640   20.1510 H   0  0  0  0  0  0
  -27.8449  -21.0016   21.4467 H   0  0  0  0  0  0
  -28.7745  -15.5300   20.8727 H   0  0  0  0  0  0
  -29.5799  -22.5184   20.1561 H   0  0  0  0  0  0
  -31.0466  -20.0232   20.8096 H   0  0  0  0  0  0
  -29.9585  -20.0701   22.0211 H   0  0  0  0  0  0
  1 25  1  0  0  0
  1 30  2  0  0  0
  1 85  1  0  0  0
  2  3  1  0  0  0
  2 25  1  0  0  0
  2 88  1  0  0  0
  2 89  1  0  0  0
  3  4  1  0  0  0
  3 90  1  0  0  0
  3 91  1  0  0  0
  4  5  1  0  0  0
  4 92  1  0  0  0
  4 93  1  0  0  0
  5  6  1  0  0  0
  5 26  1  0  0  0
  5 94  1  0  0  0
  6 25  1  0  0  0
  6 95  1  0  0  0
  6 96  1  0  0  0
  7  8  2  0  0  0
  7 26  1  0  0  0
  7 29  1  0  0  0
  8  9  1  0  0  0
  8 22  1  0  0  0
  9 10  1  0  0  0
  9 27  2  0  0  0
 10 11  2  0  0  0
 10 15  1  0  0  0
 11 12  1  0  0  0
 11 97  1  0  0  0
 12 13  2  0  0  0
 12 98  1  0  0  0
 13 14  1  0  0  0
 13 31  1  0  0  0
 14 15  2  0  0  0
 14 99  1  0  0  0
 15100  1  0  0  0
 16 17  2  0  0  0
 16 21  1  0  0  0
 16 31  1  0  0  0
 17 18  1  0  0  0
 17101  1  0  0  0
 18 19  2  0  0  0
 18102  1  0  0  0
 19 20  1  0  0  0
 19 24  1  0  0  0
 20 21  2  0  0  0
 20103  1  0  0  0
 21 23  1  0  0  0
 22 28  1  0  0  0
 22 32  2  0  0  0
 26 27  1  0  0  0
 28104  1  0  0  0
 28105  1  0  0  0
 29106  1  0  0  0
 29107  1  0  0  0
 33 34  1  0  0  0
 33 66  1  0  0  0
 33 70  2  0  0  0
 34 36  1  0  0  0
 34 59  1  0  0  0
 34108  1  0  0  0
 35 44  2  0  0  0
 35 45  1  0  0  0
 35 68  1  0  0  0
 36 56  1  0  0  0
 36109  1  0  0  0
 37 39  1  0  0  0
 37 47  1  0  0  0
 37 66  1  0  0  0
 37110  1  0  0  0
 38 43  2  0  0  0
 38 46  1  0  0  0
 38 47  1  0  0  0
 39 64  1  0  0  0
 39 67  2  0  0  0
 40 52  1  0  0  0
 40 53  2  0  0  0
 40 58  1  0  0  0
 41111  1  0  0  0
 41112  1  0  0  0
 41113  1  0  0  0
 41 48  1  0  0  0
 42 43  1  0  0  0
 42 66  1  0  0  0
 42114  1  0  0  0
 42115  1  0  0  0
 43 44  1  0  0  0
 44116  1  0  0  0
 45 46  2  0  0  0
 45117  1  0  0  0
 46118  1  0  0  0
 47119  1  0  0  0
 47120  1  0  0  0
 48 56  1  0  0  0
 48 65  1  0  0  0
 48121  1  0  0  0
 49 50  1  0  0  0
 49 53  1  0  0  0
 49 64  1  0  0  0
 49122  1  0  0  0
 50 51  1  0  0  0
 50123  1  0  0  0
 50124  1  0  0  0
 51 52  1  0  0  0
 51125  1  0  0  0
 51126  1  0  0  0
 52127  1  0  0  0
 52128  1  0  0  0
 53 54  1  0  0  0
 54 55  2  0  0  0
 54129  1  0  0  0
 55 57  1  0  0  0
 55130  1  0  0  0
 56 69  2  0  0  0
 57 58  2  0  0  0
 57131  1  0  0  0
 58132  1  0  0  0
 59 60  1  0  0  0
 59 61  1  0  0  0
 59 62  1  0  0  0
 60133  1  0  0  0
 60134  1  0  0  0
 60135  1  0  0  0
 61136  1  0  0  0
 61137  1  0  0  0
 61138  1  0  0  0
 62139  1  0  0  0
 62140  1  0  0  0
 62141  1  0  0  0
 63 65  1  0  0  0
 63142  1  0  0  0
 63143  1  0  0  0
 63144  1  0  0  0
 64145  1  0  0  0
 65146  1  0  0  0
 68 80  1  0  0  0
 71 72  1  0  0  0
 71 73  2  0  0  0
 71147  1  0  0  0
 72 83  2  0  0  0
 72148  1  0  0  0
 73 81  1  0  0  0
 73 84  1  0  0  0
 74 76  1  0  0  0
 74149  1  0  0  0
 74150  1  0  0  0
 74 77  1  0  0  0
 75 76  1  0  0  0
 75 87  1  0  0  0
 75151  1  0  0  0
 75152  1  0  0  0
 76 85  1  0  0  0
 76153  1  0  0  0
 77 82  1  0  0  0
 77 87  1  0  0  0
 77154  1  0  0  0
 78155  1  0  0  0
 78156  1  0  0  0
 78157  1  0  0  0
 78 82  1  0  0  0
 79 84  1  0  0  0
 79158  1  0  0  0
 79159  1  0  0  0
 79160  1  0  0  0
 80161  1  0  0  0
 80162  1  0  0  0
 80 81  1  0  0  0
 81 86  1  0  0  0
 81163  1  0  0  0
 82 86  1  0  0  0
 82164  1  0  0  0
 83 84  1  0  0  0
 85165  1  0  0  0
 86166  1  0  0  0
 87167  1  0  0  0
 87168  1  0  0  0
M  CHG  1  87   1
M  ISO  4   1 100  68 101  80 101  85 100
M  END
> <chiral flag>
0

> <version>
0

> <s_m_source_file>
/data/baiqing/PycharmProjects/Reinvent-master-3.2/result/LINK_invent/BTK/process_docking_weight1_custom_sum_contain_oxygen_bond_distance_aromatic_linkinvent_7_9_3/rearranged_h_0196.sdf

> <i_m_source_file_index>
55

> <r_mmod_Potential_Energy-OPLS-2005>
-33.8096771240234

> <r_mmod_Stretch_Energy-OPLS-2005>
118.801979064941

> <r_mmod_Bend_Energy-OPLS-2005>
230.781097412109

> <r_mmod_Torsional_Energy-OPLS-2005>
264.082336425781

> <r_mmod_Improper_Torsional_Energy-OPLS-2005>
5.99659061431885

> <r_mmod_Van_der_Waal_Energy-OPLS-2005>
97.7149353027344

> <r_mmod_Electrostatic_Energy-OPLS-2005>
-316.347686767578

> <r_mmod_Solvation_Energy-OPLS-2005>
-516.095458984375

> <b_mmod_Minimization_Converged-OPLS-2005>
0

> <r_mmod_RMS_Derivative-OPLS-2005>
5.94673109054565

$$$$
56
                    3D
 Structure written by MMmdl.
157166  0  0  1  0            999 V2000
  -30.6862  -14.6228   20.4787 C   0  0  0  0  0  0
  -30.4158  -12.3820   19.4554 C   0  0  0  0  0  0
  -29.4984  -12.4934   18.2211 C   0  0  0  0  0  0
  -28.0227  -12.3415   18.6362 C   0  0  0  0  0  0
  -27.6444  -13.2289   19.8533 C   0  0  2  0  0  0
  -28.6912  -13.1385   20.9848 C   0  0  0  0  0  0
  -25.2531  -13.8204   20.5711 C   0  0  0  0  0  0
  -24.1809  -13.0451   20.9194 C   0  0  0  0  0  0
  -24.6394  -11.6925   20.8743 C   0  0  0  0  0  0
  -23.9070  -10.4300   21.0405 C   0  0  0  0  0  0
  -24.3622   -9.4215   21.9183 C   0  0  0  0  0  0
  -23.6297   -8.2248   22.0755 C   0  0  0  0  0  0
  -22.4279   -8.0284   21.3545 C   0  0  0  0  0  0
  -21.9916   -9.0257   20.4645 C   0  0  0  0  0  0
  -22.7242  -10.2138   20.3054 C   0  0  0  0  0  0
  -21.6855   -6.0737   22.5279 C   0  0  0  0  0  0
  -21.4015   -6.5642   23.8212 C   0  0  0  0  0  0
  -21.3660   -5.6797   24.9176 C   0  0  0  0  0  0
  -21.6046   -4.3058   24.7228 C   0  0  0  0  0  0
  -21.8821   -3.8148   23.4349 C   0  0  0  0  0  0
  -21.9195   -4.6964   22.3404 C   0  0  0  0  0  0
  -22.7828  -13.5229   21.1856 C   0  0  0  0  0  0
  -22.1662   -4.2147   21.0982 F   0  0  0  0  0  0
  -21.5629   -3.4543   25.7742 F   0  0  0  0  0  0
  -30.0015  -13.4397   20.3983 N   0  0  0  0  0  0
  -26.2957  -12.9406   20.3314 N   0  0  0  0  0  0
  -25.9327  -11.6548   20.5763 N   0  0  0  0  0  0
  -22.0483  -12.8213   22.0413 N   0  0  0  0  0  0
  -25.4263  -15.1928   20.4159 N   0  0  0  0  0  0
  -31.8828  -14.6771   20.1779 O   0  0  0  0  0  0
  -21.6644   -6.8880   21.4240 O   0  0  0  0  0  0
  -22.3507  -14.5536   20.6709 O   0  0  0  0  0  0
  -24.6269  -31.8620   23.2059 C   0  0  0  0  0  0
  -25.9121  -32.4791   23.8376 C   0  0  1  0  0  0
  -27.2090  -27.3162   20.1080 C   0  0  0  0  0  0
  -25.5944  -33.8593   24.2300 N   0  0  0  0  0  0
  -23.4189  -30.4905   21.5495 C   0  0  2  0  0  0
  -24.8620  -28.9558   20.1083 C   0  0  0  0  0  0
  -22.7474  -29.4646   22.4937 C   0  0  0  0  0  0
  -18.0288  -28.1383   22.8491 C   0  0  0  0  0  0
  -24.1491  -36.7295   23.2634 C   0  0  0  0  0  0
  -25.9634  -30.7911   21.3801 C   0  0  0  0  0  0
  -26.0344  -29.4216   20.7170 C   0  0  0  0  0  0
  -27.2116  -28.6130   20.7111 C   0  0  0  0  0  0
  -26.0116  -26.9198   19.4608 C   0  0  0  0  0  0
  -24.8530  -27.7101   19.4716 C   0  0  0  0  0  0
  -23.6319  -29.8354   20.1619 C   0  0  0  0  0  0
  -25.4114  -36.3091   24.0331 C   0  0  1  0  0  0
  -20.5889  -28.3695   23.1279 C   0  0  2  0  0  0
  -20.6780  -26.9420   22.5405 C   0  0  0  0  0  0
  -19.5755  -26.6386   21.5210 C   0  0  0  0  0  0
  -18.1935  -26.7927   22.1624 C   0  0  0  0  0  0
  -19.1540  -28.8855   23.2880 C   0  0  0  0  0  0
  -18.9462  -30.1455   23.8900 C   0  0  0  0  0  0
  -17.6463  -30.6590   24.0562 C   0  0  0  0  0  0
  -25.9056  -34.9461   23.5111 C   0  0  0  0  0  0
  -16.5354  -29.9087   23.6330 C   0  0  0  0  0  0
  -16.7274  -28.6499   23.0360 C   0  0  0  0  0  0
  -26.4500  -31.6592   25.0740 C   0  0  0  0  0  0
  -25.3733  -31.3724   26.1464 C   0  0  0  0  0  0
  -27.0344  -30.3016   24.6194 C   0  0  0  0  0  0
  -27.6063  -32.4320   25.7514 C   0  0  0  0  0  0
  -27.5586  -37.1796   24.8458 C   0  0  0  0  0  0
  -21.4187  -29.3056   22.3676 N   0  0  0  0  0  0
  -26.4289  -37.3789   23.9416 N   0  0  0  0  0  0
  -24.6888  -31.0634   22.1018 N   0  0  0  0  0  0
  -23.4201  -28.8167   23.3001 O   0  0  0  0  0  0
  -28.3001  -26.4294   20.1780 O   0  0  0  0  0  0
  -26.5614  -34.8922   22.4671 O   0  0  0  0  0  0
  -23.5432  -32.1423   23.7385 O   0  0  0  0  0  0
  -30.3363  -24.0889   20.5655 C   0  0  0  0  0  0
  -31.1542  -22.9697   20.7864 C   0  0  0  0  0  0
  -28.9818  -23.8494   20.3109 C   0  0  0  0  0  0
  -29.3889  -21.5412   20.5134 C   0  0  0  0  0  0
  -29.0012  -17.9123   19.4357 C   0  0  0  0  0  0
  -29.6692  -18.1300   21.7605 C   0  0  0  0  0  0
  -29.7656  -16.5496   19.3411 C   0  0  0  0  0  0
  -30.4270  -16.7550   21.6662 C   0  0  0  0  0  0
  -29.6282  -18.9216   20.4286 C   0  0  0  0  0  0
  -27.9752  -24.9948   19.9684 C   0  0  0  0  0  0
  -30.6794  -21.7036   20.7533 N   0  0  0  0  0  0
  -28.5292  -22.5502   20.2964 N   0  0  0  0  0  0
  -29.9765  -15.8019   20.6120 N   0  0  0  0  0  0
  -28.8897  -20.2239   20.4860 N   0  0  0  0  0  0
  -31.4612  -12.4710   19.1548 H   0  0  0  0  0  0
  -30.3207  -11.4001   19.9216 H   0  0  0  0  0  0
  -29.7596  -11.7319   17.4851 H   0  0  0  0  0  0
  -29.6480  -13.4570   17.7313 H   0  0  0  0  0  0
  -27.8582  -11.2911   18.8793 H   0  0  0  0  0  0
  -27.3688  -12.5621   17.7915 H   0  0  0  0  0  0
  -27.6465  -14.2563   19.4905 H   0  0  0  0  0  0
  -28.6964  -12.1451   21.4352 H   0  0  0  0  0  0
  -28.4516  -13.8411   21.7847 H   0  0  0  0  0  0
  -25.2770   -9.5694   22.4753 H   0  0  0  0  0  0
  -24.0009   -7.4644   22.7478 H   0  0  0  0  0  0
  -21.0848   -8.8774   19.8948 H   0  0  0  0  0  0
  -22.3700  -10.9676   19.6161 H   0  0  0  0  0  0
  -21.2007   -7.6151   23.9711 H   0  0  0  0  0  0
  -21.1479   -6.0530   25.9078 H   0  0  0  0  0  0
  -22.0599   -2.7609   23.2853 H   0  0  0  0  0  0
  -22.4110  -11.9871   22.4786 H   0  0  0  0  0  0
  -21.1099  -13.1224   22.2627 H   0  0  0  0  0  0
  -24.6688  -15.8558   20.5395 H   0  0  0  0  0  0
  -26.2964  -15.6300   20.1393 H   0  0  0  0  0  0
  -26.7188  -32.5458   23.1124 H   0  0  0  0  0  0
  -25.0102  -33.9744   25.0453 H   0  0  0  0  0  0
  -22.7129  -31.3121   21.4117 H   0  0  0  0  0  0
  -23.3764  -35.9612   23.3275 H   0  0  0  0  0  0
  -24.3589  -36.8939   22.2053 H   0  0  0  0  0  0
  -23.7226  -37.6484   23.6671 H   0  0  0  0  0  0
  -26.0985  -31.5568   20.6147 H   0  0  0  0  0  0
  -26.8432  -30.8346   22.0104 H   0  0  0  0  0  0
  -28.1065  -28.9609   21.2080 H   0  0  0  0  0  0
  -25.9181  -25.9771   18.9445 H   0  0  0  0  0  0
  -23.9565  -27.3508   18.9850 H   0  0  0  0  0  0
  -23.7515  -30.6163   19.4102 H   0  0  0  0  0  0
  -22.7509  -29.2677   19.8569 H   0  0  0  0  0  0
  -25.1288  -36.1942   25.0824 H   0  0  0  0  0  0
  -20.9984  -28.3273   24.1399 H   0  0  0  0  0  0
  -20.5692  -26.2305   23.3605 H   0  0  0  0  0  0
  -21.6649  -26.7460   22.1196 H   0  0  0  0  0  0
  -19.6921  -25.6296   21.1242 H   0  0  0  0  0  0
  -19.6690  -27.3191   20.6736 H   0  0  0  0  0  0
  -17.4206  -26.6682   21.4022 H   0  0  0  0  0  0
  -18.0333  -26.0064   22.9016 H   0  0  0  0  0  0
  -19.7938  -30.7267   24.2277 H   0  0  0  0  0  0
  -17.5019  -31.6273   24.5159 H   0  0  0  0  0  0
  -15.5354  -30.2992   23.7651 H   0  0  0  0  0  0
  -15.8673  -28.0811   22.7087 H   0  0  0  0  0  0
  -24.5908  -30.7076   25.7787 H   0  0  0  0  0  0
  -24.8923  -32.2889   26.4893 H   0  0  0  0  0  0
  -25.8057  -30.8896   27.0237 H   0  0  0  0  0  0
  -26.2922  -29.6767   24.1213 H   0  0  0  0  0  0
  -27.4036  -29.7269   25.4697 H   0  0  0  0  0  0
  -27.8797  -30.4300   23.9429 H   0  0  0  0  0  0
  -27.2679  -33.3619   26.2095 H   0  0  0  0  0  0
  -28.3877  -32.6878   25.0346 H   0  0  0  0  0  0
  -28.0728  -31.8440   26.5428 H   0  0  0  0  0  0
  -28.2575  -38.0123   24.7556 H   0  0  0  0  0  0
  -28.1115  -36.2659   24.6222 H   0  0  0  0  0  0
  -27.2313  -37.1373   25.8861 H   0  0  0  0  0  0
  -20.9352  -29.8796   21.6907 H   0  0  0  0  0  0
  -26.0170  -38.2856   24.1446 H   0  0  0  0  0  0
  -30.7380  -25.0935   20.5777 H   0  0  0  0  0  0
  -32.2095  -23.0877   20.9829 H   0  0  0  0  0  0
  -27.9648  -17.7150   19.7143 H   0  0  0  0  0  0
  -28.9618  -18.3596   18.4413 H   0  0  0  0  0  0
  -30.1414  -18.7424   22.5300 H   0  0  0  0  0  0
  -28.6517  -17.9478   22.1097 H   0  0  0  0  0  0
  -30.7380  -16.7392   18.8819 H   0  0  0  0  0  0
  -29.2329  -15.9039   18.6412 H   0  0  0  0  0  0
  -30.3606  -16.2530   22.6328 H   0  0  0  0  0  0
  -31.4881  -16.9642   21.5150 H   0  0  0  0  0  0
  -30.6516  -19.1306   20.1118 H   0  0  0  0  0  0
  -27.0714  -24.7559   20.5319 H   0  0  0  0  0  0
  -27.7455  -24.8535   18.9117 H   0  0  0  0  0  0
  -27.8945  -20.1726   20.3086 H   0  0  0  0  0  0
  1 25  1  0  0  0
  1 30  2  0  0  0
  1 83  1  0  0  0
  2  3  1  0  0  0
  2 25  1  0  0  0
  2 85  1  0  0  0
  2 86  1  0  0  0
  3  4  1  0  0  0
  3 87  1  0  0  0
  3 88  1  0  0  0
  4  5  1  0  0  0
  4 89  1  0  0  0
  4 90  1  0  0  0
  5  6  1  0  0  0
  5 26  1  0  0  0
  5 91  1  0  0  0
  6 25  1  0  0  0
  6 92  1  0  0  0
  6 93  1  0  0  0
  7  8  2  0  0  0
  7 26  1  0  0  0
  7 29  1  0  0  0
  8  9  1  0  0  0
  8 22  1  0  0  0
  9 10  1  0  0  0
  9 27  2  0  0  0
 10 11  2  0  0  0
 10 15  1  0  0  0
 11 12  1  0  0  0
 11 94  1  0  0  0
 12 13  2  0  0  0
 12 95  1  0  0  0
 13 14  1  0  0  0
 13 31  1  0  0  0
 14 15  2  0  0  0
 14 96  1  0  0  0
 15 97  1  0  0  0
 16 17  2  0  0  0
 16 21  1  0  0  0
 16 31  1  0  0  0
 17 18  1  0  0  0
 17 98  1  0  0  0
 18 19  2  0  0  0
 18 99  1  0  0  0
 19 20  1  0  0  0
 19 24  1  0  0  0
 20 21  2  0  0  0
 20100  1  0  0  0
 21 23  1  0  0  0
 22 28  1  0  0  0
 22 32  2  0  0  0
 26 27  1  0  0  0
 28101  1  0  0  0
 28102  1  0  0  0
 29103  1  0  0  0
 29104  1  0  0  0
 33 34  1  0  0  0
 33 66  1  0  0  0
 33 70  2  0  0  0
 34 36  1  0  0  0
 34 59  1  0  0  0
 34105  1  0  0  0
 35 44  2  0  0  0
 35 45  1  0  0  0
 35 68  1  0  0  0
 36 56  1  0  0  0
 36106  1  0  0  0
 37 39  1  0  0  0
 37 47  1  0  0  0
 37 66  1  0  0  0
 37107  1  0  0  0
 38 43  2  0  0  0
 38 46  1  0  0  0
 38 47  1  0  0  0
 39 64  1  0  0  0
 39 67  2  0  0  0
 40 52  1  0  0  0
 40 53  2  0  0  0
 40 58  1  0  0  0
 41108  1  0  0  0
 41109  1  0  0  0
 41110  1  0  0  0
 41 48  1  0  0  0
 42 43  1  0  0  0
 42 66  1  0  0  0
 42111  1  0  0  0
 42112  1  0  0  0
 43 44  1  0  0  0
 44113  1  0  0  0
 45 46  2  0  0  0
 45114  1  0  0  0
 46115  1  0  0  0
 47116  1  0  0  0
 47117  1  0  0  0
 48 56  1  0  0  0
 48 65  1  0  0  0
 48118  1  0  0  0
 49 50  1  0  0  0
 49 53  1  0  0  0
 49 64  1  0  0  0
 49119  1  0  0  0
 50 51  1  0  0  0
 50120  1  0  0  0
 50121  1  0  0  0
 51 52  1  0  0  0
 51122  1  0  0  0
 51123  1  0  0  0
 52124  1  0  0  0
 52125  1  0  0  0
 53 54  1  0  0  0
 54 55  2  0  0  0
 54126  1  0  0  0
 55 57  1  0  0  0
 55127  1  0  0  0
 56 69  2  0  0  0
 57 58  2  0  0  0
 57128  1  0  0  0
 58129  1  0  0  0
 59 60  1  0  0  0
 59 61  1  0  0  0
 59 62  1  0  0  0
 60130  1  0  0  0
 60131  1  0  0  0
 60132  1  0  0  0
 61133  1  0  0  0
 61134  1  0  0  0
 61135  1  0  0  0
 62136  1  0  0  0
 62137  1  0  0  0
 62138  1  0  0  0
 63 65  1  0  0  0
 63139  1  0  0  0
 63140  1  0  0  0
 63141  1  0  0  0
 64142  1  0  0  0
 65143  1  0  0  0
 68 80  1  0  0  0
 71 72  2  0  0  0
 71 73  1  0  0  0
 71144  1  0  0  0
 72 81  1  0  0  0
 72145  1  0  0  0
 73 80  1  0  0  0
 73 82  2  0  0  0
 74 81  2  0  0  0
 74 82  1  0  0  0
 74 84  1  0  0  0
 75 77  1  0  0  0
 75 79  1  0  0  0
 75146  1  0  0  0
 75147  1  0  0  0
 76 78  1  0  0  0
 76 79  1  0  0  0
 76148  1  0  0  0
 76149  1  0  0  0
 77 83  1  0  0  0
 77150  1  0  0  0
 77151  1  0  0  0
 78 83  1  0  0  0
 78152  1  0  0  0
 78153  1  0  0  0
 79 84  1  0  0  0
 79154  1  0  0  0
 80155  1  0  0  0
 80156  1  0  0  0
 84157  1  0  0  0
M  ISO  4   1 100  68 101  80 101  83 100
M  END
> <chiral flag>
0

> <version>
0

> <s_m_source_file>
/data/baiqing/PycharmProjects/Reinvent-master-3.2/result/LINK_invent/BTK/process_docking_weight1_custom_sum_contain_oxygen_bond_distance_aromatic_linkinvent_7_9_3/rearranged_h_0196.sdf

> <i_m_source_file_index>
56

> <r_mmod_Potential_Energy-OPLS-2005>
-257.611236572266

> <r_mmod_Stretch_Energy-OPLS-2005>
72.8657455444336

> <r_mmod_Bend_Energy-OPLS-2005>
154.479934692383

> <r_mmod_Torsional_Energy-OPLS-2005>
319.824066162109

> <r_mmod_Improper_Torsional_Energy-OPLS-2005>
12.0110368728638

> <r_mmod_Van_der_Waal_Energy-OPLS-2005>
160.317123413086

> <r_mmod_Electrostatic_Energy-OPLS-2005>
-803.976501464844

> <r_mmod_Solvation_Energy-OPLS-2005>
-228.173583984375

> <b_mmod_Minimization_Converged-OPLS-2005>
0

> <r_mmod_RMS_Derivative-OPLS-2005>
0.445463001728058

$$$$
57
                    3D
 Structure written by MMmdl.
166175  0  0  1  0            999 V2000
  -30.6747  -14.4932   20.4788 C   0  0  0  0  0  0
  -30.4229  -12.2918   19.4308 C   0  0  0  0  0  0
  -29.5002  -12.4701   18.2072 C   0  0  0  0  0  0
  -28.0163  -12.3516   18.6082 C   0  0  0  0  0  0
  -27.6515  -13.1990   19.8591 C   0  0  2  0  0  0
  -28.6967  -13.0247   20.9886 C   0  0  0  0  0  0
  -25.2548  -13.8141   20.5652 C   0  0  0  0  0  0
  -24.1815  -13.0416   20.9143 C   0  0  0  0  0  0
  -24.6366  -11.6886   20.8702 C   0  0  0  0  0  0
  -23.9032  -10.4279   21.0414 C   0  0  0  0  0  0
  -24.3588   -9.4198   21.9186 C   0  0  0  0  0  0
  -23.6252   -8.2238   22.0749 C   0  0  0  0  0  0
  -22.4228   -8.0275   21.3536 C   0  0  0  0  0  0
  -21.9882   -9.0252   20.4635 C   0  0  0  0  0  0
  -22.7215  -10.2135   20.3057 C   0  0  0  0  0  0
  -21.6850   -6.0725   22.5276 C   0  0  0  0  0  0
  -21.4010   -6.5632   23.8203 C   0  0  0  0  0  0
  -21.3674   -5.6784   24.9168 C   0  0  0  0  0  0
  -21.6068   -4.3038   24.7220 C   0  0  0  0  0  0
  -21.8816   -3.8128   23.4336 C   0  0  0  0  0  0
  -21.9173   -4.6958   22.3392 C   0  0  0  0  0  0
  -22.7846  -13.5224   21.1793 C   0  0  0  0  0  0
  -22.1650   -4.2166   21.0967 F   0  0  0  0  0  0
  -21.5634   -3.4512   25.7718 F   0  0  0  0  0  0
  -30.0267  -13.2979   20.4220 N   0  0  0  0  0  0
  -26.2957  -12.9277   20.3270 N   0  0  0  0  0  0
  -25.9271  -11.6452   20.5674 N   0  0  0  0  0  0
  -22.0486  -12.8245   22.0388 N   0  0  0  0  0  0
  -25.4235  -15.1877   20.4130 N   0  0  0  0  0  0
  -31.8617  -14.6352   20.1697 O   0  0  0  0  0  0
  -21.6601   -6.8872   21.4239 O   0  0  0  0  0  0
  -22.3541  -14.5527   20.6629 O   0  0  0  0  0  0
  -24.6142  -31.8678   23.2075 C   0  0  0  0  0  0
  -25.9037  -32.4812   23.8374 C   0  0  1  0  0  0
  -27.2388  -27.4525   20.0758 C   0  0  0  0  0  0
  -25.5904  -33.8609   24.2322 N   0  0  0  0  0  0
  -23.4024  -30.4879   21.5479 C   0  0  2  0  0  0
  -24.8505  -28.9539   20.1114 C   0  0  0  0  0  0
  -22.7408  -29.4640   22.4974 C   0  0  0  0  0  0
  -18.0266  -28.1386   22.8481 C   0  0  0  0  0  0
  -24.1491  -36.7329   23.2636 C   0  0  0  0  0  0
  -25.9279  -30.8321   21.3595 C   0  0  0  0  0  0
  -26.0065  -29.4647   20.7146 C   0  0  0  0  0  0
  -27.2052  -28.7172   20.7029 C   0  0  0  0  0  0
  -26.0745  -26.9563   19.4560 C   0  0  0  0  0  0
  -24.8786  -27.6985   19.4762 C   0  0  0  0  0  0
  -23.6103  -29.8163   20.1631 C   0  0  0  0  0  0
  -25.4105  -36.3102   24.0332 C   0  0  1  0  0  0
  -20.5858  -28.3670   23.1322 C   0  0  2  0  0  0
  -20.6759  -26.9405   22.5422 C   0  0  0  0  0  0
  -19.5748  -26.6390   21.5209 C   0  0  0  0  0  0
  -18.1923  -26.7931   22.1615 C   0  0  0  0  0  0
  -19.1516  -28.8840   23.2898 C   0  0  0  0  0  0
  -18.9445  -30.1444   23.8913 C   0  0  0  0  0  0
  -17.6450  -30.6589   24.0571 C   0  0  0  0  0  0
  -25.9025  -34.9470   23.5119 C   0  0  0  0  0  0
  -16.5340  -29.9096   23.6326 C   0  0  0  0  0  0
  -16.7255  -28.6516   23.0332 C   0  0  0  0  0  0
  -26.4477  -31.6581   25.0698 C   0  0  0  0  0  0
  -25.3763  -31.3679   26.1459 C   0  0  0  0  0  0
  -27.0303  -30.3031   24.6044 C   0  0  0  0  0  0
  -27.6057  -32.4288   25.7473 C   0  0  0  0  0  0
  -27.5579  -37.1816   24.8457 C   0  0  0  0  0  0
  -21.4130  -29.3039   22.3733 N   0  0  0  0  0  0
  -26.4295  -37.3787   23.9397 N   0  0  0  0  0  0
  -24.6667  -31.0762   22.0985 N   0  0  0  0  0  0
  -23.4177  -28.8173   23.3017 O   0  0  0  0  0  0
  -28.3985  -26.7180   20.0244 O   0  0  0  0  0  0
  -26.5582  -34.8932   22.4676 O   0  0  0  0  0  0
  -23.5336  -32.1420   23.7481 O   0  0  0  0  0  0
  -26.6825  -20.6562   20.0397 C   0  0  0  0  0  0
  -26.8507  -19.5642   19.1886 C   0  0  0  0  0  0
  -27.7895  -21.0389   20.8157 C   0  0  0  0  0  0
  -28.9648  -19.2586   19.9777 C   0  0  0  0  0  0
  -30.4186  -17.5307   18.9780 C   0  0  0  0  0  0
  -30.3285  -17.7957   21.3859 C   0  0  0  0  0  0
  -29.6457  -16.2026   19.0863 C   0  0  0  0  0  0
  -29.5791  -16.4457   21.5297 C   0  0  0  0  0  0
  -25.9133  -23.6527   20.8980 C   0  0  0  0  0  0
  -27.7278  -22.1775   21.8354 C   0  0  0  0  0  0
  -28.2912  -24.2740   20.5099 C   0  0  0  0  0  0
  -28.5230  -25.7143   21.0348 C   0  0  0  0  0  0
  -28.0040  -18.8801   19.1541 N   0  0  0  0  0  0
  -28.9254  -20.3065   20.7869 N   0  0  0  0  0  0
  -30.0687  -18.4172   20.0856 N   0  0  0  0  0  0
  -29.8397  -15.5498   20.3931 N   0  0  0  0  0  0
  -27.3169  -23.5336   21.3628 N   0  3  1  0  0  0
  -31.4699  -12.3911   19.1302 H   0  0  0  0  0  0
  -30.3156  -11.2951   19.8578 H   0  0  0  0  0  0
  -29.7415  -11.7271   17.4460 H   0  0  0  0  0  0
  -29.6801  -13.4358   17.7386 H   0  0  0  0  0  0
  -27.8152  -11.2951   18.7915 H   0  0  0  0  0  0
  -27.3845  -12.6350   17.7653 H   0  0  0  0  0  0
  -27.6630  -14.2347   19.5333 H   0  0  0  0  0  0
  -28.6548  -12.0096   21.3871 H   0  0  0  0  0  0
  -28.4762  -13.6937   21.8225 H   0  0  0  0  0  0
  -25.2782   -9.5657   22.4697 H   0  0  0  0  0  0
  -23.9984   -7.4633   22.7462 H   0  0  0  0  0  0
  -21.0812   -8.8769   19.8914 H   0  0  0  0  0  0
  -22.3710  -10.9648   19.6113 H   0  0  0  0  0  0
  -21.2005   -7.6132   23.9718 H   0  0  0  0  0  0
  -21.1500   -6.0497   25.9080 H   0  0  0  0  0  0
  -22.0571   -2.7587   23.2816 H   0  0  0  0  0  0
  -22.4047  -11.9944   22.4889 H   0  0  0  0  0  0
  -21.1070  -13.1251   22.2480 H   0  0  0  0  0  0
  -26.2803  -15.6445   20.1332 H   0  0  0  0  0  0
  -24.6467  -15.8289   20.5323 H   0  0  0  0  0  0
  -26.7115  -32.5539   23.1144 H   0  0  0  0  0  0
  -25.0090  -33.9779   25.0490 H   0  0  0  0  0  0
  -22.6924  -31.3055   21.4054 H   0  0  0  0  0  0
  -23.3729  -35.9687   23.3307 H   0  0  0  0  0  0
  -24.3587  -36.8938   22.2050 H   0  0  0  0  0  0
  -23.7279  -37.6555   23.6645 H   0  0  0  0  0  0
  -26.0309  -31.5911   20.5827 H   0  0  0  0  0  0
  -26.8217  -30.8980   21.9679 H   0  0  0  0  0  0
  -28.1032  -29.1105   21.1609 H   0  0  0  0  0  0
  -26.0994  -26.0103   18.9349 H   0  0  0  0  0  0
  -23.9960  -27.3110   18.9869 H   0  0  0  0  0  0
  -23.7144  -30.5881   19.3997 H   0  0  0  0  0  0
  -22.7385  -29.2293   19.8712 H   0  0  0  0  0  0
  -25.1282  -36.1966   25.0826 H   0  0  0  0  0  0
  -20.9944  -28.3235   24.1442 H   0  0  0  0  0  0
  -20.5659  -26.2273   23.3600 H   0  0  0  0  0  0
  -21.6633  -26.7449   22.1222 H   0  0  0  0  0  0
  -19.6913  -25.6302   21.1233 H   0  0  0  0  0  0
  -19.6705  -27.3208   20.6745 H   0  0  0  0  0  0
  -17.4193  -26.6668   21.4016 H   0  0  0  0  0  0
  -18.0329  -26.0075   22.9015 H   0  0  0  0  0  0
  -19.7917  -30.7253   24.2299 H   0  0  0  0  0  0
  -17.5003  -31.6271   24.5175 H   0  0  0  0  0  0
  -15.5342  -30.3008   23.7641 H   0  0  0  0  0  0
  -15.8647  -28.0853   22.7028 H   0  0  0  0  0  0
  -24.5933  -30.7026   25.7800 H   0  0  0  0  0  0
  -24.8959  -32.2836   26.4925 H   0  0  0  0  0  0
  -25.8143  -30.8840   27.0199 H   0  0  0  0  0  0
  -26.2825  -29.6789   24.1135 H   0  0  0  0  0  0
  -27.4137  -29.7271   25.4475 H   0  0  0  0  0  0
  -27.8635  -30.4364   23.9138 H   0  0  0  0  0  0
  -27.2677  -33.3571   26.2097 H   0  0  0  0  0  0
  -28.3861  -32.6871   25.0302 H   0  0  0  0  0  0
  -28.0731  -31.8373   26.5358 H   0  0  0  0  0  0
  -28.2587  -38.0123   24.7494 H   0  0  0  0  0  0
  -28.1090  -36.2649   24.6282 H   0  0  0  0  0  0
  -27.2301  -37.1466   25.8866 H   0  0  0  0  0  0
  -20.9282  -29.8778   21.6975 H   0  0  0  0  0  0
  -26.0178  -38.2867   24.1397 H   0  0  0  0  0  0
  -25.7197  -21.1383   20.1001 H   0  0  0  0  0  0
  -26.0492  -19.1919   18.5663 H   0  0  0  0  0  0
  -30.2166  -18.0256   18.0245 H   0  0  0  0  0  0
  -31.4921  -17.3393   18.9908 H   0  0  0  0  0  0
  -31.4014  -17.6312   21.4829 H   0  0  0  0  0  0
  -30.0541  -18.4702   22.1988 H   0  0  0  0  0  0
  -29.9553  -15.5555   18.2691 H   0  0  0  0  0  0
  -28.5790  -16.3588   18.9334 H   0  0  0  0  0  0
  -28.5018  -16.6164   21.5910 H   0  0  0  0  0  0
  -29.8597  -15.9666   22.4696 H   0  0  0  0  0  0
  -25.2316  -23.0802   21.5282 H   0  0  0  0  0  0
  -25.7941  -23.3234   19.8648 H   0  0  0  0  0  0
  -25.5902  -24.6909   20.9478 H   0  0  0  0  0  0
  -28.6998  -22.2659   22.3232 H   0  0  0  0  0  0
  -27.0434  -21.8691   22.6219 H   0  0  0  0  0  0
  -29.2539  -23.7581   20.4939 H   0  0  0  0  0  0
  -27.9587  -24.2841   19.4705 H   0  0  0  0  0  0
  -29.5343  -25.7823   21.4352 H   0  0  0  0  0  0
  -27.8659  -25.9399   21.8790 H   0  0  0  0  0  0
  -27.3215  -24.0402   22.2338 H   0  0  0  0  0  0
  1 25  1  0  0  0
  1 30  2  0  0  0
  1 86  1  0  0  0
  2  3  1  0  0  0
  2 25  1  0  0  0
  2 88  1  0  0  0
  2 89  1  0  0  0
  3  4  1  0  0  0
  3 90  1  0  0  0
  3 91  1  0  0  0
  4  5  1  0  0  0
  4 92  1  0  0  0
  4 93  1  0  0  0
  5  6  1  0  0  0
  5 26  1  0  0  0
  5 94  1  0  0  0
  6 25  1  0  0  0
  6 95  1  0  0  0
  6 96  1  0  0  0
  7  8  2  0  0  0
  7 26  1  0  0  0
  7 29  1  0  0  0
  8  9  1  0  0  0
  8 22  1  0  0  0
  9 10  1  0  0  0
  9 27  2  0  0  0
 10 11  2  0  0  0
 10 15  1  0  0  0
 11 12  1  0  0  0
 11 97  1  0  0  0
 12 13  2  0  0  0
 12 98  1  0  0  0
 13 14  1  0  0  0
 13 31  1  0  0  0
 14 15  2  0  0  0
 14 99  1  0  0  0
 15100  1  0  0  0
 16 17  2  0  0  0
 16 21  1  0  0  0
 16 31  1  0  0  0
 17 18  1  0  0  0
 17101  1  0  0  0
 18 19  2  0  0  0
 18102  1  0  0  0
 19 20  1  0  0  0
 19 24  1  0  0  0
 20 21  2  0  0  0
 20103  1  0  0  0
 21 23  1  0  0  0
 22 28  1  0  0  0
 22 32  2  0  0  0
 26 27  1  0  0  0
 28104  1  0  0  0
 28105  1  0  0  0
 29106  1  0  0  0
 29107  1  0  0  0
 33 34  1  0  0  0
 33 66  1  0  0  0
 33 70  2  0  0  0
 34 36  1  0  0  0
 34 59  1  0  0  0
 34108  1  0  0  0
 35 44  2  0  0  0
 35 45  1  0  0  0
 35 68  1  0  0  0
 36 56  1  0  0  0
 36109  1  0  0  0
 37 39  1  0  0  0
 37 47  1  0  0  0
 37 66  1  0  0  0
 37110  1  0  0  0
 38 43  2  0  0  0
 38 46  1  0  0  0
 38 47  1  0  0  0
 39 64  1  0  0  0
 39 67  2  0  0  0
 40 52  1  0  0  0
 40 53  2  0  0  0
 40 58  1  0  0  0
 41111  1  0  0  0
 41112  1  0  0  0
 41113  1  0  0  0
 41 48  1  0  0  0
 42 43  1  0  0  0
 42 66  1  0  0  0
 42114  1  0  0  0
 42115  1  0  0  0
 43 44  1  0  0  0
 44116  1  0  0  0
 45 46  2  0  0  0
 45117  1  0  0  0
 46118  1  0  0  0
 47119  1  0  0  0
 47120  1  0  0  0
 48 56  1  0  0  0
 48 65  1  0  0  0
 48121  1  0  0  0
 49 50  1  0  0  0
 49 53  1  0  0  0
 49 64  1  0  0  0
 49122  1  0  0  0
 50 51  1  0  0  0
 50123  1  0  0  0
 50124  1  0  0  0
 51 52  1  0  0  0
 51125  1  0  0  0
 51126  1  0  0  0
 52127  1  0  0  0
 52128  1  0  0  0
 53 54  1  0  0  0
 54 55  2  0  0  0
 54129  1  0  0  0
 55 57  1  0  0  0
 55130  1  0  0  0
 56 69  2  0  0  0
 57 58  2  0  0  0
 57131  1  0  0  0
 58132  1  0  0  0
 59 60  1  0  0  0
 59 61  1  0  0  0
 59 62  1  0  0  0
 60133  1  0  0  0
 60134  1  0  0  0
 60135  1  0  0  0
 61136  1  0  0  0
 61137  1  0  0  0
 61138  1  0  0  0
 62139  1  0  0  0
 62140  1  0  0  0
 62141  1  0  0  0
 63 65  1  0  0  0
 63142  1  0  0  0
 63143  1  0  0  0
 63144  1  0  0  0
 64145  1  0  0  0
 65146  1  0  0  0
 68 82  1  0  0  0
 71 72  2  0  0  0
 71 73  1  0  0  0
 71147  1  0  0  0
 72 83  1  0  0  0
 72148  1  0  0  0
 73 80  1  0  0  0
 73 84  2  0  0  0
 74 83  2  0  0  0
 74 84  1  0  0  0
 74 85  1  0  0  0
 75 77  1  0  0  0
 75 85  1  0  0  0
 75149  1  0  0  0
 75150  1  0  0  0
 76 78  1  0  0  0
 76 85  1  0  0  0
 76151  1  0  0  0
 76152  1  0  0  0
 77 86  1  0  0  0
 77153  1  0  0  0
 77154  1  0  0  0
 78 86  1  0  0  0
 78155  1  0  0  0
 78156  1  0  0  0
 79157  1  0  0  0
 79158  1  0  0  0
 79159  1  0  0  0
 79 87  1  0  0  0
 80 87  1  0  0  0
 80160  1  0  0  0
 80161  1  0  0  0
 81 82  1  0  0  0
 81 87  1  0  0  0
 81162  1  0  0  0
 81163  1  0  0  0
 82164  1  0  0  0
 82165  1  0  0  0
 87166  1  0  0  0
M  CHG  1  87   1
M  ISO  4   1 100  68 101  82 101  86 100
M  END
> <chiral flag>
0

> <version>
0

> <s_m_source_file>
/data/baiqing/PycharmProjects/Reinvent-master-3.2/result/LINK_invent/BTK/process_docking_weight1_custom_sum_contain_oxygen_bond_distance_aromatic_linkinvent_7_9_3/rearranged_h_0196.sdf

> <i_m_source_file_index>
57

> <r_mmod_Potential_Energy-OPLS-2005>
-485.636901855469

> <r_mmod_Stretch_Energy-OPLS-2005>
36.5504417419434

> <r_mmod_Bend_Energy-OPLS-2005>
106.900993347168

> <r_mmod_Torsional_Energy-OPLS-2005>
404.132293701172

> <r_mmod_Improper_Torsional_Energy-OPLS-2005>
21.3000202178955

> <r_mmod_Van_der_Waal_Energy-OPLS-2005>
165.584213256836

> <r_mmod_Electrostatic_Energy-OPLS-2005>
-762.670837402344

> <r_mmod_Solvation_Energy-OPLS-2005>
-475.113677978516

> <b_mmod_Minimization_Converged-OPLS-2005>
0

> <r_mmod_RMS_Derivative-OPLS-2005>
4.61716413497925

$$$$
58
                    3D
 Structure written by MMmdl.
167177  0  0  1  0            999 V2000
  -30.7086  -14.4956   20.4700 C   0  0  0  0  0  0
  -30.4230  -12.2884   19.4420 C   0  0  0  0  0  0
  -29.5014  -12.4267   18.2128 C   0  0  0  0  0  0
  -28.0165  -12.3366   18.6257 C   0  0  0  0  0  0
  -27.6563  -13.2046   19.8621 C   0  0  2  0  0  0
  -28.7046  -13.0440   20.9882 C   0  0  0  0  0  0
  -25.2583  -13.8160   20.5665 C   0  0  0  0  0  0
  -24.1831  -13.0455   20.9188 C   0  0  0  0  0  0
  -24.6368  -11.6920   20.8770 C   0  0  0  0  0  0
  -23.9050  -10.4299   21.0433 C   0  0  0  0  0  0
  -24.3616   -9.4211   21.9194 C   0  0  0  0  0  0
  -23.6312   -8.2245   22.0763 C   0  0  0  0  0  0
  -22.4270   -8.0275   21.3557 C   0  0  0  0  0  0
  -21.9897   -9.0250   20.4671 C   0  0  0  0  0  0
  -22.7224  -10.2129   20.3084 C   0  0  0  0  0  0
  -21.6835   -6.0745   22.5275 C   0  0  0  0  0  0
  -21.4005   -6.5647   23.8210 C   0  0  0  0  0  0
  -21.3671   -5.6801   24.9176 C   0  0  0  0  0  0
  -21.6043   -4.3056   24.7208 C   0  0  0  0  0  0
  -21.8818   -3.8165   23.4323 C   0  0  0  0  0  0
  -21.9183   -4.6979   22.3388 C   0  0  0  0  0  0
  -22.7852  -13.5278   21.1857 C   0  0  0  0  0  0
  -22.1660   -4.2189   21.0955 F   0  0  0  0  0  0
  -21.5639   -3.4541   25.7724 F   0  0  0  0  0  0
  -30.0340  -13.3149   20.4202 N   0  0  0  0  0  0
  -26.3005  -12.9313   20.3336 N   0  0  0  0  0  0
  -25.9294  -11.6489   20.5786 N   0  0  0  0  0  0
  -22.0458  -12.8298   22.0411 N   0  0  0  0  0  0
  -25.4337  -15.1878   20.4032 N   0  0  0  0  0  0
  -31.8946  -14.6038   20.1497 O   0  0  0  0  0  0
  -21.6644   -6.8877   21.4232 O   0  0  0  0  0  0
  -22.3561  -14.5593   20.6715 O   0  0  0  0  0  0
  -24.6129  -31.8705   23.2090 C   0  0  0  0  0  0
  -25.9010  -32.4844   23.8408 C   0  0  1  0  0  0
  -27.2470  -27.4655   20.0873 C   0  0  0  0  0  0
  -25.5866  -33.8643   24.2333 N   0  0  0  0  0  0
  -23.4005  -30.4925   21.5503 C   0  0  2  0  0  0
  -24.8478  -28.9616   20.1144 C   0  0  0  0  0  0
  -22.7413  -29.4665   22.4995 C   0  0  0  0  0  0
  -18.0269  -28.1384   22.8485 C   0  0  0  0  0  0
  -24.1472  -36.7341   23.2637 C   0  0  0  0  0  0
  -25.9253  -30.8479   21.3530 C   0  0  0  0  0  0
  -26.0058  -29.4832   20.7034 C   0  0  0  0  0  0
  -27.2093  -28.7463   20.6786 C   0  0  0  0  0  0
  -26.0720  -26.9565   19.4841 C   0  0  0  0  0  0
  -24.8757  -27.6983   19.4988 C   0  0  0  0  0  0
  -23.6062  -29.8223   20.1655 C   0  0  0  0  0  0
  -25.4091  -36.3135   24.0341 C   0  0  1  0  0  0
  -20.5859  -28.3659   23.1319 C   0  0  2  0  0  0
  -20.6756  -26.9398   22.5414 C   0  0  0  0  0  0
  -19.5738  -26.6387   21.5199 C   0  0  0  0  0  0
  -18.1916  -26.7936   22.1613 C   0  0  0  0  0  0
  -19.1526  -28.8838   23.2901 C   0  0  0  0  0  0
  -18.9458  -30.1438   23.8920 C   0  0  0  0  0  0
  -17.6467  -30.6589   24.0565 C   0  0  0  0  0  0
  -25.9019  -34.9496   23.5144 C   0  0  0  0  0  0
  -16.5352  -29.9099   23.6319 C   0  0  0  0  0  0
  -16.7267  -28.6511   23.0354 C   0  0  0  0  0  0
  -26.4432  -31.6629   25.0741 C   0  0  0  0  0  0
  -25.3698  -31.3755   26.1499 C   0  0  0  0  0  0
  -27.0232  -30.3080   24.6077 C   0  0  0  0  0  0
  -27.6030  -32.4328   25.7493 C   0  0  0  0  0  0
  -27.5584  -37.1815   24.8450 C   0  0  0  0  0  0
  -21.4146  -29.3030   22.3737 N   0  0  0  0  0  0
  -26.4283  -37.3812   23.9416 N   0  0  0  0  0  0
  -24.6648  -31.0849   22.0961 N   0  0  0  0  0  0
  -23.4204  -28.8214   23.3036 O   0  0  0  0  0  0
  -28.4256  -26.7515   20.1057 O   0  0  0  0  0  0
  -26.5607  -34.8940   22.4716 O   0  0  0  0  0  0
  -23.5322  -32.1427   23.7500 O   0  0  0  0  0  0
  -29.4478  -16.3088   18.3856 C   0  0  0  0  0  0
  -29.3748  -17.3154   17.4221 C   0  0  0  0  0  0
  -29.9009  -16.6417   19.6738 C   0  0  0  0  0  0
  -30.1167  -18.8255   18.9626 C   0  0  0  0  0  0
  -27.3634  -17.2376   15.7996 C   0  0  0  0  0  0
  -28.0277  -15.8930   15.6249 C   0  0  0  0  0  0
  -30.1415  -22.4385   18.6669 C   0  0  0  0  0  0
  -30.7315  -21.1286   18.1602 C   0  0  0  0  0  0
  -30.1995  -20.8469   20.4743 C   0  0  0  0  0  0
  -28.8481  -17.0983   16.0342 C   0  0  0  0  0  0
  -30.3827  -22.3545   20.1756 C   0  0  2  0  0  0
  -29.6490  -24.7037   20.7128 C   0  0  0  0  0  0
  -28.2884  -25.3648   20.4282 C   0  0  0  0  0  0
  -29.7254  -18.5712   17.7248 N   0  0  0  0  0  0
  -30.1978  -17.9391   19.9556 N   0  0  0  0  0  0
  -30.4732  -20.1478   19.2166 N   0  0  0  0  0  0
  -29.9428  -15.5925   20.6393 N   0  0  0  0  0  0
  -29.4997  -23.2438   20.9686 N   0  3  0  0  0  0
  -31.4702  -12.3655   19.1440 H   0  0  0  0  0  0
  -30.3098  -11.3007   19.8866 H   0  0  0  0  0  0
  -29.7286  -11.6424   17.4900 H   0  0  0  0  0  0
  -29.7051  -13.3556   17.6865 H   0  0  0  0  0  0
  -27.8104  -11.2863   18.8425 H   0  0  0  0  0  0
  -27.3737  -12.6015   17.7849 H   0  0  0  0  0  0
  -27.6767  -14.2416   19.5319 H   0  0  0  0  0  0
  -28.6768  -12.0321   21.3940 H   0  0  0  0  0  0
  -28.4789  -13.7057   21.8252 H   0  0  0  0  0  0
  -25.2773   -9.5716   22.4754 H   0  0  0  0  0  0
  -24.0055   -7.4620   22.7457 H   0  0  0  0  0  0
  -21.0829   -8.8755   19.8961 H   0  0  0  0  0  0
  -22.3692  -10.9660   19.6194 H   0  0  0  0  0  0
  -21.1998   -7.6157   23.9725 H   0  0  0  0  0  0
  -21.1506   -6.0530   25.9080 H   0  0  0  0  0  0
  -22.0592   -2.7630   23.2798 H   0  0  0  0  0  0
  -22.4059  -11.9995   22.4880 H   0  0  0  0  0  0
  -21.1055  -13.1327   22.2539 H   0  0  0  0  0  0
  -24.6707  -15.8466   20.5107 H   0  0  0  0  0  0
  -26.2818  -15.6209   20.0614 H   0  0  0  0  0  0
  -26.7103  -32.5565   23.1199 H   0  0  0  0  0  0
  -24.9967  -33.9809   25.0447 H   0  0  0  0  0  0
  -22.6862  -31.3067   21.4120 H   0  0  0  0  0  0
  -23.3730  -35.9675   23.3295 H   0  0  0  0  0  0
  -24.3567  -36.8971   22.2054 H   0  0  0  0  0  0
  -23.7225  -37.6544   23.6662 H   0  0  0  0  0  0
  -26.0286  -31.6081   20.5775 H   0  0  0  0  0  0
  -26.8170  -30.9098   21.9646 H   0  0  0  0  0  0
  -28.1080  -29.1558   21.1192 H   0  0  0  0  0  0
  -26.0682  -26.0011   18.9809 H   0  0  0  0  0  0
  -23.9894  -27.2982   19.0263 H   0  0  0  0  0  0
  -23.7078  -30.5950   19.4025 H   0  0  0  0  0  0
  -22.7324  -29.2359   19.8762 H   0  0  0  0  0  0
  -25.1255  -36.2006   25.0833 H   0  0  0  0  0  0
  -20.9952  -28.3219   24.1438 H   0  0  0  0  0  0
  -20.5624  -26.2272   23.3598 H   0  0  0  0  0  0
  -21.6636  -26.7418   22.1230 H   0  0  0  0  0  0
  -19.6894  -25.6289   21.1242 H   0  0  0  0  0  0
  -19.6694  -27.3189   20.6721 H   0  0  0  0  0  0
  -17.4181  -26.6675   21.4021 H   0  0  0  0  0  0
  -18.0330  -26.0082   22.9015 H   0  0  0  0  0  0
  -19.7931  -30.7243   24.2328 H   0  0  0  0  0  0
  -17.5020  -31.6273   24.5161 H   0  0  0  0  0  0
  -15.5358  -30.3022   23.7622 H   0  0  0  0  0  0
  -15.8657  -28.0829   22.7091 H   0  0  0  0  0  0
  -24.5822  -30.7156   25.7844 H   0  0  0  0  0  0
  -24.8933  -32.2922   26.4990 H   0  0  0  0  0  0
  -25.8031  -30.8885   27.0242 H   0  0  0  0  0  0
  -26.2764  -29.6903   24.1072 H   0  0  0  0  0  0
  -27.3961  -29.7260   25.4514 H   0  0  0  0  0  0
  -27.8620  -30.4427   23.9240 H   0  0  0  0  0  0
  -27.2669  -33.3606   26.2132 H   0  0  0  0  0  0
  -28.3798  -32.6923   25.0292 H   0  0  0  0  0  0
  -28.0739  -31.8413   26.5352 H   0  0  0  0  0  0
  -28.2590  -38.0125   24.7517 H   0  0  0  0  0  0
  -28.1097  -36.2664   24.6228 H   0  0  0  0  0  0
  -27.2326  -37.1421   25.8859 H   0  0  0  0  0  0
  -20.9311  -29.8770   21.6965 H   0  0  0  0  0  0
  -26.0181  -38.2892   24.1434 H   0  0  0  0  0  0
  -29.1617  -15.3060   18.1274 H   0  0  0  0  0  0
  -26.7375  -17.3800   16.6791 H   0  0  0  0  0  0
  -27.0281  -17.7410   14.8955 H   0  0  0  0  0  0
  -28.1142  -15.5403   14.6003 H   0  0  0  0  0  0
  -27.8158  -15.1232   16.3616 H   0  0  0  0  0  0
  -29.0742  -22.4621   18.4445 H   0  0  0  0  0  0
  -30.6004  -23.3088   18.1980 H   0  0  0  0  0  0
  -31.8113  -21.2136   18.0233 H   0  0  0  0  0  0
  -30.3024  -20.8692   17.1911 H   0  0  0  0  0  0
  -29.1811  -20.6210   20.7946 H   0  0  0  0  0  0
  -30.8787  -20.5117   21.2601 H   0  0  0  0  0  0
  -29.5187  -17.5247   15.2891 H   0  0  0  0  0  0
  -31.4196  -22.6285   20.3806 H   0  0  0  0  0  0
  -30.1120  -25.1652   21.5862 H   0  0  0  0  0  0
  -30.3178  -24.8970   19.8733 H   0  0  0  0  0  0
  -27.6457  -25.2657   21.3047 H   0  0  0  0  0  0
  -27.8122  -24.8364   19.6033 H   0  0  0  0  0  0
  -29.0549  -15.3993   21.0692 H   0  0  0  0  0  0
  -29.6731  -23.0749   21.9487 H   0  0  0  0  0  0
  -28.5428  -22.9756   20.7932 H   0  0  0  0  0  0
  1 25  1  0  0  0
  1 30  2  0  0  0
  1 87  1  0  0  0
  2  3  1  0  0  0
  2 25  1  0  0  0
  2 89  1  0  0  0
  2 90  1  0  0  0
  3  4  1  0  0  0
  3 91  1  0  0  0
  3 92  1  0  0  0
  4  5  1  0  0  0
  4 93  1  0  0  0
  4 94  1  0  0  0
  5  6  1  0  0  0
  5 26  1  0  0  0
  5 95  1  0  0  0
  6 25  1  0  0  0
  6 96  1  0  0  0
  6 97  1  0  0  0
  7  8  2  0  0  0
  7 26  1  0  0  0
  7 29  1  0  0  0
  8  9  1  0  0  0
  8 22  1  0  0  0
  9 10  1  0  0  0
  9 27  2  0  0  0
 10 11  2  0  0  0
 10 15  1  0  0  0
 11 12  1  0  0  0
 11 98  1  0  0  0
 12 13  2  0  0  0
 12 99  1  0  0  0
 13 14  1  0  0  0
 13 31  1  0  0  0
 14 15  2  0  0  0
 14100  1  0  0  0
 15101  1  0  0  0
 16 17  2  0  0  0
 16 21  1  0  0  0
 16 31  1  0  0  0
 17 18  1  0  0  0
 17102  1  0  0  0
 18 19  2  0  0  0
 18103  1  0  0  0
 19 20  1  0  0  0
 19 24  1  0  0  0
 20 21  2  0  0  0
 20104  1  0  0  0
 21 23  1  0  0  0
 22 28  1  0  0  0
 22 32  2  0  0  0
 26 27  1  0  0  0
 28105  1  0  0  0
 28106  1  0  0  0
 29107  1  0  0  0
 29108  1  0  0  0
 33 34  1  0  0  0
 33 66  1  0  0  0
 33 70  2  0  0  0
 34 36  1  0  0  0
 34 59  1  0  0  0
 34109  1  0  0  0
 35 44  2  0  0  0
 35 45  1  0  0  0
 35 68  1  0  0  0
 36 56  1  0  0  0
 36110  1  0  0  0
 37 39  1  0  0  0
 37 47  1  0  0  0
 37 66  1  0  0  0
 37111  1  0  0  0
 38 43  2  0  0  0
 38 46  1  0  0  0
 38 47  1  0  0  0
 39 64  1  0  0  0
 39 67  2  0  0  0
 40 52  1  0  0  0
 40 53  2  0  0  0
 40 58  1  0  0  0
 41112  1  0  0  0
 41113  1  0  0  0
 41114  1  0  0  0
 41 48  1  0  0  0
 42 43  1  0  0  0
 42 66  1  0  0  0
 42115  1  0  0  0
 42116  1  0  0  0
 43 44  1  0  0  0
 44117  1  0  0  0
 45 46  2  0  0  0
 45118  1  0  0  0
 46119  1  0  0  0
 47120  1  0  0  0
 47121  1  0  0  0
 48 56  1  0  0  0
 48 65  1  0  0  0
 48122  1  0  0  0
 49 50  1  0  0  0
 49 53  1  0  0  0
 49 64  1  0  0  0
 49123  1  0  0  0
 50 51  1  0  0  0
 50124  1  0  0  0
 50125  1  0  0  0
 51 52  1  0  0  0
 51126  1  0  0  0
 51127  1  0  0  0
 52128  1  0  0  0
 52129  1  0  0  0
 53 54  1  0  0  0
 54 55  2  0  0  0
 54130  1  0  0  0
 55 57  1  0  0  0
 55131  1  0  0  0
 56 69  2  0  0  0
 57 58  2  0  0  0
 57132  1  0  0  0
 58133  1  0  0  0
 59 60  1  0  0  0
 59 61  1  0  0  0
 59 62  1  0  0  0
 60134  1  0  0  0
 60135  1  0  0  0
 60136  1  0  0  0
 61137  1  0  0  0
 61138  1  0  0  0
 61139  1  0  0  0
 62140  1  0  0  0
 62141  1  0  0  0
 62142  1  0  0  0
 63 65  1  0  0  0
 63143  1  0  0  0
 63144  1  0  0  0
 63145  1  0  0  0
 64146  1  0  0  0
 65147  1  0  0  0
 68 83  1  0  0  0
 71 72  2  0  0  0
 71 73  1  0  0  0
 71148  1  0  0  0
 72 84  1  0  0  0
 72 80  1  0  0  0
 73 85  2  0  0  0
 73 87  1  0  0  0
 74 84  2  0  0  0
 74 85  1  0  0  0
 74 86  1  0  0  0
 75 76  1  0  0  0
 75 80  1  0  0  0
 75149  1  0  0  0
 75150  1  0  0  0
 76 80  1  0  0  0
 76151  1  0  0  0
 76152  1  0  0  0
 77 78  1  0  0  0
 77 81  1  0  0  0
 77153  1  0  0  0
 77154  1  0  0  0
 78 86  1  0  0  0
 78155  1  0  0  0
 78156  1  0  0  0
 79 81  1  0  0  0
 79 86  1  0  0  0
 79157  1  0  0  0
 79158  1  0  0  0
 80159  1  0  0  0
 81 88  1  0  0  0
 81160  1  0  0  0
 82 83  1  0  0  0
 82 88  1  0  0  0
 82161  1  0  0  0
 82162  1  0  0  0
 83163  1  0  0  0
 83164  1  0  0  0
 87165  1  0  0  0
 88166  1  0  0  0
 88167  1  0  0  0
M  CHG  1  88   1
M  ISO  4   1 100  68 101  83 101  87 100
M  END
> <chiral flag>
0

> <version>
0

> <s_m_source_file>
/data/baiqing/PycharmProjects/Reinvent-master-3.2/result/LINK_invent/BTK/process_docking_weight1_custom_sum_contain_oxygen_bond_distance_aromatic_linkinvent_7_9_3/rearranged_h_0196.sdf

> <i_m_source_file_index>
58

> <r_mmod_Potential_Energy-OPLS-2005>
-580.572448730469

> <r_mmod_Stretch_Energy-OPLS-2005>
35.1063385009766

> <r_mmod_Bend_Energy-OPLS-2005>
129.623611450195

> <r_mmod_Torsional_Energy-OPLS-2005>
354.504943847656

> <r_mmod_Improper_Torsional_Energy-OPLS-2005>
10.4701414108276

> <r_mmod_Van_der_Waal_Energy-OPLS-2005>
158.283569335938

> <r_mmod_Electrostatic_Energy-OPLS-2005>
-801.268920898438

> <r_mmod_Solvation_Energy-OPLS-2005>
-487.441070556641

> <b_mmod_Minimization_Converged-OPLS-2005>
0

> <r_mmod_RMS_Derivative-OPLS-2005>
3.7198805809021

$$$$
59
                    3D
 Structure written by MMmdl.
152161  0  0  1  0            999 V2000
  -30.6234  -14.9723   20.4046 C   0  0  0  0  0  0
  -30.4078  -12.6130   19.4986 C   0  0  0  0  0  0
  -29.5063  -12.5240   18.2510 C   0  0  0  0  0  0
  -28.0444  -12.3057   18.6775 C   0  0  0  0  0  0
  -27.6141  -13.2567   19.8246 C   0  0  2  0  0  0
  -28.6585  -13.3627   20.9563 C   0  0  0  0  0  0
  -25.2397  -13.8222   20.5766 C   0  0  0  0  0  0
  -24.1724  -13.0427   20.9235 C   0  0  0  0  0  0
  -24.6361  -11.6921   20.8755 C   0  0  0  0  0  0
  -23.9058  -10.4291   21.0420 C   0  0  0  0  0  0
  -24.3606   -9.4206   21.9198 C   0  0  0  0  0  0
  -23.6290   -8.2235   22.0764 C   0  0  0  0  0  0
  -22.4267   -8.0274   21.3553 C   0  0  0  0  0  0
  -21.9905   -9.0246   20.4661 C   0  0  0  0  0  0
  -22.7229  -10.2127   20.3072 C   0  0  0  0  0  0
  -21.6850   -6.0725   22.5272 C   0  0  0  0  0  0
  -21.4020   -6.5630   23.8206 C   0  0  0  0  0  0
  -21.3664   -5.6784   24.9166 C   0  0  0  0  0  0
  -21.6041   -4.3043   24.7220 C   0  0  0  0  0  0
  -21.8814   -3.8140   23.4344 C   0  0  0  0  0  0
  -21.9193   -4.6956   22.3396 C   0  0  0  0  0  0
  -22.7752  -13.5203   21.1881 C   0  0  0  0  0  0
  -22.1658   -4.2141   21.0976 F   0  0  0  0  0  0
  -21.5635   -3.4532   25.7740 F   0  0  0  0  0  0
  -29.9203  -13.7635   20.3258 N   0  0  0  0  0  0
  -26.2811  -12.9474   20.3246 N   0  0  0  0  0  0
  -25.9295  -11.6590   20.5745 N   0  0  0  0  0  0
  -22.0392  -12.8210   22.0436 N   0  0  0  0  0  0
  -25.4042  -15.1955   20.4239 N   0  0  0  0  0  0
  -31.8379  -14.8651   20.2035 O   0  0  0  0  0  0
  -21.6634   -6.8870   21.4239 O   0  0  0  0  0  0
  -22.3445  -14.5501   20.6712 O   0  0  0  0  0  0
  -24.6478  -31.8432   23.1891 C   0  0  0  0  0  0
  -25.9241  -32.4688   23.8288 C   0  0  1  0  0  0
  -27.2016  -27.1028   20.1441 C   0  0  0  0  0  0
  -25.5975  -33.8496   24.2190 N   0  0  0  0  0  0
  -23.4517  -30.4670   21.5350 C   0  0  2  0  0  0
  -24.8988  -28.8966   20.1069 C   0  0  0  0  0  0
  -22.7587  -29.4562   22.4834 C   0  0  0  0  0  0
  -18.0315  -28.1403   22.8477 C   0  0  0  0  0  0
  -24.1493  -36.7248   23.2640 C   0  0  0  0  0  0
  -26.0129  -30.7037   21.3976 C   0  0  0  0  0  0
  -26.0804  -29.3152   20.7327 C   0  0  0  0  0  0
  -27.2324  -28.4343   20.7367 C   0  0  0  0  0  0
  -25.9958  -26.8094   19.4636 C   0  0  0  0  0  0
  -24.8722  -27.6581   19.4561 C   0  0  0  0  0  0
  -23.6799  -29.8047   20.1522 C   0  0  0  0  0  0
  -25.4127  -36.3026   24.0309 C   0  0  1  0  0  0
  -20.5929  -28.3742   23.1213 C   0  0  2  0  0  0
  -20.6800  -26.9438   22.5395 C   0  0  0  0  0  0
  -19.5767  -26.6382   21.5210 C   0  0  0  0  0  0
  -18.1949  -26.7939   22.1623 C   0  0  0  0  0  0
  -19.1572  -28.8889   23.2834 C   0  0  0  0  0  0
  -18.9485  -30.1480   23.8866 C   0  0  0  0  0  0
  -17.6485  -30.6597   24.0560 C   0  0  0  0  0  0
  -25.9080  -34.9400   23.5055 C   0  0  0  0  0  0
  -16.5372  -29.9087   23.6337 C   0  0  0  0  0  0
  -16.7299  -28.6509   23.0361 C   0  0  0  0  0  0
  -26.4535  -31.6573   25.0746 C   0  0  0  0  0  0
  -25.3697  -31.3798   26.1430 C   0  0  0  0  0  0
  -27.0396  -30.2953   24.6382 C   0  0  0  0  0  0
  -27.6065  -32.4342   25.7532 C   0  0  0  0  0  0
  -27.5577  -37.1777   24.8455 C   0  0  0  0  0  0
  -21.4275  -29.3065   22.3576 N   0  0  0  0  0  0
  -26.4285  -37.3745   23.9405 N   0  0  0  0  0  0
  -24.7244  -31.0259   22.0951 N   0  0  0  0  0  0
  -23.4211  -28.8097   23.2991 O   0  0  0  0  0  0
  -28.2099  -26.0597   20.2298 O   0  0  0  0  0  0
  -26.5666  -34.8899   22.4633 O   0  0  0  0  0  0
  -23.5584  -32.1338   23.7079 O   0  0  0  0  0  0
  -30.2028  -22.0364   21.0336 C   0  0  0  0  0  0
  -29.2411  -21.1200   20.4844 C   0  0  0  0  0  0
  -30.5676  -18.8934   21.0439 C   0  0  0  0  0  0
  -28.4638  -18.5030   20.0042 C   0  0  0  0  0  0
  -31.0006  -17.5110   20.3528 C   0  0  0  0  0  0
  -28.7018  -16.9359   20.4871 C   0  0  0  0  0  0
  -27.7946  -24.6020   19.9488 C   0  0  0  0  0  0
  -29.8576  -23.3194   20.9266 N   0  0  0  0  0  0
  -28.2660  -21.9431   20.0288 N   0  0  0  0  0  0
  -28.6480  -23.3076   20.3002 N   0  0  0  0  0  0
  -29.3894  -19.5975   20.4710 N   0  0  0  0  0  0
  -30.0853  -16.3148   20.4663 N   0  0  0  0  0  0
  -31.4465  -12.7233   19.1851 H   0  0  0  0  0  0
  -30.3732  -11.6830   20.0683 H   0  0  0  0  0  0
  -29.8344  -11.7129   17.5983 H   0  0  0  0  0  0
  -29.5900  -13.4429   17.6693 H   0  0  0  0  0  0
  -27.9472  -11.2698   19.0013 H   0  0  0  0  0  0
  -27.3788  -12.4216   17.8204 H   0  0  0  0  0  0
  -27.5514  -14.2357   19.3537 H   0  0  0  0  0  0
  -28.7611  -12.4167   21.4918 H   0  0  0  0  0  0
  -28.3518  -14.1089   21.6910 H   0  0  0  0  0  0
  -25.2748   -9.5694   22.4769 H   0  0  0  0  0  0
  -23.9992   -7.4633   22.7485 H   0  0  0  0  0  0
  -21.0832   -8.8776   19.8976 H   0  0  0  0  0  0
  -22.3690  -10.9661   19.6182 H   0  0  0  0  0  0
  -21.2013   -7.6139   23.9705 H   0  0  0  0  0  0
  -21.1498   -6.0516   25.9067 H   0  0  0  0  0  0
  -22.0595   -2.7606   23.2841 H   0  0  0  0  0  0
  -22.3998  -11.9873   22.4840 H   0  0  0  0  0  0
  -21.1032  -13.1294   22.2653 H   0  0  0  0  0  0
  -24.6412  -15.8490   20.5612 H   0  0  0  0  0  0
  -26.2594  -15.6425   20.1243 H   0  0  0  0  0  0
  -26.7310  -32.5275   23.1014 H   0  0  0  0  0  0
  -25.0098  -33.9608   25.0320 H   0  0  0  0  0  0
  -22.7566  -31.2947   21.3839 H   0  0  0  0  0  0
  -23.3772  -35.9563   23.3278 H   0  0  0  0  0  0
  -24.3587  -36.8912   22.2062 H   0  0  0  0  0  0
  -23.7230  -37.6427   23.6699 H   0  0  0  0  0  0
  -26.1798  -31.4616   20.6306 H   0  0  0  0  0  0
  -26.8793  -30.7473   22.0463 H   0  0  0  0  0  0
  -28.1265  -28.7455   21.2579 H   0  0  0  0  0  0
  -25.8640  -25.8752   18.9423 H   0  0  0  0  0  0
  -23.9743  -27.3355   18.9462 H   0  0  0  0  0  0
  -23.8223  -30.5845   19.4032 H   0  0  0  0  0  0
  -22.7926  -29.2535   19.8363 H   0  0  0  0  0  0
  -25.1314  -36.1851   25.0803 H   0  0  0  0  0  0
  -21.0026  -28.3343   24.1331 H   0  0  0  0  0  0
  -20.5699  -26.2358   23.3623 H   0  0  0  0  0  0
  -21.6662  -26.7439   22.1188 H   0  0  0  0  0  0
  -19.6926  -25.6278   21.1271 H   0  0  0  0  0  0
  -19.6699  -27.3167   20.6716 H   0  0  0  0  0  0
  -17.4213  -26.6680   21.4030 H   0  0  0  0  0  0
  -18.0352  -26.0091   22.9033 H   0  0  0  0  0  0
  -19.7963  -30.7302   24.2222 H   0  0  0  0  0  0
  -17.5039  -31.6274   24.5166 H   0  0  0  0  0  0
  -15.5373  -30.2983   23.7673 H   0  0  0  0  0  0
  -15.8700  -28.0810   22.7095 H   0  0  0  0  0  0
  -24.5819  -30.7228   25.7726 H   0  0  0  0  0  0
  -24.8957  -32.3006   26.4844 H   0  0  0  0  0  0
  -25.7935  -30.8933   27.0223 H   0  0  0  0  0  0
  -26.3025  -29.6672   24.1365 H   0  0  0  0  0  0
  -27.3948  -29.7268   25.4989 H   0  0  0  0  0  0
  -27.8969  -30.4160   23.9754 H   0  0  0  0  0  0
  -27.2655  -33.3650   26.2077 H   0  0  0  0  0  0
  -28.3892  -32.6898   25.0375 H   0  0  0  0  0  0
  -28.0725  -31.8498   26.5475 H   0  0  0  0  0  0
  -28.2567  -38.0099   24.7526 H   0  0  0  0  0  0
  -28.1096  -36.2629   24.6247 H   0  0  0  0  0  0
  -27.2296  -37.1385   25.8855 H   0  0  0  0  0  0
  -20.9487  -29.8786   21.6763 H   0  0  0  0  0  0
  -26.0147  -38.2807   24.1431 H   0  0  0  0  0  0
  -31.1412  -21.7820   21.5063 H   0  0  0  0  0  0
  -31.4232  -19.5670   20.9917 H   0  0  0  0  0  0
  -30.3883  -18.7259   22.1087 H   0  0  0  0  0  0
  -27.4424  -18.7925   20.2605 H   0  0  0  0  0  0
  -28.4966  -18.5215   18.9139 H   0  0  0  0  0  0
  -31.9700  -17.2553   20.7839 H   0  0  0  0  0  0
  -31.1948  -17.6848   19.2924 H   0  0  0  0  0  0
  -28.0496  -16.3059   19.8877 H   0  0  0  0  0  0
  -28.3367  -16.8365   21.5110 H   0  0  0  0  0  0
  -26.8403  -24.4389   20.4495 H   0  0  0  0  0  0
  -27.6124  -24.5310   18.8767 H   0  0  0  0  0  0
  1 25  1  0  0  0
  1 30  2  0  0  0
  1 82  1  0  0  0
  2  3  1  0  0  0
  2 25  1  0  0  0
  2 83  1  0  0  0
  2 84  1  0  0  0
  3  4  1  0  0  0
  3 85  1  0  0  0
  3 86  1  0  0  0
  4  5  1  0  0  0
  4 87  1  0  0  0
  4 88  1  0  0  0
  5  6  1  0  0  0
  5 26  1  0  0  0
  5 89  1  0  0  0
  6 25  1  0  0  0
  6 90  1  0  0  0
  6 91  1  0  0  0
  7  8  2  0  0  0
  7 26  1  0  0  0
  7 29  1  0  0  0
  8  9  1  0  0  0
  8 22  1  0  0  0
  9 10  1  0  0  0
  9 27  2  0  0  0
 10 11  2  0  0  0
 10 15  1  0  0  0
 11 12  1  0  0  0
 11 92  1  0  0  0
 12 13  2  0  0  0
 12 93  1  0  0  0
 13 14  1  0  0  0
 13 31  1  0  0  0
 14 15  2  0  0  0
 14 94  1  0  0  0
 15 95  1  0  0  0
 16 17  2  0  0  0
 16 21  1  0  0  0
 16 31  1  0  0  0
 17 18  1  0  0  0
 17 96  1  0  0  0
 18 19  2  0  0  0
 18 97  1  0  0  0
 19 20  1  0  0  0
 19 24  1  0  0  0
 20 21  2  0  0  0
 20 98  1  0  0  0
 21 23  1  0  0  0
 22 28  1  0  0  0
 22 32  2  0  0  0
 26 27  1  0  0  0
 28 99  1  0  0  0
 28100  1  0  0  0
 29101  1  0  0  0
 29102  1  0  0  0
 33 34  1  0  0  0
 33 66  1  0  0  0
 33 70  2  0  0  0
 34 36  1  0  0  0
 34 59  1  0  0  0
 34103  1  0  0  0
 35 44  2  0  0  0
 35 45  1  0  0  0
 35 68  1  0  0  0
 36 56  1  0  0  0
 36104  1  0  0  0
 37 39  1  0  0  0
 37 47  1  0  0  0
 37 66  1  0  0  0
 37105  1  0  0  0
 38 43  2  0  0  0
 38 46  1  0  0  0
 38 47  1  0  0  0
 39 64  1  0  0  0
 39 67  2  0  0  0
 40 52  1  0  0  0
 40 53  2  0  0  0
 40 58  1  0  0  0
 41106  1  0  0  0
 41107  1  0  0  0
 41108  1  0  0  0
 41 48  1  0  0  0
 42 43  1  0  0  0
 42 66  1  0  0  0
 42109  1  0  0  0
 42110  1  0  0  0
 43 44  1  0  0  0
 44111  1  0  0  0
 45 46  2  0  0  0
 45112  1  0  0  0
 46113  1  0  0  0
 47114  1  0  0  0
 47115  1  0  0  0
 48 56  1  0  0  0
 48 65  1  0  0  0
 48116  1  0  0  0
 49 50  1  0  0  0
 49 53  1  0  0  0
 49 64  1  0  0  0
 49117  1  0  0  0
 50 51  1  0  0  0
 50118  1  0  0  0
 50119  1  0  0  0
 51 52  1  0  0  0
 51120  1  0  0  0
 51121  1  0  0  0
 52122  1  0  0  0
 52123  1  0  0  0
 53 54  1  0  0  0
 54 55  2  0  0  0
 54124  1  0  0  0
 55 57  1  0  0  0
 55125  1  0  0  0
 56 69  2  0  0  0
 57 58  2  0  0  0
 57126  1  0  0  0
 58127  1  0  0  0
 59 60  1  0  0  0
 59 61  1  0  0  0
 59 62  1  0  0  0
 60128  1  0  0  0
 60129  1  0  0  0
 60130  1  0  0  0
 61131  1  0  0  0
 61132  1  0  0  0
 61133  1  0  0  0
 62134  1  0  0  0
 62135  1  0  0  0
 62136  1  0  0  0
 63 65  1  0  0  0
 63137  1  0  0  0
 63138  1  0  0  0
 63139  1  0  0  0
 64140  1  0  0  0
 65141  1  0  0  0
 68 77  1  0  0  0
 71 72  1  0  0  0
 71 78  2  0  0  0
 71142  1  0  0  0
 72 79  2  0  0  0
 72 81  1  0  0  0
 73 75  1  0  0  0
 73 81  1  0  0  0
 73143  1  0  0  0
 73144  1  0  0  0
 74 76  1  0  0  0
 74 81  1  0  0  0
 74145  1  0  0  0
 74146  1  0  0  0
 75 82  1  0  0  0
 75147  1  0  0  0
 75148  1  0  0  0
 76 82  1  0  0  0
 76149  1  0  0  0
 76150  1  0  0  0
 77 80  1  0  0  0
 77151  1  0  0  0
 77152  1  0  0  0
 78 80  1  0  0  0
 79 80  1  0  0  0
M  ISO  4   1 100  68 101  77 101  82 100
M  END
> <chiral flag>
0

> <version>
0

> <s_m_source_file>
/data/baiqing/PycharmProjects/Reinvent-master-3.2/result/LINK_invent/BTK/process_docking_weight1_custom_sum_contain_oxygen_bond_distance_aromatic_linkinvent_7_9_3/rearranged_h_0196.sdf

> <i_m_source_file_index>
59

> <r_mmod_Potential_Energy-OPLS-2005>
687.239074707031

> <r_mmod_Stretch_Energy-OPLS-2005>
253.268768310547

> <r_mmod_Bend_Energy-OPLS-2005>
320.477996826172

> <r_mmod_Torsional_Energy-OPLS-2005>
328.670654296875

> <r_mmod_Improper_Torsional_Energy-OPLS-2005>
4.94780302047729

> <r_mmod_Van_der_Waal_Energy-OPLS-2005>
132.803863525391

> <r_mmod_Electrostatic_Energy-OPLS-2005>
-328.257934570312

> <r_mmod_Solvation_Energy-OPLS-2005>
-250.737716674805

> <b_mmod_Minimization_Converged-OPLS-2005>
0

> <r_mmod_RMS_Derivative-OPLS-2005>
1.88799905776978

$$$$
60
                    3D
 Structure written by MMmdl.
153161  0  0  1  0            999 V2000
  -30.5198  -15.0284   20.4410 C   0  0  0  0  0  0
  -30.4351  -12.6670   19.5183 C   0  0  0  0  0  0
  -29.5223  -12.5704   18.2751 C   0  0  0  0  0  0
  -28.0549  -12.3267   18.6766 C   0  0  0  0  0  0
  -27.6140  -13.2407   19.8416 C   0  0  2  0  0  0
  -28.6526  -13.3095   20.9876 C   0  0  0  0  0  0
  -25.2259  -13.8160   20.5677 C   0  0  0  0  0  0
  -24.1631  -13.0375   20.9286 C   0  0  0  0  0  0
  -24.6320  -11.6922   20.8865 C   0  0  0  0  0  0
  -23.9038  -10.4295   21.0440 C   0  0  0  0  0  0
  -24.3661   -9.4212   21.9189 C   0  0  0  0  0  0
  -23.6365   -8.2232   22.0717 C   0  0  0  0  0  0
  -22.4332   -8.0261   21.3497 C   0  0  0  0  0  0
  -21.9964   -9.0228   20.4606 C   0  0  0  0  0  0
  -22.7265  -10.2122   20.3042 C   0  0  0  0  0  0
  -21.6858   -6.0773   22.5307 C   0  0  0  0  0  0
  -21.4053   -6.5660   23.8264 C   0  0  0  0  0  0
  -21.3689   -5.6779   24.9214 C   0  0  0  0  0  0
  -21.6044   -4.3045   24.7225 C   0  0  0  0  0  0
  -21.8795   -3.8160   23.4328 C   0  0  0  0  0  0
  -21.9191   -4.6999   22.3407 C   0  0  0  0  0  0
  -22.7645  -13.5147   21.1916 C   0  0  0  0  0  0
  -22.1626   -4.2189   21.0982 F   0  0  0  0  0  0
  -21.5618   -3.4526   25.7720 F   0  0  0  0  0  0
  -29.9082  -13.7683   20.3812 N   0  0  0  0  0  0
  -26.2735  -12.9428   20.3285 N   0  0  0  0  0  0
  -25.9256  -11.6573   20.5879 N   0  0  0  0  0  0
  -22.0329  -12.8220   22.0565 N   0  0  0  0  0  0
  -25.3590  -15.1870   20.4038 N   0  0  0  0  0  0
  -31.7353  -15.0287   20.2059 O   0  0  0  0  0  0
  -21.6620   -6.8909   21.4270 O   0  0  0  0  0  0
  -22.3369  -14.5417   20.6681 O   0  0  0  0  0  0
  -24.6417  -31.8430   23.1874 C   0  0  0  0  0  0
  -25.9200  -32.4677   23.8275 C   0  0  1  0  0  0
  -27.2344  -27.1492   20.1478 C   0  0  0  0  0  0
  -25.5967  -33.8482   24.2182 N   0  0  0  0  0  0
  -23.4465  -30.4601   21.5324 C   0  0  2  0  0  0
  -24.8958  -28.8784   20.1226 C   0  0  0  0  0  0
  -22.7555  -29.4533   22.4839 C   0  0  0  0  0  0
  -18.0316  -28.1380   22.8450 C   0  0  0  0  0  0
  -24.1457  -36.7212   23.2638 C   0  0  0  0  0  0
  -26.0035  -30.7192   21.3866 C   0  0  0  0  0  0
  -26.0770  -29.3302   20.7261 C   0  0  0  0  0  0
  -27.2494  -28.4867   20.7145 C   0  0  0  0  0  0
  -26.0242  -26.7893   19.5201 C   0  0  0  0  0  0
  -24.8792  -27.6137   19.5106 C   0  0  0  0  0  0
  -23.6756  -29.7817   20.1550 C   0  0  0  0  0  0
  -25.4085  -36.3017   24.0317 C   0  0  1  0  0  0
  -20.5928  -28.3717   23.1231 C   0  0  2  0  0  0
  -20.6796  -26.9425   22.5409 C   0  0  0  0  0  0
  -19.5778  -26.6354   21.5215 C   0  0  0  0  0  0
  -18.1946  -26.7908   22.1608 C   0  0  0  0  0  0
  -19.1570  -28.8864   23.2820 C   0  0  0  0  0  0
  -18.9480  -30.1447   23.8859 C   0  0  0  0  0  0
  -17.6487  -30.6593   24.0542 C   0  0  0  0  0  0
  -25.9056  -34.9414   23.5046 C   0  0  0  0  0  0
  -16.5371  -29.9085   23.6355 C   0  0  0  0  0  0
  -16.7306  -28.6505   23.0370 C   0  0  0  0  0  0
  -26.4551  -31.6559   25.0725 C   0  0  0  0  0  0
  -25.3758  -31.3821   26.1451 C   0  0  0  0  0  0
  -27.0432  -30.2950   24.6337 C   0  0  0  0  0  0
  -27.6029  -32.4387   25.7515 C   0  0  0  0  0  0
  -27.5543  -37.1760   24.8474 C   0  0  0  0  0  0
  -21.4256  -29.3056   22.3613 N   0  0  0  0  0  0
  -26.4254  -37.3732   23.9423 N   0  0  0  0  0  0
  -24.7166  -31.0272   22.0899 N   0  0  0  0  0  0
  -23.4184  -28.8077   23.2991 O   0  0  0  0  0  0
  -28.3054  -26.1872   20.1397 O   0  0  0  0  0  0
  -26.5623  -34.8944   22.4634 O   0  0  0  0  0  0
  -23.5559  -32.1305   23.7106 O   0  0  0  0  0  0
  -28.0385  -18.1113   20.4317 C   0  0  0  0  0  0
  -28.4163  -16.6216   20.8173 C   0  0  0  0  0  0
  -30.3357  -17.7361   20.1936 C   0  0  0  0  0  0
  -29.3057  -18.9793   20.5462 C   0  0  1  0  0  0
  -29.3359  -20.5187   19.8143 C   0  0  0  0  0  0
  -28.8033  -23.3099   19.8043 C   0  0  0  0  0  0
  -28.1025  -24.6811   20.5096 C   0  0  0  0  0  0
  -29.8202  -16.3004   20.4804 N   0  0  0  0  0  0
  -28.7111  -21.8434   20.4435 N   0  3  0  0  0  0
  -31.4557  -12.8556   19.1822 H   0  0  0  0  0  0
  -30.4796  -11.7229   20.0656 H   0  0  0  0  0  0
  -29.8798  -11.7724   17.6199 H   0  0  0  0  0  0
  -29.5941  -13.4980   17.7028 H   0  0  0  0  0  0
  -27.9486  -11.2826   18.9657 H   0  0  0  0  0  0
  -27.3943  -12.4873   17.8186 H   0  0  0  0  0  0
  -27.5549  -14.2077   19.3542 H   0  0  0  0  0  0
  -28.7747  -12.3334   21.4673 H   0  0  0  0  0  0
  -28.3271  -13.9912   21.7758 H   0  0  0  0  0  0
  -25.2814   -9.5697   22.4786 H   0  0  0  0  0  0
  -24.0071   -7.4616   22.7433 H   0  0  0  0  0  0
  -21.0876   -8.8751   19.8937 H   0  0  0  0  0  0
  -22.3718  -10.9655   19.6133 H   0  0  0  0  0  0
  -21.2078   -7.6168   23.9818 H   0  0  0  0  0  0
  -21.1517   -6.0484   25.9120 H   0  0  0  0  0  0
  -22.0558   -2.7629   23.2806 H   0  0  0  0  0  0
  -22.3982  -11.9970   22.5075 H   0  0  0  0  0  0
  -21.0916  -13.1212   22.2704 H   0  0  0  0  0  0
  -24.5815  -15.8253   20.5335 H   0  0  0  0  0  0
  -26.1858  -15.6466   20.0518 H   0  0  0  0  0  0
  -26.7236  -32.5256   23.0982 H   0  0  0  0  0  0
  -25.0214  -33.9575   25.0396 H   0  0  0  0  0  0
  -22.7499  -31.2839   21.3710 H   0  0  0  0  0  0
  -23.3754  -35.9513   23.3317 H   0  0  0  0  0  0
  -24.3561  -36.8824   22.2057 H   0  0  0  0  0  0
  -23.7184  -37.6391   23.6684 H   0  0  0  0  0  0
  -26.1696  -31.4787   20.6214 H   0  0  0  0  0  0
  -26.8660  -30.7538   22.0419 H   0  0  0  0  0  0
  -28.1517  -28.8395   21.1935 H   0  0  0  0  0  0
  -25.9549  -25.8248   19.0333 H   0  0  0  0  0  0
  -23.9769  -27.2509   19.0327 H   0  0  0  0  0  0
  -23.8257  -30.5533   19.4001 H   0  0  0  0  0  0
  -22.7909  -29.2286   19.8328 H   0  0  0  0  0  0
  -25.1288  -36.1811   25.0807 H   0  0  0  0  0  0
  -20.9974  -28.3296   24.1364 H   0  0  0  0  0  0
  -20.5664  -26.2332   23.3606 H   0  0  0  0  0  0
  -21.6652  -26.7419   22.1203 H   0  0  0  0  0  0
  -19.6932  -25.6250   21.1265 H   0  0  0  0  0  0
  -19.6699  -27.3141   20.6728 H   0  0  0  0  0  0
  -17.4191  -26.6621   21.4027 H   0  0  0  0  0  0
  -18.0377  -26.0057   22.9038 H   0  0  0  0  0  0
  -19.7971  -30.7268   24.2152 H   0  0  0  0  0  0
  -17.5082  -31.6270   24.5158 H   0  0  0  0  0  0
  -15.5378  -30.3004   23.7705 H   0  0  0  0  0  0
  -15.8689  -28.0844   22.7099 H   0  0  0  0  0  0
  -24.5801  -30.7308   25.7841 H   0  0  0  0  0  0
  -24.9128  -32.3057   26.4943 H   0  0  0  0  0  0
  -25.8046  -30.8932   27.0202 H   0  0  0  0  0  0
  -26.3094  -29.6640   24.1304 H   0  0  0  0  0  0
  -27.4011  -29.7291   25.4952 H   0  0  0  0  0  0
  -27.9034  -30.4218   23.9746 H   0  0  0  0  0  0
  -27.2524  -33.3665   26.2077 H   0  0  0  0  0  0
  -28.3845  -32.6979   25.0359 H   0  0  0  0  0  0
  -28.0702  -31.8539   26.5442 H   0  0  0  0  0  0
  -28.2561  -38.0062   24.7524 H   0  0  0  0  0  0
  -28.1027  -36.2583   24.6287 H   0  0  0  0  0  0
  -27.2279  -37.1401   25.8889 H   0  0  0  0  0  0
  -20.9439  -29.8799   21.6833 H   0  0  0  0  0  0
  -26.0101  -38.2782   24.1495 H   0  0  0  0  0  0
  -27.2193  -18.4972   21.0480 H   0  0  0  0  0  0
  -27.6806  -18.1363   19.3973 H   0  0  0  0  0  0
  -27.7477  -15.9693   20.2891 H   0  0  0  0  0  0
  -28.2669  -16.4596   21.8863 H   0  0  0  0  0  0
  -31.2696  -17.8918   20.7321 H   0  0  0  0  0  0
  -30.5854  -17.7603   19.1305 H   0  0  0  0  0  0
  -29.4318  -19.1795   21.6128 H   0  0  0  0  0  0
  -28.9347  -20.4206   18.8012 H   0  0  0  0  0  0
  -30.3929  -20.7302   19.6537 H   0  0  0  0  0  0
  -29.8643  -23.5204   19.6666 H   0  0  0  0  0  0
  -28.4058  -23.2580   18.7889 H   0  0  0  0  0  0
  -28.4120  -24.6511   21.5562 H   0  0  0  0  0  0
  -27.0266  -24.4983   20.5595 H   0  0  0  0  0  0
  -29.1088  -21.9156   21.3661 H   0  0  0  0  0  0
  -27.7317  -21.6536   20.5787 H   0  0  0  0  0  0
  1 25  1  0  0  0
  1 30  2  0  0  0
  1 78  1  0  0  0
  2  3  1  0  0  0
  2 25  1  0  0  0
  2 80  1  0  0  0
  2 81  1  0  0  0
  3  4  1  0  0  0
  3 82  1  0  0  0
  3 83  1  0  0  0
  4  5  1  0  0  0
  4 84  1  0  0  0
  4 85  1  0  0  0
  5  6  1  0  0  0
  5 26  1  0  0  0
  5 86  1  0  0  0
  6 25  1  0  0  0
  6 87  1  0  0  0
  6 88  1  0  0  0
  7  8  2  0  0  0
  7 26  1  0  0  0
  7 29  1  0  0  0
  8  9  1  0  0  0
  8 22  1  0  0  0
  9 10  1  0  0  0
  9 27  2  0  0  0
 10 11  2  0  0  0
 10 15  1  0  0  0
 11 12  1  0  0  0
 11 89  1  0  0  0
 12 13  2  0  0  0
 12 90  1  0  0  0
 13 14  1  0  0  0
 13 31  1  0  0  0
 14 15  2  0  0  0
 14 91  1  0  0  0
 15 92  1  0  0  0
 16 17  2  0  0  0
 16 21  1  0  0  0
 16 31  1  0  0  0
 17 18  1  0  0  0
 17 93  1  0  0  0
 18 19  2  0  0  0
 18 94  1  0  0  0
 19 20  1  0  0  0
 19 24  1  0  0  0
 20 21  2  0  0  0
 20 95  1  0  0  0
 21 23  1  0  0  0
 22 28  1  0  0  0
 22 32  2  0  0  0
 26 27  1  0  0  0
 28 96  1  0  0  0
 28 97  1  0  0  0
 29 98  1  0  0  0
 29 99  1  0  0  0
 33 34  1  0  0  0
 33 66  1  0  0  0
 33 70  2  0  0  0
 34 36  1  0  0  0
 34 59  1  0  0  0
 34100  1  0  0  0
 35 44  2  0  0  0
 35 45  1  0  0  0
 35 68  1  0  0  0
 36 56  1  0  0  0
 36101  1  0  0  0
 37 39  1  0  0  0
 37 47  1  0  0  0
 37 66  1  0  0  0
 37102  1  0  0  0
 38 43  2  0  0  0
 38 46  1  0  0  0
 38 47  1  0  0  0
 39 64  1  0  0  0
 39 67  2  0  0  0
 40 52  1  0  0  0
 40 53  2  0  0  0
 40 58  1  0  0  0
 41103  1  0  0  0
 41104  1  0  0  0
 41105  1  0  0  0
 41 48  1  0  0  0
 42 43  1  0  0  0
 42 66  1  0  0  0
 42106  1  0  0  0
 42107  1  0  0  0
 43 44  1  0  0  0
 44108  1  0  0  0
 45 46  2  0  0  0
 45109  1  0  0  0
 46110  1  0  0  0
 47111  1  0  0  0
 47112  1  0  0  0
 48 56  1  0  0  0
 48 65  1  0  0  0
 48113  1  0  0  0
 49 50  1  0  0  0
 49 53  1  0  0  0
 49 64  1  0  0  0
 49114  1  0  0  0
 50 51  1  0  0  0
 50115  1  0  0  0
 50116  1  0  0  0
 51 52  1  0  0  0
 51117  1  0  0  0
 51118  1  0  0  0
 52119  1  0  0  0
 52120  1  0  0  0
 53 54  1  0  0  0
 54 55  2  0  0  0
 54121  1  0  0  0
 55 57  1  0  0  0
 55122  1  0  0  0
 56 69  2  0  0  0
 57 58  2  0  0  0
 57123  1  0  0  0
 58124  1  0  0  0
 59 60  1  0  0  0
 59 61  1  0  0  0
 59 62  1  0  0  0
 60125  1  0  0  0
 60126  1  0  0  0
 60127  1  0  0  0
 61128  1  0  0  0
 61129  1  0  0  0
 61130  1  0  0  0
 62131  1  0  0  0
 62132  1  0  0  0
 62133  1  0  0  0
 63 65  1  0  0  0
 63134  1  0  0  0
 63135  1  0  0  0
 63136  1  0  0  0
 64137  1  0  0  0
 65138  1  0  0  0
 68 77  1  0  0  0
 71 72  1  0  0  0
 71 74  1  0  0  0
 71139  1  0  0  0
 71140  1  0  0  0
 72 78  1  0  0  0
 72141  1  0  0  0
 72142  1  0  0  0
 73 74  1  0  0  0
 73 78  1  0  0  0
 73143  1  0  0  0
 73144  1  0  0  0
 74 75  1  0  0  0
 74145  1  0  0  0
 75 79  1  0  0  0
 75146  1  0  0  0
 75147  1  0  0  0
 76 77  1  0  0  0
 76 79  1  0  0  0
 76148  1  0  0  0
 76149  1  0  0  0
 77150  1  0  0  0
 77151  1  0  0  0
 79152  1  0  0  0
 79153  1  0  0  0
M  CHG  1  79   1
M  ISO  4   1 100  68 101  77 101  78 100
M  END
> <chiral flag>
0

> <version>
0

> <s_m_source_file>
/data/baiqing/PycharmProjects/Reinvent-master-3.2/result/LINK_invent/BTK/process_docking_weight1_custom_sum_contain_oxygen_bond_distance_aromatic_linkinvent_7_9_3/rearranged_h_0196.sdf

> <i_m_source_file_index>
60

> <r_mmod_Potential_Energy-OPLS-2005>
631.558288574219

> <r_mmod_Stretch_Energy-OPLS-2005>
274.893585205078

> <r_mmod_Bend_Energy-OPLS-2005>
310.617279052734

> <r_mmod_Torsional_Energy-OPLS-2005>
324.781951904297

> <r_mmod_Improper_Torsional_Energy-OPLS-2005>
6.23082971572876

> <r_mmod_Van_der_Waal_Energy-OPLS-2005>
113.84587097168

> <r_mmod_Electrostatic_Energy-OPLS-2005>
-153.544952392578

> <r_mmod_Solvation_Energy-OPLS-2005>
-460.850799560547

> <b_mmod_Minimization_Converged-OPLS-2005>
0

> <r_mmod_RMS_Derivative-OPLS-2005>
8.09169578552246

$$$$
61
                    3D
 Structure written by MMmdl.
154163  0  0  1  0            999 V2000
  -28.5614  -16.6334   20.5088 C   0  0  0  0  0  0
  -29.9284  -14.0782   19.6674 C   0  0  0  0  0  0
  -29.4595  -13.0508   18.5315 C   0  0  0  0  0  0
  -28.1780  -12.3173   18.9268 C   0  0  0  0  0  0
  -27.4064  -13.2938   19.8128 C   0  0  2  0  0  0
  -28.1588  -13.8926   21.0043 C   0  0  0  0  0  0
  -25.1333  -13.8030   20.5583 C   0  0  0  0  0  0
  -24.0984  -13.0193   20.9404 C   0  0  0  0  0  0
  -24.5777  -11.6719   20.8872 C   0  0  0  0  0  0
  -23.8695  -10.4121   21.0527 C   0  0  0  0  0  0
  -24.3412   -9.4093   21.9251 C   0  0  0  0  0  0
  -23.6179   -8.2091   22.0764 C   0  0  0  0  0  0
  -22.4169   -8.0125   21.3539 C   0  0  0  0  0  0
  -21.9727   -9.0052   20.4641 C   0  0  0  0  0  0
  -22.6954  -10.1962   20.3096 C   0  0  0  0  0  0
  -21.6801   -6.0649   22.5290 C   0  0  0  0  0  0
  -21.3973   -6.5590   23.8210 C   0  0  0  0  0  0
  -21.3648   -5.6764   24.9187 C   0  0  0  0  0  0
  -21.6047   -4.3026   24.7252 C   0  0  0  0  0  0
  -21.8826   -3.8097   23.4381 C   0  0  0  0  0  0
  -21.9178   -4.6893   22.3426 C   0  0  0  0  0  0
  -22.7138  -13.5028   21.2107 C   0  0  0  0  0  0
  -22.1659   -4.2086   21.1003 F   0  0  0  0  0  0
  -21.5639   -3.4523   25.7772 F   0  0  0  0  0  0
  -28.8092  -15.0516   20.3804 N   0  0  0  0  0  0
  -26.1403  -12.9125   20.2739 N   0  0  0  0  0  0
  -25.8557  -11.6293   20.5503 N   0  0  0  0  0  0
  -21.9862  -12.8047   22.0704 N   0  0  0  0  0  0
  -25.2989  -15.1810   20.3894 N   0  0  0  0  0  0
  -29.8476  -16.7583   20.3123 O   0  0  0  0  0  0
  -21.6563   -6.8732   21.4230 O   0  0  0  0  0  0
  -22.2950  -14.5386   20.6941 O   0  0  0  0  0  0
  -24.7526  -31.9295   22.6886 C   0  0  0  0  0  0
  -25.9520  -32.4765   23.6184 C   0  0  1  0  0  0
  -26.5481  -28.1573   21.4866 C   0  0  0  0  0  0
  -25.5738  -33.8297   24.0712 N   0  0  0  0  0  0
  -24.0523  -29.5799   21.0434 C   0  0  2  0  0  0
  -25.3186  -29.0659   19.4530 C   0  0  0  0  0  0
  -23.8042  -27.7018   21.9627 C   0  0  0  0  0  0
  -18.2151  -27.4856   22.8529 C   0  0  0  0  0  0
  -24.1433  -36.7277   23.2713 C   0  0  0  0  0  0
  -26.0704  -31.1232   20.7914 C   0  0  0  0  0  0
  -26.3687  -29.7953   20.1283 C   0  0  0  0  0  0
  -27.3341  -29.0497   20.8013 C   0  0  0  0  0  0
  -26.1477  -27.1654   20.4659 C   0  0  0  0  0  0
  -25.3880  -27.6685   19.3965 C   0  0  0  0  0  0
  -23.9587  -29.5771   19.5763 C   0  0  0  0  0  0
  -25.4151  -36.2951   24.0183 C   0  0  1  0  0  0
  -21.3244  -27.4490   23.8678 C   0  0  2  0  0  0
  -21.9481  -26.0521   22.9653 C   0  0  0  0  0  0
  -19.9373  -25.3214   20.5704 C   0  0  0  0  0  0
  -18.1812  -26.2191   21.4154 C   0  0  0  0  0  0
  -19.4790  -28.1064   23.6895 C   0  0  0  0  0  0
  -19.2015  -29.4727   24.1479 C   0  0  0  0  0  0
  -17.9602  -30.1756   24.0729 C   0  0  0  0  0  0
  -25.9196  -34.9561   23.4441 C   0  0  0  0  0  0
  -16.8379  -29.5424   23.5267 C   0  0  0  0  0  0
  -16.9889  -28.2608   22.9321 C   0  0  0  0  0  0
  -26.4269  -31.6928   24.9550 C   0  0  0  0  0  0
  -25.3618  -31.4858   26.0678 C   0  0  0  0  0  0
  -27.0603  -30.3249   24.6501 C   0  0  0  0  0  0
  -27.5704  -32.4945   25.6432 C   0  0  0  0  0  0
  -27.5543  -37.1742   24.8460 C   0  0  0  0  0  0
  -22.8081  -27.4257   23.1313 N   0  0  0  0  0  0
  -26.4212  -37.3783   23.9477 N   0  0  0  0  0  0
  -24.8699  -30.9844   21.5777 N   0  0  0  0  0  0
  -24.5024  -27.0728   22.7150 O   0  0  0  0  0  0
  -25.7638  -28.9538   22.6274 O   0  0  0  0  0  0
  -26.6106  -34.9469   22.4246 O   0  0  0  0  0  0
  -23.6347  -32.2931   23.1206 O   0  0  0  0  0  0
  -19.9395  -25.3002   22.7433 C   0  0  0  0  0  0
  -20.3864  -27.1000   21.7159 C   0  0  0  0  0  0
  -21.5927  -27.2164   20.9301 C   0  0  0  0  0  0
  -22.4303  -23.9927   21.3043 C   0  0  0  0  0  0
  -25.4474  -21.6383   21.2565 C   0  0  0  0  0  0
  -24.0627  -20.5644   20.8946 C   0  0  0  0  0  0
  -25.8811  -19.7989   20.6308 C   0  0  0  0  0  0
  -21.8778  -29.1434   21.9244 C   0  0  0  0  0  0
  -23.8300  -29.5701   23.3625 C   0  0  0  0  0  0
  -21.0619  -24.0072   22.2433 N   0  0  0  0  0  0
  -22.4372  -25.6152   20.6977 N   0  0  0  0  0  0
  -23.8142  -22.3157   21.0419 N   0  0  0  0  0  0
  -27.1550  -17.9018   20.7017 N   0  0  0  0  0  0
  -19.5599  -28.4174   20.7306 Cl  0  0  0  0  0  0
  -30.6654  -14.7258   19.1921 H   0  0  0  0  0  0
  -30.5251  -13.5552   20.4181 H   0  0  0  0  0  0
  -30.2549  -12.3470   18.2831 H   0  0  0  0  0  0
  -29.2628  -13.6192   17.6214 H   0  0  0  0  0  0
  -28.4228  -11.4180   19.4931 H   0  0  0  0  0  0
  -27.6024  -12.0099   18.0528 H   0  0  0  0  0  0
  -27.1675  -14.0825   19.0938 H   0  0  0  0  0  0
  -28.7854  -13.1725   21.5353 H   0  0  0  0  0  0
  -27.4921  -14.2926   21.7700 H   0  0  0  0  0  0
  -25.2545   -9.5646   22.4824 H   0  0  0  0  0  0
  -23.9926   -7.4477   22.7455 H   0  0  0  0  0  0
  -21.0672   -8.8509   19.8940 H   0  0  0  0  0  0
  -22.3382  -10.9509   19.6229 H   0  0  0  0  0  0
  -21.1947   -7.6098   23.9692 H   0  0  0  0  0  0
  -21.1475   -6.0505   25.9086 H   0  0  0  0  0  0
  -22.0623   -2.7560   23.2898 H   0  0  0  0  0  0
  -22.3505  -11.9694   22.5043 H   0  0  0  0  0  0
  -21.0512  -13.1093   22.3008 H   0  0  0  0  0  0
  -24.4325  -15.7097   20.3843 H   0  0  0  0  0  0
  -25.9010  -15.4505   19.6227 H   0  0  0  0  0  0
  -26.8480  -32.5792   23.0134 H   0  0  0  0  0  0
  -24.9394  -33.8888   24.8533 H   0  0  0  0  0  0
  -23.3782  -30.4248   21.0875 H   0  0  0  0  0  0
  -23.3761  -35.9531   23.3209 H   0  0  0  0  0  0
  -24.3427  -36.9226   22.2164 H   0  0  0  0  0  0
  -23.7143  -37.6324   23.7038 H   0  0  0  0  0  0
  -25.8908  -31.8694   20.0163 H   0  0  0  0  0  0
  -26.9478  -31.4662   21.3295 H   0  0  0  0  0  0
  -27.9973  -29.6375   21.4191 H   0  0  0  0  0  0
  -25.9532  -26.1394   20.7479 H   0  0  0  0  0  0
  -24.6681  -27.0377   18.8923 H   0  0  0  0  0  0
  -23.8475  -30.5560   19.1047 H   0  0  0  0  0  0
  -23.2013  -28.8936   19.1904 H   0  0  0  0  0  0
  -25.1456  -36.1412   25.0658 H   0  0  0  0  0  0
  -21.5090  -27.3404   24.9386 H   0  0  0  0  0  0
  -21.8152  -25.4839   23.9183 H   0  0  0  0  0  0
  -22.8669  -25.3999   23.1089 H   0  0  0  0  0  0
  -19.7384  -24.2737   20.3180 H   0  0  0  0  0  0
  -20.1397  -25.7619   19.5866 H   0  0  0  0  0  0
  -17.5973  -26.6506   20.5999 H   0  0  0  0  0  0
  -17.5203  -25.4153   21.7467 H   0  0  0  0  0  0
  -20.0205  -29.9991   24.6179 H   0  0  0  0  0  0
  -17.8781  -31.1760   24.4760 H   0  0  0  0  0  0
  -15.8860  -30.0542   23.4909 H   0  0  0  0  0  0
  -16.1305  -27.8767   22.3989 H   0  0  0  0  0  0
  -24.5581  -30.8124   25.8069 H   0  0  0  0  0  0
  -24.9064  -32.4300   26.3681 H   0  0  0  0  0  0
  -25.8144  -31.0573   26.9631 H   0  0  0  0  0  0
  -26.3286  -29.5269   24.7422 H   0  0  0  0  0  0
  -27.8311  -30.0524   25.3712 H   0  0  0  0  0  0
  -27.5352  -30.3010   23.6700 H   0  0  0  0  0  0
  -27.2397  -33.4685   26.0039 H   0  0  0  0  0  0
  -28.3984  -32.6694   24.9552 H   0  0  0  0  0  0
  -27.9773  -31.9757   26.5125 H   0  0  0  0  0  0
  -28.2504  -38.0096   24.7602 H   0  0  0  0  0  0
  -28.1081  -36.2632   24.6133 H   0  0  0  0  0  0
  -27.2292  -37.1214   25.8866 H   0  0  0  0  0  0
  -23.3920  -26.8158   23.6853 H   0  0  0  0  0  0
  -25.9997  -38.2770   24.1667 H   0  0  0  0  0  0
  -19.0679  -25.0352   23.3274 H   0  0  0  0  0  0
  -26.1487  -22.3277   20.7844 H   0  0  0  0  0  0
  -25.6780  -21.7004   22.3227 H   0  0  0  0  0  0
  -23.6300  -20.1114   21.7912 H   0  0  0  0  0  0
  -23.4256  -20.2134   20.0814 H   0  0  0  0  0  0
  -26.0173  -20.0155   19.5707 H   0  0  0  0  0  0
  -21.0689  -29.4661   22.5468 H   0  0  0  0  0  0
  -21.5948  -29.8852   21.1724 H   0  0  0  0  0  0
  -23.6338  -30.3420   24.0781 H   0  0  0  0  0  0
  -23.8591  -29.0051   24.3017 H   0  0  0  0  0  0
  -26.4304  -17.2265   20.9235 H   0  0  0  0  0  0
  1 25  1  0  0  0
  1 30  2  0  0  0
  1 83  1  0  0  0
  2  3  1  0  0  0
  2 25  1  0  0  0
  2 85  1  0  0  0
  2 86  1  0  0  0
  3  4  1  0  0  0
  3 87  1  0  0  0
  3 88  1  0  0  0
  4  5  1  0  0  0
  4 89  1  0  0  0
  4 90  1  0  0  0
  5  6  1  0  0  0
  5 26  1  0  0  0
  5 91  1  0  0  0
  6 25  1  0  0  0
  6 92  1  0  0  0
  6 93  1  0  0  0
  7  8  2  0  0  0
  7 26  1  0  0  0
  7 29  1  0  0  0
  8  9  1  0  0  0
  8 22  1  0  0  0
  9 10  1  0  0  0
  9 27  2  0  0  0
 10 11  2  0  0  0
 10 15  1  0  0  0
 11 12  1  0  0  0
 11 94  1  0  0  0
 12 13  2  0  0  0
 12 95  1  0  0  0
 13 14  1  0  0  0
 13 31  1  0  0  0
 14 15  2  0  0  0
 14 96  1  0  0  0
 15 97  1  0  0  0
 16 17  2  0  0  0
 16 21  1  0  0  0
 16 31  1  0  0  0
 17 18  1  0  0  0
 17 98  1  0  0  0
 18 19  2  0  0  0
 18 99  1  0  0  0
 19 20  1  0  0  0
 19 24  1  0  0  0
 20 21  2  0  0  0
 20100  1  0  0  0
 21 23  1  0  0  0
 22 28  1  0  0  0
 22 32  2  0  0  0
 26 27  1  0  0  0
 28101  1  0  0  0
 28102  1  0  0  0
 29103  1  0  0  0
 29104  1  0  0  0
 33 34  1  0  0  0
 33 66  1  0  0  0
 33 70  2  0  0  0
 34 36  1  0  0  0
 34 59  1  0  0  0
 34105  1  0  0  0
 35 44  2  0  0  0
 35 45  1  0  0  0
 35 68  1  0  0  0
 36 56  1  0  0  0
 36106  1  0  0  0
 37 39  1  0  0  0
 37 47  1  0  0  0
 37 66  1  0  0  0
 37107  1  0  0  0
 38 43  2  0  0  0
 38 46  1  0  0  0
 38 47  1  0  0  0
 39 64  1  0  0  0
 39 67  2  0  0  0
 40 52  1  0  0  0
 40 53  2  0  0  0
 40 58  1  0  0  0
 41108  1  0  0  0
 41109  1  0  0  0
 41110  1  0  0  0
 41 48  1  0  0  0
 42 43  1  0  0  0
 42 66  1  0  0  0
 42111  1  0  0  0
 42112  1  0  0  0
 43 44  1  0  0  0
 44113  1  0  0  0
 45 46  2  0  0  0
 45114  1  0  0  0
 46115  1  0  0  0
 47116  1  0  0  0
 47117  1  0  0  0
 48 56  1  0  0  0
 48 65  1  0  0  0
 48118  1  0  0  0
 49 50  1  0  0  0
 49 53  1  0  0  0
 49 64  1  0  0  0
 49119  1  0  0  0
 50 51  1  0  0  0
 50120  1  0  0  0
 50121  1  0  0  0
 51 52  1  0  0  0
 51122  1  0  0  0
 51123  1  0  0  0
 52124  1  0  0  0
 52125  1  0  0  0
 53 54  1  0  0  0
 54 55  2  0  0  0
 54126  1  0  0  0
 55 57  1  0  0  0
 55127  1  0  0  0
 56 69  2  0  0  0
 57 58  2  0  0  0
 57128  1  0  0  0
 58129  1  0  0  0
 59 60  1  0  0  0
 59 61  1  0  0  0
 59 62  1  0  0  0
 60130  1  0  0  0
 60131  1  0  0  0
 60132  1  0  0  0
 61133  1  0  0  0
 61134  1  0  0  0
 61135  1  0  0  0
 62136  1  0  0  0
 62137  1  0  0  0
 62138  1  0  0  0
 63 65  1  0  0  0
 63139  1  0  0  0
 63140  1  0  0  0
 63141  1  0  0  0
 64142  1  0  0  0
 65143  1  0  0  0
 68 79  1  0  0  0
 71 72  2  0  0  0
 71 80  1  0  0  0
 71144  1  0  0  0
 72 73  1  0  0  0
 72 84  1  0  0  0
 73 78  1  0  0  0
 73 81  2  0  0  0
 74 80  2  0  0  0
 74 81  1  0  0  0
 74 82  1  0  0  0
 75 77  1  0  0  0
 75 82  1  0  0  0
 75145  1  0  0  0
 75146  1  0  0  0
 76 77  1  0  0  0
 76 82  1  0  0  0
 76147  1  0  0  0
 76148  1  0  0  0
 77 83  1  0  0  0
 77149  1  0  0  0
 78 79  1  0  0  0
 78150  1  0  0  0
 78151  1  0  0  0
 79152  1  0  0  0
 79153  1  0  0  0
 83154  1  0  0  0
M  ISO  4   1 100  68 101  79 101  83 100
M  END
> <chiral flag>
0

> <version>
0

> <s_m_source_file>
/data/baiqing/PycharmProjects/Reinvent-master-3.2/result/LINK_invent/BTK/process_docking_weight1_custom_sum_contain_oxygen_bond_distance_aromatic_linkinvent_7_9_3/rearranged_h_0196.sdf

> <i_m_source_file_index>
61

> <r_mmod_Potential_Energy-OPLS-2005>
29976.87109375

> <r_mmod_Stretch_Energy-OPLS-2005>
13672.1005859375

> <r_mmod_Bend_Energy-OPLS-2005>
3424.845703125

> <r_mmod_Torsional_Energy-OPLS-2005>
818.221130371094

> <r_mmod_Improper_Torsional_Energy-OPLS-2005>
151.687072753906

> <r_mmod_Van_der_Waal_Energy-OPLS-2005>
4623.03955078125

> <r_mmod_Electrostatic_Energy-OPLS-2005>
-719.1435546875

> <r_mmod_Solvation_Energy-OPLS-2005>
-267.746978759766

> <b_mmod_Minimization_Converged-OPLS-2005>
0

> <r_mmod_RMS_Derivative-OPLS-2005>
2.61966252326965

$$$$
62
                    3D
 Structure written by MMmdl.
159168  0  0  1  0            999 V2000
  -30.5942  -14.8130   20.4538 C   0  0  0  0  0  0
  -30.4303  -12.4999   19.4768 C   0  0  0  0  0  0
  -29.5092  -12.5135   18.2368 C   0  0  0  0  0  0
  -28.0369  -12.3274   18.6519 C   0  0  0  0  0  0
  -27.6367  -13.2320   19.8496 C   0  0  2  0  0  0
  -28.6831  -13.1710   20.9803 C   0  0  0  0  0  0
  -25.2492  -13.8204   20.5700 C   0  0  0  0  0  0
  -24.1783  -13.0447   20.9187 C   0  0  0  0  0  0
  -24.6368  -11.6920   20.8741 C   0  0  0  0  0  0
  -23.9053  -10.4306   21.0422 C   0  0  0  0  0  0
  -24.3618   -9.4228   21.9201 C   0  0  0  0  0  0
  -23.6300   -8.2256   22.0753 C   0  0  0  0  0  0
  -22.4280   -8.0280   21.3545 C   0  0  0  0  0  0
  -21.9918   -9.0255   20.4646 C   0  0  0  0  0  0
  -22.7233  -10.2139   20.3064 C   0  0  0  0  0  0
  -21.6856   -6.0722   22.5280 C   0  0  0  0  0  0
  -21.4010   -6.5630   23.8210 C   0  0  0  0  0  0
  -21.3660   -5.6789   24.9175 C   0  0  0  0  0  0
  -21.6050   -4.3055   24.7234 C   0  0  0  0  0  0
  -21.8824   -3.8138   23.4357 C   0  0  0  0  0  0
  -21.9194   -4.6951   22.3408 C   0  0  0  0  0  0
  -22.7810  -13.5217   21.1879 C   0  0  0  0  0  0
  -22.1667   -4.2125   21.0988 F   0  0  0  0  0  0
  -21.5628   -3.4545   25.7752 F   0  0  0  0  0  0
  -29.9665  -13.5762   20.3929 N   0  0  0  0  0  0
  -26.2906  -12.9388   20.3303 N   0  0  0  0  0  0
  -25.9298  -11.6527   20.5762 N   0  0  0  0  0  0
  -22.0462  -12.8181   22.0417 N   0  0  0  0  0  0
  -25.4244  -15.1927   20.4072 N   0  0  0  0  0  0
  -31.7786  -14.8710   20.1031 O   0  0  0  0  0  0
  -21.6641   -6.8869   21.4244 O   0  0  0  0  0  0
  -22.3485  -14.5527   20.6736 O   0  0  0  0  0  0
  -24.6351  -31.8493   23.1961 C   0  0  0  0  0  0
  -25.9158  -32.4720   23.8321 C   0  0  1  0  0  0
  -27.2244  -27.2200   20.1108 C   0  0  0  0  0  0
  -25.5930  -33.8528   24.2238 N   0  0  0  0  0  0
  -23.4334  -30.4724   21.5393 C   0  0  2  0  0  0
  -24.8794  -28.9107   20.1082 C   0  0  0  0  0  0
  -22.7518  -29.4571   22.4898 C   0  0  0  0  0  0
  -18.0294  -28.1347   22.8487 C   0  0  0  0  0  0
  -24.1490  -36.7276   23.2644 C   0  0  0  0  0  0
  -25.9829  -30.7455   21.3818 C   0  0  0  0  0  0
  -26.0530  -29.3659   20.7193 C   0  0  0  0  0  0
  -27.2218  -28.5315   20.7138 C   0  0  0  0  0  0
  -26.0136  -26.8338   19.4910 C   0  0  0  0  0  0
  -24.8662  -27.6518   19.4891 C   0  0  0  0  0  0
  -23.6533  -29.8035   20.1566 C   0  0  0  0  0  0
  -25.4116  -36.3052   24.0320 C   0  0  1  0  0  0
  -20.5892  -28.3690   23.1268 C   0  0  2  0  0  0
  -20.6783  -26.9401   22.5430 C   0  0  0  0  0  0
  -19.5782  -26.6360   21.5213 C   0  0  0  0  0  0
  -18.1950  -26.7891   22.1603 C   0  0  0  0  0  0
  -19.1534  -28.8834   23.2872 C   0  0  0  0  0  0
  -18.9433  -30.1438   23.8880 C   0  0  0  0  0  0
  -17.6426  -30.6555   24.0541 C   0  0  0  0  0  0
  -25.9053  -34.9417   23.5089 C   0  0  0  0  0  0
  -16.5322  -29.9028   23.6322 C   0  0  0  0  0  0
  -16.7267  -28.6445   23.0349 C   0  0  0  0  0  0
  -26.4509  -31.6570   25.0732 C   0  0  0  0  0  0
  -25.3737  -31.3738   26.1463 C   0  0  0  0  0  0
  -27.0362  -30.2978   24.6259 C   0  0  0  0  0  0
  -27.6020  -32.4350   25.7524 C   0  0  0  0  0  0
  -27.5574  -37.1798   24.8466 C   0  0  0  0  0  0
  -21.4205  -29.3056   22.3676 N   0  0  0  0  0  0
  -26.4289  -37.3756   23.9403 N   0  0  0  0  0  0
  -24.7033  -31.0427   22.0943 N   0  0  0  0  0  0
  -23.4224  -28.8100   23.2994 O   0  0  0  0  0  0
  -28.3205  -26.3135   20.2090 O   0  0  0  0  0  0
  -26.5643  -34.8902   22.4670 O   0  0  0  0  0  0
  -23.5496  -32.1328   23.7239 O   0  0  0  0  0  0
  -28.8792  -21.4704   20.1528 C   0  0  0  0  0  0
  -28.0094  -23.1532   21.1564 C   0  0  0  0  0  0
  -28.6457  -17.9773   21.4723 C   0  0  0  0  0  0
  -29.1495  -16.5147   21.7183 C   0  0  0  0  0  0
  -30.0618  -17.2882   19.7092 C   0  0  0  0  0  0
  -29.5933  -18.6408   20.4638 C   0  0  1  0  0  0
  -27.2579  -23.9973   22.1288 C   0  0  0  0  0  0
  -28.4472  -25.0835   19.3792 C   0  0  0  0  0  0
  -29.0719  -19.9690   19.6119 C   0  0  1  0  0  0
  -28.1657  -21.8113   21.2786 N   0  0  0  0  0  0
  -29.0833  -22.5743   19.3693 N   0  0  0  0  0  0
  -28.5313  -23.6816   20.0368 N   0  0  0  0  0  0
  -29.8407  -16.0095   20.5168 N   0  0  0  0  0  0
  -27.8371  -19.6511   18.8879 N   0  3  0  0  0  0
  -31.4701  -12.6320   19.1721 H   0  0  0  0  0  0
  -30.3918  -11.5289   19.9733 H   0  0  0  0  0  0
  -29.8024  -11.7270   17.5398 H   0  0  0  0  0  0
  -29.6242  -13.4563   17.6984 H   0  0  0  0  0  0
  -27.9032  -11.2788   18.9204 H   0  0  0  0  0  0
  -27.3784  -12.5072   17.8005 H   0  0  0  0  0  0
  -27.6282  -14.2528   19.4705 H   0  0  0  0  0  0
  -28.7415  -12.1631   21.3926 H   0  0  0  0  0  0
  -28.4019  -13.8017   21.8185 H   0  0  0  0  0  0
  -25.2771   -9.5686   22.4766 H   0  0  0  0  0  0
  -24.0005   -7.4637   22.7456 H   0  0  0  0  0  0
  -21.0851   -8.8769   19.8942 H   0  0  0  0  0  0
  -22.3712  -10.9665   19.6156 H   0  0  0  0  0  0
  -21.1997   -7.6140   23.9697 H   0  0  0  0  0  0
  -21.1479   -6.0530   25.9072 H   0  0  0  0  0  0
  -22.0606   -2.7593   23.2877 H   0  0  0  0  0  0
  -22.4081  -11.9833   22.4780 H   0  0  0  0  0  0
  -21.1082  -13.1200   22.2623 H   0  0  0  0  0  0
  -24.6607  -15.8552   20.4800 H   0  0  0  0  0  0
  -26.2890  -15.6158   20.0964 H   0  0  0  0  0  0
  -26.7217  -32.5340   23.1047 H   0  0  0  0  0  0
  -25.0059  -33.9666   25.0370 H   0  0  0  0  0  0
  -22.7307  -31.2947   21.3916 H   0  0  0  0  0  0
  -23.3748  -35.9616   23.3311 H   0  0  0  0  0  0
  -24.3575  -36.8905   22.2063 H   0  0  0  0  0  0
  -23.7252  -37.6475   23.6678 H   0  0  0  0  0  0
  -26.1320  -31.5042   20.6133 H   0  0  0  0  0  0
  -26.8563  -30.7904   22.0201 H   0  0  0  0  0  0
  -28.1167  -28.8732   21.2154 H   0  0  0  0  0  0
  -25.8968  -25.8598   19.0451 H   0  0  0  0  0  0
  -23.9598  -27.2882   19.0233 H   0  0  0  0  0  0
  -23.7827  -30.5782   19.3998 H   0  0  0  0  0  0
  -22.7684  -29.2429   19.8513 H   0  0  0  0  0  0
  -25.1303  -36.1893   25.0815 H   0  0  0  0  0  0
  -20.9989  -28.3263   24.1383 H   0  0  0  0  0  0
  -20.5641  -26.2330   23.3660 H   0  0  0  0  0  0
  -21.6658  -26.7398   22.1243 H   0  0  0  0  0  0
  -19.6957  -25.6272   21.1253 H   0  0  0  0  0  0
  -19.6750  -27.3168   20.6748 H   0  0  0  0  0  0
  -17.4223  -26.6681   21.3991 H   0  0  0  0  0  0
  -18.0327  -26.0002   22.8949 H   0  0  0  0  0  0
  -19.7916  -30.7251   24.2234 H   0  0  0  0  0  0
  -17.4960  -31.6242   24.5118 H   0  0  0  0  0  0
  -15.5312  -30.2899   23.7627 H   0  0  0  0  0  0
  -15.8680  -28.0734   22.7062 H   0  0  0  0  0  0
  -24.5898  -30.7085   25.7834 H   0  0  0  0  0  0
  -24.8941  -32.2914   26.4896 H   0  0  0  0  0  0
  -25.8071  -30.8935   27.0245 H   0  0  0  0  0  0
  -26.2964  -29.6725   24.1247 H   0  0  0  0  0  0
  -27.3980  -29.7246   25.4803 H   0  0  0  0  0  0
  -27.8870  -30.4242   23.9556 H   0  0  0  0  0  0
  -27.2579  -33.3650   26.2079 H   0  0  0  0  0  0
  -28.3860  -32.6936   25.0388 H   0  0  0  0  0  0
  -28.0669  -31.8506   26.5485 H   0  0  0  0  0  0
  -28.2588  -38.0094   24.7486 H   0  0  0  0  0  0
  -28.1065  -36.2615   24.6317 H   0  0  0  0  0  0
  -27.2283  -37.1482   25.8868 H   0  0  0  0  0  0
  -20.9373  -29.8809   21.6914 H   0  0  0  0  0  0
  -26.0158  -38.2825   24.1401 H   0  0  0  0  0  0
  -28.5872  -18.5498   22.4002 H   0  0  0  0  0  0
  -27.6364  -17.9312   21.0652 H   0  0  0  0  0  0
  -29.8593  -16.5030   22.5471 H   0  0  0  0  0  0
  -28.3063  -15.8923   22.0062 H   0  0  0  0  0  0
  -31.1056  -17.3753   19.4044 H   0  0  0  0  0  0
  -29.4918  -17.1686   18.7872 H   0  0  0  0  0  0
  -30.4647  -18.9786   21.0284 H   0  0  0  0  0  0
  -26.8308  -23.3822   22.9208 H   0  0  0  0  0  0
  -26.4488  -24.5238   21.6229 H   0  0  0  0  0  0
  -27.9210  -24.7362   22.5759 H   0  0  0  0  0  0
  -27.7108  -25.0271   18.5815 H   0  0  0  0  0  0
  -29.3962  -25.2114   18.8579 H   0  0  0  0  0  0
  -29.8300  -20.0724   18.8342 H   0  0  0  0  0  0
  -27.6894  -20.3625   18.1952 H   0  0  0  0  0  0
  -27.0661  -19.6722   19.5283 H   0  0  0  0  0  0
  -27.8907  -18.7604   18.4326 H   0  0  0  0  0  0
  1 25  1  0  0  0
  1 30  2  0  0  0
  1 83  1  0  0  0
  2  3  1  0  0  0
  2 25  1  0  0  0
  2 85  1  0  0  0
  2 86  1  0  0  0
  3  4  1  0  0  0
  3 87  1  0  0  0
  3 88  1  0  0  0
  4  5  1  0  0  0
  4 89  1  0  0  0
  4 90  1  0  0  0
  5  6  1  0  0  0
  5 26  1  0  0  0
  5 91  1  0  0  0
  6 25  1  0  0  0
  6 92  1  0  0  0
  6 93  1  0  0  0
  7  8  2  0  0  0
  7 26  1  0  0  0
  7 29  1  0  0  0
  8  9  1  0  0  0
  8 22  1  0  0  0
  9 10  1  0  0  0
  9 27  2  0  0  0
 10 11  2  0  0  0
 10 15  1  0  0  0
 11 12  1  0  0  0
 11 94  1  0  0  0
 12 13  2  0  0  0
 12 95  1  0  0  0
 13 14  1  0  0  0
 13 31  1  0  0  0
 14 15  2  0  0  0
 14 96  1  0  0  0
 15 97  1  0  0  0
 16 17  2  0  0  0
 16 21  1  0  0  0
 16 31  1  0  0  0
 17 18  1  0  0  0
 17 98  1  0  0  0
 18 19  2  0  0  0
 18 99  1  0  0  0
 19 20  1  0  0  0
 19 24  1  0  0  0
 20 21  2  0  0  0
 20100  1  0  0  0
 21 23  1  0  0  0
 22 28  1  0  0  0
 22 32  2  0  0  0
 26 27  1  0  0  0
 28101  1  0  0  0
 28102  1  0  0  0
 29103  1  0  0  0
 29104  1  0  0  0
 33 34  1  0  0  0
 33 66  1  0  0  0
 33 70  2  0  0  0
 34 36  1  0  0  0
 34 59  1  0  0  0
 34105  1  0  0  0
 35 44  2  0  0  0
 35 45  1  0  0  0
 35 68  1  0  0  0
 36 56  1  0  0  0
 36106  1  0  0  0
 37 39  1  0  0  0
 37 47  1  0  0  0
 37 66  1  0  0  0
 37107  1  0  0  0
 38 43  2  0  0  0
 38 46  1  0  0  0
 38 47  1  0  0  0
 39 64  1  0  0  0
 39 67  2  0  0  0
 40 52  1  0  0  0
 40 53  2  0  0  0
 40 58  1  0  0  0
 41108  1  0  0  0
 41109  1  0  0  0
 41110  1  0  0  0
 41 48  1  0  0  0
 42 43  1  0  0  0
 42 66  1  0  0  0
 42111  1  0  0  0
 42112  1  0  0  0
 43 44  1  0  0  0
 44113  1  0  0  0
 45 46  2  0  0  0
 45114  1  0  0  0
 46115  1  0  0  0
 47116  1  0  0  0
 47117  1  0  0  0
 48 56  1  0  0  0
 48 65  1  0  0  0
 48118  1  0  0  0
 49 50  1  0  0  0
 49 53  1  0  0  0
 49 64  1  0  0  0
 49119  1  0  0  0
 50 51  1  0  0  0
 50120  1  0  0  0
 50121  1  0  0  0
 51 52  1  0  0  0
 51122  1  0  0  0
 51123  1  0  0  0
 52124  1  0  0  0
 52125  1  0  0  0
 53 54  1  0  0  0
 54 55  2  0  0  0
 54126  1  0  0  0
 55 57  1  0  0  0
 55127  1  0  0  0
 56 69  2  0  0  0
 57 58  2  0  0  0
 57128  1  0  0  0
 58129  1  0  0  0
 59 60  1  0  0  0
 59 61  1  0  0  0
 59 62  1  0  0  0
 60130  1  0  0  0
 60131  1  0  0  0
 60132  1  0  0  0
 61133  1  0  0  0
 61134  1  0  0  0
 61135  1  0  0  0
 62136  1  0  0  0
 62137  1  0  0  0
 62138  1  0  0  0
 63 65  1  0  0  0
 63139  1  0  0  0
 63140  1  0  0  0
 63141  1  0  0  0
 64142  1  0  0  0
 65143  1  0  0  0
 68 78  1  0  0  0
 71 79  1  0  0  0
 71 80  1  0  0  0
 71 81  2  0  0  0
 72 77  1  0  0  0
 72 80  2  0  0  0
 72 82  1  0  0  0
 73 74  1  0  0  0
 73144  1  0  0  0
 73145  1  0  0  0
 73 76  1  0  0  0
 74 83  1  0  0  0
 74146  1  0  0  0
 74147  1  0  0  0
 75 76  1  0  0  0
 75 83  1  0  0  0
 75148  1  0  0  0
 75149  1  0  0  0
 76 79  1  0  0  0
 76150  1  0  0  0
 77151  1  0  0  0
 77152  1  0  0  0
 77153  1  0  0  0
 78 82  1  0  0  0
 78154  1  0  0  0
 78155  1  0  0  0
 79 84  1  0  0  0
 79156  1  0  0  0
 81 82  1  0  0  0
 84157  1  0  0  0
 84158  1  0  0  0
 84159  1  0  0  0
M  CHG  1  84   1
M  ISO  4   1 100  68 101  78 101  83 100
M  END
> <chiral flag>
0

> <version>
0

> <s_m_source_file>
/data/baiqing/PycharmProjects/Reinvent-master-3.2/result/LINK_invent/BTK/process_docking_weight1_custom_sum_contain_oxygen_bond_distance_aromatic_linkinvent_7_9_3/rearranged_h_0196.sdf

> <i_m_source_file_index>
62

> <r_mmod_Potential_Energy-OPLS-2005>
136.068466186523

> <r_mmod_Stretch_Energy-OPLS-2005>
165.653594970703

> <r_mmod_Bend_Energy-OPLS-2005>
247.383102416992

> <r_mmod_Torsional_Energy-OPLS-2005>
338.630249023438

> <r_mmod_Improper_Torsional_Energy-OPLS-2005>
16.4674263000488

> <r_mmod_Van_der_Waal_Energy-OPLS-2005>
104.987815856934

> <r_mmod_Electrostatic_Energy-OPLS-2005>
-351.200866699219

> <r_mmod_Solvation_Energy-OPLS-2005>
-497.202972412109

> <b_mmod_Minimization_Converged-OPLS-2005>
0

> <r_mmod_RMS_Derivative-OPLS-2005>
2.68784832954407

$$$$
63
                    3D
 Structure written by MMmdl.
162172  0  0  1  0            999 V2000
  -30.6713  -14.6082   20.5259 C   0  0  0  0  0  0
  -30.4327  -12.3684   19.4595 C   0  0  0  0  0  0
  -29.5019  -12.4642   18.2249 C   0  0  0  0  0  0
  -28.0218  -12.3399   18.6334 C   0  0  0  0  0  0
  -27.6535  -13.2130   19.8578 C   0  0  2  0  0  0
  -28.6991  -13.0846   20.9905 C   0  0  0  0  0  0
  -25.2563  -13.8270   20.5645 C   0  0  0  0  0  0
  -24.1826  -13.0505   20.9207 C   0  0  0  0  0  0
  -24.6384  -11.6956   20.8724 C   0  0  0  0  0  0
  -23.9080  -10.4341   21.0442 C   0  0  0  0  0  0
  -24.3692   -9.4239   21.9190 C   0  0  0  0  0  0
  -23.6336   -8.2307   22.0785 C   0  0  0  0  0  0
  -22.4326   -8.0350   21.3574 C   0  0  0  0  0  0
  -21.9959   -9.0338   20.4698 C   0  0  0  0  0  0
  -22.7272  -10.2184   20.3073 C   0  0  0  0  0  0
  -21.6839   -6.0752   22.5273 C   0  0  0  0  0  0
  -21.4005   -6.5650   23.8187 C   0  0  0  0  0  0
  -21.3630   -5.6808   24.9153 C   0  0  0  0  0  0
  -21.6040   -4.3076   24.7195 C   0  0  0  0  0  0
  -21.8827   -3.8169   23.4313 C   0  0  0  0  0  0
  -21.9189   -4.6988   22.3368 C   0  0  0  0  0  0
  -22.7805  -13.5248   21.1846 C   0  0  0  0  0  0
  -22.1675   -4.2197   21.0927 F   0  0  0  0  0  0
  -21.5610   -3.4553   25.7693 F   0  0  0  0  0  0
  -30.0144  -13.4089   20.4209 N   0  0  0  0  0  0
  -26.2987  -12.9404   20.3319 N   0  0  0  0  0  0
  -25.9305  -11.6567   20.5810 N   0  0  0  0  0  0
  -22.0469  -12.8265   22.0446 N   0  0  0  0  0  0
  -25.4250  -15.1977   20.4006 N   0  0  0  0  0  0
  -31.8339  -14.7458   20.1321 O   0  0  0  0  0  0
  -21.6638   -6.8963   21.4283 O   0  0  0  0  0  0
  -22.3438  -14.5518   20.6631 O   0  0  0  0  0  0
  -24.6243  -31.8604   23.2048 C   0  0  0  0  0  0
  -25.9088  -32.4795   23.8379 C   0  0  1  0  0  0
  -27.2167  -27.3063   20.1069 C   0  0  0  0  0  0
  -25.5916  -33.8603   24.2316 N   0  0  0  0  0  0
  -23.4191  -30.4835   21.5468 C   0  0  2  0  0  0
  -24.8677  -28.9437   20.1057 C   0  0  0  0  0  0
  -22.7474  -29.4608   22.4921 C   0  0  0  0  0  0
  -18.0276  -28.1395   22.8475 C   0  0  0  0  0  0
  -24.1483  -36.7306   23.2637 C   0  0  0  0  0  0
  -25.9609  -30.7858   21.3766 C   0  0  0  0  0  0
  -26.0338  -29.4112   20.7227 C   0  0  0  0  0  0
  -27.2072  -28.5967   20.7278 C   0  0  0  0  0  0
  -26.0311  -26.9063   19.4500 C   0  0  0  0  0  0
  -24.8700  -27.7006   19.4590 C   0  0  0  0  0  0
  -23.6358  -29.8250   20.1582 C   0  0  0  0  0  0
  -25.4107  -36.3101   24.0337 C   0  0  1  0  0  0
  -20.5877  -28.3691   23.1289 C   0  0  2  0  0  0
  -20.6767  -26.9408   22.5422 C   0  0  0  0  0  0
  -19.5753  -26.6388   21.5217 C   0  0  0  0  0  0
  -18.1925  -26.7940   22.1613 C   0  0  0  0  0  0
  -19.1524  -28.8858   23.2880 C   0  0  0  0  0  0
  -18.9452  -30.1460   23.8901 C   0  0  0  0  0  0
  -17.6455  -30.6593   24.0565 C   0  0  0  0  0  0
  -25.9046  -34.9467   23.5136 C   0  0  0  0  0  0
  -16.5349  -29.9095   23.6318 C   0  0  0  0  0  0
  -16.7266  -28.6513   23.0336 C   0  0  0  0  0  0
  -26.4490  -31.6583   25.0733 C   0  0  0  0  0  0
  -25.3731  -31.3704   26.1448 C   0  0  0  0  0  0
  -27.0331  -30.3021   24.6159 C   0  0  0  0  0  0
  -27.6069  -32.4312   25.7496 C   0  0  0  0  0  0
  -27.5587  -37.1809   24.8466 C   0  0  0  0  0  0
  -21.4183  -29.3052   22.3688 N   0  0  0  0  0  0
  -26.4298  -37.3792   23.9406 N   0  0  0  0  0  0
  -24.6863  -31.0599   22.1010 N   0  0  0  0  0  0
  -23.4190  -28.8144   23.2990 O   0  0  0  0  0  0
  -28.3305  -26.4481   20.1837 O   0  0  0  0  0  0
  -26.5601  -34.8917   22.4698 O   0  0  0  0  0  0
  -23.5401  -32.1421   23.7377 O   0  0  0  0  0  0
  -29.5292  -19.5343   20.1396 C   0  0  0  0  0  0
  -28.4994  -18.1291   17.9738 C   0  0  0  0  0  0
  -28.8211  -20.2605   19.1273 C   0  0  0  0  0  0
  -28.2931  -19.5200   18.0621 C   0  0  0  0  0  0
  -29.6293  -18.0959   20.0103 C   0  0  0  0  0  0
  -27.3699  -23.9414   20.0429 C   0  0  0  0  0  0
  -29.4480  -24.0654   19.8888 C   0  0  0  0  0  0
  -28.4943  -21.7540   18.8098 C   0  0  2  0  0  0
  -28.3133  -25.0966   19.5650 C   0  0  1  0  0  0
  -27.2491  -21.5217   17.8983 C   0  0  2  0  0  0
  -25.9229  -21.2659   18.6574 C   0  0  0  0  0  0
  -30.3254  -17.1286   21.0228 C   0  0  0  0  0  0
  -29.1388  -17.4421   18.9360 N   0  0  0  0  0  0
  -27.5283  -20.2832   17.1673 N   0  0  0  0  0  0
  -29.9365  -15.6777   20.9355 N   0  0  0  0  0  0
  -28.4504  -22.9955   19.7056 N   0  3  1  0  0  0
  -31.4701  -12.4890   19.1515 H   0  0  0  0  0  0
  -30.3755  -11.3816   19.9215 H   0  0  0  0  0  0
  -29.7604  -11.6797   17.5111 H   0  0  0  0  0  0
  -29.6759  -13.4081   17.7063 H   0  0  0  0  0  0
  -27.8426  -11.2882   18.8621 H   0  0  0  0  0  0
  -27.3780  -12.5749   17.7817 H   0  0  0  0  0  0
  -27.6735  -14.2413   19.5046 H   0  0  0  0  0  0
  -28.7102  -12.0757   21.3961 H   0  0  0  0  0  0
  -28.4530  -13.7422   21.8276 H   0  0  0  0  0  0
  -25.2849   -9.5637   22.4737 H   0  0  0  0  0  0
  -24.0021   -7.4647   22.7449 H   0  0  0  0  0  0
  -21.0899   -8.8774   19.9007 H   0  0  0  0  0  0
  -22.3726  -10.9701   19.6165 H   0  0  0  0  0  0
  -21.2040   -7.6164   23.9679 H   0  0  0  0  0  0
  -21.1430   -6.0552   25.9031 H   0  0  0  0  0  0
  -22.0653   -2.7648   23.2748 H   0  0  0  0  0  0
  -22.4103  -11.9883   22.4799 H   0  0  0  0  0  0
  -21.1071  -13.1210   22.2685 H   0  0  0  0  0  0
  -26.2732  -15.6300   20.0563 H   0  0  0  0  0  0
  -24.6636  -15.8595   20.5190 H   0  0  0  0  0  0
  -26.7146  -32.5466   23.1106 H   0  0  0  0  0  0
  -25.0051  -33.9769   25.0447 H   0  0  0  0  0  0
  -22.7120  -31.3035   21.4066 H   0  0  0  0  0  0
  -23.3750  -35.9645   23.3327 H   0  0  0  0  0  0
  -24.3566  -36.8899   22.2052 H   0  0  0  0  0  0
  -23.7245  -37.6523   23.6636 H   0  0  0  0  0  0
  -26.0814  -31.5505   20.6060 H   0  0  0  0  0  0
  -26.8431  -30.8480   22.0014 H   0  0  0  0  0  0
  -28.0944  -28.9481   21.2351 H   0  0  0  0  0  0
  -25.9684  -25.9701   18.9209 H   0  0  0  0  0  0
  -23.9806  -27.3498   18.9539 H   0  0  0  0  0  0
  -23.7524  -30.6063   19.4050 H   0  0  0  0  0  0
  -22.7546  -29.2543   19.8552 H   0  0  0  0  0  0
  -25.1286  -36.1979   25.0841 H   0  0  0  0  0  0
  -20.9958  -28.3272   24.1416 H   0  0  0  0  0  0
  -20.5656  -26.2306   23.3620 H   0  0  0  0  0  0
  -21.6640  -26.7439   22.1230 H   0  0  0  0  0  0
  -19.6921  -25.6298   21.1248 H   0  0  0  0  0  0
  -19.6708  -27.3192   20.6744 H   0  0  0  0  0  0
  -17.4204  -26.6678   21.4010 H   0  0  0  0  0  0
  -18.0323  -26.0082   22.9009 H   0  0  0  0  0  0
  -19.7930  -30.7268   24.2280 H   0  0  0  0  0  0
  -17.5011  -31.6266   24.5180 H   0  0  0  0  0  0
  -15.5347  -30.3008   23.7649 H   0  0  0  0  0  0
  -15.8659  -28.0849   22.7048 H   0  0  0  0  0  0
  -24.5923  -30.7042   25.7758 H   0  0  0  0  0  0
  -24.8881  -32.2850   26.4868 H   0  0  0  0  0  0
  -25.8043  -30.8879   27.0217 H   0  0  0  0  0  0
  -26.2904  -29.6784   24.1171 H   0  0  0  0  0  0
  -27.4029  -29.7269   25.4646 H   0  0  0  0  0  0
  -27.8765  -30.4323   23.9382 H   0  0  0  0  0  0
  -27.2703  -33.3612   26.2079 H   0  0  0  0  0  0
  -28.3861  -32.6863   25.0312 H   0  0  0  0  0  0
  -28.0735  -31.8421   26.5387 H   0  0  0  0  0  0
  -28.2602  -38.0106   24.7507 H   0  0  0  0  0  0
  -28.1078  -36.2638   24.6294 H   0  0  0  0  0  0
  -27.2294  -37.1467   25.8864 H   0  0  0  0  0  0
  -20.9363  -29.8774   21.6901 H   0  0  0  0  0  0
  -26.0187  -38.2880   24.1398 H   0  0  0  0  0  0
  -29.9532  -20.0634   20.9790 H   0  0  0  0  0  0
  -28.1475  -17.5531   17.1283 H   0  0  0  0  0  0
  -26.4699  -23.8988   19.4434 H   0  0  0  0  0  0
  -27.1445  -23.9400   21.1136 H   0  0  0  0  0  0
  -29.8027  -24.1048   20.9177 H   0  0  0  0  0  0
  -30.2773  -24.0523   19.1818 H   0  0  0  0  0  0
  -29.3096  -22.0149   18.1366 H   0  0  0  0  0  0
  -28.2335  -25.2230   18.4825 H   0  0  0  0  0  0
  -27.1121  -22.3492   17.1939 H   0  0  0  0  0  0
  -25.9495  -20.3460   19.2366 H   0  0  0  0  0  0
  -25.0936  -21.1620   17.9650 H   0  0  0  0  0  0
  -25.6348  -22.0403   19.3570 H   0  0  0  0  0  0
  -31.4055  -17.2165   20.8805 H   0  0  0  0  0  0
  -30.1284  -17.4694   22.0396 H   0  0  0  0  0  0
  -26.7483  -19.8140   16.7049 H   0  0  0  0  0  0
  -28.9672  -15.4903   21.1242 H   0  0  0  0  0  0
  -28.3565  -23.3255   18.7563 H   0  0  0  0  0  0
  1 25  1  0  0  0
  1 30  2  0  0  0
  1 85  1  0  0  0
  2  3  1  0  0  0
  2 25  1  0  0  0
  2 87  1  0  0  0
  2 88  1  0  0  0
  3  4  1  0  0  0
  3 89  1  0  0  0
  3 90  1  0  0  0
  4  5  1  0  0  0
  4 91  1  0  0  0
  4 92  1  0  0  0
  5  6  1  0  0  0
  5 26  1  0  0  0
  5 93  1  0  0  0
  6 25  1  0  0  0
  6 94  1  0  0  0
  6 95  1  0  0  0
  7  8  2  0  0  0
  7 26  1  0  0  0
  7 29  1  0  0  0
  8  9  1  0  0  0
  8 22  1  0  0  0
  9 10  1  0  0  0
  9 27  2  0  0  0
 10 11  2  0  0  0
 10 15  1  0  0  0
 11 12  1  0  0  0
 11 96  1  0  0  0
 12 13  2  0  0  0
 12 97  1  0  0  0
 13 14  1  0  0  0
 13 31  1  0  0  0
 14 15  2  0  0  0
 14 98  1  0  0  0
 15 99  1  0  0  0
 16 17  2  0  0  0
 16 21  1  0  0  0
 16 31  1  0  0  0
 17 18  1  0  0  0
 17100  1  0  0  0
 18 19  2  0  0  0
 18101  1  0  0  0
 19 20  1  0  0  0
 19 24  1  0  0  0
 20 21  2  0  0  0
 20102  1  0  0  0
 21 23  1  0  0  0
 22 28  1  0  0  0
 22 32  2  0  0  0
 26 27  1  0  0  0
 28103  1  0  0  0
 28104  1  0  0  0
 29105  1  0  0  0
 29106  1  0  0  0
 33 34  1  0  0  0
 33 66  1  0  0  0
 33 70  2  0  0  0
 34 36  1  0  0  0
 34 59  1  0  0  0
 34107  1  0  0  0
 35 44  2  0  0  0
 35 45  1  0  0  0
 35 68  1  0  0  0
 36 56  1  0  0  0
 36108  1  0  0  0
 37 39  1  0  0  0
 37 47  1  0  0  0
 37 66  1  0  0  0
 37109  1  0  0  0
 38 43  2  0  0  0
 38 46  1  0  0  0
 38 47  1  0  0  0
 39 64  1  0  0  0
 39 67  2  0  0  0
 40 52  1  0  0  0
 40 53  2  0  0  0
 40 58  1  0  0  0
 41110  1  0  0  0
 41111  1  0  0  0
 41112  1  0  0  0
 41 48  1  0  0  0
 42 43  1  0  0  0
 42 66  1  0  0  0
 42113  1  0  0  0
 42114  1  0  0  0
 43 44  1  0  0  0
 44115  1  0  0  0
 45 46  2  0  0  0
 45116  1  0  0  0
 46117  1  0  0  0
 47118  1  0  0  0
 47119  1  0  0  0
 48 56  1  0  0  0
 48 65  1  0  0  0
 48120  1  0  0  0
 49 50  1  0  0  0
 49 53  1  0  0  0
 49 64  1  0  0  0
 49121  1  0  0  0
 50 51  1  0  0  0
 50122  1  0  0  0
 50123  1  0  0  0
 51 52  1  0  0  0
 51124  1  0  0  0
 51125  1  0  0  0
 52126  1  0  0  0
 52127  1  0  0  0
 53 54  1  0  0  0
 54 55  2  0  0  0
 54128  1  0  0  0
 55 57  1  0  0  0
 55129  1  0  0  0
 56 69  2  0  0  0
 57 58  2  0  0  0
 57130  1  0  0  0
 58131  1  0  0  0
 59 60  1  0  0  0
 59 61  1  0  0  0
 59 62  1  0  0  0
 60132  1  0  0  0
 60133  1  0  0  0
 60134  1  0  0  0
 61135  1  0  0  0
 61136  1  0  0  0
 61137  1  0  0  0
 62138  1  0  0  0
 62139  1  0  0  0
 62140  1  0  0  0
 63 65  1  0  0  0
 63141  1  0  0  0
 63142  1  0  0  0
 63143  1  0  0  0
 64144  1  0  0  0
 65145  1  0  0  0
 68 79  1  0  0  0
 71 73  2  0  0  0
 71 75  1  0  0  0
 71146  1  0  0  0
 72 74  2  0  0  0
 72 83  1  0  0  0
 72147  1  0  0  0
 73 74  1  0  0  0
 73 78  1  0  0  0
 74 84  1  0  0  0
 75 82  1  0  0  0
 75 83  2  0  0  0
 76 79  1  0  0  0
 76148  1  0  0  0
 76149  1  0  0  0
 76 86  1  0  0  0
 77 79  1  0  0  0
 77 86  1  0  0  0
 77150  1  0  0  0
 77151  1  0  0  0
 78 80  1  0  0  0
 78 86  1  0  0  0
 78152  1  0  0  0
 79153  1  0  0  0
 80 81  1  0  0  0
 80 84  1  0  0  0
 80154  1  0  0  0
 81155  1  0  0  0
 81156  1  0  0  0
 81157  1  0  0  0
 82 85  1  0  0  0
 82158  1  0  0  0
 82159  1  0  0  0
 84160  1  0  0  0
 85161  1  0  0  0
 86162  1  0  0  0
M  CHG  1  86   1
M  ISO  4   1 100  68 101  79 101  85 100
M  END
> <chiral flag>
0

> <version>
0

> <s_m_source_file>
/data/baiqing/PycharmProjects/Reinvent-master-3.2/result/LINK_invent/BTK/process_docking_weight1_custom_sum_contain_oxygen_bond_distance_aromatic_linkinvent_7_9_3/rearranged_h_0196.sdf

> <i_m_source_file_index>
63

> <r_mmod_Potential_Energy-OPLS-2005>
-89.890625

> <r_mmod_Stretch_Energy-OPLS-2005>
80.5138626098633

> <r_mmod_Bend_Energy-OPLS-2005>
440.296875

> <r_mmod_Torsional_Energy-OPLS-2005>
221.339370727539

> <r_mmod_Improper_Torsional_Energy-OPLS-2005>
8.14942932128906

> <r_mmod_Van_der_Waal_Energy-OPLS-2005>
147.066757202148

> <r_mmod_Electrostatic_Energy-OPLS-2005>
-519.084167480469

> <r_mmod_Solvation_Energy-OPLS-2005>
-516.389526367188

> <b_mmod_Minimization_Converged-OPLS-2005>
0

> <r_mmod_RMS_Derivative-OPLS-2005>
8.37666606903076

$$$$
64
                    3D
 Structure written by MMmdl.
160170  0  0  1  0            999 V2000
  -30.6388  -14.8586   20.4268 C   0  0  0  0  0  0
  -30.4143  -12.5366   19.4862 C   0  0  0  0  0  0
  -29.5074  -12.5160   18.2397 C   0  0  0  0  0  0
  -28.0422  -12.3016   18.6590 C   0  0  0  0  0  0
  -27.6206  -13.2349   19.8233 C   0  0  2  0  0  0
  -28.6677  -13.2829   20.9597 C   0  0  0  0  0  0
  -25.2413  -13.8158   20.5676 C   0  0  0  0  0  0
  -24.1741  -13.0392   20.9222 C   0  0  0  0  0  0
  -24.6348  -11.6874   20.8751 C   0  0  0  0  0  0
  -23.9047  -10.4253   21.0399 C   0  0  0  0  0  0
  -24.3598   -9.4185   21.9183 C   0  0  0  0  0  0
  -23.6279   -8.2221   22.0751 C   0  0  0  0  0  0
  -22.4275   -8.0247   21.3529 C   0  0  0  0  0  0
  -21.9903   -9.0220   20.4646 C   0  0  0  0  0  0
  -22.7223  -10.2096   20.3051 C   0  0  0  0  0  0
  -21.6841   -6.0717   22.5271 C   0  0  0  0  0  0
  -21.4006   -6.5624   23.8207 C   0  0  0  0  0  0
  -21.3669   -5.6781   24.9174 C   0  0  0  0  0  0
  -21.6061   -4.3044   24.7219 C   0  0  0  0  0  0
  -21.8818   -3.8125   23.4338 C   0  0  0  0  0  0
  -21.9183   -4.6944   22.3392 C   0  0  0  0  0  0
  -22.7775  -13.5192   21.1867 C   0  0  0  0  0  0
  -22.1659   -4.2128   21.0972 F   0  0  0  0  0  0
  -21.5639   -3.4535   25.7735 F   0  0  0  0  0  0
  -29.9478  -13.6554   20.3518 N   0  0  0  0  0  0
  -26.2830  -12.9371   20.3176 N   0  0  0  0  0  0
  -25.9278  -11.6520   20.5719 N   0  0  0  0  0  0
  -22.0404  -12.8206   22.0423 N   0  0  0  0  0  0
  -25.3999  -15.1887   20.4086 N   0  0  0  0  0  0
  -31.8523  -14.8087   20.2027 O   0  0  0  0  0  0
  -21.6631   -6.8855   21.4232 O   0  0  0  0  0  0
  -22.3479  -14.5510   20.6724 O   0  0  0  0  0  0
  -24.6363  -31.8500   23.1920 C   0  0  0  0  0  0
  -25.9165  -32.4721   23.8298 C   0  0  1  0  0  0
  -27.2203  -27.2059   20.1166 C   0  0  0  0  0  0
  -25.5935  -33.8524   24.2209 N   0  0  0  0  0  0
  -23.4359  -30.4712   21.5365 C   0  0  2  0  0  0
  -24.8820  -28.9068   20.1056 C   0  0  0  0  0  0
  -22.7529  -29.4594   22.4881 C   0  0  0  0  0  0
  -18.0299  -28.1413   22.8471 C   0  0  0  0  0  0
  -24.1490  -36.7280   23.2642 C   0  0  0  0  0  0
  -25.9859  -30.7414   21.3807 C   0  0  0  0  0  0
  -26.0550  -29.3588   20.7209 C   0  0  0  0  0  0
  -27.2217  -28.5184   20.7201 C   0  0  0  0  0  0
  -26.0161  -26.8295   19.4828 C   0  0  0  0  0  0
  -24.8694  -27.6513   19.4779 C   0  0  0  0  0  0
  -23.6556  -29.8011   20.1546 C   0  0  0  0  0  0
  -25.4118  -36.3054   24.0317 C   0  0  1  0  0  0
  -20.5904  -28.3730   23.1248 C   0  0  2  0  0  0
  -20.6784  -26.9437   22.5414 C   0  0  0  0  0  0
  -19.5763  -26.6391   21.5217 C   0  0  0  0  0  0
  -18.1941  -26.7951   22.1614 C   0  0  0  0  0  0
  -19.1553  -28.8882   23.2853 C   0  0  0  0  0  0
  -18.9474  -30.1476   23.8879 C   0  0  0  0  0  0
  -17.6472  -30.6602   24.0567 C   0  0  0  0  0  0
  -25.9066  -34.9427   23.5073 C   0  0  0  0  0  0
  -16.5361  -29.9097   23.6346 C   0  0  0  0  0  0
  -16.7283  -28.6525   23.0346 C   0  0  0  0  0  0
  -26.4488  -31.6573   25.0727 C   0  0  0  0  0  0
  -25.3686  -31.3762   26.1436 C   0  0  0  0  0  0
  -27.0340  -30.2972   24.6284 C   0  0  0  0  0  0
  -27.6051  -32.4303   25.7512 C   0  0  0  0  0  0
  -27.5577  -37.1793   24.8456 C   0  0  0  0  0  0
  -21.4230  -29.3057   22.3614 N   0  0  0  0  0  0
  -26.4286  -37.3760   23.9405 N   0  0  0  0  0  0
  -24.7056  -31.0413   22.0921 N   0  0  0  0  0  0
  -23.4199  -28.8140   23.3006 O   0  0  0  0  0  0
  -28.3000  -26.2780   20.2211 O   0  0  0  0  0  0
  -26.5662  -34.8914   22.4660 O   0  0  0  0  0  0
  -23.5498  -32.1350   23.7188 O   0  0  0  0  0  0
  -28.3190  -21.2261   18.9909 C   0  0  0  0  0  0
  -29.0025  -20.6649   20.1220 C   0  0  0  0  0  0
  -28.5164  -23.4566   19.7946 C   0  0  0  0  0  0
  -28.7554  -19.3817   17.1332 C   0  0  0  0  0  0
  -28.4946  -20.6878   16.4354 C   0  0  0  0  0  0
  -30.3375  -18.7482   21.2328 C   0  0  0  0  0  0
  -28.2843  -18.1716   20.2159 C   0  0  0  0  0  0
  -30.9400  -17.3126   20.9051 C   0  0  0  0  0  0
  -28.7462  -16.6332   20.0634 C   0  0  0  0  0  0
  -27.8736  -20.4255   17.7958 C   0  0  0  0  0  0
  -28.4545  -25.0320   19.3586 C   0  0  0  0  0  0
  -28.0749  -22.5783   18.8652 N   0  0  0  0  0  0
  -29.4130  -21.6194   21.0349 N   0  0  0  0  0  0
  -29.1997  -22.9757   20.8742 N   0  0  0  0  0  0
  -29.3212  -19.2303   20.2884 N   0  0  0  0  0  0
  -30.0428  -16.1363   20.6288 N   0  0  0  0  0  0
  -31.4574  -12.6438   19.1837 H   0  0  0  0  0  0
  -30.3563  -11.5866   20.0190 H   0  0  0  0  0  0
  -29.8257  -11.7344   17.5482 H   0  0  0  0  0  0
  -29.6031  -13.4596   17.7003 H   0  0  0  0  0  0
  -27.9336  -11.2597   18.9632 H   0  0  0  0  0  0
  -27.3786  -12.4408   17.8042 H   0  0  0  0  0  0
  -27.5732  -14.2199   19.3668 H   0  0  0  0  0  0
  -28.7416  -12.3222   21.4702 H   0  0  0  0  0  0
  -28.3803  -14.0133   21.7172 H   0  0  0  0  0  0
  -25.2725   -9.5702   22.4768 H   0  0  0  0  0  0
  -23.9980   -7.4628   22.7488 H   0  0  0  0  0  0
  -21.0825   -8.8757   19.8969 H   0  0  0  0  0  0
  -22.3669  -10.9638   19.6181 H   0  0  0  0  0  0
  -21.2003   -7.6132   23.9704 H   0  0  0  0  0  0
  -21.1508   -6.0511   25.9085 H   0  0  0  0  0  0
  -22.0592   -2.7582   23.2832 H   0  0  0  0  0  0
  -22.4003  -11.9878   22.4841 H   0  0  0  0  0  0
  -21.1044  -13.1280   22.2626 H   0  0  0  0  0  0
  -24.6235  -15.8316   20.5316 H   0  0  0  0  0  0
  -26.2367  -15.6334   20.0586 H   0  0  0  0  0  0
  -26.7239  -32.5347   23.1038 H   0  0  0  0  0  0
  -25.0004  -33.9640   25.0300 H   0  0  0  0  0  0
  -22.7362  -31.2969   21.3869 H   0  0  0  0  0  0
  -23.3759  -35.9608   23.3276 H   0  0  0  0  0  0
  -24.3581  -36.8940   22.2064 H   0  0  0  0  0  0
  -23.7224  -37.6460   23.6696 H   0  0  0  0  0  0
  -26.1340  -31.4964   20.6077 H   0  0  0  0  0  0
  -26.8610  -30.7924   22.0175 H   0  0  0  0  0  0
  -28.1153  -28.8538   21.2271 H   0  0  0  0  0  0
  -25.9093  -25.8555   19.0311 H   0  0  0  0  0  0
  -23.9665  -27.2927   19.0016 H   0  0  0  0  0  0
  -23.7827  -30.5760   19.3973 H   0  0  0  0  0  0
  -22.7730  -29.2361   19.8497 H   0  0  0  0  0  0
  -25.1299  -36.1899   25.0808 H   0  0  0  0  0  0
  -21.0000  -28.3339   24.1366 H   0  0  0  0  0  0
  -20.5691  -26.2349   23.3632 H   0  0  0  0  0  0
  -21.6653  -26.7456   22.1202 H   0  0  0  0  0  0
  -19.6923  -25.6293   21.1265 H   0  0  0  0  0  0
  -19.6713  -27.3186   20.6733 H   0  0  0  0  0  0
  -17.4212  -26.6692   21.4017 H   0  0  0  0  0  0
  -18.0342  -26.0110   22.9027 H   0  0  0  0  0  0
  -19.7951  -30.7293   24.2246 H   0  0  0  0  0  0
  -17.5033  -31.6283   24.5172 H   0  0  0  0  0  0
  -15.5360  -30.2989   23.7694 H   0  0  0  0  0  0
  -15.8686  -28.0846   22.7048 H   0  0  0  0  0  0
  -24.5828  -30.7157   25.7733 H   0  0  0  0  0  0
  -24.8912  -32.2950   26.4859 H   0  0  0  0  0  0
  -25.7956  -30.8904   27.0220 H   0  0  0  0  0  0
  -26.2934  -29.6702   24.1296 H   0  0  0  0  0  0
  -27.3956  -29.7261   25.4846 H   0  0  0  0  0  0
  -27.8851  -30.4192   23.9579 H   0  0  0  0  0  0
  -27.2669  -33.3615   26.2065 H   0  0  0  0  0  0
  -28.3888  -32.6823   25.0356 H   0  0  0  0  0  0
  -28.0694  -31.8432   26.5445 H   0  0  0  0  0  0
  -28.2574  -38.0108   24.7517 H   0  0  0  0  0  0
  -28.1088  -36.2635   24.6258 H   0  0  0  0  0  0
  -27.2309  -37.1413   25.8862 H   0  0  0  0  0  0
  -20.9432  -29.8749   21.6777 H   0  0  0  0  0  0
  -26.0161  -38.2836   24.1405 H   0  0  0  0  0  0
  -29.7520  -19.2167   17.5392 H   0  0  0  0  0  0
  -28.2704  -18.4996   16.7214 H   0  0  0  0  0  0
  -27.8480  -20.6577   15.5612 H   0  0  0  0  0  0
  -29.3258  -21.3871   16.3761 H   0  0  0  0  0  0
  -31.1554  -19.4700   21.2710 H   0  0  0  0  0  0
  -29.9002  -18.7393   22.2329 H   0  0  0  0  0  0
  -27.7159  -18.2496   21.1449 H   0  0  0  0  0  0
  -27.5537  -18.3995   19.4420 H   0  0  0  0  0  0
  -31.6001  -17.0415   21.7299 H   0  0  0  0  0  0
  -31.5928  -17.4275   20.0390 H   0  0  0  0  0  0
  -28.7582  -16.3965   18.9973 H   0  0  0  0  0  0
  -27.9559  -16.0314   20.5020 H   0  0  0  0  0  0
  -26.8032  -20.2310   17.8364 H   0  0  0  0  0  0
  -27.7976  -25.1022   18.4928 H   0  0  0  0  0  0
  -29.4335  -25.1858   18.9052 H   0  0  0  0  0  0
  1 25  1  0  0  0
  1 30  2  0  0  0
  1 86  1  0  0  0
  2  3  1  0  0  0
  2 25  1  0  0  0
  2 87  1  0  0  0
  2 88  1  0  0  0
  3  4  1  0  0  0
  3 89  1  0  0  0
  3 90  1  0  0  0
  4  5  1  0  0  0
  4 91  1  0  0  0
  4 92  1  0  0  0
  5  6  1  0  0  0
  5 26  1  0  0  0
  5 93  1  0  0  0
  6 25  1  0  0  0
  6 94  1  0  0  0
  6 95  1  0  0  0
  7  8  2  0  0  0
  7 26  1  0  0  0
  7 29  1  0  0  0
  8  9  1  0  0  0
  8 22  1  0  0  0
  9 10  1  0  0  0
  9 27  2  0  0  0
 10 11  2  0  0  0
 10 15  1  0  0  0
 11 12  1  0  0  0
 11 96  1  0  0  0
 12 13  2  0  0  0
 12 97  1  0  0  0
 13 14  1  0  0  0
 13 31  1  0  0  0
 14 15  2  0  0  0
 14 98  1  0  0  0
 15 99  1  0  0  0
 16 17  2  0  0  0
 16 21  1  0  0  0
 16 31  1  0  0  0
 17 18  1  0  0  0
 17100  1  0  0  0
 18 19  2  0  0  0
 18101  1  0  0  0
 19 20  1  0  0  0
 19 24  1  0  0  0
 20 21  2  0  0  0
 20102  1  0  0  0
 21 23  1  0  0  0
 22 28  1  0  0  0
 22 32  2  0  0  0
 26 27  1  0  0  0
 28103  1  0  0  0
 28104  1  0  0  0
 29105  1  0  0  0
 29106  1  0  0  0
 33 34  1  0  0  0
 33 66  1  0  0  0
 33 70  2  0  0  0
 34 36  1  0  0  0
 34 59  1  0  0  0
 34107  1  0  0  0
 35 44  2  0  0  0
 35 45  1  0  0  0
 35 68  1  0  0  0
 36 56  1  0  0  0
 36108  1  0  0  0
 37 39  1  0  0  0
 37 47  1  0  0  0
 37 66  1  0  0  0
 37109  1  0  0  0
 38 43  2  0  0  0
 38 46  1  0  0  0
 38 47  1  0  0  0
 39 64  1  0  0  0
 39 67  2  0  0  0
 40 52  1  0  0  0
 40 53  2  0  0  0
 40 58  1  0  0  0
 41110  1  0  0  0
 41111  1  0  0  0
 41112  1  0  0  0
 41 48  1  0  0  0
 42 43  1  0  0  0
 42 66  1  0  0  0
 42113  1  0  0  0
 42114  1  0  0  0
 43 44  1  0  0  0
 44115  1  0  0  0
 45 46  2  0  0  0
 45116  1  0  0  0
 46117  1  0  0  0
 47118  1  0  0  0
 47119  1  0  0  0
 48 56  1  0  0  0
 48 65  1  0  0  0
 48120  1  0  0  0
 49 50  1  0  0  0
 49 53  1  0  0  0
 49 64  1  0  0  0
 49121  1  0  0  0
 50 51  1  0  0  0
 50122  1  0  0  0
 50123  1  0  0  0
 51 52  1  0  0  0
 51124  1  0  0  0
 51125  1  0  0  0
 52126  1  0  0  0
 52127  1  0  0  0
 53 54  1  0  0  0
 54 55  2  0  0  0
 54128  1  0  0  0
 55 57  1  0  0  0
 55129  1  0  0  0
 56 69  2  0  0  0
 57 58  2  0  0  0
 57130  1  0  0  0
 58131  1  0  0  0
 59 60  1  0  0  0
 59 61  1  0  0  0
 59 62  1  0  0  0
 60132  1  0  0  0
 60133  1  0  0  0
 60134  1  0  0  0
 61135  1  0  0  0
 61136  1  0  0  0
 61137  1  0  0  0
 62138  1  0  0  0
 62139  1  0  0  0
 62140  1  0  0  0
 63 65  1  0  0  0
 63141  1  0  0  0
 63142  1  0  0  0
 63143  1  0  0  0
 64144  1  0  0  0
 65145  1  0  0  0
 68 81  1  0  0  0
 71 72  1  0  0  0
 71 82  2  0  0  0
 71 80  1  0  0  0
 72 83  2  0  0  0
 72 85  1  0  0  0
 73 81  1  0  0  0
 73 82  1  0  0  0
 73 84  2  0  0  0
 74 75  1  0  0  0
 74 80  1  0  0  0
 74146  1  0  0  0
 74147  1  0  0  0
 75 80  1  0  0  0
 75148  1  0  0  0
 75149  1  0  0  0
 76 78  1  0  0  0
 76 85  1  0  0  0
 76150  1  0  0  0
 76151  1  0  0  0
 77 79  1  0  0  0
 77 85  1  0  0  0
 77152  1  0  0  0
 77153  1  0  0  0
 78 86  1  0  0  0
 78154  1  0  0  0
 78155  1  0  0  0
 79 86  1  0  0  0
 79156  1  0  0  0
 79157  1  0  0  0
 80158  1  0  0  0
 81159  1  0  0  0
 81160  1  0  0  0
 83 84  1  0  0  0
M  ISO  4   1 100  68 101  81 101  86 100
M  END
> <chiral flag>
0

> <version>
0

> <s_m_source_file>
/data/baiqing/PycharmProjects/Reinvent-master-3.2/result/LINK_invent/BTK/process_docking_weight1_custom_sum_contain_oxygen_bond_distance_aromatic_linkinvent_7_9_3/rearranged_h_0196.sdf

> <i_m_source_file_index>
64

> <r_mmod_Potential_Energy-OPLS-2005>
612.905334472656

> <r_mmod_Stretch_Energy-OPLS-2005>
167.408645629883

> <r_mmod_Bend_Energy-OPLS-2005>
281.409942626953

> <r_mmod_Torsional_Energy-OPLS-2005>
358.353088378906

> <r_mmod_Improper_Torsional_Energy-OPLS-2005>
9.55655479431152

> <r_mmod_Van_der_Waal_Energy-OPLS-2005>
145.685699462891

> <r_mmod_Electrostatic_Energy-OPLS-2005>
-247.600463867188

> <r_mmod_Solvation_Energy-OPLS-2005>
-241.364944458008

> <b_mmod_Minimization_Converged-OPLS-2005>
0

> <r_mmod_RMS_Derivative-OPLS-2005>
2.51859569549561

$$$$
65
                    3D
 Structure written by MMmdl.
159168  0  0  1  0            999 V2000
  -30.6746  -14.6462   20.5015 C   0  0  0  0  0  0
  -30.4244  -12.3992   19.4724 C   0  0  0  0  0  0
  -29.5050  -12.5047   18.2351 C   0  0  0  0  0  0
  -28.0294  -12.3460   18.6431 C   0  0  0  0  0  0
  -27.6476  -13.2264   19.8611 C   0  0  2  0  0  0
  -28.6909  -13.1292   20.9974 C   0  0  0  0  0  0
  -25.2527  -13.8195   20.5636 C   0  0  0  0  0  0
  -24.1830  -13.0440   20.9205 C   0  0  0  0  0  0
  -24.6414  -11.6916   20.8753 C   0  0  0  0  0  0
  -23.9078  -10.4287   21.0412 C   0  0  0  0  0  0
  -24.3632   -9.4201   21.9178 C   0  0  0  0  0  0
  -23.6296   -8.2242   22.0752 C   0  0  0  0  0  0
  -22.4269   -8.0281   21.3547 C   0  0  0  0  0  0
  -21.9909   -9.0268   20.4652 C   0  0  0  0  0  0
  -22.7255  -10.2141   20.3054 C   0  0  0  0  0  0
  -21.6862   -6.0726   22.5270 C   0  0  0  0  0  0
  -21.4035   -6.5631   23.8211 C   0  0  0  0  0  0
  -21.3655   -5.6773   24.9172 C   0  0  0  0  0  0
  -21.6038   -4.3036   24.7216 C   0  0  0  0  0  0
  -21.8825   -3.8137   23.4337 C   0  0  0  0  0  0
  -21.9200   -4.6953   22.3396 C   0  0  0  0  0  0
  -22.7847  -13.5240   21.1855 C   0  0  0  0  0  0
  -22.1671   -4.2131   21.0974 F   0  0  0  0  0  0
  -21.5617   -3.4536   25.7736 F   0  0  0  0  0  0
  -30.0048  -13.4495   20.4248 N   0  0  0  0  0  0
  -26.2964  -12.9392   20.3308 N   0  0  0  0  0  0
  -25.9348  -11.6538   20.5791 N   0  0  0  0  0  0
  -22.0472  -12.8230   22.0413 N   0  0  0  0  0  0
  -25.4199  -15.1911   20.4009 N   0  0  0  0  0  0
  -31.8479  -14.7299   20.1354 O   0  0  0  0  0  0
  -21.6633   -6.8884   21.4238 O   0  0  0  0  0  0
  -22.3530  -14.5534   20.6688 O   0  0  0  0  0  0
  -24.6261  -31.8626   23.1996 C   0  0  0  0  0  0
  -25.9147  -32.4765   23.8311 C   0  0  1  0  0  0
  -27.2332  -27.3185   20.0977 C   0  0  0  0  0  0
  -25.5978  -33.8550   24.2279 N   0  0  0  0  0  0
  -23.4196  -30.4802   21.5473 C   0  0  2  0  0  0
  -24.8657  -28.9346   20.1130 C   0  0  0  0  0  0
  -22.7485  -29.4619   22.4978 C   0  0  0  0  0  0
  -18.0282  -28.1386   22.8475 C   0  0  0  0  0  0
  -24.1507  -36.7256   23.2625 C   0  0  0  0  0  0
  -25.9624  -30.7821   21.3811 C   0  0  0  0  0  0
  -26.0336  -29.4109   20.7206 C   0  0  0  0  0  0
  -27.2144  -28.6091   20.7146 C   0  0  0  0  0  0
  -26.0458  -26.9100   19.4610 C   0  0  0  0  0  0
  -24.8709  -27.6834   19.4824 C   0  0  0  0  0  0
  -23.6327  -29.8119   20.1637 C   0  0  0  0  0  0
  -25.4127  -36.3063   24.0334 C   0  0  1  0  0  0
  -20.5883  -28.3695   23.1279 C   0  0  2  0  0  0
  -20.6761  -26.9422   22.5402 C   0  0  0  0  0  0
  -19.5741  -26.6382   21.5203 C   0  0  0  0  0  0
  -18.1932  -26.7932   22.1630 C   0  0  0  0  0  0
  -19.1529  -28.8865   23.2863 C   0  0  0  0  0  0
  -18.9449  -30.1474   23.8886 C   0  0  0  0  0  0
  -17.6441  -30.6590   24.0575 C   0  0  0  0  0  0
  -25.9086  -34.9431   23.5115 C   0  0  0  0  0  0
  -16.5336  -29.9088   23.6334 C   0  0  0  0  0  0
  -16.7264  -28.6499   23.0359 C   0  0  0  0  0  0
  -26.4531  -31.6547   25.0677 C   0  0  0  0  0  0
  -25.3756  -31.3660   26.1388 C   0  0  0  0  0  0
  -27.0353  -30.2954   24.6125 C   0  0  0  0  0  0
  -27.6117  -32.4248   25.7460 C   0  0  0  0  0  0
  -27.5587  -37.1775   24.8476 C   0  0  0  0  0  0
  -21.4201  -29.3035   22.3684 N   0  0  0  0  0  0
  -26.4303  -37.3755   23.9414 N   0  0  0  0  0  0
  -24.6874  -31.0593   22.0996 N   0  0  0  0  0  0
  -23.4198  -28.8198   23.3085 O   0  0  0  0  0  0
  -28.3538  -26.4709   20.1745 O   0  0  0  0  0  0
  -26.5623  -34.8914   22.4671 O   0  0  0  0  0  0
  -23.5419  -32.1430   23.7313 O   0  0  0  0  0  0
  -26.9792  -21.7371   19.5431 C   0  0  0  0  0  0
  -27.0903  -23.1189   19.2734 C   0  0  0  0  0  0
  -28.2687  -23.7774   19.7101 C   0  0  0  0  0  0
  -29.0999  -21.6299   20.3782 C   0  0  0  0  0  0
  -30.0262  -18.2462   21.8317 C   0  0  0  0  0  0
  -30.0118  -18.3043   19.8033 C   0  0  0  0  0  0
  -30.5353  -17.2028   20.7952 C   0  0  2  0  0  0
  -25.5071  -23.1127   17.4787 C   0  0  0  0  0  0
  -28.5591  -25.2918   19.2902 C   0  0  0  0  0  0
  -30.2513  -20.7613   20.9981 C   0  0  0  0  0  0
  -27.9716  -21.0054   20.0786 N   0  0  0  0  0  0
  -29.2669  -22.9839   20.2445 N   0  0  0  0  0  0
  -29.9738  -15.7890   20.8047 N   0  0  0  0  0  0
  -30.4871  -19.2530   20.8466 N   0  3  1  0  0  0
  -26.1146  -23.7923   18.5773 O   0  0  0  0  0  0
  -31.4695  -12.5026   19.1712 H   0  0  0  0  0  0
  -30.3511  -11.4133   19.9332 H   0  0  0  0  0  0
  -29.7705  -11.7437   17.5012 H   0  0  0  0  0  0
  -29.6494  -13.4708   17.7484 H   0  0  0  0  0  0
  -27.8653  -11.2926   18.8755 H   0  0  0  0  0  0
  -27.3760  -12.5726   17.7992 H   0  0  0  0  0  0
  -27.6585  -14.2553   19.5024 H   0  0  0  0  0  0
  -28.6985  -12.1295   21.4390 H   0  0  0  0  0  0
  -28.4404  -13.8133   21.8087 H   0  0  0  0  0  0
  -25.2784   -9.5653   22.4750 H   0  0  0  0  0  0
  -23.9977   -7.4630   22.7479 H   0  0  0  0  0  0
  -21.0821   -8.8827   19.8967 H   0  0  0  0  0  0
  -22.3732  -10.9690   19.6157 H   0  0  0  0  0  0
  -21.2059   -7.6145   23.9714 H   0  0  0  0  0  0
  -21.1458   -6.0506   25.9067 H   0  0  0  0  0  0
  -22.0608   -2.7593   23.2847 H   0  0  0  0  0  0
  -22.4097  -11.9925   22.4843 H   0  0  0  0  0  0
  -21.1092  -13.1272   22.2595 H   0  0  0  0  0  0
  -24.6459  -15.8372   20.5153 H   0  0  0  0  0  0
  -26.2516  -15.6347   20.0325 H   0  0  0  0  0  0
  -26.7229  -32.5443   23.1065 H   0  0  0  0  0  0
  -25.0157  -33.9687   25.0435 H   0  0  0  0  0  0
  -22.7108  -31.2979   21.4003 H   0  0  0  0  0  0
  -23.3804  -35.9559   23.3301 H   0  0  0  0  0  0
  -24.3605  -36.8854   22.2041 H   0  0  0  0  0  0
  -23.7250  -37.6454   23.6631 H   0  0  0  0  0  0
  -26.0983  -31.5445   20.6142 H   0  0  0  0  0  0
  -26.8426  -30.8239   22.0110 H   0  0  0  0  0  0
  -28.1119  -28.9619   21.2031 H   0  0  0  0  0  0
  -25.9879  -25.9726   18.9553 H   0  0  0  0  0  0
  -23.9793  -27.2982   19.0074 H   0  0  0  0  0  0
  -23.7443  -30.5812   19.3984 H   0  0  0  0  0  0
  -22.7558  -29.2327   19.8694 H   0  0  0  0  0  0
  -25.1311  -36.1914   25.0821 H   0  0  0  0  0  0
  -20.9956  -28.3263   24.1408 H   0  0  0  0  0  0
  -20.5651  -26.2322   23.3599 H   0  0  0  0  0  0
  -21.6634  -26.7444   22.1214 H   0  0  0  0  0  0
  -19.6908  -25.6287   21.1253 H   0  0  0  0  0  0
  -19.6689  -27.3179   20.6719 H   0  0  0  0  0  0
  -17.4206  -26.6684   21.4039 H   0  0  0  0  0  0
  -18.0345  -26.0072   22.9009 H   0  0  0  0  0  0
  -19.7912  -30.7300   24.2251 H   0  0  0  0  0  0
  -17.4982  -31.6269   24.5173 H   0  0  0  0  0  0
  -15.5333  -30.2995   23.7633 H   0  0  0  0  0  0
  -15.8669  -28.0813   22.7102 H   0  0  0  0  0  0
  -24.5987  -30.6972   25.7677 H   0  0  0  0  0  0
  -24.8893  -32.2803   26.4768 H   0  0  0  0  0  0
  -25.8063  -30.8855   27.0183 H   0  0  0  0  0  0
  -26.2915  -29.6742   24.1128 H   0  0  0  0  0  0
  -27.4024  -29.7160   25.4606 H   0  0  0  0  0  0
  -27.8799  -30.4221   23.9354 H   0  0  0  0  0  0
  -27.2766  -33.3558   26.2025 H   0  0  0  0  0  0
  -28.3929  -32.6774   25.0285 H   0  0  0  0  0  0
  -28.0785  -31.8373   26.5375 H   0  0  0  0  0  0
  -28.2618  -38.0057   24.7529 H   0  0  0  0  0  0
  -28.1080  -36.2602   24.6322 H   0  0  0  0  0  0
  -27.2293  -37.1427   25.8869 H   0  0  0  0  0  0
  -20.9415  -29.8739   21.6855 H   0  0  0  0  0  0
  -26.0209  -38.2835   24.1411 H   0  0  0  0  0  0
  -26.0820  -21.1870   19.2938 H   0  0  0  0  0  0
  -30.5823  -18.2663   22.7702 H   0  0  0  0  0  0
  -28.9439  -18.2463   21.9921 H   0  0  0  0  0  0
  -28.9314  -18.3053   19.6388 H   0  0  0  0  0  0
  -30.5661  -18.3676   18.8644 H   0  0  0  0  0  0
  -31.6328  -17.1794   20.7984 H   0  0  0  0  0  0
  -26.2577  -22.8286   16.7371 H   0  0  0  0  0  0
  -24.8042  -23.7845   16.9859 H   0  0  0  0  0  0
  -24.9433  -22.2261   17.7683 H   0  0  0  0  0  0
  -28.0987  -25.4932   18.3207 H   0  0  0  0  0  0
  -29.6232  -25.3170   19.0575 H   0  0  0  0  0  0
  -30.3035  -20.9996   22.0598 H   0  0  0  0  0  0
  -31.1569  -21.1934   20.5772 H   0  0  0  0  0  0
  -29.0121  -15.6633   21.0835 H   0  0  0  0  0  0
  -31.4921  -19.1840   20.8484 H   0  0  0  0  0  0
  1 25  1  0  0  0
  1 30  2  0  0  0
  1 83  1  0  0  0
  2  3  1  0  0  0
  2 25  1  0  0  0
  2 86  1  0  0  0
  2 87  1  0  0  0
  3  4  1  0  0  0
  3 88  1  0  0  0
  3 89  1  0  0  0
  4  5  1  0  0  0
  4 90  1  0  0  0
  4 91  1  0  0  0
  5  6  1  0  0  0
  5 26  1  0  0  0
  5 92  1  0  0  0
  6 25  1  0  0  0
  6 93  1  0  0  0
  6 94  1  0  0  0
  7  8  2  0  0  0
  7 26  1  0  0  0
  7 29  1  0  0  0
  8  9  1  0  0  0
  8 22  1  0  0  0
  9 10  1  0  0  0
  9 27  2  0  0  0
 10 11  2  0  0  0
 10 15  1  0  0  0
 11 12  1  0  0  0
 11 95  1  0  0  0
 12 13  2  0  0  0
 12 96  1  0  0  0
 13 14  1  0  0  0
 13 31  1  0  0  0
 14 15  2  0  0  0
 14 97  1  0  0  0
 15 98  1  0  0  0
 16 17  2  0  0  0
 16 21  1  0  0  0
 16 31  1  0  0  0
 17 18  1  0  0  0
 17 99  1  0  0  0
 18 19  2  0  0  0
 18100  1  0  0  0
 19 20  1  0  0  0
 19 24  1  0  0  0
 20 21  2  0  0  0
 20101  1  0  0  0
 21 23  1  0  0  0
 22 28  1  0  0  0
 22 32  2  0  0  0
 26 27  1  0  0  0
 28102  1  0  0  0
 28103  1  0  0  0
 29104  1  0  0  0
 29105  1  0  0  0
 33 34  1  0  0  0
 33 66  1  0  0  0
 33 70  2  0  0  0
 34 36  1  0  0  0
 34 59  1  0  0  0
 34106  1  0  0  0
 35 44  2  0  0  0
 35 45  1  0  0  0
 35 68  1  0  0  0
 36 56  1  0  0  0
 36107  1  0  0  0
 37 39  1  0  0  0
 37 47  1  0  0  0
 37 66  1  0  0  0
 37108  1  0  0  0
 38 43  2  0  0  0
 38 46  1  0  0  0
 38 47  1  0  0  0
 39 64  1  0  0  0
 39 67  2  0  0  0
 40 52  1  0  0  0
 40 53  2  0  0  0
 40 58  1  0  0  0
 41109  1  0  0  0
 41110  1  0  0  0
 41111  1  0  0  0
 41 48  1  0  0  0
 42 43  1  0  0  0
 42 66  1  0  0  0
 42112  1  0  0  0
 42113  1  0  0  0
 43 44  1  0  0  0
 44114  1  0  0  0
 45 46  2  0  0  0
 45115  1  0  0  0
 46116  1  0  0  0
 47117  1  0  0  0
 47118  1  0  0  0
 48 56  1  0  0  0
 48 65  1  0  0  0
 48119  1  0  0  0
 49 50  1  0  0  0
 49 53  1  0  0  0
 49 64  1  0  0  0
 49120  1  0  0  0
 50 51  1  0  0  0
 50121  1  0  0  0
 50122  1  0  0  0
 51 52  1  0  0  0
 51123  1  0  0  0
 51124  1  0  0  0
 52125  1  0  0  0
 52126  1  0  0  0
 53 54  1  0  0  0
 54 55  2  0  0  0
 54127  1  0  0  0
 55 57  1  0  0  0
 55128  1  0  0  0
 56 69  2  0  0  0
 57 58  2  0  0  0
 57129  1  0  0  0
 58130  1  0  0  0
 59 60  1  0  0  0
 59 61  1  0  0  0
 59 62  1  0  0  0
 60131  1  0  0  0
 60132  1  0  0  0
 60133  1  0  0  0
 61134  1  0  0  0
 61135  1  0  0  0
 61136  1  0  0  0
 62137  1  0  0  0
 62138  1  0  0  0
 62139  1  0  0  0
 63 65  1  0  0  0
 63140  1  0  0  0
 63141  1  0  0  0
 63142  1  0  0  0
 64143  1  0  0  0
 65144  1  0  0  0
 68 79  1  0  0  0
 71 72  2  0  0  0
 71 81  1  0  0  0
 71145  1  0  0  0
 72 73  1  0  0  0
 72 85  1  0  0  0
 73 79  1  0  0  0
 73 82  2  0  0  0
 74 80  1  0  0  0
 74 81  2  0  0  0
 74 82  1  0  0  0
 75 77  1  0  0  0
 75 84  1  0  0  0
 75146  1  0  0  0
 75147  1  0  0  0
 76 77  1  0  0  0
 76 84  1  0  0  0
 76148  1  0  0  0
 76149  1  0  0  0
 77 83  1  0  0  0
 77150  1  0  0  0
 78 85  1  0  0  0
 78151  1  0  0  0
 78152  1  0  0  0
 78153  1  0  0  0
 79154  1  0  0  0
 79155  1  0  0  0
 80156  1  0  0  0
 80157  1  0  0  0
 80 84  1  0  0  0
 83158  1  0  0  0
 84159  1  0  0  0
M  CHG  1  84   1
M  ISO  4   1 100  68 101  79 101  83 100
M  END
> <chiral flag>
0

> <version>
0

> <s_m_source_file>
/data/baiqing/PycharmProjects/Reinvent-master-3.2/result/LINK_invent/BTK/process_docking_weight1_custom_sum_contain_oxygen_bond_distance_aromatic_linkinvent_7_9_3/rearranged_h_0196.sdf

> <i_m_source_file_index>
65

> <r_mmod_Potential_Energy-OPLS-2005>
-325.563751220703

> <r_mmod_Stretch_Energy-OPLS-2005>
95.1395874023438

> <r_mmod_Bend_Energy-OPLS-2005>
269.241577148438

> <r_mmod_Torsional_Energy-OPLS-2005>
242.221374511719

> <r_mmod_Improper_Torsional_Energy-OPLS-2005>
6.37232685089111

> <r_mmod_Van_der_Waal_Energy-OPLS-2005>
157.239807128906

> <r_mmod_Electrostatic_Energy-OPLS-2005>
-650.878662109375

> <r_mmod_Solvation_Energy-OPLS-2005>
-496.5234375

> <b_mmod_Minimization_Converged-OPLS-2005>
0

> <r_mmod_RMS_Derivative-OPLS-2005>
3.95713663101196

$$$$
66
                    3D
 Structure written by MMmdl.
170179  0  0  1  0            999 V2000
  -30.6509  -14.8247   20.4566 C   0  0  0  0  0  0
  -30.4096  -12.5216   19.4807 C   0  0  0  0  0  0
  -29.4985  -12.5207   18.2365 C   0  0  0  0  0  0
  -28.0286  -12.3360   18.6522 C   0  0  0  0  0  0
  -27.6265  -13.2475   19.8433 C   0  0  2  0  0  0
  -28.6745  -13.2252   20.9757 C   0  0  0  0  0  0
  -25.2440  -13.8232   20.5715 C   0  0  0  0  0  0
  -24.1767  -13.0454   20.9261 C   0  0  0  0  0  0
  -24.6378  -11.6938   20.8776 C   0  0  0  0  0  0
  -23.9068  -10.4305   21.0416 C   0  0  0  0  0  0
  -24.3624   -9.4218   21.9189 C   0  0  0  0  0  0
  -23.6302   -8.2252   22.0751 C   0  0  0  0  0  0
  -22.4286   -8.0285   21.3537 C   0  0  0  0  0  0
  -21.9920   -9.0259   20.4643 C   0  0  0  0  0  0
  -22.7245  -10.2142   20.3060 C   0  0  0  0  0  0
  -21.6863   -6.0741   22.5277 C   0  0  0  0  0  0
  -21.4024   -6.5642   23.8210 C   0  0  0  0  0  0
  -21.3660   -5.6791   24.9170 C   0  0  0  0  0  0
  -21.6046   -4.3058   24.7222 C   0  0  0  0  0  0
  -21.8819   -3.8149   23.4343 C   0  0  0  0  0  0
  -21.9200   -4.6964   22.3400 C   0  0  0  0  0  0
  -22.7788  -13.5216   21.1900 C   0  0  0  0  0  0
  -22.1664   -4.2151   21.0977 F   0  0  0  0  0  0
  -21.5627   -3.4541   25.7734 F   0  0  0  0  0  0
  -29.9492  -13.6284   20.3696 N   0  0  0  0  0  0
  -26.2862  -12.9462   20.3279 N   0  0  0  0  0  0
  -25.9310  -11.6597   20.5775 N   0  0  0  0  0  0
  -22.0434  -12.8193   22.0442 N   0  0  0  0  0  0
  -25.4098  -15.1952   20.4046 N   0  0  0  0  0  0
  -31.8519  -14.7645   20.1741 O   0  0  0  0  0  0
  -21.6649   -6.8883   21.4239 O   0  0  0  0  0  0
  -22.3478  -14.5522   20.6740 O   0  0  0  0  0  0
  -24.6344  -31.8507   23.1941 C   0  0  0  0  0  0
  -25.9153  -32.4725   23.8302 C   0  0  1  0  0  0
  -27.2161  -27.2076   20.1523 C   0  0  0  0  0  0
  -25.5935  -33.8531   24.2227 N   0  0  0  0  0  0
  -23.4329  -30.4707   21.5376 C   0  0  2  0  0  0
  -24.8795  -28.9010   20.1158 C   0  0  0  0  0  0
  -22.7510  -29.4580   22.4896 C   0  0  0  0  0  0
  -18.0291  -28.1395   22.8474 C   0  0  0  0  0  0
  -24.1492  -36.7273   23.2640 C   0  0  0  0  0  0
  -25.9804  -30.7461   21.3817 C   0  0  0  0  0  0
  -26.0494  -29.3600   20.7330 C   0  0  0  0  0  0
  -27.2168  -28.5256   20.7393 C   0  0  0  0  0  0
  -26.0256  -26.8283   19.4958 C   0  0  0  0  0  0
  -24.8743  -27.6448   19.4872 C   0  0  0  0  0  0
  -23.6543  -29.7970   20.1566 C   0  0  0  0  0  0
  -25.4120  -36.3055   24.0321 C   0  0  1  0  0  0
  -20.5893  -28.3710   23.1255 C   0  0  2  0  0  0
  -20.6778  -26.9423   22.5407 C   0  0  0  0  0  0
  -19.5757  -26.6384   21.5209 C   0  0  0  0  0  0
  -18.1935  -26.7933   22.1619 C   0  0  0  0  0  0
  -19.1545  -28.8871   23.2857 C   0  0  0  0  0  0
  -18.9469  -30.1467   23.8883 C   0  0  0  0  0  0
  -17.6467  -30.6591   24.0563 C   0  0  0  0  0  0
  -25.9066  -34.9425   23.5081 C   0  0  0  0  0  0
  -16.5357  -29.9086   23.6335 C   0  0  0  0  0  0
  -16.7276  -28.6507   23.0348 C   0  0  0  0  0  0
  -26.4509  -31.6566   25.0711 C   0  0  0  0  0  0
  -25.3718  -31.3729   26.1421 C   0  0  0  0  0  0
  -27.0370  -30.2974   24.6244 C   0  0  0  0  0  0
  -27.6054  -32.4318   25.7493 C   0  0  0  0  0  0
  -27.5582  -37.1788   24.8462 C   0  0  0  0  0  0
  -21.4214  -29.3044   22.3638 N   0  0  0  0  0  0
  -26.4290  -37.3759   23.9411 N   0  0  0  0  0  0
  -24.7016  -31.0433   22.0936 N   0  0  0  0  0  0
  -23.4191  -28.8127   23.3017 O   0  0  0  0  0  0
  -28.3492  -26.3460   20.1396 O   0  0  0  0  0  0
  -26.5647  -34.8910   22.4658 O   0  0  0  0  0  0
  -23.5487  -32.1353   23.7210 O   0  0  0  0  0  0
  -29.4671  -22.9175   19.6401 C   0  0  0  0  0  0
  -27.4191  -22.8367   20.7382 C   0  0  0  0  0  0
  -28.4775  -22.0556   20.1803 C   0  0  0  0  0  0
  -28.3285  -24.9264   20.1622 C   0  0  0  0  0  0
  -30.9212  -17.3290   20.2070 C   0  0  0  0  0  0
  -30.2560  -18.6963   19.7177 C   0  0  0  0  0  0
  -28.2320  -17.9986   20.7202 C   0  0  0  0  0  0
  -28.9101  -16.6715   21.3486 C   0  0  2  0  0  0
  -27.9471  -17.0998   23.7012 C   0  0  0  0  0  0
  -31.5677  -17.1297   25.0738 C   0  0  0  0  0  0
  -28.3491  -20.4563   19.8850 C   0  0  0  0  0  0
  -30.1016  -15.7787   23.5618 C   0  0  0  0  0  0
  -29.2397  -16.8832   22.8777 C   0  0  1  0  0  0
  -29.3978  -24.2935   19.6491 N   0  0  0  0  0  0
  -27.3458  -24.2152   20.7343 N   0  0  0  0  0  0
  -30.0707  -16.1275   20.5551 N   0  0  0  0  0  0
  -29.1002  -19.2275   20.5144 N   0  3  2  0  0  0
  -30.5099  -16.1053   24.9482 N   0  3  0  0  0  0
  -31.4492  -12.6233   19.1667 H   0  0  0  0  0  0
  -30.3571  -11.5615   19.9972 H   0  0  0  0  0  0
  -29.7952  -11.7288   17.5475 H   0  0  0  0  0  0
  -29.6136  -13.4602   17.6933 H   0  0  0  0  0  0
  -27.8940  -11.2882   18.9237 H   0  0  0  0  0  0
  -27.3710  -12.5146   17.8008 H   0  0  0  0  0  0
  -27.6039  -14.2620   19.4441 H   0  0  0  0  0  0
  -28.7474  -12.2270   21.4107 H   0  0  0  0  0  0
  -28.3871  -13.8746   21.7988 H   0  0  0  0  0  0
  -25.2767   -9.5699   22.4766 H   0  0  0  0  0  0
  -24.0013   -7.4646   22.7471 H   0  0  0  0  0  0
  -21.0852   -8.8775   19.8948 H   0  0  0  0  0  0
  -22.3698  -10.9679   19.6171 H   0  0  0  0  0  0
  -21.2016   -7.6150   23.9712 H   0  0  0  0  0  0
  -21.1481   -6.0524   25.9069 H   0  0  0  0  0  0
  -22.0599   -2.7612   23.2846 H   0  0  0  0  0  0
  -22.4050  -11.9842   22.4813 H   0  0  0  0  0  0
  -21.1041  -13.1200   22.2626 H   0  0  0  0  0  0
  -24.6202  -15.8284   20.4680 H   0  0  0  0  0  0
  -26.2061  -15.6026   19.9358 H   0  0  0  0  0  0
  -26.7212  -32.5362   23.1035 H   0  0  0  0  0  0
  -25.0063  -33.9667   25.0359 H   0  0  0  0  0  0
  -22.7314  -31.2938   21.3858 H   0  0  0  0  0  0
  -23.3762  -35.9596   23.3281 H   0  0  0  0  0  0
  -24.3585  -36.8925   22.2061 H   0  0  0  0  0  0
  -23.7240  -37.6460   23.6687 H   0  0  0  0  0  0
  -26.1250  -31.4993   20.6060 H   0  0  0  0  0  0
  -26.8566  -30.8002   22.0166 H   0  0  0  0  0  0
  -28.1170  -28.8794   21.2219 H   0  0  0  0  0  0
  -25.9708  -25.8706   18.9981 H   0  0  0  0  0  0
  -23.9803  -27.2905   18.9930 H   0  0  0  0  0  0
  -23.7852  -30.5699   19.3983 H   0  0  0  0  0  0
  -22.7714  -29.2331   19.8499 H   0  0  0  0  0  0
  -25.1307  -36.1890   25.0814 H   0  0  0  0  0  0
  -20.9990  -28.3299   24.1374 H   0  0  0  0  0  0
  -20.5679  -26.2324   23.3619 H   0  0  0  0  0  0
  -21.6645  -26.7440   22.1202 H   0  0  0  0  0  0
  -19.6923  -25.6292   21.1247 H   0  0  0  0  0  0
  -19.6698  -27.3188   20.6734 H   0  0  0  0  0  0
  -17.4206  -26.6675   21.4020 H   0  0  0  0  0  0
  -18.0334  -26.0075   22.9019 H   0  0  0  0  0  0
  -19.7945  -30.7287   24.2244 H   0  0  0  0  0  0
  -17.5019  -31.6271   24.5169 H   0  0  0  0  0  0
  -15.5358  -30.2986   23.7669 H   0  0  0  0  0  0
  -15.8671  -28.0828   22.7069 H   0  0  0  0  0  0
  -24.5894  -30.7085   25.7735 H   0  0  0  0  0  0
  -24.8912  -32.2903   26.4827 H   0  0  0  0  0  0
  -25.8013  -30.8907   27.0211 H   0  0  0  0  0  0
  -26.2968  -29.6697   24.1266 H   0  0  0  0  0  0
  -27.4024  -29.7269   25.4795 H   0  0  0  0  0  0
  -27.8859  -30.4231   23.9519 H   0  0  0  0  0  0
  -27.2653  -33.3623   26.2052 H   0  0  0  0  0  0
  -28.3872  -32.6869   25.0324 H   0  0  0  0  0  0
  -28.0712  -31.8455   26.5426 H   0  0  0  0  0  0
  -28.2575  -38.0107   24.7528 H   0  0  0  0  0  0
  -28.1103  -36.2638   24.6262 H   0  0  0  0  0  0
  -27.2303  -37.1401   25.8864 H   0  0  0  0  0  0
  -20.9414  -29.8753   21.6821 H   0  0  0  0  0  0
  -26.0163  -38.2829   24.1417 H   0  0  0  0  0  0
  -30.3167  -22.4986   19.1210 H   0  0  0  0  0  0
  -26.5487  -22.3399   21.1408 H   0  0  0  0  0  0
  -31.5426  -17.5440   21.0778 H   0  0  0  0  0  0
  -31.6289  -17.0587   19.4212 H   0  0  0  0  0  0
  -29.9147  -18.5461   18.6922 H   0  0  0  0  0  0
  -31.0215  -19.4709   19.6563 H   0  0  0  0  0  0
  -27.3521  -18.2839   21.2933 H   0  0  0  0  0  0
  -27.8279  -17.7245   19.7441 H   0  0  0  0  0  0
  -28.1289  -15.9187   21.2920 H   0  0  0  0  0  0
  -27.4032  -17.9955   23.4065 H   0  0  0  0  0  0
  -28.1480  -17.2306   24.7643 H   0  0  0  0  0  0
  -27.2659  -16.2529   23.6038 H   0  0  0  0  0  0
  -31.8699  -17.2297   26.1164 H   0  0  0  0  0  0
  -31.2265  -18.1080   24.7350 H   0  0  0  0  0  0
  -32.4521  -16.8550   24.4978 H   0  0  0  0  0  0
  -28.4212  -20.3504   18.8017 H   0  0  0  0  0  0
  -27.2927  -20.2637   20.0758 H   0  0  0  0  0  0
  -31.0199  -15.5860   23.0105 H   0  0  0  0  0  0
  -29.5481  -14.8398   23.5842 H   0  0  0  0  0  0
  -29.8190  -17.8034   22.9399 H   0  0  0  0  0  0
  -29.4380  -19.5090   21.4219 H   0  0  0  0  0  0
  -29.7055  -16.3875   25.4851 H   0  0  0  0  0  0
  -30.8631  -15.2623   25.3732 H   0  0  0  0  0  0
  1 25  1  0  0  0
  1 30  2  0  0  0
  1 86  1  0  0  0
  2  3  1  0  0  0
  2 25  1  0  0  0
  2 89  1  0  0  0
  2 90  1  0  0  0
  3  4  1  0  0  0
  3 91  1  0  0  0
  3 92  1  0  0  0
  4  5  1  0  0  0
  4 93  1  0  0  0
  4 94  1  0  0  0
  5  6  1  0  0  0
  5 26  1  0  0  0
  5 95  1  0  0  0
  6 25  1  0  0  0
  6 96  1  0  0  0
  6 97  1  0  0  0
  7  8  2  0  0  0
  7 26  1  0  0  0
  7 29  1  0  0  0
  8  9  1  0  0  0
  8 22  1  0  0  0
  9 10  1  0  0  0
  9 27  2  0  0  0
 10 11  2  0  0  0
 10 15  1  0  0  0
 11 12  1  0  0  0
 11 98  1  0  0  0
 12 13  2  0  0  0
 12 99  1  0  0  0
 13 14  1  0  0  0
 13 31  1  0  0  0
 14 15  2  0  0  0
 14100  1  0  0  0
 15101  1  0  0  0
 16 17  2  0  0  0
 16 21  1  0  0  0
 16 31  1  0  0  0
 17 18  1  0  0  0
 17102  1  0  0  0
 18 19  2  0  0  0
 18103  1  0  0  0
 19 20  1  0  0  0
 19 24  1  0  0  0
 20 21  2  0  0  0
 20104  1  0  0  0
 21 23  1  0  0  0
 22 28  1  0  0  0
 22 32  2  0  0  0
 26 27  1  0  0  0
 28105  1  0  0  0
 28106  1  0  0  0
 29107  1  0  0  0
 29108  1  0  0  0
 33 34  1  0  0  0
 33 66  1  0  0  0
 33 70  2  0  0  0
 34 36  1  0  0  0
 34 59  1  0  0  0
 34109  1  0  0  0
 35 44  2  0  0  0
 35 45  1  0  0  0
 35 68  1  0  0  0
 36 56  1  0  0  0
 36110  1  0  0  0
 37 39  1  0  0  0
 37 47  1  0  0  0
 37 66  1  0  0  0
 37111  1  0  0  0
 38 43  2  0  0  0
 38 46  1  0  0  0
 38 47  1  0  0  0
 39 64  1  0  0  0
 39 67  2  0  0  0
 40 52  1  0  0  0
 40 53  2  0  0  0
 40 58  1  0  0  0
 41112  1  0  0  0
 41113  1  0  0  0
 41114  1  0  0  0
 41 48  1  0  0  0
 42 43  1  0  0  0
 42 66  1  0  0  0
 42115  1  0  0  0
 42116  1  0  0  0
 43 44  1  0  0  0
 44117  1  0  0  0
 45 46  2  0  0  0
 45118  1  0  0  0
 46119  1  0  0  0
 47120  1  0  0  0
 47121  1  0  0  0
 48 56  1  0  0  0
 48 65  1  0  0  0
 48122  1  0  0  0
 49 50  1  0  0  0
 49 53  1  0  0  0
 49 64  1  0  0  0
 49123  1  0  0  0
 50 51  1  0  0  0
 50124  1  0  0  0
 50125  1  0  0  0
 51 52  1  0  0  0
 51126  1  0  0  0
 51127  1  0  0  0
 52128  1  0  0  0
 52129  1  0  0  0
 53 54  1  0  0  0
 54 55  2  0  0  0
 54130  1  0  0  0
 55 57  1  0  0  0
 55131  1  0  0  0
 56 69  2  0  0  0
 57 58  2  0  0  0
 57132  1  0  0  0
 58133  1  0  0  0
 59 60  1  0  0  0
 59 61  1  0  0  0
 59 62  1  0  0  0
 60134  1  0  0  0
 60135  1  0  0  0
 60136  1  0  0  0
 61137  1  0  0  0
 61138  1  0  0  0
 61139  1  0  0  0
 62140  1  0  0  0
 62141  1  0  0  0
 62142  1  0  0  0
 63 65  1  0  0  0
 63143  1  0  0  0
 63144  1  0  0  0
 63145  1  0  0  0
 64146  1  0  0  0
 65147  1  0  0  0
 68 74  1  0  0  0
 71 73  2  0  0  0
 71 84  1  0  0  0
 71148  1  0  0  0
 72 73  1  0  0  0
 72 85  2  0  0  0
 72149  1  0  0  0
 73 81  1  0  0  0
 74 84  2  0  0  0
 74 85  1  0  0  0
 75 76  1  0  0  0
 75 86  1  0  0  0
 75150  1  0  0  0
 75151  1  0  0  0
 76 87  1  0  0  0
 76152  1  0  0  0
 76153  1  0  0  0
 77 87  1  0  0  0
 77154  1  0  0  0
 77155  1  0  0  0
 77 78  1  0  0  0
 78 83  1  0  0  0
 78 86  1  0  0  0
 78156  1  0  0  0
 79157  1  0  0  0
 79158  1  0  0  0
 79159  1  0  0  0
 79 83  1  0  0  0
 80 88  1  0  0  0
 80160  1  0  0  0
 80161  1  0  0  0
 80162  1  0  0  0
 81163  1  0  0  0
 81164  1  0  0  0
 81 87  1  0  0  0
 82 83  1  0  0  0
 82 88  1  0  0  0
 82165  1  0  0  0
 82166  1  0  0  0
 83167  1  0  0  0
 87168  1  0  0  0
 88169  1  0  0  0
 88170  1  0  0  0
M  CHG  2  87   1  88   1
M  ISO  4   1 100  68 101  74 101  86 100
M  END
> <chiral flag>
0

> <version>
0

> <s_m_source_file>
/data/baiqing/PycharmProjects/Reinvent-master-3.2/result/LINK_invent/BTK/process_docking_weight1_custom_sum_contain_oxygen_bond_distance_aromatic_linkinvent_7_9_3/rearranged_h_0196.sdf

> <i_m_source_file_index>
66

> <r_mmod_Potential_Energy-OPLS-2005>
-75.6474914550781

> <r_mmod_Stretch_Energy-OPLS-2005>
161.081558227539

> <r_mmod_Bend_Energy-OPLS-2005>
284.152984619141

> <r_mmod_Torsional_Energy-OPLS-2005>
395.084442138672

> <r_mmod_Improper_Torsional_Energy-OPLS-2005>
12.1692609786987

> <r_mmod_Van_der_Waal_Energy-OPLS-2005>
150.700149536133

> <r_mmod_Electrostatic_Energy-OPLS-2005>
-222.353088378906

> <r_mmod_Solvation_Energy-OPLS-2005>
-970.490539550781

> <b_mmod_Minimization_Converged-OPLS-2005>
0

> <r_mmod_RMS_Derivative-OPLS-2005>
0.958002030849457

$$$$
67
                    3D
 Structure written by MMmdl.
173181  0  0  1  0            999 V2000
  -30.6916  -14.4935   20.4789 C   0  0  0  0  0  0
  -30.4191  -12.2964   19.4428 C   0  0  0  0  0  0
  -29.5034  -12.4865   18.2140 C   0  0  0  0  0  0
  -28.0200  -12.3597   18.6168 C   0  0  0  0  0  0
  -27.6555  -13.2121   19.8633 C   0  0  2  0  0  0
  -28.6985  -13.0404   20.9929 C   0  0  0  0  0  0
  -25.2564  -13.8175   20.5637 C   0  0  0  0  0  0
  -24.1828  -13.0442   20.9165 C   0  0  0  0  0  0
  -24.6384  -11.6915   20.8719 C   0  0  0  0  0  0
  -23.9052  -10.4302   21.0395 C   0  0  0  0  0  0
  -24.3613   -9.4219   21.9168 C   0  0  0  0  0  0
  -23.6300   -8.2251   22.0747 C   0  0  0  0  0  0
  -22.4284   -8.0283   21.3536 C   0  0  0  0  0  0
  -21.9913   -9.0256   20.4639 C   0  0  0  0  0  0
  -22.7228  -10.2136   20.3046 C   0  0  0  0  0  0
  -21.6864   -6.0729   22.5267 C   0  0  0  0  0  0
  -21.4018   -6.5631   23.8198 C   0  0  0  0  0  0
  -21.3665   -5.6785   24.9161 C   0  0  0  0  0  0
  -21.6056   -4.3052   24.7214 C   0  0  0  0  0  0
  -21.8826   -3.8142   23.4339 C   0  0  0  0  0  0
  -21.9195   -4.6956   22.3395 C   0  0  0  0  0  0
  -22.7859  -13.5250   21.1838 C   0  0  0  0  0  0
  -22.1673   -4.2142   21.0973 F   0  0  0  0  0  0
  -21.5627   -3.4540   25.7734 F   0  0  0  0  0  0
  -30.0305  -13.3093   20.4336 N   0  0  0  0  0  0
  -26.2987  -12.9345   20.3289 N   0  0  0  0  0  0
  -25.9313  -11.6501   20.5740 N   0  0  0  0  0  0
  -22.0503  -12.8231   22.0398 N   0  0  0  0  0  0
  -25.4254  -15.1898   20.4045 N   0  0  0  0  0  0
  -31.8811  -14.6078   20.1758 O   0  0  0  0  0  0
  -21.6649   -6.8876   21.4236 O   0  0  0  0  0  0
  -22.3540  -14.5556   20.6696 O   0  0  0  0  0  0
  -24.6137  -31.8663   23.2145 C   0  0  0  0  0  0
  -25.9033  -32.4824   23.8415 C   0  0  1  0  0  0
  -27.2363  -27.4402   20.0774 C   0  0  0  0  0  0
  -25.5886  -33.8625   24.2336 N   0  0  0  0  0  0
  -23.4003  -30.4927   21.5544 C   0  0  2  0  0  0
  -24.8444  -28.9616   20.1152 C   0  0  0  0  0  0
  -22.7388  -29.4657   22.5001 C   0  0  0  0  0  0
  -18.0263  -28.1368   22.8498 C   0  0  0  0  0  0
  -24.1483  -36.7329   23.2637 C   0  0  0  0  0  0
  -25.9301  -30.8316   21.3685 C   0  0  0  0  0  0
  -26.0060  -29.4685   20.7113 C   0  0  0  0  0  0
  -27.2004  -28.7140   20.6907 C   0  0  0  0  0  0
  -26.0491  -26.9485   19.4795 C   0  0  0  0  0  0
  -24.8604  -27.6994   19.5014 C   0  0  0  0  0  0
  -23.6073  -29.8266   20.1686 C   0  0  0  0  0  0
  -25.4102  -36.3118   24.0335 C   0  0  1  0  0  0
  -20.5850  -28.3651   23.1326 C   0  0  2  0  0  0
  -20.6754  -26.9388   22.5412 C   0  0  0  0  0  0
  -19.5737  -26.6383   21.5205 C   0  0  0  0  0  0
  -18.1915  -26.7916   22.1621 C   0  0  0  0  0  0
  -19.1512  -28.8828   23.2910 C   0  0  0  0  0  0
  -18.9444  -30.1437   23.8920 C   0  0  0  0  0  0
  -17.6450  -30.6582   24.0564 C   0  0  0  0  0  0
  -25.9028  -34.9479   23.5138 C   0  0  0  0  0  0
  -16.5340  -29.9079   23.6335 C   0  0  0  0  0  0
  -16.7255  -28.6494   23.0354 C   0  0  0  0  0  0
  -26.4470  -31.6615   25.0748 C   0  0  0  0  0  0
  -25.3751  -31.3698   26.1513 C   0  0  0  0  0  0
  -27.0309  -30.3060   24.6128 C   0  0  0  0  0  0
  -27.6044  -32.4336   25.7500 C   0  0  0  0  0  0
  -27.5573  -37.1813   24.8457 C   0  0  0  0  0  0
  -21.4117  -29.3027   22.3738 N   0  0  0  0  0  0
  -26.4287  -37.3799   23.9408 N   0  0  0  0  0  0
  -24.6666  -31.0763   22.1045 N   0  0  0  0  0  0
  -23.4167  -28.8173   23.3016 O   0  0  0  0  0  0
  -28.4310  -26.7421   20.1005 O   0  0  0  0  0  0
  -26.5586  -34.8920   22.4698 O   0  0  0  0  0  0
  -23.5337  -32.1415   23.7551 O   0  0  0  0  0  0
  -30.8947  -16.8106   18.4746 C   0  0  0  0  0  0
  -32.3400  -17.3601   18.6199 C   0  0  0  0  0  0
  -32.0987  -17.7595   21.0646 C   0  0  0  0  0  0
  -30.0664  -16.8856   19.7972 C   0  0  1  0  0  0
  -30.6272  -18.0652   20.6508 C   0  0  1  0  0  0
  -26.9717  -24.5720   21.5897 C   0  0  0  0  0  0
  -30.3960  -19.4312   22.6821 C   0  0  0  0  0  0
  -28.5366  -20.4444   20.4147 C   0  0  0  0  0  0
  -28.4667  -19.1588   21.3012 C   0  0  0  0  0  0
  -28.4394  -21.8079   21.1507 C   0  0  0  0  0  0
  -28.4999  -25.3775   19.6529 C   0  0  0  0  0  0
  -28.2581  -24.3169   20.7711 C   0  0  2  0  0  0
  -29.8989  -15.5854   20.5153 N   0  0  0  0  0  0
  -29.7330  -18.5288   21.7380 N   0  0  0  0  0  0
  -32.8632  -17.1010   19.9775 N   0  3  0  0  0  0
  -28.2705  -22.9379   20.1948 N   0  3  0  0  0  0
  -31.4676  -12.3774   19.1510 H   0  0  0  0  0  0
  -30.3032  -11.2951   19.8626 H   0  0  0  0  0  0
  -29.7510  -11.7497   17.4493 H   0  0  0  0  0  0
  -29.6824  -13.4636   17.7616 H   0  0  0  0  0  0
  -27.8218  -11.3058   18.8149 H   0  0  0  0  0  0
  -27.3811  -12.6334   17.7745 H   0  0  0  0  0  0
  -27.6820  -14.2522   19.5412 H   0  0  0  0  0  0
  -28.6613  -12.0258   21.3912 H   0  0  0  0  0  0
  -28.4786  -13.7035   21.8315 H   0  0  0  0  0  0
  -25.2761   -9.5711   22.4723 H   0  0  0  0  0  0
  -24.0026   -7.4652   22.7469 H   0  0  0  0  0  0
  -21.0843   -8.8753   19.8957 H   0  0  0  0  0  0
  -22.3672  -10.9662   19.6147 H   0  0  0  0  0  0
  -21.2008   -7.6142   23.9694 H   0  0  0  0  0  0
  -21.1487   -6.0516   25.9058 H   0  0  0  0  0  0
  -22.0604   -2.7604   23.2829 H   0  0  0  0  0  0
  -22.4131  -11.9911   22.4819 H   0  0  0  0  0  0
  -21.1103  -13.1223   22.2593 H   0  0  0  0  0  0
  -24.6551  -15.8411   20.5131 H   0  0  0  0  0  0
  -26.2719  -15.6307   20.0696 H   0  0  0  0  0  0
  -26.7084  -32.5523   23.1159 H   0  0  0  0  0  0
  -25.0039  -33.9793   25.0481 H   0  0  0  0  0  0
  -22.6902  -31.3113   21.4170 H   0  0  0  0  0  0
  -23.3740  -35.9669   23.3317 H   0  0  0  0  0  0
  -24.3570  -36.8940   22.2047 H   0  0  0  0  0  0
  -23.7254  -37.6543   23.6653 H   0  0  0  0  0  0
  -26.0433  -31.6007   20.6031 H   0  0  0  0  0  0
  -26.8186  -30.8817   21.9867 H   0  0  0  0  0  0
  -28.0995  -29.1039   21.1495 H   0  0  0  0  0  0
  -25.9982  -25.9897   18.9891 H   0  0  0  0  0  0
  -23.9651  -27.3026   19.0416 H   0  0  0  0  0  0
  -23.7137  -30.6025   19.4097 H   0  0  0  0  0  0
  -22.7323  -29.2429   19.8754 H   0  0  0  0  0  0
  -25.1278  -36.1978   25.0825 H   0  0  0  0  0  0
  -20.9946  -28.3212   24.1448 H   0  0  0  0  0  0
  -20.5658  -26.2243   23.3589 H   0  0  0  0  0  0
  -21.6621  -26.7433   22.1199 H   0  0  0  0  0  0
  -19.6897  -25.6299   21.1219 H   0  0  0  0  0  0
  -19.6688  -27.3208   20.6749 H   0  0  0  0  0  0
  -17.4176  -26.6669   21.4026 H   0  0  0  0  0  0
  -18.0331  -26.0038   22.9004 H   0  0  0  0  0  0
  -19.7920  -30.7239   24.2299 H   0  0  0  0  0  0
  -17.5009  -31.6274   24.5143 H   0  0  0  0  0  0
  -15.5343  -30.2988   23.7663 H   0  0  0  0  0  0
  -15.8649  -28.0834   22.7059 H   0  0  0  0  0  0
  -24.5912  -30.7056   25.7852 H   0  0  0  0  0  0
  -24.8958  -32.2840   26.5016 H   0  0  0  0  0  0
  -25.8126  -30.8826   27.0236 H   0  0  0  0  0  0
  -26.2855  -29.6810   24.1194 H   0  0  0  0  0  0
  -27.4088  -29.7309   25.4590 H   0  0  0  0  0  0
  -27.8685  -30.4391   23.9283 H   0  0  0  0  0  0
  -27.2673  -33.3618   26.2129 H   0  0  0  0  0  0
  -28.3834  -32.6928   25.0317 H   0  0  0  0  0  0
  -28.0745  -31.8430   26.5378 H   0  0  0  0  0  0
  -28.2587  -38.0109   24.7512 H   0  0  0  0  0  0
  -28.1073  -36.2643   24.6283 H   0  0  0  0  0  0
  -27.2290  -37.1468   25.8857 H   0  0  0  0  0  0
  -20.9264  -29.8764   21.6984 H   0  0  0  0  0  0
  -26.0180  -38.2877   24.1416 H   0  0  0  0  0  0
  -30.9138  -15.8021   18.0634 H   0  0  0  0  0  0
  -30.3982  -17.4042   17.7055 H   0  0  0  0  0  0
  -32.3633  -18.4348   18.4312 H   0  0  0  0  0  0
  -32.9966  -16.9064   17.8767 H   0  0  0  0  0  0
  -32.1314  -17.1116   21.9413 H   0  0  0  0  0  0
  -32.6181  -18.6817   21.3266 H   0  0  0  0  0  0
  -29.0560  -17.1339   19.4752 H   0  0  0  0  0  0
  -30.7152  -18.9135   19.9742 H   0  0  0  0  0  0
  -26.9957  -25.5566   22.0575 H   0  0  0  0  0  0
  -26.8503  -23.8579   22.4031 H   0  0  0  0  0  0
  -26.0780  -24.5238   20.9686 H   0  0  0  0  0  0
  -30.8183  -20.3017   22.1778 H   0  0  0  0  0  0
  -31.2000  -18.9281   23.2195 H   0  0  0  0  0  0
  -29.6984  -19.7860   23.4452 H   0  0  0  0  0  0
  -27.6697  -20.3925   19.7553 H   0  0  0  0  0  0
  -29.3867  -20.4488   19.7379 H   0  0  0  0  0  0
  -27.8937  -18.4084   20.7597 H   0  0  0  0  0  0
  -27.8504  -19.3690   22.1775 H   0  0  0  0  0  0
  -29.3354  -21.9825   21.7470 H   0  0  0  0  0  0
  -27.6004  -21.7794   21.8452 H   0  0  0  0  0  0
  -27.8907  -25.1940   18.7697 H   0  0  0  0  0  0
  -29.5181  -25.2422   19.2868 H   0  0  0  0  0  0
  -29.1027  -24.3964   21.4584 H   0  0  0  0  0  0
  -28.9655  -15.4112   20.8559 H   0  0  0  0  0  0
  -33.8425  -17.3297   20.0455 H   0  0  0  0  0  0
  -32.7591  -16.0955   20.1177 H   0  0  0  0  0  0
  -27.4254  -22.7897   19.6640 H   0  0  0  0  0  0
  -29.0361  -22.8882   19.5397 H   0  0  0  0  0  0
  1 25  1  0  0  0
  1 30  2  0  0  0
  1 83  1  0  0  0
  2  3  1  0  0  0
  2 25  1  0  0  0
  2 87  1  0  0  0
  2 88  1  0  0  0
  3  4  1  0  0  0
  3 89  1  0  0  0
  3 90  1  0  0  0
  4  5  1  0  0  0
  4 91  1  0  0  0
  4 92  1  0  0  0
  5  6  1  0  0  0
  5 26  1  0  0  0
  5 93  1  0  0  0
  6 25  1  0  0  0
  6 94  1  0  0  0
  6 95  1  0  0  0
  7  8  2  0  0  0
  7 26  1  0  0  0
  7 29  1  0  0  0
  8  9  1  0  0  0
  8 22  1  0  0  0
  9 10  1  0  0  0
  9 27  2  0  0  0
 10 11  2  0  0  0
 10 15  1  0  0  0
 11 12  1  0  0  0
 11 96  1  0  0  0
 12 13  2  0  0  0
 12 97  1  0  0  0
 13 14  1  0  0  0
 13 31  1  0  0  0
 14 15  2  0  0  0
 14 98  1  0  0  0
 15 99  1  0  0  0
 16 17  2  0  0  0
 16 21  1  0  0  0
 16 31  1  0  0  0
 17 18  1  0  0  0
 17100  1  0  0  0
 18 19  2  0  0  0
 18101  1  0  0  0
 19 20  1  0  0  0
 19 24  1  0  0  0
 20 21  2  0  0  0
 20102  1  0  0  0
 21 23  1  0  0  0
 22 28  1  0  0  0
 22 32  2  0  0  0
 26 27  1  0  0  0
 28103  1  0  0  0
 28104  1  0  0  0
 29105  1  0  0  0
 29106  1  0  0  0
 33 34  1  0  0  0
 33 66  1  0  0  0
 33 70  2  0  0  0
 34 36  1  0  0  0
 34 59  1  0  0  0
 34107  1  0  0  0
 35 44  2  0  0  0
 35 45  1  0  0  0
 35 68  1  0  0  0
 36 56  1  0  0  0
 36108  1  0  0  0
 37 39  1  0  0  0
 37 47  1  0  0  0
 37 66  1  0  0  0
 37109  1  0  0  0
 38 43  2  0  0  0
 38 46  1  0  0  0
 38 47  1  0  0  0
 39 64  1  0  0  0
 39 67  2  0  0  0
 40 52  1  0  0  0
 40 53  2  0  0  0
 40 58  1  0  0  0
 41110  1  0  0  0
 41111  1  0  0  0
 41112  1  0  0  0
 41 48  1  0  0  0
 42 43  1  0  0  0
 42 66  1  0  0  0
 42113  1  0  0  0
 42114  1  0  0  0
 43 44  1  0  0  0
 44115  1  0  0  0
 45 46  2  0  0  0
 45116  1  0  0  0
 46117  1  0  0  0
 47118  1  0  0  0
 47119  1  0  0  0
 48 56  1  0  0  0
 48 65  1  0  0  0
 48120  1  0  0  0
 49 50  1  0  0  0
 49 53  1  0  0  0
 49 64  1  0  0  0
 49121  1  0  0  0
 50 51  1  0  0  0
 50122  1  0  0  0
 50123  1  0  0  0
 51 52  1  0  0  0
 51124  1  0  0  0
 51125  1  0  0  0
 52126  1  0  0  0
 52127  1  0  0  0
 53 54  1  0  0  0
 54 55  2  0  0  0
 54128  1  0  0  0
 55 57  1  0  0  0
 55129  1  0  0  0
 56 69  2  0  0  0
 57 58  2  0  0  0
 57130  1  0  0  0
 58131  1  0  0  0
 59 60  1  0  0  0
 59 61  1  0  0  0
 59 62  1  0  0  0
 60132  1  0  0  0
 60133  1  0  0  0
 60134  1  0  0  0
 61135  1  0  0  0
 61136  1  0  0  0
 61137  1  0  0  0
 62138  1  0  0  0
 62139  1  0  0  0
 62140  1  0  0  0
 63 65  1  0  0  0
 63141  1  0  0  0
 63142  1  0  0  0
 63143  1  0  0  0
 64144  1  0  0  0
 65145  1  0  0  0
 68 81  1  0  0  0
 71 72  1  0  0  0
 71 74  1  0  0  0
 71146  1  0  0  0
 71147  1  0  0  0
 72 85  1  0  0  0
 72148  1  0  0  0
 72149  1  0  0  0
 73 75  1  0  0  0
 73 85  1  0  0  0
 73150  1  0  0  0
 73151  1  0  0  0
 74 75  1  0  0  0
 74 83  1  0  0  0
 74152  1  0  0  0
 75 84  1  0  0  0
 75153  1  0  0  0
 76154  1  0  0  0
 76155  1  0  0  0
 76156  1  0  0  0
 76 82  1  0  0  0
 77 84  1  0  0  0
 77157  1  0  0  0
 77158  1  0  0  0
 77159  1  0  0  0
 78 79  1  0  0  0
 78 80  1  0  0  0
 78160  1  0  0  0
 78161  1  0  0  0
 79 84  1  0  0  0
 79162  1  0  0  0
 79163  1  0  0  0
 80 86  1  0  0  0
 80164  1  0  0  0
 80165  1  0  0  0
 81 82  1  0  0  0
 81166  1  0  0  0
 81167  1  0  0  0
 82 86  1  0  0  0
 82168  1  0  0  0
 83169  1  0  0  0
 85170  1  0  0  0
 85171  1  0  0  0
 86172  1  0  0  0
 86173  1  0  0  0
M  CHG  2  85   1  86   1
M  ISO  4   1 100  68 101  81 101  83 100
M  END
> <chiral flag>
0

> <version>
0

> <s_m_source_file>
/data/baiqing/PycharmProjects/Reinvent-master-3.2/result/LINK_invent/BTK/process_docking_weight1_custom_sum_contain_oxygen_bond_distance_aromatic_linkinvent_7_9_3/rearranged_h_0196.sdf

> <i_m_source_file_index>
67

> <r_mmod_Potential_Energy-OPLS-2005>
-211.576431274414

> <r_mmod_Stretch_Energy-OPLS-2005>
46.9183349609375

> <r_mmod_Bend_Energy-OPLS-2005>
143.628692626953

> <r_mmod_Torsional_Energy-OPLS-2005>
296.939453125

> <r_mmod_Improper_Torsional_Energy-OPLS-2005>
10.4848365783691

> <r_mmod_Van_der_Waal_Energy-OPLS-2005>
163.428329467773

> <r_mmod_Electrostatic_Energy-OPLS-2005>
-43.1775550842285

> <r_mmod_Solvation_Energy-OPLS-2005>
-849.395080566406

> <b_mmod_Minimization_Converged-OPLS-2005>
0

> <r_mmod_RMS_Derivative-OPLS-2005>
2.28941369056702

$$$$
68
                    3D
 Structure written by MMmdl.
157166  0  0  1  0            999 V2000
  -30.7735  -14.3574   20.7017 C   0  0  0  0  0  0
  -30.4307  -12.2893   19.3967 C   0  0  0  0  0  0
  -29.4975  -12.5346   18.1972 C   0  0  0  0  0  0
  -28.0210  -12.3877   18.6099 C   0  0  0  0  0  0
  -27.6780  -13.2026   19.8841 C   0  0  2  0  0  0
  -28.7139  -12.9343   20.9998 C   0  0  0  0  0  0
  -25.2672  -13.8154   20.5678 C   0  0  0  0  0  0
  -24.1894  -13.0443   20.9149 C   0  0  0  0  0  0
  -24.6445  -11.6919   20.8698 C   0  0  0  0  0  0
  -23.9094  -10.4299   21.0362 C   0  0  0  0  0  0
  -24.3639   -9.4203   21.9140 C   0  0  0  0  0  0
  -23.6302   -8.2241   22.0730 C   0  0  0  0  0  0
  -22.4273   -8.0284   21.3532 C   0  0  0  0  0  0
  -21.9918   -9.0270   20.4633 C   0  0  0  0  0  0
  -22.7259  -10.2142   20.3016 C   0  0  0  0  0  0
  -21.6858   -6.0729   22.5271 C   0  0  0  0  0  0
  -21.4024   -6.5624   23.8207 C   0  0  0  0  0  0
  -21.3659   -5.6779   24.9175 C   0  0  0  0  0  0
  -21.6045   -4.3048   24.7215 C   0  0  0  0  0  0
  -21.8828   -3.8138   23.4333 C   0  0  0  0  0  0
  -21.9199   -4.6956   22.3392 C   0  0  0  0  0  0
  -22.7909  -13.5254   21.1792 C   0  0  0  0  0  0
  -22.1659   -4.2146   21.0974 F   0  0  0  0  0  0
  -21.5630   -3.4519   25.7720 F   0  0  0  0  0  0
  -30.0656  -13.2196   20.4740 N   0  0  0  0  0  0
  -26.3124  -12.9323   20.3392 N   0  0  0  0  0  0
  -25.9379  -11.6496   20.5739 N   0  0  0  0  0  0
  -22.0542  -12.8282   22.0371 N   0  0  0  0  0  0
  -25.4425  -15.1860   20.4095 N   0  0  0  0  0  0
  -31.7472  -14.6931   20.0134 O   0  0  0  0  0  0
  -21.6646   -6.8872   21.4227 O   0  0  0  0  0  0
  -22.3590  -14.5549   20.6629 O   0  0  0  0  0  0
  -24.6180  -31.8691   23.2086 C   0  0  0  0  0  0
  -25.9073  -32.4823   23.8373 C   0  0  1  0  0  0
  -27.2236  -27.4187   20.0985 C   0  0  0  0  0  0
  -25.5931  -33.8616   24.2327 N   0  0  0  0  0  0
  -23.4037  -30.4925   21.5516 C   0  0  2  0  0  0
  -24.8441  -28.9545   20.1196 C   0  0  0  0  0  0
  -22.7421  -29.4675   22.5016 C   0  0  0  0  0  0
  -18.0271  -28.1362   22.8492 C   0  0  0  0  0  0
  -24.1497  -36.7305   23.2633 C   0  0  0  0  0  0
  -25.9357  -30.8293   21.3626 C   0  0  0  0  0  0
  -26.0077  -29.4639   20.7079 C   0  0  0  0  0  0
  -27.2021  -28.7081   20.6839 C   0  0  0  0  0  0
  -26.0348  -26.9233   19.5101 C   0  0  0  0  0  0
  -24.8527  -27.6829   19.5228 C   0  0  0  0  0  0
  -23.6099  -29.8246   20.1673 C   0  0  0  0  0  0
  -25.4123  -36.3114   24.0337 C   0  0  1  0  0  0
  -20.5853  -28.3656   23.1318 C   0  0  2  0  0  0
  -20.6747  -26.9385   22.5424 C   0  0  0  0  0  0
  -19.5737  -26.6368   21.5209 C   0  0  0  0  0  0
  -18.1910  -26.7911   22.1610 C   0  0  0  0  0  0
  -19.1514  -28.8830   23.2889 C   0  0  0  0  0  0
  -18.9443  -30.1432   23.8908 C   0  0  0  0  0  0
  -17.6441  -30.6563   24.0554 C   0  0  0  0  0  0
  -25.9058  -34.9477   23.5124 C   0  0  0  0  0  0
  -16.5331  -29.9071   23.6309 C   0  0  0  0  0  0
  -16.7257  -28.6481   23.0348 C   0  0  0  0  0  0
  -26.4485  -31.6590   25.0699 C   0  0  0  0  0  0
  -25.3753  -31.3686   26.1453 C   0  0  0  0  0  0
  -27.0321  -30.3036   24.6081 C   0  0  0  0  0  0
  -27.6075  -32.4297   25.7455 C   0  0  0  0  0  0
  -27.5605  -37.1802   24.8464 C   0  0  0  0  0  0
  -21.4154  -29.3038   22.3756 N   0  0  0  0  0  0
  -26.4318  -37.3795   23.9405 N   0  0  0  0  0  0
  -24.6715  -31.0779   22.0988 N   0  0  0  0  0  0
  -23.4199  -28.8204   23.3043 O   0  0  0  0  0  0
  -28.3990  -26.6937   20.1204 O   0  0  0  0  0  0
  -26.5600  -34.8926   22.4674 O   0  0  0  0  0  0
  -23.5369  -32.1449   23.7479 O   0  0  0  0  0  0
  -31.4382  -16.6576   23.2528 C   0  0  0  0  0  0
  -31.6514  -18.0062   23.5651 C   0  0  0  0  0  0
  -30.6700  -16.3713   22.1155 C   0  0  0  0  0  0
  -30.3780  -18.6291   21.7861 C   0  0  0  0  0  0
  -30.5776  -21.9394   21.8677 C   0  0  0  0  0  0
  -30.3419  -20.9248   20.7653 C   0  0  2  0  0  0
  -29.4834  -22.1804   20.8508 C   0  0  2  0  0  0
  -29.6964  -24.6346   20.2997 C   0  0  0  0  0  0
  -28.3122  -25.2611   20.0295 C   0  0  0  0  0  0
  -31.1203  -18.9925   22.8196 N   0  0  0  0  0  0
  -30.1247  -17.3860   21.4027 N   0  0  0  0  0  0
  -30.4271  -15.0117   21.8188 N   0  0  0  0  0  0
  -29.7531  -19.6166   21.0567 N   0  0  0  0  0  0
  -29.8240  -23.2207   19.8508 N   0  3  0  0  0  0
  -31.4747  -12.3963   19.0952 H   0  0  0  0  0  0
  -30.3283  -11.2618   19.7500 H   0  0  0  0  0  0
  -29.7347  -11.8330   17.3965 H   0  0  0  0  0  0
  -29.6745  -13.5342   17.7931 H   0  0  0  0  0  0
  -27.8331  -11.3277   18.7838 H   0  0  0  0  0  0
  -27.3687  -12.6801   17.7852 H   0  0  0  0  0  0
  -27.7423  -14.2610   19.6248 H   0  0  0  0  0  0
  -28.6695  -11.8881   21.3093 H   0  0  0  0  0  0
  -28.4552  -13.5098   21.8884 H   0  0  0  0  0  0
  -25.2796   -9.5677   22.4709 H   0  0  0  0  0  0
  -24.0011   -7.4636   22.7458 H   0  0  0  0  0  0
  -21.0836   -8.8801   19.8955 H   0  0  0  0  0  0
  -22.3715  -10.9677   19.6120 H   0  0  0  0  0  0
  -21.2010   -7.6124   23.9717 H   0  0  0  0  0  0
  -21.1472   -6.0494   25.9081 H   0  0  0  0  0  0
  -22.0604   -2.7592   23.2837 H   0  0  0  0  0  0
  -22.4176  -11.9988   22.4828 H   0  0  0  0  0  0
  -21.1124  -13.1290   22.2481 H   0  0  0  0  0  0
  -24.6892  -15.8526   20.5303 H   0  0  0  0  0  0
  -26.3089  -15.6195   20.1153 H   0  0  0  0  0  0
  -26.7139  -32.5494   23.1123 H   0  0  0  0  0  0
  -25.0136  -33.9772   25.0516 H   0  0  0  0  0  0
  -22.6917  -31.3086   21.4122 H   0  0  0  0  0  0
  -23.3777  -35.9622   23.3301 H   0  0  0  0  0  0
  -24.3595  -36.8915   22.2047 H   0  0  0  0  0  0
  -23.7230  -37.6504   23.6634 H   0  0  0  0  0  0
  -26.0568  -31.5973   20.5959 H   0  0  0  0  0  0
  -26.8217  -30.8742   21.9845 H   0  0  0  0  0  0
  -28.1060  -29.1016   21.1271 H   0  0  0  0  0  0
  -25.9879  -25.9513   19.0387 H   0  0  0  0  0  0
  -23.9518  -27.2827   19.0765 H   0  0  0  0  0  0
  -23.7233  -30.5963   19.4056 H   0  0  0  0  0  0
  -22.7321  -29.2488   19.8713 H   0  0  0  0  0  0
  -25.1297  -36.1989   25.0830 H   0  0  0  0  0  0
  -20.9915  -28.3202   24.1452 H   0  0  0  0  0  0
  -20.5607  -26.2266   23.3615 H   0  0  0  0  0  0
  -21.6619  -26.7411   22.1231 H   0  0  0  0  0  0
  -19.6873  -25.6283   21.1237 H   0  0  0  0  0  0
  -19.6658  -27.3174   20.6732 H   0  0  0  0  0  0
  -17.4173  -26.6667   21.4005 H   0  0  0  0  0  0
  -18.0290  -26.0043   22.8990 H   0  0  0  0  0  0
  -19.7921  -30.7226   24.2278 H   0  0  0  0  0  0
  -17.5005  -31.6241   24.5163 H   0  0  0  0  0  0
  -15.5334  -30.2966   23.7636 H   0  0  0  0  0  0
  -15.8659  -28.0797   22.7065 H   0  0  0  0  0  0
  -24.5925  -30.7042   25.7772 H   0  0  0  0  0  0
  -24.8952  -32.2840   26.4919 H   0  0  0  0  0  0
  -25.8104  -30.8828   27.0199 H   0  0  0  0  0  0
  -26.2861  -29.6777   24.1180 H   0  0  0  0  0  0
  -27.4149  -29.7277   25.4512 H   0  0  0  0  0  0
  -27.8664  -30.4346   23.9194 H   0  0  0  0  0  0
  -27.2713  -33.3580   26.2077 H   0  0  0  0  0  0
  -28.3859  -32.6889   25.0264 H   0  0  0  0  0  0
  -28.0788  -31.8405   26.5334 H   0  0  0  0  0  0
  -28.2618  -38.0109   24.7544 H   0  0  0  0  0  0
  -28.1108  -36.2642   24.6253 H   0  0  0  0  0  0
  -27.2313  -37.1402   25.8864 H   0  0  0  0  0  0
  -20.9314  -29.8817   21.7028 H   0  0  0  0  0  0
  -26.0222  -38.2882   24.1386 H   0  0  0  0  0  0
  -31.8654  -15.8788   23.8728 H   0  0  0  0  0  0
  -32.2354  -18.2972   24.4271 H   0  0  0  0  0  0
  -31.4910  -22.5319   21.8041 H   0  0  0  0  0  0
  -30.2734  -21.6793   22.8801 H   0  0  0  0  0  0
  -31.0899  -20.8479   19.9770 H   0  0  0  0  0  0
  -28.4363  -22.1186   21.1475 H   0  0  0  0  0  0
  -29.9699  -24.7313   21.3517 H   0  0  0  0  0  0
  -30.4355  -25.2037   19.7347 H   0  0  0  0  0  0
  -27.5844  -24.8745   20.7461 H   0  0  0  0  0  0
  -27.9762  -24.9818   19.0316 H   0  0  0  0  0  0
  -29.7757  -14.5330   22.4189 H   0  0  0  0  0  0
  -29.1619  -19.2412   20.3249 H   0  0  0  0  0  0
  -29.2705  -23.0791   19.0201 H   0  0  0  0  0  0
  -30.7822  -23.0690   19.5796 H   0  0  0  0  0  0
  1 25  1  0  0  0
  1 30  2  0  0  0
  1 82  1  0  0  0
  2  3  1  0  0  0
  2 25  1  0  0  0
  2 85  1  0  0  0
  2 86  1  0  0  0
  3  4  1  0  0  0
  3 87  1  0  0  0
  3 88  1  0  0  0
  4  5  1  0  0  0
  4 89  1  0  0  0
  4 90  1  0  0  0
  5  6  1  0  0  0
  5 26  1  0  0  0
  5 91  1  0  0  0
  6 25  1  0  0  0
  6 92  1  0  0  0
  6 93  1  0  0  0
  7  8  2  0  0  0
  7 26  1  0  0  0
  7 29  1  0  0  0
  8  9  1  0  0  0
  8 22  1  0  0  0
  9 10  1  0  0  0
  9 27  2  0  0  0
 10 11  2  0  0  0
 10 15  1  0  0  0
 11 12  1  0  0  0
 11 94  1  0  0  0
 12 13  2  0  0  0
 12 95  1  0  0  0
 13 14  1  0  0  0
 13 31  1  0  0  0
 14 15  2  0  0  0
 14 96  1  0  0  0
 15 97  1  0  0  0
 16 17  2  0  0  0
 16 21  1  0  0  0
 16 31  1  0  0  0
 17 18  1  0  0  0
 17 98  1  0  0  0
 18 19  2  0  0  0
 18 99  1  0  0  0
 19 20  1  0  0  0
 19 24  1  0  0  0
 20 21  2  0  0  0
 20100  1  0  0  0
 21 23  1  0  0  0
 22 28  1  0  0  0
 22 32  2  0  0  0
 26 27  1  0  0  0
 28101  1  0  0  0
 28102  1  0  0  0
 29103  1  0  0  0
 29104  1  0  0  0
 33 34  1  0  0  0
 33 66  1  0  0  0
 33 70  2  0  0  0
 34 36  1  0  0  0
 34 59  1  0  0  0
 34105  1  0  0  0
 35 44  2  0  0  0
 35 45  1  0  0  0
 35 68  1  0  0  0
 36 56  1  0  0  0
 36106  1  0  0  0
 37 39  1  0  0  0
 37 47  1  0  0  0
 37 66  1  0  0  0
 37107  1  0  0  0
 38 43  2  0  0  0
 38 46  1  0  0  0
 38 47  1  0  0  0
 39 64  1  0  0  0
 39 67  2  0  0  0
 40 52  1  0  0  0
 40 53  2  0  0  0
 40 58  1  0  0  0
 41108  1  0  0  0
 41109  1  0  0  0
 41110  1  0  0  0
 41 48  1  0  0  0
 42 43  1  0  0  0
 42 66  1  0  0  0
 42111  1  0  0  0
 42112  1  0  0  0
 43 44  1  0  0  0
 44113  1  0  0  0
 45 46  2  0  0  0
 45114  1  0  0  0
 46115  1  0  0  0
 47116  1  0  0  0
 47117  1  0  0  0
 48 56  1  0  0  0
 48 65  1  0  0  0
 48118  1  0  0  0
 49 50  1  0  0  0
 49 53  1  0  0  0
 49 64  1  0  0  0
 49119  1  0  0  0
 50 51  1  0  0  0
 50120  1  0  0  0
 50121  1  0  0  0
 51 52  1  0  0  0
 51122  1  0  0  0
 51123  1  0  0  0
 52124  1  0  0  0
 52125  1  0  0  0
 53 54  1  0  0  0
 54 55  2  0  0  0
 54126  1  0  0  0
 55 57  1  0  0  0
 55127  1  0  0  0
 56 69  2  0  0  0
 57 58  2  0  0  0
 57128  1  0  0  0
 58129  1  0  0  0
 59 60  1  0  0  0
 59 61  1  0  0  0
 59 62  1  0  0  0
 60130  1  0  0  0
 60131  1  0  0  0
 60132  1  0  0  0
 61133  1  0  0  0
 61134  1  0  0  0
 61135  1  0  0  0
 62136  1  0  0  0
 62137  1  0  0  0
 62138  1  0  0  0
 63 65  1  0  0  0
 63139  1  0  0  0
 63140  1  0  0  0
 63141  1  0  0  0
 64142  1  0  0  0
 65143  1  0  0  0
 68 79  1  0  0  0
 71 72  2  0  0  0
 71 73  1  0  0  0
 71144  1  0  0  0
 72 80  1  0  0  0
 72145  1  0  0  0
 73 81  2  0  0  0
 73 82  1  0  0  0
 74 80  2  0  0  0
 74 81  1  0  0  0
 74 83  1  0  0  0
 75 76  1  0  0  0
 75 77  1  0  0  0
 75146  1  0  0  0
 75147  1  0  0  0
 76 77  1  0  0  0
 76 83  1  0  0  0
 76148  1  0  0  0
 77 84  1  0  0  0
 77149  1  0  0  0
 78 79  1  0  0  0
 78 84  1  0  0  0
 78150  1  0  0  0
 78151  1  0  0  0
 79152  1  0  0  0
 79153  1  0  0  0
 82154  1  0  0  0
 83155  1  0  0  0
 84156  1  0  0  0
 84157  1  0  0  0
M  CHG  1  84   1
M  ISO  4   1 100  68 101  79 101  82 100
M  END
> <chiral flag>
0

> <version>
0

> <s_m_source_file>
/data/baiqing/PycharmProjects/Reinvent-master-3.2/result/LINK_invent/BTK/process_docking_weight1_custom_sum_contain_oxygen_bond_distance_aromatic_linkinvent_7_9_3/rearranged_h_0196.sdf

> <i_m_source_file_index>
68

> <r_mmod_Potential_Energy-OPLS-2005>
-682.636108398438

> <r_mmod_Stretch_Energy-OPLS-2005>
34.2136840820312

> <r_mmod_Bend_Energy-OPLS-2005>
103.824653625488

> <r_mmod_Torsional_Energy-OPLS-2005>
281.215423583984

> <r_mmod_Improper_Torsional_Energy-OPLS-2005>
6.26542186737061

> <r_mmod_Van_der_Waal_Energy-OPLS-2005>
159.313034057617

> <r_mmod_Electrostatic_Energy-OPLS-2005>
-785.276062011719

> <r_mmod_Solvation_Energy-OPLS-2005>
-492.450408935547

> <b_mmod_Minimization_Converged-OPLS-2005>
0

> <r_mmod_RMS_Derivative-OPLS-2005>
3.65555739402771

$$$$
69
                    3D
 Structure written by MMmdl.
153161  0  0  1  0            999 V2000
  -30.4316  -15.2899   20.3240 C   0  0  0  0  0  0
  -30.4365  -12.8218   19.5111 C   0  0  0  0  0  0
  -29.5255  -12.5535   18.2860 C   0  0  0  0  0  0
  -28.0812  -12.2621   18.7297 C   0  0  0  0  0  0
  -27.6000  -13.2462   19.8224 C   0  0  2  0  0  0
  -28.6418  -13.4747   20.9392 C   0  0  0  0  0  0
  -25.2393  -13.8143   20.5823 C   0  0  0  0  0  0
  -24.1708  -13.0375   20.9286 C   0  0  0  0  0  0
  -24.6336  -11.6859   20.8799 C   0  0  0  0  0  0
  -23.9041  -10.4239   21.0415 C   0  0  0  0  0  0
  -24.3600   -9.4165   21.9189 C   0  0  0  0  0  0
  -23.6274   -8.2202   22.0758 C   0  0  0  0  0  0
  -22.4262   -8.0247   21.3536 C   0  0  0  0  0  0
  -21.9893   -9.0219   20.4635 C   0  0  0  0  0  0
  -22.7216  -10.2096   20.3049 C   0  0  0  0  0  0
  -21.6834   -6.0715   22.5275 C   0  0  0  0  0  0
  -21.4000   -6.5629   23.8206 C   0  0  0  0  0  0
  -21.3658   -5.6789   24.9173 C   0  0  0  0  0  0
  -21.6052   -4.3053   24.7226 C   0  0  0  0  0  0
  -21.8818   -3.8133   23.4348 C   0  0  0  0  0  0
  -21.9189   -4.6947   22.3403 C   0  0  0  0  0  0
  -22.7742  -13.5167   21.1927 C   0  0  0  0  0  0
  -22.1652   -4.2134   21.0980 F   0  0  0  0  0  0
  -21.5644   -3.4536   25.7738 F   0  0  0  0  0  0
  -29.8655  -13.9795   20.2892 N   0  0  0  0  0  0
  -26.2775  -12.9343   20.3324 N   0  0  0  0  0  0
  -25.9263  -11.6486   20.5793 N   0  0  0  0  0  0
  -22.0402  -12.8158   22.0499 N   0  0  0  0  0  0
  -25.4108  -15.1870   20.4289 N   0  0  0  0  0  0
  -31.6715  -15.2680   20.2539 O   0  0  0  0  0  0
  -21.6620   -6.8849   21.4231 O   0  0  0  0  0  0
  -22.3439  -14.5477   20.6765 O   0  0  0  0  0  0
  -24.6599  -31.8238   23.1684 C   0  0  0  0  0  0
  -25.9280  -32.4589   23.8150 C   0  0  1  0  0  0
  -27.2252  -26.9423   20.1839 C   0  0  0  0  0  0
  -25.5964  -33.8411   24.2079 N   0  0  0  0  0  0
  -23.4746  -30.4331   21.5173 C   0  0  2  0  0  0
  -24.9270  -28.8186   20.1073 C   0  0  0  0  0  0
  -22.7645  -29.4441   22.4778 C   0  0  0  0  0  0
  -18.0323  -28.1414   22.8468 C   0  0  0  0  0  0
  -24.1491  -36.7211   23.2647 C   0  0  0  0  0  0
  -26.0392  -30.6349   21.3923 C   0  0  0  0  0  0
  -26.1062  -29.2238   20.7433 C   0  0  0  0  0  0
  -27.2432  -28.3039   20.7610 C   0  0  0  0  0  0
  -26.0201  -26.6838   19.4910 C   0  0  0  0  0  0
  -24.9093  -27.5702   19.4611 C   0  0  0  0  0  0
  -23.7118  -29.7446   20.1432 C   0  0  0  0  0  0
  -25.4130  -36.2971   24.0305 C   0  0  1  0  0  0
  -20.5931  -28.3762   23.1192 C   0  0  2  0  0  0
  -20.6791  -26.9449   22.5403 C   0  0  0  0  0  0
  -19.5772  -26.6387   21.5210 C   0  0  0  0  0  0
  -18.1952  -26.7955   22.1609 C   0  0  0  0  0  0
  -19.1576  -28.8911   23.2822 C   0  0  0  0  0  0
  -18.9494  -30.1501   23.8864 C   0  0  0  0  0  0
  -17.6494  -30.6610   24.0561 C   0  0  0  0  0  0
  -25.9094  -34.9349   23.5016 C   0  0  0  0  0  0
  -16.5382  -29.9099   23.6337 C   0  0  0  0  0  0
  -16.7299  -28.6519   23.0364 C   0  0  0  0  0  0
  -26.4562  -31.6516   25.0656 C   0  0  0  0  0  0
  -25.3699  -31.3730   26.1313 C   0  0  0  0  0  0
  -27.0454  -30.2894   24.6340 C   0  0  0  0  0  0
  -27.6072  -32.4319   25.7449 C   0  0  0  0  0  0
  -27.5568  -37.1761   24.8475 C   0  0  0  0  0  0
  -21.4310  -29.3054   22.3538 N   0  0  0  0  0  0
  -26.4276  -37.3706   23.9417 N   0  0  0  0  0  0
  -24.7467  -30.9910   22.0803 N   0  0  0  0  0  0
  -23.4197  -28.8015   23.3020 O   0  0  0  0  0  0
  -28.2496  -25.8719   20.3292 O   0  0  0  0  0  0
  -26.5713  -34.8885   22.4613 O   0  0  0  0  0  0
  -23.5673  -32.1192   23.6788 O   0  0  0  0  0  0
  -29.1494  -17.5788   18.0085 C   0  0  0  0  0  0
  -30.2858  -18.3577   18.6473 C   0  0  0  0  0  0
  -28.7412  -16.5086   19.0364 C   0  0  0  0  0  0
  -29.9739  -18.2226   20.1291 C   0  0  1  0  0  0
  -28.9640  -19.6689   20.5153 C   0  0  0  0  0  0
  -28.4428  -22.6694   20.6082 C   0  0  0  0  0  0
  -28.3386  -24.2966   19.8452 C   0  0  0  0  0  0
  -29.6615  -16.5738   20.1886 N   0  0  0  0  0  0
  -29.1988  -21.2682   20.0963 N   0  3  0  0  0  0
  -31.4505  -13.0367   19.1692 H   0  0  0  0  0  0
  -30.5171  -11.9324   20.1379 H   0  0  0  0  0  0
  -29.9104  -11.7160   17.7028 H   0  0  0  0  0  0
  -29.5367  -13.4200   17.6228 H   0  0  0  0  0  0
  -28.0594  -11.2452   19.1247 H   0  0  0  0  0  0
  -27.4050  -12.2724   17.8747 H   0  0  0  0  0  0
  -27.4631  -14.1806   19.2938 H   0  0  0  0  0  0
  -28.8265  -12.5608   21.5062 H   0  0  0  0  0  0
  -28.2750  -14.2176   21.6502 H   0  0  0  0  0  0
  -25.2729   -9.5661   22.4785 H   0  0  0  0  0  0
  -23.9969   -7.4603   22.7495 H   0  0  0  0  0  0
  -21.0816   -8.8732   19.8950 H   0  0  0  0  0  0
  -22.3654  -10.9647   19.6178 H   0  0  0  0  0  0
  -21.1972   -7.6133   23.9699 H   0  0  0  0  0  0
  -21.1492   -6.0521   25.9079 H   0  0  0  0  0  0
  -22.0599   -2.7594   23.2847 H   0  0  0  0  0  0
  -22.4001  -11.9789   22.4854 H   0  0  0  0  0  0
  -21.1047  -13.1205   22.2776 H   0  0  0  0  0  0
  -24.6517  -15.8467   20.5589 H   0  0  0  0  0  0
  -26.2783  -15.6278   20.1558 H   0  0  0  0  0  0
  -26.7337  -32.5133   23.0853 H   0  0  0  0  0  0
  -25.0074  -33.9512   25.0209 H   0  0  0  0  0  0
  -22.7878  -31.2636   21.3443 H   0  0  0  0  0  0
  -23.3763  -35.9529   23.3286 H   0  0  0  0  0  0
  -24.3571  -36.8878   22.2066 H   0  0  0  0  0  0
  -23.7232  -37.6388   23.6718 H   0  0  0  0  0  0
  -26.2092  -31.3699   20.6047 H   0  0  0  0  0  0
  -26.9060  -30.6987   22.0394 H   0  0  0  0  0  0
  -28.1328  -28.6111   21.2925 H   0  0  0  0  0  0
  -25.8963  -25.7268   19.0057 H   0  0  0  0  0  0
  -24.0119  -27.2561   18.9446 H   0  0  0  0  0  0
  -23.8608  -30.5119   19.3819 H   0  0  0  0  0  0
  -22.8229  -29.1947   19.8285 H   0  0  0  0  0  0
  -25.1320  -36.1768   25.0794 H   0  0  0  0  0  0
  -21.0030  -28.3363   24.1308 H   0  0  0  0  0  0
  -20.5676  -26.2386   23.3639 H   0  0  0  0  0  0
  -21.6653  -26.7424   22.1212 H   0  0  0  0  0  0
  -19.6943  -25.6288   21.1278 H   0  0  0  0  0  0
  -19.6717  -27.3164   20.6716 H   0  0  0  0  0  0
  -17.4224  -26.6707   21.4018 H   0  0  0  0  0  0
  -18.0345  -26.0107   22.9014 H   0  0  0  0  0  0
  -19.7975  -30.7318   24.2219 H   0  0  0  0  0  0
  -17.5049  -31.6284   24.5171 H   0  0  0  0  0  0
  -15.5385  -30.3001   23.7694 H   0  0  0  0  0  0
  -15.8690  -28.0822   22.7112 H   0  0  0  0  0  0
  -24.5939  -30.7025   25.7612 H   0  0  0  0  0  0
  -24.8819  -32.2907   26.4599 H   0  0  0  0  0  0
  -25.7936  -30.8990   27.0174 H   0  0  0  0  0  0
  -26.3093  -29.6592   24.1345 H   0  0  0  0  0  0
  -27.4027  -29.7225   25.4949 H   0  0  0  0  0  0
  -27.9019  -30.4119   23.9706 H   0  0  0  0  0  0
  -27.2671  -33.3697   26.1850 H   0  0  0  0  0  0
  -28.3958  -32.6751   25.0315 H   0  0  0  0  0  0
  -28.0652  -31.8545   26.5490 H   0  0  0  0  0  0
  -28.2560  -38.0081   24.7503 H   0  0  0  0  0  0
  -28.1077  -36.2597   24.6306 H   0  0  0  0  0  0
  -27.2282  -37.1404   25.8877 H   0  0  0  0  0  0
  -20.9557  -29.8740   21.6665 H   0  0  0  0  0  0
  -26.0119  -38.2764   24.1417 H   0  0  0  0  0  0
  -29.4697  -17.1358   17.0642 H   0  0  0  0  0  0
  -28.3013  -18.2281   17.7872 H   0  0  0  0  0  0
  -30.3481  -19.3868   18.2942 H   0  0  0  0  0  0
  -31.2418  -17.8780   18.4262 H   0  0  0  0  0  0
  -28.7705  -15.5627   18.4997 H   0  0  0  0  0  0
  -27.7176  -16.6686   19.3760 H   0  0  0  0  0  0
  -30.9022  -18.3644   20.6842 H   0  0  0  0  0  0
  -28.8587  -19.6760   21.6000 H   0  0  0  0  0  0
  -27.9596  -19.4437   20.1542 H   0  0  0  0  0  0
  -27.4050  -22.3795   20.7762 H   0  0  0  0  0  0
  -28.8328  -22.8378   21.6118 H   0  0  0  0  0  0
  -27.5884  -24.1966   19.0610 H   0  0  0  0  0  0
  -29.2690  -24.3362   19.2785 H   0  0  0  0  0  0
  -29.1158  -21.2779   19.0922 H   0  0  0  0  0  0
  -30.1763  -21.4324   20.2823 H   0  0  0  0  0  0
  1 25  1  0  0  0
  1 30  2  0  0  0
  1 78  1  0  0  0
  2  3  1  0  0  0
  2 25  1  0  0  0
  2 80  1  0  0  0
  2 81  1  0  0  0
  3  4  1  0  0  0
  3 82  1  0  0  0
  3 83  1  0  0  0
  4  5  1  0  0  0
  4 84  1  0  0  0
  4 85  1  0  0  0
  5  6  1  0  0  0
  5 26  1  0  0  0
  5 86  1  0  0  0
  6 25  1  0  0  0
  6 87  1  0  0  0
  6 88  1  0  0  0
  7  8  2  0  0  0
  7 26  1  0  0  0
  7 29  1  0  0  0
  8  9  1  0  0  0
  8 22  1  0  0  0
  9 10  1  0  0  0
  9 27  2  0  0  0
 10 11  2  0  0  0
 10 15  1  0  0  0
 11 12  1  0  0  0
 11 89  1  0  0  0
 12 13  2  0  0  0
 12 90  1  0  0  0
 13 14  1  0  0  0
 13 31  1  0  0  0
 14 15  2  0  0  0
 14 91  1  0  0  0
 15 92  1  0  0  0
 16 17  2  0  0  0
 16 21  1  0  0  0
 16 31  1  0  0  0
 17 18  1  0  0  0
 17 93  1  0  0  0
 18 19  2  0  0  0
 18 94  1  0  0  0
 19 20  1  0  0  0
 19 24  1  0  0  0
 20 21  2  0  0  0
 20 95  1  0  0  0
 21 23  1  0  0  0
 22 28  1  0  0  0
 22 32  2  0  0  0
 26 27  1  0  0  0
 28 96  1  0  0  0
 28 97  1  0  0  0
 29 98  1  0  0  0
 29 99  1  0  0  0
 33 34  1  0  0  0
 33 66  1  0  0  0
 33 70  2  0  0  0
 34 36  1  0  0  0
 34 59  1  0  0  0
 34100  1  0  0  0
 35 44  2  0  0  0
 35 45  1  0  0  0
 35 68  1  0  0  0
 36 56  1  0  0  0
 36101  1  0  0  0
 37 39  1  0  0  0
 37 47  1  0  0  0
 37 66  1  0  0  0
 37102  1  0  0  0
 38 43  2  0  0  0
 38 46  1  0  0  0
 38 47  1  0  0  0
 39 64  1  0  0  0
 39 67  2  0  0  0
 40 52  1  0  0  0
 40 53  2  0  0  0
 40 58  1  0  0  0
 41103  1  0  0  0
 41104  1  0  0  0
 41105  1  0  0  0
 41 48  1  0  0  0
 42 43  1  0  0  0
 42 66  1  0  0  0
 42106  1  0  0  0
 42107  1  0  0  0
 43 44  1  0  0  0
 44108  1  0  0  0
 45 46  2  0  0  0
 45109  1  0  0  0
 46110  1  0  0  0
 47111  1  0  0  0
 47112  1  0  0  0
 48 56  1  0  0  0
 48 65  1  0  0  0
 48113  1  0  0  0
 49 50  1  0  0  0
 49 53  1  0  0  0
 49 64  1  0  0  0
 49114  1  0  0  0
 50 51  1  0  0  0
 50115  1  0  0  0
 50116  1  0  0  0
 51 52  1  0  0  0
 51117  1  0  0  0
 51118  1  0  0  0
 52119  1  0  0  0
 52120  1  0  0  0
 53 54  1  0  0  0
 54 55  2  0  0  0
 54121  1  0  0  0
 55 57  1  0  0  0
 55122  1  0  0  0
 56 69  2  0  0  0
 57 58  2  0  0  0
 57123  1  0  0  0
 58124  1  0  0  0
 59 60  1  0  0  0
 59 61  1  0  0  0
 59 62  1  0  0  0
 60125  1  0  0  0
 60126  1  0  0  0
 60127  1  0  0  0
 61128  1  0  0  0
 61129  1  0  0  0
 61130  1  0  0  0
 62131  1  0  0  0
 62132  1  0  0  0
 62133  1  0  0  0
 63 65  1  0  0  0
 63134  1  0  0  0
 63135  1  0  0  0
 63136  1  0  0  0
 64137  1  0  0  0
 65138  1  0  0  0
 68 77  1  0  0  0
 71 72  1  0  0  0
 71 73  1  0  0  0
 71139  1  0  0  0
 71140  1  0  0  0
 72 74  1  0  0  0
 72141  1  0  0  0
 72142  1  0  0  0
 73 78  1  0  0  0
 73143  1  0  0  0
 73144  1  0  0  0
 74 75  1  0  0  0
 74 78  1  0  0  0
 74145  1  0  0  0
 75 79  1  0  0  0
 75146  1  0  0  0
 75147  1  0  0  0
 76 77  1  0  0  0
 76 79  1  0  0  0
 76148  1  0  0  0
 76149  1  0  0  0
 77150  1  0  0  0
 77151  1  0  0  0
 79152  1  0  0  0
 79153  1  0  0  0
M  CHG  1  79   1
M  ISO  4   1 100  68 101  77 101  78 100
M  END
> <chiral flag>
0

> <version>
0

> <s_m_source_file>
/data/baiqing/PycharmProjects/Reinvent-master-3.2/result/LINK_invent/BTK/process_docking_weight1_custom_sum_contain_oxygen_bond_distance_aromatic_linkinvent_7_9_3/rearranged_h_0196.sdf

> <i_m_source_file_index>
69

> <r_mmod_Potential_Energy-OPLS-2005>
1438.71313476562

> <r_mmod_Stretch_Energy-OPLS-2005>
610.667846679688

> <r_mmod_Bend_Energy-OPLS-2005>
503.793701171875

> <r_mmod_Torsional_Energy-OPLS-2005>
359.677398681641

> <r_mmod_Improper_Torsional_Energy-OPLS-2005>
10.4486379623413

> <r_mmod_Van_der_Waal_Energy-OPLS-2005>
109.502914428711

> <r_mmod_Electrostatic_Energy-OPLS-2005>
-164.334671020508

> <r_mmod_Solvation_Energy-OPLS-2005>
-459.765960693359

> <b_mmod_Minimization_Converged-OPLS-2005>
0

> <r_mmod_RMS_Derivative-OPLS-2005>
2.16546893119812

$$$$
70
                    3D
 Structure written by MMmdl.
167177  0  0  1  0            999 V2000
  -30.8346  -14.3304   20.6513 C   0  0  0  0  0  0
  -30.4124  -12.2640   19.3906 C   0  0  0  0  0  0
  -29.4820  -12.5060   18.1899 C   0  0  0  0  0  0
  -28.0077  -12.3781   18.6151 C   0  0  0  0  0  0
  -27.6747  -13.2113   19.8807 C   0  0  2  0  0  0
  -28.7222  -12.9794   20.9973 C   0  0  0  0  0  0
  -25.2656  -13.8174   20.5718 C   0  0  0  0  0  0
  -24.1891  -13.0452   20.9174 C   0  0  0  0  0  0
  -24.6432  -11.6922   20.8738 C   0  0  0  0  0  0
  -23.9092  -10.4300   21.0415 C   0  0  0  0  0  0
  -24.3627   -9.4210   21.9196 C   0  0  0  0  0  0
  -23.6306   -8.2237   22.0738 C   0  0  0  0  0  0
  -22.4284   -8.0278   21.3526 C   0  0  0  0  0  0
  -21.9928   -9.0273   20.4634 C   0  0  0  0  0  0
  -22.7270  -10.2152   20.3068 C   0  0  0  0  0  0
  -21.6857   -6.0740   22.5274 C   0  0  0  0  0  0
  -21.4004   -6.5639   23.8209 C   0  0  0  0  0  0
  -21.3663   -5.6793   24.9171 C   0  0  0  0  0  0
  -21.6046   -4.3057   24.7222 C   0  0  0  0  0  0
  -21.8824   -3.8145   23.4348 C   0  0  0  0  0  0
  -21.9189   -4.6959   22.3402 C   0  0  0  0  0  0
  -22.7903  -13.5235   21.1844 C   0  0  0  0  0  0
  -22.1667   -4.2154   21.0977 F   0  0  0  0  0  0
  -21.5636   -3.4537   25.7736 F   0  0  0  0  0  0
  -30.0697  -13.2254   20.4491 N   0  0  0  0  0  0
  -26.3119  -12.9365   20.3444 N   0  0  0  0  0  0
  -25.9382  -11.6506   20.5796 N   0  0  0  0  0  0
  -22.0513  -12.8238   22.0372 N   0  0  0  0  0  0
  -25.4392  -15.1897   20.4100 N   0  0  0  0  0  0
  -31.8332  -14.5898   19.9741 O   0  0  0  0  0  0
  -21.6639   -6.8890   21.4235 O   0  0  0  0  0  0
  -22.3594  -14.5550   20.6693 O   0  0  0  0  0  0
  -24.6079  -31.8747   23.2093 C   0  0  0  0  0  0
  -25.9014  -32.4843   23.8383 C   0  0  1  0  0  0
  -27.2464  -27.4864   20.0820 C   0  0  0  0  0  0
  -25.5915  -33.8623   24.2346 N   0  0  0  0  0  0
  -23.3945  -30.4912   21.5518 C   0  0  2  0  0  0
  -24.8449  -28.9619   20.1184 C   0  0  0  0  0  0
  -22.7379  -29.4664   22.5029 C   0  0  0  0  0  0
  -18.0241  -28.1365   22.8493 C   0  0  0  0  0  0
  -24.1480  -36.7296   23.2627 C   0  0  0  0  0  0
  -25.9159  -30.8531   21.3552 C   0  0  0  0  0  0
  -26.0005  -29.4860   20.7130 C   0  0  0  0  0  0
  -27.2039  -28.7528   20.7022 C   0  0  0  0  0  0
  -26.0836  -26.9683   19.4778 C   0  0  0  0  0  0
  -24.8795  -27.6962   19.5045 C   0  0  0  0  0  0
  -23.6006  -29.8173   20.1682 C   0  0  0  0  0  0
  -25.4103  -36.3114   24.0335 C   0  0  1  0  0  0
  -20.5835  -28.3642   23.1327 C   0  0  2  0  0  0
  -20.6737  -26.9384   22.5419 C   0  0  0  0  0  0
  -19.5728  -26.6388   21.5202 C   0  0  0  0  0  0
  -18.1903  -26.7916   22.1613 C   0  0  0  0  0  0
  -19.1495  -28.8815   23.2910 C   0  0  0  0  0  0
  -18.9419  -30.1420   23.8920 C   0  0  0  0  0  0
  -17.6425  -30.6570   24.0563 C   0  0  0  0  0  0
  -25.9027  -34.9480   23.5145 C   0  0  0  0  0  0
  -16.5320  -29.9076   23.6315 C   0  0  0  0  0  0
  -16.7232  -28.6489   23.0354 C   0  0  0  0  0  0
  -26.4457  -31.6590   25.0675 C   0  0  0  0  0  0
  -25.3740  -31.3690   26.1439 C   0  0  0  0  0  0
  -27.0254  -30.3036   24.6000 C   0  0  0  0  0  0
  -27.6069  -32.4278   25.7441 C   0  0  0  0  0  0
  -27.5577  -37.1803   24.8458 C   0  0  0  0  0  0
  -21.4118  -29.3028   22.3762 N   0  0  0  0  0  0
  -26.4282  -37.3798   23.9414 N   0  0  0  0  0  0
  -24.6567  -31.0874   22.0973 N   0  0  0  0  0  0
  -23.4190  -28.8228   23.3050 O   0  0  0  0  0  0
  -28.4043  -26.7526   20.0316 O   0  0  0  0  0  0
  -26.5588  -34.8931   22.4695 O   0  0  0  0  0  0
  -23.5281  -32.1483   23.7497 O   0  0  0  0  0  0
  -30.1725  -19.6581   21.2868 C   0  0  0  0  0  0
  -32.1494  -21.4356   21.5641 C   0  0  0  0  0  0
  -30.0702  -20.9487   20.7602 C   0  0  0  0  0  0
  -31.3343  -19.3609   22.0037 C   0  0  0  0  0  0
  -29.0001  -22.2981   18.8720 C   0  0  0  0  0  0
  -31.5356  -15.6524   22.5994 C   0  0  0  0  0  0
  -30.0470  -16.4826   21.4298 C   0  0  0  0  0  0
  -28.9114  -23.7561   19.3690 C   0  0  0  0  0  0
  -28.0400  -22.3880   21.0702 C   0  0  0  0  0  0
  -28.7714  -21.4356   20.1269 C   0  0  2  0  0  0
  -31.4416  -16.9628   21.8293 C   0  0  0  0  0  0
  -28.0374  -24.8378   21.4859 C   0  0  0  0  0  0
  -28.7845  -26.1709   21.2763 C   0  0  0  0  0  0
  -31.0564  -21.8513   20.9267 N   0  0  0  0  0  0
  -32.3239  -20.2471   22.1372 N   0  0  0  0  0  0
  -30.5027  -15.1091   21.6933 N   0  0  0  0  0  0
  -31.5105  -18.1501   22.6678 N   0  0  0  0  0  0
  -28.7028  -23.6832   20.8330 N   0  3  2  0  0  0
  -31.4567  -12.3273   19.0743 H   0  0  0  0  0  0
  -30.2843  -11.2495   19.7690 H   0  0  0  0  0  0
  -29.7017  -11.7882   17.3985 H   0  0  0  0  0  0
  -29.6664  -13.4953   17.7667 H   0  0  0  0  0  0
  -27.8045  -11.3232   18.7982 H   0  0  0  0  0  0
  -27.3575  -12.6727   17.7915 H   0  0  0  0  0  0
  -27.7278  -14.2630   19.5954 H   0  0  0  0  0  0
  -28.6699  -11.9520   21.3567 H   0  0  0  0  0  0
  -28.4968  -13.6062   21.8616 H   0  0  0  0  0  0
  -25.2771   -9.5684   22.4790 H   0  0  0  0  0  0
  -24.0017   -7.4614   22.7441 H   0  0  0  0  0  0
  -21.0860   -8.8806   19.8945 H   0  0  0  0  0  0
  -22.3733  -10.9693   19.6182 H   0  0  0  0  0  0
  -21.1986   -7.6144   23.9712 H   0  0  0  0  0  0
  -21.1489   -6.0521   25.9079 H   0  0  0  0  0  0
  -22.0598   -2.7609   23.2840 H   0  0  0  0  0  0
  -22.4090  -11.9925   22.4849 H   0  0  0  0  0  0
  -21.1096  -13.1241   22.2471 H   0  0  0  0  0  0
  -24.6817  -15.8540   20.5242 H   0  0  0  0  0  0
  -26.3041  -15.6222   20.1118 H   0  0  0  0  0  0
  -26.7072  -32.5589   23.1141 H   0  0  0  0  0  0
  -25.0061  -33.9776   25.0505 H   0  0  0  0  0  0
  -22.6799  -31.3029   21.4102 H   0  0  0  0  0  0
  -23.3735  -35.9632   23.3285 H   0  0  0  0  0  0
  -24.3575  -36.8909   22.2041 H   0  0  0  0  0  0
  -23.7236  -37.6504   23.6624 H   0  0  0  0  0  0
  -26.0115  -31.6170   20.5819 H   0  0  0  0  0  0
  -26.8062  -30.9150   21.9676 H   0  0  0  0  0  0
  -28.0964  -29.1666   21.1521 H   0  0  0  0  0  0
  -26.1116  -25.9989   18.9997 H   0  0  0  0  0  0
  -23.9930  -27.2812   19.0454 H   0  0  0  0  0  0
  -23.6911  -30.5858   19.3970 H   0  0  0  0  0  0
  -22.7304  -29.2219   19.8829 H   0  0  0  0  0  0
  -25.1278  -36.1973   25.0821 H   0  0  0  0  0  0
  -20.9916  -28.3177   24.1454 H   0  0  0  0  0  0
  -20.5584  -26.2260   23.3603 H   0  0  0  0  0  0
  -21.6618  -26.7402   22.1265 H   0  0  0  0  0  0
  -19.6908  -25.6314   21.1208 H   0  0  0  0  0  0
  -19.6685  -27.3192   20.6731 H   0  0  0  0  0  0
  -17.4198  -26.6627   21.4005 H   0  0  0  0  0  0
  -18.0319  -26.0050   22.8999 H   0  0  0  0  0  0
  -19.7887  -30.7220   24.2347 H   0  0  0  0  0  0
  -17.4976  -31.6256   24.5149 H   0  0  0  0  0  0
  -15.5326  -30.2999   23.7631 H   0  0  0  0  0  0
  -15.8628  -28.0815   22.7104 H   0  0  0  0  0  0
  -24.5947  -30.6997   25.7767 H   0  0  0  0  0  0
  -24.8872  -32.2828   26.4851 H   0  0  0  0  0  0
  -25.8112  -30.8895   27.0210 H   0  0  0  0  0  0
  -26.2774  -29.6874   24.0983 H   0  0  0  0  0  0
  -27.3959  -29.7198   25.4439 H   0  0  0  0  0  0
  -27.8644  -30.4337   23.9155 H   0  0  0  0  0  0
  -27.2727  -33.3580   26.2036 H   0  0  0  0  0  0
  -28.3873  -32.6833   25.0260 H   0  0  0  0  0  0
  -28.0737  -31.8386   26.5345 H   0  0  0  0  0  0
  -28.2598  -38.0094   24.7532 H   0  0  0  0  0  0
  -28.1071  -36.2642   24.6256 H   0  0  0  0  0  0
  -27.2300  -37.1438   25.8857 H   0  0  0  0  0  0
  -20.9285  -29.8785   21.7022 H   0  0  0  0  0  0
  -26.0173  -38.2875   24.1409 H   0  0  0  0  0  0
  -29.3522  -18.9618   21.1994 H   0  0  0  0  0  0
  -32.9585  -22.1441   21.6492 H   0  0  0  0  0  0
  -29.9455  -22.0734   18.3780 H   0  0  0  0  0  0
  -28.2093  -22.1145   18.1443 H   0  0  0  0  0  0
  -31.2058  -15.7026   23.6387 H   0  0  0  0  0  0
  -32.5216  -15.1839   22.5350 H   0  0  0  0  0  0
  -29.8064  -16.6992   20.3858 H   0  0  0  0  0  0
  -29.2364  -16.7969   22.0876 H   0  0  0  0  0  0
  -28.0682  -24.2568   18.8921 H   0  0  0  0  0  0
  -29.8140  -24.3236   19.1365 H   0  0  0  0  0  0
  -28.0903  -22.0752   22.1135 H   0  0  0  0  0  0
  -26.9879  -22.4572   20.7898 H   0  0  0  0  0  0
  -28.1532  -20.5679   19.8906 H   0  0  0  0  0  0
  -32.1384  -17.0058   20.9882 H   0  0  0  0  0  0
  -27.0023  -24.9125   21.1607 H   0  0  0  0  0  0
  -28.0003  -24.6359   22.5564 H   0  0  0  0  0  0
  -29.8639  -26.0200   21.2943 H   0  0  0  0  0  0
  -28.5688  -26.8521   22.1020 H   0  0  0  0  0  0
  -32.3492  -18.1760   23.2365 H   0  0  0  0  0  0
  -29.6336  -23.5770   21.2230 H   0  0  0  0  0  0
  1 25  1  0  0  0
  1 30  2  0  0  0
  1 86  1  0  0  0
  2  3  1  0  0  0
  2 25  1  0  0  0
  2 89  1  0  0  0
  2 90  1  0  0  0
  3  4  1  0  0  0
  3 91  1  0  0  0
  3 92  1  0  0  0
  4  5  1  0  0  0
  4 93  1  0  0  0
  4 94  1  0  0  0
  5  6  1  0  0  0
  5 26  1  0  0  0
  5 95  1  0  0  0
  6 25  1  0  0  0
  6 96  1  0  0  0
  6 97  1  0  0  0
  7  8  2  0  0  0
  7 26  1  0  0  0
  7 29  1  0  0  0
  8  9  1  0  0  0
  8 22  1  0  0  0
  9 10  1  0  0  0
  9 27  2  0  0  0
 10 11  2  0  0  0
 10 15  1  0  0  0
 11 12  1  0  0  0
 11 98  1  0  0  0
 12 13  2  0  0  0
 12 99  1  0  0  0
 13 14  1  0  0  0
 13 31  1  0  0  0
 14 15  2  0  0  0
 14100  1  0  0  0
 15101  1  0  0  0
 16 17  2  0  0  0
 16 21  1  0  0  0
 16 31  1  0  0  0
 17 18  1  0  0  0
 17102  1  0  0  0
 18 19  2  0  0  0
 18103  1  0  0  0
 19 20  1  0  0  0
 19 24  1  0  0  0
 20 21  2  0  0  0
 20104  1  0  0  0
 21 23  1  0  0  0
 22 28  1  0  0  0
 22 32  2  0  0  0
 26 27  1  0  0  0
 28105  1  0  0  0
 28106  1  0  0  0
 29107  1  0  0  0
 29108  1  0  0  0
 33 34  1  0  0  0
 33 66  1  0  0  0
 33 70  2  0  0  0
 34 36  1  0  0  0
 34 59  1  0  0  0
 34109  1  0  0  0
 35 44  2  0  0  0
 35 45  1  0  0  0
 35 68  1  0  0  0
 36 56  1  0  0  0
 36110  1  0  0  0
 37 39  1  0  0  0
 37 47  1  0  0  0
 37 66  1  0  0  0
 37111  1  0  0  0
 38 43  2  0  0  0
 38 46  1  0  0  0
 38 47  1  0  0  0
 39 64  1  0  0  0
 39 67  2  0  0  0
 40 52  1  0  0  0
 40 53  2  0  0  0
 40 58  1  0  0  0
 41112  1  0  0  0
 41113  1  0  0  0
 41114  1  0  0  0
 41 48  1  0  0  0
 42 43  1  0  0  0
 42 66  1  0  0  0
 42115  1  0  0  0
 42116  1  0  0  0
 43 44  1  0  0  0
 44117  1  0  0  0
 45 46  2  0  0  0
 45118  1  0  0  0
 46119  1  0  0  0
 47120  1  0  0  0
 47121  1  0  0  0
 48 56  1  0  0  0
 48 65  1  0  0  0
 48122  1  0  0  0
 49 50  1  0  0  0
 49 53  1  0  0  0
 49 64  1  0  0  0
 49123  1  0  0  0
 50 51  1  0  0  0
 50124  1  0  0  0
 50125  1  0  0  0
 51 52  1  0  0  0
 51126  1  0  0  0
 51127  1  0  0  0
 52128  1  0  0  0
 52129  1  0  0  0
 53 54  1  0  0  0
 54 55  2  0  0  0
 54130  1  0  0  0
 55 57  1  0  0  0
 55131  1  0  0  0
 56 69  2  0  0  0
 57 58  2  0  0  0
 57132  1  0  0  0
 58133  1  0  0  0
 59 60  1  0  0  0
 59 61  1  0  0  0
 59 62  1  0  0  0
 60134  1  0  0  0
 60135  1  0  0  0
 60136  1  0  0  0
 61137  1  0  0  0
 61138  1  0  0  0
 61139  1  0  0  0
 62140  1  0  0  0
 62141  1  0  0  0
 62142  1  0  0  0
 63 65  1  0  0  0
 63143  1  0  0  0
 63144  1  0  0  0
 63145  1  0  0  0
 64146  1  0  0  0
 65147  1  0  0  0
 68 83  1  0  0  0
 71 73  2  0  0  0
 71 74  1  0  0  0
 71148  1  0  0  0
 72 84  2  0  0  0
 72 85  1  0  0  0
 72149  1  0  0  0
 73 84  1  0  0  0
 73 80  1  0  0  0
 74 85  2  0  0  0
 74 87  1  0  0  0
 75 78  1  0  0  0
 75 80  1  0  0  0
 75150  1  0  0  0
 75151  1  0  0  0
 76 81  1  0  0  0
 76 86  1  0  0  0
 76152  1  0  0  0
 76153  1  0  0  0
 77 81  1  0  0  0
 77 86  1  0  0  0
 77154  1  0  0  0
 77155  1  0  0  0
 78 88  1  0  0  0
 78156  1  0  0  0
 78157  1  0  0  0
 79 80  1  0  0  0
 79 88  1  0  0  0
 79158  1  0  0  0
 79159  1  0  0  0
 80160  1  0  0  0
 81 87  1  0  0  0
 81161  1  0  0  0
 82 83  1  0  0  0
 82162  1  0  0  0
 82163  1  0  0  0
 82 88  1  0  0  0
 83164  1  0  0  0
 83165  1  0  0  0
 87166  1  0  0  0
 88167  1  0  0  0
M  CHG  1  88   1
M  ISO  4   1 100  68 101  83 101  86 100
M  END
> <chiral flag>
0

> <version>
0

> <s_m_source_file>
/data/baiqing/PycharmProjects/Reinvent-master-3.2/result/LINK_invent/BTK/process_docking_weight1_custom_sum_contain_oxygen_bond_distance_aromatic_linkinvent_7_9_3/rearranged_h_0196.sdf

> <i_m_source_file_index>
70

> <r_mmod_Potential_Energy-OPLS-2005>
-554.411865234375

> <r_mmod_Stretch_Energy-OPLS-2005>
32.8616638183594

> <r_mmod_Bend_Energy-OPLS-2005>
131.296585083008

> <r_mmod_Torsional_Energy-OPLS-2005>
352.989166259766

> <r_mmod_Improper_Torsional_Energy-OPLS-2005>
15.2961311340332

> <r_mmod_Van_der_Waal_Energy-OPLS-2005>
171.439102172852

> <r_mmod_Electrostatic_Energy-OPLS-2005>
-835.949523925781

> <r_mmod_Solvation_Energy-OPLS-2005>
-430.473083496094

> <b_mmod_Minimization_Converged-OPLS-2005>
0

> <r_mmod_RMS_Derivative-OPLS-2005>
3.85776853561401

$$$$
71
                    3D
 Structure written by MMmdl.
158167  0  0  1  0            999 V2000
  -30.6638  -14.5204   20.5830 C   0  0  0  0  0  0
  -30.4385  -12.3407   19.4254 C   0  0  0  0  0  0
  -29.5051  -12.5242   18.2091 C   0  0  0  0  0  0
  -28.0255  -12.3667   18.6182 C   0  0  0  0  0  0
  -27.6632  -13.2034   19.8738 C   0  0  2  0  0  0
  -28.7047  -12.9826   20.9944 C   0  0  0  0  0  0
  -25.2601  -13.8146   20.5659 C   0  0  0  0  0  0
  -24.1842  -13.0436   20.9164 C   0  0  0  0  0  0
  -24.6387  -11.6901   20.8716 C   0  0  0  0  0  0
  -23.9047  -10.4298   21.0398 C   0  0  0  0  0  0
  -24.3605   -9.4223   21.9179 C   0  0  0  0  0  0
  -23.6298   -8.2249   22.0750 C   0  0  0  0  0  0
  -22.4282   -8.0279   21.3538 C   0  0  0  0  0  0
  -21.9907   -9.0249   20.4642 C   0  0  0  0  0  0
  -22.7219  -10.2136   20.3050 C   0  0  0  0  0  0
  -21.6856   -6.0733   22.5279 C   0  0  0  0  0  0
  -21.4012   -6.5639   23.8209 C   0  0  0  0  0  0
  -21.3661   -5.6791   24.9173 C   0  0  0  0  0  0
  -21.6048   -4.3052   24.7221 C   0  0  0  0  0  0
  -21.8818   -3.8143   23.4339 C   0  0  0  0  0  0
  -21.9191   -4.6962   22.3397 C   0  0  0  0  0  0
  -22.7866  -13.5245   21.1839 C   0  0  0  0  0  0
  -22.1663   -4.2144   21.0976 F   0  0  0  0  0  0
  -21.5639   -3.4539   25.7735 F   0  0  0  0  0  0
  -30.0323  -13.3181   20.4480 N   0  0  0  0  0  0
  -26.3027  -12.9304   20.3333 N   0  0  0  0  0  0
  -25.9308  -11.6465   20.5726 N   0  0  0  0  0  0
  -22.0490  -12.8251   22.0395 N   0  0  0  0  0  0
  -25.4335  -15.1862   20.4057 N   0  0  0  0  0  0
  -31.7844  -14.7377   20.1158 O   0  0  0  0  0  0
  -21.6644   -6.8881   21.4242 O   0  0  0  0  0  0
  -22.3556  -14.5552   20.6683 O   0  0  0  0  0  0
  -24.6193  -31.8660   23.2102 C   0  0  0  0  0  0
  -25.9070  -32.4814   23.8404 C   0  0  1  0  0  0
  -27.2300  -27.3931   20.0910 C   0  0  0  0  0  0
  -25.5923  -33.8615   24.2334 N   0  0  0  0  0  0
  -23.4093  -30.4934   21.5504 C   0  0  2  0  0  0
  -24.8540  -28.9602   20.1139 C   0  0  0  0  0  0
  -22.7438  -29.4657   22.4957 C   0  0  0  0  0  0
  -18.0286  -28.1381   22.8487 C   0  0  0  0  0  0
  -24.1489  -36.7308   23.2636 C   0  0  0  0  0  0
  -25.9447  -30.8180   21.3716 C   0  0  0  0  0  0
  -26.0196  -29.4511   20.7150 C   0  0  0  0  0  0
  -27.2083  -28.6755   20.7016 C   0  0  0  0  0  0
  -26.0387  -26.9397   19.4705 C   0  0  0  0  0  0
  -24.8604  -27.7047   19.4902 C   0  0  0  0  0  0
  -23.6201  -29.8328   20.1640 C   0  0  0  0  0  0
  -25.4109  -36.3105   24.0336 C   0  0  1  0  0  0
  -20.5880  -28.3678   23.1298 C   0  0  2  0  0  0
  -20.6778  -26.9409   22.5406 C   0  0  0  0  0  0
  -19.5758  -26.6384   21.5208 C   0  0  0  0  0  0
  -18.1939  -26.7931   22.1613 C   0  0  0  0  0  0
  -19.1533  -28.8843   23.2894 C   0  0  0  0  0  0
  -18.9453  -30.1447   23.8908 C   0  0  0  0  0  0
  -17.6455  -30.6588   24.0558 C   0  0  0  0  0  0
  -25.9036  -34.9471   23.5128 C   0  0  0  0  0  0
  -16.5349  -29.9086   23.6319 C   0  0  0  0  0  0
  -16.7273  -28.6500   23.0346 C   0  0  0  0  0  0
  -26.4480  -31.6600   25.0742 C   0  0  0  0  0  0
  -25.3728  -31.3721   26.1478 C   0  0  0  0  0  0
  -27.0319  -30.3040   24.6144 C   0  0  0  0  0  0
  -27.6062  -32.4308   25.7507 C   0  0  0  0  0  0
  -27.5584  -37.1810   24.8462 C   0  0  0  0  0  0
  -21.4157  -29.3046   22.3698 N   0  0  0  0  0  0
  -26.4295  -37.3790   23.9410 N   0  0  0  0  0  0
  -24.6766  -31.0736   22.1021 N   0  0  0  0  0  0
  -23.4189  -28.8181   23.2997 O   0  0  0  0  0  0
  -28.3834  -26.6109   20.1264 O   0  0  0  0  0  0
  -26.5582  -34.8920   22.4679 O   0  0  0  0  0  0
  -23.5370  -32.1433   23.7465 O   0  0  0  0  0  0
  -28.7084  -20.2860   18.7826 C   0  0  0  0  0  0
  -28.2476  -21.4768   18.1061 C   0  0  0  0  0  0
  -29.4501  -20.3925   19.9137 C   0  0  0  0  0  0
  -29.7411  -21.7582   20.4639 C   0  0  0  0  0  0
  -31.4661  -17.5561   21.3968 C   0  0  0  0  0  0
  -31.1576  -19.0653   21.3212 C   0  0  0  0  0  0
  -29.3510  -17.8658   20.3889 C   0  0  0  0  0  0
  -30.0675  -16.9405   21.3947 C   0  0  1  0  0  0
  -29.4069  -24.2406   20.1541 C   0  0  0  0  0  0
  -28.2538  -25.2162   19.7400 C   0  0  0  0  0  0
  -28.4929  -22.6556   18.5660 N   0  0  0  0  0  0
  -29.9154  -19.2183   20.5573 N   0  0  0  0  0  0
  -29.2064  -22.8125   19.7468 N   0  0  0  0  0  0
  -29.9046  -15.4831   21.1527 N   0  0  0  0  0  0
  -30.4016  -21.9543   21.4860 O   0  0  0  0  0  0
  -31.4817  -12.4626   19.1278 H   0  0  0  0  0  0
  -30.3592  -11.3274   19.8210 H   0  0  0  0  0  0
  -29.7593  -11.8080   17.4271 H   0  0  0  0  0  0
  -29.6602  -13.5132   17.7760 H   0  0  0  0  0  0
  -27.8455  -11.3095   18.8132 H   0  0  0  0  0  0
  -27.3746  -12.6361   17.7857 H   0  0  0  0  0  0
  -27.7068  -14.2509   19.5752 H   0  0  0  0  0  0
  -28.6948  -11.9408   21.3179 H   0  0  0  0  0  0
  -28.4515  -13.5608   21.8846 H   0  0  0  0  0  0
  -25.2755   -9.5711   22.4745 H   0  0  0  0  0  0
  -24.0018   -7.4640   22.7463 H   0  0  0  0  0  0
  -21.0843   -8.8752   19.8948 H   0  0  0  0  0  0
  -22.3672  -10.9666   19.6154 H   0  0  0  0  0  0
  -21.2007   -7.6146   23.9716 H   0  0  0  0  0  0
  -21.1488   -6.0519   25.9079 H   0  0  0  0  0  0
  -22.0596   -2.7606   23.2836 H   0  0  0  0  0  0
  -22.4097  -11.9928   22.4819 H   0  0  0  0  0  0
  -21.1092  -13.1271   22.2558 H   0  0  0  0  0  0
  -24.6670  -15.8427   20.5112 H   0  0  0  0  0  0
  -26.2827  -15.6204   20.0672 H   0  0  0  0  0  0
  -26.7139  -32.5515   23.1161 H   0  0  0  0  0  0
  -25.0107  -33.9778   25.0503 H   0  0  0  0  0  0
  -22.7001  -31.3124   21.4134 H   0  0  0  0  0  0
  -23.3752  -35.9640   23.3294 H   0  0  0  0  0  0
  -24.3588  -36.8921   22.2052 H   0  0  0  0  0  0
  -23.7238  -37.6512   23.6644 H   0  0  0  0  0  0
  -26.0645  -31.5840   20.6039 H   0  0  0  0  0  0
  -26.8301  -30.8676   21.9941 H   0  0  0  0  0  0
  -28.1046  -29.0489   21.1776 H   0  0  0  0  0  0
  -25.9820  -25.9894   18.9613 H   0  0  0  0  0  0
  -23.9659  -27.3232   19.0172 H   0  0  0  0  0  0
  -23.7366  -30.6116   19.4095 H   0  0  0  0  0  0
  -22.7417  -29.2605   19.8607 H   0  0  0  0  0  0
  -25.1284  -36.1970   25.0830 H   0  0  0  0  0  0
  -20.9979  -28.3248   24.1414 H   0  0  0  0  0  0
  -20.5693  -26.2283   23.3593 H   0  0  0  0  0  0
  -21.6650  -26.7461   22.1194 H   0  0  0  0  0  0
  -19.6921  -25.6296   21.1240 H   0  0  0  0  0  0
  -19.6704  -27.3184   20.6733 H   0  0  0  0  0  0
  -17.4210  -26.6679   21.4012 H   0  0  0  0  0  0
  -18.0336  -26.0074   22.9009 H   0  0  0  0  0  0
  -19.7929  -30.7259   24.2284 H   0  0  0  0  0  0
  -17.5011  -31.6269   24.5159 H   0  0  0  0  0  0
  -15.5349  -30.2987   23.7647 H   0  0  0  0  0  0
  -15.8675  -28.0826   22.7051 H   0  0  0  0  0  0
  -24.5906  -30.7064   25.7807 H   0  0  0  0  0  0
  -24.8910  -32.2883   26.4908 H   0  0  0  0  0  0
  -25.8064  -30.8900   27.0251 H   0  0  0  0  0  0
  -26.2881  -29.6802   24.1173 H   0  0  0  0  0  0
  -27.4053  -29.7277   25.4620 H   0  0  0  0  0  0
  -27.8730  -30.4354   23.9331 H   0  0  0  0  0  0
  -27.2700  -33.3603   26.2113 H   0  0  0  0  0  0
  -28.3867  -32.6874   25.0330 H   0  0  0  0  0  0
  -28.0736  -31.8409   26.5400 H   0  0  0  0  0  0
  -28.2596  -38.0113   24.7517 H   0  0  0  0  0  0
  -28.1084  -36.2645   24.6275 H   0  0  0  0  0  0
  -27.2302  -37.1443   25.8865 H   0  0  0  0  0  0
  -20.9313  -29.8782   21.6939 H   0  0  0  0  0  0
  -26.0181  -38.2866   24.1413 H   0  0  0  0  0  0
  -28.4604  -19.3335   18.3401 H   0  0  0  0  0  0
  -27.6859  -21.3148   17.1851 H   0  0  0  0  0  0
  -32.0524  -17.2931   22.2776 H   0  0  0  0  0  0
  -32.0291  -17.2628   20.5103 H   0  0  0  0  0  0
  -31.9828  -19.6124   20.8644 H   0  0  0  0  0  0
  -31.0120  -19.4666   22.3253 H   0  0  0  0  0  0
  -28.2716  -17.8658   20.5490 H   0  0  0  0  0  0
  -29.5363  -17.5256   19.3685 H   0  0  0  0  0  0
  -29.6311  -17.1268   22.3779 H   0  0  0  0  0  0
  -29.5239  -24.3077   21.2367 H   0  0  0  0  0  0
  -30.3486  -24.5856   19.7266 H   0  0  0  0  0  0
  -27.3449  -24.7996   20.1759 H   0  0  0  0  0  0
  -28.1379  -25.2051   18.6550 H   0  0  0  0  0  0
  -29.0123  -15.1270   21.4626 H   0  0  0  0  0  0
  1 25  1  0  0  0
  1 30  2  0  0  0
  1 84  1  0  0  0
  2  3  1  0  0  0
  2 25  1  0  0  0
  2 86  1  0  0  0
  2 87  1  0  0  0
  3  4  1  0  0  0
  3 88  1  0  0  0
  3 89  1  0  0  0
  4  5  1  0  0  0
  4 90  1  0  0  0
  4 91  1  0  0  0
  5  6  1  0  0  0
  5 26  1  0  0  0
  5 92  1  0  0  0
  6 25  1  0  0  0
  6 93  1  0  0  0
  6 94  1  0  0  0
  7  8  2  0  0  0
  7 26  1  0  0  0
  7 29  1  0  0  0
  8  9  1  0  0  0
  8 22  1  0  0  0
  9 10  1  0  0  0
  9 27  2  0  0  0
 10 11  2  0  0  0
 10 15  1  0  0  0
 11 12  1  0  0  0
 11 95  1  0  0  0
 12 13  2  0  0  0
 12 96  1  0  0  0
 13 14  1  0  0  0
 13 31  1  0  0  0
 14 15  2  0  0  0
 14 97  1  0  0  0
 15 98  1  0  0  0
 16 17  2  0  0  0
 16 21  1  0  0  0
 16 31  1  0  0  0
 17 18  1  0  0  0
 17 99  1  0  0  0
 18 19  2  0  0  0
 18100  1  0  0  0
 19 20  1  0  0  0
 19 24  1  0  0  0
 20 21  2  0  0  0
 20101  1  0  0  0
 21 23  1  0  0  0
 22 28  1  0  0  0
 22 32  2  0  0  0
 26 27  1  0  0  0
 28102  1  0  0  0
 28103  1  0  0  0
 29104  1  0  0  0
 29105  1  0  0  0
 33 34  1  0  0  0
 33 66  1  0  0  0
 33 70  2  0  0  0
 34 36  1  0  0  0
 34 59  1  0  0  0
 34106  1  0  0  0
 35 44  2  0  0  0
 35 45  1  0  0  0
 35 68  1  0  0  0
 36 56  1  0  0  0
 36107  1  0  0  0
 37 39  1  0  0  0
 37 47  1  0  0  0
 37 66  1  0  0  0
 37108  1  0  0  0
 38 43  2  0  0  0
 38 46  1  0  0  0
 38 47  1  0  0  0
 39 64  1  0  0  0
 39 67  2  0  0  0
 40 52  1  0  0  0
 40 53  2  0  0  0
 40 58  1  0  0  0
 41109  1  0  0  0
 41110  1  0  0  0
 41111  1  0  0  0
 41 48  1  0  0  0
 42 43  1  0  0  0
 42 66  1  0  0  0
 42112  1  0  0  0
 42113  1  0  0  0
 43 44  1  0  0  0
 44114  1  0  0  0
 45 46  2  0  0  0
 45115  1  0  0  0
 46116  1  0  0  0
 47117  1  0  0  0
 47118  1  0  0  0
 48 56  1  0  0  0
 48 65  1  0  0  0
 48119  1  0  0  0
 49 50  1  0  0  0
 49 53  1  0  0  0
 49 64  1  0  0  0
 49120  1  0  0  0
 50 51  1  0  0  0
 50121  1  0  0  0
 50122  1  0  0  0
 51 52  1  0  0  0
 51123  1  0  0  0
 51124  1  0  0  0
 52125  1  0  0  0
 52126  1  0  0  0
 53 54  1  0  0  0
 54 55  2  0  0  0
 54127  1  0  0  0
 55 57  1  0  0  0
 55128  1  0  0  0
 56 69  2  0  0  0
 57 58  2  0  0  0
 57129  1  0  0  0
 58130  1  0  0  0
 59 60  1  0  0  0
 59 61  1  0  0  0
 59 62  1  0  0  0
 60131  1  0  0  0
 60132  1  0  0  0
 60133  1  0  0  0
 61134  1  0  0  0
 61135  1  0  0  0
 61136  1  0  0  0
 62137  1  0  0  0
 62138  1  0  0  0
 62139  1  0  0  0
 63 65  1  0  0  0
 63140  1  0  0  0
 63141  1  0  0  0
 63142  1  0  0  0
 64143  1  0  0  0
 65144  1  0  0  0
 68 80  1  0  0  0
 71 72  1  0  0  0
 71 73  2  0  0  0
 71145  1  0  0  0
 72 81  2  0  0  0
 72146  1  0  0  0
 73 74  1  0  0  0
 73 82  1  0  0  0
 74 83  1  0  0  0
 74 85  2  0  0  0
 75 76  1  0  0  0
 75 78  1  0  0  0
 75147  1  0  0  0
 75148  1  0  0  0
 76 82  1  0  0  0
 76149  1  0  0  0
 76150  1  0  0  0
 77 78  1  0  0  0
 77 82  1  0  0  0
 77151  1  0  0  0
 77152  1  0  0  0
 78 84  1  0  0  0
 78153  1  0  0  0
 79 80  1  0  0  0
 79 83  1  0  0  0
 79154  1  0  0  0
 79155  1  0  0  0
 80156  1  0  0  0
 80157  1  0  0  0
 81 83  1  0  0  0
 84158  1  0  0  0
M  ISO  4   1 100  68 101  80 101  84 100
M  END
> <chiral flag>
0

> <version>
0

> <s_m_source_file>
/data/baiqing/PycharmProjects/Reinvent-master-3.2/result/LINK_invent/BTK/process_docking_weight1_custom_sum_contain_oxygen_bond_distance_aromatic_linkinvent_7_9_3/rearranged_h_0196.sdf

> <i_m_source_file_index>
71

> <r_mmod_Potential_Energy-OPLS-2005>
92.4059982299805

> <r_mmod_Stretch_Energy-OPLS-2005>
61.7873001098633

> <r_mmod_Bend_Energy-OPLS-2005>
157.811859130859

> <r_mmod_Torsional_Energy-OPLS-2005>
251.117401123047

> <r_mmod_Improper_Torsional_Energy-OPLS-2005>
3.36526393890381

> <r_mmod_Van_der_Waal_Energy-OPLS-2005>
179.074356079102

> <r_mmod_Electrostatic_Energy-OPLS-2005>
-328.908264160156

> <r_mmod_Solvation_Energy-OPLS-2005>
-252.024307250977

> <b_mmod_Minimization_Converged-OPLS-2005>
0

> <r_mmod_RMS_Derivative-OPLS-2005>
1.23664116859436

$$$$
72
                    3D
 Structure written by MMmdl.
168177  0  0  1  0            999 V2000
  -30.7207  -14.5299   20.5595 C   0  0  0  0  0  0
  -30.4233  -12.3414   19.4366 C   0  0  0  0  0  0
  -29.4978  -12.5112   18.2144 C   0  0  0  0  0  0
  -28.0230  -12.3601   18.6318 C   0  0  0  0  0  0
  -27.6622  -13.2180   19.8748 C   0  0  2  0  0  0
  -28.7088  -13.0458   21.0000 C   0  0  0  0  0  0
  -25.2595  -13.8180   20.5702 C   0  0  0  0  0  0
  -24.1843  -13.0447   20.9183 C   0  0  0  0  0  0
  -24.6412  -11.6916   20.8736 C   0  0  0  0  0  0
  -23.9077  -10.4294   21.0408 C   0  0  0  0  0  0
  -24.3617   -9.4208   21.9192 C   0  0  0  0  0  0
  -23.6291   -8.2250   22.0762 C   0  0  0  0  0  0
  -22.4279   -8.0283   21.3545 C   0  0  0  0  0  0
  -21.9918   -9.0260   20.4651 C   0  0  0  0  0  0
  -22.7252  -10.2137   20.3059 C   0  0  0  0  0  0
  -21.6854   -6.0731   22.5273 C   0  0  0  0  0  0
  -21.4012   -6.5634   23.8205 C   0  0  0  0  0  0
  -21.3660   -5.6792   24.9169 C   0  0  0  0  0  0
  -21.6051   -4.3057   24.7225 C   0  0  0  0  0  0
  -21.8821   -3.8141   23.4349 C   0  0  0  0  0  0
  -21.9188   -4.6955   22.3397 C   0  0  0  0  0  0
  -22.7864  -13.5240   21.1840 C   0  0  0  0  0  0
  -22.1658   -4.2138   21.0979 F   0  0  0  0  0  0
  -21.5632   -3.4537   25.7742 F   0  0  0  0  0  0
  -30.0361  -13.3519   20.4388 N   0  0  0  0  0  0
  -26.3048  -12.9383   20.3410 N   0  0  0  0  0  0
  -25.9352  -11.6526   20.5795 N   0  0  0  0  0  0
  -22.0496  -12.8216   22.0385 N   0  0  0  0  0  0
  -25.4310  -15.1903   20.4111 N   0  0  0  0  0  0
  -31.8180  -14.7052   20.0210 O   0  0  0  0  0  0
  -21.6642   -6.8876   21.4244 O   0  0  0  0  0  0
  -22.3556  -14.5546   20.6701 O   0  0  0  0  0  0
  -24.6233  -31.8585   23.2022 C   0  0  0  0  0  0
  -25.9090  -32.4764   23.8344 C   0  0  1  0  0  0
  -27.2487  -27.3548   20.1039 C   0  0  0  0  0  0
  -25.5940  -33.8563   24.2271 N   0  0  0  0  0  0
  -23.4166  -30.4787   21.5423 C   0  0  2  0  0  0
  -24.8699  -28.9409   20.1056 C   0  0  0  0  0  0
  -22.7469  -29.4582   22.4932 C   0  0  0  0  0  0
  -18.0284  -28.1346   22.8441 C   0  0  0  0  0  0
  -24.1502  -36.7279   23.2641 C   0  0  0  0  0  0
  -25.9542  -30.7999   21.3705 C   0  0  0  0  0  0
  -26.0319  -29.4298   20.7125 C   0  0  0  0  0  0
  -27.2186  -28.6449   20.7072 C   0  0  0  0  0  0
  -26.0644  -26.9132   19.4645 C   0  0  0  0  0  0
  -24.8861  -27.6858   19.4762 C   0  0  0  0  0  0
  -23.6312  -29.8111   20.1578 C   0  0  0  0  0  0
  -25.4122  -36.3059   24.0334 C   0  0  1  0  0  0
  -20.5890  -28.3637   23.1263 C   0  0  2  0  0  0
  -20.6787  -26.9361   22.5386 C   0  0  0  0  0  0
  -19.5776  -26.6352   21.5170 C   0  0  0  0  0  0
  -18.1945  -26.7887   22.1578 C   0  0  0  0  0  0
  -19.1544  -28.8803   23.2833 C   0  0  0  0  0  0
  -18.9477  -30.1410   23.8835 C   0  0  0  0  0  0
  -17.6482  -30.6552   24.0547 C   0  0  0  0  0  0
  -25.9051  -34.9432   23.5089 C   0  0  0  0  0  0
  -16.5359  -29.9055   23.6322 C   0  0  0  0  0  0
  -16.7283  -28.6490   23.0303 C   0  0  0  0  0  0
  -26.4484  -31.6583   25.0708 C   0  0  0  0  0  0
  -25.3729  -31.3722   26.1438 C   0  0  0  0  0  0
  -27.0339  -30.3032   24.6126 C   0  0  0  0  0  0
  -27.6035  -32.4322   25.7492 C   0  0  0  0  0  0
  -27.5577  -37.1797   24.8466 C   0  0  0  0  0  0
  -21.4188  -29.2997   22.3668 N   0  0  0  0  0  0
  -26.4288  -37.3757   23.9406 N   0  0  0  0  0  0
  -24.6823  -31.0615   22.0965 N   0  0  0  0  0  0
  -23.4193  -28.8127   23.3005 O   0  0  0  0  0  0
  -28.4017  -26.5602   20.1630 O   0  0  0  0  0  0
  -26.5599  -34.8905   22.4648 O   0  0  0  0  0  0
  -23.5391  -32.1364   23.7362 O   0  0  0  0  0  0
  -29.6638  -20.2423   20.3795 C   0  0  0  0  0  0
  -29.6788  -19.4635   21.5262 C   0  0  0  0  0  0
  -29.5092  -21.6045   20.8195 C   0  0  0  0  0  0
  -30.5563  -17.2958   22.8141 C   0  0  0  0  0  0
  -30.4095  -15.7814   22.6004 C   0  0  0  0  0  0
  -29.9132  -16.9247   20.5869 C   0  0  0  0  0  0
  -29.6454  -17.9229   21.7534 C   0  0  2  0  0  0
  -27.0397  -22.1267   24.8707 C   0  0  0  0  0  0
  -29.4281  -20.2173   24.0038 C   0  0  0  0  0  0
  -29.3684  -24.1543   20.4850 C   0  0  0  0  0  0
  -27.9770  -19.8654   24.3854 C   0  0  0  0  0  0
  -28.3335  -25.1362   19.8063 C   0  0  0  0  0  0
  -29.4783  -21.6818   22.1274 N   0  0  0  0  0  0
  -29.5707  -20.3996   22.5651 N   0  0  0  0  0  0
  -30.0946  -15.5664   21.1861 N   0  0  0  0  0  0
  -29.3201  -22.7431   19.9970 N   0  0  0  0  0  0
  -27.0283  -20.9351   23.9990 N   0  3  0  0  0  0
  -31.4688  -12.4284   19.1326 H   0  0  0  0  0  0
  -30.3222  -11.3385   19.8570 H   0  0  0  0  0  0
  -29.7461  -11.7760   17.4475 H   0  0  0  0  0  0
  -29.6551  -13.4917   17.7612 H   0  0  0  0  0  0
  -27.8508  -11.3052   18.8498 H   0  0  0  0  0  0
  -27.3652  -12.6084   17.7975 H   0  0  0  0  0  0
  -27.6932  -14.2607   19.5562 H   0  0  0  0  0  0
  -28.6964  -12.0240   21.3839 H   0  0  0  0  0  0
  -28.4628  -13.6847   21.8491 H   0  0  0  0  0  0
  -25.2757   -9.5676   22.4769 H   0  0  0  0  0  0
  -23.9983   -7.4643   22.7486 H   0  0  0  0  0  0
  -21.0844   -8.8794   19.8951 H   0  0  0  0  0  0
  -22.3723  -10.9678   19.6160 H   0  0  0  0  0  0
  -21.2010   -7.6139   23.9704 H   0  0  0  0  0  0
  -21.1484   -6.0522   25.9070 H   0  0  0  0  0  0
  -22.0599   -2.7603   23.2858 H   0  0  0  0  0  0
  -22.4094  -11.9853   22.4735 H   0  0  0  0  0  0
  -21.1123  -13.1257   22.2600 H   0  0  0  0  0  0
  -24.6679  -15.8488   20.5176 H   0  0  0  0  0  0
  -26.2934  -15.6271   20.1132 H   0  0  0  0  0  0
  -26.7170  -32.5448   23.1109 H   0  0  0  0  0  0
  -25.0139  -33.9730   25.0452 H   0  0  0  0  0  0
  -22.7053  -31.2955   21.3991 H   0  0  0  0  0  0
  -23.3743  -35.9631   23.3309 H   0  0  0  0  0  0
  -24.3596  -36.8886   22.2057 H   0  0  0  0  0  0
  -23.7271  -37.6491   23.6667 H   0  0  0  0  0  0
  -26.0825  -31.5644   20.6034 H   0  0  0  0  0  0
  -26.8346  -30.8464   21.9998 H   0  0  0  0  0  0
  -28.1128  -29.0164   21.1872 H   0  0  0  0  0  0
  -26.0205  -25.9668   18.9483 H   0  0  0  0  0  0
  -24.0005  -27.3083   18.9845 H   0  0  0  0  0  0
  -23.7391  -30.5869   19.3970 H   0  0  0  0  0  0
  -22.7547  -29.2309   19.8607 H   0  0  0  0  0  0
  -25.1297  -36.1915   25.0825 H   0  0  0  0  0  0
  -20.9975  -28.3218   24.1393 H   0  0  0  0  0  0
  -20.5653  -26.2249   23.3578 H   0  0  0  0  0  0
  -21.6643  -26.7373   22.1179 H   0  0  0  0  0  0
  -19.6933  -25.6275   21.1190 H   0  0  0  0  0  0
  -19.6729  -27.3156   20.6688 H   0  0  0  0  0  0
  -17.4201  -26.6588   21.4003 H   0  0  0  0  0  0
  -18.0363  -26.0053   22.8992 H   0  0  0  0  0  0
  -19.7952  -30.7225   24.2198 H   0  0  0  0  0  0
  -17.5033  -31.6241   24.5121 H   0  0  0  0  0  0
  -15.5347  -30.2919   23.7700 H   0  0  0  0  0  0
  -15.8685  -28.0820   22.6992 H   0  0  0  0  0  0
  -24.5909  -30.7059   25.7775 H   0  0  0  0  0  0
  -24.8899  -32.2891   26.4833 H   0  0  0  0  0  0
  -25.8044  -30.8921   27.0232 H   0  0  0  0  0  0
  -26.2903  -29.6791   24.1149 H   0  0  0  0  0  0
  -27.4085  -29.7272   25.4598 H   0  0  0  0  0  0
  -27.8760  -30.4347   23.9314 H   0  0  0  0  0  0
  -27.2643  -33.3635   26.2037 H   0  0  0  0  0  0
  -28.3877  -32.6863   25.0345 H   0  0  0  0  0  0
  -28.0685  -31.8469   26.5436 H   0  0  0  0  0  0
  -28.2564  -38.0116   24.7482 H   0  0  0  0  0  0
  -28.1089  -36.2628   24.6308 H   0  0  0  0  0  0
  -27.2285  -37.1452   25.8867 H   0  0  0  0  0  0
  -20.9363  -29.8778   21.6943 H   0  0  0  0  0  0
  -26.0156  -38.2828   24.1404 H   0  0  0  0  0  0
  -29.6908  -19.8703   19.3649 H   0  0  0  0  0  0
  -31.5923  -17.5989   22.6536 H   0  0  0  0  0  0
  -30.2896  -17.5205   23.8414 H   0  0  0  0  0  0
  -29.5785  -15.3937   23.1910 H   0  0  0  0  0  0
  -31.3063  -15.2482   22.9276 H   0  0  0  0  0  0
  -30.8186  -17.2089   20.0468 H   0  0  0  0  0  0
  -29.0910  -16.9182   19.8712 H   0  0  0  0  0  0
  -28.6287  -17.7063   22.0809 H   0  0  0  0  0  0
  -28.0073  -22.6296   24.8563 H   0  0  0  0  0  0
  -26.8031  -21.8598   25.9011 H   0  0  0  0  0  0
  -26.2909  -22.8410   24.5298 H   0  0  0  0  0  0
  -30.1337  -19.4784   24.3613 H   0  0  0  0  0  0
  -29.7420  -21.1296   24.5127 H   0  0  0  0  0  0
  -29.2339  -24.1901   21.5663 H   0  0  0  0  0  0
  -30.3771  -24.5266   20.3026 H   0  0  0  0  0  0
  -27.8997  -19.6678   25.4553 H   0  0  0  0  0  0
  -27.6815  -18.9418   23.8846 H   0  0  0  0  0  0
  -27.3528  -24.7307   20.0437 H   0  0  0  0  0  0
  -28.4536  -25.0728   18.7237 H   0  0  0  0  0  0
  -29.3519  -22.5998   18.9910 H   0  0  0  0  0  0
  -27.2415  -21.2264   23.0567 H   0  0  0  0  0  0
  -26.0960  -20.5545   24.0019 H   0  0  0  0  0  0
  1 25  1  0  0  0
  1 30  2  0  0  0
  1 85  1  0  0  0
  2  3  1  0  0  0
  2 25  1  0  0  0
  2 88  1  0  0  0
  2 89  1  0  0  0
  3  4  1  0  0  0
  3 90  1  0  0  0
  3 91  1  0  0  0
  4  5  1  0  0  0
  4 92  1  0  0  0
  4 93  1  0  0  0
  5  6  1  0  0  0
  5 26  1  0  0  0
  5 94  1  0  0  0
  6 25  1  0  0  0
  6 95  1  0  0  0
  6 96  1  0  0  0
  7  8  2  0  0  0
  7 26  1  0  0  0
  7 29  1  0  0  0
  8  9  1  0  0  0
  8 22  1  0  0  0
  9 10  1  0  0  0
  9 27  2  0  0  0
 10 11  2  0  0  0
 10 15  1  0  0  0
 11 12  1  0  0  0
 11 97  1  0  0  0
 12 13  2  0  0  0
 12 98  1  0  0  0
 13 14  1  0  0  0
 13 31  1  0  0  0
 14 15  2  0  0  0
 14 99  1  0  0  0
 15100  1  0  0  0
 16 17  2  0  0  0
 16 21  1  0  0  0
 16 31  1  0  0  0
 17 18  1  0  0  0
 17101  1  0  0  0
 18 19  2  0  0  0
 18102  1  0  0  0
 19 20  1  0  0  0
 19 24  1  0  0  0
 20 21  2  0  0  0
 20103  1  0  0  0
 21 23  1  0  0  0
 22 28  1  0  0  0
 22 32  2  0  0  0
 26 27  1  0  0  0
 28104  1  0  0  0
 28105  1  0  0  0
 29106  1  0  0  0
 29107  1  0  0  0
 33 34  1  0  0  0
 33 66  1  0  0  0
 33 70  2  0  0  0
 34 36  1  0  0  0
 34 59  1  0  0  0
 34108  1  0  0  0
 35 44  2  0  0  0
 35 45  1  0  0  0
 35 68  1  0  0  0
 36 56  1  0  0  0
 36109  1  0  0  0
 37 39  1  0  0  0
 37 47  1  0  0  0
 37 66  1  0  0  0
 37110  1  0  0  0
 38 43  2  0  0  0
 38 46  1  0  0  0
 38 47  1  0  0  0
 39 64  1  0  0  0
 39 67  2  0  0  0
 40 52  1  0  0  0
 40 53  2  0  0  0
 40 58  1  0  0  0
 41111  1  0  0  0
 41112  1  0  0  0
 41113  1  0  0  0
 41 48  1  0  0  0
 42 43  1  0  0  0
 42 66  1  0  0  0
 42114  1  0  0  0
 42115  1  0  0  0
 43 44  1  0  0  0
 44116  1  0  0  0
 45 46  2  0  0  0
 45117  1  0  0  0
 46118  1  0  0  0
 47119  1  0  0  0
 47120  1  0  0  0
 48 56  1  0  0  0
 48 65  1  0  0  0
 48121  1  0  0  0
 49 50  1  0  0  0
 49 53  1  0  0  0
 49 64  1  0  0  0
 49122  1  0  0  0
 50 51  1  0  0  0
 50123  1  0  0  0
 50124  1  0  0  0
 51 52  1  0  0  0
 51125  1  0  0  0
 51126  1  0  0  0
 52127  1  0  0  0
 52128  1  0  0  0
 53 54  1  0  0  0
 54 55  2  0  0  0
 54129  1  0  0  0
 55 57  1  0  0  0
 55130  1  0  0  0
 56 69  2  0  0  0
 57 58  2  0  0  0
 57131  1  0  0  0
 58132  1  0  0  0
 59 60  1  0  0  0
 59 61  1  0  0  0
 59 62  1  0  0  0
 60133  1  0  0  0
 60134  1  0  0  0
 60135  1  0  0  0
 61136  1  0  0  0
 61137  1  0  0  0
 61138  1  0  0  0
 62139  1  0  0  0
 62140  1  0  0  0
 62141  1  0  0  0
 63 65  1  0  0  0
 63142  1  0  0  0
 63143  1  0  0  0
 63144  1  0  0  0
 64145  1  0  0  0
 65146  1  0  0  0
 68 82  1  0  0  0
 71 72  2  0  0  0
 71 73  1  0  0  0
 71147  1  0  0  0
 72 84  1  0  0  0
 72 77  1  0  0  0
 73 83  2  0  0  0
 73 86  1  0  0  0
 74 75  1  0  0  0
 74 77  1  0  0  0
 74148  1  0  0  0
 74149  1  0  0  0
 75 85  1  0  0  0
 75150  1  0  0  0
 75151  1  0  0  0
 76 77  1  0  0  0
 76 85  1  0  0  0
 76152  1  0  0  0
 76153  1  0  0  0
 77154  1  0  0  0
 78 87  1  0  0  0
 78155  1  0  0  0
 78156  1  0  0  0
 78157  1  0  0  0
 79 81  1  0  0  0
 79 84  1  0  0  0
 79158  1  0  0  0
 79159  1  0  0  0
 80 82  1  0  0  0
 80 86  1  0  0  0
 80160  1  0  0  0
 80161  1  0  0  0
 81 87  1  0  0  0
 81162  1  0  0  0
 81163  1  0  0  0
 82164  1  0  0  0
 82165  1  0  0  0
 83 84  1  0  0  0
 86166  1  0  0  0
 87167  1  0  0  0
 87168  1  0  0  0
M  CHG  1  87   1
M  ISO  4   1 100  68 101  82 101  85 100
M  END
> <chiral flag>
0

> <version>
0

> <s_m_source_file>
/data/baiqing/PycharmProjects/Reinvent-master-3.2/result/LINK_invent/BTK/process_docking_weight1_custom_sum_contain_oxygen_bond_distance_aromatic_linkinvent_7_9_3/rearranged_h_0196.sdf

> <i_m_source_file_index>
72

> <r_mmod_Potential_Energy-OPLS-2005>
-94.4333953857422

> <r_mmod_Stretch_Energy-OPLS-2005>
63.3308143615723

> <r_mmod_Bend_Energy-OPLS-2005>
172.243713378906

> <r_mmod_Torsional_Energy-OPLS-2005>
328.712860107422

> <r_mmod_Improper_Torsional_Energy-OPLS-2005>
8.33774089813232

> <r_mmod_Van_der_Waal_Energy-OPLS-2005>
123.109436035156

> <r_mmod_Electrostatic_Energy-OPLS-2005>
-351.608978271484

> <r_mmod_Solvation_Energy-OPLS-2005>
-465.187194824219

> <b_mmod_Minimization_Converged-OPLS-2005>
0

> <r_mmod_RMS_Derivative-OPLS-2005>
3.0350387096405

$$$$
73
                    3D
 Structure written by MMmdl.
155164  0  0  1  0            999 V2000
  -30.5648  -14.9679   20.4188 C   0  0  0  0  0  0
  -30.4162  -12.6007   19.5233 C   0  0  0  0  0  0
  -29.5191  -12.5424   18.2666 C   0  0  0  0  0  0
  -28.0537  -12.3116   18.6765 C   0  0  0  0  0  0
  -27.6157  -13.2586   19.8255 C   0  0  2  0  0  0
  -28.6485  -13.3429   20.9688 C   0  0  0  0  0  0
  -25.2410  -13.8240   20.5741 C   0  0  0  0  0  0
  -24.1743  -13.0471   20.9230 C   0  0  0  0  0  0
  -24.6361  -11.6944   20.8765 C   0  0  0  0  0  0
  -23.9071  -10.4323   21.0437 C   0  0  0  0  0  0
  -24.3652   -9.4233   21.9196 C   0  0  0  0  0  0
  -23.6333   -8.2265   22.0755 C   0  0  0  0  0  0
  -22.4304   -8.0308   21.3550 C   0  0  0  0  0  0
  -21.9939   -9.0289   20.4657 C   0  0  0  0  0  0
  -22.7260  -10.2161   20.3071 C   0  0  0  0  0  0
  -21.6856   -6.0774   22.5287 C   0  0  0  0  0  0
  -21.4028   -6.5673   23.8225 C   0  0  0  0  0  0
  -21.3653   -5.6806   24.9180 C   0  0  0  0  0  0
  -21.6041   -4.3074   24.7220 C   0  0  0  0  0  0
  -21.8807   -3.8177   23.4340 C   0  0  0  0  0  0
  -21.9198   -4.7005   22.3402 C   0  0  0  0  0  0
  -22.7772  -13.5240   21.1893 C   0  0  0  0  0  0
  -22.1661   -4.2200   21.0975 F   0  0  0  0  0  0
  -21.5614   -3.4539   25.7726 F   0  0  0  0  0  0
  -29.9228  -13.7314   20.3617 N   0  0  0  0  0  0
  -26.2813  -12.9494   20.3197 N   0  0  0  0  0  0
  -25.9284  -11.6624   20.5718 N   0  0  0  0  0  0
  -22.0425  -12.8256   22.0462 N   0  0  0  0  0  0
  -25.4147  -15.1980   20.4207 N   0  0  0  0  0  0
  -31.7787  -14.9534   20.1780 O   0  0  0  0  0  0
  -21.6644   -6.8921   21.4253 O   0  0  0  0  0  0
  -22.3476  -14.5568   20.6742 O   0  0  0  0  0  0
  -24.6436  -31.8472   23.1855 C   0  0  0  0  0  0
  -25.9255  -32.4659   23.8205 C   0  0  1  0  0  0
  -27.2056  -27.1318   20.1712 C   0  0  0  0  0  0
  -25.6043  -33.8461   24.2145 N   0  0  0  0  0  0
  -23.4415  -30.4670   21.5309 C   0  0  2  0  0  0
  -24.8877  -28.8823   20.1217 C   0  0  0  0  0  0
  -22.7575  -29.4597   22.4883 C   0  0  0  0  0  0
  -18.0315  -28.1432   22.8503 C   0  0  0  0  0  0
  -24.1512  -36.7244   23.2628 C   0  0  0  0  0  0
  -25.9958  -30.7174   21.3860 C   0  0  0  0  0  0
  -26.0631  -29.3203   20.7471 C   0  0  0  0  0  0
  -27.2256  -28.4617   20.7572 C   0  0  0  0  0  0
  -26.0099  -26.7910   19.5072 C   0  0  0  0  0  0
  -24.8755  -27.6309   19.4847 C   0  0  0  0  0  0
  -23.6656  -29.7850   20.1538 C   0  0  0  0  0  0
  -25.4150  -36.2998   24.0284 C   0  0  1  0  0  0
  -20.5911  -28.3800   23.1287 C   0  0  2  0  0  0
  -20.6847  -26.9498   22.5529 C   0  0  0  0  0  0
  -19.5821  -26.6365   21.5353 C   0  0  0  0  0  0
  -18.1987  -26.7926   22.1718 C   0  0  0  0  0  0
  -19.1566  -28.8948   23.2822 C   0  0  0  0  0  0
  -18.9487  -30.1557   23.8815 C   0  0  0  0  0  0
  -17.6487  -30.6645   24.0534 C   0  0  0  0  0  0
  -25.9109  -34.9375   23.5016 C   0  0  0  0  0  0
  -16.5367  -29.9118   23.6354 C   0  0  0  0  0  0
  -16.7294  -28.6521   23.0383 C   0  0  0  0  0  0
  -26.4576  -31.6506   25.0618 C   0  0  0  0  0  0
  -25.3733  -31.3727   26.1282 C   0  0  0  0  0  0
  -27.0460  -30.2905   24.6192 C   0  0  0  0  0  0
  -27.6106  -32.4241   25.7415 C   0  0  0  0  0  0
  -27.5578  -37.1785   24.8457 C   0  0  0  0  0  0
  -21.4281  -29.3103   22.3651 N   0  0  0  0  0  0
  -26.4297  -37.3715   23.9387 N   0  0  0  0  0  0
  -24.7118  -31.0368   22.0853 N   0  0  0  0  0  0
  -23.4231  -28.8146   23.3040 O   0  0  0  0  0  0
  -28.2739  -26.1725   20.0848 O   0  0  0  0  0  0
  -26.5646  -34.8875   22.4567 O   0  0  0  0  0  0
  -23.5589  -32.1342   23.7146 O   0  0  0  0  0  0
  -28.5977  -24.7466   22.0551 C   0  0  0  0  0  0
  -28.8843  -23.4918   22.6185 C   0  0  0  0  0  0
  -28.3247  -24.8370   20.6902 C   0  0  0  0  0  0
  -28.6362  -22.3765   20.6119 C   0  0  0  0  0  0
  -30.3395  -17.2505   19.3307 C   0  0  0  0  0  0
  -29.4667  -17.1099   21.4906 C   0  0  0  0  0  0
  -29.5169  -18.6132   19.0844 C   0  0  0  0  0  0
  -28.6709  -18.5301   21.2540 C   0  0  0  0  0  0
  -28.5362  -20.8995   19.8875 C   0  0  0  0  0  0
  -28.8956  -22.3363   21.9154 N   0  0  0  0  0  0
  -28.3725  -23.6078   19.9828 N   0  0  0  0  0  0
  -29.8593  -16.2215   20.3253 N   0  0  0  0  0  0
  -29.2635  -19.5242   20.2665 N   0  3  0  0  0  0
  -31.4583  -12.7269   19.2301 H   0  0  0  0  0  0
  -30.3722  -11.6649   20.0862 H   0  0  0  0  0  0
  -29.8578  -11.7560   17.5906 H   0  0  0  0  0  0
  -29.5986  -13.4850   17.7185 H   0  0  0  0  0  0
  -27.9558  -11.2729   18.9964 H   0  0  0  0  0  0
  -27.3984  -12.4326   17.8131 H   0  0  0  0  0  0
  -27.5608  -14.2471   19.3669 H   0  0  0  0  0  0
  -28.7337  -12.4007   21.5122 H   0  0  0  0  0  0
  -28.3354  -14.0987   21.6919 H   0  0  0  0  0  0
  -25.2801   -9.5713   22.4783 H   0  0  0  0  0  0
  -24.0047   -7.4646   22.7466 H   0  0  0  0  0  0
  -21.0871   -8.8823   19.8970 H   0  0  0  0  0  0
  -22.3725  -10.9728   19.6198 H   0  0  0  0  0  0
  -21.2026   -7.6178   23.9758 H   0  0  0  0  0  0
  -21.1475   -6.0526   25.9084 H   0  0  0  0  0  0
  -22.0589   -2.7649   23.2810 H   0  0  0  0  0  0
  -22.4052  -11.9905   22.4845 H   0  0  0  0  0  0
  -21.1049  -13.1299   22.2700 H   0  0  0  0  0  0
  -24.6555  -15.8576   20.5472 H   0  0  0  0  0  0
  -26.2727  -15.6364   20.1108 H   0  0  0  0  0  0
  -26.7282  -32.5272   23.0897 H   0  0  0  0  0  0
  -25.0211  -33.9545   25.0306 H   0  0  0  0  0  0
  -22.7402  -31.2900   21.3754 H   0  0  0  0  0  0
  -23.3741  -35.9615   23.3279 H   0  0  0  0  0  0
  -24.3582  -36.8899   22.2048 H   0  0  0  0  0  0
  -23.7304  -37.6447   23.6671 H   0  0  0  0  0  0
  -26.1494  -31.4630   20.6027 H   0  0  0  0  0  0
  -26.8675  -30.7718   22.0268 H   0  0  0  0  0  0
  -28.1281  -28.8055   21.2398 H   0  0  0  0  0  0
  -25.9426  -25.8356   19.0046 H   0  0  0  0  0  0
  -23.9844  -27.3013   18.9679 H   0  0  0  0  0  0
  -22.7788  -29.2219   19.8501 H   0  0  0  0  0  0
  -23.8023  -30.5474   19.3855 H   0  0  0  0  0  0
  -25.1350  -36.1796   25.0769 H   0  0  0  0  0  0
  -20.9938  -28.3447   24.1433 H   0  0  0  0  0  0
  -20.5840  -26.2447   23.3800 H   0  0  0  0  0  0
  -21.6727  -26.7545   22.1332 H   0  0  0  0  0  0
  -19.6762  -27.3087   20.6828 H   0  0  0  0  0  0
  -19.7046  -25.6246   21.1502 H   0  0  0  0  0  0
  -17.4253  -26.6596   21.4132 H   0  0  0  0  0  0
  -18.0414  -26.0130   22.9181 H   0  0  0  0  0  0
  -19.7975  -30.7383   24.2141 H   0  0  0  0  0  0
  -17.5054  -31.6317   24.5175 H   0  0  0  0  0  0
  -15.5358  -30.3021   23.7735 H   0  0  0  0  0  0
  -15.8684  -28.0828   22.7142 H   0  0  0  0  0  0
  -24.5913  -30.7090   25.7561 H   0  0  0  0  0  0
  -24.8931  -32.2942   26.4583 H   0  0  0  0  0  0
  -25.7983  -30.8938   27.0112 H   0  0  0  0  0  0
  -26.3114  -29.6564   24.1215 H   0  0  0  0  0  0
  -27.4112  -29.7222   25.4758 H   0  0  0  0  0  0
  -27.8976  -30.4104   23.9488 H   0  0  0  0  0  0
  -27.2709  -33.3560   26.1931 H   0  0  0  0  0  0
  -28.3967  -32.6761   25.0282 H   0  0  0  0  0  0
  -28.0689  -31.8366   26.5379 H   0  0  0  0  0  0
  -28.2590  -38.0085   24.7472 H   0  0  0  0  0  0
  -28.1061  -36.2597   24.6316 H   0  0  0  0  0  0
  -27.2253  -37.1475   25.8844 H   0  0  0  0  0  0
  -20.9521  -29.8806   21.6804 H   0  0  0  0  0  0
  -26.0144  -38.2782   24.1331 H   0  0  0  0  0  0
  -28.6442  -25.6407   22.6592 H   0  0  0  0  0  0
  -29.1429  -23.4156   23.6662 H   0  0  0  0  0  0
  -31.3617  -17.5271   19.5974 H   0  0  0  0  0  0
  -30.4266  -16.7497   18.3649 H   0  0  0  0  0  0
  -28.8963  -16.5034   22.1939 H   0  0  0  0  0  0
  -30.3957  -17.3424   22.0163 H   0  0  0  0  0  0
  -28.5482  -18.3453   18.6592 H   0  0  0  0  0  0
  -30.0238  -19.1833   18.3053 H   0  0  0  0  0  0
  -28.5407  -19.0340   22.2113 H   0  0  0  0  0  0
  -27.6586  -18.2840   20.9229 H   0  0  0  0  0  0
  -28.8795  -21.1288   18.8802 H   0  0  0  0  0  0
  -27.4733  -20.6905   19.7616 H   0  0  0  0  0  0
  -30.1556  -19.8125   20.6358 H   0  0  0  0  0  0
  1 25  1  0  0  0
  1 30  2  0  0  0
  1 82  1  0  0  0
  2  3  1  0  0  0
  2 25  1  0  0  0
  2 84  1  0  0  0
  2 85  1  0  0  0
  3  4  1  0  0  0
  3 86  1  0  0  0
  3 87  1  0  0  0
  4  5  1  0  0  0
  4 88  1  0  0  0
  4 89  1  0  0  0
  5  6  1  0  0  0
  5 26  1  0  0  0
  5 90  1  0  0  0
  6 25  1  0  0  0
  6 91  1  0  0  0
  6 92  1  0  0  0
  7  8  2  0  0  0
  7 26  1  0  0  0
  7 29  1  0  0  0
  8  9  1  0  0  0
  8 22  1  0  0  0
  9 10  1  0  0  0
  9 27  2  0  0  0
 10 11  2  0  0  0
 10 15  1  0  0  0
 11 12  1  0  0  0
 11 93  1  0  0  0
 12 13  2  0  0  0
 12 94  1  0  0  0
 13 14  1  0  0  0
 13 31  1  0  0  0
 14 15  2  0  0  0
 14 95  1  0  0  0
 15 96  1  0  0  0
 16 17  2  0  0  0
 16 21  1  0  0  0
 16 31  1  0  0  0
 17 18  1  0  0  0
 17 97  1  0  0  0
 18 19  2  0  0  0
 18 98  1  0  0  0
 19 20  1  0  0  0
 19 24  1  0  0  0
 20 21  2  0  0  0
 20 99  1  0  0  0
 21 23  1  0  0  0
 22 28  1  0  0  0
 22 32  2  0  0  0
 26 27  1  0  0  0
 28100  1  0  0  0
 28101  1  0  0  0
 29102  1  0  0  0
 29103  1  0  0  0
 33 34  1  0  0  0
 33 66  1  0  0  0
 33 70  2  0  0  0
 34 36  1  0  0  0
 34 59  1  0  0  0
 34104  1  0  0  0
 35 44  2  0  0  0
 35 45  1  0  0  0
 35 68  1  0  0  0
 36 56  1  0  0  0
 36105  1  0  0  0
 37 39  1  0  0  0
 37 47  1  0  0  0
 37 66  1  0  0  0
 37106  1  0  0  0
 38 43  2  0  0  0
 38 46  1  0  0  0
 38 47  1  0  0  0
 39 64  1  0  0  0
 39 67  2  0  0  0
 40 52  1  0  0  0
 40 53  2  0  0  0
 40 58  1  0  0  0
 41107  1  0  0  0
 41108  1  0  0  0
 41109  1  0  0  0
 41 48  1  0  0  0
 42 43  1  0  0  0
 42 66  1  0  0  0
 42110  1  0  0  0
 42111  1  0  0  0
 43 44  1  0  0  0
 44112  1  0  0  0
 45 46  2  0  0  0
 45113  1  0  0  0
 46114  1  0  0  0
 47115  1  0  0  0
 47116  1  0  0  0
 48 56  1  0  0  0
 48 65  1  0  0  0
 48117  1  0  0  0
 49 50  1  0  0  0
 49 53  1  0  0  0
 49 64  1  0  0  0
 49118  1  0  0  0
 50 51  1  0  0  0
 50119  1  0  0  0
 50120  1  0  0  0
 51 52  1  0  0  0
 51121  1  0  0  0
 51122  1  0  0  0
 52123  1  0  0  0
 52124  1  0  0  0
 53 54  1  0  0  0
 54 55  2  0  0  0
 54125  1  0  0  0
 55 57  1  0  0  0
 55126  1  0  0  0
 56 69  2  0  0  0
 57 58  2  0  0  0
 57127  1  0  0  0
 58128  1  0  0  0
 59 60  1  0  0  0
 59 61  1  0  0  0
 59 62  1  0  0  0
 60129  1  0  0  0
 60130  1  0  0  0
 60131  1  0  0  0
 61132  1  0  0  0
 61133  1  0  0  0
 61134  1  0  0  0
 62135  1  0  0  0
 62136  1  0  0  0
 62137  1  0  0  0
 63 65  1  0  0  0
 63138  1  0  0  0
 63139  1  0  0  0
 63140  1  0  0  0
 64141  1  0  0  0
 65142  1  0  0  0
 68 73  1  0  0  0
 71 72  2  0  0  0
 71 73  1  0  0  0
 71143  1  0  0  0
 72 80  1  0  0  0
 72144  1  0  0  0
 73 81  2  0  0  0
 74 79  1  0  0  0
 74 80  2  0  0  0
 74 81  1  0  0  0
 75 77  1  0  0  0
 75 82  1  0  0  0
 75145  1  0  0  0
 75146  1  0  0  0
 76 78  1  0  0  0
 76 82  1  0  0  0
 76147  1  0  0  0
 76148  1  0  0  0
 77 83  1  0  0  0
 77149  1  0  0  0
 77150  1  0  0  0
 78 83  1  0  0  0
 78151  1  0  0  0
 78152  1  0  0  0
 79153  1  0  0  0
 79154  1  0  0  0
 79 83  1  0  0  0
 83155  1  0  0  0
M  CHG  1  83   1
M  ISO  4   1 100  68 101  73 101  82 100
M  END
> <chiral flag>
0

> <version>
0

> <s_m_source_file>
/data/baiqing/PycharmProjects/Reinvent-master-3.2/result/LINK_invent/BTK/process_docking_weight1_custom_sum_contain_oxygen_bond_distance_aromatic_linkinvent_7_9_3/rearranged_h_0196.sdf

> <i_m_source_file_index>
73

> <r_mmod_Potential_Energy-OPLS-2005>
61.3204345703125

> <r_mmod_Stretch_Energy-OPLS-2005>
222.922088623047

> <r_mmod_Bend_Energy-OPLS-2005>
291.204498291016

> <r_mmod_Torsional_Energy-OPLS-2005>
390.276519775391

> <r_mmod_Improper_Torsional_Energy-OPLS-2005>
18.5426006317139

> <r_mmod_Van_der_Waal_Energy-OPLS-2005>
137.86296081543

> <r_mmod_Electrostatic_Energy-OPLS-2005>
-738.4462890625

> <r_mmod_Solvation_Energy-OPLS-2005>
-459.159515380859

> <b_mmod_Minimization_Converged-OPLS-2005>
0

> <r_mmod_RMS_Derivative-OPLS-2005>
4.77341938018799

$$$$
74
                    3D
 Structure written by MMmdl.
163173  0  0  1  0            999 V2000
  -30.7054  -14.5702   20.5406 C   0  0  0  0  0  0
  -30.4072  -12.3653   19.4505 C   0  0  0  0  0  0
  -29.4837  -12.5081   18.2224 C   0  0  0  0  0  0
  -28.0121  -12.3500   18.6435 C   0  0  0  0  0  0
  -27.6483  -13.2231   19.8747 C   0  0  2  0  0  0
  -28.6950  -13.0990   21.0064 C   0  0  0  0  0  0
  -25.2506  -13.8181   20.5705 C   0  0  0  0  0  0
  -24.1798  -13.0444   20.9219 C   0  0  0  0  0  0
  -24.6379  -11.6922   20.8771 C   0  0  0  0  0  0
  -23.9036  -10.4303   21.0393 C   0  0  0  0  0  0
  -24.3586   -9.4246   21.9189 C   0  0  0  0  0  0
  -23.6294   -8.2263   22.0758 C   0  0  0  0  0  0
  -22.4291   -8.0268   21.3534 C   0  0  0  0  0  0
  -21.9892   -9.0239   20.4647 C   0  0  0  0  0  0
  -22.7190  -10.2139   20.3061 C   0  0  0  0  0  0
  -21.6866   -6.0758   22.5290 C   0  0  0  0  0  0
  -21.4032   -6.5666   23.8227 C   0  0  0  0  0  0
  -21.3648   -5.6807   24.9177 C   0  0  0  0  0  0
  -21.6022   -4.3073   24.7227 C   0  0  0  0  0  0
  -21.8819   -3.8168   23.4353 C   0  0  0  0  0  0
  -21.9205   -4.6983   22.3412 C   0  0  0  0  0  0
  -22.7820  -13.5239   21.1831 C   0  0  0  0  0  0
  -22.1672   -4.2167   21.0993 F   0  0  0  0  0  0
  -21.5613   -3.4559   25.7748 F   0  0  0  0  0  0
  -30.0107  -13.3980   20.4305 N   0  0  0  0  0  0
  -26.2961  -12.9393   20.3424 N   0  0  0  0  0  0
  -25.9322  -11.6537   20.5855 N   0  0  0  0  0  0
  -22.0445  -12.8237   22.0374 N   0  0  0  0  0  0
  -25.4139  -15.1867   20.4012 N   0  0  0  0  0  0
  -31.8571  -14.6628   20.1028 O   0  0  0  0  0  0
  -21.6651   -6.8879   21.4247 O   0  0  0  0  0  0
  -22.3518  -14.5538   20.6641 O   0  0  0  0  0  0
  -24.6256  -31.8635   23.2059 C   0  0  0  0  0  0
  -25.9123  -32.4812   23.8409 C   0  0  1  0  0  0
  -27.2138  -27.3496   20.1068 C   0  0  0  0  0  0
  -25.5986  -33.8597   24.2329 N   0  0  0  0  0  0
  -23.4156  -30.4900   21.5458 C   0  0  2  0  0  0
  -24.8541  -28.9540   20.1075 C   0  0  0  0  0  0
  -22.7490  -29.4646   22.4937 C   0  0  0  0  0  0
  -18.0307  -28.1411   22.8526 C   0  0  0  0  0  0
  -24.1442  -36.7259   23.2655 C   0  0  0  0  0  0
  -25.9555  -30.8011   21.3738 C   0  0  0  0  0  0
  -26.0254  -29.4331   20.7122 C   0  0  0  0  0  0
  -27.2089  -28.6418   20.7055 C   0  0  0  0  0  0
  -26.0278  -26.9308   19.4546 C   0  0  0  0  0  0
  -24.8571  -27.7114   19.4628 C   0  0  0  0  0  0
  -23.6260  -29.8378   20.1560 C   0  0  0  0  0  0
  -25.4064  -36.3057   24.0358 C   0  0  1  0  0  0
  -20.5904  -28.3678   23.1313 C   0  0  2  0  0  0
  -20.6780  -26.9420   22.5397 C   0  0  0  0  0  0
  -19.5720  -26.6416   21.5216 C   0  0  0  0  0  0
  -18.1914  -26.7952   22.1651 C   0  0  0  0  0  0
  -19.1557  -28.8858   23.2916 C   0  0  0  0  0  0
  -18.9482  -30.1501   23.8875 C   0  0  0  0  0  0
  -17.6467  -30.6602   24.0581 C   0  0  0  0  0  0
  -25.9041  -34.9466   23.5087 C   0  0  0  0  0  0
  -16.5364  -29.9109   23.6369 C   0  0  0  0  0  0
  -16.7296  -28.6545   23.0360 C   0  0  0  0  0  0
  -26.4487  -31.6617   25.0770 C   0  0  0  0  0  0
  -25.3760  -31.3744   26.1525 C   0  0  0  0  0  0
  -27.0354  -30.3047   24.6228 C   0  0  0  0  0  0
  -27.6010  -32.4339   25.7573 C   0  0  0  0  0  0
  -27.5529  -37.1777   24.8485 C   0  0  0  0  0  0
  -21.4194  -29.3020   22.3718 N   0  0  0  0  0  0
  -26.4206  -37.3795   23.9474 N   0  0  0  0  0  0
  -24.6828  -31.0684   22.0979 N   0  0  0  0  0  0
  -23.4239  -28.8225   23.3024 O   0  0  0  0  0  0
  -28.3381  -26.5167   20.1415 O   0  0  0  0  0  0
  -26.5569  -34.8942   22.4641 O   0  0  0  0  0  0
  -23.5433  -32.1399   23.7410 O   0  0  0  0  0  0
  -27.8380  -20.6765   19.7224 C   0  0  0  0  0  0
  -27.7642  -22.0381   19.5939 C   0  0  0  0  0  0
  -29.0638  -20.4364   20.4047 C   0  0  0  0  0  0
  -28.7032  -17.6400   22.9418 C   0  0  0  0  0  0
  -27.8932  -17.6214   21.6292 C   0  0  0  0  0  0
  -30.5741  -18.9290   21.7379 C   0  0  0  0  0  0
  -30.7634  -16.3299   22.1628 C   0  0  0  0  0  0
  -29.6970  -16.7024   19.9723 C   0  0  0  0  0  0
  -30.2209  -17.7071   22.6576 C   0  0  2  0  0  0
  -28.7865  -17.9119   20.4017 C   0  0  2  0  0  0
  -29.2609  -24.0516   20.2368 C   0  0  0  0  0  0
  -28.0867  -25.0917   20.4173 C   0  0  0  0  0  0
  -29.6727  -21.6013   20.7022 N   0  0  0  0  0  0
  -28.8669  -22.6075   20.2095 N   0  0  0  0  0  0
  -29.5788  -19.1296   20.6755 N   0  0  0  0  0  0
  -30.0731  -15.6964   21.0097 N   0  0  0  0  0  0
  -31.4492  -12.4487   19.1394 H   0  0  0  0  0  0
  -30.3108  -11.3717   19.8904 H   0  0  0  0  0  0
  -29.7351  -11.7673   17.4602 H   0  0  0  0  0  0
  -29.6256  -13.4872   17.7619 H   0  0  0  0  0  0
  -27.8429  -11.2971   18.8747 H   0  0  0  0  0  0
  -27.3515  -12.5817   17.8081 H   0  0  0  0  0  0
  -27.6664  -14.2579   19.5355 H   0  0  0  0  0  0
  -28.7000  -12.0932   21.4254 H   0  0  0  0  0  0
  -28.4585  -13.7746   21.8313 H   0  0  0  0  0  0
  -25.2722   -9.5761   22.4774 H   0  0  0  0  0  0
  -24.0012   -7.4666   22.7481 H   0  0  0  0  0  0
  -21.0823   -8.8727   19.8957 H   0  0  0  0  0  0
  -22.3597  -10.9675   19.6185 H   0  0  0  0  0  0
  -21.2041   -7.6177   23.9738 H   0  0  0  0  0  0
  -21.1445   -6.0535   25.9078 H   0  0  0  0  0  0
  -22.0595   -2.7634   23.2836 H   0  0  0  0  0  0
  -22.4060  -11.9917   22.4805 H   0  0  0  0  0  0
  -21.1073  -13.1288   22.2564 H   0  0  0  0  0  0
  -24.6351  -15.8294   20.4987 H   0  0  0  0  0  0
  -26.2666  -15.6328   20.0893 H   0  0  0  0  0  0
  -26.7240  -32.5419   23.1241 H   0  0  0  0  0  0
  -25.0322  -33.9796   25.0593 H   0  0  0  0  0  0
  -22.7040  -31.3042   21.4102 H   0  0  0  0  0  0
  -23.3718  -35.9581   23.3321 H   0  0  0  0  0  0
  -24.3554  -36.8834   22.2063 H   0  0  0  0  0  0
  -23.7173  -37.6466   23.6654 H   0  0  0  0  0  0
  -26.0949  -31.5622   20.6036 H   0  0  0  0  0  0
  -26.8341  -30.8378   22.0069 H   0  0  0  0  0  0
  -28.1053  -29.0095   21.1875 H   0  0  0  0  0  0
  -25.9690  -26.0036   18.9050 H   0  0  0  0  0  0
  -23.9696  -27.3497   18.9601 H   0  0  0  0  0  0
  -23.7615  -30.6210   19.4091 H   0  0  0  0  0  0
  -22.7378  -29.2796   19.8475 H   0  0  0  0  0  0
  -25.1234  -36.1873   25.0851 H   0  0  0  0  0  0
  -20.9982  -28.3201   24.1437 H   0  0  0  0  0  0
  -20.5643  -26.2312   23.3595 H   0  0  0  0  0  0
  -21.6667  -26.7442   22.1192 H   0  0  0  0  0  0
  -19.6826  -25.6311   21.1270 H   0  0  0  0  0  0
  -19.6616  -27.3212   20.6730 H   0  0  0  0  0  0
  -17.4181  -26.6783   21.4054 H   0  0  0  0  0  0
  -18.0278  -26.0063   22.9017 H   0  0  0  0  0  0
  -19.7952  -30.7388   24.2152 H   0  0  0  0  0  0
  -17.5016  -31.6256   24.5230 H   0  0  0  0  0  0
  -15.5362  -30.3012   23.7637 H   0  0  0  0  0  0
  -15.8730  -28.0872   22.7012 H   0  0  0  0  0  0
  -24.5929  -30.7070   25.7935 H   0  0  0  0  0  0
  -24.8964  -32.2908   26.4939 H   0  0  0  0  0  0
  -25.8124  -30.8984   27.0329 H   0  0  0  0  0  0
  -26.2905  -29.6720   24.1400 H   0  0  0  0  0  0
  -27.4186  -29.7338   25.4711 H   0  0  0  0  0  0
  -27.8714  -30.4346   23.9348 H   0  0  0  0  0  0
  -27.2620  -33.3647   26.2153 H   0  0  0  0  0  0
  -28.3900  -32.6861   25.0473 H   0  0  0  0  0  0
  -28.0679  -31.8506   26.5523 H   0  0  0  0  0  0
  -28.2571  -38.0059   24.7561 H   0  0  0  0  0  0
  -28.0990  -36.2607   24.6238 H   0  0  0  0  0  0
  -27.2307  -37.1342   25.8907 H   0  0  0  0  0  0
  -20.9326  -29.8735   21.6957 H   0  0  0  0  0  0
  -26.0051  -38.2846   24.1516 H   0  0  0  0  0  0
  -27.1076  -19.9774   19.3358 H   0  0  0  0  0  0
  -27.0218  -22.6394   19.0941 H   0  0  0  0  0  0
  -28.4578  -16.7675   23.5476 H   0  0  0  0  0  0
  -28.4170  -18.5084   23.5360 H   0  0  0  0  0  0
  -27.1012  -18.3696   21.6915 H   0  0  0  0  0  0
  -27.3848  -16.6643   21.5132 H   0  0  0  0  0  0
  -31.5544  -18.7890   21.2785 H   0  0  0  0  0  0
  -30.6535  -19.8258   22.3555 H   0  0  0  0  0  0
  -30.7124  -15.6247   22.9944 H   0  0  0  0  0  0
  -31.8305  -16.4344   21.9571 H   0  0  0  0  0  0
  -30.5923  -17.0630   19.4627 H   0  0  0  0  0  0
  -29.1454  -16.1581   19.2014 H   0  0  0  0  0  0
  -30.7341  -17.8866   23.6048 H   0  0  0  0  0  0
  -28.1415  -18.1047   19.5447 H   0  0  0  0  0  0
  -30.0099  -24.2032   21.0180 H   0  0  0  0  0  0
  -29.7537  -24.2612   19.2866 H   0  0  0  0  0  0
  -27.7230  -25.0267   21.4435 H   0  0  0  0  0  0
  -27.2752  -24.7296   19.7962 H   0  0  0  0  0  0
  1 25  1  0  0  0
  1 30  2  0  0  0
  1 86  1  0  0  0
  2  3  1  0  0  0
  2 25  1  0  0  0
  2 87  1  0  0  0
  2 88  1  0  0  0
  3  4  1  0  0  0
  3 89  1  0  0  0
  3 90  1  0  0  0
  4  5  1  0  0  0
  4 91  1  0  0  0
  4 92  1  0  0  0
  5  6  1  0  0  0
  5 26  1  0  0  0
  5 93  1  0  0  0
  6 25  1  0  0  0
  6 94  1  0  0  0
  6 95  1  0  0  0
  7  8  2  0  0  0
  7 26  1  0  0  0
  7 29  1  0  0  0
  8  9  1  0  0  0
  8 22  1  0  0  0
  9 10  1  0  0  0
  9 27  2  0  0  0
 10 11  2  0  0  0
 10 15  1  0  0  0
 11 12  1  0  0  0
 11 96  1  0  0  0
 12 13  2  0  0  0
 12 97  1  0  0  0
 13 14  1  0  0  0
 13 31  1  0  0  0
 14 15  2  0  0  0
 14 98  1  0  0  0
 15 99  1  0  0  0
 16 17  2  0  0  0
 16 21  1  0  0  0
 16 31  1  0  0  0
 17 18  1  0  0  0
 17100  1  0  0  0
 18 19  2  0  0  0
 18101  1  0  0  0
 19 20  1  0  0  0
 19 24  1  0  0  0
 20 21  2  0  0  0
 20102  1  0  0  0
 21 23  1  0  0  0
 22 28  1  0  0  0
 22 32  2  0  0  0
 26 27  1  0  0  0
 28103  1  0  0  0
 28104  1  0  0  0
 29105  1  0  0  0
 29106  1  0  0  0
 33 34  1  0  0  0
 33 66  1  0  0  0
 33 70  2  0  0  0
 34 36  1  0  0  0
 34 59  1  0  0  0
 34107  1  0  0  0
 35 44  2  0  0  0
 35 45  1  0  0  0
 35 68  1  0  0  0
 36 56  1  0  0  0
 36108  1  0  0  0
 37 39  1  0  0  0
 37 47  1  0  0  0
 37 66  1  0  0  0
 37109  1  0  0  0
 38 43  2  0  0  0
 38 46  1  0  0  0
 38 47  1  0  0  0
 39 64  1  0  0  0
 39 67  2  0  0  0
 40 52  1  0  0  0
 40 53  2  0  0  0
 40 58  1  0  0  0
 41110  1  0  0  0
 41111  1  0  0  0
 41112  1  0  0  0
 41 48  1  0  0  0
 42 43  1  0  0  0
 42 66  1  0  0  0
 42113  1  0  0  0
 42114  1  0  0  0
 43 44  1  0  0  0
 44115  1  0  0  0
 45 46  2  0  0  0
 45116  1  0  0  0
 46117  1  0  0  0
 47118  1  0  0  0
 47119  1  0  0  0
 48 56  1  0  0  0
 48 65  1  0  0  0
 48120  1  0  0  0
 49 50  1  0  0  0
 49 53  1  0  0  0
 49 64  1  0  0  0
 49121  1  0  0  0
 50 51  1  0  0  0
 50122  1  0  0  0
 50123  1  0  0  0
 51 52  1  0  0  0
 51124  1  0  0  0
 51125  1  0  0  0
 52126  1  0  0  0
 52127  1  0  0  0
 53 54  1  0  0  0
 54 55  2  0  0  0
 54128  1  0  0  0
 55 57  1  0  0  0
 55129  1  0  0  0
 56 69  2  0  0  0
 57 58  2  0  0  0
 57130  1  0  0  0
 58131  1  0  0  0
 59 60  1  0  0  0
 59 61  1  0  0  0
 59 62  1  0  0  0
 60132  1  0  0  0
 60133  1  0  0  0
 60134  1  0  0  0
 61135  1  0  0  0
 61136  1  0  0  0
 61137  1  0  0  0
 62138  1  0  0  0
 62139  1  0  0  0
 62140  1  0  0  0
 63 65  1  0  0  0
 63141  1  0  0  0
 63142  1  0  0  0
 63143  1  0  0  0
 64144  1  0  0  0
 65145  1  0  0  0
 68 82  1  0  0  0
 71 72  2  0  0  0
 71 73  1  0  0  0
 71146  1  0  0  0
 72 84  1  0  0  0
 72147  1  0  0  0
 73 83  2  0  0  0
 73 85  1  0  0  0
 74 75  1  0  0  0
 74148  1  0  0  0
 74149  1  0  0  0
 74 79  1  0  0  0
 75150  1  0  0  0
 75151  1  0  0  0
 75 80  1  0  0  0
 76 79  1  0  0  0
 76 85  1  0  0  0
 76152  1  0  0  0
 76153  1  0  0  0
 77 79  1  0  0  0
 77 86  1  0  0  0
 77154  1  0  0  0
 77155  1  0  0  0
 78 80  1  0  0  0
 78 86  1  0  0  0
 78156  1  0  0  0
 78157  1  0  0  0
 79158  1  0  0  0
 80 85  1  0  0  0
 80159  1  0  0  0
 81 82  1  0  0  0
 81 84  1  0  0  0
 81160  1  0  0  0
 81161  1  0  0  0
 82162  1  0  0  0
 82163  1  0  0  0
 83 84  1  0  0  0
M  ISO  4   1 100  68 101  82 101  86 100
M  END
> <chiral flag>
0

> <version>
0

> <s_m_source_file>
/data/baiqing/PycharmProjects/Reinvent-master-3.2/result/LINK_invent/BTK/process_docking_weight1_custom_sum_contain_oxygen_bond_distance_aromatic_linkinvent_7_9_3/rearranged_h_0196.sdf

> <i_m_source_file_index>
74

> <r_mmod_Potential_Energy-OPLS-2005>
200.000991821289

> <r_mmod_Stretch_Energy-OPLS-2005>
68.6739501953125

> <r_mmod_Bend_Energy-OPLS-2005>
154.922302246094

> <r_mmod_Torsional_Energy-OPLS-2005>
416.525024414062

> <r_mmod_Improper_Torsional_Energy-OPLS-2005>
9.99591064453125

> <r_mmod_Van_der_Waal_Energy-OPLS-2005>
150.45361328125

> <r_mmod_Electrostatic_Energy-OPLS-2005>
-410.696685791016

> <r_mmod_Solvation_Energy-OPLS-2005>
-225.446472167969

> <b_mmod_Minimization_Converged-OPLS-2005>
0

> <r_mmod_RMS_Derivative-OPLS-2005>
5.7347207069397

$$$$
75
                    3D
 Structure written by MMmdl.
157165  0  0  1  0            999 V2000
  -30.6816  -14.6738   20.5322 C   0  0  0  0  0  0
  -30.4242  -12.4311   19.4666 C   0  0  0  0  0  0
  -29.4975  -12.4869   18.2342 C   0  0  0  0  0  0
  -28.0298  -12.3050   18.6607 C   0  0  0  0  0  0
  -27.6392  -13.2177   19.8497 C   0  0  2  0  0  0
  -28.6834  -13.1560   20.9883 C   0  0  0  0  0  0
  -25.2493  -13.8169   20.5705 C   0  0  0  0  0  0
  -24.1779  -13.0410   20.9224 C   0  0  0  0  0  0
  -24.6375  -11.6900   20.8792 C   0  0  0  0  0  0
  -23.9074  -10.4276   21.0435 C   0  0  0  0  0  0
  -24.3624   -9.4197   21.9207 C   0  0  0  0  0  0
  -23.6296   -8.2234   22.0766 C   0  0  0  0  0  0
  -22.4281   -8.0276   21.3552 C   0  0  0  0  0  0
  -21.9923   -9.0253   20.4659 C   0  0  0  0  0  0
  -22.7259  -10.2126   20.3075 C   0  0  0  0  0  0
  -21.6852   -6.0744   22.5294 C   0  0  0  0  0  0
  -21.4004   -6.5648   23.8228 C   0  0  0  0  0  0
  -21.3646   -5.6801   24.9191 C   0  0  0  0  0  0
  -21.6033   -4.3063   24.7242 C   0  0  0  0  0  0
  -21.8823   -3.8157   23.4367 C   0  0  0  0  0  0
  -21.9186   -4.6970   22.3418 C   0  0  0  0  0  0
  -22.7817  -13.5214   21.1886 C   0  0  0  0  0  0
  -22.1664   -4.2155   21.0992 F   0  0  0  0  0  0
  -21.5619   -3.4544   25.7756 F   0  0  0  0  0  0
  -29.9931  -13.4885   20.4125 N   0  0  0  0  0  0
  -26.2910  -12.9358   20.3308 N   0  0  0  0  0  0
  -25.9297  -11.6516   20.5801 N   0  0  0  0  0  0
  -22.0454  -12.8194   22.0446 N   0  0  0  0  0  0
  -25.4117  -15.1880   20.4070 N   0  0  0  0  0  0
  -31.8537  -14.7371   20.1482 O   0  0  0  0  0  0
  -21.6635   -6.8880   21.4256 O   0  0  0  0  0  0
  -22.3490  -14.5504   20.6725 O   0  0  0  0  0  0
  -24.6214  -31.8575   23.1967 C   0  0  0  0  0  0
  -25.9080  -32.4731   23.8310 C   0  0  1  0  0  0
  -27.2675  -27.3492   20.1377 C   0  0  0  0  0  0
  -25.5900  -33.8530   24.2253 N   0  0  0  0  0  0
  -23.4154  -30.4729   21.5336 C   0  0  2  0  0  0
  -24.8740  -28.9123   20.1183 C   0  0  0  0  0  0
  -22.7434  -29.4630   22.4926 C   0  0  0  0  0  0
  -18.0280  -28.1390   22.8486 C   0  0  0  0  0  0
  -24.1484  -36.7264   23.2638 C   0  0  0  0  0  0
  -25.9474  -30.8015   21.3591 C   0  0  0  0  0  0
  -26.0313  -29.4240   20.7166 C   0  0  0  0  0  0
  -27.2229  -28.6506   20.7178 C   0  0  0  0  0  0
  -26.0874  -26.8691   19.5269 C   0  0  0  0  0  0
  -24.9014  -27.6387   19.5212 C   0  0  0  0  0  0
  -23.6335  -29.7815   20.1571 C   0  0  0  0  0  0
  -25.4103  -36.3041   24.0339 C   0  0  1  0  0  0
  -20.5871  -28.3695   23.1281 C   0  0  2  0  0  0
  -20.6756  -26.9426   22.5411 C   0  0  0  0  0  0
  -19.5745  -26.6403   21.5193 C   0  0  0  0  0  0
  -18.1916  -26.7937   22.1612 C   0  0  0  0  0  0
  -19.1537  -28.8858   23.2872 C   0  0  0  0  0  0
  -18.9468  -30.1450   23.8899 C   0  0  0  0  0  0
  -17.6481  -30.6600   24.0570 C   0  0  0  0  0  0
  -25.9054  -34.9416   23.5105 C   0  0  0  0  0  0
  -16.5366  -29.9105   23.6341 C   0  0  0  0  0  0
  -16.7275  -28.6522   23.0365 C   0  0  0  0  0  0
  -26.4510  -31.6530   25.0667 C   0  0  0  0  0  0
  -25.3780  -31.3636   26.1422 C   0  0  0  0  0  0
  -27.0352  -30.2957   24.6095 C   0  0  0  0  0  0
  -27.6090  -32.4250   25.7411 C   0  0  0  0  0  0
  -27.5575  -37.1758   24.8466 C   0  0  0  0  0  0
  -21.4164  -29.3045   22.3664 N   0  0  0  0  0  0
  -26.4262  -37.3753   23.9449 N   0  0  0  0  0  0
  -24.6777  -31.0628   22.0873 N   0  0  0  0  0  0
  -23.4168  -28.8196   23.3023 O   0  0  0  0  0  0
  -28.4476  -26.6050   20.2313 O   0  0  0  0  0  0
  -26.5633  -34.8902   22.4680 O   0  0  0  0  0  0
  -23.5390  -32.1359   23.7336 O   0  0  0  0  0  0
  -30.0767  -20.3410   20.9302 C   0  0  0  0  0  0
  -31.1561  -18.1106   21.2732 C   0  0  0  0  0  0
  -28.7708  -18.1137   20.7365 C   0  0  0  0  0  0
  -30.8280  -16.7270   21.9313 C   0  0  0  0  0  0
  -29.0162  -16.5839   20.3405 C   0  0  0  0  0  0
  -28.8816  -21.3616   20.7928 C   0  0  0  0  0  0
  -28.4199  -23.9678   20.6440 C   0  0  0  0  0  0
  -28.6434  -25.2433   19.7103 C   0  0  0  0  0  0
  -29.9702  -18.9528   20.9788 N   0  0  0  0  0  0
  -30.0723  -15.8071   21.0553 N   0  0  0  0  0  0
  -29.2907  -22.7527   20.3257 N   0  3  0  0  0  0
  -31.1876  -20.8728   21.0322 O   0  0  0  0  0  0
  -31.4620  -12.5441   19.1509 H   0  0  0  0  0  0
  -30.3705  -11.4514   19.9451 H   0  0  0  0  0  0
  -29.7746  -11.7064   17.5256 H   0  0  0  0  0  0
  -29.6203  -13.4384   17.7137 H   0  0  0  0  0  0
  -27.9027  -11.2600   18.9466 H   0  0  0  0  0  0
  -27.3585  -12.4701   17.8163 H   0  0  0  0  0  0
  -27.6306  -14.2249   19.4397 H   0  0  0  0  0  0
  -28.7121  -12.1611   21.4340 H   0  0  0  0  0  0
  -28.4198  -13.8438   21.7918 H   0  0  0  0  0  0
  -25.2765   -9.5659   22.4795 H   0  0  0  0  0  0
  -24.0007   -7.4614   22.7476 H   0  0  0  0  0  0
  -21.0863   -8.8773   19.8952 H   0  0  0  0  0  0
  -22.3736  -10.9667   19.6182 H   0  0  0  0  0  0
  -21.2009   -7.6154   23.9740 H   0  0  0  0  0  0
  -21.1453   -6.0525   25.9084 H   0  0  0  0  0  0
  -22.0610   -2.7621   23.2868 H   0  0  0  0  0  0
  -22.4069  -11.9863   22.4853 H   0  0  0  0  0  0
  -21.1053  -13.1201   22.2630 H   0  0  0  0  0  0
  -24.6366  -15.8326   20.5127 H   0  0  0  0  0  0
  -26.2576  -15.6362   20.0827 H   0  0  0  0  0  0
  -26.7136  -32.5466   23.1050 H   0  0  0  0  0  0
  -25.0024  -33.9632   25.0387 H   0  0  0  0  0  0
  -22.7092  -31.2881   21.3700 H   0  0  0  0  0  0
  -23.3769  -35.9568   23.3228 H   0  0  0  0  0  0
  -24.3596  -36.8983   22.2074 H   0  0  0  0  0  0
  -23.7217  -37.6428   23.6735 H   0  0  0  0  0  0
  -26.0646  -31.5584   20.5830 H   0  0  0  0  0  0
  -26.8319  -30.8680   21.9809 H   0  0  0  0  0  0
  -28.1117  -29.0404   21.1941 H   0  0  0  0  0  0
  -26.0643  -25.8882   19.0775 H   0  0  0  0  0  0
  -24.0087  -27.2300   19.0678 H   0  0  0  0  0  0
  -23.7408  -30.5405   19.3822 H   0  0  0  0  0  0
  -22.7631  -29.1882   19.8706 H   0  0  0  0  0  0
  -25.1273  -36.1852   25.0819 H   0  0  0  0  0  0
  -20.9952  -28.3301   24.1401 H   0  0  0  0  0  0
  -20.5636  -26.2328   23.3617 H   0  0  0  0  0  0
  -21.6633  -26.7429   22.1209 H   0  0  0  0  0  0
  -19.6915  -25.6312   21.1227 H   0  0  0  0  0  0
  -19.6681  -27.3202   20.6714 H   0  0  0  0  0  0
  -17.4173  -26.6687   21.4012 H   0  0  0  0  0  0
  -18.0316  -26.0063   22.8989 H   0  0  0  0  0  0
  -19.7951  -30.7250   24.2279 H   0  0  0  0  0  0
  -17.5049  -31.6279   24.5164 H   0  0  0  0  0  0
  -15.5375  -30.3021   23.7673 H   0  0  0  0  0  0
  -15.8662  -28.0848   22.7102 H   0  0  0  0  0  0
  -24.5953  -30.6975   25.7771 H   0  0  0  0  0  0
  -24.8962  -32.2776   26.4899 H   0  0  0  0  0  0
  -25.8140  -30.8788   27.0165 H   0  0  0  0  0  0
  -26.2892  -29.6650   24.1237 H   0  0  0  0  0  0
  -27.4201  -29.7268   25.4575 H   0  0  0  0  0  0
  -27.8690  -30.4250   23.9190 H   0  0  0  0  0  0
  -27.2769  -33.3633   26.1861 H   0  0  0  0  0  0
  -28.3952  -32.6649   25.0241 H   0  0  0  0  0  0
  -28.0671  -31.8421   26.5416 H   0  0  0  0  0  0
  -28.2524  -38.0108   24.7586 H   0  0  0  0  0  0
  -28.1129  -36.2655   24.6182 H   0  0  0  0  0  0
  -27.2312  -37.1271   25.8860 H   0  0  0  0  0  0
  -20.9361  -29.8734   21.6832 H   0  0  0  0  0  0
  -26.0135  -38.2814   24.1495 H   0  0  0  0  0  0
  -31.7272  -17.9665   20.3557 H   0  0  0  0  0  0
  -31.8187  -18.6405   21.9607 H   0  0  0  0  0  0
  -28.1700  -18.1454   21.6462 H   0  0  0  0  0  0
  -28.1575  -18.5785   19.9639 H   0  0  0  0  0  0
  -30.2565  -16.8757   22.8491 H   0  0  0  0  0  0
  -31.7591  -16.2576   22.2541 H   0  0  0  0  0  0
  -29.2384  -16.5337   19.2721 H   0  0  0  0  0  0
  -28.0703  -16.0670   20.4776 H   0  0  0  0  0  0
  -28.4266  -21.4553   21.7791 H   0  0  0  0  0  0
  -28.1176  -20.9689   20.1260 H   0  0  0  0  0  0
  -27.3690  -23.6856   20.5890 H   0  0  0  0  0  0
  -28.5963  -24.2439   21.6850 H   0  0  0  0  0  0
  -28.1247  -25.1206   18.7612 H   0  0  0  0  0  0
  -29.6977  -25.2443   19.4283 H   0  0  0  0  0  0
  -29.4143  -22.7054   19.3278 H   0  0  0  0  0  0
  -30.2175  -22.9035   20.7019 H   0  0  0  0  0  0
  1 25  1  0  0  0
  1 30  2  0  0  0
  1 80  1  0  0  0
  2  3  1  0  0  0
  2 25  1  0  0  0
  2 83  1  0  0  0
  2 84  1  0  0  0
  3  4  1  0  0  0
  3 85  1  0  0  0
  3 86  1  0  0  0
  4  5  1  0  0  0
  4 87  1  0  0  0
  4 88  1  0  0  0
  5  6  1  0  0  0
  5 26  1  0  0  0
  5 89  1  0  0  0
  6 25  1  0  0  0
  6 90  1  0  0  0
  6 91  1  0  0  0
  7  8  2  0  0  0
  7 26  1  0  0  0
  7 29  1  0  0  0
  8  9  1  0  0  0
  8 22  1  0  0  0
  9 10  1  0  0  0
  9 27  2  0  0  0
 10 11  2  0  0  0
 10 15  1  0  0  0
 11 12  1  0  0  0
 11 92  1  0  0  0
 12 13  2  0  0  0
 12 93  1  0  0  0
 13 14  1  0  0  0
 13 31  1  0  0  0
 14 15  2  0  0  0
 14 94  1  0  0  0
 15 95  1  0  0  0
 16 17  2  0  0  0
 16 21  1  0  0  0
 16 31  1  0  0  0
 17 18  1  0  0  0
 17 96  1  0  0  0
 18 19  2  0  0  0
 18 97  1  0  0  0
 19 20  1  0  0  0
 19 24  1  0  0  0
 20 21  2  0  0  0
 20 98  1  0  0  0
 21 23  1  0  0  0
 22 28  1  0  0  0
 22 32  2  0  0  0
 26 27  1  0  0  0
 28 99  1  0  0  0
 28100  1  0  0  0
 29101  1  0  0  0
 29102  1  0  0  0
 33 34  1  0  0  0
 33 66  1  0  0  0
 33 70  2  0  0  0
 34 36  1  0  0  0
 34 59  1  0  0  0
 34103  1  0  0  0
 35 44  2  0  0  0
 35 45  1  0  0  0
 35 68  1  0  0  0
 36 56  1  0  0  0
 36104  1  0  0  0
 37 39  1  0  0  0
 37 47  1  0  0  0
 37 66  1  0  0  0
 37105  1  0  0  0
 38 43  2  0  0  0
 38 46  1  0  0  0
 38 47  1  0  0  0
 39 64  1  0  0  0
 39 67  2  0  0  0
 40 52  1  0  0  0
 40 53  2  0  0  0
 40 58  1  0  0  0
 41106  1  0  0  0
 41107  1  0  0  0
 41108  1  0  0  0
 41 48  1  0  0  0
 42 43  1  0  0  0
 42 66  1  0  0  0
 42109  1  0  0  0
 42110  1  0  0  0
 43 44  1  0  0  0
 44111  1  0  0  0
 45 46  2  0  0  0
 45112  1  0  0  0
 46113  1  0  0  0
 47114  1  0  0  0
 47115  1  0  0  0
 48 56  1  0  0  0
 48 65  1  0  0  0
 48116  1  0  0  0
 49 50  1  0  0  0
 49 53  1  0  0  0
 49 64  1  0  0  0
 49117  1  0  0  0
 50 51  1  0  0  0
 50118  1  0  0  0
 50119  1  0  0  0
 51 52  1  0  0  0
 51120  1  0  0  0
 51121  1  0  0  0
 52122  1  0  0  0
 52123  1  0  0  0
 53 54  1  0  0  0
 54 55  2  0  0  0
 54124  1  0  0  0
 55 57  1  0  0  0
 55125  1  0  0  0
 56 69  2  0  0  0
 57 58  2  0  0  0
 57126  1  0  0  0
 58127  1  0  0  0
 59 60  1  0  0  0
 59 61  1  0  0  0
 59 62  1  0  0  0
 60128  1  0  0  0
 60129  1  0  0  0
 60130  1  0  0  0
 61131  1  0  0  0
 61132  1  0  0  0
 61133  1  0  0  0
 62134  1  0  0  0
 62135  1  0  0  0
 62136  1  0  0  0
 63 65  1  0  0  0
 63137  1  0  0  0
 63138  1  0  0  0
 63139  1  0  0  0
 64140  1  0  0  0
 65141  1  0  0  0
 68 78  1  0  0  0
 71 76  1  0  0  0
 71 79  1  0  0  0
 71 82  2  0  0  0
 72 74  1  0  0  0
 72 79  1  0  0  0
 72142  1  0  0  0
 72143  1  0  0  0
 73 75  1  0  0  0
 73 79  1  0  0  0
 73144  1  0  0  0
 73145  1  0  0  0
 74 80  1  0  0  0
 74146  1  0  0  0
 74147  1  0  0  0
 75 80  1  0  0  0
 75148  1  0  0  0
 75149  1  0  0  0
 76 81  1  0  0  0
 76150  1  0  0  0
 76151  1  0  0  0
 77 78  1  0  0  0
 77 81  1  0  0  0
 77152  1  0  0  0
 77153  1  0  0  0
 78154  1  0  0  0
 78155  1  0  0  0
 81156  1  0  0  0
 81157  1  0  0  0
M  CHG  1  81   1
M  ISO  4   1 100  68 101  78 101  80 100
M  END
> <chiral flag>
0

> <version>
0

> <s_m_source_file>
/data/baiqing/PycharmProjects/Reinvent-master-3.2/result/LINK_invent/BTK/process_docking_weight1_custom_sum_contain_oxygen_bond_distance_aromatic_linkinvent_7_9_3/rearranged_h_0196.sdf

> <i_m_source_file_index>
75

> <r_mmod_Potential_Energy-OPLS-2005>
63.9241676330566

> <r_mmod_Stretch_Energy-OPLS-2005>
87.6263885498047

> <r_mmod_Bend_Energy-OPLS-2005>
175.828384399414

> <r_mmod_Torsional_Energy-OPLS-2005>
376.409027099609

> <r_mmod_Improper_Torsional_Energy-OPLS-2005>
4.13867521286011

> <r_mmod_Van_der_Waal_Energy-OPLS-2005>
135.009719848633

> <r_mmod_Electrostatic_Energy-OPLS-2005>
-287.463684082031

> <r_mmod_Solvation_Energy-OPLS-2005>
-479.797912597656

> <b_mmod_Minimization_Converged-OPLS-2005>
0

> <r_mmod_RMS_Derivative-OPLS-2005>
3.77729773521423

$$$$
76
                    3D
 Structure written by MMmdl.
161170  0  0  1  0            999 V2000
  -30.7036  -14.4322   20.6135 C   0  0  0  0  0  0
  -30.4323  -12.2872   19.4286 C   0  0  0  0  0  0
  -29.5050  -12.5093   18.2167 C   0  0  0  0  0  0
  -28.0209  -12.3711   18.6218 C   0  0  0  0  0  0
  -27.6694  -13.1983   19.8875 C   0  0  2  0  0  0
  -28.7065  -12.9444   21.0059 C   0  0  0  0  0  0
  -25.2626  -13.8138   20.5691 C   0  0  0  0  0  0
  -24.1857  -13.0433   20.9164 C   0  0  0  0  0  0
  -24.6392  -11.6903   20.8693 C   0  0  0  0  0  0
  -23.9019  -10.4304   21.0336 C   0  0  0  0  0  0
  -24.3581   -9.4225   21.9113 C   0  0  0  0  0  0
  -23.6292   -8.2235   22.0685 C   0  0  0  0  0  0
  -22.4279   -8.0242   21.3485 C   0  0  0  0  0  0
  -21.9893   -9.0207   20.4569 C   0  0  0  0  0  0
  -22.7193  -10.2112   20.2987 C   0  0  0  0  0  0
  -21.6865   -6.0713   22.5247 C   0  0  0  0  0  0
  -21.4023   -6.5618   23.8189 C   0  0  0  0  0  0
  -21.3683   -5.6756   24.9156 C   0  0  0  0  0  0
  -21.6050   -4.3019   24.7197 C   0  0  0  0  0  0
  -21.8828   -3.8120   23.4320 C   0  0  0  0  0  0
  -21.9206   -4.6940   22.3384 C   0  0  0  0  0  0
  -22.7867  -13.5213   21.1865 C   0  0  0  0  0  0
  -22.1658   -4.2128   21.0956 F   0  0  0  0  0  0
  -21.5648   -3.4504   25.7709 F   0  0  0  0  0  0
  -30.0509  -13.2466   20.4733 N   0  0  0  0  0  0
  -26.3071  -12.9289   20.3400 N   0  0  0  0  0  0
  -25.9321  -11.6455   20.5763 N   0  0  0  0  0  0
  -22.0516  -12.8201   22.0425 N   0  0  0  0  0  0
  -25.4415  -15.1852   20.4155 N   0  0  0  0  0  0
  -31.7722  -14.6920   20.0542 O   0  0  0  0  0  0
  -21.6641   -6.8848   21.4206 O   0  0  0  0  0  0
  -22.3548  -14.5519   20.6741 O   0  0  0  0  0  0
  -24.6145  -31.8686   23.2096 C   0  0  0  0  0  0
  -25.9028  -32.4831   23.8394 C   0  0  1  0  0  0
  -27.2287  -27.4389   20.1019 C   0  0  0  0  0  0
  -25.5894  -33.8627   24.2331 N   0  0  0  0  0  0
  -23.4009  -30.4928   21.5516 C   0  0  2  0  0  0
  -24.8450  -28.9580   20.1205 C   0  0  0  0  0  0
  -22.7401  -29.4656   22.4985 C   0  0  0  0  0  0
  -18.0269  -28.1368   22.8495 C   0  0  0  0  0  0
  -24.1482  -36.7316   23.2637 C   0  0  0  0  0  0
  -25.9287  -30.8377   21.3619 C   0  0  0  0  0  0
  -26.0071  -29.4724   20.7137 C   0  0  0  0  0  0
  -27.2034  -28.7205   20.6969 C   0  0  0  0  0  0
  -26.0525  -26.9394   19.4986 C   0  0  0  0  0  0
  -24.8640  -27.6931   19.5083 C   0  0  0  0  0  0
  -23.6096  -29.8279   20.1662 C   0  0  0  0  0  0
  -25.4100  -36.3111   24.0340 C   0  0  1  0  0  0
  -20.5866  -28.3649   23.1324 C   0  0  2  0  0  0
  -20.6767  -26.9385   22.5416 C   0  0  0  0  0  0
  -19.5752  -26.6378   21.5207 C   0  0  0  0  0  0
  -18.1926  -26.7917   22.1618 C   0  0  0  0  0  0
  -19.1521  -28.8822   23.2915 C   0  0  0  0  0  0
  -18.9444  -30.1427   23.8938 C   0  0  0  0  0  0
  -17.6445  -30.6583   24.0546 C   0  0  0  0  0  0
  -25.9037  -34.9476   23.5130 C   0  0  0  0  0  0
  -16.5332  -29.9090   23.6307 C   0  0  0  0  0  0
  -16.7255  -28.6494   23.0348 C   0  0  0  0  0  0
  -26.4470  -31.6602   25.0718 C   0  0  0  0  0  0
  -25.3734  -31.3708   26.1470 C   0  0  0  0  0  0
  -27.0313  -30.3052   24.6078 C   0  0  0  0  0  0
  -27.6080  -32.4296   25.7473 C   0  0  0  0  0  0
  -27.5580  -37.1798   24.8451 C   0  0  0  0  0  0
  -21.4127  -29.3018   22.3727 N   0  0  0  0  0  0
  -26.4275  -37.3797   23.9428 N   0  0  0  0  0  0
  -24.6666  -31.0806   22.1004 N   0  0  0  0  0  0
  -23.4178  -28.8190   23.3002 O   0  0  0  0  0  0
  -28.3935  -26.7081   20.0920 O   0  0  0  0  0  0
  -26.5593  -34.8917   22.4685 O   0  0  0  0  0  0
  -23.5344  -32.1432   23.7528 O   0  0  0  0  0  0
  -29.9890  -19.7508   21.0364 C   0  0  0  0  0  0
  -31.2317  -21.6821   22.1719 C   0  0  0  0  0  0
  -29.3175  -17.6367   22.0727 C   0  0  0  0  0  0
  -31.2551  -17.6157   21.3269 C   0  0  0  0  0  0
  -31.2473  -23.1359   21.6806 C   0  0  0  0  0  0
  -29.1973  -22.2548   20.9516 C   0  0  0  0  0  0
  -29.8602  -21.1093   21.7577 C   0  0  1  0  0  0
  -30.0030  -16.7955   20.9906 C   0  0  0  0  0  0
  -29.6928  -24.7184   20.5691 C   0  0  0  0  0  0
  -28.2947  -25.3710   20.6058 C   0  0  0  0  0  0
  -30.3485  -18.6558   21.8437 N   0  0  0  0  0  0
  -30.0173  -15.3613   21.2939 N   0  0  0  0  0  0
  -29.8402  -23.5039   21.4263 N   0  3  2  0  0  0
  -29.8773  -19.6565   19.8138 O   0  0  0  0  0  0
  -31.4763  -12.3874   19.1279 H   0  0  0  0  0  0
  -30.3267  -11.2672   19.8008 H   0  0  0  0  0  0
  -29.7447  -11.7916   17.4346 H   0  0  0  0  0  0
  -29.6847  -13.4974   17.7940 H   0  0  0  0  0  0
  -27.8282  -11.3138   18.8081 H   0  0  0  0  0  0
  -27.3731  -12.6567   17.7919 H   0  0  0  0  0  0
  -27.7273  -14.2532   19.6180 H   0  0  0  0  0  0
  -28.6704  -11.9006   21.3206 H   0  0  0  0  0  0
  -28.4596  -13.5194   21.8990 H   0  0  0  0  0  0
  -25.2730   -9.5747   22.4671 H   0  0  0  0  0  0
  -24.0025   -7.4644   22.7413 H   0  0  0  0  0  0
  -21.0807   -8.8689   19.8910 H   0  0  0  0  0  0
  -22.3581  -10.9622   19.6086 H   0  0  0  0  0  0
  -21.1987   -7.6109   23.9706 H   0  0  0  0  0  0
  -21.1509   -6.0460   25.9058 H   0  0  0  0  0  0
  -22.0601   -2.7576   23.2813 H   0  0  0  0  0  0
  -22.4152  -11.9878   22.4834 H   0  0  0  0  0  0
  -21.1097  -13.1131   22.2602 H   0  0  0  0  0  0
  -24.6881  -15.8499   20.5342 H   0  0  0  0  0  0
  -26.3007  -15.6207   20.1028 H   0  0  0  0  0  0
  -26.7102  -32.5549   23.1171 H   0  0  0  0  0  0
  -25.0027  -33.9783   25.0464 H   0  0  0  0  0  0
  -22.6893  -31.3087   21.4147 H   0  0  0  0  0  0
  -23.3758  -35.9629   23.3262 H   0  0  0  0  0  0
  -24.3600  -36.8972   22.2058 H   0  0  0  0  0  0
  -23.7205  -37.6496   23.6677 H   0  0  0  0  0  0
  -26.0361  -31.6011   20.5909 H   0  0  0  0  0  0
  -26.8206  -30.8966   21.9728 H   0  0  0  0  0  0
  -28.1013  -29.1134   21.1562 H   0  0  0  0  0  0
  -26.0536  -25.9777   19.0070 H   0  0  0  0  0  0
  -23.9724  -27.2950   19.0418 H   0  0  0  0  0  0
  -23.7214  -30.6053   19.4099 H   0  0  0  0  0  0
  -22.7355  -29.2496   19.8644 H   0  0  0  0  0  0
  -25.1282  -36.1971   25.0831 H   0  0  0  0  0  0
  -20.9967  -28.3195   24.1435 H   0  0  0  0  0  0
  -20.5660  -26.2237   23.3589 H   0  0  0  0  0  0
  -21.6625  -26.7422   22.1193 H   0  0  0  0  0  0
  -19.6896  -25.6296   21.1212 H   0  0  0  0  0  0
  -19.6702  -27.3196   20.6746 H   0  0  0  0  0  0
  -17.4194  -26.6665   21.4016 H   0  0  0  0  0  0
  -18.0316  -26.0053   22.9003 H   0  0  0  0  0  0
  -19.7933  -30.7213   24.2333 H   0  0  0  0  0  0
  -17.5015  -31.6277   24.5126 H   0  0  0  0  0  0
  -15.5334  -30.3003   23.7628 H   0  0  0  0  0  0
  -15.8655  -28.0821   22.7063 H   0  0  0  0  0  0
  -24.5895  -30.7089   25.7780 H   0  0  0  0  0  0
  -24.8947  -32.2867   26.4933 H   0  0  0  0  0  0
  -25.8070  -30.8837   27.0208 H   0  0  0  0  0  0
  -26.2849  -29.6796   24.1173 H   0  0  0  0  0  0
  -27.4150  -29.7308   25.4519 H   0  0  0  0  0  0
  -27.8645  -30.4406   23.9183 H   0  0  0  0  0  0
  -27.2744  -33.3590   26.2091 H   0  0  0  0  0  0
  -28.3868  -32.6848   25.0277 H   0  0  0  0  0  0
  -28.0762  -31.8375   26.5345 H   0  0  0  0  0  0
  -28.2567  -38.0127   24.7558 H   0  0  0  0  0  0
  -28.1109  -36.2665   24.6208 H   0  0  0  0  0  0
  -27.2310  -37.1356   25.8852 H   0  0  0  0  0  0
  -20.9271  -29.8745   21.6982 H   0  0  0  0  0  0
  -26.0171  -38.2861   24.1485 H   0  0  0  0  0  0
  -31.3395  -21.6447   23.2556 H   0  0  0  0  0  0
  -32.0713  -21.1290   21.7455 H   0  0  0  0  0  0
  -29.4005  -17.2096   23.0749 H   0  0  0  0  0  0
  -28.2892  -17.9228   21.8408 H   0  0  0  0  0  0
  -31.8646  -17.9093   20.4700 H   0  0  0  0  0  0
  -31.8660  -17.1846   22.1228 H   0  0  0  0  0  0
  -31.8062  -23.1922   20.7441 H   0  0  0  0  0  0
  -31.7221  -23.8178   22.3890 H   0  0  0  0  0  0
  -28.1173  -22.2838   21.0999 H   0  0  0  0  0  0
  -29.3725  -22.1433   19.8796 H   0  0  0  0  0  0
  -29.2654  -20.9433   22.6555 H   0  0  0  0  0  0
  -29.6265  -17.0097   19.9862 H   0  0  0  0  0  0
  -30.4014  -25.4626   20.9331 H   0  0  0  0  0  0
  -29.9787  -24.4991   19.5392 H   0  0  0  0  0  0
  -27.9202  -25.4189   21.6301 H   0  0  0  0  0  0
  -27.5946  -24.7581   20.0380 H   0  0  0  0  0  0
  -29.2017  -15.0072   21.7724 H   0  0  0  0  0  0
  -29.4480  -23.7146   22.3360 H   0  0  0  0  0  0
  1 25  1  0  0  0
  1 30  2  0  0  0
  1 82  1  0  0  0
  2  3  1  0  0  0
  2 25  1  0  0  0
  2 85  1  0  0  0
  2 86  1  0  0  0
  3  4  1  0  0  0
  3 87  1  0  0  0
  3 88  1  0  0  0
  4  5  1  0  0  0
  4 89  1  0  0  0
  4 90  1  0  0  0
  5  6  1  0  0  0
  5 26  1  0  0  0
  5 91  1  0  0  0
  6 25  1  0  0  0
  6 92  1  0  0  0
  6 93  1  0  0  0
  7  8  2  0  0  0
  7 26  1  0  0  0
  7 29  1  0  0  0
  8  9  1  0  0  0
  8 22  1  0  0  0
  9 10  1  0  0  0
  9 27  2  0  0  0
 10 11  2  0  0  0
 10 15  1  0  0  0
 11 12  1  0  0  0
 11 94  1  0  0  0
 12 13  2  0  0  0
 12 95  1  0  0  0
 13 14  1  0  0  0
 13 31  1  0  0  0
 14 15  2  0  0  0
 14 96  1  0  0  0
 15 97  1  0  0  0
 16 17  2  0  0  0
 16 21  1  0  0  0
 16 31  1  0  0  0
 17 18  1  0  0  0
 17 98  1  0  0  0
 18 19  2  0  0  0
 18 99  1  0  0  0
 19 20  1  0  0  0
 19 24  1  0  0  0
 20 21  2  0  0  0
 20100  1  0  0  0
 21 23  1  0  0  0
 22 28  1  0  0  0
 22 32  2  0  0  0
 26 27  1  0  0  0
 28101  1  0  0  0
 28102  1  0  0  0
 29103  1  0  0  0
 29104  1  0  0  0
 33 34  1  0  0  0
 33 66  1  0  0  0
 33 70  2  0  0  0
 34 36  1  0  0  0
 34 59  1  0  0  0
 34105  1  0  0  0
 35 44  2  0  0  0
 35 45  1  0  0  0
 35 68  1  0  0  0
 36 56  1  0  0  0
 36106  1  0  0  0
 37 39  1  0  0  0
 37 47  1  0  0  0
 37 66  1  0  0  0
 37107  1  0  0  0
 38 43  2  0  0  0
 38 46  1  0  0  0
 38 47  1  0  0  0
 39 64  1  0  0  0
 39 67  2  0  0  0
 40 52  1  0  0  0
 40 53  2  0  0  0
 40 58  1  0  0  0
 41108  1  0  0  0
 41109  1  0  0  0
 41110  1  0  0  0
 41 48  1  0  0  0
 42 43  1  0  0  0
 42 66  1  0  0  0
 42111  1  0  0  0
 42112  1  0  0  0
 43 44  1  0  0  0
 44113  1  0  0  0
 45 46  2  0  0  0
 45114  1  0  0  0
 46115  1  0  0  0
 47116  1  0  0  0
 47117  1  0  0  0
 48 56  1  0  0  0
 48 65  1  0  0  0
 48118  1  0  0  0
 49 50  1  0  0  0
 49 53  1  0  0  0
 49 64  1  0  0  0
 49119  1  0  0  0
 50 51  1  0  0  0
 50120  1  0  0  0
 50121  1  0  0  0
 51 52  1  0  0  0
 51122  1  0  0  0
 51123  1  0  0  0
 52124  1  0  0  0
 52125  1  0  0  0
 53 54  1  0  0  0
 54 55  2  0  0  0
 54126  1  0  0  0
 55 57  1  0  0  0
 55127  1  0  0  0
 56 69  2  0  0  0
 57 58  2  0  0  0
 57128  1  0  0  0
 58129  1  0  0  0
 59 60  1  0  0  0
 59 61  1  0  0  0
 59 62  1  0  0  0
 60130  1  0  0  0
 60131  1  0  0  0
 60132  1  0  0  0
 61133  1  0  0  0
 61134  1  0  0  0
 61135  1  0  0  0
 62136  1  0  0  0
 62137  1  0  0  0
 62138  1  0  0  0
 63 65  1  0  0  0
 63139  1  0  0  0
 63140  1  0  0  0
 63141  1  0  0  0
 64142  1  0  0  0
 65143  1  0  0  0
 68 80  1  0  0  0
 71 81  1  0  0  0
 71 84  2  0  0  0
 71 77  1  0  0  0
 72 75  1  0  0  0
 72 77  1  0  0  0
 72144  1  0  0  0
 72145  1  0  0  0
 73 78  1  0  0  0
 73 81  1  0  0  0
 73146  1  0  0  0
 73147  1  0  0  0
 74 78  1  0  0  0
 74 81  1  0  0  0
 74148  1  0  0  0
 74149  1  0  0  0
 75 83  1  0  0  0
 75150  1  0  0  0
 75151  1  0  0  0
 76 77  1  0  0  0
 76 83  1  0  0  0
 76152  1  0  0  0
 76153  1  0  0  0
 77154  1  0  0  0
 78 82  1  0  0  0
 78155  1  0  0  0
 79 80  1  0  0  0
 79156  1  0  0  0
 79157  1  0  0  0
 79 83  1  0  0  0
 80158  1  0  0  0
 80159  1  0  0  0
 82160  1  0  0  0
 83161  1  0  0  0
M  CHG  1  83   1
M  ISO  4   1 100  68 101  80 101  82 100
M  END
> <chiral flag>
0

> <version>
0

> <s_m_source_file>
/data/baiqing/PycharmProjects/Reinvent-master-3.2/result/LINK_invent/BTK/process_docking_weight1_custom_sum_contain_oxygen_bond_distance_aromatic_linkinvent_7_9_3/rearranged_h_0196.sdf

> <i_m_source_file_index>
76

> <r_mmod_Potential_Energy-OPLS-2005>
-153.079299926758

> <r_mmod_Stretch_Energy-OPLS-2005>
36.309871673584

> <r_mmod_Bend_Energy-OPLS-2005>
134.610610961914

> <r_mmod_Torsional_Energy-OPLS-2005>
324.4248046875

> <r_mmod_Improper_Torsional_Energy-OPLS-2005>
13.2777795791626

> <r_mmod_Van_der_Waal_Energy-OPLS-2005>
138.364807128906

> <r_mmod_Electrostatic_Energy-OPLS-2005>
-356.629364013672

> <r_mmod_Solvation_Energy-OPLS-2005>
-453.177276611328

> <b_mmod_Minimization_Converged-OPLS-2005>
0

> <r_mmod_RMS_Derivative-OPLS-2005>
4.35363340377808

$$$$
77
                    3D
 Structure written by MMmdl.
165175  0  0  1  0            999 V2000
  -30.6916  -14.5182   20.5985 C   0  0  0  0  0  0
  -30.4237  -12.3495   19.4169 C   0  0  0  0  0  0
  -29.4862  -12.5078   18.2009 C   0  0  0  0  0  0
  -28.0114  -12.3275   18.6159 C   0  0  0  0  0  0
  -27.6529  -13.1665   19.8664 C   0  0  2  0  0  0
  -28.7059  -12.9494   20.9874 C   0  0  0  0  0  0
  -25.2562  -13.8038   20.5626 C   0  0  0  0  0  0
  -24.1800  -13.0381   20.9186 C   0  0  0  0  0  0
  -24.6307  -11.6834   20.8758 C   0  0  0  0  0  0
  -23.8970  -10.4253   21.0435 C   0  0  0  0  0  0
  -24.3542   -9.4178   21.9204 C   0  0  0  0  0  0
  -23.6236   -8.2203   22.0761 C   0  0  0  0  0  0
  -22.4230   -8.0232   21.3542 C   0  0  0  0  0  0
  -21.9850   -9.0207   20.4659 C   0  0  0  0  0  0
  -22.7155  -10.2095   20.3081 C   0  0  0  0  0  0
  -21.6836   -6.0693   22.5259 C   0  0  0  0  0  0
  -21.4010   -6.5609   23.8188 C   0  0  0  0  0  0
  -21.3667   -5.6774   24.9154 C   0  0  0  0  0  0
  -21.6045   -4.3034   24.7218 C   0  0  0  0  0  0
  -21.8821   -3.8118   23.4341 C   0  0  0  0  0  0
  -21.9191   -4.6925   22.3389 C   0  0  0  0  0  0
  -22.7845  -13.5231   21.1846 C   0  0  0  0  0  0
  -22.1660   -4.2114   21.0969 F   0  0  0  0  0  0
  -21.5643   -3.4524   25.7739 F   0  0  0  0  0  0
  -30.0113  -13.3374   20.4391 N   0  0  0  0  0  0
  -26.2955  -12.9127   20.3322 N   0  0  0  0  0  0
  -25.9213  -11.6333   20.5774 N   0  0  0  0  0  0
  -22.0469  -12.8254   22.0412 N   0  0  0  0  0  0
  -25.4239  -15.1733   20.3905 N   0  0  0  0  0  0
  -31.8302  -14.6299   20.1269 O   0  0  0  0  0  0
  -21.6613   -6.8826   21.4219 O   0  0  0  0  0  0
  -22.3560  -14.5545   20.6688 O   0  0  0  0  0  0
  -24.6139  -31.8674   23.2102 C   0  0  0  0  0  0
  -25.9031  -32.4826   23.8401 C   0  0  1  0  0  0
  -27.2450  -27.4366   20.0753 C   0  0  0  0  0  0
  -25.5888  -33.8621   24.2332 N   0  0  0  0  0  0
  -23.4037  -30.4911   21.5488 C   0  0  2  0  0  0
  -24.8503  -28.9574   20.1115 C   0  0  0  0  0  0
  -22.7420  -29.4650   22.4957 C   0  0  0  0  0  0
  -18.0279  -28.1379   22.8475 C   0  0  0  0  0  0
  -24.1487  -36.7339   23.2636 C   0  0  0  0  0  0
  -25.9330  -30.8296   21.3651 C   0  0  0  0  0  0
  -26.0084  -29.4640   20.7108 C   0  0  0  0  0  0
  -27.2008  -28.7047   20.7006 C   0  0  0  0  0  0
  -26.0573  -26.9331   19.4949 C   0  0  0  0  0  0
  -24.8683  -27.6877   19.5079 C   0  0  0  0  0  0
  -23.6141  -29.8282   20.1612 C   0  0  0  0  0  0
  -25.4106  -36.3126   24.0336 C   0  0  1  0  0  0
  -20.5863  -28.3677   23.1300 C   0  0  2  0  0  0
  -20.6769  -26.9408   22.5416 C   0  0  0  0  0  0
  -19.5754  -26.6378   21.5207 C   0  0  0  0  0  0
  -18.1924  -26.7918   22.1613 C   0  0  0  0  0  0
  -19.1522  -28.8840   23.2885 C   0  0  0  0  0  0
  -18.9459  -30.1439   23.8915 C   0  0  0  0  0  0
  -17.6463  -30.6581   24.0565 C   0  0  0  0  0  0
  -25.9035  -34.9482   23.5140 C   0  0  0  0  0  0
  -16.5355  -29.9092   23.6314 C   0  0  0  0  0  0
  -16.7267  -28.6508   23.0337 C   0  0  0  0  0  0
  -26.4455  -31.6600   25.0729 C   0  0  0  0  0  0
  -25.3719  -31.3713   26.1480 C   0  0  0  0  0  0
  -27.0265  -30.3036   24.6102 C   0  0  0  0  0  0
  -27.6047  -32.4298   25.7489 C   0  0  0  0  0  0
  -27.5587  -37.1828   24.8459 C   0  0  0  0  0  0
  -21.4140  -29.3030   22.3695 N   0  0  0  0  0  0
  -26.4302  -37.3805   23.9402 N   0  0  0  0  0  0
  -24.6685  -31.0760   22.1009 N   0  0  0  0  0  0
  -23.4181  -28.8186   23.2998 O   0  0  0  0  0  0
  -28.4326  -26.7300   20.1025 O   0  0  0  0  0  0
  -26.5599  -34.8934   22.4708 O   0  0  0  0  0  0
  -23.5326  -32.1438   23.7483 O   0  0  0  0  0  0
  -27.4568  -21.2151   20.4553 C   0  0  0  0  0  0
  -28.4808  -22.1960   20.4150 C   0  0  0  0  0  0
  -28.9999  -19.6955   21.1993 C   0  0  0  0  0  0
  -25.1996  -22.6050   20.5272 C   0  0  0  0  0  0
  -24.9018  -21.2129   21.0200 C   0  0  0  0  0  0
  -30.5031  -17.9723   22.2911 C   0  0  0  0  0  0
  -28.2863  -17.3388   21.6748 C   0  0  0  0  0  0
  -31.0668  -16.5984   21.8313 C   0  0  0  0  0  0
  -28.7510  -16.0488   20.9924 C   0  0  0  0  0  0
  -26.0301  -21.4375   20.0354 C   0  0  0  0  0  0
  -29.2853  -24.4518   19.6540 C   0  0  0  0  0  0
  -28.7499  -25.7848   19.0709 C   0  0  0  0  0  0
  -27.7393  -19.9535   20.8477 N   0  0  0  0  0  0
  -29.7421  -21.8542   20.7885 N   0  0  0  0  0  0
  -30.0010  -20.5940   21.1870 N   0  0  0  0  0  0
  -29.2961  -18.3770   21.5788 N   0  0  0  0  0  0
  -30.1277  -15.5741   21.2834 N   0  0  0  0  0  0
  -28.2188  -23.5139   20.0037 N   0  0  0  0  0  0
  -31.4625  -12.4661   19.1028 H   0  0  0  0  0  0
  -30.3589  -11.3369   19.8169 H   0  0  0  0  0  0
  -29.7451  -11.7848   17.4247 H   0  0  0  0  0  0
  -29.6254  -13.4962   17.7579 H   0  0  0  0  0  0
  -27.8394  -11.2691   18.8138 H   0  0  0  0  0  0
  -27.3529  -12.5900   17.7879 H   0  0  0  0  0  0
  -27.6801  -14.1919   19.5107 H   0  0  0  0  0  0
  -28.7256  -11.8955   21.2684 H   0  0  0  0  0  0
  -28.4753  -13.4531   21.9251 H   0  0  0  0  0  0
  -25.2686   -9.5664   22.4770 H   0  0  0  0  0  0
  -23.9950   -7.4599   22.7470 H   0  0  0  0  0  0
  -21.0785   -8.8711   19.8963 H   0  0  0  0  0  0
  -22.3605  -10.9626   19.6189 H   0  0  0  0  0  0
  -21.1999   -7.6119   23.9673 H   0  0  0  0  0  0
  -21.1504   -6.0511   25.9055 H   0  0  0  0  0  0
  -22.0607   -2.7581   23.2842 H   0  0  0  0  0  0
  -22.4059  -11.9899   22.4788 H   0  0  0  0  0  0
  -21.1098  -13.1331   22.2633 H   0  0  0  0  0  0
  -24.6465  -15.8168   20.4888 H   0  0  0  0  0  0
  -26.2460  -15.6029   19.9903 H   0  0  0  0  0  0
  -26.7111  -32.5528   23.1168 H   0  0  0  0  0  0
  -25.0000  -33.9786   25.0448 H   0  0  0  0  0  0
  -22.6924  -31.3090   21.4099 H   0  0  0  0  0  0
  -23.3745  -35.9682   23.3308 H   0  0  0  0  0  0
  -24.3584  -36.8949   22.2054 H   0  0  0  0  0  0
  -23.7253  -37.6552   23.6645 H   0  0  0  0  0  0
  -26.0445  -31.5946   20.5945 H   0  0  0  0  0  0
  -26.8221  -30.8841   21.9811 H   0  0  0  0  0  0
  -28.0947  -29.0921   21.1679 H   0  0  0  0  0  0
  -26.0219  -25.9522   19.0478 H   0  0  0  0  0  0
  -23.9717  -27.2849   19.0571 H   0  0  0  0  0  0
  -23.7308  -30.6074   19.4069 H   0  0  0  0  0  0
  -22.7372  -29.2549   19.8573 H   0  0  0  0  0  0
  -25.1276  -36.2002   25.0831 H   0  0  0  0  0  0
  -20.9968  -28.3262   24.1417 H   0  0  0  0  0  0
  -20.5683  -26.2286   23.3608 H   0  0  0  0  0  0
  -21.6642  -26.7445   22.1212 H   0  0  0  0  0  0
  -19.6921  -25.6289   21.1235 H   0  0  0  0  0  0
  -19.6696  -27.3192   20.6739 H   0  0  0  0  0  0
  -17.4199  -26.6668   21.4011 H   0  0  0  0  0  0
  -18.0334  -26.0057   22.9015 H   0  0  0  0  0  0
  -19.7940  -30.7229   24.2313 H   0  0  0  0  0  0
  -17.5028  -31.6265   24.5171 H   0  0  0  0  0  0
  -15.5361  -30.3016   23.7608 H   0  0  0  0  0  0
  -15.8665  -28.0836   22.7045 H   0  0  0  0  0  0
  -24.5867  -30.7092   25.7813 H   0  0  0  0  0  0
  -24.8933  -32.2872   26.4955 H   0  0  0  0  0  0
  -25.8061  -30.8850   27.0222 H   0  0  0  0  0  0
  -26.2804  -29.6820   24.1137 H   0  0  0  0  0  0
  -27.4008  -29.7241   25.4547 H   0  0  0  0  0  0
  -27.8654  -30.4343   23.9263 H   0  0  0  0  0  0
  -27.2689  -33.3580   26.2120 H   0  0  0  0  0  0
  -28.3835  -32.6885   25.0304 H   0  0  0  0  0  0
  -28.0741  -31.8382   26.5356 H   0  0  0  0  0  0
  -28.2609  -38.0123   24.7502 H   0  0  0  0  0  0
  -28.1079  -36.2654   24.6277 H   0  0  0  0  0  0
  -27.2307  -37.1478   25.8864 H   0  0  0  0  0  0
  -20.9308  -29.8754   21.6910 H   0  0  0  0  0  0
  -26.0194  -38.2889   24.1393 H   0  0  0  0  0  0
  -25.6510  -23.2966   21.2358 H   0  0  0  0  0  0
  -24.4795  -23.0407   19.8366 H   0  0  0  0  0  0
  -23.9982  -20.7352   20.6489 H   0  0  0  0  0  0
  -25.1581  -20.9938   22.0548 H   0  0  0  0  0  0
  -31.2897  -18.7253   22.2265 H   0  0  0  0  0  0
  -30.2468  -17.9087   23.3506 H   0  0  0  0  0  0
  -28.0922  -17.1465   22.7319 H   0  0  0  0  0  0
  -27.3219  -17.6260   21.2527 H   0  0  0  0  0  0
  -31.6350  -16.1549   22.6520 H   0  0  0  0  0  0
  -31.8058  -16.8450   21.0671 H   0  0  0  0  0  0
  -28.6600  -16.1753   19.9121 H   0  0  0  0  0  0
  -27.9958  -15.3434   21.3085 H   0  0  0  0  0  0
  -25.8770  -21.1114   19.0084 H   0  0  0  0  0  0
  -29.9248  -24.6445   20.5175 H   0  0  0  0  0  0
  -29.9143  -23.9750   18.9005 H   0  0  0  0  0  0
  -27.9688  -25.6095   18.3318 H   0  0  0  0  0  0
  -29.5597  -26.2464   18.5035 H   0  0  0  0  0  0
  -27.2757  -23.7388   19.7111 H   0  0  0  0  0  0
  1 25  1  0  0  0
  1 30  2  0  0  0
  1 87  1  0  0  0
  2  3  1  0  0  0
  2 25  1  0  0  0
  2 89  1  0  0  0
  2 90  1  0  0  0
  3  4  1  0  0  0
  3 91  1  0  0  0
  3 92  1  0  0  0
  4  5  1  0  0  0
  4 93  1  0  0  0
  4 94  1  0  0  0
  5  6  1  0  0  0
  5 26  1  0  0  0
  5 95  1  0  0  0
  6 25  1  0  0  0
  6 96  1  0  0  0
  6 97  1  0  0  0
  7  8  2  0  0  0
  7 26  1  0  0  0
  7 29  1  0  0  0
  8  9  1  0  0  0
  8 22  1  0  0  0
  9 10  1  0  0  0
  9 27  2  0  0  0
 10 11  2  0  0  0
 10 15  1  0  0  0
 11 12  1  0  0  0
 11 98  1  0  0  0
 12 13  2  0  0  0
 12 99  1  0  0  0
 13 14  1  0  0  0
 13 31  1  0  0  0
 14 15  2  0  0  0
 14100  1  0  0  0
 15101  1  0  0  0
 16 17  2  0  0  0
 16 21  1  0  0  0
 16 31  1  0  0  0
 17 18  1  0  0  0
 17102  1  0  0  0
 18 19  2  0  0  0
 18103  1  0  0  0
 19 20  1  0  0  0
 19 24  1  0  0  0
 20 21  2  0  0  0
 20104  1  0  0  0
 21 23  1  0  0  0
 22 28  1  0  0  0
 22 32  2  0  0  0
 26 27  1  0  0  0
 28105  1  0  0  0
 28106  1  0  0  0
 29107  1  0  0  0
 29108  1  0  0  0
 33 34  1  0  0  0
 33 66  1  0  0  0
 33 70  2  0  0  0
 34 36  1  0  0  0
 34 59  1  0  0  0
 34109  1  0  0  0
 35 44  2  0  0  0
 35 45  1  0  0  0
 35 68  1  0  0  0
 36 56  1  0  0  0
 36110  1  0  0  0
 37 39  1  0  0  0
 37 47  1  0  0  0
 37 66  1  0  0  0
 37111  1  0  0  0
 38 43  2  0  0  0
 38 46  1  0  0  0
 38 47  1  0  0  0
 39 64  1  0  0  0
 39 67  2  0  0  0
 40 52  1  0  0  0
 40 53  2  0  0  0
 40 58  1  0  0  0
 41112  1  0  0  0
 41113  1  0  0  0
 41114  1  0  0  0
 41 48  1  0  0  0
 42 43  1  0  0  0
 42 66  1  0  0  0
 42115  1  0  0  0
 42116  1  0  0  0
 43 44  1  0  0  0
 44117  1  0  0  0
 45 46  2  0  0  0
 45118  1  0  0  0
 46119  1  0  0  0
 47120  1  0  0  0
 47121  1  0  0  0
 48 56  1  0  0  0
 48 65  1  0  0  0
 48122  1  0  0  0
 49 50  1  0  0  0
 49 53  1  0  0  0
 49 64  1  0  0  0
 49123  1  0  0  0
 50 51  1  0  0  0
 50124  1  0  0  0
 50125  1  0  0  0
 51 52  1  0  0  0
 51126  1  0  0  0
 51127  1  0  0  0
 52128  1  0  0  0
 52129  1  0  0  0
 53 54  1  0  0  0
 54 55  2  0  0  0
 54130  1  0  0  0
 55 57  1  0  0  0
 55131  1  0  0  0
 56 69  2  0  0  0
 57 58  2  0  0  0
 57132  1  0  0  0
 58133  1  0  0  0
 59 60  1  0  0  0
 59 61  1  0  0  0
 59 62  1  0  0  0
 60134  1  0  0  0
 60135  1  0  0  0
 60136  1  0  0  0
 61137  1  0  0  0
 61138  1  0  0  0
 61139  1  0  0  0
 62140  1  0  0  0
 62141  1  0  0  0
 62142  1  0  0  0
 63 65  1  0  0  0
 63143  1  0  0  0
 63144  1  0  0  0
 63145  1  0  0  0
 64146  1  0  0  0
 65147  1  0  0  0
 68 82  1  0  0  0
 71 72  1  0  0  0
 71 83  2  0  0  0
 71 80  1  0  0  0
 72 84  2  0  0  0
 72 88  1  0  0  0
 73 83  1  0  0  0
 73 85  2  0  0  0
 73 86  1  0  0  0
 74 75  1  0  0  0
 74 80  1  0  0  0
 74148  1  0  0  0
 74149  1  0  0  0
 75 80  1  0  0  0
 75150  1  0  0  0
 75151  1  0  0  0
 76 78  1  0  0  0
 76 86  1  0  0  0
 76152  1  0  0  0
 76153  1  0  0  0
 77 79  1  0  0  0
 77 86  1  0  0  0
 77154  1  0  0  0
 77155  1  0  0  0
 78 87  1  0  0  0
 78156  1  0  0  0
 78157  1  0  0  0
 79 87  1  0  0  0
 79158  1  0  0  0
 79159  1  0  0  0
 80160  1  0  0  0
 81 82  1  0  0  0
 81 88  1  0  0  0
 81161  1  0  0  0
 81162  1  0  0  0
 82163  1  0  0  0
 82164  1  0  0  0
 84 85  1  0  0  0
 88165  1  0  0  0
M  ISO  4   1 100  68 101  82 101  87 100
M  END
> <chiral flag>
0

> <version>
0

> <s_m_source_file>
/data/baiqing/PycharmProjects/Reinvent-master-3.2/result/LINK_invent/BTK/process_docking_weight1_custom_sum_contain_oxygen_bond_distance_aromatic_linkinvent_7_9_3/rearranged_h_0196.sdf

> <i_m_source_file_index>
77

> <r_mmod_Potential_Energy-OPLS-2005>
82.9002227783203

> <r_mmod_Stretch_Energy-OPLS-2005>
49.5182914733887

> <r_mmod_Bend_Energy-OPLS-2005>
163.352737426758

> <r_mmod_Torsional_Energy-OPLS-2005>
335.462829589844

> <r_mmod_Improper_Torsional_Energy-OPLS-2005>
5.44167757034302

> <r_mmod_Van_der_Waal_Energy-OPLS-2005>
192.207290649414

> <r_mmod_Electrostatic_Energy-OPLS-2005>
-434.769561767578

> <r_mmod_Solvation_Energy-OPLS-2005>
-245.146118164062

> <b_mmod_Minimization_Converged-OPLS-2005>
0

> <r_mmod_RMS_Derivative-OPLS-2005>
2.44309520721436

$$$$
78
                    3D
 Structure written by MMmdl.
155163  0  0  1  0            999 V2000
  -30.6658  -14.5073   20.5757 C   0  0  0  0  0  0
  -30.4338  -12.3313   19.4248 C   0  0  0  0  0  0
  -29.4995  -12.5125   18.2098 C   0  0  0  0  0  0
  -28.0195  -12.3682   18.6196 C   0  0  0  0  0  0
  -27.6632  -13.2042   19.8786 C   0  0  2  0  0  0
  -28.7045  -12.9738   20.9956 C   0  0  0  0  0  0
  -25.2594  -13.8155   20.5653 C   0  0  0  0  0  0
  -24.1838  -13.0438   20.9158 C   0  0  0  0  0  0
  -24.6385  -11.6894   20.8735 C   0  0  0  0  0  0
  -23.9047  -10.4284   21.0394 C   0  0  0  0  0  0
  -24.3602   -9.4210   21.9180 C   0  0  0  0  0  0
  -23.6284   -8.2247   22.0751 C   0  0  0  0  0  0
  -22.4273   -8.0278   21.3532 C   0  0  0  0  0  0
  -21.9893   -9.0251   20.4642 C   0  0  0  0  0  0
  -22.7213  -10.2135   20.3046 C   0  0  0  0  0  0
  -21.6846   -6.0736   22.5277 C   0  0  0  0  0  0
  -21.4016   -6.5638   23.8213 C   0  0  0  0  0  0
  -21.3665   -5.6791   24.9171 C   0  0  0  0  0  0
  -21.6036   -4.3054   24.7219 C   0  0  0  0  0  0
  -21.8823   -3.8146   23.4342 C   0  0  0  0  0  0
  -21.9196   -4.6964   22.3397 C   0  0  0  0  0  0
  -22.7862  -13.5249   21.1837 C   0  0  0  0  0  0
  -22.1661   -4.2143   21.0978 F   0  0  0  0  0  0
  -21.5631   -3.4542   25.7736 F   0  0  0  0  0  0
  -30.0299  -13.3089   20.4463 N   0  0  0  0  0  0
  -26.3027  -12.9313   20.3361 N   0  0  0  0  0  0
  -25.9316  -11.6476   20.5761 N   0  0  0  0  0  0
  -22.0501  -12.8245   22.0399 N   0  0  0  0  0  0
  -25.4332  -15.1867   20.4027 N   0  0  0  0  0  0
  -31.7789  -14.7188   20.0894 O   0  0  0  0  0  0
  -21.6635   -6.8876   21.4235 O   0  0  0  0  0  0
  -22.3542  -14.5563   20.6706 O   0  0  0  0  0  0
  -24.6125  -31.8699   23.2042 C   0  0  0  0  0  0
  -25.9013  -32.4840   23.8368 C   0  0  1  0  0  0
  -27.2356  -27.4100   20.1049 C   0  0  0  0  0  0
  -25.5877  -33.8637   24.2299 N   0  0  0  0  0  0
  -23.4036  -30.4920   21.5446 C   0  0  2  0  0  0
  -24.8531  -28.9555   20.1091 C   0  0  0  0  0  0
  -22.7425  -29.4684   22.4958 C   0  0  0  0  0  0
  -18.0313  -28.1381   22.8512 C   0  0  0  0  0  0
  -24.1490  -36.7301   23.2646 C   0  0  0  0  0  0
  -25.9359  -30.8289   21.3598 C   0  0  0  0  0  0
  -26.0153  -29.4626   20.7043 C   0  0  0  0  0  0
  -27.2099  -28.7020   20.6918 C   0  0  0  0  0  0
  -26.0529  -26.9258   19.4993 C   0  0  0  0  0  0
  -24.8700  -27.6894   19.5010 C   0  0  0  0  0  0
  -23.6131  -29.8221   20.1607 C   0  0  0  0  0  0
  -25.4120  -36.3108   24.0339 C   0  0  1  0  0  0
  -20.5898  -28.3668   23.1314 C   0  0  2  0  0  0
  -20.6795  -26.9398   22.5411 C   0  0  0  0  0  0
  -19.5767  -26.6376   21.5219 C   0  0  0  0  0  0
  -18.1950  -26.7937   22.1635 C   0  0  0  0  0  0
  -19.1554  -28.8857   23.2913 C   0  0  0  0  0  0
  -18.9478  -30.1472   23.8900 C   0  0  0  0  0  0
  -17.6467  -30.6592   24.0580 C   0  0  0  0  0  0
  -25.9051  -34.9487   23.5127 C   0  0  0  0  0  0
  -16.5365  -29.9085   23.6327 C   0  0  0  0  0  0
  -16.7300  -28.6512   23.0341 C   0  0  0  0  0  0
  -26.4443  -31.6621   25.0702 C   0  0  0  0  0  0
  -25.3698  -31.3744   26.1431 C   0  0  0  0  0  0
  -27.0251  -30.3067   24.6060 C   0  0  0  0  0  0
  -27.6018  -32.4330   25.7471 C   0  0  0  0  0  0
  -27.5588  -37.1810   24.8487 C   0  0  0  0  0  0
  -21.4154  -29.3040   22.3708 N   0  0  0  0  0  0
  -26.4303  -37.3789   23.9413 N   0  0  0  0  0  0
  -24.6700  -31.0785   22.0943 N   0  0  0  0  0  0
  -23.4206  -28.8240   23.3000 O   0  0  0  0  0  0
  -28.3829  -26.6271   20.1731 O   0  0  0  0  0  0
  -26.5623  -34.8936   22.4690 O   0  0  0  0  0  0
  -23.5313  -32.1448   23.7433 O   0  0  0  0  0  0
  -29.3274  -17.8944   20.4624 C   0  0  0  0  0  0
  -29.2461  -21.5254   20.6832 C   0  0  0  0  0  0
  -31.5385  -17.5319   21.3490 C   0  0  0  0  0  0
  -31.3048  -19.0088   20.9572 C   0  0  0  0  0  0
  -30.1249  -16.9342   21.3461 C   0  0  2  0  0  0
  -29.4783  -20.3276   19.7253 C   0  0  0  0  0  0
  -28.9456  -24.0184   20.9277 C   0  0  0  0  0  0
  -28.2059  -25.1837   20.1644 C   0  0  0  0  0  0
  -29.9655  -19.0783   20.3663 N   0  0  0  0  0  0
  -29.0900  -22.7619   20.1550 N   0  0  0  0  0  0
  -29.9355  -15.4708   21.1732 N   0  0  0  0  0  0
  -28.2482  -17.5918   19.9441 O   0  0  0  0  0  0
  -29.2133  -21.3379   21.9021 O   0  0  0  0  0  0
  -31.4767  -12.4489   19.1251 H   0  0  0  0  0  0
  -30.3559  -11.3191   19.8243 H   0  0  0  0  0  0
  -29.7457  -11.7867   17.4344 H   0  0  0  0  0  0
  -29.6624  -13.4967   17.7670 H   0  0  0  0  0  0
  -27.8319  -11.3117   18.8115 H   0  0  0  0  0  0
  -27.3699  -12.6434   17.7882 H   0  0  0  0  0  0
  -27.7088  -14.2545   19.5881 H   0  0  0  0  0  0
  -28.6926  -11.9273   21.3064 H   0  0  0  0  0  0
  -28.4582  -13.5405   21.8954 H   0  0  0  0  0  0
  -25.2748   -9.5700   22.4744 H   0  0  0  0  0  0
  -24.0002   -7.4639   22.7465 H   0  0  0  0  0  0
  -21.0830   -8.8753   19.8945 H   0  0  0  0  0  0
  -22.3661  -10.9669   19.6151 H   0  0  0  0  0  0
  -21.2004   -7.6145   23.9710 H   0  0  0  0  0  0
  -21.1483   -6.0522   25.9074 H   0  0  0  0  0  0
  -22.0596   -2.7608   23.2839 H   0  0  0  0  0  0
  -22.4128  -11.9916   22.4796 H   0  0  0  0  0  0
  -21.1108  -13.1252   22.2591 H   0  0  0  0  0  0
  -24.6668  -15.8430   20.5018 H   0  0  0  0  0  0
  -26.2883  -15.6273   20.0823 H   0  0  0  0  0  0
  -26.7089  -32.5536   23.1128 H   0  0  0  0  0  0
  -25.0030  -33.9829   25.0455 H   0  0  0  0  0  0
  -22.6930  -31.3085   21.4010 H   0  0  0  0  0  0
  -23.3767  -35.9622   23.3346 H   0  0  0  0  0  0
  -24.3593  -36.8867   22.2054 H   0  0  0  0  0  0
  -23.7219  -37.6514   23.6642 H   0  0  0  0  0  0
  -26.0585  -31.5926   20.5913 H   0  0  0  0  0  0
  -26.8219  -30.8806   21.9798 H   0  0  0  0  0  0
  -28.1047  -29.0894   21.1611 H   0  0  0  0  0  0
  -26.0310  -25.9515   19.0314 H   0  0  0  0  0  0
  -23.9756  -27.2952   19.0385 H   0  0  0  0  0  0
  -23.7173  -30.5940   19.3954 H   0  0  0  0  0  0
  -22.7377  -29.2390   19.8688 H   0  0  0  0  0  0
  -25.1290  -36.1985   25.0832 H   0  0  0  0  0  0
  -21.0028  -28.3213   24.1419 H   0  0  0  0  0  0
  -20.5717  -26.2263   23.3588 H   0  0  0  0  0  0
  -21.6662  -26.7438   22.1183 H   0  0  0  0  0  0
  -19.6916  -25.6289   21.1242 H   0  0  0  0  0  0
  -19.6706  -27.3226   20.6777 H   0  0  0  0  0  0
  -17.4215  -26.6724   21.4032 H   0  0  0  0  0  0
  -18.0329  -26.0079   22.9027 H   0  0  0  0  0  0
  -19.7954  -30.7313   24.2224 H   0  0  0  0  0  0
  -17.5029  -31.6269   24.5186 H   0  0  0  0  0  0
  -15.5384  -30.2981   23.7657 H   0  0  0  0  0  0
  -15.8700  -28.0839   22.7010 H   0  0  0  0  0  0
  -24.5879  -30.7075   25.7787 H   0  0  0  0  0  0
  -24.8866  -32.2904   26.4843 H   0  0  0  0  0  0
  -25.8007  -30.8957   27.0223 H   0  0  0  0  0  0
  -26.2797  -29.6868   24.1064 H   0  0  0  0  0  0
  -27.4010  -29.7245   25.4481 H   0  0  0  0  0  0
  -27.8631  -30.4429   23.9217 H   0  0  0  0  0  0
  -27.2651  -33.3641   26.2054 H   0  0  0  0  0  0
  -28.3822  -32.6867   25.0279 H   0  0  0  0  0  0
  -28.0692  -31.8438   26.5372 H   0  0  0  0  0  0
  -28.2626  -38.0089   24.7496 H   0  0  0  0  0  0
  -28.1043  -36.2608   24.6351 H   0  0  0  0  0  0
  -27.2304  -37.1508   25.8892 H   0  0  0  0  0  0
  -20.9305  -29.8724   21.6900 H   0  0  0  0  0  0
  -26.0195  -38.2873   24.1386 H   0  0  0  0  0  0
  -32.0281  -17.4428   22.3187 H   0  0  0  0  0  0
  -32.1886  -17.0771   20.6057 H   0  0  0  0  0  0
  -32.0623  -19.3564   20.2539 H   0  0  0  0  0  0
  -31.3526  -19.6458   21.8419 H   0  0  0  0  0  0
  -29.7137  -17.1256   22.3380 H   0  0  0  0  0  0
  -30.1953  -20.6286   18.9593 H   0  0  0  0  0  0
  -28.5375  -20.1340   19.2065 H   0  0  0  0  0  0
  -28.4166  -23.7581   21.8516 H   0  0  0  0  0  0
  -29.9379  -24.3408   21.2505 H   0  0  0  0  0  0
  -29.0811  -25.2819   19.5194 H   0  0  0  0  0  0
  -28.0268  -25.5179   21.1874 H   0  0  0  0  0  0
  -29.1168  -22.8469   19.1472 H   0  0  0  0  0  0
  -29.0394  -15.1427   21.5000 H   0  0  0  0  0  0
  1 25  1  0  0  0
  1 30  2  0  0  0
  1 81  1  0  0  0
  2  3  1  0  0  0
  2 25  1  0  0  0
  2 84  1  0  0  0
  2 85  1  0  0  0
  3  4  1  0  0  0
  3 86  1  0  0  0
  3 87  1  0  0  0
  4  5  1  0  0  0
  4 88  1  0  0  0
  4 89  1  0  0  0
  5  6  1  0  0  0
  5 26  1  0  0  0
  5 90  1  0  0  0
  6 25  1  0  0  0
  6 91  1  0  0  0
  6 92  1  0  0  0
  7  8  2  0  0  0
  7 26  1  0  0  0
  7 29  1  0  0  0
  8  9  1  0  0  0
  8 22  1  0  0  0
  9 10  1  0  0  0
  9 27  2  0  0  0
 10 11  2  0  0  0
 10 15  1  0  0  0
 11 12  1  0  0  0
 11 93  1  0  0  0
 12 13  2  0  0  0
 12 94  1  0  0  0
 13 14  1  0  0  0
 13 31  1  0  0  0
 14 15  2  0  0  0
 14 95  1  0  0  0
 15 96  1  0  0  0
 16 17  2  0  0  0
 16 21  1  0  0  0
 16 31  1  0  0  0
 17 18  1  0  0  0
 17 97  1  0  0  0
 18 19  2  0  0  0
 18 98  1  0  0  0
 19 20  1  0  0  0
 19 24  1  0  0  0
 20 21  2  0  0  0
 20 99  1  0  0  0
 21 23  1  0  0  0
 22 28  1  0  0  0
 22 32  2  0  0  0
 26 27  1  0  0  0
 28100  1  0  0  0
 28101  1  0  0  0
 29102  1  0  0  0
 29103  1  0  0  0
 33 34  1  0  0  0
 33 66  1  0  0  0
 33 70  2  0  0  0
 34 36  1  0  0  0
 34 59  1  0  0  0
 34104  1  0  0  0
 35 44  2  0  0  0
 35 45  1  0  0  0
 35 68  1  0  0  0
 36 56  1  0  0  0
 36105  1  0  0  0
 37 39  1  0  0  0
 37 47  1  0  0  0
 37 66  1  0  0  0
 37106  1  0  0  0
 38 43  2  0  0  0
 38 46  1  0  0  0
 38 47  1  0  0  0
 39 64  1  0  0  0
 39 67  2  0  0  0
 40 52  1  0  0  0
 40 53  2  0  0  0
 40 58  1  0  0  0
 41107  1  0  0  0
 41108  1  0  0  0
 41109  1  0  0  0
 41 48  1  0  0  0
 42 43  1  0  0  0
 42 66  1  0  0  0
 42110  1  0  0  0
 42111  1  0  0  0
 43 44  1  0  0  0
 44112  1  0  0  0
 45 46  2  0  0  0
 45113  1  0  0  0
 46114  1  0  0  0
 47115  1  0  0  0
 47116  1  0  0  0
 48 56  1  0  0  0
 48 65  1  0  0  0
 48117  1  0  0  0
 49 50  1  0  0  0
 49 53  1  0  0  0
 49 64  1  0  0  0
 49118  1  0  0  0
 50 51  1  0  0  0
 50119  1  0  0  0
 50120  1  0  0  0
 51 52  1  0  0  0
 51121  1  0  0  0
 51122  1  0  0  0
 52123  1  0  0  0
 52124  1  0  0  0
 53 54  1  0  0  0
 54 55  2  0  0  0
 54125  1  0  0  0
 55 57  1  0  0  0
 55126  1  0  0  0
 56 69  2  0  0  0
 57 58  2  0  0  0
 57127  1  0  0  0
 58128  1  0  0  0
 59 60  1  0  0  0
 59 61  1  0  0  0
 59 62  1  0  0  0
 60129  1  0  0  0
 60130  1  0  0  0
 60131  1  0  0  0
 61132  1  0  0  0
 61133  1  0  0  0
 61134  1  0  0  0
 62135  1  0  0  0
 62136  1  0  0  0
 62137  1  0  0  0
 63 65  1  0  0  0
 63138  1  0  0  0
 63139  1  0  0  0
 63140  1  0  0  0
 64141  1  0  0  0
 65142  1  0  0  0
 68 78  1  0  0  0
 71 75  1  0  0  0
 71 79  1  0  0  0
 71 82  2  0  0  0
 72 76  1  0  0  0
 72 80  1  0  0  0
 72 83  2  0  0  0
 73 74  1  0  0  0
 73 75  1  0  0  0
 73143  1  0  0  0
 73144  1  0  0  0
 74 79  1  0  0  0
 74145  1  0  0  0
 74146  1  0  0  0
 75 81  1  0  0  0
 75147  1  0  0  0
 76 79  1  0  0  0
 76148  1  0  0  0
 76149  1  0  0  0
 77 78  1  0  0  0
 77 80  1  0  0  0
 77150  1  0  0  0
 77151  1  0  0  0
 78152  1  0  0  0
 78153  1  0  0  0
 80154  1  0  0  0
 81155  1  0  0  0
M  ISO  4   1 100  68 101  78 101  81 100
M  END
> <chiral flag>
0

> <version>
0

> <s_m_source_file>
/data/baiqing/PycharmProjects/Reinvent-master-3.2/result/LINK_invent/BTK/process_docking_weight1_custom_sum_contain_oxygen_bond_distance_aromatic_linkinvent_7_9_3/rearranged_h_0196.sdf

> <i_m_source_file_index>
78

> <r_mmod_Potential_Energy-OPLS-2005>
0.481443405151367

> <r_mmod_Stretch_Energy-OPLS-2005>
46.1087951660156

> <r_mmod_Bend_Energy-OPLS-2005>
369.119445800781

> <r_mmod_Torsional_Energy-OPLS-2005>
218.622680664062

> <r_mmod_Improper_Torsional_Energy-OPLS-2005>
2.952073097229

> <r_mmod_Van_der_Waal_Energy-OPLS-2005>
140.144760131836

> <r_mmod_Electrostatic_Energy-OPLS-2005>
-542.924743652344

> <r_mmod_Solvation_Energy-OPLS-2005>
-251.948928833008

> <b_mmod_Minimization_Converged-OPLS-2005>
0

> <r_mmod_RMS_Derivative-OPLS-2005>
3.5248441696167

$$$$
79
                    3D
 Structure written by MMmdl.
160170  0  0  1  0            999 V2000
  -30.6398  -14.9680   20.4114 C   0  0  0  0  0  0
  -30.4103  -12.6148   19.4951 C   0  0  0  0  0  0
  -29.5057  -12.5226   18.2506 C   0  0  0  0  0  0
  -28.0457  -12.3070   18.6805 C   0  0  0  0  0  0
  -27.6170  -13.2623   19.8256 C   0  0  2  0  0  0
  -28.6643  -13.3666   20.9559 C   0  0  0  0  0  0
  -25.2401  -13.8239   20.5741 C   0  0  0  0  0  0
  -24.1742  -13.0440   20.9252 C   0  0  0  0  0  0
  -24.6387  -11.6936   20.8773 C   0  0  0  0  0  0
  -23.9080  -10.4294   21.0417 C   0  0  0  0  0  0
  -24.3625   -9.4206   21.9192 C   0  0  0  0  0  0
  -23.6296   -8.2244   22.0760 C   0  0  0  0  0  0
  -22.4278   -8.0284   21.3551 C   0  0  0  0  0  0
  -21.9916   -9.0259   20.4656 C   0  0  0  0  0  0
  -22.7253  -10.2135   20.3065 C   0  0  0  0  0  0
  -21.6855   -6.0732   22.5274 C   0  0  0  0  0  0
  -21.4020   -6.5634   23.8206 C   0  0  0  0  0  0
  -21.3662   -5.6789   24.9168 C   0  0  0  0  0  0
  -21.6040   -4.3049   24.7222 C   0  0  0  0  0  0
  -21.8818   -3.8144   23.4344 C   0  0  0  0  0  0
  -21.9195   -4.6960   22.3399 C   0  0  0  0  0  0
  -22.7761  -13.5197   21.1885 C   0  0  0  0  0  0
  -22.1662   -4.2144   21.0978 F   0  0  0  0  0  0
  -21.5630   -3.4536   25.7738 F   0  0  0  0  0  0
  -29.9260  -13.7669   20.3212 N   0  0  0  0  0  0
  -26.2840  -12.9507   20.3256 N   0  0  0  0  0  0
  -25.9327  -11.6620   20.5766 N   0  0  0  0  0  0
  -22.0411  -12.8191   22.0445 N   0  0  0  0  0  0
  -25.4013  -15.1966   20.4143 N   0  0  0  0  0  0
  -31.8533  -14.8464   20.2130 O   0  0  0  0  0  0
  -21.6641   -6.8880   21.4239 O   0  0  0  0  0  0
  -22.3439  -14.5493   20.6717 O   0  0  0  0  0  0
  -24.6475  -31.8427   23.1884 C   0  0  0  0  0  0
  -25.9237  -32.4685   23.8273 C   0  0  1  0  0  0
  -27.2026  -27.1045   20.1464 C   0  0  0  0  0  0
  -25.5971  -33.8494   24.2185 N   0  0  0  0  0  0
  -23.4513  -30.4656   21.5351 C   0  0  2  0  0  0
  -24.8981  -28.8943   20.1082 C   0  0  0  0  0  0
  -22.7585  -29.4548   22.4843 C   0  0  0  0  0  0
  -18.0312  -28.1401   22.8477 C   0  0  0  0  0  0
  -24.1492  -36.7248   23.2641 C   0  0  0  0  0  0
  -26.0119  -30.7054   21.3941 C   0  0  0  0  0  0
  -26.0793  -29.3163   20.7314 C   0  0  0  0  0  0
  -27.2332  -28.4378   20.7351 C   0  0  0  0  0  0
  -25.9946  -26.8035   19.4744 C   0  0  0  0  0  0
  -24.8707  -27.6524   19.4640 C   0  0  0  0  0  0
  -23.6785  -29.8017   20.1526 C   0  0  0  0  0  0
  -25.4126  -36.3026   24.0311 C   0  0  1  0  0  0
  -20.5928  -28.3734   23.1223 C   0  0  2  0  0  0
  -20.6795  -26.9431   22.5399 C   0  0  0  0  0  0
  -19.5763  -26.6382   21.5213 C   0  0  0  0  0  0
  -18.1948  -26.7939   22.1627 C   0  0  0  0  0  0
  -19.1570  -28.8885   23.2841 C   0  0  0  0  0  0
  -18.9483  -30.1481   23.8866 C   0  0  0  0  0  0
  -17.6478  -30.6594   24.0562 C   0  0  0  0  0  0
  -25.9081  -34.9401   23.5057 C   0  0  0  0  0  0
  -16.5371  -29.9087   23.6338 C   0  0  0  0  0  0
  -16.7295  -28.6508   23.0356 C   0  0  0  0  0  0
  -26.4537  -31.6565   25.0729 C   0  0  0  0  0  0
  -25.3705  -31.3776   26.1414 C   0  0  0  0  0  0
  -27.0402  -30.2951   24.6345 C   0  0  0  0  0  0
  -27.6062  -32.4337   25.7517 C   0  0  0  0  0  0
  -27.5576  -37.1780   24.8462 C   0  0  0  0  0  0
  -21.4274  -29.3057   22.3592 N   0  0  0  0  0  0
  -26.4286  -37.3743   23.9408 N   0  0  0  0  0  0
  -24.7235  -31.0257   22.0939 N   0  0  0  0  0  0
  -23.4219  -28.8089   23.2995 O   0  0  0  0  0  0
  -28.2195  -26.0702   20.2251 O   0  0  0  0  0  0
  -26.5664  -34.8905   22.4635 O   0  0  0  0  0  0
  -23.5585  -32.1325   23.7082 O   0  0  0  0  0  0
  -30.4841  -21.9406   20.7287 C   0  0  0  0  0  0
  -30.0863  -23.2685   20.6232 C   0  0  0  0  0  0
  -29.3686  -21.0939   20.4318 C   0  0  0  0  0  0
  -32.2456  -24.4875   21.4920 C   0  0  0  0  0  0
  -31.0591  -25.1497   22.1567 C   0  0  0  0  0  0
  -30.7700  -18.8999   20.6780 C   0  0  0  0  0  0
  -28.4396  -18.5235   20.2743 C   0  0  0  0  0  0
  -30.9738  -17.4807   19.9630 C   0  0  0  0  0  0
  -28.7831  -16.9659   20.7318 C   0  0  0  0  0  0
  -30.9024  -24.5092   20.7997 C   0  0  0  0  0  0
  -27.8096  -24.6035   20.0033 C   0  0  0  0  0  0
  -28.3245  -21.9731   20.1757 N   0  0  0  0  0  0
  -28.7397  -23.3469   20.2892 N   0  0  0  0  0  0
  -29.4818  -19.5965   20.4271 N   0  0  0  0  0  0
  -30.1052  -16.3135   20.3732 N   0  0  0  0  0  0
  -31.4478  -12.7237   19.1754 H   0  0  0  0  0  0
  -30.3804  -11.6857   20.0670 H   0  0  0  0  0  0
  -29.8310  -11.7087   17.6011 H   0  0  0  0  0  0
  -29.5898  -13.4389   17.6638 H   0  0  0  0  0  0
  -27.9538  -11.2719   19.0123 H   0  0  0  0  0  0
  -27.3775  -12.4140   17.8253 H   0  0  0  0  0  0
  -27.5566  -14.2454   19.3591 H   0  0  0  0  0  0
  -28.7681  -12.4214   21.4909 H   0  0  0  0  0  0
  -28.3613  -14.1136   21.6913 H   0  0  0  0  0  0
  -25.2770   -9.5679   22.4767 H   0  0  0  0  0  0
  -24.0001   -7.4630   22.7480 H   0  0  0  0  0  0
  -21.0847   -8.8784   19.8961 H   0  0  0  0  0  0
  -22.3715  -10.9671   19.6171 H   0  0  0  0  0  0
  -21.2015   -7.6143   23.9706 H   0  0  0  0  0  0
  -21.1486   -6.0521   25.9067 H   0  0  0  0  0  0
  -22.0598   -2.7607   23.2845 H   0  0  0  0  0  0
  -22.4037  -11.9868   22.4851 H   0  0  0  0  0  0
  -21.1027  -13.1218   22.2643 H   0  0  0  0  0  0
  -24.6291  -15.8449   20.5256 H   0  0  0  0  0  0
  -26.2413  -15.6366   20.0652 H   0  0  0  0  0  0
  -26.7302  -32.5278   23.0996 H   0  0  0  0  0  0
  -25.0087  -33.9598   25.0312 H   0  0  0  0  0  0
  -22.7553  -31.2932   21.3829 H   0  0  0  0  0  0
  -23.3763  -35.9569   23.3285 H   0  0  0  0  0  0
  -24.3578  -36.8902   22.2059 H   0  0  0  0  0  0
  -23.7235  -37.6434   23.6694 H   0  0  0  0  0  0
  -26.1756  -31.4606   20.6243 H   0  0  0  0  0  0
  -26.8796  -30.7516   22.0405 H   0  0  0  0  0  0
  -28.1292  -28.7524   21.2513 H   0  0  0  0  0  0
  -25.8628  -25.8628   18.9638 H   0  0  0  0  0  0
  -23.9707  -27.3258   18.9609 H   0  0  0  0  0  0
  -23.8216  -30.5802   19.4020 H   0  0  0  0  0  0
  -22.7911  -29.2504   19.8369 H   0  0  0  0  0  0
  -25.1313  -36.1847   25.0801 H   0  0  0  0  0  0
  -21.0024  -28.3328   24.1345 H   0  0  0  0  0  0
  -20.5695  -26.2346   23.3622 H   0  0  0  0  0  0
  -21.6659  -26.7433   22.1194 H   0  0  0  0  0  0
  -19.6921  -25.6284   21.1264 H   0  0  0  0  0  0
  -19.6697  -27.3176   20.6728 H   0  0  0  0  0  0
  -17.4213  -26.6682   21.4036 H   0  0  0  0  0  0
  -18.0348  -26.0092   22.9034 H   0  0  0  0  0  0
  -19.7958  -30.7307   24.2222 H   0  0  0  0  0  0
  -17.5031  -31.6272   24.5170 H   0  0  0  0  0  0
  -15.5371  -30.2977   23.7677 H   0  0  0  0  0  0
  -15.8698  -28.0816   22.7083 H   0  0  0  0  0  0
  -24.5860  -30.7160   25.7724 H   0  0  0  0  0  0
  -24.8924  -32.2970   26.4802 H   0  0  0  0  0  0
  -25.7961  -30.8950   27.0220 H   0  0  0  0  0  0
  -26.3028  -29.6669   24.1334 H   0  0  0  0  0  0
  -27.3973  -29.7262   25.4940 H   0  0  0  0  0  0
  -27.8959  -30.4171   23.9702 H   0  0  0  0  0  0
  -27.2649  -33.3652   26.2045 H   0  0  0  0  0  0
  -28.3899  -32.6874   25.0367 H   0  0  0  0  0  0
  -28.0703  -31.8496   26.5474 H   0  0  0  0  0  0
  -28.2579  -38.0091   24.7518 H   0  0  0  0  0  0
  -28.1086  -36.2619   24.6277 H   0  0  0  0  0  0
  -27.2293  -37.1413   25.8865 H   0  0  0  0  0  0
  -20.9487  -29.8778   21.6772 H   0  0  0  0  0  0
  -26.0148  -38.2808   24.1420 H   0  0  0  0  0  0
  -31.4858  -21.6273   20.9809 H   0  0  0  0  0  0
  -32.5929  -23.5481   21.9167 H   0  0  0  0  0  0
  -33.0247  -25.1321   21.0893 H   0  0  0  0  0  0
  -31.0434  -26.2371   22.1988 H   0  0  0  0  0  0
  -30.6121  -24.6419   23.0089 H   0  0  0  0  0  0
  -31.5833  -19.5434   20.3435 H   0  0  0  0  0  0
  -30.9023  -18.7883   21.7554 H   0  0  0  0  0  0
  -27.5380  -18.8528   20.7939 H   0  0  0  0  0  0
  -28.1727  -18.5098   19.2165 H   0  0  0  0  0  0
  -32.0253  -17.2311   20.1086 H   0  0  0  0  0  0
  -30.8658  -17.6055   18.8842 H   0  0  0  0  0  0
  -27.9891  -16.3221   20.3611 H   0  0  0  0  0  0
  -28.7086  -16.9123   21.8186 H   0  0  0  0  0  0
  -30.8033  -25.1703   19.9405 H   0  0  0  0  0  0
  -26.9014  -24.4315   20.5826 H   0  0  0  0  0  0
  -27.5455  -24.5115   18.9497 H   0  0  0  0  0  0
  1 25  1  0  0  0
  1 30  2  0  0  0
  1 85  1  0  0  0
  2  3  1  0  0  0
  2 25  1  0  0  0
  2 86  1  0  0  0
  2 87  1  0  0  0
  3  4  1  0  0  0
  3 88  1  0  0  0
  3 89  1  0  0  0
  4  5  1  0  0  0
  4 90  1  0  0  0
  4 91  1  0  0  0
  5  6  1  0  0  0
  5 26  1  0  0  0
  5 92  1  0  0  0
  6 25  1  0  0  0
  6 93  1  0  0  0
  6 94  1  0  0  0
  7  8  2  0  0  0
  7 26  1  0  0  0
  7 29  1  0  0  0
  8  9  1  0  0  0
  8 22  1  0  0  0
  9 10  1  0  0  0
  9 27  2  0  0  0
 10 11  2  0  0  0
 10 15  1  0  0  0
 11 12  1  0  0  0
 11 95  1  0  0  0
 12 13  2  0  0  0
 12 96  1  0  0  0
 13 14  1  0  0  0
 13 31  1  0  0  0
 14 15  2  0  0  0
 14 97  1  0  0  0
 15 98  1  0  0  0
 16 17  2  0  0  0
 16 21  1  0  0  0
 16 31  1  0  0  0
 17 18  1  0  0  0
 17 99  1  0  0  0
 18 19  2  0  0  0
 18100  1  0  0  0
 19 20  1  0  0  0
 19 24  1  0  0  0
 20 21  2  0  0  0
 20101  1  0  0  0
 21 23  1  0  0  0
 22 28  1  0  0  0
 22 32  2  0  0  0
 26 27  1  0  0  0
 28102  1  0  0  0
 28103  1  0  0  0
 29104  1  0  0  0
 29105  1  0  0  0
 33 34  1  0  0  0
 33 66  1  0  0  0
 33 70  2  0  0  0
 34 36  1  0  0  0
 34 59  1  0  0  0
 34106  1  0  0  0
 35 44  2  0  0  0
 35 45  1  0  0  0
 35 68  1  0  0  0
 36 56  1  0  0  0
 36107  1  0  0  0
 37 39  1  0  0  0
 37 47  1  0  0  0
 37 66  1  0  0  0
 37108  1  0  0  0
 38 43  2  0  0  0
 38 46  1  0  0  0
 38 47  1  0  0  0
 39 64  1  0  0  0
 39 67  2  0  0  0
 40 52  1  0  0  0
 40 53  2  0  0  0
 40 58  1  0  0  0
 41109  1  0  0  0
 41110  1  0  0  0
 41111  1  0  0  0
 41 48  1  0  0  0
 42 43  1  0  0  0
 42 66  1  0  0  0
 42112  1  0  0  0
 42113  1  0  0  0
 43 44  1  0  0  0
 44114  1  0  0  0
 45 46  2  0  0  0
 45115  1  0  0  0
 46116  1  0  0  0
 47117  1  0  0  0
 47118  1  0  0  0
 48 56  1  0  0  0
 48 65  1  0  0  0
 48119  1  0  0  0
 49 50  1  0  0  0
 49 53  1  0  0  0
 49 64  1  0  0  0
 49120  1  0  0  0
 50 51  1  0  0  0
 50121  1  0  0  0
 50122  1  0  0  0
 51 52  1  0  0  0
 51123  1  0  0  0
 51124  1  0  0  0
 52125  1  0  0  0
 52126  1  0  0  0
 53 54  1  0  0  0
 54 55  2  0  0  0
 54127  1  0  0  0
 55 57  1  0  0  0
 55128  1  0  0  0
 56 69  2  0  0  0
 57 58  2  0  0  0
 57129  1  0  0  0
 58130  1  0  0  0
 59 60  1  0  0  0
 59 61  1  0  0  0
 59 62  1  0  0  0
 60131  1  0  0  0
 60132  1  0  0  0
 60133  1  0  0  0
 61134  1  0  0  0
 61135  1  0  0  0
 61136  1  0  0  0
 62137  1  0  0  0
 62138  1  0  0  0
 62139  1  0  0  0
 63 65  1  0  0  0
 63140  1  0  0  0
 63141  1  0  0  0
 63142  1  0  0  0
 64143  1  0  0  0
 65144  1  0  0  0
 68 81  1  0  0  0
 71 72  2  0  0  0
 71 73  1  0  0  0
 71145  1  0  0  0
 72 83  1  0  0  0
 72 80  1  0  0  0
 73 82  2  0  0  0
 73 84  1  0  0  0
 74 75  1  0  0  0
 74 80  1  0  0  0
 74146  1  0  0  0
 74147  1  0  0  0
 75 80  1  0  0  0
 75148  1  0  0  0
 75149  1  0  0  0
 76 78  1  0  0  0
 76 84  1  0  0  0
 76150  1  0  0  0
 76151  1  0  0  0
 77 79  1  0  0  0
 77 84  1  0  0  0
 77152  1  0  0  0
 77153  1  0  0  0
 78 85  1  0  0  0
 78154  1  0  0  0
 78155  1  0  0  0
 79 85  1  0  0  0
 79156  1  0  0  0
 79157  1  0  0  0
 80158  1  0  0  0
 81 83  1  0  0  0
 81159  1  0  0  0
 81160  1  0  0  0
 82 83  1  0  0  0
M  ISO  4   1 100  68 101  81 101  85 100
M  END
> <chiral flag>
0

> <version>
0

> <s_m_source_file>
/data/baiqing/PycharmProjects/Reinvent-master-3.2/result/LINK_invent/BTK/process_docking_weight1_custom_sum_contain_oxygen_bond_distance_aromatic_linkinvent_7_9_3/rearranged_h_0196.sdf

> <i_m_source_file_index>
79

> <r_mmod_Potential_Energy-OPLS-2005>
649.467102050781

> <r_mmod_Stretch_Energy-OPLS-2005>
249.373565673828

> <r_mmod_Bend_Energy-OPLS-2005>
327.201965332031

> <r_mmod_Torsional_Energy-OPLS-2005>
348.620391845703

> <r_mmod_Improper_Torsional_Energy-OPLS-2005>
9.12117481231689

> <r_mmod_Van_der_Waal_Energy-OPLS-2005>
128.571655273438

> <r_mmod_Electrostatic_Energy-OPLS-2005>
-397.936706542969

> <r_mmod_Solvation_Energy-OPLS-2005>
-238.210418701172

> <b_mmod_Minimization_Converged-OPLS-2005>
0

> <r_mmod_RMS_Derivative-OPLS-2005>
0.853200376033783

$$$$
80
                    3D
 Structure written by MMmdl.
163172  0  0  1  0            999 V2000
  -30.6082  -14.7572   20.3681 C   0  0  0  0  0  0
  -30.4358  -12.4298   19.4804 C   0  0  0  0  0  0
  -29.5183  -12.3873   18.2383 C   0  0  0  0  0  0
  -28.0296  -12.2885   18.6458 C   0  0  0  0  0  0
  -27.6290  -13.2075   19.8343 C   0  0  2  0  0  0
  -28.6833  -13.2016   20.9594 C   0  0  0  0  0  0
  -25.2525  -13.8120   20.5725 C   0  0  0  0  0  0
  -24.1789  -13.0411   20.9229 C   0  0  0  0  0  0
  -24.6356  -11.6876   20.8792 C   0  0  0  0  0  0
  -23.9040  -10.4271   21.0444 C   0  0  0  0  0  0
  -24.3601   -9.4191   21.9214 C   0  0  0  0  0  0
  -23.6281   -8.2224   22.0767 C   0  0  0  0  0  0
  -22.4266   -8.0271   21.3550 C   0  0  0  0  0  0
  -21.9903   -9.0247   20.4650 C   0  0  0  0  0  0
  -22.7229  -10.2123   20.3070 C   0  0  0  0  0  0
  -21.6845   -6.0743   22.5290 C   0  0  0  0  0  0
  -21.4016   -6.5649   23.8226 C   0  0  0  0  0  0
  -21.3648   -5.6795   24.9185 C   0  0  0  0  0  0
  -21.6035   -4.3058   24.7231 C   0  0  0  0  0  0
  -21.8820   -3.8156   23.4350 C   0  0  0  0  0  0
  -21.9191   -4.6975   22.3409 C   0  0  0  0  0  0
  -22.7823  -13.5231   21.1876 C   0  0  0  0  0  0
  -22.1658   -4.2165   21.0985 F   0  0  0  0  0  0
  -21.5617   -3.4536   25.7739 F   0  0  0  0  0  0
  -29.9738  -13.5342   20.3472 N   0  0  0  0  0  0
  -26.2892  -12.9253   20.3284 N   0  0  0  0  0  0
  -25.9271  -11.6439   20.5808 N   0  0  0  0  0  0
  -22.0454  -12.8221   22.0416 N   0  0  0  0  0  0
  -25.4287  -15.1841   20.4165 N   0  0  0  0  0  0
  -31.8380  -14.8020   20.2710 O   0  0  0  0  0  0
  -21.6623   -6.8876   21.4245 O   0  0  0  0  0  0
  -22.3538  -14.5549   20.6725 O   0  0  0  0  0  0
  -24.6264  -31.8579   23.1991 C   0  0  0  0  0  0
  -25.9102  -32.4772   23.8335 C   0  0  1  0  0  0
  -27.2242  -27.3069   20.1340 C   0  0  0  0  0  0
  -25.5910  -33.8572   24.2269 N   0  0  0  0  0  0
  -23.4215  -30.4788   21.5409 C   0  0  2  0  0  0
  -24.8695  -28.9270   20.1130 C   0  0  0  0  0  0
  -22.7478  -29.4613   22.4915 C   0  0  0  0  0  0
  -18.0284  -28.1393   22.8489 C   0  0  0  0  0  0
  -24.1484  -36.7284   23.2647 C   0  0  0  0  0  0
  -25.9614  -30.7882   21.3685 C   0  0  0  0  0  0
  -26.0379  -29.4127   20.7141 C   0  0  0  0  0  0
  -27.2218  -28.6165   20.7075 C   0  0  0  0  0  0
  -26.0369  -26.8689   19.5137 C   0  0  0  0  0  0
  -24.8715  -27.6618   19.5015 C   0  0  0  0  0  0
  -23.6376  -29.8083   20.1580 C   0  0  0  0  0  0
  -25.4108  -36.3078   24.0340 C   0  0  1  0  0  0
  -20.5887  -28.3691   23.1281 C   0  0  2  0  0  0
  -20.6772  -26.9409   22.5414 C   0  0  0  0  0  0
  -19.5745  -26.6376   21.5223 C   0  0  0  0  0  0
  -18.1921  -26.7935   22.1630 C   0  0  0  0  0  0
  -19.1541  -28.8855   23.2883 C   0  0  0  0  0  0
  -18.9468  -30.1458   23.8900 C   0  0  0  0  0  0
  -17.6472  -30.6595   24.0563 C   0  0  0  0  0  0
  -25.9048  -34.9448   23.5108 C   0  0  0  0  0  0
  -16.5358  -29.9096   23.6339 C   0  0  0  0  0  0
  -16.7275  -28.6515   23.0358 C   0  0  0  0  0  0
  -26.4485  -31.6590   25.0712 C   0  0  0  0  0  0
  -25.3718  -31.3728   26.1439 C   0  0  0  0  0  0
  -27.0343  -30.3024   24.6162 C   0  0  0  0  0  0
  -27.6043  -32.4328   25.7478 C   0  0  0  0  0  0
  -27.5573  -37.1789   24.8469 C   0  0  0  0  0  0
  -21.4184  -29.3042   22.3670 N   0  0  0  0  0  0
  -26.4285  -37.3772   23.9419 N   0  0  0  0  0  0
  -24.6889  -31.0587   22.0939 N   0  0  0  0  0  0
  -23.4196  -28.8156   23.3006 O   0  0  0  0  0  0
  -28.3375  -26.4551   20.1520 O   0  0  0  0  0  0
  -26.5619  -34.8917   22.4675 O   0  0  0  0  0  0
  -23.5420  -32.1373   23.7317 O   0  0  0  0  0  0
  -30.0880  -17.0330   18.0206 C   0  0  0  0  0  0
  -29.2586  -23.2063   21.8720 C   0  0  0  0  0  0
  -29.2554  -24.7467   21.7167 C   0  0  0  0  0  0
  -31.0032  -17.6892   19.0428 C   0  0  0  0  0  0
  -28.2466  -23.7827   19.7572 C   0  0  0  0  0  0
  -29.2434  -16.0423   18.8346 C   0  0  0  0  0  0
  -29.1065  -22.6301   20.4538 C   0  0  2  0  0  0
  -28.1723  -25.0732   20.6788 C   0  0  2  0  0  0
  -30.3135  -17.3714   20.3746 C   0  0  1  0  0  0
  -28.6269  -21.0875   20.3796 C   0  0  0  0  0  0
  -29.1903  -18.5162   20.6383 C   0  0  0  0  0  0
  -29.8462  -15.9223   20.1771 N   0  0  0  0  0  0
  -29.6431  -19.9816   20.6792 N   0  3  0  0  0  0
  -31.4775  -12.5518   19.1774 H   0  0  0  0  0  0
  -30.3887  -11.4836   20.0218 H   0  0  0  0  0  0
  -29.7777  -11.5195   17.6305 H   0  0  0  0  0  0
  -29.7001  -13.2379   17.5863 H   0  0  0  0  0  0
  -27.8526  -11.2486   18.9210 H   0  0  0  0  0  0
  -27.3889  -12.4797   17.7843 H   0  0  0  0  0  0
  -27.5740  -14.2086   19.4285 H   0  0  0  0  0  0
  -28.7276  -12.2280   21.4499 H   0  0  0  0  0  0
  -28.4248  -13.9304   21.7296 H   0  0  0  0  0  0
  -25.2746   -9.5661   22.4799 H   0  0  0  0  0  0
  -23.9989   -7.4610   22.7482 H   0  0  0  0  0  0
  -21.0843   -8.8775   19.8947 H   0  0  0  0  0  0
  -22.3716  -10.9672   19.6176 H   0  0  0  0  0  0
  -21.2019   -7.6160   23.9739 H   0  0  0  0  0  0
  -21.1458   -6.0524   25.9086 H   0  0  0  0  0  0
  -22.0605   -2.7622   23.2850 H   0  0  0  0  0  0
  -22.4045  -11.9858   22.4772 H   0  0  0  0  0  0
  -21.1085  -13.1278   22.2641 H   0  0  0  0  0  0
  -24.6710  -15.8470   20.5379 H   0  0  0  0  0  0
  -26.2941  -15.6180   20.1237 H   0  0  0  0  0  0
  -26.7166  -32.5440   23.1081 H   0  0  0  0  0  0
  -25.0054  -33.9716   25.0409 H   0  0  0  0  0  0
  -22.7164  -31.2990   21.3926 H   0  0  0  0  0  0
  -23.3755  -35.9608   23.3309 H   0  0  0  0  0  0
  -24.3572  -36.8905   22.2061 H   0  0  0  0  0  0
  -23.7228  -37.6484   23.6664 H   0  0  0  0  0  0
  -26.0895  -31.5499   20.5976 H   0  0  0  0  0  0
  -26.8429  -30.8410   21.9961 H   0  0  0  0  0  0
  -28.1215  -28.9869   21.1788 H   0  0  0  0  0  0
  -26.0065  -25.8944   19.0475 H   0  0  0  0  0  0
  -23.9749  -27.2834   19.0306 H   0  0  0  0  0  0
  -23.7566  -30.5816   19.3979 H   0  0  0  0  0  0
  -22.7586  -29.2358   19.8562 H   0  0  0  0  0  0
  -25.1286  -36.1927   25.0834 H   0  0  0  0  0  0
  -20.9981  -28.3263   24.1404 H   0  0  0  0  0  0
  -20.5677  -26.2301   23.3618 H   0  0  0  0  0  0
  -21.6636  -26.7433   22.1200 H   0  0  0  0  0  0
  -19.6905  -25.6284   21.1256 H   0  0  0  0  0  0
  -19.6692  -27.3186   20.6754 H   0  0  0  0  0  0
  -17.4195  -26.6696   21.4027 H   0  0  0  0  0  0
  -18.0311  -26.0077   22.9025 H   0  0  0  0  0  0
  -19.7946  -30.7269   24.2266 H   0  0  0  0  0  0
  -17.5031  -31.6279   24.5158 H   0  0  0  0  0  0
  -15.5363  -30.3003   23.7665 H   0  0  0  0  0  0
  -15.8673  -28.0835   22.7080 H   0  0  0  0  0  0
  -24.5896  -30.7079   25.7760 H   0  0  0  0  0  0
  -24.8910  -32.2900   26.4850 H   0  0  0  0  0  0
  -25.8037  -30.8909   27.0219 H   0  0  0  0  0  0
  -26.2920  -29.6757   24.1209 H   0  0  0  0  0  0
  -27.4087  -29.7291   25.4651 H   0  0  0  0  0  0
  -27.8757  -30.4334   23.9357 H   0  0  0  0  0  0
  -27.2659  -33.3636   26.2034 H   0  0  0  0  0  0
  -28.3855  -32.6872   25.0308 H   0  0  0  0  0  0
  -28.0707  -31.8474   26.5409 H   0  0  0  0  0  0
  -28.2585  -38.0088   24.7512 H   0  0  0  0  0  0
  -28.1072  -36.2617   24.6296 H   0  0  0  0  0  0
  -27.2293  -37.1441   25.8873 H   0  0  0  0  0  0
  -20.9361  -29.8775   21.6888 H   0  0  0  0  0  0
  -26.0171  -38.2848   24.1424 H   0  0  0  0  0  0
  -30.6702  -16.5273   17.2484 H   0  0  0  0  0  0
  -29.4487  -17.7646   17.5245 H   0  0  0  0  0  0
  -28.4075  -22.9080   22.4862 H   0  0  0  0  0  0
  -30.1609  -22.8488   22.3698 H   0  0  0  0  0  0
  -30.2263  -25.0766   21.3444 H   0  0  0  0  0  0
  -29.0827  -25.2594   22.6635 H   0  0  0  0  0  0
  -31.1502  -18.7512   18.8482 H   0  0  0  0  0  0
  -31.9898  -17.2237   19.0126 H   0  0  0  0  0  0
  -27.2351  -23.4329   19.5462 H   0  0  0  0  0  0
  -28.6872  -24.0375   18.7926 H   0  0  0  0  0  0
  -29.1756  -15.1160   18.2787 H   0  0  0  0  0  0
  -28.2177  -16.4002   18.9325 H   0  0  0  0  0  0
  -30.0891  -22.6769   19.9816 H   0  0  0  0  0  0
  -27.2199  -25.0255   21.2111 H   0  0  0  0  0  0
  -31.0424  -17.4028   21.1865 H   0  0  0  0  0  0
  -28.2573  -20.9043   19.3698 H   0  0  0  0  0  0
  -27.7642  -20.9518   21.0331 H   0  0  0  0  0  0
  -28.6689  -18.2990   21.5715 H   0  0  0  0  0  0
  -28.4236  -18.4563   19.8661 H   0  0  0  0  0  0
  -30.0418  -20.1507   21.5885 H   0  0  0  0  0  0
  -30.3873  -20.0849   20.0093 H   0  0  0  0  0  0
  1 25  1  0  0  0
  1 30  2  0  0  0
  1 82  1  0  0  0
  2  3  1  0  0  0
  2 25  1  0  0  0
  2 84  1  0  0  0
  2 85  1  0  0  0
  3  4  1  0  0  0
  3 86  1  0  0  0
  3 87  1  0  0  0
  4  5  1  0  0  0
  4 88  1  0  0  0
  4 89  1  0  0  0
  5  6  1  0  0  0
  5 26  1  0  0  0
  5 90  1  0  0  0
  6 25  1  0  0  0
  6 91  1  0  0  0
  6 92  1  0  0  0
  7  8  2  0  0  0
  7 26  1  0  0  0
  7 29  1  0  0  0
  8  9  1  0  0  0
  8 22  1  0  0  0
  9 10  1  0  0  0
  9 27  2  0  0  0
 10 11  2  0  0  0
 10 15  1  0  0  0
 11 12  1  0  0  0
 11 93  1  0  0  0
 12 13  2  0  0  0
 12 94  1  0  0  0
 13 14  1  0  0  0
 13 31  1  0  0  0
 14 15  2  0  0  0
 14 95  1  0  0  0
 15 96  1  0  0  0
 16 17  2  0  0  0
 16 21  1  0  0  0
 16 31  1  0  0  0
 17 18  1  0  0  0
 17 97  1  0  0  0
 18 19  2  0  0  0
 18 98  1  0  0  0
 19 20  1  0  0  0
 19 24  1  0  0  0
 20 21  2  0  0  0
 20 99  1  0  0  0
 21 23  1  0  0  0
 22 28  1  0  0  0
 22 32  2  0  0  0
 26 27  1  0  0  0
 28100  1  0  0  0
 28101  1  0  0  0
 29102  1  0  0  0
 29103  1  0  0  0
 33 34  1  0  0  0
 33 66  1  0  0  0
 33 70  2  0  0  0
 34 36  1  0  0  0
 34 59  1  0  0  0
 34104  1  0  0  0
 35 44  2  0  0  0
 35 45  1  0  0  0
 35 68  1  0  0  0
 36 56  1  0  0  0
 36105  1  0  0  0
 37 39  1  0  0  0
 37 47  1  0  0  0
 37 66  1  0  0  0
 37106  1  0  0  0
 38 43  2  0  0  0
 38 46  1  0  0  0
 38 47  1  0  0  0
 39 64  1  0  0  0
 39 67  2  0  0  0
 40 52  1  0  0  0
 40 53  2  0  0  0
 40 58  1  0  0  0
 41107  1  0  0  0
 41108  1  0  0  0
 41109  1  0  0  0
 41 48  1  0  0  0
 42 43  1  0  0  0
 42 66  1  0  0  0
 42110  1  0  0  0
 42111  1  0  0  0
 43 44  1  0  0  0
 44112  1  0  0  0
 45 46  2  0  0  0
 45113  1  0  0  0
 46114  1  0  0  0
 47115  1  0  0  0
 47116  1  0  0  0
 48 56  1  0  0  0
 48 65  1  0  0  0
 48117  1  0  0  0
 49 50  1  0  0  0
 49 53  1  0  0  0
 49 64  1  0  0  0
 49118  1  0  0  0
 50 51  1  0  0  0
 50119  1  0  0  0
 50120  1  0  0  0
 51 52  1  0  0  0
 51121  1  0  0  0
 51122  1  0  0  0
 52123  1  0  0  0
 52124  1  0  0  0
 53 54  1  0  0  0
 54 55  2  0  0  0
 54125  1  0  0  0
 55 57  1  0  0  0
 55126  1  0  0  0
 56 69  2  0  0  0
 57 58  2  0  0  0
 57127  1  0  0  0
 58128  1  0  0  0
 59 60  1  0  0  0
 59 61  1  0  0  0
 59 62  1  0  0  0
 60129  1  0  0  0
 60130  1  0  0  0
 60131  1  0  0  0
 61132  1  0  0  0
 61133  1  0  0  0
 61134  1  0  0  0
 62135  1  0  0  0
 62136  1  0  0  0
 62137  1  0  0  0
 63 65  1  0  0  0
 63138  1  0  0  0
 63139  1  0  0  0
 63140  1  0  0  0
 64141  1  0  0  0
 65142  1  0  0  0
 68 78  1  0  0  0
 71 74  1  0  0  0
 71 76  1  0  0  0
 71143  1  0  0  0
 71144  1  0  0  0
 72 73  1  0  0  0
 72 77  1  0  0  0
 72145  1  0  0  0
 72146  1  0  0  0
 73 78  1  0  0  0
 73147  1  0  0  0
 73148  1  0  0  0
 74 79  1  0  0  0
 74149  1  0  0  0
 74150  1  0  0  0
 75 77  1  0  0  0
 75 78  1  0  0  0
 75151  1  0  0  0
 75152  1  0  0  0
 76 82  1  0  0  0
 76153  1  0  0  0
 76154  1  0  0  0
 77 80  1  0  0  0
 77155  1  0  0  0
 78156  1  0  0  0
 79 81  1  0  0  0
 79 82  1  0  0  0
 79157  1  0  0  0
 80 83  1  0  0  0
 80158  1  0  0  0
 80159  1  0  0  0
 81 83  1  0  0  0
 81160  1  0  0  0
 81161  1  0  0  0
 83162  1  0  0  0
 83163  1  0  0  0
M  CHG  1  83   1
M  ISO  4   1 100  68 101  78 101  82 100
M  END
> <chiral flag>
0

> <version>
0

> <s_m_source_file>
/data/baiqing/PycharmProjects/Reinvent-master-3.2/result/LINK_invent/BTK/process_docking_weight1_custom_sum_contain_oxygen_bond_distance_aromatic_linkinvent_7_9_3/rearranged_h_0196.sdf

> <i_m_source_file_index>
80

> <r_mmod_Potential_Energy-OPLS-2005>
339.254547119141

> <r_mmod_Stretch_Energy-OPLS-2005>
108.913154602051

> <r_mmod_Bend_Energy-OPLS-2005>
216.78450012207

> <r_mmod_Torsional_Energy-OPLS-2005>
436.924499511719

> <r_mmod_Improper_Torsional_Energy-OPLS-2005>
13.1527643203735

> <r_mmod_Van_der_Waal_Energy-OPLS-2005>
119.780242919922

> <r_mmod_Electrostatic_Energy-OPLS-2005>
-185.007064819336

> <r_mmod_Solvation_Energy-OPLS-2005>
-458.928436279297

> <b_mmod_Minimization_Converged-OPLS-2005>
0

> <r_mmod_RMS_Derivative-OPLS-2005>
1.21224761009216

$$$$
81
                    3D
 Structure written by MMmdl.
153162  0  0  1  0            999 V2000
  -30.6835  -14.8302   20.4438 C   0  0  0  0  0  0
  -30.4055  -12.5247   19.4852 C   0  0  0  0  0  0
  -29.4971  -12.4983   18.2410 C   0  0  0  0  0  0
  -28.0344  -12.2943   18.6679 C   0  0  0  0  0  0
  -27.6212  -13.2367   19.8272 C   0  0  2  0  0  0
  -28.6695  -13.2904   20.9633 C   0  0  0  0  0  0
  -25.2427  -13.8189   20.5705 C   0  0  0  0  0  0
  -24.1751  -13.0423   20.9248 C   0  0  0  0  0  0
  -24.6365  -11.6910   20.8784 C   0  0  0  0  0  0
  -23.9057  -10.4284   21.0427 C   0  0  0  0  0  0
  -24.3614   -9.4197   21.9196 C   0  0  0  0  0  0
  -23.6291   -8.2231   22.0757 C   0  0  0  0  0  0
  -22.4273   -8.0273   21.3545 C   0  0  0  0  0  0
  -21.9909   -9.0247   20.4648 C   0  0  0  0  0  0
  -22.7236  -10.2128   20.3066 C   0  0  0  0  0  0
  -21.6851   -6.0731   22.5278 C   0  0  0  0  0  0
  -21.4012   -6.5637   23.8211 C   0  0  0  0  0  0
  -21.3659   -5.6791   24.9174 C   0  0  0  0  0  0
  -21.6044   -4.3054   24.7226 C   0  0  0  0  0  0
  -21.8819   -3.8144   23.4347 C   0  0  0  0  0  0
  -21.9192   -4.6960   22.3403 C   0  0  0  0  0  0
  -22.7776  -13.5202   21.1894 C   0  0  0  0  0  0
  -22.1661   -4.2146   21.0981 F   0  0  0  0  0  0
  -21.5629   -3.4538   25.7739 F   0  0  0  0  0  0
  -29.9503  -13.6540   20.3476 N   0  0  0  0  0  0
  -26.2840  -12.9408   20.3236 N   0  0  0  0  0  0
  -25.9290  -11.6551   20.5774 N   0  0  0  0  0  0
  -22.0426  -12.8193   22.0451 N   0  0  0  0  0  0
  -25.4053  -15.1910   20.4077 N   0  0  0  0  0  0
  -31.8893  -14.7323   20.1962 O   0  0  0  0  0  0
  -21.6637   -6.8872   21.4239 O   0  0  0  0  0  0
  -22.3463  -14.5505   20.6732 O   0  0  0  0  0  0
  -24.6363  -31.8510   23.1949 C   0  0  0  0  0  0
  -25.9169  -32.4729   23.8308 C   0  0  1  0  0  0
  -27.2139  -27.2109   20.1238 C   0  0  0  0  0  0
  -25.5946  -33.8534   24.2228 N   0  0  0  0  0  0
  -23.4346  -30.4744   21.5394 C   0  0  2  0  0  0
  -24.8800  -28.9173   20.1060 C   0  0  0  0  0  0
  -22.7528  -29.4584   22.4886 C   0  0  0  0  0  0
  -18.0297  -28.1390   22.8481 C   0  0  0  0  0  0
  -24.1491  -36.7271   23.2641 C   0  0  0  0  0  0
  -25.9856  -30.7476   21.3825 C   0  0  0  0  0  0
  -26.0545  -29.3674   20.7202 C   0  0  0  0  0  0
  -27.2195  -28.5261   20.7199 C   0  0  0  0  0  0
  -26.0053  -26.8383   19.4908 C   0  0  0  0  0  0
  -24.8638  -27.6630   19.4814 C   0  0  0  0  0  0
  -23.6544  -29.8107   20.1550 C   0  0  0  0  0  0
  -25.4121  -36.3053   24.0321 C   0  0  1  0  0  0
  -20.5905  -28.3708   23.1254 C   0  0  2  0  0  0
  -20.6784  -26.9419   22.5405 C   0  0  0  0  0  0
  -19.5757  -26.6382   21.5211 C   0  0  0  0  0  0
  -18.1939  -26.7931   22.1625 C   0  0  0  0  0  0
  -19.1553  -28.8866   23.2862 C   0  0  0  0  0  0
  -18.9471  -30.1465   23.8884 C   0  0  0  0  0  0
  -17.6469  -30.6589   24.0561 C   0  0  0  0  0  0
  -25.9066  -34.9426   23.5079 C   0  0  0  0  0  0
  -16.5360  -29.9084   23.6333 C   0  0  0  0  0  0
  -16.7283  -28.6503   23.0354 C   0  0  0  0  0  0
  -26.4515  -31.6574   25.0722 C   0  0  0  0  0  0
  -25.3719  -31.3742   26.1429 C   0  0  0  0  0  0
  -27.0374  -30.2981   24.6255 C   0  0  0  0  0  0
  -27.6055  -32.4330   25.7503 C   0  0  0  0  0  0
  -27.5577  -37.1793   24.8466 C   0  0  0  0  0  0
  -21.4229  -29.3046   22.3634 N   0  0  0  0  0  0
  -26.4290  -37.3758   23.9407 N   0  0  0  0  0  0
  -24.7050  -31.0435   22.0946 N   0  0  0  0  0  0
  -23.4208  -28.8124   23.3001 O   0  0  0  0  0  0
  -28.2962  -26.2870   20.2288 O   0  0  0  0  0  0
  -26.5644  -34.8911   22.4653 O   0  0  0  0  0  0
  -23.5502  -32.1355   23.7217 O   0  0  0  0  0  0
  -29.8492  -22.9658   20.5277 C   0  0  0  0  0  0
  -28.6040  -23.4833   20.0613 C   0  0  0  0  0  0
  -29.1153  -20.7297   20.4081 C   0  0  0  0  0  0
  -30.6696  -18.7209   20.9667 C   0  0  0  0  0  0
  -28.4399  -18.1795   20.2173 C   0  0  0  0  0  0
  -31.0678  -17.3258   20.3229 C   0  0  0  0  0  0
  -28.7856  -16.7039   20.7872 C   0  0  0  0  0  0
  -28.3805  -24.9758   19.4613 C   0  0  0  0  0  0
  -30.0907  -21.6137   20.7029 N   0  0  0  0  0  0
  -27.6592  -22.5132   19.8113 N   0  0  0  0  0  0
  -27.9028  -21.1724   19.9869 N   0  0  0  0  0  0
  -29.3856  -19.2924   20.5172 N   0  0  0  0  0  0
  -30.1527  -16.1485   20.5277 N   0  0  0  0  0  0
  -31.4458  -12.6137   19.1692 H   0  0  0  0  0  0
  -30.3477  -11.5794   20.0273 H   0  0  0  0  0  0
  -29.8038  -11.7009   17.5627 H   0  0  0  0  0  0
  -29.5973  -13.4324   17.6859 H   0  0  0  0  0  0
  -27.9275  -11.2552   18.9813 H   0  0  0  0  0  0
  -27.3672  -12.4244   17.8149 H   0  0  0  0  0  0
  -27.5729  -14.2188   19.3628 H   0  0  0  0  0  0
  -28.7418  -12.3306   21.4769 H   0  0  0  0  0  0
  -28.3856  -14.0236   21.7192 H   0  0  0  0  0  0
  -25.2756   -9.5675   22.4775 H   0  0  0  0  0  0
  -23.9999   -7.4620   22.7473 H   0  0  0  0  0  0
  -21.0843   -8.8767   19.8951 H   0  0  0  0  0  0
  -22.3695  -10.9670   19.6179 H   0  0  0  0  0  0
  -21.2005   -7.6145   23.9713 H   0  0  0  0  0  0
  -21.1482   -6.0522   25.9077 H   0  0  0  0  0  0
  -22.0599   -2.7607   23.2849 H   0  0  0  0  0  0
  -22.4050  -11.9861   22.4844 H   0  0  0  0  0  0
  -21.1041  -13.1212   22.2655 H   0  0  0  0  0  0
  -24.6310  -15.8373   20.5141 H   0  0  0  0  0  0
  -26.2404  -15.6295   20.0455 H   0  0  0  0  0  0
  -26.7232  -32.5356   23.1040 H   0  0  0  0  0  0
  -25.0078  -33.9661   25.0364 H   0  0  0  0  0  0
  -22.7334  -31.2986   21.3927 H   0  0  0  0  0  0
  -23.3756  -35.9601   23.3298 H   0  0  0  0  0  0
  -24.3577  -36.8905   22.2056 H   0  0  0  0  0  0
  -23.7244  -37.6467   23.6676 H   0  0  0  0  0  0
  -26.1343  -31.5079   20.6145 H   0  0  0  0  0  0
  -26.8593  -30.7927   22.0211 H   0  0  0  0  0  0
  -28.1149  -28.8639   21.2228 H   0  0  0  0  0  0
  -25.8736  -25.8708   19.0362 H   0  0  0  0  0  0
  -23.9598  -27.3073   19.0061 H   0  0  0  0  0  0
  -23.7842  -30.5884   19.4015 H   0  0  0  0  0  0
  -22.7703  -29.2497   19.8466 H   0  0  0  0  0  0
  -25.1306  -36.1891   25.0813 H   0  0  0  0  0  0
  -20.9999  -28.3292   24.1374 H   0  0  0  0  0  0
  -20.5681  -26.2320   23.3616 H   0  0  0  0  0  0
  -21.6651  -26.7435   22.1200 H   0  0  0  0  0  0
  -19.6919  -25.6290   21.1250 H   0  0  0  0  0  0
  -19.6693  -27.3186   20.6735 H   0  0  0  0  0  0
  -17.4207  -26.6674   21.4029 H   0  0  0  0  0  0
  -18.0341  -26.0076   22.9026 H   0  0  0  0  0  0
  -19.7947  -30.7285   24.2248 H   0  0  0  0  0  0
  -17.5023  -31.6268   24.5165 H   0  0  0  0  0  0
  -15.5360  -30.2982   23.7665 H   0  0  0  0  0  0
  -15.8683  -28.0816   22.7077 H   0  0  0  0  0  0
  -24.5902  -30.7084   25.7754 H   0  0  0  0  0  0
  -24.8902  -32.2917   26.4820 H   0  0  0  0  0  0
  -25.8019  -30.8941   27.0229 H   0  0  0  0  0  0
  -26.2976  -29.6714   24.1261 H   0  0  0  0  0  0
  -27.4012  -29.7265   25.4803 H   0  0  0  0  0  0
  -27.8872  -30.4237   23.9543 H   0  0  0  0  0  0
  -27.2651  -33.3641   26.2048 H   0  0  0  0  0  0
  -28.3883  -32.6874   25.0345 H   0  0  0  0  0  0
  -28.0703  -31.8479   26.5448 H   0  0  0  0  0  0
  -28.2592  -38.0092   24.7509 H   0  0  0  0  0  0
  -28.1075  -36.2621   24.6299 H   0  0  0  0  0  0
  -27.2293  -37.1449   25.8868 H   0  0  0  0  0  0
  -20.9422  -29.8769   21.6833 H   0  0  0  0  0  0
  -26.0163  -38.2830   24.1406 H   0  0  0  0  0  0
  -30.6872  -23.6295   20.6827 H   0  0  0  0  0  0
  -31.4686  -19.4326   20.7540 H   0  0  0  0  0  0
  -30.6386  -18.6274   22.0532 H   0  0  0  0  0  0
  -27.4510  -18.4692   20.5764 H   0  0  0  0  0  0
  -28.3494  -18.1221   19.1316 H   0  0  0  0  0  0
  -32.0585  -17.0935   20.7175 H   0  0  0  0  0  0
  -31.2064  -17.4535   19.2482 H   0  0  0  0  0  0
  -28.0449  -16.0196   20.3934 H   0  0  0  0  0  0
  -28.6392  -16.7001   21.8680 H   0  0  0  0  0  0
  -27.6071  -24.8944   18.7041 H   0  0  0  0  0  0
  -29.2696  -25.1245   18.8482 H   0  0  0  0  0  0
  1 25  1  0  0  0
  1 30  2  0  0  0
  1 83  1  0  0  0
  2  3  1  0  0  0
  2 25  1  0  0  0
  2 84  1  0  0  0
  2 85  1  0  0  0
  3  4  1  0  0  0
  3 86  1  0  0  0
  3 87  1  0  0  0
  4  5  1  0  0  0
  4 88  1  0  0  0
  4 89  1  0  0  0
  5  6  1  0  0  0
  5 26  1  0  0  0
  5 90  1  0  0  0
  6 25  1  0  0  0
  6 91  1  0  0  0
  6 92  1  0  0  0
  7  8  2  0  0  0
  7 26  1  0  0  0
  7 29  1  0  0  0
  8  9  1  0  0  0
  8 22  1  0  0  0
  9 10  1  0  0  0
  9 27  2  0  0  0
 10 11  2  0  0  0
 10 15  1  0  0  0
 11 12  1  0  0  0
 11 93  1  0  0  0
 12 13  2  0  0  0
 12 94  1  0  0  0
 13 14  1  0  0  0
 13 31  1  0  0  0
 14 15  2  0  0  0
 14 95  1  0  0  0
 15 96  1  0  0  0
 16 17  2  0  0  0
 16 21  1  0  0  0
 16 31  1  0  0  0
 17 18  1  0  0  0
 17 97  1  0  0  0
 18 19  2  0  0  0
 18 98  1  0  0  0
 19 20  1  0  0  0
 19 24  1  0  0  0
 20 21  2  0  0  0
 20 99  1  0  0  0
 21 23  1  0  0  0
 22 28  1  0  0  0
 22 32  2  0  0  0
 26 27  1  0  0  0
 28100  1  0  0  0
 28101  1  0  0  0
 29102  1  0  0  0
 29103  1  0  0  0
 33 34  1  0  0  0
 33 66  1  0  0  0
 33 70  2  0  0  0
 34 36  1  0  0  0
 34 59  1  0  0  0
 34104  1  0  0  0
 35 44  2  0  0  0
 35 45  1  0  0  0
 35 68  1  0  0  0
 36 56  1  0  0  0
 36105  1  0  0  0
 37 39  1  0  0  0
 37 47  1  0  0  0
 37 66  1  0  0  0
 37106  1  0  0  0
 38 43  2  0  0  0
 38 46  1  0  0  0
 38 47  1  0  0  0
 39 64  1  0  0  0
 39 67  2  0  0  0
 40 52  1  0  0  0
 40 53  2  0  0  0
 40 58  1  0  0  0
 41107  1  0  0  0
 41108  1  0  0  0
 41109  1  0  0  0
 41 48  1  0  0  0
 42 43  1  0  0  0
 42 66  1  0  0  0
 42110  1  0  0  0
 42111  1  0  0  0
 43 44  1  0  0  0
 44112  1  0  0  0
 45 46  2  0  0  0
 45113  1  0  0  0
 46114  1  0  0  0
 47115  1  0  0  0
 47116  1  0  0  0
 48 56  1  0  0  0
 48 65  1  0  0  0
 48117  1  0  0  0
 49 50  1  0  0  0
 49 53  1  0  0  0
 49 64  1  0  0  0
 49118  1  0  0  0
 50 51  1  0  0  0
 50119  1  0  0  0
 50120  1  0  0  0
 51 52  1  0  0  0
 51121  1  0  0  0
 51122  1  0  0  0
 52123  1  0  0  0
 52124  1  0  0  0
 53 54  1  0  0  0
 54 55  2  0  0  0
 54125  1  0  0  0
 55 57  1  0  0  0
 55126  1  0  0  0
 56 69  2  0  0  0
 57 58  2  0  0  0
 57127  1  0  0  0
 58128  1  0  0  0
 59 60  1  0  0  0
 59 61  1  0  0  0
 59 62  1  0  0  0
 60129  1  0  0  0
 60130  1  0  0  0
 60131  1  0  0  0
 61132  1  0  0  0
 61133  1  0  0  0
 61134  1  0  0  0
 62135  1  0  0  0
 62136  1  0  0  0
 62137  1  0  0  0
 63 65  1  0  0  0
 63138  1  0  0  0
 63139  1  0  0  0
 63140  1  0  0  0
 64141  1  0  0  0
 65142  1  0  0  0
 68 78  1  0  0  0
 71 72  2  0  0  0
 71 79  1  0  0  0
 71143  1  0  0  0
 72 78  1  0  0  0
 72 80  1  0  0  0
 73 79  2  0  0  0
 73 81  1  0  0  0
 73 82  1  0  0  0
 74 76  1  0  0  0
 74 82  1  0  0  0
 74144  1  0  0  0
 74145  1  0  0  0
 75 77  1  0  0  0
 75 82  1  0  0  0
 75146  1  0  0  0
 75147  1  0  0  0
 76 83  1  0  0  0
 76148  1  0  0  0
 76149  1  0  0  0
 77 83  1  0  0  0
 77150  1  0  0  0
 77151  1  0  0  0
 78152  1  0  0  0
 78153  1  0  0  0
 80 81  2  0  0  0
M  ISO  4   1 100  68 101  78 101  83 100
M  END
> <chiral flag>
0

> <version>
0

> <s_m_source_file>
/data/baiqing/PycharmProjects/Reinvent-master-3.2/result/LINK_invent/BTK/process_docking_weight1_custom_sum_contain_oxygen_bond_distance_aromatic_linkinvent_7_9_3/rearranged_h_0196.sdf

> <i_m_source_file_index>
81

> <r_mmod_Potential_Energy-OPLS-2005>
422.327453613281

> <r_mmod_Stretch_Energy-OPLS-2005>
158.865142822266

> <r_mmod_Bend_Energy-OPLS-2005>
257.361358642578

> <r_mmod_Torsional_Energy-OPLS-2005>
322.285736083984

> <r_mmod_Improper_Torsional_Energy-OPLS-2005>
9.17597198486328

> <r_mmod_Van_der_Waal_Energy-OPLS-2005>
165.273971557617

> <r_mmod_Electrostatic_Energy-OPLS-2005>
-376.213562011719

> <r_mmod_Solvation_Energy-OPLS-2005>
-246.215515136719

> <b_mmod_Minimization_Converged-OPLS-2005>
0

> <r_mmod_RMS_Derivative-OPLS-2005>
0.0642717704176903

$$$$
82
                    3D
 Structure written by MMmdl.
164173  0  0  1  0            999 V2000
  -30.6787  -14.6249   20.4848 C   0  0  0  0  0  0
  -30.4173  -12.3813   19.4600 C   0  0  0  0  0  0
  -29.5034  -12.4938   18.2215 C   0  0  0  0  0  0
  -28.0255  -12.3451   18.6333 C   0  0  0  0  0  0
  -27.6457  -13.2296   19.8529 C   0  0  2  0  0  0
  -28.6901  -13.1319   20.9863 C   0  0  0  0  0  0
  -25.2541  -13.8187   20.5729 C   0  0  0  0  0  0
  -24.1810  -13.0434   20.9191 C   0  0  0  0  0  0
  -24.6399  -11.6914   20.8721 C   0  0  0  0  0  0
  -23.9073  -10.4285   21.0396 C   0  0  0  0  0  0
  -24.3612   -9.4193   21.9165 C   0  0  0  0  0  0
  -23.6280   -8.2240   22.0749 C   0  0  0  0  0  0
  -22.4251   -8.0283   21.3548 C   0  0  0  0  0  0
  -21.9895   -9.0257   20.4653 C   0  0  0  0  0  0
  -22.7237  -10.2131   20.3047 C   0  0  0  0  0  0
  -21.6851   -6.0727   22.5277 C   0  0  0  0  0  0
  -21.4030   -6.5626   23.8216 C   0  0  0  0  0  0
  -21.3658   -5.6774   24.9175 C   0  0  0  0  0  0
  -21.6038   -4.3034   24.7219 C   0  0  0  0  0  0
  -21.8816   -3.8137   23.4346 C   0  0  0  0  0  0
  -21.9199   -4.6958   22.3405 C   0  0  0  0  0  0
  -22.7835  -13.5231   21.1837 C   0  0  0  0  0  0
  -22.1660   -4.2154   21.0981 F   0  0  0  0  0  0
  -21.5619   -3.4517   25.7732 F   0  0  0  0  0  0
  -30.0008  -13.4369   20.4042 N   0  0  0  0  0  0
  -26.2968  -12.9401   20.3305 N   0  0  0  0  0  0
  -25.9336  -11.6540   20.5740 N   0  0  0  0  0  0
  -22.0462  -12.8240   22.0393 N   0  0  0  0  0  0
  -25.4278  -15.1911   20.4206 N   0  0  0  0  0  0
  -31.8639  -14.6912   20.1443 O   0  0  0  0  0  0
  -21.6623   -6.8875   21.4244 O   0  0  0  0  0  0
  -22.3525  -14.5539   20.6674 O   0  0  0  0  0  0
  -24.6263  -31.8611   23.2070 C   0  0  0  0  0  0
  -25.9114  -32.4785   23.8378 C   0  0  1  0  0  0
  -27.2175  -27.3194   20.1011 C   0  0  0  0  0  0
  -25.5934  -33.8587   24.2303 N   0  0  0  0  0  0
  -23.4203  -30.4900   21.5489 C   0  0  2  0  0  0
  -24.8647  -28.9560   20.1098 C   0  0  0  0  0  0
  -22.7475  -29.4643   22.4928 C   0  0  0  0  0  0
  -18.0291  -28.1390   22.8470 C   0  0  0  0  0  0
  -24.1495  -36.7295   23.2633 C   0  0  0  0  0  0
  -25.9650  -30.7917   21.3825 C   0  0  0  0  0  0
  -26.0375  -29.4224   20.7171 C   0  0  0  0  0  0
  -27.2171  -28.6155   20.7063 C   0  0  0  0  0  0
  -26.0127  -26.9181   19.4688 C   0  0  0  0  0  0
  -24.8542  -27.7085   19.4795 C   0  0  0  0  0  0
  -23.6339  -29.8356   20.1610 C   0  0  0  0  0  0
  -25.4110  -36.3082   24.0328 C   0  0  1  0  0  0
  -20.5890  -28.3700   23.1273 C   0  0  2  0  0  0
  -20.6788  -26.9418   22.5407 C   0  0  0  0  0  0
  -19.5764  -26.6386   21.5205 C   0  0  0  0  0  0
  -18.1938  -26.7935   22.1611 C   0  0  0  0  0  0
  -19.1543  -28.8865   23.2871 C   0  0  0  0  0  0
  -18.9464  -30.1463   23.8891 C   0  0  0  0  0  0
  -17.6460  -30.6588   24.0568 C   0  0  0  0  0  0
  -25.9043  -34.9446   23.5109 C   0  0  0  0  0  0
  -16.5353  -29.9084   23.6332 C   0  0  0  0  0  0
  -16.7276  -28.6512   23.0341 C   0  0  0  0  0  0
  -26.4489  -31.6592   25.0745 C   0  0  0  0  0  0
  -25.3729  -31.3752   26.1483 C   0  0  0  0  0  0
  -27.0319  -30.2996   24.6231 C   0  0  0  0  0  0
  -27.6046  -32.4335   25.7517 C   0  0  0  0  0  0
  -27.5582  -37.1801   24.8452 C   0  0  0  0  0  0
  -21.4189  -29.3056   22.3667 N   0  0  0  0  0  0
  -26.4290  -37.3769   23.9402 N   0  0  0  0  0  0
  -24.6888  -31.0631   22.1026 N   0  0  0  0  0  0
  -23.4203  -28.8145   23.2982 O   0  0  0  0  0  0
  -28.3208  -26.4436   20.1496 O   0  0  0  0  0  0
  -26.5601  -34.8914   22.4672 O   0  0  0  0  0  0
  -23.5416  -32.1412   23.7391 O   0  0  0  0  0  0
  -30.7336  -21.6594   20.0242 C   0  0  0  0  0  0
  -29.4090  -21.5302   20.5024 C   0  0  0  0  0  0
  -30.4055  -23.9276   19.5541 C   0  0  0  0  0  0
  -29.0729  -23.8619   20.0518 C   0  0  0  0  0  0
  -30.0734  -16.7736   19.4861 C   0  0  0  0  0  0
  -30.0188  -16.4991   21.9082 C   0  0  0  0  0  0
  -29.3147  -18.1412   19.6225 C   0  0  0  0  0  0
  -29.2684  -17.8761   22.0083 C   0  0  0  0  0  0
  -28.8419  -20.1833   21.0835 C   0  0  0  0  0  0
  -31.0024  -25.1774   18.9096 C   0  0  0  0  0  0
  -28.0251  -25.0156   19.8731 C   0  0  0  0  0  0
  -31.2239  -22.8370   19.5560 N   0  0  0  0  0  0
  -28.5977  -22.6481   20.5165 N   0  0  0  0  0  0
  -29.9552  -15.7948   20.6075 N   0  0  0  0  0  0
  -29.5667  -18.8470   20.9095 N   0  3  0  0  0  0
  -31.6919  -24.8356   17.6568 N   0  3  0  0  0  0
  -31.4658  -12.4623   19.1679 H   0  0  0  0  0  0
  -30.3173  -11.3994   19.9239 H   0  0  0  0  0  0
  -29.7640  -11.7302   17.4870 H   0  0  0  0  0  0
  -29.6585  -13.4553   17.7288 H   0  0  0  0  0  0
  -27.8597  -11.2935   18.8705 H   0  0  0  0  0  0
  -27.3755  -12.5763   17.7880 H   0  0  0  0  0  0
  -27.6512  -14.2588   19.4910 H   0  0  0  0  0  0
  -28.6955  -12.1332   21.4271 H   0  0  0  0  0  0
  -28.4474  -13.8246   21.7920 H   0  0  0  0  0  0
  -25.2773   -9.5648   22.4726 H   0  0  0  0  0  0
  -23.9993   -7.4619   22.7450 H   0  0  0  0  0  0
  -21.0828   -8.8767   19.8953 H   0  0  0  0  0  0
  -22.3697  -10.9656   19.6140 H   0  0  0  0  0  0
  -21.2024   -7.6132   23.9722 H   0  0  0  0  0  0
  -21.1477   -6.0498   25.9075 H   0  0  0  0  0  0
  -22.0595   -2.7602   23.2833 H   0  0  0  0  0  0
  -22.4080  -11.9922   22.4825 H   0  0  0  0  0  0
  -21.1092  -13.1293   22.2595 H   0  0  0  0  0  0
  -24.6616  -15.8453   20.5291 H   0  0  0  0  0  0
  -26.2834  -15.6273   20.1053 H   0  0  0  0  0  0
  -26.7179  -32.5451   23.1120 H   0  0  0  0  0  0
  -25.0086  -33.9735   25.0451 H   0  0  0  0  0  0
  -22.7143  -31.3112   21.4104 H   0  0  0  0  0  0
  -23.3755  -35.9631   23.3291 H   0  0  0  0  0  0
  -24.3594  -36.8918   22.2049 H   0  0  0  0  0  0
  -23.7263  -37.6500   23.6663 H   0  0  0  0  0  0
  -26.1062  -31.5620   20.6224 H   0  0  0  0  0  0
  -26.8409  -30.8304   22.0183 H   0  0  0  0  0  0
  -28.1132  -28.9674   21.1972 H   0  0  0  0  0  0
  -25.9077  -25.9729   18.9613 H   0  0  0  0  0  0
  -23.9552  -27.3482   18.9977 H   0  0  0  0  0  0
  -23.7531  -30.6158   19.4079 H   0  0  0  0  0  0
  -22.7539  -29.2648   19.8575 H   0  0  0  0  0  0
  -25.1291  -36.1926   25.0820 H   0  0  0  0  0  0
  -20.9983  -28.3281   24.1395 H   0  0  0  0  0  0
  -20.5696  -26.2292   23.3601 H   0  0  0  0  0  0
  -21.6661  -26.7458   22.1199 H   0  0  0  0  0  0
  -19.6924  -25.6290   21.1247 H   0  0  0  0  0  0
  -19.6704  -27.3188   20.6727 H   0  0  0  0  0  0
  -17.4202  -26.6677   21.4018 H   0  0  0  0  0  0
  -18.0340  -26.0089   22.9023 H   0  0  0  0  0  0
  -19.7940  -30.7298   24.2250 H   0  0  0  0  0  0
  -17.5010  -31.6267   24.5165 H   0  0  0  0  0  0
  -15.5352  -30.2978   23.7673 H   0  0  0  0  0  0
  -15.8674  -28.0832   22.7043 H   0  0  0  0  0  0
  -24.5890  -30.7105   25.7839 H   0  0  0  0  0  0
  -24.8938  -32.2925   26.4901 H   0  0  0  0  0  0
  -25.8049  -30.8943   27.0263 H   0  0  0  0  0  0
  -26.2899  -29.6762   24.1224 H   0  0  0  0  0  0
  -27.3948  -29.7239   25.4753 H   0  0  0  0  0  0
  -27.8806  -30.4246   23.9508 H   0  0  0  0  0  0
  -27.2631  -33.3622   26.2101 H   0  0  0  0  0  0
  -28.3841  -32.6914   25.0341 H   0  0  0  0  0  0
  -28.0726  -31.8467   26.5427 H   0  0  0  0  0  0
  -28.2580  -38.0114   24.7512 H   0  0  0  0  0  0
  -28.1104  -36.2648   24.6258 H   0  0  0  0  0  0
  -27.2311  -37.1430   25.8857 H   0  0  0  0  0  0
  -20.9347  -29.8773   21.6880 H   0  0  0  0  0  0
  -26.0173  -38.2843   24.1404 H   0  0  0  0  0  0
  -31.4113  -20.8193   20.0111 H   0  0  0  0  0  0
  -31.1296  -16.9998   19.3228 H   0  0  0  0  0  0
  -29.7382  -16.2864   18.5684 H   0  0  0  0  0  0
  -29.6305  -15.8362   22.6836 H   0  0  0  0  0  0
  -31.0692  -16.6579   22.1582 H   0  0  0  0  0  0
  -28.2423  -17.9626   19.5226 H   0  0  0  0  0  0
  -29.5841  -18.7939   18.7901 H   0  0  0  0  0  0
  -29.5055  -18.3323   22.9706 H   0  0  0  0  0  0
  -28.1920  -17.6920   22.0203 H   0  0  0  0  0  0
  -27.8107  -20.0679   20.7457 H   0  0  0  0  0  0
  -28.7659  -20.3723   22.1552 H   0  0  0  0  0  0
  -31.7183  -25.6168   19.6051 H   0  0  0  0  0  0
  -30.2529  -25.9380   18.6980 H   0  0  0  0  0  0
  -27.1520  -24.7264   20.4614 H   0  0  0  0  0  0
  -27.7412  -24.9367   18.8236 H   0  0  0  0  0  0
  -30.5544  -19.0423   20.9709 H   0  0  0  0  0  0
  -32.2923  -24.0521   17.8439 H   0  0  0  0  0  0
  -32.2371  -25.6090   17.3266 H   0  0  0  0  0  0
  -31.0285  -24.5675   16.9531 H   0  0  0  0  0  0
  1 25  1  0  0  0
  1 30  2  0  0  0
  1 84  1  0  0  0
  2  3  1  0  0  0
  2 25  1  0  0  0
  2 87  1  0  0  0
  2 88  1  0  0  0
  3  4  1  0  0  0
  3 89  1  0  0  0
  3 90  1  0  0  0
  4  5  1  0  0  0
  4 91  1  0  0  0
  4 92  1  0  0  0
  5  6  1  0  0  0
  5 26  1  0  0  0
  5 93  1  0  0  0
  6 25  1  0  0  0
  6 94  1  0  0  0
  6 95  1  0  0  0
  7  8  2  0  0  0
  7 26  1  0  0  0
  7 29  1  0  0  0
  8  9  1  0  0  0
  8 22  1  0  0  0
  9 10  1  0  0  0
  9 27  2  0  0  0
 10 11  2  0  0  0
 10 15  1  0  0  0
 11 12  1  0  0  0
 11 96  1  0  0  0
 12 13  2  0  0  0
 12 97  1  0  0  0
 13 14  1  0  0  0
 13 31  1  0  0  0
 14 15  2  0  0  0
 14 98  1  0  0  0
 15 99  1  0  0  0
 16 17  2  0  0  0
 16 21  1  0  0  0
 16 31  1  0  0  0
 17 18  1  0  0  0
 17100  1  0  0  0
 18 19  2  0  0  0
 18101  1  0  0  0
 19 20  1  0  0  0
 19 24  1  0  0  0
 20 21  2  0  0  0
 20102  1  0  0  0
 21 23  1  0  0  0
 22 28  1  0  0  0
 22 32  2  0  0  0
 26 27  1  0  0  0
 28103  1  0  0  0
 28104  1  0  0  0
 29105  1  0  0  0
 29106  1  0  0  0
 33 34  1  0  0  0
 33 66  1  0  0  0
 33 70  2  0  0  0
 34 36  1  0  0  0
 34 59  1  0  0  0
 34107  1  0  0  0
 35 44  2  0  0  0
 35 45  1  0  0  0
 35 68  1  0  0  0
 36 56  1  0  0  0
 36108  1  0  0  0
 37 39  1  0  0  0
 37 47  1  0  0  0
 37 66  1  0  0  0
 37109  1  0  0  0
 38 43  2  0  0  0
 38 46  1  0  0  0
 38 47  1  0  0  0
 39 64  1  0  0  0
 39 67  2  0  0  0
 40 52  1  0  0  0
 40 53  2  0  0  0
 40 58  1  0  0  0
 41110  1  0  0  0
 41111  1  0  0  0
 41112  1  0  0  0
 41 48  1  0  0  0
 42 43  1  0  0  0
 42 66  1  0  0  0
 42113  1  0  0  0
 42114  1  0  0  0
 43 44  1  0  0  0
 44115  1  0  0  0
 45 46  2  0  0  0
 45116  1  0  0  0
 46117  1  0  0  0
 47118  1  0  0  0
 47119  1  0  0  0
 48 56  1  0  0  0
 48 65  1  0  0  0
 48120  1  0  0  0
 49 50  1  0  0  0
 49 53  1  0  0  0
 49 64  1  0  0  0
 49121  1  0  0  0
 50 51  1  0  0  0
 50122  1  0  0  0
 50123  1  0  0  0
 51 52  1  0  0  0
 51124  1  0  0  0
 51125  1  0  0  0
 52126  1  0  0  0
 52127  1  0  0  0
 53 54  1  0  0  0
 54 55  2  0  0  0
 54128  1  0  0  0
 55 57  1  0  0  0
 55129  1  0  0  0
 56 69  2  0  0  0
 57 58  2  0  0  0
 57130  1  0  0  0
 58131  1  0  0  0
 59 60  1  0  0  0
 59 61  1  0  0  0
 59 62  1  0  0  0
 60132  1  0  0  0
 60133  1  0  0  0
 60134  1  0  0  0
 61135  1  0  0  0
 61136  1  0  0  0
 61137  1  0  0  0
 62138  1  0  0  0
 62139  1  0  0  0
 62140  1  0  0  0
 63 65  1  0  0  0
 63141  1  0  0  0
 63142  1  0  0  0
 63143  1  0  0  0
 64144  1  0  0  0
 65145  1  0  0  0
 68 81  1  0  0  0
 71 72  2  0  0  0
 71 82  1  0  0  0
 71146  1  0  0  0
 72 79  1  0  0  0
 72 83  1  0  0  0
 73 74  1  0  0  0
 73 80  1  0  0  0
 73 82  2  0  0  0
 74 81  1  0  0  0
 74 83  2  0  0  0
 75 77  1  0  0  0
 75 84  1  0  0  0
 75147  1  0  0  0
 75148  1  0  0  0
 76 78  1  0  0  0
 76 84  1  0  0  0
 76149  1  0  0  0
 76150  1  0  0  0
 77 85  1  0  0  0
 77151  1  0  0  0
 77152  1  0  0  0
 78 85  1  0  0  0
 78153  1  0  0  0
 78154  1  0  0  0
 79155  1  0  0  0
 79156  1  0  0  0
 79 85  1  0  0  0
 80 86  1  0  0  0
 80157  1  0  0  0
 80158  1  0  0  0
 81159  1  0  0  0
 81160  1  0  0  0
 85161  1  0  0  0
 86162  1  0  0  0
 86163  1  0  0  0
 86164  1  0  0  0
M  CHG  2  85   1  86   1
M  ISO  4   1 100  68 101  81 101  84 100
M  END
> <chiral flag>
0

> <version>
0

> <s_m_source_file>
/data/baiqing/PycharmProjects/Reinvent-master-3.2/result/LINK_invent/BTK/process_docking_weight1_custom_sum_contain_oxygen_bond_distance_aromatic_linkinvent_7_9_3/rearranged_h_0196.sdf

> <i_m_source_file_index>
82

> <r_mmod_Potential_Energy-OPLS-2005>
-109.162742614746

> <r_mmod_Stretch_Energy-OPLS-2005>
86.562858581543

> <r_mmod_Bend_Energy-OPLS-2005>
158.777526855469

> <r_mmod_Torsional_Energy-OPLS-2005>
381.340393066406

> <r_mmod_Improper_Torsional_Energy-OPLS-2005>
14.4748182296753

> <r_mmod_Van_der_Waal_Energy-OPLS-2005>
160.349700927734

> <r_mmod_Electrostatic_Energy-OPLS-2005>
-33.5536079406738

> <r_mmod_Solvation_Energy-OPLS-2005>
-928.429992675781

> <b_mmod_Minimization_Converged-OPLS-2005>
0

> <r_mmod_RMS_Derivative-OPLS-2005>
3.09139132499695

$$$$
83
                    3D
 Structure written by MMmdl.
167177  0  0  1  0            999 V2000
  -30.7204  -14.4144   20.6136 C   0  0  0  0  0  0
  -30.4146  -12.2847   19.4049 C   0  0  0  0  0  0
  -29.4887  -12.5265   18.1967 C   0  0  0  0  0  0
  -28.0093  -12.3854   18.6045 C   0  0  0  0  0  0
  -27.6663  -13.2031   19.8777 C   0  0  2  0  0  0
  -28.7051  -12.9551   20.9943 C   0  0  0  0  0  0
  -25.2631  -13.8176   20.5677 C   0  0  0  0  0  0
  -24.1897  -13.0454   20.9153 C   0  0  0  0  0  0
  -24.6436  -11.6914   20.8723 C   0  0  0  0  0  0
  -23.9097  -10.4302   21.0398 C   0  0  0  0  0  0
  -24.3640   -9.4204   21.9162 C   0  0  0  0  0  0
  -23.6311   -8.2240   22.0736 C   0  0  0  0  0  0
  -22.4284   -8.0282   21.3533 C   0  0  0  0  0  0
  -21.9928   -9.0264   20.4632 C   0  0  0  0  0  0
  -22.7269  -10.2136   20.3043 C   0  0  0  0  0  0
  -21.6853   -6.0749   22.5281 C   0  0  0  0  0  0
  -21.4017   -6.5650   23.8216 C   0  0  0  0  0  0
  -21.3654   -5.6794   24.9175 C   0  0  0  0  0  0
  -21.6047   -4.3059   24.7219 C   0  0  0  0  0  0
  -21.8817   -3.8154   23.4338 C   0  0  0  0  0  0
  -21.9197   -4.6980   22.3398 C   0  0  0  0  0  0
  -22.7909  -13.5236   21.1836 C   0  0  0  0  0  0
  -22.1663   -4.2167   21.0975 F   0  0  0  0  0  0
  -21.5625   -3.4536   25.7729 F   0  0  0  0  0  0
  -30.0428  -13.2478   20.4516 N   0  0  0  0  0  0
  -26.3074  -12.9337   20.3383 N   0  0  0  0  0  0
  -25.9364  -11.6499   20.5775 N   0  0  0  0  0  0
  -22.0564  -12.8215   22.0380 N   0  0  0  0  0  0
  -25.4324  -15.1902   20.4085 N   0  0  0  0  0  0
  -31.7989  -14.6562   20.0673 O   0  0  0  0  0  0
  -21.6637   -6.8889   21.4237 O   0  0  0  0  0  0
  -22.3575  -14.5535   20.6686 O   0  0  0  0  0  0
  -24.6126  -31.8735   23.2107 C   0  0  0  0  0  0
  -25.9025  -32.4852   23.8414 C   0  0  1  0  0  0
  -27.2278  -27.4563   20.0807 C   0  0  0  0  0  0
  -25.5890  -33.8639   24.2347 N   0  0  0  0  0  0
  -23.3985  -30.4998   21.5501 C   0  0  2  0  0  0
  -24.8437  -28.9662   20.1127 C   0  0  0  0  0  0
  -22.7370  -29.4743   22.4982 C   0  0  0  0  0  0
  -18.0276  -28.1317   22.8524 C   0  0  0  0  0  0
  -24.1484  -36.7315   23.2637 C   0  0  0  0  0  0
  -25.9281  -30.8413   21.3648 C   0  0  0  0  0  0
  -26.0032  -29.4779   20.7095 C   0  0  0  0  0  0
  -27.2002  -28.7291   20.6898 C   0  0  0  0  0  0
  -26.0537  -26.9585   19.4760 C   0  0  0  0  0  0
  -24.8614  -27.7053   19.4959 C   0  0  0  0  0  0
  -23.6048  -29.8294   20.1658 C   0  0  0  0  0  0
  -25.4109  -36.3131   24.0337 C   0  0  1  0  0  0
  -20.5855  -28.3700   23.1344 C   0  0  2  0  0  0
  -20.6775  -26.9415   22.5474 C   0  0  0  0  0  0
  -19.5766  -26.6346   21.5290 C   0  0  0  0  0  0
  -18.1939  -26.7842   22.1663 C   0  0  0  0  0  0
  -19.1516  -28.8814   23.2944 C   0  0  0  0  0  0
  -18.9454  -30.1417   23.8953 C   0  0  0  0  0  0
  -17.6444  -30.6514   24.0687 C   0  0  0  0  0  0
  -25.9036  -34.9498   23.5156 C   0  0  0  0  0  0
  -16.5338  -29.9052   23.6353 C   0  0  0  0  0  0
  -16.7271  -28.6481   23.0334 C   0  0  0  0  0  0
  -26.4454  -31.6603   25.0725 C   0  0  0  0  0  0
  -25.3704  -31.3686   26.1460 C   0  0  0  0  0  0
  -27.0302  -30.3060   24.6073 C   0  0  0  0  0  0
  -27.6055  -32.4309   25.7455 C   0  0  0  0  0  0
  -27.5589  -37.1814   24.8470 C   0  0  0  0  0  0
  -21.4079  -29.3145   22.3782 N   0  0  0  0  0  0
  -26.4311  -37.3801   23.9401 N   0  0  0  0  0  0
  -24.6647  -31.0871   22.0995 N   0  0  0  0  0  0
  -23.4163  -28.8266   23.2996 O   0  0  0  0  0  0
  -28.3962  -26.7284   20.0639 O   0  0  0  0  0  0
  -26.5590  -34.8950   22.4708 O   0  0  0  0  0  0
  -23.5317  -32.1457   23.7516 O   0  0  0  0  0  0
  -27.9639  -17.6051   22.1153 C   0  0  0  0  0  0
  -27.0405  -18.3579   21.5095 C   0  0  0  0  0  0
  -29.0456  -17.5310   21.1991 C   0  0  0  0  0  0
  -27.5511  -17.1467   23.4714 C   0  0  0  0  0  0
  -25.8023  -18.5572   22.2848 C   0  0  0  0  0  0
  -26.1651  -17.8562   23.6332 C   0  0  0  0  0  0
  -25.4522  -21.6939   18.8157 C   0  0  0  0  0  0
  -26.4561  -20.9467   19.6766 C   0  0  1  0  0  0
  -26.8651  -22.2125   18.9339 C   0  0  1  0  0  0
  -30.3398  -16.7718   21.3254 C   0  0  0  0  0  0
  -26.8677  -19.5464   19.2320 C   0  0  0  0  0  0
  -28.1209  -24.2977   19.5111 C   0  0  0  0  0  0
  -28.3081  -25.3949   20.5876 C   0  0  0  0  0  0
  -28.7491  -18.2147   20.0867 N   0  0  0  0  0  0
  -27.5102  -18.7580   20.2788 N   0  0  0  0  0  0
  -30.0746  -15.3399   21.3288 N   0  0  0  0  0  0
  -26.9616  -23.4141   19.7969 N   0  3  0  0  0  0
  -31.4601  -12.3707   19.1030 H   0  0  0  0  0  0
  -30.2928  -11.2658   19.7770 H   0  0  0  0  0  0
  -29.7213  -11.8316   17.3884 H   0  0  0  0  0  0
  -29.6653  -13.5265   17.7971 H   0  0  0  0  0  0
  -27.8030  -11.3284   18.7765 H   0  0  0  0  0  0
  -27.3646  -12.6870   17.7764 H   0  0  0  0  0  0
  -27.7199  -14.2557   19.5988 H   0  0  0  0  0  0
  -28.6786  -11.9177   21.3280 H   0  0  0  0  0  0
  -28.4611  -13.5428   21.8788 H   0  0  0  0  0  0
  -25.2788   -9.5678   22.4738 H   0  0  0  0  0  0
  -24.0026   -7.4629   22.7458 H   0  0  0  0  0  0
  -21.0853   -8.8791   19.8938 H   0  0  0  0  0  0
  -22.3732  -10.9678   19.6155 H   0  0  0  0  0  0
  -21.2005   -7.6156   23.9725 H   0  0  0  0  0  0
  -21.1479   -6.0521   25.9079 H   0  0  0  0  0  0
  -22.0604   -2.7620   23.2829 H   0  0  0  0  0  0
  -22.4173  -11.9878   22.4797 H   0  0  0  0  0  0
  -21.1165  -13.1208   22.2559 H   0  0  0  0  0  0
  -24.6603  -15.8374   20.5239 H   0  0  0  0  0  0
  -26.2983  -15.6417   20.1427 H   0  0  0  0  0  0
  -26.7105  -32.5566   23.1194 H   0  0  0  0  0  0
  -25.0044  -33.9771   25.0502 H   0  0  0  0  0  0
  -22.6881  -31.3166   21.4075 H   0  0  0  0  0  0
  -23.3767  -35.9632   23.3322 H   0  0  0  0  0  0
  -24.3577  -36.8904   22.2047 H   0  0  0  0  0  0
  -23.7220  -37.6521   23.6636 H   0  0  0  0  0  0
  -26.0430  -31.6117   20.6010 H   0  0  0  0  0  0
  -26.8154  -30.8914   21.9849 H   0  0  0  0  0  0
  -28.0977  -29.1146   21.1504 H   0  0  0  0  0  0
  -26.0498  -26.0114   18.9619 H   0  0  0  0  0  0
  -23.9706  -27.3128   19.0229 H   0  0  0  0  0  0
  -23.7016  -30.6030   19.4042 H   0  0  0  0  0  0
  -22.7332  -29.2412   19.8772 H   0  0  0  0  0  0
  -25.1288  -36.2013   25.0829 H   0  0  0  0  0  0
  -20.9944  -28.3281   24.1464 H   0  0  0  0  0  0
  -20.5698  -26.2270   23.3660 H   0  0  0  0  0  0
  -21.6655  -26.7473   22.1273 H   0  0  0  0  0  0
  -19.7034  -25.6285   21.1265 H   0  0  0  0  0  0
  -19.6579  -27.3227   20.6888 H   0  0  0  0  0  0
  -17.4268  -26.6604   21.4009 H   0  0  0  0  0  0
  -18.0296  -25.9949   22.9018 H   0  0  0  0  0  0
  -19.7943  -30.7243   24.2299 H   0  0  0  0  0  0
  -17.4991  -31.6133   24.5398 H   0  0  0  0  0  0
  -15.5338  -30.2959   23.7632 H   0  0  0  0  0  0
  -15.8659  -28.0885   22.6927 H   0  0  0  0  0  0
  -24.5880  -30.7044   25.7762 H   0  0  0  0  0  0
  -24.8892  -32.2840   26.4919 H   0  0  0  0  0  0
  -25.8032  -30.8825   27.0208 H   0  0  0  0  0  0
  -26.2852  -29.6811   24.1135 H   0  0  0  0  0  0
  -27.4119  -29.7295   25.4513 H   0  0  0  0  0  0
  -27.8662  -30.4428   23.9202 H   0  0  0  0  0  0
  -27.2708  -33.3604   26.2062 H   0  0  0  0  0  0
  -28.3815  -32.6860   25.0227 H   0  0  0  0  0  0
  -28.0777  -31.8408   26.5316 H   0  0  0  0  0  0
  -28.2630  -38.0093   24.7528 H   0  0  0  0  0  0
  -28.1067  -36.2635   24.6305 H   0  0  0  0  0  0
  -27.2302  -37.1465   25.8870 H   0  0  0  0  0  0
  -20.9131  -29.9042   21.7224 H   0  0  0  0  0  0
  -26.0222  -38.2889   24.1390 H   0  0  0  0  0  0
  -28.2511  -17.4528   24.2517 H   0  0  0  0  0  0
  -27.4331  -16.0635   23.5287 H   0  0  0  0  0  0
  -24.9564  -18.0781   21.7907 H   0  0  0  0  0  0
  -25.5735  -19.6139   22.4255 H   0  0  0  0  0  0
  -26.2435  -18.6154   24.4129 H   0  0  0  0  0  0
  -25.3918  -17.1576   23.9512 H   0  0  0  0  0  0
  -24.6462  -22.2056   19.3423 H   0  0  0  0  0  0
  -25.1596  -21.2476   17.8645 H   0  0  0  0  0  0
  -26.2972  -21.0458   20.7487 H   0  0  0  0  0  0
  -27.5197  -22.1811   18.0624 H   0  0  0  0  0  0
  -31.0169  -17.0532   20.5170 H   0  0  0  0  0  0
  -30.8483  -17.0399   22.2526 H   0  0  0  0  0  0
  -27.5294  -19.6121   18.3667 H   0  0  0  0  0  0
  -25.9758  -19.0058   18.9085 H   0  0  0  0  0  0
  -29.0215  -23.6854   19.4738 H   0  0  0  0  0  0
  -28.0144  -24.7344   18.5184 H   0  0  0  0  0  0
  -29.2413  -25.1993   21.1214 H   0  0  0  0  0  0
  -27.5261  -25.3404   21.3469 H   0  0  0  0  0  0
  -29.2031  -15.0645   21.7494 H   0  0  0  0  0  0
  -26.9973  -23.1166   20.7605 H   0  0  0  0  0  0
  -26.1167  -23.9500   19.6835 H   0  0  0  0  0  0
  1 25  1  0  0  0
  1 30  2  0  0  0
  1 86  1  0  0  0
  2  3  1  0  0  0
  2 25  1  0  0  0
  2 88  1  0  0  0
  2 89  1  0  0  0
  3  4  1  0  0  0
  3 90  1  0  0  0
  3 91  1  0  0  0
  4  5  1  0  0  0
  4 92  1  0  0  0
  4 93  1  0  0  0
  5  6  1  0  0  0
  5 26  1  0  0  0
  5 94  1  0  0  0
  6 25  1  0  0  0
  6 95  1  0  0  0
  6 96  1  0  0  0
  7  8  2  0  0  0
  7 26  1  0  0  0
  7 29  1  0  0  0
  8  9  1  0  0  0
  8 22  1  0  0  0
  9 10  1  0  0  0
  9 27  2  0  0  0
 10 11  2  0  0  0
 10 15  1  0  0  0
 11 12  1  0  0  0
 11 97  1  0  0  0
 12 13  2  0  0  0
 12 98  1  0  0  0
 13 14  1  0  0  0
 13 31  1  0  0  0
 14 15  2  0  0  0
 14 99  1  0  0  0
 15100  1  0  0  0
 16 17  2  0  0  0
 16 21  1  0  0  0
 16 31  1  0  0  0
 17 18  1  0  0  0
 17101  1  0  0  0
 18 19  2  0  0  0
 18102  1  0  0  0
 19 20  1  0  0  0
 19 24  1  0  0  0
 20 21  2  0  0  0
 20103  1  0  0  0
 21 23  1  0  0  0
 22 28  1  0  0  0
 22 32  2  0  0  0
 26 27  1  0  0  0
 28104  1  0  0  0
 28105  1  0  0  0
 29106  1  0  0  0
 29107  1  0  0  0
 33 34  1  0  0  0
 33 66  1  0  0  0
 33 70  2  0  0  0
 34 36  1  0  0  0
 34 59  1  0  0  0
 34108  1  0  0  0
 35 44  2  0  0  0
 35 45  1  0  0  0
 35 68  1  0  0  0
 36 56  1  0  0  0
 36109  1  0  0  0
 37 39  1  0  0  0
 37 47  1  0  0  0
 37 66  1  0  0  0
 37110  1  0  0  0
 38 43  2  0  0  0
 38 46  1  0  0  0
 38 47  1  0  0  0
 39 64  1  0  0  0
 39 67  2  0  0  0
 40 52  1  0  0  0
 40 53  2  0  0  0
 40 58  1  0  0  0
 41111  1  0  0  0
 41112  1  0  0  0
 41113  1  0  0  0
 41 48  1  0  0  0
 42 43  1  0  0  0
 42 66  1  0  0  0
 42114  1  0  0  0
 42115  1  0  0  0
 43 44  1  0  0  0
 44116  1  0  0  0
 45 46  2  0  0  0
 45117  1  0  0  0
 46118  1  0  0  0
 47119  1  0  0  0
 47120  1  0  0  0
 48 56  1  0  0  0
 48 65  1  0  0  0
 48121  1  0  0  0
 49 50  1  0  0  0
 49 53  1  0  0  0
 49 64  1  0  0  0
 49122  1  0  0  0
 50 51  1  0  0  0
 50123  1  0  0  0
 50124  1  0  0  0
 51 52  1  0  0  0
 51125  1  0  0  0
 51126  1  0  0  0
 52127  1  0  0  0
 52128  1  0  0  0
 53 54  1  0  0  0
 54 55  2  0  0  0
 54129  1  0  0  0
 55 57  1  0  0  0
 55130  1  0  0  0
 56 69  2  0  0  0
 57 58  2  0  0  0
 57131  1  0  0  0
 58132  1  0  0  0
 59 60  1  0  0  0
 59 61  1  0  0  0
 59 62  1  0  0  0
 60133  1  0  0  0
 60134  1  0  0  0
 60135  1  0  0  0
 61136  1  0  0  0
 61137  1  0  0  0
 61138  1  0  0  0
 62139  1  0  0  0
 62140  1  0  0  0
 62141  1  0  0  0
 63 65  1  0  0  0
 63142  1  0  0  0
 63143  1  0  0  0
 63144  1  0  0  0
 64145  1  0  0  0
 65146  1  0  0  0
 68 83  1  0  0  0
 71 72  2  0  0  0
 71 73  1  0  0  0
 71 74  1  0  0  0
 72 75  1  0  0  0
 72 85  1  0  0  0
 73 80  1  0  0  0
 73 84  2  0  0  0
 74 76  1  0  0  0
 74147  1  0  0  0
 74148  1  0  0  0
 75 76  1  0  0  0
 75149  1  0  0  0
 75150  1  0  0  0
 76151  1  0  0  0
 76152  1  0  0  0
 77 78  1  0  0  0
 77 79  1  0  0  0
 77153  1  0  0  0
 77154  1  0  0  0
 78 79  1  0  0  0
 78 81  1  0  0  0
 78155  1  0  0  0
 79 87  1  0  0  0
 79156  1  0  0  0
 80 86  1  0  0  0
 80157  1  0  0  0
 80158  1  0  0  0
 81 85  1  0  0  0
 81159  1  0  0  0
 81160  1  0  0  0
 82 83  1  0  0  0
 82 87  1  0  0  0
 82161  1  0  0  0
 82162  1  0  0  0
 83163  1  0  0  0
 83164  1  0  0  0
 84 85  1  0  0  0
 86165  1  0  0  0
 87166  1  0  0  0
 87167  1  0  0  0
M  CHG  1  87   1
M  ISO  4   1 100  68 101  83 101  86 100
M  END
> <chiral flag>
0

> <version>
0

> <s_m_source_file>
/data/baiqing/PycharmProjects/Reinvent-master-3.2/result/LINK_invent/BTK/process_docking_weight1_custom_sum_contain_oxygen_bond_distance_aromatic_linkinvent_7_9_3/rearranged_h_0196.sdf

> <i_m_source_file_index>
83

> <r_mmod_Potential_Energy-OPLS-2005>
-193.269271850586

> <r_mmod_Stretch_Energy-OPLS-2005>
38.2450904846191

> <r_mmod_Bend_Energy-OPLS-2005>
183.575454711914

> <r_mmod_Torsional_Energy-OPLS-2005>
308.483642578125

> <r_mmod_Improper_Torsional_Energy-OPLS-2005>
3.2600200176239

> <r_mmod_Van_der_Waal_Energy-OPLS-2005>
109.413360595703

> <r_mmod_Electrostatic_Energy-OPLS-2005>
-375.800476074219

> <r_mmod_Solvation_Energy-OPLS-2005>
-468.600341796875

> <b_mmod_Minimization_Converged-OPLS-2005>
0

> <r_mmod_RMS_Derivative-OPLS-2005>
4.41730451583862

$$$$
84
                    3D
 Structure written by MMmdl.
161170  0  0  1  0            999 V2000
  -30.7713  -14.3599   20.5445 C   0  0  0  0  0  0
  -30.4056  -12.2504   19.3823 C   0  0  0  0  0  0
  -29.4651  -12.4746   18.1837 C   0  0  0  0  0  0
  -27.9981  -12.3390   18.6213 C   0  0  0  0  0  0
  -27.6611  -13.1970   19.8687 C   0  0  2  0  0  0
  -28.7095  -12.9832   20.9814 C   0  0  0  0  0  0
  -25.2615  -13.8163   20.5683 C   0  0  0  0  0  0
  -24.1881  -13.0411   20.9147 C   0  0  0  0  0  0
  -24.6431  -11.6875   20.8683 C   0  0  0  0  0  0
  -23.9117  -10.4261   21.0334 C   0  0  0  0  0  0
  -24.3664   -9.4186   21.9110 C   0  0  0  0  0  0
  -23.6308   -8.2232   22.0716 C   0  0  0  0  0  0
  -22.4284   -8.0273   21.3529 C   0  0  0  0  0  0
  -21.9916   -9.0239   20.4631 C   0  0  0  0  0  0
  -22.7268  -10.2111   20.3024 C   0  0  0  0  0  0
  -21.6829   -6.0769   22.5285 C   0  0  0  0  0  0
  -21.3997   -6.5673   23.8229 C   0  0  0  0  0  0
  -21.3638   -5.6795   24.9159 C   0  0  0  0  0  0
  -21.6034   -4.3066   24.7181 C   0  0  0  0  0  0
  -21.8838   -3.8195   23.4301 C   0  0  0  0  0  0
  -21.9179   -4.7010   22.3377 C   0  0  0  0  0  0
  -22.7899  -13.5128   21.1869 C   0  0  0  0  0  0
  -22.1661   -4.2209   21.0938 F   0  0  0  0  0  0
  -21.5629   -3.4552   25.7696 F   0  0  0  0  0  0
  -30.0446  -13.2263   20.4133 N   0  0  0  0  0  0
  -26.3065  -12.9305   20.3388 N   0  0  0  0  0  0
  -25.9359  -11.6490   20.5816 N   0  0  0  0  0  0
  -22.0613  -12.8047   22.0431 N   0  0  0  0  0  0
  -25.4325  -15.1866   20.4067 N   0  0  0  0  0  0
  -31.9469  -14.4620   20.1836 O   0  0  0  0  0  0
  -21.6632   -6.8895   21.4245 O   0  0  0  0  0  0
  -22.3524  -14.5410   20.6718 O   0  0  0  0  0  0
  -24.6040  -31.8794   23.2165 C   0  0  0  0  0  0
  -25.8963  -32.4881   23.8493 C   0  0  1  0  0  0
  -27.2104  -27.4550   20.0997 C   0  0  0  0  0  0
  -25.5865  -33.8700   24.2433 N   0  0  0  0  0  0
  -23.3941  -30.5027   21.5513 C   0  0  2  0  0  0
  -24.8428  -28.9857   20.1143 C   0  0  0  0  0  0
  -22.7419  -29.4658   22.4910 C   0  0  0  0  0  0
  -18.0281  -28.1363   22.8418 C   0  0  0  0  0  0
  -24.1474  -36.7335   23.2624 C   0  0  0  0  0  0
  -25.9282  -30.8440   21.3817 C   0  0  0  0  0  0
  -25.9996  -29.4809   20.7299 C   0  0  0  0  0  0
  -27.1909  -28.7207   20.7276 C   0  0  0  0  0  0
  -26.0518  -27.0052   19.4269 C   0  0  0  0  0  0
  -24.8601  -27.7445   19.4635 C   0  0  0  0  0  0
  -23.6127  -29.8578   20.1555 C   0  0  0  0  0  0
  -25.4107  -36.3158   24.0327 C   0  0  1  0  0  0
  -20.5870  -28.3608   23.1309 C   0  0  2  0  0  0
  -20.6677  -26.9324   22.5494 C   0  0  0  0  0  0
  -19.5770  -26.6396   21.5148 C   0  0  0  0  0  0
  -18.1950  -26.7875   22.1594 C   0  0  0  0  0  0
  -19.1542  -28.8782   23.2875 C   0  0  0  0  0  0
  -18.9479  -30.1315   23.8994 C   0  0  0  0  0  0
  -17.6523  -30.6531   24.0611 C   0  0  0  0  0  0
  -25.9037  -34.9511   23.5195 C   0  0  0  0  0  0
  -16.5377  -29.9124   23.6282 C   0  0  0  0  0  0
  -16.7287  -28.6544   23.0313 C   0  0  0  0  0  0
  -26.4432  -31.6598   25.0761 C   0  0  0  0  0  0
  -25.3741  -31.3763   26.1560 C   0  0  0  0  0  0
  -27.0259  -30.3021   24.6111 C   0  0  0  0  0  0
  -27.6002  -32.4305   25.7546 C   0  0  0  0  0  0
  -27.5583  -37.1848   24.8468 C   0  0  0  0  0  0
  -21.4170  -29.2970   22.3671 N   0  0  0  0  0  0
  -26.4292  -37.3825   23.9407 N   0  0  0  0  0  0
  -24.6574  -31.0957   22.1049 N   0  0  0  0  0  0
  -23.4264  -28.8203   23.2912 O   0  0  0  0  0  0
  -28.3599  -26.6985   20.0912 O   0  0  0  0  0  0
  -26.5587  -34.8945   22.4763 O   0  0  0  0  0  0
  -23.5205  -32.1539   23.7540 O   0  0  0  0  0  0
  -27.6238  -20.1576   21.6654 C   0  0  0  0  0  0
  -26.7077  -22.1953   20.3196 C   0  0  0  0  0  0
  -29.0681  -17.4281   19.4758 C   0  0  0  0  0  0
  -29.0299  -17.3032   21.9933 C   0  0  0  0  0  0
  -30.1159  -16.3264   19.4536 C   0  0  0  0  0  0
  -30.1069  -16.2104   21.9191 C   0  0  0  0  0  0
  -27.3437  -19.8278   19.6284 C   0  0  0  0  0  0
  -26.6179  -20.7137   20.6418 C   0  0  1  0  0  0
  -29.1560  -18.2459   20.7744 C   0  0  0  0  0  0
  -27.3226  -24.3964   20.2774 C   0  0  0  0  0  0
  -28.3224  -25.4551   20.8231 C   0  0  0  0  0  0
  -27.5359  -23.0521   20.7835 N   0  0  0  0  0  0
  -28.1324  -19.2757   20.7424 N   0  0  0  0  0  0
  -30.0350  -15.4731   20.6500 N   0  0  0  0  0  0
  -27.8889  -20.3167   22.8450 O   0  0  0  0  0  0
  -30.3013  -11.2390   19.7723 H   0  0  0  0  0  0
  -31.4419  -12.3418   19.0541 H   0  0  0  0  0  0
  -29.6824  -11.7574   17.3942 H   0  0  0  0  0  0
  -29.6303  -13.4620   17.7521 H   0  0  0  0  0  0
  -27.8148  -11.2868   18.8453 H   0  0  0  0  0  0
  -27.3327  -12.5887   17.7935 H   0  0  0  0  0  0
  -27.7102  -14.2418   19.5661 H   0  0  0  0  0  0
  -28.6596  -11.9667   21.3655 H   0  0  0  0  0  0
  -28.4983  -13.6325   21.8281 H   0  0  0  0  0  0
  -25.2842   -9.5652   22.4632 H   0  0  0  0  0  0
  -24.0029   -7.4626   22.7446 H   0  0  0  0  0  0
  -21.0852   -8.8769   19.8944 H   0  0  0  0  0  0
  -22.3728  -10.9622   19.6131 H   0  0  0  0  0  0
  -21.2033   -7.6197   23.9705 H   0  0  0  0  0  0
  -21.1407   -6.0557   25.9033 H   0  0  0  0  0  0
  -22.0637   -2.7663   23.2781 H   0  0  0  0  0  0
  -22.4246  -11.9674   22.4810 H   0  0  0  0  0  0
  -21.1207  -13.1011   22.2668 H   0  0  0  0  0  0
  -24.6599  -15.8334   20.5302 H   0  0  0  0  0  0
  -26.2983  -15.6312   20.1194 H   0  0  0  0  0  0
  -26.7059  -32.5635   23.1270 H   0  0  0  0  0  0
  -24.9924  -33.9993   25.0510 H   0  0  0  0  0  0
  -22.6694  -31.3089   21.4136 H   0  0  0  0  0  0
  -23.3710  -35.9681   23.3306 H   0  0  0  0  0  0
  -24.3544  -36.8932   22.2034 H   0  0  0  0  0  0
  -23.7297  -37.6563   23.6627 H   0  0  0  0  0  0
  -26.0458  -31.6026   20.6059 H   0  0  0  0  0  0
  -26.8191  -30.8907   21.9999 H   0  0  0  0  0  0
  -28.0856  -29.0919   21.2102 H   0  0  0  0  0  0
  -26.0546  -26.0957   18.8480 H   0  0  0  0  0  0
  -23.9774  -27.3754   18.9617 H   0  0  0  0  0  0
  -23.7673  -30.6516   19.4234 H   0  0  0  0  0  0
  -22.7359  -29.2979   19.8157 H   0  0  0  0  0  0
  -25.1290  -36.2002   25.0804 H   0  0  0  0  0  0
  -20.9977  -28.3188   24.1429 H   0  0  0  0  0  0
  -20.5213  -26.2366   23.3771 H   0  0  0  0  0  0
  -21.6611  -26.7141   22.1557 H   0  0  0  0  0  0
  -19.6957  -25.6354   21.1131 H   0  0  0  0  0  0
  -19.6692  -27.3256   20.6742 H   0  0  0  0  0  0
  -17.4187  -26.6324   21.4091 H   0  0  0  0  0  0
  -18.0537  -26.0072   22.9124 H   0  0  0  0  0  0
  -19.7990  -30.6971   24.2537 H   0  0  0  0  0  0
  -17.5137  -31.6216   24.5272 H   0  0  0  0  0  0
  -15.5408  -30.3126   23.7592 H   0  0  0  0  0  0
  -15.8663  -28.0884   22.7093 H   0  0  0  0  0  0
  -24.5861  -30.7133   25.7967 H   0  0  0  0  0  0
  -24.9021  -32.2981   26.4969 H   0  0  0  0  0  0
  -25.8152  -30.8993   27.0350 H   0  0  0  0  0  0
  -26.2820  -29.6782   24.1144 H   0  0  0  0  0  0
  -27.4007  -29.7191   25.4544 H   0  0  0  0  0  0
  -27.8663  -30.4252   23.9282 H   0  0  0  0  0  0
  -27.2544  -33.3532   26.2220 H   0  0  0  0  0  0
  -28.3785  -32.7008   25.0398 H   0  0  0  0  0  0
  -28.0683  -31.8398   26.5421 H   0  0  0  0  0  0
  -28.2608  -38.0128   24.7472 H   0  0  0  0  0  0
  -28.1063  -36.2672   24.6307 H   0  0  0  0  0  0
  -27.2316  -37.1546   25.8874 H   0  0  0  0  0  0
  -20.9292  -29.8809   21.6980 H   0  0  0  0  0  0
  -26.0144  -38.2865   24.1466 H   0  0  0  0  0  0
  -25.9354  -22.4788   19.5952 H   0  0  0  0  0  0
  -28.0789  -16.9739   19.3739 H   0  0  0  0  0  0
  -29.2281  -18.0691   18.6061 H   0  0  0  0  0  0
  -29.1429  -17.8529   22.9328 H   0  0  0  0  0  0
  -28.0477  -16.8262   22.0323 H   0  0  0  0  0  0
  -31.1113  -16.7633   19.3581 H   0  0  0  0  0  0
  -29.9537  -15.7230   18.5597 H   0  0  0  0  0  0
  -30.0130  -15.5380   22.7710 H   0  0  0  0  0  0
  -31.0980  -16.6690   21.9910 H   0  0  0  0  0  0
  -27.9569  -20.3567   18.8906 H   0  0  0  0  0  0
  -26.6825  -19.1096   19.1339 H   0  0  0  0  0  0
  -25.5832  -20.4121   20.8111 H   0  0  0  0  0  0
  -30.1306  -18.7447   20.8046 H   0  0  0  0  0  0
  -27.3783  -24.3894   19.1865 H   0  0  0  0  0  0
  -26.3085  -24.7042   20.5407 H   0  0  0  0  0  0
  -28.1254  -25.6638   21.8766 H   0  0  0  0  0  0
  -29.3331  -25.0493   20.7898 H   0  0  0  0  0  0
  1 25  1  0  0  0
  1 30  2  0  0  0
  1 84  1  0  0  0
  2  3  1  0  0  0
  2 25  1  0  0  0
  2 86  1  0  0  0
  2 87  1  0  0  0
  3  4  1  0  0  0
  3 88  1  0  0  0
  3 89  1  0  0  0
  4  5  1  0  0  0
  4 90  1  0  0  0
  4 91  1  0  0  0
  5  6  1  0  0  0
  5 26  1  0  0  0
  5 92  1  0  0  0
  6 25  1  0  0  0
  6 93  1  0  0  0
  6 94  1  0  0  0
  7  8  2  0  0  0
  7 26  1  0  0  0
  7 29  1  0  0  0
  8  9  1  0  0  0
  8 22  1  0  0  0
  9 10  1  0  0  0
  9 27  2  0  0  0
 10 11  2  0  0  0
 10 15  1  0  0  0
 11 12  1  0  0  0
 11 95  1  0  0  0
 12 13  2  0  0  0
 12 96  1  0  0  0
 13 14  1  0  0  0
 13 31  1  0  0  0
 14 15  2  0  0  0
 14 97  1  0  0  0
 15 98  1  0  0  0
 16 17  2  0  0  0
 16 21  1  0  0  0
 16 31  1  0  0  0
 17 18  1  0  0  0
 17 99  1  0  0  0
 18 19  2  0  0  0
 18100  1  0  0  0
 19 20  1  0  0  0
 19 24  1  0  0  0
 20 21  2  0  0  0
 20101  1  0  0  0
 21 23  1  0  0  0
 22 28  1  0  0  0
 22 32  2  0  0  0
 26 27  1  0  0  0
 28102  1  0  0  0
 28103  1  0  0  0
 29104  1  0  0  0
 29105  1  0  0  0
 33 34  1  0  0  0
 33 66  1  0  0  0
 33 70  2  0  0  0
 34 36  1  0  0  0
 34 59  1  0  0  0
 34106  1  0  0  0
 35 44  2  0  0  0
 35 45  1  0  0  0
 35 68  1  0  0  0
 36 56  1  0  0  0
 36107  1  0  0  0
 37 39  1  0  0  0
 37 47  1  0  0  0
 37 66  1  0  0  0
 37108  1  0  0  0
 38 43  2  0  0  0
 38 46  1  0  0  0
 38 47  1  0  0  0
 39 64  1  0  0  0
 39 67  2  0  0  0
 40 52  1  0  0  0
 40 53  2  0  0  0
 40 58  1  0  0  0
 41109  1  0  0  0
 41110  1  0  0  0
 41111  1  0  0  0
 41 48  1  0  0  0
 42 43  1  0  0  0
 42 66  1  0  0  0
 42112  1  0  0  0
 42113  1  0  0  0
 43 44  1  0  0  0
 44114  1  0  0  0
 45 46  2  0  0  0
 45115  1  0  0  0
 46116  1  0  0  0
 47117  1  0  0  0
 47118  1  0  0  0
 48 56  1  0  0  0
 48 65  1  0  0  0
 48119  1  0  0  0
 49 50  1  0  0  0
 49 53  1  0  0  0
 49 64  1  0  0  0
 49120  1  0  0  0
 50 51  1  0  0  0
 50121  1  0  0  0
 50122  1  0  0  0
 51 52  1  0  0  0
 51123  1  0  0  0
 51124  1  0  0  0
 52125  1  0  0  0
 52126  1  0  0  0
 53 54  1  0  0  0
 54 55  2  0  0  0
 54127  1  0  0  0
 55 57  1  0  0  0
 55128  1  0  0  0
 56 69  2  0  0  0
 57 58  2  0  0  0
 57129  1  0  0  0
 58130  1  0  0  0
 59 60  1  0  0  0
 59 61  1  0  0  0
 59 62  1  0  0  0
 60131  1  0  0  0
 60132  1  0  0  0
 60133  1  0  0  0
 61134  1  0  0  0
 61135  1  0  0  0
 61136  1  0  0  0
 62137  1  0  0  0
 62138  1  0  0  0
 62139  1  0  0  0
 63 65  1  0  0  0
 63140  1  0  0  0
 63141  1  0  0  0
 63142  1  0  0  0
 64143  1  0  0  0
 65144  1  0  0  0
 68 81  1  0  0  0
 71 78  1  0  0  0
 71 83  1  0  0  0
 71 85  2  0  0  0
 72 82  2  0  0  0
 72145  1  0  0  0
 72 78  1  0  0  0
 73 75  1  0  0  0
 73 79  1  0  0  0
 73146  1  0  0  0
 73147  1  0  0  0
 74 76  1  0  0  0
 74 79  1  0  0  0
 74148  1  0  0  0
 74149  1  0  0  0
 75 84  1  0  0  0
 75150  1  0  0  0
 75151  1  0  0  0
 76 84  1  0  0  0
 76152  1  0  0  0
 76153  1  0  0  0
 77 78  1  0  0  0
 77 83  1  0  0  0
 77154  1  0  0  0
 77155  1  0  0  0
 78156  1  0  0  0
 79 83  1  0  0  0
 79157  1  0  0  0
 80 81  1  0  0  0
 80 82  1  0  0  0
 80158  1  0  0  0
 80159  1  0  0  0
 81160  1  0  0  0
 81161  1  0  0  0
M  ISO  4   1 100  68 101  81 101  84 100
M  END
> <chiral flag>
0

> <version>
0

> <s_m_source_file>
/data/baiqing/PycharmProjects/Reinvent-master-3.2/result/LINK_invent/BTK/process_docking_weight1_custom_sum_contain_oxygen_bond_distance_aromatic_linkinvent_7_9_3/rearranged_h_0196.sdf

> <i_m_source_file_index>
84

> <r_mmod_Potential_Energy-OPLS-2005>
204.872894287109

> <r_mmod_Stretch_Energy-OPLS-2005>
33.844970703125

> <r_mmod_Bend_Energy-OPLS-2005>
113.29817199707

> <r_mmod_Torsional_Energy-OPLS-2005>
348.102264404297

> <r_mmod_Improper_Torsional_Energy-OPLS-2005>
17.4648857116699

> <r_mmod_Van_der_Waal_Energy-OPLS-2005>
146.876205444336

> <r_mmod_Electrostatic_Energy-OPLS-2005>
-246.834274291992

> <r_mmod_Solvation_Energy-OPLS-2005>
-228.540451049805

> <b_mmod_Minimization_Converged-OPLS-2005>
0

> <r_mmod_RMS_Derivative-OPLS-2005>
8.8931360244751

$$$$
85
                    3D
 Structure written by MMmdl.
170180  0  0  1  0            999 V2000
  -30.6859  -14.6829   20.4497 C   0  0  0  0  0  0
  -30.4098  -12.4148   19.4612 C   0  0  0  0  0  0
  -29.4941  -12.4800   18.2231 C   0  0  0  0  0  0
  -28.0245  -12.2894   18.6471 C   0  0  0  0  0  0
  -27.6268  -13.2008   19.8383 C   0  0  2  0  0  0
  -28.6808  -13.1964   20.9689 C   0  0  0  0  0  0
  -25.2511  -13.8094   20.5691 C   0  0  0  0  0  0
  -24.1774  -13.0389   20.9209 C   0  0  0  0  0  0
  -24.6321  -11.6844   20.8746 C   0  0  0  0  0  0
  -23.8993  -10.4251   21.0419 C   0  0  0  0  0  0
  -24.3558   -9.4184   21.9197 C   0  0  0  0  0  0
  -23.6261   -8.2195   22.0744 C   0  0  0  0  0  0
  -22.4239   -8.0230   21.3534 C   0  0  0  0  0  0
  -21.9864   -9.0199   20.4646 C   0  0  0  0  0  0
  -22.7162  -10.2096   20.3067 C   0  0  0  0  0  0
  -21.6848   -6.0693   22.5270 C   0  0  0  0  0  0
  -21.4005   -6.5609   23.8194 C   0  0  0  0  0  0
  -21.3670   -5.6768   24.9170 C   0  0  0  0  0  0
  -21.6053   -4.3032   24.7232 C   0  0  0  0  0  0
  -21.8821   -3.8108   23.4356 C   0  0  0  0  0  0
  -21.9191   -4.6913   22.3402 C   0  0  0  0  0  0
  -22.7811  -13.5221   21.1867 C   0  0  0  0  0  0
  -22.1666   -4.2100   21.0972 F   0  0  0  0  0  0
  -21.5651   -3.4525   25.7759 F   0  0  0  0  0  0
  -29.9880  -13.4994   20.3738 N   0  0  0  0  0  0
  -26.2873  -12.9211   20.3284 N   0  0  0  0  0  0
  -25.9243  -11.6392   20.5788 N   0  0  0  0  0  0
  -22.0446  -12.8258   22.0451 N   0  0  0  0  0  0
  -25.4255  -15.1808   20.4083 N   0  0  0  0  0  0
  -31.8870  -14.7053   20.1664 O   0  0  0  0  0  0
  -21.6607   -6.8831   21.4231 O   0  0  0  0  0  0
  -22.3529  -14.5532   20.6701 O   0  0  0  0  0  0
  -24.6266  -31.8605   23.2005 C   0  0  0  0  0  0
  -25.9099  -32.4797   23.8338 C   0  0  1  0  0  0
  -27.2195  -27.3008   20.1217 C   0  0  0  0  0  0
  -25.5919  -33.8588   24.2293 N   0  0  0  0  0  0
  -23.4216  -30.4810   21.5446 C   0  0  2  0  0  0
  -24.8675  -28.9321   20.1147 C   0  0  0  0  0  0
  -22.7473  -29.4632   22.4947 C   0  0  0  0  0  0
  -18.0278  -28.1384   22.8474 C   0  0  0  0  0  0
  -24.1487  -36.7301   23.2638 C   0  0  0  0  0  0
  -25.9610  -30.7883   21.3664 C   0  0  0  0  0  0
  -26.0379  -29.4079   20.7198 C   0  0  0  0  0  0
  -27.2193  -28.6038   20.7153 C   0  0  0  0  0  0
  -26.0327  -26.8938   19.4727 C   0  0  0  0  0  0
  -24.8669  -27.6812   19.4811 C   0  0  0  0  0  0
  -23.6355  -29.8121   20.1620 C   0  0  0  0  0  0
  -25.4109  -36.3108   24.0344 C   0  0  1  0  0  0
  -20.5881  -28.3698   23.1289 C   0  0  2  0  0  0
  -20.6777  -26.9426   22.5409 C   0  0  0  0  0  0
  -19.5766  -26.6389   21.5207 C   0  0  0  0  0  0
  -18.1944  -26.7927   22.1616 C   0  0  0  0  0  0
  -19.1528  -28.8857   23.2885 C   0  0  0  0  0  0
  -18.9455  -30.1451   23.8916 C   0  0  0  0  0  0
  -17.6455  -30.6596   24.0562 C   0  0  0  0  0  0
  -25.9050  -34.9473   23.5132 C   0  0  0  0  0  0
  -16.5353  -29.9092   23.6308 C   0  0  0  0  0  0
  -16.7272  -28.6503   23.0356 C   0  0  0  0  0  0
  -26.4498  -31.6569   25.0664 C   0  0  0  0  0  0
  -25.3732  -31.3665   26.1387 C   0  0  0  0  0  0
  -27.0309  -30.3014   24.6016 C   0  0  0  0  0  0
  -27.6117  -32.4240   25.7405 C   0  0  0  0  0  0
  -27.5603  -37.1787   24.8463 C   0  0  0  0  0  0
  -21.4195  -29.3060   22.3687 N   0  0  0  0  0  0
  -26.4300  -37.3801   23.9433 N   0  0  0  0  0  0
  -24.6896  -31.0588   22.0959 N   0  0  0  0  0  0
  -23.4188  -28.8177   23.3036 O   0  0  0  0  0  0
  -28.3177  -26.4242   20.1444 O   0  0  0  0  0  0
  -26.5622  -34.8951   22.4698 O   0  0  0  0  0  0
  -23.5427  -32.1403   23.7314 O   0  0  0  0  0  0
  -30.9119  -21.9429   19.5942 C   0  0  0  0  0  0
  -31.2087  -23.3165   19.5490 C   0  0  0  0  0  0
  -29.6123  -21.5664   19.9359 C   0  0  0  0  0  0
  -29.0674  -23.8575   20.1798 C   0  0  0  0  0  0
  -30.6811  -18.4216   20.8930 C   0  0  0  0  0  0
  -28.4640  -17.8080   19.9598 C   0  0  0  0  0  0
  -30.6442  -16.9600   21.5108 C   0  0  0  0  0  0
  -29.2999  -16.5402   19.5521 C   0  0  0  0  0  0
  -33.7967  -22.9755   18.8518 C   0  0  0  0  0  0
  -33.4800  -24.6414   20.0044 C   0  0  0  0  0  0
  -32.5589  -23.8392   19.0927 C   0  0  2  0  0  0
  -29.2733  -19.0067   20.5624 C   0  0  0  0  0  0
  -35.8806  -23.9865   19.8077 C   0  0  0  0  0  0
  -28.0440  -25.0053   20.5330 C   0  0  0  0  0  0
  -30.2905  -24.2556   19.8396 N   0  0  0  0  0  0
  -28.6965  -22.5411   20.2312 N   0  0  0  0  0  0
  -30.0224  -15.8813   20.6730 N   0  0  0  0  0  0
  -29.2126  -20.2183   19.6761 N   0  0  0  0  0  0
  -34.5755  -24.1837   19.1448 N   0  3  1  0  0  0
  -31.4552  -12.4979   19.1597 H   0  0  0  0  0  0
  -30.3156  -11.4452   19.9556 H   0  0  0  0  0  0
  -29.7746  -11.7100   17.5034 H   0  0  0  0  0  0
  -29.6141  -13.4384   17.7140 H   0  0  0  0  0  0
  -27.8959  -11.2440   18.9262 H   0  0  0  0  0  0
  -27.3563  -12.4554   17.8012 H   0  0  0  0  0  0
  -27.5724  -14.1932   19.4169 H   0  0  0  0  0  0
  -28.7112  -12.2302   21.4746 H   0  0  0  0  0  0
  -28.4189  -13.9379   21.7261 H   0  0  0  0  0  0
  -25.2713   -9.5692   22.4767 H   0  0  0  0  0  0
  -23.9988   -7.4602   22.7466 H   0  0  0  0  0  0
  -21.0789   -8.8696   19.8986 H   0  0  0  0  0  0
  -22.3600  -10.9613   19.6170 H   0  0  0  0  0  0
  -21.1970   -7.6121   23.9696 H   0  0  0  0  0  0
  -21.1515   -6.0498   25.9083 H   0  0  0  0  0  0
  -22.0599   -2.7568   23.2848 H   0  0  0  0  0  0
  -22.4010  -11.9932   22.4895 H   0  0  0  0  0  0
  -21.1065  -13.1324   22.2627 H   0  0  0  0  0  0
  -24.6641  -15.8426   20.5176 H   0  0  0  0  0  0
  -26.2884  -15.6154   20.1059 H   0  0  0  0  0  0
  -26.7153  -32.5479   23.1083 H   0  0  0  0  0  0
  -25.0054  -33.9715   25.0434 H   0  0  0  0  0  0
  -22.7172  -31.3026   21.3996 H   0  0  0  0  0  0
  -23.3776  -35.9608   23.3268 H   0  0  0  0  0  0
  -24.3608  -36.8933   22.2063 H   0  0  0  0  0  0
  -23.7194  -37.6485   23.6653 H   0  0  0  0  0  0
  -26.0682  -31.5371   20.5793 H   0  0  0  0  0  0
  -26.8542  -30.8648   21.9753 H   0  0  0  0  0  0
  -28.1187  -28.9623   21.1975 H   0  0  0  0  0  0
  -25.9850  -25.9528   18.9448 H   0  0  0  0  0  0
  -23.9754  -27.3148   18.9934 H   0  0  0  0  0  0
  -23.7559  -30.5849   19.4024 H   0  0  0  0  0  0
  -22.7551  -29.2389   19.8639 H   0  0  0  0  0  0
  -25.1276  -36.1989   25.0835 H   0  0  0  0  0  0
  -20.9979  -28.3280   24.1415 H   0  0  0  0  0  0
  -20.5674  -26.2326   23.3612 H   0  0  0  0  0  0
  -21.6651  -26.7459   22.1226 H   0  0  0  0  0  0
  -19.6946  -25.6297   21.1249 H   0  0  0  0  0  0
  -19.6717  -27.3182   20.6721 H   0  0  0  0  0  0
  -17.4223  -26.6666   21.4012 H   0  0  0  0  0  0
  -18.0356  -26.0063   22.9005 H   0  0  0  0  0  0
  -19.7931  -30.7234   24.2331 H   0  0  0  0  0  0
  -17.5018  -31.6275   24.5153 H   0  0  0  0  0  0
  -15.5351  -30.3017   23.7603 H   0  0  0  0  0  0
  -15.8671  -28.0812   22.7089 H   0  0  0  0  0  0
  -24.5938  -30.6995   25.7681 H   0  0  0  0  0  0
  -24.8867  -32.2796   26.4815 H   0  0  0  0  0  0
  -25.8046  -30.8829   27.0157 H   0  0  0  0  0  0
  -26.2822  -29.6771   24.1119 H   0  0  0  0  0  0
  -27.4167  -29.7253   25.4433 H   0  0  0  0  0  0
  -27.8626  -30.4356   23.9098 H   0  0  0  0  0  0
  -27.2825  -33.3568   26.1997 H   0  0  0  0  0  0
  -28.3906  -32.6732   25.0179 H   0  0  0  0  0  0
  -28.0803  -31.8314   26.5273 H   0  0  0  0  0  0
  -28.2597  -38.0113   24.7582 H   0  0  0  0  0  0
  -28.1126  -36.2650   24.6194 H   0  0  0  0  0  0
  -27.2341  -37.1325   25.8870 H   0  0  0  0  0  0
  -20.9378  -29.8786   21.6895 H   0  0  0  0  0  0
  -26.0196  -38.2885   24.1456 H   0  0  0  0  0  0
  -31.6475  -21.2061   19.3032 H   0  0  0  0  0  0
  -31.2943  -18.3931   19.9900 H   0  0  0  0  0  0
  -31.2083  -19.0921   21.5739 H   0  0  0  0  0  0
  -27.7201  -17.4916   20.6935 H   0  0  0  0  0  0
  -27.8795  -18.1349   19.0976 H   0  0  0  0  0  0
  -30.0787  -16.9896   22.4460 H   0  0  0  0  0  0
  -31.6591  -16.6828   21.8016 H   0  0  0  0  0  0
  -30.0315  -16.8214   18.7911 H   0  0  0  0  0  0
  -28.6539  -15.8415   19.0390 H   0  0  0  0  0  0
  -33.9012  -22.5980   17.8344 H   0  0  0  0  0  0
  -33.9307  -22.1860   19.5938 H   0  0  0  0  0  0
  -33.5268  -24.2408   21.0192 H   0  0  0  0  0  0
  -33.3056  -25.7176   19.9966 H   0  0  0  0  0  0
  -32.3549  -24.4131   18.1839 H   0  0  0  0  0  0
  -28.7971  -19.2828   21.5048 H   0  0  0  0  0  0
  -36.5616  -23.4461   19.1524 H   0  0  0  0  0  0
  -35.7828  -23.4275   20.7382 H   0  0  0  0  0  0
  -36.3335  -24.9519   20.0346 H   0  0  0  0  0  0
  -27.9665  -25.0096   21.6201 H   0  0  0  0  0  0
  -27.0734  -24.6564   20.1904 H   0  0  0  0  0  0
  -29.5345  -19.9570   18.7519 H   0  0  0  0  0  0
  -34.6610  -24.7628   18.3230 H   0  0  0  0  0  0
  1 25  1  0  0  0
  1 30  2  0  0  0
  1 87  1  0  0  0
  2  3  1  0  0  0
  2 25  1  0  0  0
  2 90  1  0  0  0
  2 91  1  0  0  0
  3  4  1  0  0  0
  3 92  1  0  0  0
  3 93  1  0  0  0
  4  5  1  0  0  0
  4 94  1  0  0  0
  4 95  1  0  0  0
  5  6  1  0  0  0
  5 26  1  0  0  0
  5 96  1  0  0  0
  6 25  1  0  0  0
  6 97  1  0  0  0
  6 98  1  0  0  0
  7  8  2  0  0  0
  7 26  1  0  0  0
  7 29  1  0  0  0
  8  9  1  0  0  0
  8 22  1  0  0  0
  9 10  1  0  0  0
  9 27  2  0  0  0
 10 11  2  0  0  0
 10 15  1  0  0  0
 11 12  1  0  0  0
 11 99  1  0  0  0
 12 13  2  0  0  0
 12100  1  0  0  0
 13 14  1  0  0  0
 13 31  1  0  0  0
 14 15  2  0  0  0
 14101  1  0  0  0
 15102  1  0  0  0
 16 17  2  0  0  0
 16 21  1  0  0  0
 16 31  1  0  0  0
 17 18  1  0  0  0
 17103  1  0  0  0
 18 19  2  0  0  0
 18104  1  0  0  0
 19 20  1  0  0  0
 19 24  1  0  0  0
 20 21  2  0  0  0
 20105  1  0  0  0
 21 23  1  0  0  0
 22 28  1  0  0  0
 22 32  2  0  0  0
 26 27  1  0  0  0
 28106  1  0  0  0
 28107  1  0  0  0
 29108  1  0  0  0
 29109  1  0  0  0
 33 34  1  0  0  0
 33 66  1  0  0  0
 33 70  2  0  0  0
 34 36  1  0  0  0
 34 59  1  0  0  0
 34110  1  0  0  0
 35 44  2  0  0  0
 35 45  1  0  0  0
 35 68  1  0  0  0
 36 56  1  0  0  0
 36111  1  0  0  0
 37 39  1  0  0  0
 37 47  1  0  0  0
 37 66  1  0  0  0
 37112  1  0  0  0
 38 43  2  0  0  0
 38 46  1  0  0  0
 38 47  1  0  0  0
 39 64  1  0  0  0
 39 67  2  0  0  0
 40 52  1  0  0  0
 40 53  2  0  0  0
 40 58  1  0  0  0
 41113  1  0  0  0
 41114  1  0  0  0
 41115  1  0  0  0
 41 48  1  0  0  0
 42 43  1  0  0  0
 42 66  1  0  0  0
 42116  1  0  0  0
 42117  1  0  0  0
 43 44  1  0  0  0
 44118  1  0  0  0
 45 46  2  0  0  0
 45119  1  0  0  0
 46120  1  0  0  0
 47121  1  0  0  0
 47122  1  0  0  0
 48 56  1  0  0  0
 48 65  1  0  0  0
 48123  1  0  0  0
 49 50  1  0  0  0
 49 53  1  0  0  0
 49 64  1  0  0  0
 49124  1  0  0  0
 50 51  1  0  0  0
 50125  1  0  0  0
 50126  1  0  0  0
 51 52  1  0  0  0
 51127  1  0  0  0
 51128  1  0  0  0
 52129  1  0  0  0
 52130  1  0  0  0
 53 54  1  0  0  0
 54 55  2  0  0  0
 54131  1  0  0  0
 55 57  1  0  0  0
 55132  1  0  0  0
 56 69  2  0  0  0
 57 58  2  0  0  0
 57133  1  0  0  0
 58134  1  0  0  0
 59 60  1  0  0  0
 59 61  1  0  0  0
 59 62  1  0  0  0
 60135  1  0  0  0
 60136  1  0  0  0
 60137  1  0  0  0
 61138  1  0  0  0
 61139  1  0  0  0
 61140  1  0  0  0
 62141  1  0  0  0
 62142  1  0  0  0
 62143  1  0  0  0
 63 65  1  0  0  0
 63144  1  0  0  0
 63145  1  0  0  0
 63146  1  0  0  0
 64147  1  0  0  0
 65148  1  0  0  0
 68 84  1  0  0  0
 71 72  2  0  0  0
 71 73  1  0  0  0
 71149  1  0  0  0
 72 85  1  0  0  0
 72 81  1  0  0  0
 73 86  2  0  0  0
 73 88  1  0  0  0
 74 84  1  0  0  0
 74 85  2  0  0  0
 74 86  1  0  0  0
 75 77  1  0  0  0
 75 82  1  0  0  0
 75150  1  0  0  0
 75151  1  0  0  0
 76 78  1  0  0  0
 76 82  1  0  0  0
 76152  1  0  0  0
 76153  1  0  0  0
 77 87  1  0  0  0
 77154  1  0  0  0
 77155  1  0  0  0
 78 87  1  0  0  0
 78156  1  0  0  0
 78157  1  0  0  0
 79 81  1  0  0  0
 79 89  1  0  0  0
 79158  1  0  0  0
 79159  1  0  0  0
 80 81  1  0  0  0
 80 89  1  0  0  0
 80160  1  0  0  0
 80161  1  0  0  0
 81162  1  0  0  0
 82 88  1  0  0  0
 82163  1  0  0  0
 83164  1  0  0  0
 83165  1  0  0  0
 83166  1  0  0  0
 83 89  1  0  0  0
 84167  1  0  0  0
 84168  1  0  0  0
 88169  1  0  0  0
 89170  1  0  0  0
M  CHG  1  89   1
M  ISO  4   1 100  68 101  84 101  87 100
M  END
> <chiral flag>
0

> <version>
0

> <s_m_source_file>
/data/baiqing/PycharmProjects/Reinvent-master-3.2/result/LINK_invent/BTK/process_docking_weight1_custom_sum_contain_oxygen_bond_distance_aromatic_linkinvent_7_9_3/rearranged_h_0196.sdf

> <i_m_source_file_index>
85

> <r_mmod_Potential_Energy-OPLS-2005>
-312.355285644531

> <r_mmod_Stretch_Energy-OPLS-2005>
90.1454620361328

> <r_mmod_Bend_Energy-OPLS-2005>
194.985076904297

> <r_mmod_Torsional_Energy-OPLS-2005>
404.311340332031

> <r_mmod_Improper_Torsional_Energy-OPLS-2005>
13.2027549743652

> <r_mmod_Van_der_Waal_Energy-OPLS-2005>
162.892181396484

> <r_mmod_Electrostatic_Energy-OPLS-2005>
-736.810852050781

> <r_mmod_Solvation_Energy-OPLS-2005>
-509.34326171875

> <b_mmod_Minimization_Converged-OPLS-2005>
0

> <r_mmod_RMS_Derivative-OPLS-2005>
3.55345606803894

$$$$
86
                    3D
 Structure written by MMmdl.
161170  0  0  1  0            999 V2000
  -30.7033  -14.5434   20.5068 C   0  0  0  0  0  0
  -30.4161  -12.3371   19.4369 C   0  0  0  0  0  0
  -29.4918  -12.4905   18.2112 C   0  0  0  0  0  0
  -28.0128  -12.3608   18.6244 C   0  0  0  0  0  0
  -27.6530  -13.2209   19.8663 C   0  0  2  0  0  0
  -28.7024  -13.0626   20.9902 C   0  0  0  0  0  0
  -25.2542  -13.8199   20.5713 C   0  0  0  0  0  0
  -24.1804  -13.0451   20.9202 C   0  0  0  0  0  0
  -24.6373  -11.6928   20.8749 C   0  0  0  0  0  0
  -23.9040  -10.4298   21.0413 C   0  0  0  0  0  0
  -24.3592   -9.4217   21.9186 C   0  0  0  0  0  0
  -23.6289   -8.2239   22.0748 C   0  0  0  0  0  0
  -22.4270   -8.0263   21.3535 C   0  0  0  0  0  0
  -21.9906   -9.0239   20.4650 C   0  0  0  0  0  0
  -22.7218  -10.2129   20.3067 C   0  0  0  0  0  0
  -21.6853   -6.0733   22.5274 C   0  0  0  0  0  0
  -21.4018   -6.5636   23.8208 C   0  0  0  0  0  0
  -21.3666   -5.6785   24.9162 C   0  0  0  0  0  0
  -21.6040   -4.3046   24.7222 C   0  0  0  0  0  0
  -21.8815   -3.8145   23.4343 C   0  0  0  0  0  0
  -21.9200   -4.6959   22.3392 C   0  0  0  0  0  0
  -22.7817  -13.5237   21.1865 C   0  0  0  0  0  0
  -22.1660   -4.2145   21.0974 F   0  0  0  0  0  0
  -21.5631   -3.4532   25.7736 F   0  0  0  0  0  0
  -30.0198  -13.3656   20.4148 N   0  0  0  0  0  0
  -26.2984  -12.9394   20.3368 N   0  0  0  0  0  0
  -25.9313  -11.6536   20.5799 N   0  0  0  0  0  0
  -22.0457  -12.8240   22.0422 N   0  0  0  0  0  0
  -25.4260  -15.1924   20.4120 N   0  0  0  0  0  0
  -31.8846  -14.6243   20.1548 O   0  0  0  0  0  0
  -21.6631   -6.8870   21.4235 O   0  0  0  0  0  0
  -22.3496  -14.5544   20.6720 O   0  0  0  0  0  0
  -24.6184  -31.8650   23.2059 C   0  0  0  0  0  0
  -25.9061  -32.4803   23.8365 C   0  0  1  0  0  0
  -27.2289  -27.3866   20.1225 C   0  0  0  0  0  0
  -25.5890  -33.8602   24.2286 N   0  0  0  0  0  0
  -23.4082  -30.4895   21.5481 C   0  0  2  0  0  0
  -24.8543  -28.9503   20.1148 C   0  0  0  0  0  0
  -22.7423  -29.4663   22.4973 C   0  0  0  0  0  0
  -18.0281  -28.1383   22.8498 C   0  0  0  0  0  0
  -24.1480  -36.7314   23.2638 C   0  0  0  0  0  0
  -25.9414  -30.8225   21.3606 C   0  0  0  0  0  0
  -26.0190  -29.4544   20.7048 C   0  0  0  0  0  0
  -27.2122  -28.6865   20.6937 C   0  0  0  0  0  0
  -26.0411  -26.9104   19.5215 C   0  0  0  0  0  0
  -24.8628  -27.6796   19.5161 C   0  0  0  0  0  0
  -23.6175  -29.8210   20.1636 C   0  0  0  0  0  0
  -25.4096  -36.3096   24.0335 C   0  0  1  0  0  0
  -20.5875  -28.3676   23.1304 C   0  0  2  0  0  0
  -20.6767  -26.9409   22.5417 C   0  0  0  0  0  0
  -19.5737  -26.6387   21.5225 C   0  0  0  0  0  0
  -18.1921  -26.7929   22.1641 C   0  0  0  0  0  0
  -19.1535  -28.8844   23.2898 C   0  0  0  0  0  0
  -18.9466  -30.1455   23.8900 C   0  0  0  0  0  0
  -17.6469  -30.6591   24.0570 C   0  0  0  0  0  0
  -25.9034  -34.9469   23.5115 C   0  0  0  0  0  0
  -16.5356  -29.9093   23.6337 C   0  0  0  0  0  0
  -16.7273  -28.6516   23.0346 C   0  0  0  0  0  0
  -26.4450  -31.6602   25.0726 C   0  0  0  0  0  0
  -25.3701  -31.3763   26.1476 C   0  0  0  0  0  0
  -27.0264  -30.3020   24.6146 C   0  0  0  0  0  0
  -27.6005  -32.4335   25.7503 C   0  0  0  0  0  0
  -27.5574  -37.1799   24.8453 C   0  0  0  0  0  0
  -21.4151  -29.3040   22.3698 N   0  0  0  0  0  0
  -26.4268  -37.3795   23.9426 N   0  0  0  0  0  0
  -24.6753  -31.0724   22.0965 N   0  0  0  0  0  0
  -23.4176  -28.8212   23.3033 O   0  0  0  0  0  0
  -28.3769  -26.6034   20.1738 O   0  0  0  0  0  0
  -26.5617  -34.8938   22.4685 O   0  0  0  0  0  0
  -23.5375  -32.1415   23.7433 O   0  0  0  0  0  0
  -29.3427  -20.7562   22.0459 C   0  0  0  0  0  0
  -29.3060  -22.1792   22.0371 C   0  0  0  0  0  0
  -29.3219  -22.8239   20.7740 C   0  0  0  0  0  0
  -29.3656  -20.0510   20.8174 C   0  0  0  0  0  0
  -29.2479  -17.9010   19.4891 C   0  0  0  0  0  0
  -29.6806  -17.8017   21.9447 C   0  0  0  0  0  0
  -30.1568  -16.6531   19.4133 C   0  0  0  0  0  0
  -29.4011  -16.2737   21.7535 C   0  0  0  0  0  0
  -29.2356  -22.2944   24.4388 C   0  0  0  0  0  0
  -29.4664  -24.3617   20.6417 C   0  0  0  0  0  0
  -28.1915  -25.1587   20.2397 C   0  0  0  0  0  0
  -29.3246  -22.0988   19.6234 N   0  0  0  0  0  0
  -29.3336  -20.7533   19.6499 N   0  0  0  0  0  0
  -29.4332  -18.6238   20.7487 N   0  0  0  0  0  0
  -29.9474  -15.6820   20.5119 N   0  0  0  0  0  0
  -29.2779  -22.9566   23.1797 O   0  0  0  0  0  0
  -31.4601  -12.4231   19.1300 H   0  0  0  0  0  0
  -30.3151  -11.3418   19.8729 H   0  0  0  0  0  0
  -29.7355  -11.7387   17.4604 H   0  0  0  0  0  0
  -29.6553  -13.4615   17.7400 H   0  0  0  0  0  0
  -27.8172  -11.3094   18.8347 H   0  0  0  0  0  0
  -27.3645  -12.6274   17.7889 H   0  0  0  0  0  0
  -27.6770  -14.2600   19.5388 H   0  0  0  0  0  0
  -28.6934  -12.0467   21.3855 H   0  0  0  0  0  0
  -28.4698  -13.7144   21.8319 H   0  0  0  0  0  0
  -25.2735   -9.5708   22.4765 H   0  0  0  0  0  0
  -24.0009   -7.4636   22.7470 H   0  0  0  0  0  0
  -21.0831   -8.8752   19.8969 H   0  0  0  0  0  0
  -22.3661  -10.9656   19.6178 H   0  0  0  0  0  0
  -21.2005   -7.6148   23.9712 H   0  0  0  0  0  0
  -21.1496   -6.0511   25.9067 H   0  0  0  0  0  0
  -22.0603   -2.7617   23.2830 H   0  0  0  0  0  0
  -22.4066  -11.9897   22.4811 H   0  0  0  0  0  0
  -21.1087  -13.1299   22.2640 H   0  0  0  0  0  0
  -24.6640  -15.8522   20.5266 H   0  0  0  0  0  0
  -26.2880  -15.6293   20.1116 H   0  0  0  0  0  0
  -26.7138  -32.5499   23.1132 H   0  0  0  0  0  0
  -24.9960  -33.9744   25.0380 H   0  0  0  0  0  0
  -22.6999  -31.3088   21.4088 H   0  0  0  0  0  0
  -23.3740  -35.9649   23.3285 H   0  0  0  0  0  0
  -24.3581  -36.8946   22.2057 H   0  0  0  0  0  0
  -23.7237  -37.6517   23.6665 H   0  0  0  0  0  0
  -26.0563  -31.5916   20.5951 H   0  0  0  0  0  0
  -26.8271  -30.8733   21.9824 H   0  0  0  0  0  0
  -28.1094  -29.0753   21.1538 H   0  0  0  0  0  0
  -25.9995  -25.9333   19.0634 H   0  0  0  0  0  0
  -23.9654  -27.2797   19.0654 H   0  0  0  0  0  0
  -23.7277  -30.5970   19.4052 H   0  0  0  0  0  0
  -22.7397  -29.2434   19.8677 H   0  0  0  0  0  0
  -25.1272  -36.1935   25.0825 H   0  0  0  0  0  0
  -20.9981  -28.3259   24.1418 H   0  0  0  0  0  0
  -20.5680  -26.2293   23.3616 H   0  0  0  0  0  0
  -21.6636  -26.7449   22.1209 H   0  0  0  0  0  0
  -19.6894  -25.6301   21.1251 H   0  0  0  0  0  0
  -19.6669  -27.3203   20.6760 H   0  0  0  0  0  0
  -17.4191  -26.6685   21.4045 H   0  0  0  0  0  0
  -18.0319  -26.0073   22.9038 H   0  0  0  0  0  0
  -19.7944  -30.7276   24.2259 H   0  0  0  0  0  0
  -17.5028  -31.6276   24.5164 H   0  0  0  0  0  0
  -15.5356  -30.2992   23.7665 H   0  0  0  0  0  0
  -15.8680  -28.0847   22.7029 H   0  0  0  0  0  0
  -24.5831  -30.7148   25.7838 H   0  0  0  0  0  0
  -24.8944  -32.2953   26.4920 H   0  0  0  0  0  0
  -25.8036  -30.8935   27.0243 H   0  0  0  0  0  0
  -26.2828  -29.6823   24.1121 H   0  0  0  0  0  0
  -27.3902  -29.7226   25.4642 H   0  0  0  0  0  0
  -27.8722  -30.4305   23.9387 H   0  0  0  0  0  0
  -27.2578  -33.3610   26.2111 H   0  0  0  0  0  0
  -28.3800  -32.6944   25.0334 H   0  0  0  0  0  0
  -28.0685  -31.8449   26.5406 H   0  0  0  0  0  0
  -28.2564  -38.0123   24.7536 H   0  0  0  0  0  0
  -28.1088  -36.2655   24.6208 H   0  0  0  0  0  0
  -27.2310  -37.1379   25.8859 H   0  0  0  0  0  0
  -20.9306  -29.8745   21.6911 H   0  0  0  0  0  0
  -26.0145  -38.2861   24.1457 H   0  0  0  0  0  0
  -29.3633  -20.2137   22.9751 H   0  0  0  0  0  0
  -28.1996  -17.6065   19.4094 H   0  0  0  0  0  0
  -29.4567  -18.5282   18.6213 H   0  0  0  0  0  0
  -30.7195  -17.9496   22.2435 H   0  0  0  0  0  0
  -29.0647  -18.1480   22.7741 H   0  0  0  0  0  0
  -31.2001  -16.9763   19.3953 H   0  0  0  0  0  0
  -29.9784  -16.1459   18.4622 H   0  0  0  0  0  0
  -28.3222  -16.1124   21.7435 H   0  0  0  0  0  0
  -29.7725  -15.7393   22.6300 H   0  0  0  0  0  0
  -29.1187  -23.0281   25.2365 H   0  0  0  0  0  0
  -30.1596  -21.7453   24.6270 H   0  0  0  0  0  0
  -28.3905  -21.6076   24.5061 H   0  0  0  0  0  0
  -30.2490  -24.5555   19.9094 H   0  0  0  0  0  0
  -29.8515  -24.7590   21.5806 H   0  0  0  0  0  0
  -27.4074  -24.9290   20.9638 H   0  0  0  0  0  0
  -27.8561  -24.7891   19.2710 H   0  0  0  0  0  0
  1 25  1  0  0  0
  1 30  2  0  0  0
  1 85  1  0  0  0
  2  3  1  0  0  0
  2 25  1  0  0  0
  2 87  1  0  0  0
  2 88  1  0  0  0
  3  4  1  0  0  0
  3 89  1  0  0  0
  3 90  1  0  0  0
  4  5  1  0  0  0
  4 91  1  0  0  0
  4 92  1  0  0  0
  5  6  1  0  0  0
  5 26  1  0  0  0
  5 93  1  0  0  0
  6 25  1  0  0  0
  6 94  1  0  0  0
  6 95  1  0  0  0
  7  8  2  0  0  0
  7 26  1  0  0  0
  7 29  1  0  0  0
  8  9  1  0  0  0
  8 22  1  0  0  0
  9 10  1  0  0  0
  9 27  2  0  0  0
 10 11  2  0  0  0
 10 15  1  0  0  0
 11 12  1  0  0  0
 11 96  1  0  0  0
 12 13  2  0  0  0
 12 97  1  0  0  0
 13 14  1  0  0  0
 13 31  1  0  0  0
 14 15  2  0  0  0
 14 98  1  0  0  0
 15 99  1  0  0  0
 16 17  2  0  0  0
 16 21  1  0  0  0
 16 31  1  0  0  0
 17 18  1  0  0  0
 17100  1  0  0  0
 18 19  2  0  0  0
 18101  1  0  0  0
 19 20  1  0  0  0
 19 24  1  0  0  0
 20 21  2  0  0  0
 20102  1  0  0  0
 21 23  1  0  0  0
 22 28  1  0  0  0
 22 32  2  0  0  0
 26 27  1  0  0  0
 28103  1  0  0  0
 28104  1  0  0  0
 29105  1  0  0  0
 29106  1  0  0  0
 33 34  1  0  0  0
 33 66  1  0  0  0
 33 70  2  0  0  0
 34 36  1  0  0  0
 34 59  1  0  0  0
 34107  1  0  0  0
 35 44  2  0  0  0
 35 45  1  0  0  0
 35 68  1  0  0  0
 36 56  1  0  0  0
 36108  1  0  0  0
 37 39  1  0  0  0
 37 47  1  0  0  0
 37 66  1  0  0  0
 37109  1  0  0  0
 38 43  2  0  0  0
 38 46  1  0  0  0
 38 47  1  0  0  0
 39 64  1  0  0  0
 39 67  2  0  0  0
 40 52  1  0  0  0
 40 53  2  0  0  0
 40 58  1  0  0  0
 41110  1  0  0  0
 41111  1  0  0  0
 41112  1  0  0  0
 41 48  1  0  0  0
 42 43  1  0  0  0
 42 66  1  0  0  0
 42113  1  0  0  0
 42114  1  0  0  0
 43 44  1  0  0  0
 44115  1  0  0  0
 45 46  2  0  0  0
 45116  1  0  0  0
 46117  1  0  0  0
 47118  1  0  0  0
 47119  1  0  0  0
 48 56  1  0  0  0
 48 65  1  0  0  0
 48120  1  0  0  0
 49 50  1  0  0  0
 49 53  1  0  0  0
 49 64  1  0  0  0
 49121  1  0  0  0
 50 51  1  0  0  0
 50122  1  0  0  0
 50123  1  0  0  0
 51 52  1  0  0  0
 51124  1  0  0  0
 51125  1  0  0  0
 52126  1  0  0  0
 52127  1  0  0  0
 53 54  1  0  0  0
 54 55  2  0  0  0
 54128  1  0  0  0
 55 57  1  0  0  0
 55129  1  0  0  0
 56 69  2  0  0  0
 57 58  2  0  0  0
 57130  1  0  0  0
 58131  1  0  0  0
 59 60  1  0  0  0
 59 61  1  0  0  0
 59 62  1  0  0  0
 60132  1  0  0  0
 60133  1  0  0  0
 60134  1  0  0  0
 61135  1  0  0  0
 61136  1  0  0  0
 61137  1  0  0  0
 62138  1  0  0  0
 62139  1  0  0  0
 62140  1  0  0  0
 63 65  1  0  0  0
 63141  1  0  0  0
 63142  1  0  0  0
 63143  1  0  0  0
 64144  1  0  0  0
 65145  1  0  0  0
 68 81  1  0  0  0
 71 72  2  0  0  0
 71 74  1  0  0  0
 71146  1  0  0  0
 72 73  1  0  0  0
 72 86  1  0  0  0
 73 80  1  0  0  0
 73 82  2  0  0  0
 74 83  2  0  0  0
 74 84  1  0  0  0
 75 77  1  0  0  0
 75 84  1  0  0  0
 75147  1  0  0  0
 75148  1  0  0  0
 76 78  1  0  0  0
 76 84  1  0  0  0
 76149  1  0  0  0
 76150  1  0  0  0
 77 85  1  0  0  0
 77151  1  0  0  0
 77152  1  0  0  0
 78 85  1  0  0  0
 78153  1  0  0  0
 78154  1  0  0  0
 79 86  1  0  0  0
 79155  1  0  0  0
 79156  1  0  0  0
 79157  1  0  0  0
 80 81  1  0  0  0
 80158  1  0  0  0
 80159  1  0  0  0
 81160  1  0  0  0
 81161  1  0  0  0
 82 83  1  0  0  0
M  ISO  4   1 100  68 101  81 101  85 100
M  END
> <chiral flag>
0

> <version>
0

> <s_m_source_file>
/data/baiqing/PycharmProjects/Reinvent-master-3.2/result/LINK_invent/BTK/process_docking_weight1_custom_sum_contain_oxygen_bond_distance_aromatic_linkinvent_7_9_3/rearranged_h_0196.sdf

> <i_m_source_file_index>
86

> <r_mmod_Potential_Energy-OPLS-2005>
179.278396606445

> <r_mmod_Stretch_Energy-OPLS-2005>
55.6515083312988

> <r_mmod_Bend_Energy-OPLS-2005>
131.258911132812

> <r_mmod_Torsional_Energy-OPLS-2005>
334.542083740234

> <r_mmod_Improper_Torsional_Energy-OPLS-2005>
17.1410675048828

> <r_mmod_Van_der_Waal_Energy-OPLS-2005>
172.009490966797

> <r_mmod_Electrostatic_Energy-OPLS-2005>
-322.606384277344

> <r_mmod_Solvation_Energy-OPLS-2005>
-236.505065917969

> <b_mmod_Minimization_Converged-OPLS-2005>
0

> <r_mmod_RMS_Derivative-OPLS-2005>
2.2144923210144

$$$$
87
                    3D
 Structure written by MMmdl.
161170  0  0  1  0            999 V2000
  -30.6874  -14.4566   20.5714 C   0  0  0  0  0  0
  -30.4272  -12.2954   19.4285 C   0  0  0  0  0  0
  -29.4989  -12.4941   18.2109 C   0  0  0  0  0  0
  -28.0180  -12.3532   18.6229 C   0  0  0  0  0  0
  -27.6593  -13.1926   19.8782 C   0  0  2  0  0  0
  -28.6970  -12.9677   20.9985 C   0  0  0  0  0  0
  -25.2596  -13.8115   20.5683 C   0  0  0  0  0  0
  -24.1843  -13.0424   20.9183 C   0  0  0  0  0  0
  -24.6368  -11.6882   20.8738 C   0  0  0  0  0  0
  -23.9034  -10.4278   21.0403 C   0  0  0  0  0  0
  -24.3590   -9.4191   21.9174 C   0  0  0  0  0  0
  -23.6270   -8.2227   22.0751 C   0  0  0  0  0  0
  -22.4248   -8.0268   21.3554 C   0  0  0  0  0  0
  -21.9884   -9.0237   20.4651 C   0  0  0  0  0  0
  -22.7209  -10.2119   20.3050 C   0  0  0  0  0  0
  -21.6866   -6.0717   22.5273 C   0  0  0  0  0  0
  -21.4015   -6.5625   23.8198 C   0  0  0  0  0  0
  -21.3660   -5.6785   24.9165 C   0  0  0  0  0  0
  -21.6054   -4.3046   24.7226 C   0  0  0  0  0  0
  -21.8822   -3.8133   23.4347 C   0  0  0  0  0  0
  -21.9192   -4.6944   22.3398 C   0  0  0  0  0  0
  -22.7871  -13.5235   21.1857 C   0  0  0  0  0  0
  -22.1667   -4.2123   21.0979 F   0  0  0  0  0  0
  -21.5632   -3.4535   25.7743 F   0  0  0  0  0  0
  -30.0272  -13.2750   20.4476 N   0  0  0  0  0  0
  -26.3013  -12.9253   20.3384 N   0  0  0  0  0  0
  -25.9284  -11.6437   20.5774 N   0  0  0  0  0  0
  -22.0530  -12.8222   22.0412 N   0  0  0  0  0  0
  -25.4400  -15.1831   20.4127 N   0  0  0  0  0  0
  -31.8413  -14.6222   20.1586 O   0  0  0  0  0  0
  -21.6639   -6.8862   21.4236 O   0  0  0  0  0  0
  -22.3565  -14.5569   20.6745 O   0  0  0  0  0  0
  -24.6185  -31.8679   23.2098 C   0  0  0  0  0  0
  -25.9076  -32.4802   23.8408 C   0  0  1  0  0  0
  -27.2261  -27.4293   20.0907 C   0  0  0  0  0  0
  -25.5944  -33.8605   24.2334 N   0  0  0  0  0  0
  -23.4037  -30.4942   21.5507 C   0  0  2  0  0  0
  -24.8446  -28.9676   20.1082 C   0  0  0  0  0  0
  -22.7469  -29.4658   22.4972 C   0  0  0  0  0  0
  -18.0336  -28.1437   22.8543 C   0  0  0  0  0  0
  -24.1506  -36.7320   23.2635 C   0  0  0  0  0  0
  -25.9343  -30.8346   21.3618 C   0  0  0  0  0  0
  -26.0063  -29.4716   20.7037 C   0  0  0  0  0  0
  -27.1979  -28.7117   20.6850 C   0  0  0  0  0  0
  -26.0416  -26.9482   19.4790 C   0  0  0  0  0  0
  -24.8581  -27.7068   19.4917 C   0  0  0  0  0  0
  -23.6065  -29.8333   20.1634 C   0  0  0  0  0  0
  -25.4119  -36.3096   24.0340 C   0  0  1  0  0  0
  -20.5930  -28.3643   23.1274 C   0  0  2  0  0  0
  -20.6794  -26.9391   22.5306 C   0  0  0  0  0  0
  -19.5685  -26.6411   21.5184 C   0  0  0  0  0  0
  -18.1931  -26.7967   22.1740 C   0  0  0  0  0  0
  -19.1601  -28.8861   23.2926 C   0  0  0  0  0  0
  -18.9556  -30.1446   23.8982 C   0  0  0  0  0  0
  -17.6562  -30.6587   24.0699 C   0  0  0  0  0  0
  -25.9040  -34.9452   23.5124 C   0  0  0  0  0  0
  -16.5430  -29.9141   23.6430 C   0  0  0  0  0  0
  -16.7336  -28.6586   23.0395 C   0  0  0  0  0  0
  -26.4500  -31.6591   25.0747 C   0  0  0  0  0  0
  -25.3786  -31.3711   26.1506 C   0  0  0  0  0  0
  -27.0314  -30.3022   24.6150 C   0  0  0  0  0  0
  -27.6071  -32.4308   25.7523 C   0  0  0  0  0  0
  -27.5590  -37.1817   24.8464 C   0  0  0  0  0  0
  -21.4205  -29.2991   22.3654 N   0  0  0  0  0  0
  -26.4302  -37.3776   23.9399 N   0  0  0  0  0  0
  -24.6695  -31.0814   22.0977 N   0  0  0  0  0  0
  -23.4241  -28.8236   23.3042 O   0  0  0  0  0  0
  -28.4242  -26.7209   20.1263 O   0  0  0  0  0  0
  -26.5567  -34.8901   22.4655 O   0  0  0  0  0  0
  -23.5372  -32.1414   23.7503 O   0  0  0  0  0  0
  -28.2567  -20.5285   20.7777 C   0  0  0  0  0  0
  -27.9371  -19.3350   21.4724 C   0  0  0  0  0  0
  -27.5410  -21.6889   21.1384 C   0  0  0  0  0  0
  -29.5651  -17.9718   20.1510 C   0  0  0  0  0  0
  -28.4620  -16.9929   22.1953 C   0  0  0  0  0  0
  -29.7499  -16.5120   19.6878 C   0  0  0  0  0  0
  -29.6810  -16.0493   22.1376 C   0  0  0  0  0  0
  -26.4311  -24.6523   21.7073 C   0  0  0  0  0  0
  -28.5047  -25.2742   20.2490 C   0  0  0  0  0  0
  -27.8171  -24.2043   21.1766 C   0  0  2  0  0  0
  -26.9676  -19.3489   22.4167 N   0  0  0  0  0  0
  -26.5950  -21.6366   22.1007 N   0  0  0  0  0  0
  -26.3239  -20.4804   22.7151 N   0  0  0  0  0  0
  -28.5863  -18.0952   21.2317 N   0  0  0  0  0  0
  -29.8855  -15.5246   20.7804 N   0  0  0  0  0  0
  -27.7630  -22.9126   20.4711 N   0  0  0  0  0  0
  -31.4715  -12.4012   19.1323 H   0  0  0  0  0  0
  -30.3334  -11.2836   19.8255 H   0  0  0  0  0  0
  -29.7393  -11.7689   17.4320 H   0  0  0  0  0  0
  -29.6640  -13.4787   17.7710 H   0  0  0  0  0  0
  -27.8299  -11.2978   18.8209 H   0  0  0  0  0  0
  -27.3687  -12.6246   17.7884 H   0  0  0  0  0  0
  -27.7019  -14.2403   19.5844 H   0  0  0  0  0  0
  -28.6711  -11.9304   21.3369 H   0  0  0  0  0  0
  -28.4553  -13.5659   21.8751 H   0  0  0  0  0  0
  -25.2740   -9.5677   22.4737 H   0  0  0  0  0  0
  -23.9992   -7.4635   22.7473 H   0  0  0  0  0  0
  -21.0814   -8.8763   19.8963 H   0  0  0  0  0  0
  -22.3677  -10.9657   19.6153 H   0  0  0  0  0  0
  -21.2020   -7.6141   23.9684 H   0  0  0  0  0  0
  -21.1477   -6.0532   25.9066 H   0  0  0  0  0  0
  -22.0601   -2.7592   23.2868 H   0  0  0  0  0  0
  -22.4158  -11.9864   22.4760 H   0  0  0  0  0  0
  -21.1157  -13.1259   22.2652 H   0  0  0  0  0  0
  -24.6892  -15.8522   20.5432 H   0  0  0  0  0  0
  -26.3119  -15.6132   20.1309 H   0  0  0  0  0  0
  -26.7145  -32.5506   23.1167 H   0  0  0  0  0  0
  -25.0194  -33.9764   25.0545 H   0  0  0  0  0  0
  -22.6905  -31.3102   21.4150 H   0  0  0  0  0  0
  -23.3750  -35.9678   23.3318 H   0  0  0  0  0  0
  -24.3615  -36.8903   22.2051 H   0  0  0  0  0  0
  -23.7271  -37.6542   23.6621 H   0  0  0  0  0  0
  -26.0578  -31.6060   20.6011 H   0  0  0  0  0  0
  -26.8192  -30.8778   21.9839 H   0  0  0  0  0  0
  -28.0973  -29.0962   21.1466 H   0  0  0  0  0  0
  -25.9902  -25.9915   18.9841 H   0  0  0  0  0  0
  -23.9694  -27.3159   19.0172 H   0  0  0  0  0  0
  -23.7079  -30.6102   19.4044 H   0  0  0  0  0  0
  -22.7302  -29.2530   19.8664 H   0  0  0  0  0  0
  -25.1287  -36.1977   25.0834 H   0  0  0  0  0  0
  -21.0100  -28.3176   24.1351 H   0  0  0  0  0  0
  -20.5815  -26.2189   23.3434 H   0  0  0  0  0  0
  -21.6646  -26.7475   22.1025 H   0  0  0  0  0  0
  -19.6759  -25.6306   21.1188 H   0  0  0  0  0  0
  -19.6523  -27.3217   20.6709 H   0  0  0  0  0  0
  -17.4111  -26.6670   21.4247 H   0  0  0  0  0  0
  -18.0448  -26.0203   22.9265 H   0  0  0  0  0  0
  -19.8051  -30.7219   24.2411 H   0  0  0  0  0  0
  -17.5152  -31.6223   24.5413 H   0  0  0  0  0  0
  -15.5443  -30.3052   23.7786 H   0  0  0  0  0  0
  -15.8751  -28.0931   22.7074 H   0  0  0  0  0  0
  -24.5951  -30.7052   25.7879 H   0  0  0  0  0  0
  -24.8998  -32.2864   26.4990 H   0  0  0  0  0  0
  -25.8176  -30.8872   27.0237 H   0  0  0  0  0  0
  -26.2855  -29.6799   24.1190 H   0  0  0  0  0  0
  -27.4036  -29.7263   25.4637 H   0  0  0  0  0  0
  -27.8719  -30.4322   23.9335 H   0  0  0  0  0  0
  -27.2677  -33.3571   26.2173 H   0  0  0  0  0  0
  -28.3864  -32.6924   25.0356 H   0  0  0  0  0  0
  -28.0763  -31.8392   26.5392 H   0  0  0  0  0  0
  -28.2609  -38.0113   24.7465 H   0  0  0  0  0  0
  -28.1076  -36.2624   24.6324 H   0  0  0  0  0  0
  -27.2304  -37.1518   25.8870 H   0  0  0  0  0  0
  -20.9385  -29.8602   21.6777 H   0  0  0  0  0  0
  -26.0206  -38.2876   24.1324 H   0  0  0  0  0  0
  -29.0198  -20.5717   20.0182 H   0  0  0  0  0  0
  -29.2615  -18.5582   19.2833 H   0  0  0  0  0  0
  -30.5198  -18.3780   20.4903 H   0  0  0  0  0  0
  -28.3591  -17.3694   23.2146 H   0  0  0  0  0  0
  -27.5495  -16.4359   21.9814 H   0  0  0  0  0  0
  -30.5987  -16.4756   19.0014 H   0  0  0  0  0  0
  -28.8832  -16.2181   19.0946 H   0  0  0  0  0  0
  -29.5525  -15.2402   22.8584 H   0  0  0  0  0  0
  -30.5797  -16.5838   22.4500 H   0  0  0  0  0  0
  -26.4467  -25.6871   22.0464 H   0  0  0  0  0  0
  -26.1167  -24.0800   22.5789 H   0  0  0  0  0  0
  -25.6555  -24.5571   20.9493 H   0  0  0  0  0  0
  -28.5628  -25.7784   21.2156 H   0  0  0  0  0  0
  -27.7644  -25.1730   19.4702 H   0  0  0  0  0  0
  -28.4537  -24.0349   22.0530 H   0  0  0  0  0  0
  -28.3998  -22.8521   19.6823 H   0  0  0  0  0  0
  1 25  1  0  0  0
  1 30  2  0  0  0
  1 85  1  0  0  0
  2  3  1  0  0  0
  2 25  1  0  0  0
  2 87  1  0  0  0
  2 88  1  0  0  0
  3  4  1  0  0  0
  3 89  1  0  0  0
  3 90  1  0  0  0
  4  5  1  0  0  0
  4 91  1  0  0  0
  4 92  1  0  0  0
  5  6  1  0  0  0
  5 26  1  0  0  0
  5 93  1  0  0  0
  6 25  1  0  0  0
  6 94  1  0  0  0
  6 95  1  0  0  0
  7  8  2  0  0  0
  7 26  1  0  0  0
  7 29  1  0  0  0
  8  9  1  0  0  0
  8 22  1  0  0  0
  9 10  1  0  0  0
  9 27  2  0  0  0
 10 11  2  0  0  0
 10 15  1  0  0  0
 11 12  1  0  0  0
 11 96  1  0  0  0
 12 13  2  0  0  0
 12 97  1  0  0  0
 13 14  1  0  0  0
 13 31  1  0  0  0
 14 15  2  0  0  0
 14 98  1  0  0  0
 15 99  1  0  0  0
 16 17  2  0  0  0
 16 21  1  0  0  0
 16 31  1  0  0  0
 17 18  1  0  0  0
 17100  1  0  0  0
 18 19  2  0  0  0
 18101  1  0  0  0
 19 20  1  0  0  0
 19 24  1  0  0  0
 20 21  2  0  0  0
 20102  1  0  0  0
 21 23  1  0  0  0
 22 28  1  0  0  0
 22 32  2  0  0  0
 26 27  1  0  0  0
 28103  1  0  0  0
 28104  1  0  0  0
 29105  1  0  0  0
 29106  1  0  0  0
 33 34  1  0  0  0
 33 66  1  0  0  0
 33 70  2  0  0  0
 34 36  1  0  0  0
 34 59  1  0  0  0
 34107  1  0  0  0
 35 44  2  0  0  0
 35 45  1  0  0  0
 35 68  1  0  0  0
 36 56  1  0  0  0
 36108  1  0  0  0
 37 39  1  0  0  0
 37 47  1  0  0  0
 37 66  1  0  0  0
 37109  1  0  0  0
 38 43  2  0  0  0
 38 46  1  0  0  0
 38 47  1  0  0  0
 39 64  1  0  0  0
 39 67  2  0  0  0
 40 52  1  0  0  0
 40 53  2  0  0  0
 40 58  1  0  0  0
 41110  1  0  0  0
 41111  1  0  0  0
 41112  1  0  0  0
 41 48  1  0  0  0
 42 43  1  0  0  0
 42 66  1  0  0  0
 42113  1  0  0  0
 42114  1  0  0  0
 43 44  1  0  0  0
 44115  1  0  0  0
 45 46  2  0  0  0
 45116  1  0  0  0
 46117  1  0  0  0
 47118  1  0  0  0
 47119  1  0  0  0
 48 56  1  0  0  0
 48 65  1  0  0  0
 48120  1  0  0  0
 49 50  1  0  0  0
 49 53  1  0  0  0
 49 64  1  0  0  0
 49121  1  0  0  0
 50 51  1  0  0  0
 50122  1  0  0  0
 50123  1  0  0  0
 51 52  1  0  0  0
 51124  1  0  0  0
 51125  1  0  0  0
 52126  1  0  0  0
 52127  1  0  0  0
 53 54  1  0  0  0
 54 55  2  0  0  0
 54128  1  0  0  0
 55 57  1  0  0  0
 55129  1  0  0  0
 56 69  2  0  0  0
 57 58  2  0  0  0
 57130  1  0  0  0
 58131  1  0  0  0
 59 60  1  0  0  0
 59 61  1  0  0  0
 59 62  1  0  0  0
 60132  1  0  0  0
 60133  1  0  0  0
 60134  1  0  0  0
 61135  1  0  0  0
 61136  1  0  0  0
 61137  1  0  0  0
 62138  1  0  0  0
 62139  1  0  0  0
 62140  1  0  0  0
 63 65  1  0  0  0
 63141  1  0  0  0
 63142  1  0  0  0
 63143  1  0  0  0
 64144  1  0  0  0
 65145  1  0  0  0
 68 79  1  0  0  0
 71 72  2  0  0  0
 71 73  1  0  0  0
 71146  1  0  0  0
 72 81  1  0  0  0
 72 84  1  0  0  0
 73 82  2  0  0  0
 73 86  1  0  0  0
 74 76  1  0  0  0
 74 84  1  0  0  0
 74147  1  0  0  0
 74148  1  0  0  0
 75 77  1  0  0  0
 75 84  1  0  0  0
 75149  1  0  0  0
 75150  1  0  0  0
 76 85  1  0  0  0
 76151  1  0  0  0
 76152  1  0  0  0
 77 85  1  0  0  0
 77153  1  0  0  0
 77154  1  0  0  0
 78155  1  0  0  0
 78156  1  0  0  0
 78157  1  0  0  0
 78 80  1  0  0  0
 79 80  1  0  0  0
 79158  1  0  0  0
 79159  1  0  0  0
 80 86  1  0  0  0
 80160  1  0  0  0
 81 83  2  0  0  0
 82 83  1  0  0  0
 86161  1  0  0  0
M  ISO  4   1 100  68 101  79 101  85 100
M  END
> <chiral flag>
0

> <version>
0

> <s_m_source_file>
/data/baiqing/PycharmProjects/Reinvent-master-3.2/result/LINK_invent/BTK/process_docking_weight1_custom_sum_contain_oxygen_bond_distance_aromatic_linkinvent_7_9_3/rearranged_h_0196.sdf

> <i_m_source_file_index>
87

> <r_mmod_Potential_Energy-OPLS-2005>
413.182067871094

> <r_mmod_Stretch_Energy-OPLS-2005>
45.4600410461426

> <r_mmod_Bend_Energy-OPLS-2005>
366.904907226562

> <r_mmod_Torsional_Energy-OPLS-2005>
352.483001708984

> <r_mmod_Improper_Torsional_Energy-OPLS-2005>
16.3668251037598

> <r_mmod_Van_der_Waal_Energy-OPLS-2005>
191.064270019531

> <r_mmod_Electrostatic_Energy-OPLS-2005>
-347.044158935547

> <r_mmod_Solvation_Energy-OPLS-2005>
-226.912948608398

> <b_mmod_Minimization_Converged-OPLS-2005>
0

> <r_mmod_RMS_Derivative-OPLS-2005>
3.4373300075531

$$$$
88
                    3D
 Structure written by MMmdl.
169179  0  0  1  0            999 V2000
  -30.7047  -14.4530   20.5590 C   0  0  0  0  0  0
  -30.4216  -12.2935   19.4187 C   0  0  0  0  0  0
  -29.4956  -12.5060   18.2046 C   0  0  0  0  0  0
  -28.0158  -12.3760   18.6178 C   0  0  0  0  0  0
  -27.6644  -13.2052   19.8829 C   0  0  2  0  0  0
  -28.7091  -12.9812   21.0005 C   0  0  0  0  0  0
  -25.2613  -13.8171   20.5723 C   0  0  0  0  0  0
  -24.1852  -13.0434   20.9183 C   0  0  0  0  0  0
  -24.6405  -11.6908   20.8741 C   0  0  0  0  0  0
  -23.9062  -10.4300   21.0407 C   0  0  0  0  0  0
  -24.3607   -9.4216   21.9182 C   0  0  0  0  0  0
  -23.6279   -8.2249   22.0755 C   0  0  0  0  0  0
  -22.4257   -8.0287   21.3553 C   0  0  0  0  0  0
  -21.9896   -9.0261   20.4644 C   0  0  0  0  0  0
  -22.7234  -10.2141   20.3058 C   0  0  0  0  0  0
  -21.6849   -6.0732   22.5280 C   0  0  0  0  0  0
  -21.4009   -6.5630   23.8212 C   0  0  0  0  0  0
  -21.3670   -5.6790   24.9174 C   0  0  0  0  0  0
  -21.6043   -4.3051   24.7230 C   0  0  0  0  0  0
  -21.8819   -3.8145   23.4346 C   0  0  0  0  0  0
  -21.9194   -4.6961   22.3403 C   0  0  0  0  0  0
  -22.7879  -13.5246   21.1845 C   0  0  0  0  0  0
  -22.1661   -4.2141   21.0981 F   0  0  0  0  0  0
  -21.5634   -3.4533   25.7749 F   0  0  0  0  0  0
  -30.0362  -13.2768   20.4380 N   0  0  0  0  0  0
  -26.3047  -12.9331   20.3428 N   0  0  0  0  0  0
  -25.9333  -11.6488   20.5793 N   0  0  0  0  0  0
  -22.0491  -12.8234   22.0386 N   0  0  0  0  0  0
  -25.4324  -15.1891   20.4198 N   0  0  0  0  0  0
  -31.8503  -14.6187   20.1248 O   0  0  0  0  0  0
  -21.6635   -6.8870   21.4244 O   0  0  0  0  0  0
  -22.3569  -14.5556   20.6708 O   0  0  0  0  0  0
  -24.6108  -31.8688   23.2167 C   0  0  0  0  0  0
  -25.9015  -32.4837   23.8428 C   0  0  1  0  0  0
  -27.2387  -27.4601   20.0837 C   0  0  0  0  0  0
  -25.5887  -33.8640   24.2378 N   0  0  0  0  0  0
  -23.3961  -30.4969   21.5568 C   0  0  2  0  0  0
  -24.8410  -28.9632   20.1228 C   0  0  0  0  0  0
  -22.7356  -29.4708   22.5039 C   0  0  0  0  0  0
  -18.0262  -28.1349   22.8523 C   0  0  0  0  0  0
  -24.1488  -36.7329   23.2639 C   0  0  0  0  0  0
  -25.9227  -30.8468   21.3611 C   0  0  0  0  0  0
  -26.0013  -29.4790   20.7142 C   0  0  0  0  0  0
  -27.2013  -28.7369   20.6883 C   0  0  0  0  0  0
  -26.0563  -26.9552   19.4926 C   0  0  0  0  0  0
  -24.8633  -27.7004   19.5110 C   0  0  0  0  0  0
  -23.6001  -29.8254   20.1736 C   0  0  0  0  0  0
  -25.4102  -36.3137   24.0355 C   0  0  1  0  0  0
  -20.5850  -28.3643   23.1342 C   0  0  2  0  0  0
  -20.6763  -26.9376   22.5435 C   0  0  0  0  0  0
  -19.5765  -26.6376   21.5217 C   0  0  0  0  0  0
  -18.1933  -26.7912   22.1615 C   0  0  0  0  0  0
  -19.1497  -28.8804   23.2955 C   0  0  0  0  0  0
  -18.9429  -30.1424   23.8954 C   0  0  0  0  0  0
  -17.6447  -30.6591   24.0551 C   0  0  0  0  0  0
  -25.9031  -34.9492   23.5170 C   0  0  0  0  0  0
  -16.5337  -29.9085   23.6335 C   0  0  0  0  0  0
  -16.7250  -28.6487   23.0385 C   0  0  0  0  0  0
  -26.4455  -31.6588   25.0716 C   0  0  0  0  0  0
  -25.3753  -31.3605   26.1474 C   0  0  0  0  0  0
  -27.0289  -30.3061   24.6015 C   0  0  0  0  0  0
  -27.6073  -32.4247   25.7454 C   0  0  0  0  0  0
  -27.5602  -37.1817   24.8472 C   0  0  0  0  0  0
  -21.4101  -29.3042   22.3759 N   0  0  0  0  0  0
  -26.4308  -37.3806   23.9422 N   0  0  0  0  0  0
  -24.6619  -31.0809   22.1053 N   0  0  0  0  0  0
  -23.4145  -28.8225   23.3043 O   0  0  0  0  0  0
  -28.4442  -26.7939   20.0362 O   0  0  0  0  0  0
  -26.5576  -34.8928   22.4713 O   0  0  0  0  0  0
  -23.5321  -32.1408   23.7583 O   0  0  0  0  0  0
  -30.2523  -20.3095   19.7742 C   0  0  0  0  0  0
  -32.2464  -19.9799   19.2715 C   0  0  0  0  0  0
  -30.3293  -17.5355   22.1127 C   0  0  0  0  0  0
  -28.1233  -20.9709   18.5921 C   0  0  0  0  0  0
  -29.9463  -16.0599   22.2425 C   0  0  0  0  0  0
  -29.8040  -16.6389   19.9356 C   0  0  0  0  0  0
  -28.5403  -22.3105   17.9663 C   0  0  0  0  0  0
  -28.8816  -22.4033   20.3336 C   0  0  0  0  0  0
  -28.8773  -20.9190   19.9214 C   0  0  2  0  0  0
  -29.7919  -17.9534   20.7431 C   0  0  2  0  0  0
  -33.6390  -20.1653   18.7800 C   0  0  0  0  0  0
  -28.1991  -24.4953   19.0953 C   0  0  0  0  0  0
  -28.4847  -25.3929   20.3213 C   0  0  0  0  0  0
  -31.2785  -20.9419   19.1984 N   0  0  0  0  0  0
  -31.8702  -18.8328   19.8220 N   0  0  0  0  0  0
  -30.5637  -19.0426   20.1246 N   0  0  0  0  0  0
  -29.9311  -15.5153   20.8818 N   0  0  0  0  0  0
  -28.9460  -23.2033   19.0805 N   0  3  2  0  0  0
  -31.4665  -12.3843   19.1184 H   0  0  0  0  0  0
  -30.3123  -11.2825   19.8130 H   0  0  0  0  0  0
  -29.7288  -11.7833   17.4210 H   0  0  0  0  0  0
  -29.6746  -13.4923   17.7732 H   0  0  0  0  0  0
  -27.8177  -11.3195   18.8050 H   0  0  0  0  0  0
  -27.3692  -12.6671   17.7903 H   0  0  0  0  0  0
  -27.7083  -14.2550   19.5945 H   0  0  0  0  0  0
  -28.6797  -11.9501   21.3529 H   0  0  0  0  0  0
  -28.4855  -13.5980   21.8721 H   0  0  0  0  0  0
  -25.2746   -9.5688   22.4762 H   0  0  0  0  0  0
  -23.9988   -7.4634   22.7471 H   0  0  0  0  0  0
  -21.0825   -8.8782   19.8936 H   0  0  0  0  0  0
  -22.3690  -10.9678   19.6176 H   0  0  0  0  0  0
  -21.1993   -7.6131   23.9714 H   0  0  0  0  0  0
  -21.1493   -6.0514   25.9077 H   0  0  0  0  0  0
  -22.0586   -2.7598   23.2861 H   0  0  0  0  0  0
  -22.4080  -11.9894   22.4791 H   0  0  0  0  0  0
  -21.1117  -13.1295   22.2580 H   0  0  0  0  0  0
  -24.6715  -15.8470   20.5492 H   0  0  0  0  0  0
  -26.2990  -15.6323   20.1427 H   0  0  0  0  0  0
  -26.7061  -32.5589   23.1192 H   0  0  0  0  0  0
  -25.0073  -33.9766   25.0551 H   0  0  0  0  0  0
  -22.6891  -31.3194   21.4234 H   0  0  0  0  0  0
  -23.3759  -35.9659   23.3297 H   0  0  0  0  0  0
  -24.3602  -36.8936   22.2062 H   0  0  0  0  0  0
  -23.7241  -37.6529   23.6645 H   0  0  0  0  0  0
  -26.0178  -31.6084   20.5842 H   0  0  0  0  0  0
  -26.8173  -30.9128   21.9690 H   0  0  0  0  0  0
  -28.1045  -29.1399   21.1273 H   0  0  0  0  0  0
  -26.0296  -26.0152   18.9716 H   0  0  0  0  0  0
  -23.9709  -27.3029   19.0474 H   0  0  0  0  0  0
  -23.6973  -30.5967   19.4093 H   0  0  0  0  0  0
  -22.7243  -29.2381   19.8894 H   0  0  0  0  0  0
  -25.1275  -36.2025   25.0848 H   0  0  0  0  0  0
  -20.9980  -28.3215   24.1442 H   0  0  0  0  0  0
  -20.5677  -26.2234   23.3607 H   0  0  0  0  0  0
  -21.6648  -26.7461   22.1219 H   0  0  0  0  0  0
  -19.6936  -25.6288   21.1235 H   0  0  0  0  0  0
  -19.6716  -27.3199   20.6753 H   0  0  0  0  0  0
  -17.4211  -26.6684   21.3995 H   0  0  0  0  0  0
  -18.0319  -26.0013   22.8953 H   0  0  0  0  0  0
  -19.7910  -30.7211   24.2380 H   0  0  0  0  0  0
  -17.4998  -31.6292   24.5106 H   0  0  0  0  0  0
  -15.5338  -30.2995   23.7651 H   0  0  0  0  0  0
  -15.8642  -28.0812   22.7117 H   0  0  0  0  0  0
  -24.6011  -30.6833   25.7826 H   0  0  0  0  0  0
  -24.8801  -32.2684   26.4920 H   0  0  0  0  0  0
  -25.8137  -30.8826   27.0253 H   0  0  0  0  0  0
  -26.2808  -29.6758   24.1159 H   0  0  0  0  0  0
  -27.4241  -29.7325   25.4411 H   0  0  0  0  0  0
  -27.8552  -30.4436   23.9028 H   0  0  0  0  0  0
  -27.2818  -33.3604   26.2011 H   0  0  0  0  0  0
  -28.3904  -32.6677   25.0257 H   0  0  0  0  0  0
  -28.0691  -31.8341   26.5375 H   0  0  0  0  0  0
  -28.2625  -38.0113   24.7567 H   0  0  0  0  0  0
  -28.1121  -36.2662   24.6279 H   0  0  0  0  0  0
  -27.2328  -37.1432   25.8874 H   0  0  0  0  0  0
  -20.9242  -29.8730   21.6965 H   0  0  0  0  0  0
  -26.0211  -38.2902   24.1398 H   0  0  0  0  0  0
  -31.4169  -17.6192   22.1425 H   0  0  0  0  0  0
  -29.9322  -18.1501   22.9219 H   0  0  0  0  0  0
  -28.3146  -20.1134   17.9463 H   0  0  0  0  0  0
  -27.0505  -20.9952   18.7913 H   0  0  0  0  0  0
  -28.9456  -15.9637   22.6652 H   0  0  0  0  0  0
  -30.6287  -15.5315   22.9100 H   0  0  0  0  0  0
  -30.6104  -16.6313   19.2005 H   0  0  0  0  0  0
  -28.8808  -16.5317   19.3643 H   0  0  0  0  0  0
  -27.7389  -22.7255   17.3524 H   0  0  0  0  0  0
  -29.3946  -22.1696   17.3048 H   0  0  0  0  0  0
  -29.6887  -22.6453   21.0282 H   0  0  0  0  0  0
  -27.9442  -22.6168   20.8478 H   0  0  0  0  0  0
  -28.3218  -20.3547   20.6671 H   0  0  0  0  0  0
  -28.7543  -18.2617   20.8571 H   0  0  0  0  0  0
  -33.6649  -20.8573   17.9378 H   0  0  0  0  0  0
  -34.0483  -19.2099   18.4518 H   0  0  0  0  0  0
  -34.2728  -20.5502   19.5796 H   0  0  0  0  0  0
  -28.4401  -25.0424   18.1832 H   0  0  0  0  0  0
  -27.1364  -24.2615   19.0542 H   0  0  0  0  0  0
  -29.4996  -25.2017   20.6743 H   0  0  0  0  0  0
  -27.8241  -25.1450   21.1537 H   0  0  0  0  0  0
  -29.9239  -23.4116   18.9216 H   0  0  0  0  0  0
  1 25  1  0  0  0
  1 30  2  0  0  0
  1 87  1  0  0  0
  2  3  1  0  0  0
  2 25  1  0  0  0
  2 89  1  0  0  0
  2 90  1  0  0  0
  3  4  1  0  0  0
  3 91  1  0  0  0
  3 92  1  0  0  0
  4  5  1  0  0  0
  4 93  1  0  0  0
  4 94  1  0  0  0
  5  6  1  0  0  0
  5 26  1  0  0  0
  5 95  1  0  0  0
  6 25  1  0  0  0
  6 96  1  0  0  0
  6 97  1  0  0  0
  7  8  2  0  0  0
  7 26  1  0  0  0
  7 29  1  0  0  0
  8  9  1  0  0  0
  8 22  1  0  0  0
  9 10  1  0  0  0
  9 27  2  0  0  0
 10 11  2  0  0  0
 10 15  1  0  0  0
 11 12  1  0  0  0
 11 98  1  0  0  0
 12 13  2  0  0  0
 12 99  1  0  0  0
 13 14  1  0  0  0
 13 31  1  0  0  0
 14 15  2  0  0  0
 14100  1  0  0  0
 15101  1  0  0  0
 16 17  2  0  0  0
 16 21  1  0  0  0
 16 31  1  0  0  0
 17 18  1  0  0  0
 17102  1  0  0  0
 18 19  2  0  0  0
 18103  1  0  0  0
 19 20  1  0  0  0
 19 24  1  0  0  0
 20 21  2  0  0  0
 20104  1  0  0  0
 21 23  1  0  0  0
 22 28  1  0  0  0
 22 32  2  0  0  0
 26 27  1  0  0  0
 28105  1  0  0  0
 28106  1  0  0  0
 29107  1  0  0  0
 29108  1  0  0  0
 33 34  1  0  0  0
 33 66  1  0  0  0
 33 70  2  0  0  0
 34 36  1  0  0  0
 34 59  1  0  0  0
 34109  1  0  0  0
 35 44  2  0  0  0
 35 45  1  0  0  0
 35 68  1  0  0  0
 36 56  1  0  0  0
 36110  1  0  0  0
 37 39  1  0  0  0
 37 47  1  0  0  0
 37 66  1  0  0  0
 37111  1  0  0  0
 38 43  2  0  0  0
 38 46  1  0  0  0
 38 47  1  0  0  0
 39 64  1  0  0  0
 39 67  2  0  0  0
 40 52  1  0  0  0
 40 53  2  0  0  0
 40 58  1  0  0  0
 41112  1  0  0  0
 41113  1  0  0  0
 41114  1  0  0  0
 41 48  1  0  0  0
 42 43  1  0  0  0
 42 66  1  0  0  0
 42115  1  0  0  0
 42116  1  0  0  0
 43 44  1  0  0  0
 44117  1  0  0  0
 45 46  2  0  0  0
 45118  1  0  0  0
 46119  1  0  0  0
 47120  1  0  0  0
 47121  1  0  0  0
 48 56  1  0  0  0
 48 65  1  0  0  0
 48122  1  0  0  0
 49 50  1  0  0  0
 49 53  1  0  0  0
 49 64  1  0  0  0
 49123  1  0  0  0
 50 51  1  0  0  0
 50124  1  0  0  0
 50125  1  0  0  0
 51 52  1  0  0  0
 51126  1  0  0  0
 51127  1  0  0  0
 52128  1  0  0  0
 52129  1  0  0  0
 53 54  1  0  0  0
 54 55  2  0  0  0
 54130  1  0  0  0
 55 57  1  0  0  0
 55131  1  0  0  0
 56 69  2  0  0  0
 57 58  2  0  0  0
 57132  1  0  0  0
 58133  1  0  0  0
 59 60  1  0  0  0
 59 61  1  0  0  0
 59 62  1  0  0  0
 60134  1  0  0  0
 60135  1  0  0  0
 60136  1  0  0  0
 61137  1  0  0  0
 61138  1  0  0  0
 61139  1  0  0  0
 62140  1  0  0  0
 62141  1  0  0  0
 62142  1  0  0  0
 63 65  1  0  0  0
 63143  1  0  0  0
 63144  1  0  0  0
 63145  1  0  0  0
 64146  1  0  0  0
 65147  1  0  0  0
 68 83  1  0  0  0
 71 84  2  0  0  0
 71 86  1  0  0  0
 71 79  1  0  0  0
 72 81  1  0  0  0
 72 84  1  0  0  0
 72 85  2  0  0  0
 73 75  1  0  0  0
 73 80  1  0  0  0
 73148  1  0  0  0
 73149  1  0  0  0
 74 77  1  0  0  0
 74 79  1  0  0  0
 74150  1  0  0  0
 74151  1  0  0  0
 75 87  1  0  0  0
 75152  1  0  0  0
 75153  1  0  0  0
 76 80  1  0  0  0
 76 87  1  0  0  0
 76154  1  0  0  0
 76155  1  0  0  0
 77 88  1  0  0  0
 77156  1  0  0  0
 77157  1  0  0  0
 78 79  1  0  0  0
 78 88  1  0  0  0
 78158  1  0  0  0
 78159  1  0  0  0
 79160  1  0  0  0
 80 86  1  0  0  0
 80161  1  0  0  0
 81162  1  0  0  0
 81163  1  0  0  0
 81164  1  0  0  0
 82 83  1  0  0  0
 82165  1  0  0  0
 82166  1  0  0  0
 82 88  1  0  0  0
 83167  1  0  0  0
 83168  1  0  0  0
 85 86  1  0  0  0
 88169  1  0  0  0
M  CHG  1  88   1
M  ISO  4   1 100  68 101  83 101  87 100
M  END
> <chiral flag>
0

> <version>
0

> <s_m_source_file>
/data/baiqing/PycharmProjects/Reinvent-master-3.2/result/LINK_invent/BTK/process_docking_weight1_custom_sum_contain_oxygen_bond_distance_aromatic_linkinvent_7_9_3/rearranged_h_0196.sdf

> <i_m_source_file_index>
88

> <r_mmod_Potential_Energy-OPLS-2005>
102.472724914551

> <r_mmod_Stretch_Energy-OPLS-2005>
35.4111251831055

> <r_mmod_Bend_Energy-OPLS-2005>
147.760787963867

> <r_mmod_Torsional_Energy-OPLS-2005>
445.175079345703

> <r_mmod_Improper_Torsional_Energy-OPLS-2005>
11.8665657043457

> <r_mmod_Van_der_Waal_Energy-OPLS-2005>
126.519981384277

> <r_mmod_Electrostatic_Energy-OPLS-2005>
-247.635223388672

> <r_mmod_Solvation_Energy-OPLS-2005>
-427.822143554688

> <b_mmod_Minimization_Converged-OPLS-2005>
0

> <r_mmod_RMS_Derivative-OPLS-2005>
3.91439533233643

$$$$
89
                    3D
 Structure written by MMmdl.
151160  0  0  1  0            999 V2000
  -30.6070  -14.7753   20.4486 C   0  0  0  0  0  0
  -30.4325  -12.4745   19.4743 C   0  0  0  0  0  0
  -29.5103  -12.5071   18.2361 C   0  0  0  0  0  0
  -28.0376  -12.3284   18.6530 C   0  0  0  0  0  0
  -27.6393  -13.2371   19.8471 C   0  0  2  0  0  0
  -28.6847  -13.1948   20.9813 C   0  0  0  0  0  0
  -25.2510  -13.8211   20.5714 C   0  0  0  0  0  0
  -24.1798  -13.0447   20.9201 C   0  0  0  0  0  0
  -24.6397  -11.6926   20.8743 C   0  0  0  0  0  0
  -23.9075  -10.4298   21.0403 C   0  0  0  0  0  0
  -24.3624   -9.4212   21.9182 C   0  0  0  0  0  0
  -23.6298   -8.2247   22.0753 C   0  0  0  0  0  0
  -22.4280   -8.0284   21.3544 C   0  0  0  0  0  0
  -21.9916   -9.0258   20.4646 C   0  0  0  0  0  0
  -22.7246  -10.2137   20.3054 C   0  0  0  0  0  0
  -21.6855   -6.0738   22.5279 C   0  0  0  0  0  0
  -21.4016   -6.5641   23.8213 C   0  0  0  0  0  0
  -21.3660   -5.6793   24.9174 C   0  0  0  0  0  0
  -21.6044   -4.3056   24.7224 C   0  0  0  0  0  0
  -21.8819   -3.8148   23.4346 C   0  0  0  0  0  0
  -21.9193   -4.6965   22.3402 C   0  0  0  0  0  0
  -22.7819  -13.5224   21.1865 C   0  0  0  0  0  0
  -22.1661   -4.2150   21.0980 F   0  0  0  0  0  0
  -21.5629   -3.4540   25.7737 F   0  0  0  0  0  0
  -29.9787  -13.5490   20.3884 N   0  0  0  0  0  0
  -26.2935  -12.9424   20.3287 N   0  0  0  0  0  0
  -25.9330  -11.6560   20.5751 N   0  0  0  0  0  0
  -22.0471  -12.8210   22.0423 N   0  0  0  0  0  0
  -25.4229  -15.1935   20.4173 N   0  0  0  0  0  0
  -31.8074  -14.8498   20.1678 O   0  0  0  0  0  0
  -21.6643   -6.8881   21.4241 O   0  0  0  0  0  0
  -22.3498  -14.5527   20.6714 O   0  0  0  0  0  0
  -24.6354  -31.8528   23.1970 C   0  0  0  0  0  0
  -25.9166  -32.4740   23.8323 C   0  0  1  0  0  0
  -27.2159  -27.2269   20.1147 C   0  0  0  0  0  0
  -25.5948  -33.8543   24.2241 N   0  0  0  0  0  0
  -23.4328  -30.4777   21.5418 C   0  0  2  0  0  0
  -24.8776  -28.9252   20.1074 C   0  0  0  0  0  0
  -22.7523  -29.4594   22.4896 C   0  0  0  0  0  0
  -18.0297  -28.1390   22.8482 C   0  0  0  0  0  0
  -24.1491  -36.7276   23.2640 C   0  0  0  0  0  0
  -25.9837  -30.7539   21.3831 C   0  0  0  0  0  0
  -26.0529  -29.3758   20.7196 C   0  0  0  0  0  0
  -27.2201  -28.5386   20.7153 C   0  0  0  0  0  0
  -26.0029  -26.8518   19.4884 C   0  0  0  0  0  0
  -24.8601  -27.6721   19.4834 C   0  0  0  0  0  0
  -23.6516  -29.8168   20.1568 C   0  0  0  0  0  0
  -25.4120  -36.3060   24.0323 C   0  0  1  0  0  0
  -20.5904  -28.3706   23.1257 C   0  0  2  0  0  0
  -20.6785  -26.9420   22.5404 C   0  0  0  0  0  0
  -19.5758  -26.6383   21.5211 C   0  0  0  0  0  0
  -18.1939  -26.7930   22.1625 C   0  0  0  0  0  0
  -19.1551  -28.8865   23.2864 C   0  0  0  0  0  0
  -18.9470  -30.1464   23.8885 C   0  0  0  0  0  0
  -17.6468  -30.6589   24.0561 C   0  0  0  0  0  0
  -25.9065  -34.9432   23.5085 C   0  0  0  0  0  0
  -16.5359  -29.9084   23.6333 C   0  0  0  0  0  0
  -16.7282  -28.6502   23.0354 C   0  0  0  0  0  0
  -26.4514  -31.6578   25.0729 C   0  0  0  0  0  0
  -25.3719  -31.3738   26.1436 C   0  0  0  0  0  0
  -27.0373  -30.2988   24.6251 C   0  0  0  0  0  0
  -27.6053  -32.4332   25.7511 C   0  0  0  0  0  0
  -27.5579  -37.1795   24.8465 C   0  0  0  0  0  0
  -21.4226  -29.3049   22.3641 N   0  0  0  0  0  0
  -26.4291  -37.3763   23.9407 N   0  0  0  0  0  0
  -24.7034  -31.0466   22.0963 N   0  0  0  0  0  0
  -23.4210  -28.8129   23.3001 O   0  0  0  0  0  0
  -28.3052  -26.3109   20.2078 O   0  0  0  0  0  0
  -26.5639  -34.8912   22.4656 O   0  0  0  0  0  0
  -23.5496  -32.1366   23.7245 O   0  0  0  0  0  0
  -30.0292  -23.1270   20.3748 C   0  0  0  0  0  0
  -27.8521  -22.4337   19.9120 C   0  0  0  0  0  0
  -28.7300  -23.5536   20.0117 C   0  0  0  0  0  0
  -29.4829  -20.8338   20.4157 C   0  0  0  0  0  0
  -29.9393  -17.0530   19.5123 C   0  0  0  0  0  0
  -29.9808  -17.0289   21.5320 C   0  0  0  0  0  0
  -29.3815  -18.0835   20.5408 C   0  0  0  0  0  0
  -28.3732  -25.0139   19.4297 C   0  0  0  0  0  0
  -30.3821  -21.8112   20.5682 N   0  0  0  0  0  0
  -28.2144  -21.1150   20.1104 N   0  0  0  0  0  0
  -29.8289  -15.9372   20.5155 N   0  0  0  0  0  0
  -29.9759  -19.4859   20.5603 N   0  0  0  0  0  0
  -31.4726  -12.6022   19.1696 H   0  0  0  0  0  0
  -30.3824  -11.5045   19.9711 H   0  0  0  0  0  0
  -29.7968  -11.7270   17.5295 H   0  0  0  0  0  0
  -29.6312  -13.4561   17.7112 H   0  0  0  0  0  0
  -27.9001  -11.2814   18.9252 H   0  0  0  0  0  0
  -27.3786  -12.5096   17.8031 H   0  0  0  0  0  0
  -27.6271  -14.2553   19.4570 H   0  0  0  0  0  0
  -28.7274  -12.2070   21.4421 H   0  0  0  0  0  0
  -28.4195  -13.8981   21.7727 H   0  0  0  0  0  0
  -25.2769   -9.5689   22.4757 H   0  0  0  0  0  0
  -24.0008   -7.4639   22.7472 H   0  0  0  0  0  0
  -21.0847   -8.8778   19.8952 H   0  0  0  0  0  0
  -22.3703  -10.9676   19.6164 H   0  0  0  0  0  0
  -21.2008   -7.6149   23.9716 H   0  0  0  0  0  0
  -21.1483   -6.0524   25.9078 H   0  0  0  0  0  0
  -22.0597   -2.7610   23.2846 H   0  0  0  0  0  0
  -22.4094  -11.9874   22.4811 H   0  0  0  0  0  0
  -21.1088  -13.1229   22.2633 H   0  0  0  0  0  0
  -24.6649  -15.8555   20.5428 H   0  0  0  0  0  0
  -26.2913  -15.6321   20.1364 H   0  0  0  0  0  0
  -26.7229  -32.5371   23.1056 H   0  0  0  0  0  0
  -25.0083  -33.9674   25.0380 H   0  0  0  0  0  0
  -22.7309  -31.3017   21.3971 H   0  0  0  0  0  0
  -23.3750  -35.9613   23.3312 H   0  0  0  0  0  0
  -24.3576  -36.8891   22.2052 H   0  0  0  0  0  0
  -23.7253  -37.6483   23.6660 H   0  0  0  0  0  0
  -26.1313  -31.5155   20.6162 H   0  0  0  0  0  0
  -26.8580  -30.7978   22.0210 H   0  0  0  0  0  0
  -28.1166  -28.8782   21.2149 H   0  0  0  0  0  0
  -25.8587  -25.8895   19.0297 H   0  0  0  0  0  0
  -23.9554  -27.3153   19.0104 H   0  0  0  0  0  0
  -23.7808  -30.5956   19.4044 H   0  0  0  0  0  0
  -22.7677  -29.2558   19.8479 H   0  0  0  0  0  0
  -25.1304  -36.1902   25.0815 H   0  0  0  0  0  0
  -20.9997  -28.3287   24.1378 H   0  0  0  0  0  0
  -20.5685  -26.2317   23.3613 H   0  0  0  0  0  0
  -21.6651  -26.7439   22.1197 H   0  0  0  0  0  0
  -19.6919  -25.6291   21.1249 H   0  0  0  0  0  0
  -19.6693  -27.3187   20.6736 H   0  0  0  0  0  0
  -17.4207  -26.6672   21.4031 H   0  0  0  0  0  0
  -18.0343  -26.0076   22.9027 H   0  0  0  0  0  0
  -19.7946  -30.7284   24.2249 H   0  0  0  0  0  0
  -17.5022  -31.6268   24.5163 H   0  0  0  0  0  0
  -15.5359  -30.2982   23.7664 H   0  0  0  0  0  0
  -15.8682  -28.0817   22.7076 H   0  0  0  0  0  0
  -24.5914  -30.7065   25.7763 H   0  0  0  0  0  0
  -24.8887  -32.2908   26.4818 H   0  0  0  0  0  0
  -25.8025  -30.8950   27.0240 H   0  0  0  0  0  0
  -26.2975  -29.6725   24.1252 H   0  0  0  0  0  0
  -27.4012  -29.7265   25.4794 H   0  0  0  0  0  0
  -27.8870  -30.4251   23.9538 H   0  0  0  0  0  0
  -27.2645  -33.3632   26.2074 H   0  0  0  0  0  0
  -28.3873  -32.6895   25.0351 H   0  0  0  0  0  0
  -28.0714  -31.8471   26.5443 H   0  0  0  0  0  0
  -28.2591  -38.0097   24.7513 H   0  0  0  0  0  0
  -28.1080  -36.2627   24.6290 H   0  0  0  0  0  0
  -27.2296  -37.1442   25.8867 H   0  0  0  0  0  0
  -20.9416  -29.8776   21.6847 H   0  0  0  0  0  0
  -26.0165  -38.2835   24.1407 H   0  0  0  0  0  0
  -30.8356  -23.8432   20.4328 H   0  0  0  0  0  0
  -26.8339  -22.5846   19.5844 H   0  0  0  0  0  0
  -30.9649  -17.2598   19.1953 H   0  0  0  0  0  0
  -29.2968  -16.9333   18.6389 H   0  0  0  0  0  0
  -29.3725  -16.8931   22.4273 H   0  0  0  0  0  0
  -31.0201  -17.2210   21.8108 H   0  0  0  0  0  0
  -28.2902  -18.0923   20.5617 H   0  0  0  0  0  0
  -27.5328  -24.8672   18.7613 H   0  0  0  0  0  0
  -29.1813  -25.2069   18.7234 H   0  0  0  0  0  0
  -30.9667  -19.4816   20.7660 H   0  0  0  0  0  0
  1 25  1  0  0  0
  1 30  2  0  0  0
  1 81  1  0  0  0
  2  3  1  0  0  0
  2 25  1  0  0  0
  2 83  1  0  0  0
  2 84  1  0  0  0
  3  4  1  0  0  0
  3 85  1  0  0  0
  3 86  1  0  0  0
  4  5  1  0  0  0
  4 87  1  0  0  0
  4 88  1  0  0  0
  5  6  1  0  0  0
  5 26  1  0  0  0
  5 89  1  0  0  0
  6 25  1  0  0  0
  6 90  1  0  0  0
  6 91  1  0  0  0
  7  8  2  0  0  0
  7 26  1  0  0  0
  7 29  1  0  0  0
  8  9  1  0  0  0
  8 22  1  0  0  0
  9 10  1  0  0  0
  9 27  2  0  0  0
 10 11  2  0  0  0
 10 15  1  0  0  0
 11 12  1  0  0  0
 11 92  1  0  0  0
 12 13  2  0  0  0
 12 93  1  0  0  0
 13 14  1  0  0  0
 13 31  1  0  0  0
 14 15  2  0  0  0
 14 94  1  0  0  0
 15 95  1  0  0  0
 16 17  2  0  0  0
 16 21  1  0  0  0
 16 31  1  0  0  0
 17 18  1  0  0  0
 17 96  1  0  0  0
 18 19  2  0  0  0
 18 97  1  0  0  0
 19 20  1  0  0  0
 19 24  1  0  0  0
 20 21  2  0  0  0
 20 98  1  0  0  0
 21 23  1  0  0  0
 22 28  1  0  0  0
 22 32  2  0  0  0
 26 27  1  0  0  0
 28 99  1  0  0  0
 28100  1  0  0  0
 29101  1  0  0  0
 29102  1  0  0  0
 33 34  1  0  0  0
 33 66  1  0  0  0
 33 70  2  0  0  0
 34 36  1  0  0  0
 34 59  1  0  0  0
 34103  1  0  0  0
 35 44  2  0  0  0
 35 45  1  0  0  0
 35 68  1  0  0  0
 36 56  1  0  0  0
 36104  1  0  0  0
 37 39  1  0  0  0
 37 47  1  0  0  0
 37 66  1  0  0  0
 37105  1  0  0  0
 38 43  2  0  0  0
 38 46  1  0  0  0
 38 47  1  0  0  0
 39 64  1  0  0  0
 39 67  2  0  0  0
 40 52  1  0  0  0
 40 53  2  0  0  0
 40 58  1  0  0  0
 41106  1  0  0  0
 41107  1  0  0  0
 41108  1  0  0  0
 41 48  1  0  0  0
 42 43  1  0  0  0
 42 66  1  0  0  0
 42109  1  0  0  0
 42110  1  0  0  0
 43 44  1  0  0  0
 44111  1  0  0  0
 45 46  2  0  0  0
 45112  1  0  0  0
 46113  1  0  0  0
 47114  1  0  0  0
 47115  1  0  0  0
 48 56  1  0  0  0
 48 65  1  0  0  0
 48116  1  0  0  0
 49 50  1  0  0  0
 49 53  1  0  0  0
 49 64  1  0  0  0
 49117  1  0  0  0
 50 51  1  0  0  0
 50118  1  0  0  0
 50119  1  0  0  0
 51 52  1  0  0  0
 51120  1  0  0  0
 51121  1  0  0  0
 52122  1  0  0  0
 52123  1  0  0  0
 53 54  1  0  0  0
 54 55  2  0  0  0
 54124  1  0  0  0
 55 57  1  0  0  0
 55125  1  0  0  0
 56 69  2  0  0  0
 57 58  2  0  0  0
 57126  1  0  0  0
 58127  1  0  0  0
 59 60  1  0  0  0
 59 61  1  0  0  0
 59 62  1  0  0  0
 60128  1  0  0  0
 60129  1  0  0  0
 60130  1  0  0  0
 61131  1  0  0  0
 61132  1  0  0  0
 61133  1  0  0  0
 62134  1  0  0  0
 62135  1  0  0  0
 62136  1  0  0  0
 63 65  1  0  0  0
 63137  1  0  0  0
 63138  1  0  0  0
 63139  1  0  0  0
 64140  1  0  0  0
 65141  1  0  0  0
 68 78  1  0  0  0
 71 73  2  0  0  0
 71 79  1  0  0  0
 71142  1  0  0  0
 72 73  1  0  0  0
 72 80  2  0  0  0
 72143  1  0  0  0
 73 78  1  0  0  0
 74 79  2  0  0  0
 74 80  1  0  0  0
 74 82  1  0  0  0
 75 77  1  0  0  0
 75 81  1  0  0  0
 75144  1  0  0  0
 75145  1  0  0  0
 76 77  1  0  0  0
 76 81  1  0  0  0
 76146  1  0  0  0
 76147  1  0  0  0
 77 82  1  0  0  0
 77148  1  0  0  0
 78149  1  0  0  0
 78150  1  0  0  0
 82151  1  0  0  0
M  ISO  4   1 100  68 101  78 101  81 100
M  END
> <chiral flag>
0

> <version>
0

> <s_m_source_file>
/data/baiqing/PycharmProjects/Reinvent-master-3.2/result/LINK_invent/BTK/process_docking_weight1_custom_sum_contain_oxygen_bond_distance_aromatic_linkinvent_7_9_3/rearranged_h_0196.sdf

> <i_m_source_file_index>
89

> <r_mmod_Potential_Energy-OPLS-2005>
-214.512588500977

> <r_mmod_Stretch_Energy-OPLS-2005>
120.89820098877

> <r_mmod_Bend_Energy-OPLS-2005>
219.426559448242

> <r_mmod_Torsional_Energy-OPLS-2005>
268.275238037109

> <r_mmod_Improper_Torsional_Energy-OPLS-2005>
17.8892192840576

> <r_mmod_Van_der_Waal_Energy-OPLS-2005>
144.639785766602

> <r_mmod_Electrostatic_Energy-OPLS-2005>
-859.960571289062

> <r_mmod_Solvation_Energy-OPLS-2005>
-230.380645751953

> <b_mmod_Minimization_Converged-OPLS-2005>
0

> <r_mmod_RMS_Derivative-OPLS-2005>
0.134713381528854

$$$$
90
                    3D
 Structure written by MMmdl.
174183  0  0  1  0            999 V2000
  -30.7682  -14.3498   20.6891 C   0  0  0  0  0  0
  -30.4164  -12.2823   19.3925 C   0  0  0  0  0  0
  -29.4835  -12.5179   18.1905 C   0  0  0  0  0  0
  -28.0080  -12.3725   18.6087 C   0  0  0  0  0  0
  -27.6650  -13.1973   19.8765 C   0  0  2  0  0  0
  -28.7009  -12.9366   20.9917 C   0  0  0  0  0  0
  -25.2603  -13.8142   20.5663 C   0  0  0  0  0  0
  -24.1848  -13.0433   20.9178 C   0  0  0  0  0  0
  -24.6387  -11.6893   20.8734 C   0  0  0  0  0  0
  -23.9051  -10.4285   21.0407 C   0  0  0  0  0  0
  -24.3608   -9.4204   21.9186 C   0  0  0  0  0  0
  -23.6286   -8.2240   22.0756 C   0  0  0  0  0  0
  -22.4269   -8.0279   21.3547 C   0  0  0  0  0  0
  -21.9901   -9.0249   20.4650 C   0  0  0  0  0  0
  -22.7225  -10.2128   20.3056 C   0  0  0  0  0  0
  -21.6851   -6.0734   22.5283 C   0  0  0  0  0  0
  -21.4009   -6.5639   23.8215 C   0  0  0  0  0  0
  -21.3655   -5.6793   24.9176 C   0  0  0  0  0  0
  -21.6044   -4.3057   24.7227 C   0  0  0  0  0  0
  -21.8819   -3.8147   23.4351 C   0  0  0  0  0  0
  -21.9190   -4.6963   22.3406 C   0  0  0  0  0  0
  -22.7873  -13.5242   21.1843 C   0  0  0  0  0  0
  -22.1662   -4.2150   21.0983 F   0  0  0  0  0  0
  -21.5627   -3.4539   25.7741 F   0  0  0  0  0  0
  -30.0441  -13.2269   20.4557 N   0  0  0  0  0  0
  -26.3029  -12.9296   20.3350 N   0  0  0  0  0  0
  -25.9307  -11.6463   20.5755 N   0  0  0  0  0  0
  -22.0503  -12.8240   22.0394 N   0  0  0  0  0  0
  -25.4333  -15.1859   20.4041 N   0  0  0  0  0  0
  -31.8147  -14.6201   20.0964 O   0  0  0  0  0  0
  -21.6634   -6.8874   21.4243 O   0  0  0  0  0  0
  -22.3569  -14.5556   20.6695 O   0  0  0  0  0  0
  -24.6126  -31.8693   23.2145 C   0  0  0  0  0  0
  -25.9029  -32.4829   23.8409 C   0  0  1  0  0  0
  -27.2278  -27.4617   20.0739 C   0  0  0  0  0  0
  -25.5896  -33.8624   24.2340 N   0  0  0  0  0  0
  -23.3969  -30.4975   21.5560 C   0  0  2  0  0  0
  -24.8368  -28.9678   20.1201 C   0  0  0  0  0  0
  -22.7394  -29.4665   22.5004 C   0  0  0  0  0  0
  -18.0264  -28.1372   22.8504 C   0  0  0  0  0  0
  -24.1481  -36.7304   23.2643 C   0  0  0  0  0  0
  -25.9235  -30.8425   21.3622 C   0  0  0  0  0  0
  -25.9973  -29.4781   20.7126 C   0  0  0  0  0  0
  -27.1931  -28.7297   20.6937 C   0  0  0  0  0  0
  -26.0386  -26.9537   19.4974 C   0  0  0  0  0  0
  -24.8489  -27.7004   19.5170 C   0  0  0  0  0  0
  -23.6016  -29.8353   20.1695 C   0  0  0  0  0  0
  -25.4102  -36.3109   24.0343 C   0  0  1  0  0  0
  -20.5855  -28.3646   23.1314 C   0  0  2  0  0  0
  -20.6752  -26.9386   22.5403 C   0  0  0  0  0  0
  -19.5730  -26.6384   21.5202 C   0  0  0  0  0  0
  -18.1911  -26.7919   22.1624 C   0  0  0  0  0  0
  -19.1513  -28.8826   23.2918 C   0  0  0  0  0  0
  -18.9445  -30.1440   23.8928 C   0  0  0  0  0  0
  -17.6448  -30.6582   24.0579 C   0  0  0  0  0  0
  -25.9015  -34.9477   23.5130 C   0  0  0  0  0  0
  -16.5340  -29.9090   23.6339 C   0  0  0  0  0  0
  -16.7257  -28.6507   23.0355 C   0  0  0  0  0  0
  -26.4461  -31.6603   25.0731 C   0  0  0  0  0  0
  -25.3746  -31.3711   26.1494 C   0  0  0  0  0  0
  -27.0275  -30.3058   24.6063 C   0  0  0  0  0  0
  -27.6051  -32.4310   25.7479 C   0  0  0  0  0  0
  -27.5581  -37.1803   24.8476 C   0  0  0  0  0  0
  -21.4126  -29.3026   22.3743 N   0  0  0  0  0  0
  -26.4294  -37.3792   23.9419 N   0  0  0  0  0  0
  -24.6629  -31.0828   22.1032 N   0  0  0  0  0  0
  -23.4197  -28.8185   23.3006 O   0  0  0  0  0  0
  -28.4242  -26.7758   20.0481 O   0  0  0  0  0  0
  -26.5568  -34.8926   22.4688 O   0  0  0  0  0  0
  -23.5320  -32.1414   23.7556 O   0  0  0  0  0  0
  -31.5566  -19.9698   17.0975 C   0  0  0  0  0  0
  -31.2632  -21.4184   19.1153 C   0  0  0  0  0  0
  -30.7193  -24.8235   16.5779 C   0  0  0  0  0  0
  -31.9400  -18.8279   18.0491 C   0  0  0  0  0  0
  -31.6878  -20.2195   19.9775 C   0  0  0  0  0  0
  -30.1213  -24.2657   17.8555 C   0  0  1  0  0  0
  -31.8905  -21.3441   17.7049 C   0  0  0  0  0  0
  -31.4781  -23.7932   17.3848 C   0  0  1  0  0  0
  -29.9507  -25.1561   19.0697 C   0  0  0  0  0  0
  -31.5630  -17.7932   20.1442 C   0  0  0  0  0  0
  -30.9299  -16.3482   22.1871 C   0  0  0  0  0  0
  -28.5076  -25.6540   19.1762 C   0  0  0  0  0  0
  -30.6751  -17.6606   21.4016 C   0  0  2  0  0  0
  -31.2425  -18.9761   19.3343 N   0  0  0  0  0  0
  -30.2687  -15.1622   21.6296 N   0  0  0  0  0  0
  -29.2654  -17.7927   21.0033 N   0  3  0  0  0  0
  -31.4468  -22.4338   16.8013 N   0  3  0  0  0  0
  -31.4595  -12.3841   19.0862 H   0  0  0  0  0  0
  -30.3170  -11.2588   19.7571 H   0  0  0  0  0  0
  -29.7150  -11.8130   17.3912 H   0  0  0  0  0  0
  -29.6551  -13.5136   17.7798 H   0  0  0  0  0  0
  -27.8172  -11.3146   18.7937 H   0  0  0  0  0  0
  -27.3530  -12.6578   17.7849 H   0  0  0  0  0  0
  -27.7245  -14.2505   19.6019 H   0  0  0  0  0  0
  -28.6622  -11.8921   21.3045 H   0  0  0  0  0  0
  -28.4471  -13.5084   21.8843 H   0  0  0  0  0  0
  -25.2756   -9.5680   22.4757 H   0  0  0  0  0  0
  -23.9996   -7.4632   22.7474 H   0  0  0  0  0  0
  -21.0832   -8.8764   19.8958 H   0  0  0  0  0  0
  -22.3686  -10.9666   19.6163 H   0  0  0  0  0  0
  -21.1999   -7.6148   23.9718 H   0  0  0  0  0  0
  -21.1476   -6.0523   25.9080 H   0  0  0  0  0  0
  -22.0602   -2.7609   23.2851 H   0  0  0  0  0  0
  -22.4095  -11.9884   22.4767 H   0  0  0  0  0  0
  -21.1125  -13.1277   22.2599 H   0  0  0  0  0  0
  -24.6599  -15.8364   20.4924 H   0  0  0  0  0  0
  -26.2655  -15.6104   20.0174 H   0  0  0  0  0  0
  -26.7108  -32.5556   23.1177 H   0  0  0  0  0  0
  -25.0086  -33.9793   25.0514 H   0  0  0  0  0  0
  -22.6843  -31.3146   21.4234 H   0  0  0  0  0  0
  -23.3735  -35.9645   23.3321 H   0  0  0  0  0  0
  -24.3577  -36.8879   22.2053 H   0  0  0  0  0  0
  -23.7223  -37.6520   23.6624 H   0  0  0  0  0  0
  -26.0279  -31.6084   20.5917 H   0  0  0  0  0  0
  -26.8140  -30.8964   21.9760 H   0  0  0  0  0  0
  -28.0938  -29.1294   21.1387 H   0  0  0  0  0  0
  -26.0011  -25.9840   19.0228 H   0  0  0  0  0  0
  -23.9532  -27.2965   19.0661 H   0  0  0  0  0  0
  -23.7129  -30.6108   19.4113 H   0  0  0  0  0  0
  -22.7236  -29.2587   19.8730 H   0  0  0  0  0  0
  -25.1273  -36.1968   25.0832 H   0  0  0  0  0  0
  -20.9981  -28.3188   24.1417 H   0  0  0  0  0  0
  -20.5621  -26.2273   23.3593 H   0  0  0  0  0  0
  -21.6628  -26.7400   22.1213 H   0  0  0  0  0  0
  -19.6914  -25.6303   21.1215 H   0  0  0  0  0  0
  -19.6668  -27.3212   20.6747 H   0  0  0  0  0  0
  -17.4188  -26.6660   21.4024 H   0  0  0  0  0  0
  -18.0317  -26.0034   22.8992 H   0  0  0  0  0  0
  -19.7918  -30.7251   24.2303 H   0  0  0  0  0  0
  -17.5008  -31.6269   24.5161 H   0  0  0  0  0  0
  -15.5349  -30.3019   23.7642 H   0  0  0  0  0  0
  -15.8646  -28.0858   22.7051 H   0  0  0  0  0  0
  -24.5910  -30.7062   25.7839 H   0  0  0  0  0  0
  -24.8969  -32.2884   26.4956 H   0  0  0  0  0  0
  -25.8115  -30.8872   27.0241 H   0  0  0  0  0  0
  -26.2800  -29.6833   24.1137 H   0  0  0  0  0  0
  -27.4094  -29.7260   25.4472 H   0  0  0  0  0  0
  -27.8610  -30.4390   23.9162 H   0  0  0  0  0  0
  -27.2692  -33.3618   26.2052 H   0  0  0  0  0  0
  -28.3863  -32.6835   25.0305 H   0  0  0  0  0  0
  -28.0713  -31.8440   26.5395 H   0  0  0  0  0  0
  -28.2601  -38.0102   24.7513 H   0  0  0  0  0  0
  -28.1062  -36.2622   24.6293 H   0  0  0  0  0  0
  -27.2304  -37.1455   25.8887 H   0  0  0  0  0  0
  -20.9276  -29.8808   21.7014 H   0  0  0  0  0  0
  -26.0170  -38.2864   24.1443 H   0  0  0  0  0  0
  -30.4910  -19.9003   16.8735 H   0  0  0  0  0  0
  -32.0798  -19.8383   16.1494 H   0  0  0  0  0  0
  -31.5717  -22.3322   19.6245 H   0  0  0  0  0  0
  -30.1747  -21.4522   19.0492 H   0  0  0  0  0  0
  -31.0988  -25.8436   16.5980 H   0  0  0  0  0  0
  -30.2685  -24.5216   15.6346 H   0  0  0  0  0  0
  -33.0226  -18.8017   18.1942 H   0  0  0  0  0  0
  -31.6676  -17.8811   17.5789 H   0  0  0  0  0  0
  -31.2381  -20.3361   20.9636 H   0  0  0  0  0  0
  -32.7705  -20.2186   20.1259 H   0  0  0  0  0  0
  -29.3005  -23.5599   17.7298 H   0  0  0  0  0  0
  -32.9737  -21.4287   17.8088 H   0  0  0  0  0  0
  -32.3906  -24.0786   17.9059 H   0  0  0  0  0  0
  -30.6381  -26.0000   18.9966 H   0  0  0  0  0  0
  -30.2202  -24.6035   19.9700 H   0  0  0  0  0  0
  -31.4040  -16.9179   19.5179 H   0  0  0  0  0  0
  -32.6193  -17.7870   20.4208 H   0  0  0  0  0  0
  -30.5514  -16.4702   23.2026 H   0  0  0  0  0  0
  -32.0022  -16.1735   22.3000 H   0  0  0  0  0  0
  -27.8733  -24.8409   19.5358 H   0  0  0  0  0  0
  -28.1592  -25.9375   18.1799 H   0  0  0  0  0  0
  -30.9103  -18.4844   22.0762 H   0  0  0  0  0  0
  -29.4352  -14.8338   22.0972 H   0  0  0  0  0  0
  -28.9651  -16.9864   20.4906 H   0  0  0  0  0  0
  -29.2112  -18.5918   20.3935 H   0  0  0  0  0  0
  -28.6711  -17.9348   21.8004 H   0  0  0  0  0  0
  -30.5108  -22.2369   16.4857 H   0  0  0  0  0  0
  -32.0392  -22.4208   15.9851 H   0  0  0  0  0  0
  1 25  1  0  0  0
  1 30  2  0  0  0
  1 85  1  0  0  0
  2  3  1  0  0  0
  2 25  1  0  0  0
  2 88  1  0  0  0
  2 89  1  0  0  0
  3  4  1  0  0  0
  3 90  1  0  0  0
  3 91  1  0  0  0
  4  5  1  0  0  0
  4 92  1  0  0  0
  4 93  1  0  0  0
  5  6  1  0  0  0
  5 26  1  0  0  0
  5 94  1  0  0  0
  6 25  1  0  0  0
  6 95  1  0  0  0
  6 96  1  0  0  0
  7  8  2  0  0  0
  7 26  1  0  0  0
  7 29  1  0  0  0
  8  9  1  0  0  0
  8 22  1  0  0  0
  9 10  1  0  0  0
  9 27  2  0  0  0
 10 11  2  0  0  0
 10 15  1  0  0  0
 11 12  1  0  0  0
 11 97  1  0  0  0
 12 13  2  0  0  0
 12 98  1  0  0  0
 13 14  1  0  0  0
 13 31  1  0  0  0
 14 15  2  0  0  0
 14 99  1  0  0  0
 15100  1  0  0  0
 16 17  2  0  0  0
 16 21  1  0  0  0
 16 31  1  0  0  0
 17 18  1  0  0  0
 17101  1  0  0  0
 18 19  2  0  0  0
 18102  1  0  0  0
 19 20  1  0  0  0
 19 24  1  0  0  0
 20 21  2  0  0  0
 20103  1  0  0  0
 21 23  1  0  0  0
 22 28  1  0  0  0
 22 32  2  0  0  0
 26 27  1  0  0  0
 28104  1  0  0  0
 28105  1  0  0  0
 29106  1  0  0  0
 29107  1  0  0  0
 33 34  1  0  0  0
 33 66  1  0  0  0
 33 70  2  0  0  0
 34 36  1  0  0  0
 34 59  1  0  0  0
 34108  1  0  0  0
 35 44  2  0  0  0
 35 45  1  0  0  0
 35 68  1  0  0  0
 36 56  1  0  0  0
 36109  1  0  0  0
 37 39  1  0  0  0
 37 47  1  0  0  0
 37 66  1  0  0  0
 37110  1  0  0  0
 38 43  2  0  0  0
 38 46  1  0  0  0
 38 47  1  0  0  0
 39 64  1  0  0  0
 39 67  2  0  0  0
 40 52  1  0  0  0
 40 53  2  0  0  0
 40 58  1  0  0  0
 41111  1  0  0  0
 41112  1  0  0  0
 41113  1  0  0  0
 41 48  1  0  0  0
 42 43  1  0  0  0
 42 66  1  0  0  0
 42114  1  0  0  0
 42115  1  0  0  0
 43 44  1  0  0  0
 44116  1  0  0  0
 45 46  2  0  0  0
 45117  1  0  0  0
 46118  1  0  0  0
 47119  1  0  0  0
 47120  1  0  0  0
 48 56  1  0  0  0
 48 65  1  0  0  0
 48121  1  0  0  0
 49 50  1  0  0  0
 49 53  1  0  0  0
 49 64  1  0  0  0
 49122  1  0  0  0
 50 51  1  0  0  0
 50123  1  0  0  0
 50124  1  0  0  0
 51 52  1  0  0  0
 51125  1  0  0  0
 51126  1  0  0  0
 52127  1  0  0  0
 52128  1  0  0  0
 53 54  1  0  0  0
 54 55  2  0  0  0
 54129  1  0  0  0
 55 57  1  0  0  0
 55130  1  0  0  0
 56 69  2  0  0  0
 57 58  2  0  0  0
 57131  1  0  0  0
 58132  1  0  0  0
 59 60  1  0  0  0
 59 61  1  0  0  0
 59 62  1  0  0  0
 60133  1  0  0  0
 60134  1  0  0  0
 60135  1  0  0  0
 61136  1  0  0  0
 61137  1  0  0  0
 61138  1  0  0  0
 62139  1  0  0  0
 62140  1  0  0  0
 62141  1  0  0  0
 63 65  1  0  0  0
 63142  1  0  0  0
 63143  1  0  0  0
 63144  1  0  0  0
 64145  1  0  0  0
 65146  1  0  0  0
 68 82  1  0  0  0
 71 74  1  0  0  0
 71 77  1  0  0  0
 71147  1  0  0  0
 71148  1  0  0  0
 72 75  1  0  0  0
 72 77  1  0  0  0
 72149  1  0  0  0
 72150  1  0  0  0
 73 76  1  0  0  0
 73 78  1  0  0  0
 73151  1  0  0  0
 73152  1  0  0  0
 74 84  1  0  0  0
 74153  1  0  0  0
 74154  1  0  0  0
 75 84  1  0  0  0
 75155  1  0  0  0
 75156  1  0  0  0
 76 78  1  0  0  0
 76 79  1  0  0  0
 76157  1  0  0  0
 77 87  1  0  0  0
 77158  1  0  0  0
 78 87  1  0  0  0
 78159  1  0  0  0
 79 82  1  0  0  0
 79160  1  0  0  0
 79161  1  0  0  0
 80 83  1  0  0  0
 80 84  1  0  0  0
 80162  1  0  0  0
 80163  1  0  0  0
 81 83  1  0  0  0
 81 85  1  0  0  0
 81164  1  0  0  0
 81165  1  0  0  0
 82166  1  0  0  0
 82167  1  0  0  0
 83 86  1  0  0  0
 83168  1  0  0  0
 85169  1  0  0  0
 86170  1  0  0  0
 86171  1  0  0  0
 86172  1  0  0  0
 87173  1  0  0  0
 87174  1  0  0  0
M  CHG  2  86   1  87   1
M  ISO  4   1 100  68 101  82 101  85 100
M  END
> <chiral flag>
0

> <version>
0

> <s_m_source_file>
/data/baiqing/PycharmProjects/Reinvent-master-3.2/result/LINK_invent/BTK/process_docking_weight1_custom_sum_contain_oxygen_bond_distance_aromatic_linkinvent_7_9_3/rearranged_h_0196.sdf

> <i_m_source_file_index>
90

> <r_mmod_Potential_Energy-OPLS-2005>
-454.715087890625

> <r_mmod_Stretch_Energy-OPLS-2005>
33.1948089599609

> <r_mmod_Bend_Energy-OPLS-2005>
101.520782470703

> <r_mmod_Torsional_Energy-OPLS-2005>
314.212097167969

> <r_mmod_Improper_Torsional_Energy-OPLS-2005>
2.22514390945435

> <r_mmod_Van_der_Waal_Energy-OPLS-2005>
156.105102539062

> <r_mmod_Electrostatic_Energy-OPLS-2005>
-130.168411254883

> <r_mmod_Solvation_Energy-OPLS-2005>
-939.653198242188

> <b_mmod_Minimization_Converged-OPLS-2005>
0

> <r_mmod_RMS_Derivative-OPLS-2005>
1.68127799034119

$$$$
91
                    3D
 Structure written by MMmdl.
167176  0  0  1  0            999 V2000
  -30.6728  -14.4466   20.4747 C   0  0  0  0  0  0
  -30.4168  -12.2403   19.4205 C   0  0  0  0  0  0
  -29.4989  -12.4381   18.1944 C   0  0  0  0  0  0
  -28.0074  -12.3571   18.5943 C   0  0  0  0  0  0
  -27.6568  -13.1821   19.8653 C   0  0  2  0  0  0
  -28.7051  -12.9591   20.9798 C   0  0  0  0  0  0
  -25.2609  -13.8087   20.5671 C   0  0  0  0  0  0
  -24.1832  -13.0452   20.9165 C   0  0  0  0  0  0
  -24.6317  -11.6886   20.8714 C   0  0  0  0  0  0
  -23.8987  -10.4303   21.0391 C   0  0  0  0  0  0
  -24.3562   -9.4236   21.9160 C   0  0  0  0  0  0
  -23.6265   -8.2266   22.0743 C   0  0  0  0  0  0
  -22.4241   -8.0276   21.3541 C   0  0  0  0  0  0
  -21.9852   -9.0261   20.4652 C   0  0  0  0  0  0
  -22.7152  -10.2147   20.3060 C   0  0  0  0  0  0
  -21.6847   -6.0727   22.5294 C   0  0  0  0  0  0
  -21.4015   -6.5619   23.8228 C   0  0  0  0  0  0
  -21.3655   -5.6747   24.9174 C   0  0  0  0  0  0
  -21.6055   -4.3023   24.7204 C   0  0  0  0  0  0
  -21.8822   -3.8129   23.4317 C   0  0  0  0  0  0
  -21.9194   -4.6961   22.3379 C   0  0  0  0  0  0
  -22.7864  -13.5312   21.1816 C   0  0  0  0  0  0
  -22.1662   -4.2161   21.0956 F   0  0  0  0  0  0
  -21.5641   -3.4495   25.7703 F   0  0  0  0  0  0
  -30.0313  -13.2502   20.4127 N   0  0  0  0  0  0
  -26.3010  -12.9194   20.3346 N   0  0  0  0  0  0
  -25.9235  -11.6395   20.5742 N   0  0  0  0  0  0
  -22.0417  -12.8411   22.0375 N   0  0  0  0  0  0
  -25.4415  -15.1807   20.4051 N   0  0  0  0  0  0
  -31.8427  -14.6087   20.1171 O   0  0  0  0  0  0
  -21.6629   -6.8858   21.4246 O   0  0  0  0  0  0
  -22.3593  -14.5592   20.6577 O   0  0  0  0  0  0
  -24.6180  -31.8684   23.2091 C   0  0  0  0  0  0
  -25.9065  -32.4827   23.8390 C   0  0  1  0  0  0
  -27.2549  -27.4464   20.1012 C   0  0  0  0  0  0
  -25.5916  -33.8621   24.2326 N   0  0  0  0  0  0
  -23.4087  -30.4901   21.5498 C   0  0  2  0  0  0
  -24.8632  -28.9673   20.1110 C   0  0  0  0  0  0
  -22.7453  -29.4625   22.4969 C   0  0  0  0  0  0
  -18.0261  -28.1395   22.8507 C   0  0  0  0  0  0
  -24.1480  -36.7313   23.2635 C   0  0  0  0  0  0
  -25.9362  -30.8505   21.3516 C   0  0  0  0  0  0
  -26.0246  -29.4841   20.6988 C   0  0  0  0  0  0
  -27.2280  -28.7398   20.6771 C   0  0  0  0  0  0
  -26.0745  -26.9558   19.4955 C   0  0  0  0  0  0
  -24.8847  -27.7046   19.4986 C   0  0  0  0  0  0
  -23.6210  -29.8275   20.1632 C   0  0  0  0  0  0
  -25.4098  -36.3107   24.0340 C   0  0  1  0  0  0
  -20.5871  -28.3674   23.1325 C   0  0  2  0  0  0
  -20.6738  -26.9401   22.5430 C   0  0  0  0  0  0
  -19.5706  -26.6390   21.5225 C   0  0  0  0  0  0
  -18.1889  -26.7951   22.1638 C   0  0  0  0  0  0
  -19.1517  -28.8852   23.2913 C   0  0  0  0  0  0
  -18.9450  -30.1467   23.8929 C   0  0  0  0  0  0
  -17.6444  -30.6606   24.0570 C   0  0  0  0  0  0
  -25.9040  -34.9485   23.5128 C   0  0  0  0  0  0
  -16.5335  -29.9123   23.6331 C   0  0  0  0  0  0
  -16.7249  -28.6524   23.0365 C   0  0  0  0  0  0
  -26.4502  -31.6607   25.0713 C   0  0  0  0  0  0
  -25.3798  -31.3705   26.1483 C   0  0  0  0  0  0
  -27.0291  -30.3054   24.6034 C   0  0  0  0  0  0
  -27.6079  -32.4319   25.7492 C   0  0  0  0  0  0
  -27.5568  -37.1812   24.8465 C   0  0  0  0  0  0
  -21.4176  -29.3049   22.3748 N   0  0  0  0  0  0
  -26.4265  -37.3809   23.9432 N   0  0  0  0  0  0
  -24.6733  -31.0826   22.0959 N   0  0  0  0  0  0
  -23.4236  -28.8137   23.2964 O   0  0  0  0  0  0
  -28.3977  -26.6686   20.1511 O   0  0  0  0  0  0
  -26.5590  -34.8929   22.4687 O   0  0  0  0  0  0
  -23.5376  -32.1366   23.7523 O   0  0  0  0  0  0
  -28.8974  -19.7214   20.3028 C   0  0  0  0  0  0
  -30.7129  -22.8722   18.3499 C   0  0  0  0  0  0
  -29.2387  -23.1693   18.6197 C   0  0  0  0  0  0
  -28.5538  -17.4061   19.5183 C   0  0  0  0  0  0
  -29.8410  -17.7841   21.5965 C   0  0  0  0  0  0
  -29.5448  -16.2467   19.2770 C   0  0  0  0  0  0
  -29.6023  -16.2552   21.7587 C   0  0  0  0  0  0
  -30.9964  -21.7361   19.3313 C   0  0  0  0  0  0
  -29.1298  -23.0370   20.1454 C   0  0  2  0  0  0
  -29.5960  -20.7649   21.2113 C   0  0  0  0  0  0
  -29.3859  -24.4171   20.8284 C   0  0  0  0  0  0
  -28.1665  -25.3691   20.7298 C   0  0  0  0  0  0
  -29.1034  -18.3852   20.4699 N   0  0  0  0  0  0
  -29.8303  -15.5047   20.5162 N   0  0  0  0  0  0
  -30.1299  -21.9899   20.5201 N   0  3  1  0  0  0
  -28.1539  -20.1487   19.4166 O   0  0  0  0  0  0
  -31.4682  -12.3055   19.1392 H   0  0  0  0  0  0
  -30.2834  -11.2379   19.8344 H   0  0  0  0  0  0
  -29.7125  -11.6666   17.4518 H   0  0  0  0  0  0
  -29.7165  -13.3893   17.7095 H   0  0  0  0  0  0
  -27.7702  -11.3049   18.7648 H   0  0  0  0  0  0
  -27.3811  -12.6700   17.7577 H   0  0  0  0  0  0
  -27.6829  -14.2265   19.5703 H   0  0  0  0  0  0
  -28.6700  -11.9195   21.3087 H   0  0  0  0  0  0
  -28.4970  -13.5655   21.8627 H   0  0  0  0  0  0
  -25.2712   -9.5752   22.4732 H   0  0  0  0  0  0
  -23.9993   -7.4661   22.7454 H   0  0  0  0  0  0
  -21.0784   -8.8760   19.8968 H   0  0  0  0  0  0
  -22.3576  -10.9693   19.6181 H   0  0  0  0  0  0
  -21.1999   -7.6126   23.9738 H   0  0  0  0  0  0
  -21.1478   -6.0467   25.9084 H   0  0  0  0  0  0
  -22.0603   -2.7598   23.2792 H   0  0  0  0  0  0
  -22.3900  -12.0134   22.4978 H   0  0  0  0  0  0
  -21.1059  -13.1587   22.2469 H   0  0  0  0  0  0
  -24.6876  -15.8496   20.5203 H   0  0  0  0  0  0
  -26.3068  -15.6021   20.1024 H   0  0  0  0  0  0
  -26.7156  -32.5561   23.1178 H   0  0  0  0  0  0
  -25.0099  -33.9784   25.0492 H   0  0  0  0  0  0
  -22.6934  -31.3026   21.4097 H   0  0  0  0  0  0
  -23.3733  -35.9653   23.3308 H   0  0  0  0  0  0
  -24.3560  -36.8918   22.2041 H   0  0  0  0  0  0
  -23.7237  -37.6526   23.6645 H   0  0  0  0  0  0
  -26.0296  -31.6177   20.5810 H   0  0  0  0  0  0
  -26.8327  -30.9177   21.9577 H   0  0  0  0  0  0
  -28.1266  -29.1519   21.1170 H   0  0  0  0  0  0
  -26.0545  -25.9912   19.0097 H   0  0  0  0  0  0
  -23.9986  -27.3028   19.0289 H   0  0  0  0  0  0
  -23.7270  -30.6066   19.4075 H   0  0  0  0  0  0
  -22.7493  -29.2462   19.8589 H   0  0  0  0  0  0
  -25.1261  -36.1959   25.0827 H   0  0  0  0  0  0
  -20.9922  -28.3214   24.1461 H   0  0  0  0  0  0
  -20.5623  -26.2269   23.3619 H   0  0  0  0  0  0
  -21.6603  -26.7423   22.1212 H   0  0  0  0  0  0
  -19.6851  -25.6300   21.1256 H   0  0  0  0  0  0
  -19.6657  -27.3206   20.6757 H   0  0  0  0  0  0
  -17.4155  -26.6716   21.4039 H   0  0  0  0  0  0
  -18.0267  -26.0095   22.9028 H   0  0  0  0  0  0
  -19.7921  -30.7262   24.2321 H   0  0  0  0  0  0
  -17.5011  -31.6295   24.5168 H   0  0  0  0  0  0
  -15.5345  -30.3038   23.7658 H   0  0  0  0  0  0
  -15.8635  -28.0864   22.7091 H   0  0  0  0  0  0
  -24.6019  -30.6966   25.7868 H   0  0  0  0  0  0
  -24.8932  -32.2856   26.4884 H   0  0  0  0  0  0
  -25.8210  -30.8964   27.0268 H   0  0  0  0  0  0
  -26.2779  -29.6842   24.1143 H   0  0  0  0  0  0
  -27.4126  -29.7247   25.4432 H   0  0  0  0  0  0
  -27.8593  -30.4344   23.9084 H   0  0  0  0  0  0
  -27.2695  -33.3620   26.2070 H   0  0  0  0  0  0
  -28.3929  -32.6890   25.0367 H   0  0  0  0  0  0
  -28.0720  -31.8454   26.5433 H   0  0  0  0  0  0
  -28.2591  -38.0105   24.7514 H   0  0  0  0  0  0
  -28.1063  -36.2643   24.6285 H   0  0  0  0  0  0
  -27.2300  -37.1448   25.8873 H   0  0  0  0  0  0
  -20.9339  -29.8831   21.7027 H   0  0  0  0  0  0
  -26.0147  -38.2874   24.1496 H   0  0  0  0  0  0
  -31.3376  -23.7381   18.5836 H   0  0  0  0  0  0
  -30.9085  -22.5925   17.3145 H   0  0  0  0  0  0
  -28.6188  -22.4048   18.1484 H   0  0  0  0  0  0
  -28.9126  -24.1384   18.2390 H   0  0  0  0  0  0
  -27.6118  -17.0324   19.9219 H   0  0  0  0  0  0
  -28.3109  -17.8576   18.5547 H   0  0  0  0  0  0
  -30.9040  -17.9674   21.4418 H   0  0  0  0  0  0
  -29.5611  -18.2767   22.5293 H   0  0  0  0  0  0
  -29.1198  -15.5632   18.5387 H   0  0  0  0  0  0
  -30.4690  -16.6162   18.8280 H   0  0  0  0  0  0
  -30.2220  -15.8622   22.5672 H   0  0  0  0  0  0
  -28.5673  -16.0786   22.0587 H   0  0  0  0  0  0
  -32.0530  -21.6553   19.5855 H   0  0  0  0  0  0
  -30.7311  -20.8088   18.8224 H   0  0  0  0  0  0
  -28.1316  -22.6928   20.4254 H   0  0  0  0  0  0
  -30.4327  -20.3143   21.7405 H   0  0  0  0  0  0
  -28.8788  -21.0639   21.9800 H   0  0  0  0  0  0
  -30.2832  -24.8944   20.4293 H   0  0  0  0  0  0
  -29.5928  -24.2662   21.8896 H   0  0  0  0  0  0
  -27.7825  -25.5233   21.7392 H   0  0  0  0  0  0
  -27.3797  -24.8420   20.1922 H   0  0  0  0  0  0
  -30.7192  -22.4286   21.2112 H   0  0  0  0  0  0
  1 25  1  0  0  0
  1 30  2  0  0  0
  1 84  1  0  0  0
  2  3  1  0  0  0
  2 25  1  0  0  0
  2 87  1  0  0  0
  2 88  1  0  0  0
  3  4  1  0  0  0
  3 89  1  0  0  0
  3 90  1  0  0  0
  4  5  1  0  0  0
  4 91  1  0  0  0
  4 92  1  0  0  0
  5  6  1  0  0  0
  5 26  1  0  0  0
  5 93  1  0  0  0
  6 25  1  0  0  0
  6 94  1  0  0  0
  6 95  1  0  0  0
  7  8  2  0  0  0
  7 26  1  0  0  0
  7 29  1  0  0  0
  8  9  1  0  0  0
  8 22  1  0  0  0
  9 10  1  0  0  0
  9 27  2  0  0  0
 10 11  2  0  0  0
 10 15  1  0  0  0
 11 12  1  0  0  0
 11 96  1  0  0  0
 12 13  2  0  0  0
 12 97  1  0  0  0
 13 14  1  0  0  0
 13 31  1  0  0  0
 14 15  2  0  0  0
 14 98  1  0  0  0
 15 99  1  0  0  0
 16 17  2  0  0  0
 16 21  1  0  0  0
 16 31  1  0  0  0
 17 18  1  0  0  0
 17100  1  0  0  0
 18 19  2  0  0  0
 18101  1  0  0  0
 19 20  1  0  0  0
 19 24  1  0  0  0
 20 21  2  0  0  0
 20102  1  0  0  0
 21 23  1  0  0  0
 22 28  1  0  0  0
 22 32  2  0  0  0
 26 27  1  0  0  0
 28103  1  0  0  0
 28104  1  0  0  0
 29105  1  0  0  0
 29106  1  0  0  0
 33 34  1  0  0  0
 33 66  1  0  0  0
 33 70  2  0  0  0
 34 36  1  0  0  0
 34 59  1  0  0  0
 34107  1  0  0  0
 35 44  2  0  0  0
 35 45  1  0  0  0
 35 68  1  0  0  0
 36 56  1  0  0  0
 36108  1  0  0  0
 37 39  1  0  0  0
 37 47  1  0  0  0
 37 66  1  0  0  0
 37109  1  0  0  0
 38 43  2  0  0  0
 38 46  1  0  0  0
 38 47  1  0  0  0
 39 64  1  0  0  0
 39 67  2  0  0  0
 40 52  1  0  0  0
 40 53  2  0  0  0
 40 58  1  0  0  0
 41110  1  0  0  0
 41111  1  0  0  0
 41112  1  0  0  0
 41 48  1  0  0  0
 42 43  1  0  0  0
 42 66  1  0  0  0
 42113  1  0  0  0
 42114  1  0  0  0
 43 44  1  0  0  0
 44115  1  0  0  0
 45 46  2  0  0  0
 45116  1  0  0  0
 46117  1  0  0  0
 47118  1  0  0  0
 47119  1  0  0  0
 48 56  1  0  0  0
 48 65  1  0  0  0
 48120  1  0  0  0
 49 50  1  0  0  0
 49 53  1  0  0  0
 49 64  1  0  0  0
 49121  1  0  0  0
 50 51  1  0  0  0
 50122  1  0  0  0
 50123  1  0  0  0
 51 52  1  0  0  0
 51124  1  0  0  0
 51125  1  0  0  0
 52126  1  0  0  0
 52127  1  0  0  0
 53 54  1  0  0  0
 54 55  2  0  0  0
 54128  1  0  0  0
 55 57  1  0  0  0
 55129  1  0  0  0
 56 69  2  0  0  0
 57 58  2  0  0  0
 57130  1  0  0  0
 58131  1  0  0  0
 59 60  1  0  0  0
 59 61  1  0  0  0
 59 62  1  0  0  0
 60132  1  0  0  0
 60133  1  0  0  0
 60134  1  0  0  0
 61135  1  0  0  0
 61136  1  0  0  0
 61137  1  0  0  0
 62138  1  0  0  0
 62139  1  0  0  0
 62140  1  0  0  0
 63 65  1  0  0  0
 63141  1  0  0  0
 63142  1  0  0  0
 63143  1  0  0  0
 64144  1  0  0  0
 65145  1  0  0  0
 68 82  1  0  0  0
 71 80  1  0  0  0
 71 83  1  0  0  0
 71 86  2  0  0  0
 72 73  1  0  0  0
 72 78  1  0  0  0
 72146  1  0  0  0
 72147  1  0  0  0
 73 79  1  0  0  0
 73148  1  0  0  0
 73149  1  0  0  0
 74 76  1  0  0  0
 74 83  1  0  0  0
 74150  1  0  0  0
 74151  1  0  0  0
 75 77  1  0  0  0
 75 83  1  0  0  0
 75152  1  0  0  0
 75153  1  0  0  0
 76 84  1  0  0  0
 76154  1  0  0  0
 76155  1  0  0  0
 77 84  1  0  0  0
 77156  1  0  0  0
 77157  1  0  0  0
 78 85  1  0  0  0
 78158  1  0  0  0
 78159  1  0  0  0
 79 81  1  0  0  0
 79 85  1  0  0  0
 79160  1  0  0  0
 80161  1  0  0  0
 80162  1  0  0  0
 80 85  1  0  0  0
 81 82  1  0  0  0
 81163  1  0  0  0
 81164  1  0  0  0
 82165  1  0  0  0
 82166  1  0  0  0
 85167  1  0  0  0
M  CHG  1  85   1
M  ISO  4   1 100  68 101  82 101  84 100
M  END
> <chiral flag>
0

> <version>
0

> <s_m_source_file>
/data/baiqing/PycharmProjects/Reinvent-master-3.2/result/LINK_invent/BTK/process_docking_weight1_custom_sum_contain_oxygen_bond_distance_aromatic_linkinvent_7_9_3/rearranged_h_0196.sdf

> <i_m_source_file_index>
91

> <r_mmod_Potential_Energy-OPLS-2005>
142.447540283203

> <r_mmod_Stretch_Energy-OPLS-2005>
43.9743576049805

> <r_mmod_Bend_Energy-OPLS-2005>
129.639205932617

> <r_mmod_Torsional_Energy-OPLS-2005>
499.485229492188

> <r_mmod_Improper_Torsional_Energy-OPLS-2005>
14.2118501663208

> <r_mmod_Van_der_Waal_Energy-OPLS-2005>
151.313385009766

> <r_mmod_Electrostatic_Energy-OPLS-2005>
-268.797088623047

> <r_mmod_Solvation_Energy-OPLS-2005>
-444.890075683594

> <b_mmod_Minimization_Converged-OPLS-2005>
0

> <r_mmod_RMS_Derivative-OPLS-2005>
4.94789266586304

$$$$
92
                    3D
 Structure written by MMmdl.
165174  0  0  1  0            999 V2000
  -30.7715  -14.4287   20.6312 C   0  0  0  0  0  0
  -30.4127  -12.3013   19.4268 C   0  0  0  0  0  0
  -29.4908  -12.5133   18.2121 C   0  0  0  0  0  0
  -28.0150  -12.3657   18.6260 C   0  0  0  0  0  0
  -27.6595  -13.2047   19.8803 C   0  0  2  0  0  0
  -28.7062  -12.9949   21.0022 C   0  0  0  0  0  0
  -25.2544  -13.8150   20.5719 C   0  0  0  0  0  0
  -24.1815  -13.0410   20.9159 C   0  0  0  0  0  0
  -24.6375  -11.6880   20.8720 C   0  0  0  0  0  0
  -23.9057  -10.4271   21.0401 C   0  0  0  0  0  0
  -24.3592   -9.4189   21.9190 C   0  0  0  0  0  0
  -23.6280   -8.2211   22.0731 C   0  0  0  0  0  0
  -22.4264   -8.0260   21.3518 C   0  0  0  0  0  0
  -21.9902   -9.0230   20.4621 C   0  0  0  0  0  0
  -22.7217  -10.2123   20.3067 C   0  0  0  0  0  0
  -21.6835   -6.0748   22.5284 C   0  0  0  0  0  0
  -21.4013   -6.5654   23.8228 C   0  0  0  0  0  0
  -21.3644   -5.6805   24.9183 C   0  0  0  0  0  0
  -21.6046   -4.3063   24.7236 C   0  0  0  0  0  0
  -21.8798   -3.8157   23.4349 C   0  0  0  0  0  0
  -21.9187   -4.6976   22.3414 C   0  0  0  0  0  0
  -22.7853  -13.5215   21.1856 C   0  0  0  0  0  0
  -22.1659   -4.2179   21.0981 F   0  0  0  0  0  0
  -21.5612   -3.4529   25.7720 F   0  0  0  0  0  0
  -30.0398  -13.2923   20.4548 N   0  0  0  0  0  0
  -26.3001  -12.9331   20.3436 N   0  0  0  0  0  0
  -25.9309  -11.6479   20.5802 N   0  0  0  0  0  0
  -22.0519  -12.8182   22.0388 N   0  0  0  0  0  0
  -25.4274  -15.1890   20.4213 N   0  0  0  0  0  0
  -31.8444  -14.6187   20.0605 O   0  0  0  0  0  0
  -21.6618   -6.8860   21.4236 O   0  0  0  0  0  0
  -22.3535  -14.5553   20.6758 O   0  0  0  0  0  0
  -24.6142  -31.8669   23.2048 C   0  0  0  0  0  0
  -25.9047  -32.4815   23.8345 C   0  0  1  0  0  0
  -27.2433  -27.4187   20.1192 C   0  0  0  0  0  0
  -25.5894  -33.8614   24.2282 N   0  0  0  0  0  0
  -23.4003  -30.4889   21.5449 C   0  0  2  0  0  0
  -24.8497  -28.9439   20.1160 C   0  0  0  0  0  0
  -22.7362  -29.4716   22.4996 C   0  0  0  0  0  0
  -18.0252  -28.1444   22.8508 C   0  0  0  0  0  0
  -24.1495  -36.7299   23.2640 C   0  0  0  0  0  0
  -25.9268  -30.8363   21.3502 C   0  0  0  0  0  0
  -26.0083  -29.4660   20.7030 C   0  0  0  0  0  0
  -27.2048  -28.7146   20.6886 C   0  0  0  0  0  0
  -26.0647  -26.9093   19.5267 C   0  0  0  0  0  0
  -24.8750  -27.6670   19.5233 C   0  0  0  0  0  0
  -23.6071  -29.8077   20.1645 C   0  0  0  0  0  0
  -25.4115  -36.3095   24.0317 C   0  0  1  0  0  0
  -20.5840  -28.3758   23.1337 C   0  0  2  0  0  0
  -20.6804  -26.9503   22.5419 C   0  0  0  0  0  0
  -19.5745  -26.6398   21.5281 C   0  0  0  0  0  0
  -18.1923  -26.7965   22.1689 C   0  0  0  0  0  0
  -19.1493  -28.8906   23.2933 C   0  0  0  0  0  0
  -18.9429  -30.1523   23.8912 C   0  0  0  0  0  0
  -17.6438  -30.6662   24.0583 C   0  0  0  0  0  0
  -25.9038  -34.9474   23.5090 C   0  0  0  0  0  0
  -16.5329  -29.9141   23.6364 C   0  0  0  0  0  0
  -16.7241  -28.6564   23.0356 C   0  0  0  0  0  0
  -26.4488  -31.6589   25.0663 C   0  0  0  0  0  0
  -25.3765  -31.3672   26.1410 C   0  0  0  0  0  0
  -27.0301  -30.3027   24.6014 C   0  0  0  0  0  0
  -27.6059  -32.4297   25.7447 C   0  0  0  0  0  0
  -27.5579  -37.1805   24.8467 C   0  0  0  0  0  0
  -21.4084  -29.3134   22.3737 N   0  0  0  0  0  0
  -26.4302  -37.3773   23.9402 N   0  0  0  0  0  0
  -24.6653  -31.0796   22.0924 N   0  0  0  0  0  0
  -23.4131  -28.8262   23.3041 O   0  0  0  0  0  0
  -28.4405  -26.7259   20.1602 O   0  0  0  0  0  0
  -26.5630  -34.8933   22.4678 O   0  0  0  0  0  0
  -23.5345  -32.1421   23.7466 O   0  0  0  0  0  0
  -27.3137  -21.2996   18.6732 C   0  0  0  0  0  0
  -28.5972  -20.6404   20.9294 C   0  0  0  0  0  0
  -28.1951  -19.6126   20.0078 C   0  0  0  0  0  0
  -28.3032  -21.9965   20.5779 C   0  0  0  0  0  0
  -29.5128  -17.1165   18.8870 C   0  0  0  0  0  0
  -28.0171  -17.3676   18.9136 C   0  0  0  0  0  0
  -29.5111  -17.4318   20.3874 C   0  0  2  0  0  0
  -28.3985  -19.5201   23.2493 C   0  0  0  0  0  0
  -29.2665  -16.2801   21.4057 C   0  0  0  0  0  0
  -27.9957  -24.4520   21.1804 C   0  0  0  0  0  0
  -28.5103  -25.2972   19.9748 C   0  0  0  0  0  0
  -29.2692  -20.3282   22.2783 C   0  0  1  0  0  0
  -27.5504  -20.0212   18.8976 N   0  0  0  0  0  0
  -27.6564  -22.3001   19.4527 N   0  0  0  0  0  0
  -28.2476  -18.1567   20.1401 N   0  0  0  0  0  0
  -28.6393  -23.1266   21.3565 N   0  0  0  0  0  0
  -30.3728  -15.3227   21.5470 N   0  0  0  0  0  0
  -30.4439  -19.7251   22.1108 F   0  0  0  0  0  0
  -31.4581  -12.3786   19.1213 H   0  0  0  0  0  0
  -30.3032  -11.2885   19.8212 H   0  0  0  0  0  0
  -29.7334  -11.8032   17.4207 H   0  0  0  0  0  0
  -29.6652  -13.5048   17.7910 H   0  0  0  0  0  0
  -27.8298  -11.3106   18.8298 H   0  0  0  0  0  0
  -27.3680  -12.6390   17.7940 H   0  0  0  0  0  0
  -27.6991  -14.2488   19.5774 H   0  0  0  0  0  0
  -28.6856  -11.9595   21.3481 H   0  0  0  0  0  0
  -28.4673  -13.5999   21.8756 H   0  0  0  0  0  0
  -25.2733   -9.5672   22.4767 H   0  0  0  0  0  0
  -23.9987   -7.4599   22.7446 H   0  0  0  0  0  0
  -21.0838   -8.8758   19.8914 H   0  0  0  0  0  0
  -22.3686  -10.9668   19.6179 H   0  0  0  0  0  0
  -21.2022   -7.6174   23.9729 H   0  0  0  0  0  0
  -21.1487   -6.0548   25.9091 H   0  0  0  0  0  0
  -22.0605   -2.7629   23.2846 H   0  0  0  0  0  0
  -22.4094  -11.9798   22.4747 H   0  0  0  0  0  0
  -21.1152  -13.1227   22.2644 H   0  0  0  0  0  0
  -24.6707  -15.8530   20.5455 H   0  0  0  0  0  0
  -26.3002  -15.6356   20.1840 H   0  0  0  0  0  0
  -26.7103  -32.5530   23.1107 H   0  0  0  0  0  0
  -25.0010  -33.9769   25.0394 H   0  0  0  0  0  0
  -22.6896  -31.3043   21.3999 H   0  0  0  0  0  0
  -23.3753  -35.9644   23.3334 H   0  0  0  0  0  0
  -24.3568  -36.8894   22.2048 H   0  0  0  0  0  0
  -23.7261  -37.6508   23.6645 H   0  0  0  0  0  0
  -26.0313  -31.6037   20.5815 H   0  0  0  0  0  0
  -26.8170  -30.8949   21.9654 H   0  0  0  0  0  0
  -28.1040  -29.1240   21.1296 H   0  0  0  0  0  0
  -26.0514  -25.9322   19.0667 H   0  0  0  0  0  0
  -23.9834  -27.2561   19.0685 H   0  0  0  0  0  0
  -23.6973  -30.5724   19.3926 H   0  0  0  0  0  0
  -22.7335  -29.2151   19.8855 H   0  0  0  0  0  0
  -25.1316  -36.1948   25.0803 H   0  0  0  0  0  0
  -20.9924  -28.3353   24.1459 H   0  0  0  0  0  0
  -21.6665  -26.7681   22.1141 H   0  0  0  0  0  0
  -20.5890  -26.2351   23.3618 H   0  0  0  0  0  0
  -19.6939  -25.6279   21.1407 H   0  0  0  0  0  0
  -19.6697  -27.3113   20.6731 H   0  0  0  0  0  0
  -17.4200  -26.6674   21.4109 H   0  0  0  0  0  0
  -18.0339  -26.0143   22.9147 H   0  0  0  0  0  0
  -19.7915  -30.7368   24.2211 H   0  0  0  0  0  0
  -17.5010  -31.6352   24.5161 H   0  0  0  0  0  0
  -15.5336  -30.3033   23.7757 H   0  0  0  0  0  0
  -15.8617  -28.0903   22.7081 H   0  0  0  0  0  0
  -24.5959  -30.6999   25.7743 H   0  0  0  0  0  0
  -24.8948  -32.2817   26.4871 H   0  0  0  0  0  0
  -25.8149  -30.8838   27.0150 H   0  0  0  0  0  0
  -26.2802  -29.6784   24.1135 H   0  0  0  0  0  0
  -27.4136  -29.7270   25.4448 H   0  0  0  0  0  0
  -27.8614  -30.4331   23.9080 H   0  0  0  0  0  0
  -27.2671  -33.3581   26.2055 H   0  0  0  0  0  0
  -28.3881  -32.6878   25.0296 H   0  0  0  0  0  0
  -28.0709  -31.8392   26.5355 H   0  0  0  0  0  0
  -28.2622  -38.0079   24.7500 H   0  0  0  0  0  0
  -28.1054  -36.2616   24.6331 H   0  0  0  0  0  0
  -27.2287  -37.1481   25.8866 H   0  0  0  0  0  0
  -20.9266  -29.8826   21.6913 H   0  0  0  0  0  0
  -26.0196  -38.2853   24.1407 H   0  0  0  0  0  0
  -26.7860  -21.5488   17.7648 H   0  0  0  0  0  0
  -30.0618  -17.8446   18.2867 H   0  0  0  0  0  0
  -29.7741  -16.0976   18.6092 H   0  0  0  0  0  0
  -27.6493  -17.8458   18.0056 H   0  0  0  0  0  0
  -27.4592  -16.4542   19.1022 H   0  0  0  0  0  0
  -30.3595  -18.0654   20.6293 H   0  0  0  0  0  0
  -27.5207  -20.0846   23.5653 H   0  0  0  0  0  0
  -28.9621  -19.2643   24.1483 H   0  0  0  0  0  0
  -28.0414  -18.5933   22.8119 H   0  0  0  0  0  0
  -29.1087  -16.6996   22.3992 H   0  0  0  0  0  0
  -28.3481  -15.7456   21.1743 H   0  0  0  0  0  0
  -26.9128  -24.3373   21.1072 H   0  0  0  0  0  0
  -28.1756  -25.0115   22.1000 H   0  0  0  0  0  0
  -28.0527  -24.9898   19.0358 H   0  0  0  0  0  0
  -29.5738  -25.0870   19.8538 H   0  0  0  0  0  0
  -29.5381  -21.2487   22.7960 H   0  0  0  0  0  0
  -29.1015  -22.9720   22.2449 H   0  0  0  0  0  0
  -31.1770  -15.7889   21.9431 H   0  0  0  0  0  0
  1 25  1  0  0  0
  1 30  2  0  0  0
  1 87  1  0  0  0
  2  3  1  0  0  0
  2 25  1  0  0  0
  2 89  1  0  0  0
  2 90  1  0  0  0
  3  4  1  0  0  0
  3 91  1  0  0  0
  3 92  1  0  0  0
  4  5  1  0  0  0
  4 93  1  0  0  0
  4 94  1  0  0  0
  5  6  1  0  0  0
  5 26  1  0  0  0
  5 95  1  0  0  0
  6 25  1  0  0  0
  6 96  1  0  0  0
  6 97  1  0  0  0
  7  8  2  0  0  0
  7 26  1  0  0  0
  7 29  1  0  0  0
  8  9  1  0  0  0
  8 22  1  0  0  0
  9 10  1  0  0  0
  9 27  2  0  0  0
 10 11  2  0  0  0
 10 15  1  0  0  0
 11 12  1  0  0  0
 11 98  1  0  0  0
 12 13  2  0  0  0
 12 99  1  0  0  0
 13 14  1  0  0  0
 13 31  1  0  0  0
 14 15  2  0  0  0
 14100  1  0  0  0
 15101  1  0  0  0
 16 17  2  0  0  0
 16 21  1  0  0  0
 16 31  1  0  0  0
 17 18  1  0  0  0
 17102  1  0  0  0
 18 19  2  0  0  0
 18103  1  0  0  0
 19 20  1  0  0  0
 19 24  1  0  0  0
 20 21  2  0  0  0
 20104  1  0  0  0
 21 23  1  0  0  0
 22 28  1  0  0  0
 22 32  2  0  0  0
 26 27  1  0  0  0
 28105  1  0  0  0
 28106  1  0  0  0
 29107  1  0  0  0
 29108  1  0  0  0
 33 34  1  0  0  0
 33 66  1  0  0  0
 33 70  2  0  0  0
 34 36  1  0  0  0
 34 59  1  0  0  0
 34109  1  0  0  0
 35 44  2  0  0  0
 35 45  1  0  0  0
 35 68  1  0  0  0
 36 56  1  0  0  0
 36110  1  0  0  0
 37 39  1  0  0  0
 37 47  1  0  0  0
 37 66  1  0  0  0
 37111  1  0  0  0
 38 43  2  0  0  0
 38 46  1  0  0  0
 38 47  1  0  0  0
 39 64  1  0  0  0
 39 67  2  0  0  0
 40 52  1  0  0  0
 40 53  2  0  0  0
 40 58  1  0  0  0
 41112  1  0  0  0
 41113  1  0  0  0
 41114  1  0  0  0
 41 48  1  0  0  0
 42 43  1  0  0  0
 42 66  1  0  0  0
 42115  1  0  0  0
 42116  1  0  0  0
 43 44  1  0  0  0
 44117  1  0  0  0
 45 46  2  0  0  0
 45118  1  0  0  0
 46119  1  0  0  0
 47120  1  0  0  0
 47121  1  0  0  0
 48 56  1  0  0  0
 48 65  1  0  0  0
 48122  1  0  0  0
 49 50  1  0  0  0
 49 53  1  0  0  0
 49 64  1  0  0  0
 49123  1  0  0  0
 50 51  1  0  0  0
 50124  1  0  0  0
 50125  1  0  0  0
 51 52  1  0  0  0
 51126  1  0  0  0
 51127  1  0  0  0
 52128  1  0  0  0
 52129  1  0  0  0
 53 54  1  0  0  0
 54 55  2  0  0  0
 54130  1  0  0  0
 55 57  1  0  0  0
 55131  1  0  0  0
 56 69  2  0  0  0
 57 58  2  0  0  0
 57132  1  0  0  0
 58133  1  0  0  0
 59 60  1  0  0  0
 59 61  1  0  0  0
 59 62  1  0  0  0
 60134  1  0  0  0
 60135  1  0  0  0
 60136  1  0  0  0
 61137  1  0  0  0
 61138  1  0  0  0
 61139  1  0  0  0
 62140  1  0  0  0
 62141  1  0  0  0
 62142  1  0  0  0
 63 65  1  0  0  0
 63143  1  0  0  0
 63144  1  0  0  0
 63145  1  0  0  0
 64146  1  0  0  0
 65147  1  0  0  0
 68 81  1  0  0  0
 71 83  2  0  0  0
 71 84  1  0  0  0
 71148  1  0  0  0
 72 73  2  0  0  0
 72 74  1  0  0  0
 72 82  1  0  0  0
 73 83  1  0  0  0
 73 85  1  0  0  0
 74 84  2  0  0  0
 74 86  1  0  0  0
 75 76  1  0  0  0
 75 77  1  0  0  0
 75149  1  0  0  0
 75150  1  0  0  0
 76 85  1  0  0  0
 76151  1  0  0  0
 76152  1  0  0  0
 77 79  1  0  0  0
 77 85  1  0  0  0
 77153  1  0  0  0
 78154  1  0  0  0
 78155  1  0  0  0
 78156  1  0  0  0
 78 82  1  0  0  0
 79 87  1  0  0  0
 79157  1  0  0  0
 79158  1  0  0  0
 80 81  1  0  0  0
 80 86  1  0  0  0
 80159  1  0  0  0
 80160  1  0  0  0
 81161  1  0  0  0
 81162  1  0  0  0
 82 88  1  0  0  0
 82163  1  0  0  0
 86164  1  0  0  0
 87165  1  0  0  0
M  ISO  4   1 100  68 101  81 101  87 100
M  END
> <chiral flag>
0

> <version>
0

> <s_m_source_file>
/data/baiqing/PycharmProjects/Reinvent-master-3.2/result/LINK_invent/BTK/process_docking_weight1_custom_sum_contain_oxygen_bond_distance_aromatic_linkinvent_7_9_3/rearranged_h_0196.sdf

> <i_m_source_file_index>
92

> <r_mmod_Potential_Energy-OPLS-2005>
-462.895294189453

> <r_mmod_Stretch_Energy-OPLS-2005>
52.6677894592285

> <r_mmod_Bend_Energy-OPLS-2005>
184.20768737793

> <r_mmod_Torsional_Energy-OPLS-2005>
281.474273681641

> <r_mmod_Improper_Torsional_Energy-OPLS-2005>
15.5316495895386

> <r_mmod_Van_der_Waal_Energy-OPLS-2005>
168.596801757812

> <r_mmod_Electrostatic_Energy-OPLS-2005>
-943.328430175781

> <r_mmod_Solvation_Energy-OPLS-2005>
-234.637420654297

> <b_mmod_Minimization_Converged-OPLS-2005>
0

> <r_mmod_RMS_Derivative-OPLS-2005>
4.25801610946655

$$$$
93
                    3D
 Structure written by MMmdl.
163172  0  0  1  0            999 V2000
  -30.6429  -14.6959   20.4690 C   0  0  0  0  0  0
  -30.4249  -12.4235   19.4692 C   0  0  0  0  0  0
  -29.5081  -12.4985   18.2299 C   0  0  0  0  0  0
  -28.0301  -12.3403   18.6387 C   0  0  0  0  0  0
  -27.6412  -13.2308   19.8503 C   0  0  2  0  0  0
  -28.6869  -13.1586   20.9838 C   0  0  0  0  0  0
  -25.2516  -13.8189   20.5688 C   0  0  0  0  0  0
  -24.1804  -13.0437   20.9190 C   0  0  0  0  0  0
  -24.6389  -11.6914   20.8732 C   0  0  0  0  0  0
  -23.9067  -10.4283   21.0388 C   0  0  0  0  0  0
  -24.3623   -9.4204   21.9170 C   0  0  0  0  0  0
  -23.6302   -8.2240   22.0747 C   0  0  0  0  0  0
  -22.4283   -8.0274   21.3546 C   0  0  0  0  0  0
  -21.9913   -9.0245   20.4649 C   0  0  0  0  0  0
  -22.7237  -10.2124   20.3043 C   0  0  0  0  0  0
  -21.6850   -6.0729   22.5280 C   0  0  0  0  0  0
  -21.4008   -6.5637   23.8215 C   0  0  0  0  0  0
  -21.3666   -5.6792   24.9179 C   0  0  0  0  0  0
  -21.6056   -4.3057   24.7224 C   0  0  0  0  0  0
  -21.8826   -3.8140   23.4339 C   0  0  0  0  0  0
  -21.9191   -4.6956   22.3395 C   0  0  0  0  0  0
  -22.7833  -13.5228   21.1859 C   0  0  0  0  0  0
  -22.1663   -4.2136   21.0978 F   0  0  0  0  0  0
  -21.5630   -3.4550   25.7737 F   0  0  0  0  0  0
  -29.9904  -13.4892   20.3974 N   0  0  0  0  0  0
  -26.2942  -12.9393   20.3291 N   0  0  0  0  0  0
  -25.9322  -11.6532   20.5749 N   0  0  0  0  0  0
  -22.0485  -12.8217   22.0422 N   0  0  0  0  0  0
  -25.4228  -15.1917   20.4126 N   0  0  0  0  0  0
  -31.8385  -14.7716   20.1672 O   0  0  0  0  0  0
  -21.6639   -6.8876   21.4243 O   0  0  0  0  0  0
  -22.3509  -14.5529   20.6700 O   0  0  0  0  0  0
  -24.6308  -31.8585   23.2029 C   0  0  0  0  0  0
  -25.9142  -32.4773   23.8356 C   0  0  1  0  0  0
  -27.2060  -27.2759   20.1168 C   0  0  0  0  0  0
  -25.5942  -33.8578   24.2272 N   0  0  0  0  0  0
  -23.4243  -30.4847   21.5486 C   0  0  2  0  0  0
  -24.8668  -28.9423   20.1106 C   0  0  0  0  0  0
  -22.7503  -29.4609   22.4938 C   0  0  0  0  0  0
  -18.0292  -28.1394   22.8483 C   0  0  0  0  0  0
  -24.1489  -36.7289   23.2633 C   0  0  0  0  0  0
  -25.9715  -30.7751   21.3814 C   0  0  0  0  0  0
  -26.0420  -29.4019   20.7187 C   0  0  0  0  0  0
  -27.2161  -28.5826   20.7112 C   0  0  0  0  0  0
  -26.0044  -26.8911   19.4739 C   0  0  0  0  0  0
  -24.8530  -27.6945   19.4768 C   0  0  0  0  0  0
  -23.6392  -29.8283   20.1617 C   0  0  0  0  0  0
  -25.4114  -36.3079   24.0325 C   0  0  1  0  0  0
  -20.5892  -28.3690   23.1289 C   0  0  2  0  0  0
  -20.6781  -26.9417   22.5411 C   0  0  0  0  0  0
  -19.5757  -26.6394   21.5211 C   0  0  0  0  0  0
  -18.1938  -26.7934   22.1626 C   0  0  0  0  0  0
  -19.1543  -28.8863   23.2871 C   0  0  0  0  0  0
  -18.9460  -30.1466   23.8884 C   0  0  0  0  0  0
  -17.6458  -30.6588   24.0572 C   0  0  0  0  0  0
  -25.9063  -34.9451   23.5094 C   0  0  0  0  0  0
  -16.5349  -29.9088   23.6340 C   0  0  0  0  0  0
  -16.7277  -28.6511   23.0347 C   0  0  0  0  0  0
  -26.4510  -31.6593   25.0738 C   0  0  0  0  0  0
  -25.3737  -31.3742   26.1458 C   0  0  0  0  0  0
  -27.0356  -30.3010   24.6222 C   0  0  0  0  0  0
  -27.6059  -32.4336   25.7516 C   0  0  0  0  0  0
  -27.5591  -37.1790   24.8456 C   0  0  0  0  0  0
  -21.4216  -29.3034   22.3685 N   0  0  0  0  0  0
  -26.4286  -37.3784   23.9427 N   0  0  0  0  0  0
  -24.6947  -31.0563   22.1003 N   0  0  0  0  0  0
  -23.4218  -28.8137   23.3018 O   0  0  0  0  0  0
  -28.2876  -26.3669   20.1811 O   0  0  0  0  0  0
  -26.5633  -34.8925   22.4666 O   0  0  0  0  0  0
  -23.5461  -32.1401   23.7336 O   0  0  0  0  0  0
  -30.3730  -23.8773   20.4435 C   0  0  0  0  0  0
  -29.0118  -23.7932   20.3030 C   0  0  0  0  0  0
  -29.8951  -21.6767   20.5141 C   0  0  0  0  0  0
  -29.4020  -18.1569   21.7971 C   0  0  0  0  0  0
  -29.8264  -18.1435   19.3597 C   0  0  0  0  0  0
  -30.2628  -16.8282   21.7244 C   0  0  0  0  0  0
  -29.4103  -16.6204   19.4591 C   0  0  0  0  0  0
  -29.3477  -19.0689   20.5230 C   0  0  0  0  0  0
  -32.8204  -22.3498   22.1066 C   0  0  0  0  0  0
  -27.9518  -24.9097   20.0675 C   0  0  0  0  0  0
  -32.3162  -22.2802   20.6584 C   0  0  0  0  0  0
  -30.8824  -22.5992   20.5461 N   0  0  0  0  0  0
  -28.7568  -22.4040   20.3565 N   0  3  0  0  0  0
  -29.9031  -15.8611   20.6486 N   0  0  0  0  0  0
  -30.1620  -20.3223   20.6442 N   0  0  0  0  0  0
  -31.4702  -12.5305   19.1735 H   0  0  0  0  0  0
  -30.3487  -11.4463   19.9484 H   0  0  0  0  0  0
  -29.7832  -11.7253   17.5123 H   0  0  0  0  0  0
  -29.6508  -13.4531   17.7212 H   0  0  0  0  0  0
  -27.8707  -11.2903   18.8870 H   0  0  0  0  0  0
  -27.3788  -12.5535   17.7902 H   0  0  0  0  0  0
  -27.6361  -14.2534   19.4761 H   0  0  0  0  0  0
  -28.7103  -12.1651   21.4320 H   0  0  0  0  0  0
  -28.4340  -13.8543   21.7857 H   0  0  0  0  0  0
  -25.2761   -9.5689   22.4753 H   0  0  0  0  0  0
  -24.0021   -7.4628   22.7465 H   0  0  0  0  0  0
  -21.0839   -8.8753   19.8965 H   0  0  0  0  0  0
  -22.3681  -10.9658   19.6153 H   0  0  0  0  0  0
  -21.1999   -7.6142   23.9715 H   0  0  0  0  0  0
  -21.1493   -6.0516   25.9087 H   0  0  0  0  0  0
  -22.0600   -2.7595   23.2834 H   0  0  0  0  0  0
  -22.4097  -11.9881   22.4817 H   0  0  0  0  0  0
  -21.1101  -13.1236   22.2628 H   0  0  0  0  0  0
  -24.6642  -15.8520   20.5425 H   0  0  0  0  0  0
  -26.2895  -15.6329   20.1338 H   0  0  0  0  0  0
  -26.7203  -32.5422   23.1093 H   0  0  0  0  0  0
  -25.0089  -33.9734   25.0413 H   0  0  0  0  0  0
  -22.7176  -31.3055   21.4101 H   0  0  0  0  0  0
  -23.3768  -35.9601   23.3256 H   0  0  0  0  0  0
  -24.3582  -36.8962   22.2056 H   0  0  0  0  0  0
  -23.7221  -37.6469   23.6684 H   0  0  0  0  0  0
  -26.1103  -31.5376   20.6137 H   0  0  0  0  0  0
  -26.8496  -30.8186   22.0145 H   0  0  0  0  0  0
  -28.1133  -28.9279   21.2053 H   0  0  0  0  0  0
  -25.9018  -25.9453   18.9668 H   0  0  0  0  0  0
  -23.9553  -27.3388   18.9896 H   0  0  0  0  0  0
  -23.7662  -30.6091   19.4114 H   0  0  0  0  0  0
  -22.7555  -29.2665   19.8527 H   0  0  0  0  0  0
  -25.1286  -36.1919   25.0816 H   0  0  0  0  0  0
  -20.9969  -28.3256   24.1418 H   0  0  0  0  0  0
  -20.5697  -26.2293   23.3603 H   0  0  0  0  0  0
  -21.6648  -26.7463   22.1191 H   0  0  0  0  0  0
  -19.6918  -25.6308   21.1238 H   0  0  0  0  0  0
  -19.6698  -27.3209   20.6744 H   0  0  0  0  0  0
  -17.4211  -26.6681   21.4027 H   0  0  0  0  0  0
  -18.0333  -26.0076   22.9021 H   0  0  0  0  0  0
  -19.7936  -30.7289   24.2236 H   0  0  0  0  0  0
  -17.5016  -31.6268   24.5182 H   0  0  0  0  0  0
  -15.5349  -30.2986   23.7680 H   0  0  0  0  0  0
  -15.8676  -28.0841   22.7051 H   0  0  0  0  0  0
  -24.5889  -30.7119   25.7781 H   0  0  0  0  0  0
  -24.8953  -32.2915   26.4900 H   0  0  0  0  0  0
  -25.8048  -30.8897   27.0229 H   0  0  0  0  0  0
  -26.2942  -29.6762   24.1226 H   0  0  0  0  0  0
  -27.4015  -29.7267   25.4744 H   0  0  0  0  0  0
  -27.8828  -30.4283   23.9479 H   0  0  0  0  0  0
  -27.2653  -33.3627   26.2101 H   0  0  0  0  0  0
  -28.3868  -32.6924   25.0350 H   0  0  0  0  0  0
  -28.0730  -31.8464   26.5437 H   0  0  0  0  0  0
  -28.2561  -38.0135   24.7571 H   0  0  0  0  0  0
  -28.1136  -36.2672   24.6181 H   0  0  0  0  0  0
  -27.2325  -37.1314   25.8860 H   0  0  0  0  0  0
  -20.9396  -29.8768   21.6903 H   0  0  0  0  0  0
  -26.0157  -38.2848   24.1471 H   0  0  0  0  0  0
  -31.0092  -24.7500   20.4526 H   0  0  0  0  0  0
  -29.7085  -18.7441   22.6637 H   0  0  0  0  0  0
  -28.3778  -17.8550   22.0217 H   0  0  0  0  0  0
  -29.4738  -18.5527   18.4120 H   0  0  0  0  0  0
  -30.9152  -18.1800   19.3000 H   0  0  0  0  0  0
  -30.1768  -16.3089   22.6806 H   0  0  0  0  0  0
  -31.3161  -17.0952   21.6211 H   0  0  0  0  0  0
  -29.7355  -16.1191   18.5455 H   0  0  0  0  0  0
  -28.3229  -16.5553   19.4548 H   0  0  0  0  0  0
  -28.3068  -19.3527   20.3530 H   0  0  0  0  0  0
  -33.8806  -22.1000   22.1564 H   0  0  0  0  0  0
  -32.2835  -21.6509   22.7488 H   0  0  0  0  0  0
  -32.6986  -23.3506   22.5223 H   0  0  0  0  0  0
  -27.1219  -24.7001   20.7445 H   0  0  0  0  0  0
  -27.5909  -24.7265   19.0555 H   0  0  0  0  0  0
  -32.5080  -21.2990   20.2224 H   0  0  0  0  0  0
  -32.8600  -22.9948   20.0395 H   0  0  0  0  0  0
  -27.8352  -21.9953   20.2809 H   0  0  0  0  0  0
  -31.1328  -20.0873   20.8061 H   0  0  0  0  0  0
  1 25  1  0  0  0
  1 30  2  0  0  0
  1 84  1  0  0  0
  2  3  1  0  0  0
  2 25  1  0  0  0
  2 86  1  0  0  0
  2 87  1  0  0  0
  3  4  1  0  0  0
  3 88  1  0  0  0
  3 89  1  0  0  0
  4  5  1  0  0  0
  4 90  1  0  0  0
  4 91  1  0  0  0
  5  6  1  0  0  0
  5 26  1  0  0  0
  5 92  1  0  0  0
  6 25  1  0  0  0
  6 93  1  0  0  0
  6 94  1  0  0  0
  7  8  2  0  0  0
  7 26  1  0  0  0
  7 29  1  0  0  0
  8  9  1  0  0  0
  8 22  1  0  0  0
  9 10  1  0  0  0
  9 27  2  0  0  0
 10 11  2  0  0  0
 10 15  1  0  0  0
 11 12  1  0  0  0
 11 95  1  0  0  0
 12 13  2  0  0  0
 12 96  1  0  0  0
 13 14  1  0  0  0
 13 31  1  0  0  0
 14 15  2  0  0  0
 14 97  1  0  0  0
 15 98  1  0  0  0
 16 17  2  0  0  0
 16 21  1  0  0  0
 16 31  1  0  0  0
 17 18  1  0  0  0
 17 99  1  0  0  0
 18 19  2  0  0  0
 18100  1  0  0  0
 19 20  1  0  0  0
 19 24  1  0  0  0
 20 21  2  0  0  0
 20101  1  0  0  0
 21 23  1  0  0  0
 22 28  1  0  0  0
 22 32  2  0  0  0
 26 27  1  0  0  0
 28102  1  0  0  0
 28103  1  0  0  0
 29104  1  0  0  0
 29105  1  0  0  0
 33 34  1  0  0  0
 33 66  1  0  0  0
 33 70  2  0  0  0
 34 36  1  0  0  0
 34 59  1  0  0  0
 34106  1  0  0  0
 35 44  2  0  0  0
 35 45  1  0  0  0
 35 68  1  0  0  0
 36 56  1  0  0  0
 36107  1  0  0  0
 37 39  1  0  0  0
 37 47  1  0  0  0
 37 66  1  0  0  0
 37108  1  0  0  0
 38 43  2  0  0  0
 38 46  1  0  0  0
 38 47  1  0  0  0
 39 64  1  0  0  0
 39 67  2  0  0  0
 40 52  1  0  0  0
 40 53  2  0  0  0
 40 58  1  0  0  0
 41109  1  0  0  0
 41110  1  0  0  0
 41111  1  0  0  0
 41 48  1  0  0  0
 42 43  1  0  0  0
 42 66  1  0  0  0
 42112  1  0  0  0
 42113  1  0  0  0
 43 44  1  0  0  0
 44114  1  0  0  0
 45 46  2  0  0  0
 45115  1  0  0  0
 46116  1  0  0  0
 47117  1  0  0  0
 47118  1  0  0  0
 48 56  1  0  0  0
 48 65  1  0  0  0
 48119  1  0  0  0
 49 50  1  0  0  0
 49 53  1  0  0  0
 49 64  1  0  0  0
 49120  1  0  0  0
 50 51  1  0  0  0
 50121  1  0  0  0
 50122  1  0  0  0
 51 52  1  0  0  0
 51123  1  0  0  0
 51124  1  0  0  0
 52125  1  0  0  0
 52126  1  0  0  0
 53 54  1  0  0  0
 54 55  2  0  0  0
 54127  1  0  0  0
 55 57  1  0  0  0
 55128  1  0  0  0
 56 69  2  0  0  0
 57 58  2  0  0  0
 57129  1  0  0  0
 58130  1  0  0  0
 59 60  1  0  0  0
 59 61  1  0  0  0
 59 62  1  0  0  0
 60131  1  0  0  0
 60132  1  0  0  0
 60133  1  0  0  0
 61134  1  0  0  0
 61135  1  0  0  0
 61136  1  0  0  0
 62137  1  0  0  0
 62138  1  0  0  0
 62139  1  0  0  0
 63 65  1  0  0  0
 63140  1  0  0  0
 63141  1  0  0  0
 63142  1  0  0  0
 64143  1  0  0  0
 65144  1  0  0  0
 68 80  1  0  0  0
 71 72  2  0  0  0
 71 82  1  0  0  0
 71145  1  0  0  0
 72 80  1  0  0  0
 72 83  1  0  0  0
 73 82  1  0  0  0
 73 83  2  0  0  0
 73 85  1  0  0  0
 74 76  1  0  0  0
 74 78  1  0  0  0
 74146  1  0  0  0
 74147  1  0  0  0
 75 77  1  0  0  0
 75 78  1  0  0  0
 75148  1  0  0  0
 75149  1  0  0  0
 76 84  1  0  0  0
 76150  1  0  0  0
 76151  1  0  0  0
 77 84  1  0  0  0
 77152  1  0  0  0
 77153  1  0  0  0
 78 85  1  0  0  0
 78154  1  0  0  0
 79 81  1  0  0  0
 79155  1  0  0  0
 79156  1  0  0  0
 79157  1  0  0  0
 80158  1  0  0  0
 80159  1  0  0  0
 81 82  1  0  0  0
 81160  1  0  0  0
 81161  1  0  0  0
 83162  1  0  0  0
 85163  1  0  0  0
M  CHG  1  83   1
M  ISO  4   1 100  68 101  80 101  84 100
M  END
> <chiral flag>
0

> <version>
0

> <s_m_source_file>
/data/baiqing/PycharmProjects/Reinvent-master-3.2/result/LINK_invent/BTK/process_docking_weight1_custom_sum_contain_oxygen_bond_distance_aromatic_linkinvent_7_9_3/rearranged_h_0196.sdf

> <i_m_source_file_index>
93

> <r_mmod_Potential_Energy-OPLS-2005>
262.259552001953

> <r_mmod_Stretch_Energy-OPLS-2005>
95.92724609375

> <r_mmod_Bend_Energy-OPLS-2005>
191.292007446289

> <r_mmod_Torsional_Energy-OPLS-2005>
368.524291992188

> <r_mmod_Improper_Torsional_Energy-OPLS-2005>
8.44119930267334

> <r_mmod_Van_der_Waal_Energy-OPLS-2005>
130.144302368164

> <r_mmod_Electrostatic_Energy-OPLS-2005>
-201.075622558594

> <r_mmod_Solvation_Energy-OPLS-2005>
-405.736846923828

> <b_mmod_Minimization_Converged-OPLS-2005>
0

> <r_mmod_RMS_Derivative-OPLS-2005>
1.84854638576508

$$$$
94
                    3D
 Structure written by MMmdl.
162171  0  0  1  0            999 V2000
  -30.6879  -14.4899   20.5554 C   0  0  0  0  0  0
  -30.4273  -12.3160   19.4210 C   0  0  0  0  0  0
  -29.4963  -12.5021   18.2055 C   0  0  0  0  0  0
  -28.0172  -12.3606   18.6202 C   0  0  0  0  0  0
  -27.6603  -13.2063   19.8719 C   0  0  2  0  0  0
  -28.7037  -12.9961   20.9923 C   0  0  0  0  0  0
  -25.2588  -13.8159   20.5691 C   0  0  0  0  0  0
  -24.1835  -13.0436   20.9188 C   0  0  0  0  0  0
  -24.6382  -11.6903   20.8735 C   0  0  0  0  0  0
  -23.9039  -10.4290   21.0404 C   0  0  0  0  0  0
  -24.3595   -9.4208   21.9184 C   0  0  0  0  0  0
  -23.6280   -8.2242   22.0750 C   0  0  0  0  0  0
  -22.4262   -8.0277   21.3537 C   0  0  0  0  0  0
  -21.9890   -9.0250   20.4639 C   0  0  0  0  0  0
  -22.7212  -10.2133   20.3052 C   0  0  0  0  0  0
  -21.6850   -6.0729   22.5279 C   0  0  0  0  0  0
  -21.4016   -6.5632   23.8215 C   0  0  0  0  0  0
  -21.3662   -5.6786   24.9175 C   0  0  0  0  0  0
  -21.6044   -4.3048   24.7223 C   0  0  0  0  0  0
  -21.8821   -3.8139   23.4345 C   0  0  0  0  0  0
  -21.9193   -4.6958   22.3400 C   0  0  0  0  0  0
  -22.7854  -13.5236   21.1845 C   0  0  0  0  0  0
  -22.1662   -4.2140   21.0981 F   0  0  0  0  0  0
  -21.5622   -3.4534   25.7737 F   0  0  0  0  0  0
  -30.0317  -13.3045   20.4349 N   0  0  0  0  0  0
  -26.3016  -12.9324   20.3359 N   0  0  0  0  0  0
  -25.9306  -11.6484   20.5760 N   0  0  0  0  0  0
  -22.0482  -12.8246   22.0404 N   0  0  0  0  0  0
  -25.4315  -15.1882   20.4115 N   0  0  0  0  0  0
  -31.8247  -14.6773   20.1132 O   0  0  0  0  0  0
  -21.6631   -6.8873   21.4240 O   0  0  0  0  0  0
  -22.3548  -14.5543   20.6685 O   0  0  0  0  0  0
  -24.6168  -31.8676   23.2096 C   0  0  0  0  0  0
  -25.9065  -32.4819   23.8391 C   0  0  1  0  0  0
  -27.2358  -27.4400   20.0671 C   0  0  0  0  0  0
  -25.5919  -33.8619   24.2318 N   0  0  0  0  0  0
  -23.4045  -30.4932   21.5505 C   0  0  2  0  0  0
  -24.8502  -28.9634   20.1097 C   0  0  0  0  0  0
  -22.7418  -29.4672   22.4981 C   0  0  0  0  0  0
  -18.0279  -28.1369   22.8488 C   0  0  0  0  0  0
  -24.1487  -36.7310   23.2638 C   0  0  0  0  0  0
  -25.9361  -30.8335   21.3640 C   0  0  0  0  0  0
  -26.0144  -29.4728   20.6997 C   0  0  0  0  0  0
  -27.2115  -28.7169   20.6781 C   0  0  0  0  0  0
  -26.0407  -26.9289   19.5213 C   0  0  0  0  0  0
  -24.8577  -27.6887   19.5199 C   0  0  0  0  0  0
  -23.6122  -29.8295   20.1638 C   0  0  0  0  0  0
  -25.4114  -36.3107   24.0330 C   0  0  1  0  0  0
  -20.5870  -28.3671   23.1313 C   0  0  2  0  0  0
  -20.6780  -26.9411   22.5411 C   0  0  0  0  0  0
  -19.5758  -26.6381   21.5207 C   0  0  0  0  0  0
  -18.1934  -26.7921   22.1611 C   0  0  0  0  0  0
  -19.1527  -28.8833   23.2896 C   0  0  0  0  0  0
  -18.9450  -30.1436   23.8910 C   0  0  0  0  0  0
  -17.6454  -30.6581   24.0557 C   0  0  0  0  0  0
  -25.9042  -34.9473   23.5116 C   0  0  0  0  0  0
  -16.5346  -29.9082   23.6315 C   0  0  0  0  0  0
  -16.7266  -28.6492   23.0347 C   0  0  0  0  0  0
  -26.4491  -31.6609   25.0727 C   0  0  0  0  0  0
  -25.3761  -31.3720   26.1476 C   0  0  0  0  0  0
  -27.0327  -30.3047   24.6123 C   0  0  0  0  0  0
  -27.6048  -32.4351   25.7493 C   0  0  0  0  0  0
  -27.5581  -37.1813   24.8466 C   0  0  0  0  0  0
  -21.4143  -29.3055   22.3726 N   0  0  0  0  0  0
  -26.4299  -37.3793   23.9407 N   0  0  0  0  0  0
  -24.6707  -31.0779   22.0994 N   0  0  0  0  0  0
  -23.4187  -28.8214   23.3025 O   0  0  0  0  0  0
  -28.3566  -26.6409   20.1324 O   0  0  0  0  0  0
  -26.5593  -34.8923   22.4670 O   0  0  0  0  0  0
  -23.5361  -32.1420   23.7489 O   0  0  0  0  0  0
  -27.1429  -22.0337   19.5109 C   0  0  0  0  0  0
  -28.5032  -25.8451   17.6914 C   0  0  0  0  0  0
  -27.5199  -23.1952   18.5936 C   0  0  0  0  0  0
  -29.4145  -22.7737   19.8148 C   0  0  0  0  0  0
  -29.2872  -24.9109   18.5990 C   0  0  1  0  0  0
  -28.4594  -21.5988   20.1662 C   0  0  2  0  0  0
  -29.1266  -26.4039   18.9468 C   0  0  1  0  0  0
  -29.4948  -17.8736   20.2690 C   0  0  0  0  0  0
  -30.3364  -16.9264   21.1709 C   0  0  0  0  0  0
  -29.6789  -19.3946   20.5646 C   0  0  0  0  0  0
  -28.5544  -23.8805   19.3597 N   0  0  0  0  0  0
  -29.9515  -15.5057   21.0474 N   0  0  0  0  0  0
  -28.8766  -20.2599   19.6532 N   0  3  0  0  0  0
  -31.4706  -12.4232   19.1191 H   0  0  0  0  0  0
  -30.3362  -11.3079   19.8273 H   0  0  0  0  0  0
  -29.7378  -11.7727   17.4312 H   0  0  0  0  0  0
  -29.6622  -13.4853   17.7624 H   0  0  0  0  0  0
  -27.8323  -11.3053   18.8239 H   0  0  0  0  0  0
  -27.3641  -12.6279   17.7888 H   0  0  0  0  0  0
  -27.7007  -14.2518   19.5665 H   0  0  0  0  0  0
  -28.6846  -11.9621   21.3396 H   0  0  0  0  0  0
  -28.4667  -13.6022   21.8680 H   0  0  0  0  0  0
  -25.2737   -9.5691   22.4755 H   0  0  0  0  0  0
  -23.9987   -7.4631   22.7465 H   0  0  0  0  0  0
  -21.0822   -8.8766   19.8948 H   0  0  0  0  0  0
  -22.3668  -10.9669   19.6157 H   0  0  0  0  0  0
  -21.2014   -7.6140   23.9720 H   0  0  0  0  0  0
  -21.1482   -6.0510   25.9079 H   0  0  0  0  0  0
  -22.0599   -2.7599   23.2848 H   0  0  0  0  0  0
  -22.4070  -11.9909   22.4814 H   0  0  0  0  0  0
  -21.1100  -13.1294   22.2591 H   0  0  0  0  0  0
  -24.6640  -15.8426   20.5195 H   0  0  0  0  0  0
  -26.2805  -15.6263   20.0779 H   0  0  0  0  0  0
  -26.7140  -32.5530   23.1158 H   0  0  0  0  0  0
  -25.0107  -33.9780   25.0489 H   0  0  0  0  0  0
  -22.6942  -31.3108   21.4142 H   0  0  0  0  0  0
  -23.3745  -35.9646   23.3314 H   0  0  0  0  0  0
  -24.3575  -36.8906   22.2048 H   0  0  0  0  0  0
  -23.7242  -37.6519   23.6646 H   0  0  0  0  0  0
  -26.0575  -31.6085   20.6053 H   0  0  0  0  0  0
  -26.8196  -30.8753   21.9894 H   0  0  0  0  0  0
  -28.1079  -29.1010   21.1444 H   0  0  0  0  0  0
  -26.0023  -25.9223   19.1356 H   0  0  0  0  0  0
  -23.9544  -27.2765   19.0909 H   0  0  0  0  0  0
  -23.7205  -30.6069   19.4065 H   0  0  0  0  0  0
  -22.7347  -29.2514   19.8676 H   0  0  0  0  0  0
  -25.1295  -36.1968   25.0824 H   0  0  0  0  0  0
  -20.9954  -28.3239   24.1434 H   0  0  0  0  0  0
  -20.5681  -26.2284   23.3599 H   0  0  0  0  0  0
  -21.6657  -26.7466   22.1210 H   0  0  0  0  0  0
  -19.6929  -25.6292   21.1230 H   0  0  0  0  0  0
  -19.6689  -27.3197   20.6742 H   0  0  0  0  0  0
  -17.4210  -26.6670   21.4008 H   0  0  0  0  0  0
  -18.0335  -26.0058   22.9001 H   0  0  0  0  0  0
  -19.7928  -30.7243   24.2294 H   0  0  0  0  0  0
  -17.5011  -31.6262   24.5156 H   0  0  0  0  0  0
  -15.5347  -30.2987   23.7630 H   0  0  0  0  0  0
  -15.8666  -28.0808   22.7066 H   0  0  0  0  0  0
  -24.5916  -30.7087   25.7819 H   0  0  0  0  0  0
  -24.8985  -32.2884   26.4956 H   0  0  0  0  0  0
  -25.8121  -30.8866   27.0216 H   0  0  0  0  0  0
  -26.2872  -29.6800   24.1185 H   0  0  0  0  0  0
  -27.4097  -29.7296   25.4592 H   0  0  0  0  0  0
  -27.8712  -30.4352   23.9273 H   0  0  0  0  0  0
  -27.2634  -33.3631   26.2095 H   0  0  0  0  0  0
  -28.3844  -32.6950   25.0322 H   0  0  0  0  0  0
  -28.0740  -31.8479   26.5396 H   0  0  0  0  0  0
  -28.2610  -38.0098   24.7508 H   0  0  0  0  0  0
  -28.1061  -36.2631   24.6304 H   0  0  0  0  0  0
  -27.2297  -37.1479   25.8866 H   0  0  0  0  0  0
  -20.9296  -29.8787   21.6960 H   0  0  0  0  0  0
  -26.0182  -38.2869   24.1408 H   0  0  0  0  0  0
  -26.6275  -21.2379   18.9712 H   0  0  0  0  0  0
  -26.4535  -22.3925   20.2769 H   0  0  0  0  0  0
  -27.4287  -25.7469   17.6159 H   0  0  0  0  0  0
  -28.9793  -26.1173   16.7515 H   0  0  0  0  0  0
  -26.6581  -23.8271   18.3790 H   0  0  0  0  0  0
  -27.9193  -22.8274   17.6454 H   0  0  0  0  0  0
  -30.0914  -22.4806   19.0104 H   0  0  0  0  0  0
  -30.0288  -23.0722   20.6656 H   0  0  0  0  0  0
  -30.2570  -24.6388   18.1836 H   0  0  0  0  0  0
  -28.2995  -21.5516   21.2448 H   0  0  0  0  0  0
  -29.9948  -27.0559   18.8626 H   0  0  0  0  0  0
  -28.4399  -17.6244   20.3895 H   0  0  0  0  0  0
  -29.7367  -17.6716   19.2248 H   0  0  0  0  0  0
  -30.2019  -17.2069   22.2162 H   0  0  0  0  0  0
  -31.3986  -17.0629   20.9583 H   0  0  0  0  0  0
  -30.7296  -19.6774   20.4856 H   0  0  0  0  0  0
  -29.3872  -19.5797   21.5994 H   0  0  0  0  0  0
  -29.0247  -15.2573   21.3609 H   0  0  0  0  0  0
  -29.3415  -20.3549   18.7647 H   0  0  0  0  0  0
  -28.0201  -19.7606   19.4816 H   0  0  0  0  0  0
  1 25  1  0  0  0
  1 30  2  0  0  0
  1 82  1  0  0  0
  2  3  1  0  0  0
  2 25  1  0  0  0
  2 84  1  0  0  0
  2 85  1  0  0  0
  3  4  1  0  0  0
  3 86  1  0  0  0
  3 87  1  0  0  0
  4  5  1  0  0  0
  4 88  1  0  0  0
  4 89  1  0  0  0
  5  6  1  0  0  0
  5 26  1  0  0  0
  5 90  1  0  0  0
  6 25  1  0  0  0
  6 91  1  0  0  0
  6 92  1  0  0  0
  7  8  2  0  0  0
  7 26  1  0  0  0
  7 29  1  0  0  0
  8  9  1  0  0  0
  8 22  1  0  0  0
  9 10  1  0  0  0
  9 27  2  0  0  0
 10 11  2  0  0  0
 10 15  1  0  0  0
 11 12  1  0  0  0
 11 93  1  0  0  0
 12 13  2  0  0  0
 12 94  1  0  0  0
 13 14  1  0  0  0
 13 31  1  0  0  0
 14 15  2  0  0  0
 14 95  1  0  0  0
 15 96  1  0  0  0
 16 17  2  0  0  0
 16 21  1  0  0  0
 16 31  1  0  0  0
 17 18  1  0  0  0
 17 97  1  0  0  0
 18 19  2  0  0  0
 18 98  1  0  0  0
 19 20  1  0  0  0
 19 24  1  0  0  0
 20 21  2  0  0  0
 20 99  1  0  0  0
 21 23  1  0  0  0
 22 28  1  0  0  0
 22 32  2  0  0  0
 26 27  1  0  0  0
 28100  1  0  0  0
 28101  1  0  0  0
 29102  1  0  0  0
 29103  1  0  0  0
 33 34  1  0  0  0
 33 66  1  0  0  0
 33 70  2  0  0  0
 34 36  1  0  0  0
 34 59  1  0  0  0
 34104  1  0  0  0
 35 44  2  0  0  0
 35 45  1  0  0  0
 35 68  1  0  0  0
 36 56  1  0  0  0
 36105  1  0  0  0
 37 39  1  0  0  0
 37 47  1  0  0  0
 37 66  1  0  0  0
 37106  1  0  0  0
 38 43  2  0  0  0
 38 46  1  0  0  0
 38 47  1  0  0  0
 39 64  1  0  0  0
 39 67  2  0  0  0
 40 52  1  0  0  0
 40 53  2  0  0  0
 40 58  1  0  0  0
 41107  1  0  0  0
 41108  1  0  0  0
 41109  1  0  0  0
 41 48  1  0  0  0
 42 43  1  0  0  0
 42 66  1  0  0  0
 42110  1  0  0  0
 42111  1  0  0  0
 43 44  1  0  0  0
 44112  1  0  0  0
 45 46  2  0  0  0
 45113  1  0  0  0
 46114  1  0  0  0
 47115  1  0  0  0
 47116  1  0  0  0
 48 56  1  0  0  0
 48 65  1  0  0  0
 48117  1  0  0  0
 49 50  1  0  0  0
 49 53  1  0  0  0
 49 64  1  0  0  0
 49118  1  0  0  0
 50 51  1  0  0  0
 50119  1  0  0  0
 50120  1  0  0  0
 51 52  1  0  0  0
 51121  1  0  0  0
 51122  1  0  0  0
 52123  1  0  0  0
 52124  1  0  0  0
 53 54  1  0  0  0
 54 55  2  0  0  0
 54125  1  0  0  0
 55 57  1  0  0  0
 55126  1  0  0  0
 56 69  2  0  0  0
 57 58  2  0  0  0
 57127  1  0  0  0
 58128  1  0  0  0
 59 60  1  0  0  0
 59 61  1  0  0  0
 59 62  1  0  0  0
 60129  1  0  0  0
 60130  1  0  0  0
 60131  1  0  0  0
 61132  1  0  0  0
 61133  1  0  0  0
 61134  1  0  0  0
 62135  1  0  0  0
 62136  1  0  0  0
 62137  1  0  0  0
 63 65  1  0  0  0
 63138  1  0  0  0
 63139  1  0  0  0
 63140  1  0  0  0
 64141  1  0  0  0
 65142  1  0  0  0
 68 77  1  0  0  0
 71 73  1  0  0  0
 71 76  1  0  0  0
 71143  1  0  0  0
 71144  1  0  0  0
 72 75  1  0  0  0
 72 77  1  0  0  0
 72145  1  0  0  0
 72146  1  0  0  0
 73147  1  0  0  0
 73148  1  0  0  0
 73 81  1  0  0  0
 74 76  1  0  0  0
 74 81  1  0  0  0
 74149  1  0  0  0
 74150  1  0  0  0
 75 77  1  0  0  0
 75 81  1  0  0  0
 75151  1  0  0  0
 76 83  1  0  0  0
 76152  1  0  0  0
 77153  1  0  0  0
 78 79  1  0  0  0
 78 80  1  0  0  0
 78154  1  0  0  0
 78155  1  0  0  0
 79 82  1  0  0  0
 79156  1  0  0  0
 79157  1  0  0  0
 80 83  1  0  0  0
 80158  1  0  0  0
 80159  1  0  0  0
 82160  1  0  0  0
 83161  1  0  0  0
 83162  1  0  0  0
M  CHG  1  83   1
M  ISO  4   1 100  68 101  77 101  82 100
M  END
> <chiral flag>
0

> <version>
0

> <s_m_source_file>
/data/baiqing/PycharmProjects/Reinvent-master-3.2/result/LINK_invent/BTK/process_docking_weight1_custom_sum_contain_oxygen_bond_distance_aromatic_linkinvent_7_9_3/rearranged_h_0196.sdf

> <i_m_source_file_index>
94

> <r_mmod_Potential_Energy-OPLS-2005>
-79.2923278808594

> <r_mmod_Stretch_Energy-OPLS-2005>
39.6479530334473

> <r_mmod_Bend_Energy-OPLS-2005>
134.920135498047

> <r_mmod_Torsional_Energy-OPLS-2005>
333.433807373047

> <r_mmod_Improper_Torsional_Energy-OPLS-2005>
4.09686088562012

> <r_mmod_Van_der_Waal_Energy-OPLS-2005>
128.307998657227

> <r_mmod_Electrostatic_Energy-OPLS-2005>
-240.7490234375

> <r_mmod_Solvation_Energy-OPLS-2005>
-495.175048828125

> <b_mmod_Minimization_Converged-OPLS-2005>
0

> <r_mmod_RMS_Derivative-OPLS-2005>
1.22450363636017

$$$$
95
                    3D
 Structure written by MMmdl.
157166  0  0  1  0            999 V2000
  -30.6105  -14.7631   20.4495 C   0  0  0  0  0  0
  -30.4404  -12.4669   19.4682 C   0  0  0  0  0  0
  -29.5100  -12.5021   18.2344 C   0  0  0  0  0  0
  -28.0349  -12.3307   18.6487 C   0  0  0  0  0  0
  -27.6439  -13.2274   19.8552 C   0  0  2  0  0  0
  -28.6950  -13.1409   20.9824 C   0  0  0  0  0  0
  -25.2544  -13.8173   20.5798 C   0  0  0  0  0  0
  -24.1808  -13.0411   20.9215 C   0  0  0  0  0  0
  -24.6406  -11.6886   20.8746 C   0  0  0  0  0  0
  -23.9084  -10.4273   21.0419 C   0  0  0  0  0  0
  -24.3635   -9.4185   21.9193 C   0  0  0  0  0  0
  -23.6297   -8.2232   22.0765 C   0  0  0  0  0  0
  -22.4280   -8.0272   21.3562 C   0  0  0  0  0  0
  -21.9916   -9.0254   20.4668 C   0  0  0  0  0  0
  -22.7251  -10.2126   20.3078 C   0  0  0  0  0  0
  -21.6857   -6.0736   22.5300 C   0  0  0  0  0  0
  -21.3994   -6.5644   23.8229 C   0  0  0  0  0  0
  -21.3661   -5.6799   24.9197 C   0  0  0  0  0  0
  -21.6047   -4.3065   24.7241 C   0  0  0  0  0  0
  -21.8819   -3.8150   23.4361 C   0  0  0  0  0  0
  -21.9193   -4.6960   22.3419 C   0  0  0  0  0  0
  -22.7842  -13.5211   21.1843 C   0  0  0  0  0  0
  -22.1654   -4.2147   21.0991 F   0  0  0  0  0  0
  -21.5648   -3.4538   25.7751 F   0  0  0  0  0  0
  -29.9839  -13.5311   20.3951 N   0  0  0  0  0  0
  -26.2965  -12.9384   20.3353 N   0  0  0  0  0  0
  -25.9337  -11.6511   20.5756 N   0  0  0  0  0  0
  -22.0464  -12.8264   22.0418 N   0  0  0  0  0  0
  -25.4168  -15.1908   20.4392 N   0  0  0  0  0  0
  -31.7902  -14.8405   20.0892 O   0  0  0  0  0  0
  -21.6633   -6.8865   21.4264 O   0  0  0  0  0  0
  -22.3553  -14.5521   20.6659 O   0  0  0  0  0  0
  -24.6344  -31.8482   23.1885 C   0  0  0  0  0  0
  -25.9176  -32.4709   23.8225 C   0  0  1  0  0  0
  -27.2232  -27.2273   20.1259 C   0  0  0  0  0  0
  -25.5998  -33.8509   24.2162 N   0  0  0  0  0  0
  -23.4311  -30.4700   21.5325 C   0  0  2  0  0  0
  -24.8793  -28.9086   20.0985 C   0  0  0  0  0  0
  -22.7521  -29.4576   22.4867 C   0  0  0  0  0  0
  -18.0300  -28.1399   22.8487 C   0  0  0  0  0  0
  -24.1499  -36.7208   23.2639 C   0  0  0  0  0  0
  -25.9793  -30.7498   21.3742 C   0  0  0  0  0  0
  -26.0476  -29.3708   20.7134 C   0  0  0  0  0  0
  -27.2160  -28.5399   20.7176 C   0  0  0  0  0  0
  -26.0315  -26.8330   19.4811 C   0  0  0  0  0  0
  -24.8808  -27.6507   19.4696 C   0  0  0  0  0  0
  -23.6480  -29.7972   20.1486 C   0  0  0  0  0  0
  -25.4128  -36.3009   24.0319 C   0  0  1  0  0  0
  -20.5903  -28.3713   23.1258 C   0  0  2  0  0  0
  -20.6773  -26.9433   22.5406 C   0  0  0  0  0  0
  -19.5751  -26.6381   21.5214 C   0  0  0  0  0  0
  -18.1934  -26.7940   22.1619 C   0  0  0  0  0  0
  -19.1558  -28.8875   23.2855 C   0  0  0  0  0  0
  -18.9483  -30.1479   23.8867 C   0  0  0  0  0  0
  -17.6469  -30.6593   24.0572 C   0  0  0  0  0  0
  -25.9085  -34.9417   23.5024 C   0  0  0  0  0  0
  -16.5364  -29.9099   23.6354 C   0  0  0  0  0  0
  -16.7285  -28.6513   23.0355 C   0  0  0  0  0  0
  -26.4539  -31.6575   25.0646 C   0  0  0  0  0  0
  -25.3721  -31.3800   26.1339 C   0  0  0  0  0  0
  -27.0349  -30.2958   24.6180 C   0  0  0  0  0  0
  -27.6082  -32.4342   25.7405 C   0  0  0  0  0  0
  -27.5577  -37.1756   24.8472 C   0  0  0  0  0  0
  -21.4220  -29.3037   22.3631 N   0  0  0  0  0  0
  -26.4273  -37.3743   23.9434 N   0  0  0  0  0  0
  -24.7009  -31.0429   22.0877 N   0  0  0  0  0  0
  -23.4207  -28.8143   23.3007 O   0  0  0  0  0  0
  -28.3283  -26.3435   20.2367 O   0  0  0  0  0  0
  -26.5638  -34.8937   22.4593 O   0  0  0  0  0  0
  -23.5495  -32.1331   23.7172 O   0  0  0  0  0  0
  -29.1994  -22.4248   19.9400 C   0  0  0  0  0  0
  -28.2963  -23.5545   20.1065 C   0  0  0  0  0  0
  -28.8011  -21.0874   20.3088 C   0  0  0  0  0  0
  -26.7863  -22.0106   20.9446 C   0  0  0  0  0  0
  -29.1306  -17.9176   21.8179 C   0  0  0  0  0  0
  -29.1112  -16.3596   21.7364 C   0  0  0  0  0  0
  -30.0608  -17.2333   19.7745 C   0  0  0  0  0  0
  -29.1733  -18.4208   20.3728 C   0  0  2  0  0  0
  -25.3876  -21.7383   21.4640 C   0  0  0  0  0  0
  -28.5141  -25.0352   19.4957 C   0  0  0  0  0  0
  -27.0806  -23.2791   20.6313 N   0  0  0  0  0  0
  -27.5666  -20.9346   20.8053 N   0  0  0  0  0  0
  -29.8446  -15.9355   20.5341 N   0  0  0  0  0  0
  -29.5986  -19.8773   20.1758 N   0  0  0  0  0  0
  -31.4755  -12.6018   19.1513 H   0  0  0  0  0  0
  -30.4084  -11.4892   19.9517 H   0  0  0  0  0  0
  -29.7929  -11.7227   17.5258 H   0  0  0  0  0  0
  -29.6297  -13.4513   17.7086 H   0  0  0  0  0  0
  -27.8870  -11.2810   18.9053 H   0  0  0  0  0  0
  -27.3772  -12.5255   17.8010 H   0  0  0  0  0  0
  -27.6420  -14.2538   19.4860 H   0  0  0  0  0  0
  -28.7465  -12.1255   21.3802 H   0  0  0  0  0  0
  -28.4272  -13.7712   21.8290 H   0  0  0  0  0  0
  -25.2777   -9.5654   22.4785 H   0  0  0  0  0  0
  -24.0007   -7.4623   22.7501 H   0  0  0  0  0  0
  -21.0836   -8.8779   19.8987 H   0  0  0  0  0  0
  -22.3703  -10.9682   19.6211 H   0  0  0  0  0  0
  -21.1956   -7.6149   23.9731 H   0  0  0  0  0  0
  -21.1491   -6.0526   25.9104 H   0  0  0  0  0  0
  -22.0585   -2.7610   23.2870 H   0  0  0  0  0  0
  -22.3979  -11.9899   22.4835 H   0  0  0  0  0  0
  -21.1118  -13.1386   22.2625 H   0  0  0  0  0  0
  -24.6497  -15.8307   20.6149 H   0  0  0  0  0  0
  -26.2911  -15.6591   20.2398 H   0  0  0  0  0  0
  -26.7247  -32.5297   23.0960 H   0  0  0  0  0  0
  -25.0272  -33.9669   25.0391 H   0  0  0  0  0  0
  -22.7254  -31.2882   21.3792 H   0  0  0  0  0  0
  -23.3787  -35.9510   23.3284 H   0  0  0  0  0  0
  -24.3590  -36.8823   22.2052 H   0  0  0  0  0  0
  -23.7223  -37.6399   23.6664 H   0  0  0  0  0  0
  -26.1298  -31.5124   20.6094 H   0  0  0  0  0  0
  -26.8527  -30.7864   22.0156 H   0  0  0  0  0  0
  -28.1061  -28.8878   21.2218 H   0  0  0  0  0  0
  -25.9538  -25.8583   19.0222 H   0  0  0  0  0  0
  -23.9870  -27.2880   18.9824 H   0  0  0  0  0  0
  -23.7630  -30.5675   19.3835 H   0  0  0  0  0  0
  -22.7646  -29.2283   19.8525 H   0  0  0  0  0  0
  -25.1320  -36.1805   25.0806 H   0  0  0  0  0  0
  -21.0001  -28.3268   24.1372 H   0  0  0  0  0  0
  -20.5656  -26.2325   23.3605 H   0  0  0  0  0  0
  -21.6645  -26.7432   22.1219 H   0  0  0  0  0  0
  -19.6906  -25.6283   21.1268 H   0  0  0  0  0  0
  -19.6699  -27.3182   20.6740 H   0  0  0  0  0  0
  -17.4213  -26.6724   21.4013 H   0  0  0  0  0  0
  -18.0315  -26.0070   22.8998 H   0  0  0  0  0  0
  -19.7961  -30.7307   24.2211 H   0  0  0  0  0  0
  -17.5037  -31.6286   24.5166 H   0  0  0  0  0  0
  -15.5366  -30.2980   23.7702 H   0  0  0  0  0  0
  -15.8687  -28.0823   22.7076 H   0  0  0  0  0  0
  -24.6036  -30.6973   25.7728 H   0  0  0  0  0  0
  -24.8751  -32.2969   26.4516 H   0  0  0  0  0  0
  -25.8027  -30.9239   27.0254 H   0  0  0  0  0  0
  -26.2927  -29.6715   24.1201 H   0  0  0  0  0  0
  -27.3983  -29.7250   25.4731 H   0  0  0  0  0  0
  -27.8839  -30.4178   23.9444 H   0  0  0  0  0  0
  -27.2721  -33.3726   26.1838 H   0  0  0  0  0  0
  -28.3965  -32.6755   25.0258 H   0  0  0  0  0  0
  -28.0667  -31.8531   26.5422 H   0  0  0  0  0  0
  -28.2594  -38.0060   24.7525 H   0  0  0  0  0  0
  -28.1069  -36.2587   24.6267 H   0  0  0  0  0  0
  -27.2295  -37.1359   25.8878 H   0  0  0  0  0  0
  -20.9415  -29.8762   21.6832 H   0  0  0  0  0  0
  -26.0109  -38.2792   24.1467 H   0  0  0  0  0  0
  -30.1693  -22.5872   19.4879 H   0  0  0  0  0  0
  -30.0293  -18.2379   22.3510 H   0  0  0  0  0  0
  -28.2683  -18.3084   22.3592 H   0  0  0  0  0  0
  -28.0802  -16.0184   21.6457 H   0  0  0  0  0  0
  -29.5306  -15.9101   22.6386 H   0  0  0  0  0  0
  -31.1196  -17.4907   19.8256 H   0  0  0  0  0  0
  -29.8235  -17.0763   18.7212 H   0  0  0  0  0  0
  -28.1652  -18.3226   19.9640 H   0  0  0  0  0  0
  -24.9032  -22.6461   21.8221 H   0  0  0  0  0  0
  -25.4024  -21.0170   22.2824 H   0  0  0  0  0  0
  -24.7681  -21.3178   20.6731 H   0  0  0  0  0  0
  -27.9857  -25.0814   18.5432 H   0  0  0  0  0  0
  -29.5624  -25.0577   19.1956 H   0  0  0  0  0  0
  -30.5388  -20.0112   19.8218 H   0  0  0  0  0  0
  1 25  1  0  0  0
  1 30  2  0  0  0
  1 83  1  0  0  0
  2  3  1  0  0  0
  2 25  1  0  0  0
  2 85  1  0  0  0
  2 86  1  0  0  0
  3  4  1  0  0  0
  3 87  1  0  0  0
  3 88  1  0  0  0
  4  5  1  0  0  0
  4 89  1  0  0  0
  4 90  1  0  0  0
  5  6  1  0  0  0
  5 26  1  0  0  0
  5 91  1  0  0  0
  6 25  1  0  0  0
  6 92  1  0  0  0
  6 93  1  0  0  0
  7  8  2  0  0  0
  7 26  1  0  0  0
  7 29  1  0  0  0
  8  9  1  0  0  0
  8 22  1  0  0  0
  9 10  1  0  0  0
  9 27  2  0  0  0
 10 11  2  0  0  0
 10 15  1  0  0  0
 11 12  1  0  0  0
 11 94  1  0  0  0
 12 13  2  0  0  0
 12 95  1  0  0  0
 13 14  1  0  0  0
 13 31  1  0  0  0
 14 15  2  0  0  0
 14 96  1  0  0  0
 15 97  1  0  0  0
 16 17  2  0  0  0
 16 21  1  0  0  0
 16 31  1  0  0  0
 17 18  1  0  0  0
 17 98  1  0  0  0
 18 19  2  0  0  0
 18 99  1  0  0  0
 19 20  1  0  0  0
 19 24  1  0  0  0
 20 21  2  0  0  0
 20100  1  0  0  0
 21 23  1  0  0  0
 22 28  1  0  0  0
 22 32  2  0  0  0
 26 27  1  0  0  0
 28101  1  0  0  0
 28102  1  0  0  0
 29103  1  0  0  0
 29104  1  0  0  0
 33 34  1  0  0  0
 33 66  1  0  0  0
 33 70  2  0  0  0
 34 36  1  0  0  0
 34 59  1  0  0  0
 34105  1  0  0  0
 35 44  2  0  0  0
 35 45  1  0  0  0
 35 68  1  0  0  0
 36 56  1  0  0  0
 36106  1  0  0  0
 37 39  1  0  0  0
 37 47  1  0  0  0
 37 66  1  0  0  0
 37107  1  0  0  0
 38 43  2  0  0  0
 38 46  1  0  0  0
 38 47  1  0  0  0
 39 64  1  0  0  0
 39 67  2  0  0  0
 40 52  1  0  0  0
 40 53  2  0  0  0
 40 58  1  0  0  0
 41108  1  0  0  0
 41109  1  0  0  0
 41110  1  0  0  0
 41 48  1  0  0  0
 42 43  1  0  0  0
 42 66  1  0  0  0
 42111  1  0  0  0
 42112  1  0  0  0
 43 44  1  0  0  0
 44113  1  0  0  0
 45 46  2  0  0  0
 45114  1  0  0  0
 46115  1  0  0  0
 47116  1  0  0  0
 47117  1  0  0  0
 48 56  1  0  0  0
 48 65  1  0  0  0
 48118  1  0  0  0
 49 50  1  0  0  0
 49 53  1  0  0  0
 49 64  1  0  0  0
 49119  1  0  0  0
 50 51  1  0  0  0
 50120  1  0  0  0
 50121  1  0  0  0
 51 52  1  0  0  0
 51122  1  0  0  0
 51123  1  0  0  0
 52124  1  0  0  0
 52125  1  0  0  0
 53 54  1  0  0  0
 54 55  2  0  0  0
 54126  1  0  0  0
 55 57  1  0  0  0
 55127  1  0  0  0
 56 69  2  0  0  0
 57 58  2  0  0  0
 57128  1  0  0  0
 58129  1  0  0  0
 59 60  1  0  0  0
 59 61  1  0  0  0
 59 62  1  0  0  0
 60130  1  0  0  0
 60131  1  0  0  0
 60132  1  0  0  0
 61133  1  0  0  0
 61134  1  0  0  0
 61135  1  0  0  0
 62136  1  0  0  0
 62137  1  0  0  0
 62138  1  0  0  0
 63 65  1  0  0  0
 63139  1  0  0  0
 63140  1  0  0  0
 63141  1  0  0  0
 64142  1  0  0  0
 65143  1  0  0  0
 68 80  1  0  0  0
 71 72  2  0  0  0
 71 73  1  0  0  0
 71144  1  0  0  0
 72 80  1  0  0  0
 72 81  1  0  0  0
 73 82  2  0  0  0
 73 84  1  0  0  0
 74 79  1  0  0  0
 74 81  2  0  0  0
 74 82  1  0  0  0
 75 76  1  0  0  0
 75 78  1  0  0  0
 75145  1  0  0  0
 75146  1  0  0  0
 76 83  1  0  0  0
 76147  1  0  0  0
 76148  1  0  0  0
 77 78  1  0  0  0
 77 83  1  0  0  0
 77149  1  0  0  0
 77150  1  0  0  0
 78 84  1  0  0  0
 78151  1  0  0  0
 79152  1  0  0  0
 79153  1  0  0  0
 79154  1  0  0  0
 80155  1  0  0  0
 80156  1  0  0  0
 84157  1  0  0  0
M  ISO  4   1 100  68 101  80 101  83 100
M  END
> <chiral flag>
0

> <version>
0

> <s_m_source_file>
/data/baiqing/PycharmProjects/Reinvent-master-3.2/result/LINK_invent/BTK/process_docking_weight1_custom_sum_contain_oxygen_bond_distance_aromatic_linkinvent_7_9_3/rearranged_h_0196.sdf

> <i_m_source_file_index>
95

> <r_mmod_Potential_Energy-OPLS-2005>
-150.082855224609

> <r_mmod_Stretch_Energy-OPLS-2005>
129.584671020508

> <r_mmod_Bend_Energy-OPLS-2005>
231.899261474609

> <r_mmod_Torsional_Energy-OPLS-2005>
305.114318847656

> <r_mmod_Improper_Torsional_Energy-OPLS-2005>
13.4388303756714

> <r_mmod_Van_der_Waal_Energy-OPLS-2005>
133.065795898438

> <r_mmod_Electrostatic_Energy-OPLS-2005>
-822.263122558594

> <r_mmod_Solvation_Energy-OPLS-2005>
-237.676284790039

> <b_mmod_Minimization_Converged-OPLS-2005>
0

> <r_mmod_RMS_Derivative-OPLS-2005>
3.86361837387085

$$$$
96
                    3D
 Structure written by MMmdl.
173183  0  0  1  0            999 V2000
  -30.7553  -14.3433   20.7203 C   0  0  0  0  0  0
  -30.4251  -12.2956   19.3792 C   0  0  0  0  0  0
  -29.4887  -12.5568   18.1847 C   0  0  0  0  0  0
  -28.0121  -12.3997   18.5937 C   0  0  0  0  0  0
  -27.6707  -13.1976   19.8788 C   0  0  2  0  0  0
  -28.7053  -12.9052   20.9883 C   0  0  0  0  0  0
  -25.2627  -13.8146   20.5644 C   0  0  0  0  0  0
  -24.1860  -13.0434   20.9125 C   0  0  0  0  0  0
  -24.6381  -11.6896   20.8675 C   0  0  0  0  0  0
  -23.9030  -10.4283   21.0376 C   0  0  0  0  0  0
  -24.3589   -9.4211   21.9155 C   0  0  0  0  0  0
  -23.6267   -8.2260   22.0761 C   0  0  0  0  0  0
  -22.4241   -8.0288   21.3565 C   0  0  0  0  0  0
  -21.9846   -9.0249   20.4660 C   0  0  0  0  0  0
  -22.7190  -10.2119   20.3049 C   0  0  0  0  0  0
  -21.6853   -6.0708   22.5255 C   0  0  0  0  0  0
  -21.4026   -6.5610   23.8189 C   0  0  0  0  0  0
  -21.3679   -5.6776   24.9161 C   0  0  0  0  0  0
  -21.6054   -4.3039   24.7224 C   0  0  0  0  0  0
  -21.8831   -3.8123   23.4349 C   0  0  0  0  0  0
  -21.9199   -4.6931   22.3400 C   0  0  0  0  0  0
  -22.7904  -13.5264   21.1811 C   0  0  0  0  0  0
  -22.1680   -4.2108   21.0980 F   0  0  0  0  0  0
  -21.5622   -3.4535   25.7750 F   0  0  0  0  0  0
  -30.0582  -13.2056   20.4719 N   0  0  0  0  0  0
  -26.3068  -12.9286   20.3334 N   0  0  0  0  0  0
  -25.9296  -11.6454   20.5666 N   0  0  0  0  0  0
  -22.0531  -12.8289   22.0385 N   0  0  0  0  0  0
  -25.4344  -15.1878   20.4071 N   0  0  0  0  0  0
  -31.7249  -14.7146   20.0493 O   0  0  0  0  0  0
  -21.6653   -6.8860   21.4226 O   0  0  0  0  0  0
  -22.3604  -14.5572   20.6648 O   0  0  0  0  0  0
  -24.6073  -31.8725   23.2122 C   0  0  0  0  0  0
  -25.8993  -32.4848   23.8435 C   0  0  1  0  0  0
  -27.2700  -27.4892   20.0840 C   0  0  0  0  0  0
  -25.5869  -33.8645   24.2377 N   0  0  0  0  0  0
  -23.3960  -30.4935   21.5488 C   0  0  2  0  0  0
  -24.8509  -28.9558   20.1259 C   0  0  0  0  0  0
  -22.7379  -29.4714   22.5006 C   0  0  0  0  0  0
  -18.0279  -28.1390   22.8500 C   0  0  0  0  0  0
  -24.1475  -36.7339   23.2637 C   0  0  0  0  0  0
  -25.9180  -30.8536   21.3566 C   0  0  0  0  0  0
  -26.0029  -29.4848   20.7188 C   0  0  0  0  0  0
  -27.2103  -28.7590   20.7090 C   0  0  0  0  0  0
  -26.0953  -26.9606   19.5056 C   0  0  0  0  0  0
  -24.8859  -27.6838   19.5263 C   0  0  0  0  0  0
  -23.6066  -29.8147   20.1674 C   0  0  0  0  0  0
  -25.4085  -36.3135   24.0352 C   0  0  1  0  0  0
  -20.5867  -28.3696   23.1317 C   0  0  2  0  0  0
  -20.6766  -26.9430   22.5425 C   0  0  0  0  0  0
  -19.5753  -26.6414   21.5208 C   0  0  0  0  0  0
  -18.1925  -26.7943   22.1614 C   0  0  0  0  0  0
  -19.1531  -28.8853   23.2912 C   0  0  0  0  0  0
  -18.9465  -30.1447   23.8949 C   0  0  0  0  0  0
  -17.6475  -30.6588   24.0590 C   0  0  0  0  0  0
  -25.9018  -34.9496   23.5164 C   0  0  0  0  0  0
  -16.5371  -29.9111   23.6315 C   0  0  0  0  0  0
  -16.7276  -28.6523   23.0347 C   0  0  0  0  0  0
  -26.4455  -31.6592   25.0725 C   0  0  0  0  0  0
  -25.3768  -31.3704   26.1530 C   0  0  0  0  0  0
  -27.0263  -30.3034   24.6047 C   0  0  0  0  0  0
  -27.6065  -32.4295   25.7426 C   0  0  0  0  0  0
  -27.5585  -37.1794   24.8455 C   0  0  0  0  0  0
  -21.4122  -29.3053   22.3716 N   0  0  0  0  0  0
  -26.4277  -37.3817   23.9435 N   0  0  0  0  0  0
  -24.6583  -31.0857   22.1001 N   0  0  0  0  0  0
  -23.4153  -28.8279   23.3071 O   0  0  0  0  0  0
  -28.4106  -26.7248   19.9821 O   0  0  0  0  0  0
  -26.5595  -34.8939   22.4730 O   0  0  0  0  0  0
  -23.5289  -32.1476   23.7538 O   0  0  0  0  0  0
  -28.7882  -16.5423   22.6100 C   0  0  0  0  0  0
  -29.0721  -18.8182   22.3936 C   0  0  0  0  0  0
  -30.3527  -18.5906   21.8193 C   0  0  0  0  0  0
  -30.0367  -16.2992   21.9927 C   0  0  0  0  0  0
  -26.9676  -20.3859   22.8051 C   0  0  0  0  0  0
  -27.5906  -20.7706   21.4928 C   0  0  0  0  0  0
  -31.8763  -23.6417   18.6809 C   0  0  0  0  0  0
  -31.3120  -22.2278   18.5762 C   0  0  0  0  0  0
  -31.4119  -22.6758   20.8449 C   0  0  0  0  0  0
  -28.4598  -20.1841   22.5861 C   0  0  0  0  0  0
  -31.6870  -24.0241   20.1543 C   0  0  2  0  0  0
  -31.2808  -19.7366   21.4456 C   0  0  0  0  0  0
  -30.9225  -20.3938   20.0965 C   0  0  0  0  0  0
  -30.7752  -26.3542   19.9233 C   0  0  0  0  0  0
  -29.6523  -27.2781   20.4166 C   0  0  0  0  0  0
  -28.3036  -17.7854   22.8068 N   0  0  0  0  0  0
  -30.8240  -17.3351   21.5992 N   0  0  0  0  0  0
  -31.6795  -21.6285   19.8544 N   0  0  0  0  0  0
  -30.3824  -14.9425   21.8561 N   0  0  0  0  0  0
  -30.5620  -24.9621   20.3845 N   0  3  0  0  0  0
  -31.4675  -12.4104   19.0777 H   0  0  0  0  0  0
  -30.3262  -11.2631   19.7179 H   0  0  0  0  0  0
  -29.7225  -11.8762   17.3644 H   0  0  0  0  0  0
  -29.6544  -13.5679   17.8042 H   0  0  0  0  0  0
  -27.8108  -11.3382   18.7458 H   0  0  0  0  0  0
  -27.3688  -12.7148   17.7722 H   0  0  0  0  0  0
  -27.7349  -14.2566   19.6277 H   0  0  0  0  0  0
  -28.6622  -11.8517   21.2711 H   0  0  0  0  0  0
  -28.4316  -13.4515   21.8898 H   0  0  0  0  0  0
  -25.2730   -9.5699   22.4726 H   0  0  0  0  0  0
  -23.9977   -7.4668   22.7500 H   0  0  0  0  0  0
  -21.0766   -8.8757   19.8985 H   0  0  0  0  0  0
  -22.3621  -10.9646   19.6176 H   0  0  0  0  0  0
  -21.2022   -7.6111   23.9668 H   0  0  0  0  0  0
  -21.1494   -6.0519   25.9053 H   0  0  0  0  0  0
  -22.0585   -2.7576   23.2876 H   0  0  0  0  0  0
  -22.4098  -11.9944   22.4807 H   0  0  0  0  0  0
  -21.1169  -13.1381   22.2568 H   0  0  0  0  0  0
  -24.6663  -15.8421   20.5112 H   0  0  0  0  0  0
  -26.2929  -15.6284   20.1015 H   0  0  0  0  0  0
  -26.7069  -32.5597   23.1222 H   0  0  0  0  0  0
  -24.9963  -33.9828   25.0482 H   0  0  0  0  0  0
  -22.6823  -31.3079   21.4032 H   0  0  0  0  0  0
  -23.3728  -35.9678   23.3300 H   0  0  0  0  0  0
  -24.3580  -36.8964   22.2053 H   0  0  0  0  0  0
  -23.7234  -37.6548   23.6652 H   0  0  0  0  0  0
  -26.0154  -31.6108   20.5773 H   0  0  0  0  0  0
  -26.8105  -30.9257   21.9662 H   0  0  0  0  0  0
  -28.0822  -29.2010   21.1691 H   0  0  0  0  0  0
  -26.1266  -25.9929   19.0234 H   0  0  0  0  0  0
  -23.9978  -27.2612   19.0774 H   0  0  0  0  0  0
  -23.7144  -30.5840   19.4025 H   0  0  0  0  0  0
  -22.7358  -29.2283   19.8686 H   0  0  0  0  0  0
  -25.1225  -36.2024   25.0842 H   0  0  0  0  0  0
  -20.9980  -28.3289   24.1430 H   0  0  0  0  0  0
  -20.5665  -26.2318   23.3622 H   0  0  0  0  0  0
  -21.6644  -26.7462   22.1239 H   0  0  0  0  0  0
  -19.6918  -25.6338   21.1206 H   0  0  0  0  0  0
  -19.6673  -27.3244   20.6753 H   0  0  0  0  0  0
  -17.4196  -26.6732   21.4004 H   0  0  0  0  0  0
  -18.0306  -26.0065   22.8987 H   0  0  0  0  0  0
  -19.7953  -30.7229   24.2362 H   0  0  0  0  0  0
  -17.5047  -31.6269   24.5195 H   0  0  0  0  0  0
  -15.5383  -30.3038   23.7600 H   0  0  0  0  0  0
  -15.8675  -28.0841   22.7054 H   0  0  0  0  0  0
  -24.5923  -30.7036   25.7941 H   0  0  0  0  0  0
  -24.8964  -32.2860   26.4982 H   0  0  0  0  0  0
  -25.8177  -30.8914   27.0282 H   0  0  0  0  0  0
  -26.2766  -29.6768   24.1202 H   0  0  0  0  0  0
  -27.4172  -29.7288   25.4452 H   0  0  0  0  0  0
  -27.8547  -30.4360   23.9086 H   0  0  0  0  0  0
  -27.2719  -33.3589   26.2042 H   0  0  0  0  0  0
  -28.3813  -32.6866   25.0190 H   0  0  0  0  0  0
  -28.0806  -31.8400   26.5286 H   0  0  0  0  0  0
  -28.2590  -38.0104   24.7528 H   0  0  0  0  0  0
  -28.1092  -36.2638   24.6208 H   0  0  0  0  0  0
  -27.2339  -37.1393   25.8872 H   0  0  0  0  0  0
  -20.9297  -29.8782   21.6931 H   0  0  0  0  0  0
  -26.0173  -38.2901   24.1450 H   0  0  0  0  0  0
  -28.1517  -15.7300   22.9324 H   0  0  0  0  0  0
  -26.3093  -19.5188   22.8025 H   0  0  0  0  0  0
  -26.6543  -21.1999   23.4561 H   0  0  0  0  0  0
  -27.6642  -21.8343   21.2829 H   0  0  0  0  0  0
  -27.3606  -20.1402   20.6365 H   0  0  0  0  0  0
  -31.4136  -24.3256   17.9682 H   0  0  0  0  0  0
  -32.9423  -23.6148   18.4497 H   0  0  0  0  0  0
  -31.7194  -21.6769   17.7271 H   0  0  0  0  0  0
  -30.2266  -22.2710   18.4630 H   0  0  0  0  0  0
  -30.3676  -22.6158   21.1566 H   0  0  0  0  0  0
  -32.0226  -22.5544   21.7406 H   0  0  0  0  0  0
  -29.1318  -20.8548   23.1192 H   0  0  0  0  0  0
  -32.6070  -24.4610   20.5462 H   0  0  0  0  0  0
  -32.3104  -19.3770   21.4088 H   0  0  0  0  0  0
  -31.2551  -20.4527   22.2660 H   0  0  0  0  0  0
  -29.8547  -20.6082   20.0580 H   0  0  0  0  0  0
  -31.1147  -19.6808   19.2917 H   0  0  0  0  0  0
  -31.7364  -26.7277   20.2793 H   0  0  0  0  0  0
  -30.8067  -26.3811   18.8337 H   0  0  0  0  0  0
  -29.8104  -28.2730   19.9969 H   0  0  0  0  0  0
  -29.6693  -27.3666   21.5044 H   0  0  0  0  0  0
  -29.7981  -14.3311   22.4053 H   0  0  0  0  0  0
  -30.4059  -24.9958   21.3799 H   0  0  0  0  0  0
  -29.7174  -24.6010   19.9667 H   0  0  0  0  0  0
  1 25  1  0  0  0
  1 30  2  0  0  0
  1 89  1  0  0  0
  2  3  1  0  0  0
  2 25  1  0  0  0
  2 91  1  0  0  0
  2 92  1  0  0  0
  3  4  1  0  0  0
  3 93  1  0  0  0
  3 94  1  0  0  0
  4  5  1  0  0  0
  4 95  1  0  0  0
  4 96  1  0  0  0
  5  6  1  0  0  0
  5 26  1  0  0  0
  5 97  1  0  0  0
  6 25  1  0  0  0
  6 98  1  0  0  0
  6 99  1  0  0  0
  7  8  2  0  0  0
  7 26  1  0  0  0
  7 29  1  0  0  0
  8  9  1  0  0  0
  8 22  1  0  0  0
  9 10  1  0  0  0
  9 27  2  0  0  0
 10 11  2  0  0  0
 10 15  1  0  0  0
 11 12  1  0  0  0
 11100  1  0  0  0
 12 13  2  0  0  0
 12101  1  0  0  0
 13 14  1  0  0  0
 13 31  1  0  0  0
 14 15  2  0  0  0
 14102  1  0  0  0
 15103  1  0  0  0
 16 17  2  0  0  0
 16 21  1  0  0  0
 16 31  1  0  0  0
 17 18  1  0  0  0
 17104  1  0  0  0
 18 19  2  0  0  0
 18105  1  0  0  0
 19 20  1  0  0  0
 19 24  1  0  0  0
 20 21  2  0  0  0
 20106  1  0  0  0
 21 23  1  0  0  0
 22 28  1  0  0  0
 22 32  2  0  0  0
 26 27  1  0  0  0
 28107  1  0  0  0
 28108  1  0  0  0
 29109  1  0  0  0
 29110  1  0  0  0
 33 34  1  0  0  0
 33 66  1  0  0  0
 33 70  2  0  0  0
 34 36  1  0  0  0
 34 59  1  0  0  0
 34111  1  0  0  0
 35 44  2  0  0  0
 35 45  1  0  0  0
 35 68  1  0  0  0
 36 56  1  0  0  0
 36112  1  0  0  0
 37 39  1  0  0  0
 37 47  1  0  0  0
 37 66  1  0  0  0
 37113  1  0  0  0
 38 43  2  0  0  0
 38 46  1  0  0  0
 38 47  1  0  0  0
 39 64  1  0  0  0
 39 67  2  0  0  0
 40 52  1  0  0  0
 40 53  2  0  0  0
 40 58  1  0  0  0
 41114  1  0  0  0
 41115  1  0  0  0
 41116  1  0  0  0
 41 48  1  0  0  0
 42 43  1  0  0  0
 42 66  1  0  0  0
 42117  1  0  0  0
 42118  1  0  0  0
 43 44  1  0  0  0
 44119  1  0  0  0
 45 46  2  0  0  0
 45120  1  0  0  0
 46121  1  0  0  0
 47122  1  0  0  0
 47123  1  0  0  0
 48 56  1  0  0  0
 48 65  1  0  0  0
 48124  1  0  0  0
 49 50  1  0  0  0
 49 53  1  0  0  0
 49 64  1  0  0  0
 49125  1  0  0  0
 50 51  1  0  0  0
 50126  1  0  0  0
 50127  1  0  0  0
 51 52  1  0  0  0
 51128  1  0  0  0
 51129  1  0  0  0
 52130  1  0  0  0
 52131  1  0  0  0
 53 54  1  0  0  0
 54 55  2  0  0  0
 54132  1  0  0  0
 55 57  1  0  0  0
 55133  1  0  0  0
 56 69  2  0  0  0
 57 58  2  0  0  0
 57134  1  0  0  0
 58135  1  0  0  0
 59 60  1  0  0  0
 59 61  1  0  0  0
 59 62  1  0  0  0
 60136  1  0  0  0
 60137  1  0  0  0
 60138  1  0  0  0
 61139  1  0  0  0
 61140  1  0  0  0
 61141  1  0  0  0
 62142  1  0  0  0
 62143  1  0  0  0
 62144  1  0  0  0
 63 65  1  0  0  0
 63145  1  0  0  0
 63146  1  0  0  0
 63147  1  0  0  0
 64148  1  0  0  0
 65149  1  0  0  0
 68 85  1  0  0  0
 71 74  2  0  0  0
 71 86  1  0  0  0
 71150  1  0  0  0
 72 73  1  0  0  0
 72 86  2  0  0  0
 72 80  1  0  0  0
 73 82  1  0  0  0
 73 87  2  0  0  0
 74 87  1  0  0  0
 74 89  1  0  0  0
 75 76  1  0  0  0
 75 80  1  0  0  0
 75151  1  0  0  0
 75152  1  0  0  0
 76 80  1  0  0  0
 76153  1  0  0  0
 76154  1  0  0  0
 77 78  1  0  0  0
 77 81  1  0  0  0
 77155  1  0  0  0
 77156  1  0  0  0
 78 88  1  0  0  0
 78157  1  0  0  0
 78158  1  0  0  0
 79 81  1  0  0  0
 79 88  1  0  0  0
 79159  1  0  0  0
 79160  1  0  0  0
 80161  1  0  0  0
 81 90  1  0  0  0
 81162  1  0  0  0
 82 83  1  0  0  0
 82163  1  0  0  0
 82164  1  0  0  0
 83 88  1  0  0  0
 83165  1  0  0  0
 83166  1  0  0  0
 84 85  1  0  0  0
 84 90  1  0  0  0
 84167  1  0  0  0
 84168  1  0  0  0
 85169  1  0  0  0
 85170  1  0  0  0
 89171  1  0  0  0
 90172  1  0  0  0
 90173  1  0  0  0
M  CHG  1  90   1
M  ISO  4   1 100  68 101  85 101  89 100
M  END
> <chiral flag>
0

> <version>
0

> <s_m_source_file>
/data/baiqing/PycharmProjects/Reinvent-master-3.2/result/LINK_invent/BTK/process_docking_weight1_custom_sum_contain_oxygen_bond_distance_aromatic_linkinvent_7_9_3/rearranged_h_0196.sdf

> <i_m_source_file_index>
96

> <r_mmod_Potential_Energy-OPLS-2005>
-62.268138885498

> <r_mmod_Stretch_Energy-OPLS-2005>
36.1488075256348

> <r_mmod_Bend_Energy-OPLS-2005>
121.133995056152

> <r_mmod_Torsional_Energy-OPLS-2005>
308.269165039062

> <r_mmod_Improper_Torsional_Energy-OPLS-2005>
6.48951053619385

> <r_mmod_Van_der_Waal_Energy-OPLS-2005>
154.226287841797

> <r_mmod_Electrostatic_Energy-OPLS-2005>
-217.831756591797

> <r_mmod_Solvation_Energy-OPLS-2005>
-477.775726318359

> <b_mmod_Minimization_Converged-OPLS-2005>
0

> <r_mmod_RMS_Derivative-OPLS-2005>
3.53168392181396

$$$$
97
                    3D
 Structure written by MMmdl.
156165  0  0  1  0            999 V2000
  -30.6960  -14.5316   20.5051 C   0  0  0  0  0  0
  -30.4178  -12.3254   19.4434 C   0  0  0  0  0  0
  -29.4981  -12.4901   18.2159 C   0  0  0  0  0  0
  -28.0194  -12.3498   18.6270 C   0  0  0  0  0  0
  -27.6542  -13.2157   19.8631 C   0  0  2  0  0  0
  -28.6985  -13.0623   20.9930 C   0  0  0  0  0  0
  -25.2566  -13.8178   20.5685 C   0  0  0  0  0  0
  -24.1832  -13.0445   20.9191 C   0  0  0  0  0  0
  -24.6392  -11.6912   20.8737 C   0  0  0  0  0  0
  -23.9060  -10.4299   21.0404 C   0  0  0  0  0  0
  -24.3611   -9.4215   21.9184 C   0  0  0  0  0  0
  -23.6288   -8.2249   22.0756 C   0  0  0  0  0  0
  -22.4272   -8.0283   21.3546 C   0  0  0  0  0  0
  -21.9907   -9.0257   20.4651 C   0  0  0  0  0  0
  -22.7232  -10.2138   20.3058 C   0  0  0  0  0  0
  -21.6856   -6.0734   22.5278 C   0  0  0  0  0  0
  -21.4017   -6.5637   23.8210 C   0  0  0  0  0  0
  -21.3659   -5.6791   24.9172 C   0  0  0  0  0  0
  -21.6044   -4.3055   24.7226 C   0  0  0  0  0  0
  -21.8818   -3.8144   23.4349 C   0  0  0  0  0  0
  -21.9193   -4.6960   22.3403 C   0  0  0  0  0  0
  -22.7854  -13.5237   21.1851 C   0  0  0  0  0  0
  -22.1666   -4.2143   21.0982 F   0  0  0  0  0  0
  -21.5628   -3.4542   25.7741 F   0  0  0  0  0  0
  -30.0222  -13.3500   20.4245 N   0  0  0  0  0  0
  -26.2995  -12.9360   20.3325 N   0  0  0  0  0  0
  -25.9320  -11.6512   20.5753 N   0  0  0  0  0  0
  -22.0495  -12.8231   22.0406 N   0  0  0  0  0  0
  -25.4276  -15.1901   20.4093 N   0  0  0  0  0  0
  -31.8701  -14.6433   20.1449 O   0  0  0  0  0  0
  -21.6639   -6.8879   21.4242 O   0  0  0  0  0  0
  -22.3541  -14.5544   20.6696 O   0  0  0  0  0  0
  -24.6206  -31.8664   23.2100 C   0  0  0  0  0  0
  -25.9083  -32.4814   23.8401 C   0  0  1  0  0  0
  -27.2188  -27.3820   20.0991 C   0  0  0  0  0  0
  -25.5927  -33.8612   24.2328 N   0  0  0  0  0  0
  -23.4094  -30.4944   21.5520 C   0  0  2  0  0  0
  -24.8523  -28.9639   20.1115 C   0  0  0  0  0  0
  -22.7443  -29.4660   22.4968 C   0  0  0  0  0  0
  -18.0281  -28.1378   22.8492 C   0  0  0  0  0  0
  -24.1490  -36.7311   23.2635 C   0  0  0  0  0  0
  -25.9464  -30.8169   21.3717 C   0  0  0  0  0  0
  -26.0198  -29.4506   20.7125 C   0  0  0  0  0  0
  -27.2066  -28.6699   20.7011 C   0  0  0  0  0  0
  -26.0267  -26.9389   19.4733 C   0  0  0  0  0  0
  -24.8540  -27.7101   19.4865 C   0  0  0  0  0  0
  -23.6191  -29.8370   20.1643 C   0  0  0  0  0  0
  -25.4110  -36.3104   24.0334 C   0  0  1  0  0  0
  -20.5876  -28.3677   23.1303 C   0  0  2  0  0  0
  -20.6774  -26.9410   22.5411 C   0  0  0  0  0  0
  -19.5748  -26.6385   21.5213 C   0  0  0  0  0  0
  -18.1928  -26.7924   22.1626 C   0  0  0  0  0  0
  -19.1531  -28.8844   23.2894 C   0  0  0  0  0  0
  -18.9455  -30.1448   23.8906 C   0  0  0  0  0  0
  -17.6456  -30.6584   24.0563 C   0  0  0  0  0  0
  -25.9044  -34.9469   23.5125 C   0  0  0  0  0  0
  -16.5348  -29.9083   23.6325 C   0  0  0  0  0  0
  -16.7269  -28.6500   23.0348 C   0  0  0  0  0  0
  -26.4484  -31.6595   25.0742 C   0  0  0  0  0  0
  -25.3733  -31.3718   26.1479 C   0  0  0  0  0  0
  -27.0314  -30.3029   24.6145 C   0  0  0  0  0  0
  -27.6061  -32.4307   25.7506 C   0  0  0  0  0  0
  -27.5581  -37.1812   24.8463 C   0  0  0  0  0  0
  -21.4164  -29.3042   22.3707 N   0  0  0  0  0  0
  -26.4294  -37.3791   23.9406 N   0  0  0  0  0  0
  -24.6775  -31.0736   22.1021 N   0  0  0  0  0  0
  -23.4202  -28.8183   23.3005 O   0  0  0  0  0  0
  -28.3505  -26.5688   20.1481 O   0  0  0  0  0  0
  -26.5599  -34.8920   22.4683 O   0  0  0  0  0  0
  -23.5385  -32.1431   23.7467 O   0  0  0  0  0  0
  -30.2182  -17.5460   19.1584 C   0  0  0  0  0  0
  -29.8340  -20.5947   19.5143 C   0  0  0  0  0  0
  -29.3771  -20.4431   21.5263 C   0  0  0  0  0  0
  -29.5536  -18.2466   20.3169 C   0  0  1  0  0  0
  -30.4452  -16.9970   20.5454 C   0  0  1  0  0  0
  -29.8103  -21.6525   20.6468 C   0  0  0  0  0  0
  -29.2390  -24.1440   20.4439 C   0  0  0  0  0  0
  -28.1077  -25.1345   20.0254 C   0  0  0  0  0  0
  -30.0856  -19.6046   20.5609 N   0  0  0  0  0  0
  -29.9567  -15.6417   20.7412 N   0  0  0  0  0  0
  -28.7699  -22.7137   20.4625 N   0  3  0  0  0  0
  -31.4647  -12.4096   19.1458 H   0  0  0  0  0  0
  -30.3102  -11.3290   19.8751 H   0  0  0  0  0  0
  -29.7463  -11.7480   17.4561 H   0  0  0  0  0  0
  -29.6637  -13.4656   17.7556 H   0  0  0  0  0  0
  -27.8393  -11.2971   18.8468 H   0  0  0  0  0  0
  -27.3690  -12.5985   17.7876 H   0  0  0  0  0  0
  -27.6778  -14.2527   19.5278 H   0  0  0  0  0  0
  -28.6821  -12.0495   21.3980 H   0  0  0  0  0  0
  -28.4676  -13.7246   21.8289 H   0  0  0  0  0  0
  -25.2758   -9.5689   22.4752 H   0  0  0  0  0  0
  -24.0001   -7.4638   22.7471 H   0  0  0  0  0  0
  -21.0843   -8.8771   19.8952 H   0  0  0  0  0  0
  -22.3690  -10.9675   19.6163 H   0  0  0  0  0  0
  -21.2010   -7.6147   23.9713 H   0  0  0  0  0  0
  -21.1486   -6.0524   25.9074 H   0  0  0  0  0  0
  -22.0597   -2.7606   23.2849 H   0  0  0  0  0  0
  -22.4111  -11.9888   22.4788 H   0  0  0  0  0  0
  -21.1112  -13.1254   22.2609 H   0  0  0  0  0  0
  -24.6586  -15.8432   20.5142 H   0  0  0  0  0  0
  -26.2735  -15.6284   20.0688 H   0  0  0  0  0  0
  -26.7156  -32.5507   23.1161 H   0  0  0  0  0  0
  -25.0091  -33.9774   25.0483 H   0  0  0  0  0  0
  -22.6996  -31.3133   21.4168 H   0  0  0  0  0  0
  -23.3747  -35.9650   23.3299 H   0  0  0  0  0  0
  -24.3587  -36.8924   22.2049 H   0  0  0  0  0  0
  -23.7246  -37.6519   23.6646 H   0  0  0  0  0  0
  -26.0695  -31.5837   20.6054 H   0  0  0  0  0  0
  -26.8310  -30.8642   21.9953 H   0  0  0  0  0  0
  -28.1023  -29.0390   21.1810 H   0  0  0  0  0  0
  -25.9611  -25.9878   18.9676 H   0  0  0  0  0  0
  -23.9585  -27.3334   19.0111 H   0  0  0  0  0  0
  -23.7343  -30.6172   19.4110 H   0  0  0  0  0  0
  -22.7399  -29.2651   19.8618 H   0  0  0  0  0  0
  -25.1285  -36.1969   25.0827 H   0  0  0  0  0  0
  -20.9971  -28.3244   24.1422 H   0  0  0  0  0  0
  -20.5691  -26.2284   23.3600 H   0  0  0  0  0  0
  -21.6643  -26.7456   22.1194 H   0  0  0  0  0  0
  -19.6913  -25.6298   21.1236 H   0  0  0  0  0  0
  -19.6684  -27.3199   20.6746 H   0  0  0  0  0  0
  -17.4200  -26.6670   21.4027 H   0  0  0  0  0  0
  -18.0331  -26.0064   22.9020 H   0  0  0  0  0  0
  -19.7929  -30.7260   24.2281 H   0  0  0  0  0  0
  -17.5009  -31.6265   24.5160 H   0  0  0  0  0  0
  -15.5347  -30.2987   23.7640 H   0  0  0  0  0  0
  -15.8671  -28.0821   22.7055 H   0  0  0  0  0  0
  -24.5908  -30.7064   25.7812 H   0  0  0  0  0  0
  -24.8922  -32.2879   26.4915 H   0  0  0  0  0  0
  -25.8072  -30.8893   27.0246 H   0  0  0  0  0  0
  -26.2874  -29.6798   24.1170 H   0  0  0  0  0  0
  -27.4035  -29.7261   25.4622 H   0  0  0  0  0  0
  -27.8733  -30.4332   23.9342 H   0  0  0  0  0  0
  -27.2691  -33.3600   26.2108 H   0  0  0  0  0  0
  -28.3864  -32.6872   25.0329 H   0  0  0  0  0  0
  -28.0736  -31.8411   26.5403 H   0  0  0  0  0  0
  -28.2598  -38.0109   24.7512 H   0  0  0  0  0  0
  -28.1076  -36.2640   24.6283 H   0  0  0  0  0  0
  -27.2300  -37.1458   25.8867 H   0  0  0  0  0  0
  -20.9324  -29.8788   21.6949 H   0  0  0  0  0  0
  -26.0180  -38.2870   24.1402 H   0  0  0  0  0  0
  -31.0694  -18.0258   18.6780 H   0  0  0  0  0  0
  -29.5692  -16.9899   18.4834 H   0  0  0  0  0  0
  -30.6670  -20.6525   18.8121 H   0  0  0  0  0  0
  -28.8710  -20.4046   19.0341 H   0  0  0  0  0  0
  -28.3073  -20.2216   21.5143 H   0  0  0  0  0  0
  -29.8280  -20.3742   22.5173 H   0  0  0  0  0  0
  -28.4749  -18.0972   20.3475 H   0  0  0  0  0  0
  -31.4151  -17.2074   20.9951 H   0  0  0  0  0  0
  -30.8008  -22.0323   20.9087 H   0  0  0  0  0  0
  -29.6070  -24.4031   21.4368 H   0  0  0  0  0  0
  -30.0795  -24.2454   19.7572 H   0  0  0  0  0  0
  -27.2336  -24.8859   20.6305 H   0  0  0  0  0  0
  -27.8528  -24.9167   18.9873 H   0  0  0  0  0  0
  -28.9880  -15.5157   20.9931 H   0  0  0  0  0  0
  -28.0953  -22.6154   21.2053 H   0  0  0  0  0  0
  -28.2833  -22.5190   19.6016 H   0  0  0  0  0  0
  1 25  1  0  0  0
  1 30  2  0  0  0
  1 80  1  0  0  0
  2  3  1  0  0  0
  2 25  1  0  0  0
  2 82  1  0  0  0
  2 83  1  0  0  0
  3  4  1  0  0  0
  3 84  1  0  0  0
  3 85  1  0  0  0
  4  5  1  0  0  0
  4 86  1  0  0  0
  4 87  1  0  0  0
  5  6  1  0  0  0
  5 26  1  0  0  0
  5 88  1  0  0  0
  6 25  1  0  0  0
  6 89  1  0  0  0
  6 90  1  0  0  0
  7  8  2  0  0  0
  7 26  1  0  0  0
  7 29  1  0  0  0
  8  9  1  0  0  0
  8 22  1  0  0  0
  9 10  1  0  0  0
  9 27  2  0  0  0
 10 11  2  0  0  0
 10 15  1  0  0  0
 11 12  1  0  0  0
 11 91  1  0  0  0
 12 13  2  0  0  0
 12 92  1  0  0  0
 13 14  1  0  0  0
 13 31  1  0  0  0
 14 15  2  0  0  0
 14 93  1  0  0  0
 15 94  1  0  0  0
 16 17  2  0  0  0
 16 21  1  0  0  0
 16 31  1  0  0  0
 17 18  1  0  0  0
 17 95  1  0  0  0
 18 19  2  0  0  0
 18 96  1  0  0  0
 19 20  1  0  0  0
 19 24  1  0  0  0
 20 21  2  0  0  0
 20 97  1  0  0  0
 21 23  1  0  0  0
 22 28  1  0  0  0
 22 32  2  0  0  0
 26 27  1  0  0  0
 28 98  1  0  0  0
 28 99  1  0  0  0
 29100  1  0  0  0
 29101  1  0  0  0
 33 34  1  0  0  0
 33 66  1  0  0  0
 33 70  2  0  0  0
 34 36  1  0  0  0
 34 59  1  0  0  0
 34102  1  0  0  0
 35 44  2  0  0  0
 35 45  1  0  0  0
 35 68  1  0  0  0
 36 56  1  0  0  0
 36103  1  0  0  0
 37 39  1  0  0  0
 37 47  1  0  0  0
 37 66  1  0  0  0
 37104  1  0  0  0
 38 43  2  0  0  0
 38 46  1  0  0  0
 38 47  1  0  0  0
 39 64  1  0  0  0
 39 67  2  0  0  0
 40 52  1  0  0  0
 40 53  2  0  0  0
 40 58  1  0  0  0
 41105  1  0  0  0
 41106  1  0  0  0
 41107  1  0  0  0
 41 48  1  0  0  0
 42 43  1  0  0  0
 42 66  1  0  0  0
 42108  1  0  0  0
 42109  1  0  0  0
 43 44  1  0  0  0
 44110  1  0  0  0
 45 46  2  0  0  0
 45111  1  0  0  0
 46112  1  0  0  0
 47113  1  0  0  0
 47114  1  0  0  0
 48 56  1  0  0  0
 48 65  1  0  0  0
 48115  1  0  0  0
 49 50  1  0  0  0
 49 53  1  0  0  0
 49 64  1  0  0  0
 49116  1  0  0  0
 50 51  1  0  0  0
 50117  1  0  0  0
 50118  1  0  0  0
 51 52  1  0  0  0
 51119  1  0  0  0
 51120  1  0  0  0
 52121  1  0  0  0
 52122  1  0  0  0
 53 54  1  0  0  0
 54 55  2  0  0  0
 54123  1  0  0  0
 55 57  1  0  0  0
 55124  1  0  0  0
 56 69  2  0  0  0
 57 58  2  0  0  0
 57125  1  0  0  0
 58126  1  0  0  0
 59 60  1  0  0  0
 59 61  1  0  0  0
 59 62  1  0  0  0
 60127  1  0  0  0
 60128  1  0  0  0
 60129  1  0  0  0
 61130  1  0  0  0
 61131  1  0  0  0
 61132  1  0  0  0
 62133  1  0  0  0
 62134  1  0  0  0
 62135  1  0  0  0
 63 65  1  0  0  0
 63136  1  0  0  0
 63137  1  0  0  0
 63138  1  0  0  0
 64139  1  0  0  0
 65140  1  0  0  0
 68 78  1  0  0  0
 71 74  1  0  0  0
 71 75  1  0  0  0
 71141  1  0  0  0
 71142  1  0  0  0
 72 76  1  0  0  0
 72143  1  0  0  0
 72144  1  0  0  0
 72 79  1  0  0  0
 73 76  1  0  0  0
 73 79  1  0  0  0
 73145  1  0  0  0
 73146  1  0  0  0
 74 75  1  0  0  0
 74 79  1  0  0  0
 74147  1  0  0  0
 75 80  1  0  0  0
 75148  1  0  0  0
 76 81  1  0  0  0
 76149  1  0  0  0
 77 78  1  0  0  0
 77 81  1  0  0  0
 77150  1  0  0  0
 77151  1  0  0  0
 78152  1  0  0  0
 78153  1  0  0  0
 80154  1  0  0  0
 81155  1  0  0  0
 81156  1  0  0  0
M  CHG  1  81   1
M  ISO  4   1 100  68 101  78 101  80 100
M  END
> <chiral flag>
0

> <version>
0

> <s_m_source_file>
/data/baiqing/PycharmProjects/Reinvent-master-3.2/result/LINK_invent/BTK/process_docking_weight1_custom_sum_contain_oxygen_bond_distance_aromatic_linkinvent_7_9_3/rearranged_h_0196.sdf

> <i_m_source_file_index>
97

> <r_mmod_Potential_Energy-OPLS-2005>
-143.937088012695

> <r_mmod_Stretch_Energy-OPLS-2005>
47.7420082092285

> <r_mmod_Bend_Energy-OPLS-2005>
137.419342041016

> <r_mmod_Torsional_Energy-OPLS-2005>
265.554290771484

> <r_mmod_Improper_Torsional_Energy-OPLS-2005>
6.21141672134399

> <r_mmod_Van_der_Waal_Energy-OPLS-2005>
135.355072021484

> <r_mmod_Electrostatic_Energy-OPLS-2005>
-280.801239013672

> <r_mmod_Solvation_Energy-OPLS-2005>
-482.983306884766

> <b_mmod_Minimization_Converged-OPLS-2005>
0

> <r_mmod_RMS_Derivative-OPLS-2005>
0.530335426330566

$$$$
