0
                    3D
 Structure written by MMmdl.
156164  0  0  1  0            999 V2000
  -30.6773  -14.5150   20.5492 C   0  0  0  0  0  0
  -30.4270  -12.3303   19.4246 C   0  0  0  0  0  0
  -29.4961  -12.5090   18.2068 C   0  0  0  0  0  0
  -28.0174  -12.3656   18.6194 C   0  0  0  0  0  0
  -27.6593  -13.2096   19.8722 C   0  0  2  0  0  0
  -28.7032  -13.0059   20.9935 C   0  0  0  0  0  0
  -25.2578  -13.8164   20.5681 C   0  0  0  0  0  0
  -24.1834  -13.0439   20.9183 C   0  0  0  0  0  0
  -24.6389  -11.6907   20.8729 C   0  0  0  0  0  0
  -23.9054  -10.4292   21.0403 C   0  0  0  0  0  0
  -24.3614   -9.4208   21.9180 C   0  0  0  0  0  0
  -23.6296   -8.2240   22.0752 C   0  0  0  0  0  0
  -22.4275   -8.0277   21.3545 C   0  0  0  0  0  0
  -21.9905   -9.0246   20.4644 C   0  0  0  0  0  0
  -22.7226  -10.2130   20.3054 C   0  0  0  0  0  0
  -21.6849   -6.0735   22.5280 C   0  0  0  0  0  0
  -21.4007   -6.5641   23.8212 C   0  0  0  0  0  0
  -21.3660   -5.6797   24.9177 C   0  0  0  0  0  0
  -21.6043   -4.3058   24.7227 C   0  0  0  0  0  0
  -21.8818   -3.8148   23.4348 C   0  0  0  0  0  0
  -21.9192   -4.6964   22.3403 C   0  0  0  0  0  0
  -22.7858  -13.5235   21.1856 C   0  0  0  0  0  0
  -22.1665   -4.2152   21.0981 F   0  0  0  0  0  0
  -21.5632   -3.4540   25.7738 F   0  0  0  0  0  0
  -30.0291  -13.3218   20.4365 N   0  0  0  0  0  0
  -26.3012  -12.9337   20.3358 N   0  0  0  0  0  0
  -25.9317  -11.6491   20.5761 N   0  0  0  0  0  0
  -22.0506  -12.8216   22.0409 N   0  0  0  0  0  0
  -25.4306  -15.1881   20.4072 N   0  0  0  0  0  0
  -31.8155  -14.6980   20.1100 O   0  0  0  0  0  0
  -21.6639   -6.8876   21.4241 O   0  0  0  0  0  0
  -22.3543  -14.5548   20.6719 O   0  0  0  0  0  0
  -24.6172  -31.8653   23.2076 C   0  0  0  0  0  0
  -25.9053  -32.4811   23.8384 C   0  0  1  0  0  0
  -27.2337  -27.4151   20.1034 C   0  0  0  0  0  0
  -25.5900  -33.8609   24.2314 N   0  0  0  0  0  0
  -23.4074  -30.4880   21.5479 C   0  0  2  0  0  0
  -24.8557  -28.9512   20.1129 C   0  0  0  0  0  0
  -22.7430  -29.4643   22.4974 C   0  0  0  0  0  0
  -18.0277  -28.1377   22.8487 C   0  0  0  0  0  0
  -24.1487  -36.7319   23.2639 C   0  0  0  0  0  0
  -25.9379  -30.8269   21.3624 C   0  0  0  0  0  0
  -26.0176  -29.4599   20.7089 C   0  0  0  0  0  0
  -27.2138  -28.7010   20.6960 C   0  0  0  0  0  0
  -26.0579  -26.9262   19.4976 C   0  0  0  0  0  0
  -24.8717  -27.6853   19.5017 C   0  0  0  0  0  0
  -23.6177  -29.8195   20.1628 C   0  0  0  0  0  0
  -25.4108  -36.3107   24.0335 C   0  0  1  0  0  0
  -20.5868  -28.3669   23.1312 C   0  0  2  0  0  0
  -20.6767  -26.9403   22.5417 C   0  0  0  0  0  0
  -19.5747  -26.6384   21.5212 C   0  0  0  0  0  0
  -18.1923  -26.7925   22.1622 C   0  0  0  0  0  0
  -19.1524  -28.8842   23.2897 C   0  0  0  0  0  0
  -18.9452  -30.1446   23.8911 C   0  0  0  0  0  0
  -17.6452  -30.6584   24.0566 C   0  0  0  0  0  0
  -25.9036  -34.9469   23.5124 C   0  0  0  0  0  0
  -16.5344  -29.9086   23.6320 C   0  0  0  0  0  0
  -16.7266  -28.6503   23.0344 C   0  0  0  0  0  0
  -26.4474  -31.6597   25.0717 C   0  0  0  0  0  0
  -25.3734  -31.3707   26.1462 C   0  0  0  0  0  0
  -27.0308  -30.3040   24.6098 C   0  0  0  0  0  0
  -27.6050  -32.4317   25.7482 C   0  0  0  0  0  0
  -27.5581  -37.1812   24.8463 C   0  0  0  0  0  0
  -21.4154  -29.3031   22.3716 N   0  0  0  0  0  0
  -26.4296  -37.3791   23.9402 N   0  0  0  0  0  0
  -24.6725  -31.0743   22.0980 N   0  0  0  0  0  0
  -23.4191  -28.8184   23.3025 O   0  0  0  0  0  0
  -28.3716  -26.6314   20.1060 O   0  0  0  0  0  0
  -26.5601  -34.8926   22.4686 O   0  0  0  0  0  0
  -23.5359  -32.1409   23.7458 O   0  0  0  0  0  0
  -28.6030  -20.3481   20.8597 C   0  0  0  0  0  0
  -30.4115  -21.3323   20.1919 C   0  0  0  0  0  0
  -29.4755  -19.3857   20.3834 C   0  0  0  0  0  0
  -29.1882  -17.4761   18.7612 C   0  0  0  0  0  0
  -28.8174  -24.1242   20.2483 C   0  0  0  0  0  0
  -28.6830  -22.8939   21.2001 C   0  0  0  0  0  0
  -30.2698  -16.9830   21.0355 C   0  0  0  0  0  0
  -28.2710  -25.4294   20.9029 C   0  0  0  0  0  0
  -29.2601  -17.8762   20.2447 C   0  0  1  0  0  0
  -30.6343  -20.0370   19.9501 N   0  0  0  0  0  0
  -29.2112  -21.6019   20.7280 N   0  0  0  0  0  0
  -29.9308  -15.5379   21.0175 N   0  0  0  0  0  0
  -31.4701  -12.4404   19.1223 H   0  0  0  0  0  0
  -30.3403  -11.3229   19.8330 H   0  0  0  0  0  0
  -29.7403  -11.7784   17.4343 H   0  0  0  0  0  0
  -29.6580  -13.4917   17.7601 H   0  0  0  0  0  0
  -27.8308  -11.3100   18.8191 H   0  0  0  0  0  0
  -27.3669  -12.6357   17.7868 H   0  0  0  0  0  0
  -27.6960  -14.2553   19.5666 H   0  0  0  0  0  0
  -28.6878  -11.9729   21.3435 H   0  0  0  0  0  0
  -28.4636  -13.6133   21.8673 H   0  0  0  0  0  0
  -25.2763   -9.5684   22.4752 H   0  0  0  0  0  0
  -24.0007   -7.4625   22.7463 H   0  0  0  0  0  0
  -21.0844   -8.8754   19.8945 H   0  0  0  0  0  0
  -22.3682  -10.9667   19.6161 H   0  0  0  0  0  0
  -21.1993   -7.6147   23.9711 H   0  0  0  0  0  0
  -21.1491   -6.0533   25.9081 H   0  0  0  0  0  0
  -22.0599   -2.7610   23.2848 H   0  0  0  0  0  0
  -22.4139  -11.9881   22.4790 H   0  0  0  0  0  0
  -21.1119  -13.1229   22.2621 H   0  0  0  0  0  0
  -24.6643  -15.8454   20.5065 H   0  0  0  0  0  0
  -26.2799  -15.6205   20.0682 H   0  0  0  0  0  0
  -26.7127  -32.5522   23.1153 H   0  0  0  0  0  0
  -25.0046  -33.9766   25.0458 H   0  0  0  0  0  0
  -22.6972  -31.3050   21.4066 H   0  0  0  0  0  0
  -23.3740  -35.9662   23.3312 H   0  0  0  0  0  0
  -24.3581  -36.8925   22.2051 H   0  0  0  0  0  0
  -23.7251  -37.6531   23.6649 H   0  0  0  0  0  0
  -26.0502  -31.5923   20.5932 H   0  0  0  0  0  0
  -26.8255  -30.8822   21.9802 H   0  0  0  0  0  0
  -28.1124  -29.0877   21.1565 H   0  0  0  0  0  0
  -26.0592  -25.9523   19.0277 H   0  0  0  0  0  0
  -23.9796  -27.2897   19.0356 H   0  0  0  0  0  0
  -23.7266  -30.5938   19.4027 H   0  0  0  0  0  0
  -22.7416  -29.2392   19.8665 H   0  0  0  0  0  0
  -25.1286  -36.1974   25.0829 H   0  0  0  0  0  0
  -20.9961  -28.3234   24.1435 H   0  0  0  0  0  0
  -20.5672  -26.2274   23.3605 H   0  0  0  0  0  0
  -21.6638  -26.7442   22.1209 H   0  0  0  0  0  0
  -19.6910  -25.6297   21.1236 H   0  0  0  0  0  0
  -19.6692  -27.3200   20.6746 H   0  0  0  0  0  0
  -17.4197  -26.6672   21.4024 H   0  0  0  0  0  0
  -18.0327  -26.0066   22.9018 H   0  0  0  0  0  0
  -19.7928  -30.7254   24.2295 H   0  0  0  0  0  0
  -17.5009  -31.6266   24.5163 H   0  0  0  0  0  0
  -15.5346  -30.2994   23.7637 H   0  0  0  0  0  0
  -15.8666  -28.0831   22.7048 H   0  0  0  0  0  0
  -24.5897  -30.7071   25.7792 H   0  0  0  0  0  0
  -24.8938  -32.2865   26.4928 H   0  0  0  0  0  0
  -25.8077  -30.8855   27.0211 H   0  0  0  0  0  0
  -26.2853  -29.6803   24.1148 H   0  0  0  0  0  0
  -27.4076  -29.7277   25.4558 H   0  0  0  0  0  0
  -27.8690  -30.4365   23.9252 H   0  0  0  0  0  0
  -27.2669  -33.3602   26.2098 H   0  0  0  0  0  0
  -28.3841  -32.6902   25.0297 H   0  0  0  0  0  0
  -28.0743  -31.8417   26.5366 H   0  0  0  0  0  0
  -28.2603  -38.0104   24.7502 H   0  0  0  0  0  0
  -28.1070  -36.2634   24.6296 H   0  0  0  0  0  0
  -27.2297  -37.1475   25.8865 H   0  0  0  0  0  0
  -20.9319  -29.8759   21.6938 H   0  0  0  0  0  0
  -26.0186  -38.2871   24.1394 H   0  0  0  0  0  0
  -27.6115  -20.2395   21.2796 H   0  0  0  0  0  0
  -31.1459  -22.1004   19.9910 H   0  0  0  0  0  0
  -28.4353  -18.0638   18.2356 H   0  0  0  0  0  0
  -28.9258  -16.4260   18.6349 H   0  0  0  0  0  0
  -30.1435  -17.6432   18.2639 H   0  0  0  0  0  0
  -28.2771  -23.9301   19.3214 H   0  0  0  0  0  0
  -29.8626  -24.2717   19.9752 H   0  0  0  0  0  0
  -27.6303  -22.7533   21.4482 H   0  0  0  0  0  0
  -29.1832  -23.1164   22.1438 H   0  0  0  0  0  0
  -30.2868  -17.3037   22.0777 H   0  0  0  0  0  0
  -31.2780  -17.1501   20.6533 H   0  0  0  0  0  0
  -28.8298  -25.6188   21.8202 H   0  0  0  0  0  0
  -27.2441  -25.2502   21.2273 H   0  0  0  0  0  0
  -28.2758  -17.6600   20.6623 H   0  0  0  0  0  0
  -29.0082  -15.2903   21.3420 H   0  0  0  0  0  0
  1 25  1  0  0  0
  1 30  2  0  0  0
  1 82  1  0  0  0
  2  3  1  0  0  0
  2 25  1  0  0  0
  2 83  1  0  0  0
  2 84  1  0  0  0
  3  4  1  0  0  0
  3 85  1  0  0  0
  3 86  1  0  0  0
  4  5  1  0  0  0
  4 87  1  0  0  0
  4 88  1  0  0  0
  5  6  1  0  0  0
  5 26  1  0  0  0
  5 89  1  0  0  0
  6 25  1  0  0  0
  6 90  1  0  0  0
  6 91  1  0  0  0
  7  8  2  0  0  0
  7 26  1  0  0  0
  7 29  1  0  0  0
  8  9  1  0  0  0
  8 22  1  0  0  0
  9 10  1  0  0  0
  9 27  2  0  0  0
 10 11  2  0  0  0
 10 15  1  0  0  0
 11 12  1  0  0  0
 11 92  1  0  0  0
 12 13  2  0  0  0
 12 93  1  0  0  0
 13 14  1  0  0  0
 13 31  1  0  0  0
 14 15  2  0  0  0
 14 94  1  0  0  0
 15 95  1  0  0  0
 16 17  2  0  0  0
 16 21  1  0  0  0
 16 31  1  0  0  0
 17 18  1  0  0  0
 17 96  1  0  0  0
 18 19  2  0  0  0
 18 97  1  0  0  0
 19 20  1  0  0  0
 19 24  1  0  0  0
 20 21  2  0  0  0
 20 98  1  0  0  0
 21 23  1  0  0  0
 22 28  1  0  0  0
 22 32  2  0  0  0
 26 27  1  0  0  0
 28 99  1  0  0  0
 28100  1  0  0  0
 29101  1  0  0  0
 29102  1  0  0  0
 33 34  1  0  0  0
 33 66  1  0  0  0
 33 70  2  0  0  0
 34 36  1  0  0  0
 34 59  1  0  0  0
 34103  1  0  0  0
 35 44  2  0  0  0
 35 45  1  0  0  0
 35 68  1  0  0  0
 36 56  1  0  0  0
 36104  1  0  0  0
 37 39  1  0  0  0
 37 47  1  0  0  0
 37 66  1  0  0  0
 37105  1  0  0  0
 38 43  2  0  0  0
 38 46  1  0  0  0
 38 47  1  0  0  0
 39 64  1  0  0  0
 39 67  2  0  0  0
 40 52  1  0  0  0
 40 53  2  0  0  0
 40 58  1  0  0  0
 41106  1  0  0  0
 41107  1  0  0  0
 41108  1  0  0  0
 41 48  1  0  0  0
 42 43  1  0  0  0
 42 66  1  0  0  0
 42109  1  0  0  0
 42110  1  0  0  0
 43 44  1  0  0  0
 44111  1  0  0  0
 45 46  2  0  0  0
 45112  1  0  0  0
 46113  1  0  0  0
 47114  1  0  0  0
 47115  1  0  0  0
 48 56  1  0  0  0
 48 65  1  0  0  0
 48116  1  0  0  0
 49 50  1  0  0  0
 49 53  1  0  0  0
 49 64  1  0  0  0
 49117  1  0  0  0
 50 51  1  0  0  0
 50118  1  0  0  0
 50119  1  0  0  0
 51 52  1  0  0  0
 51120  1  0  0  0
 51121  1  0  0  0
 52122  1  0  0  0
 52123  1  0  0  0
 53 54  1  0  0  0
 54 55  2  0  0  0
 54124  1  0  0  0
 55 57  1  0  0  0
 55125  1  0  0  0
 56 69  2  0  0  0
 57 58  2  0  0  0
 57126  1  0  0  0
 58127  1  0  0  0
 59 60  1  0  0  0
 59 61  1  0  0  0
 59 62  1  0  0  0
 60128  1  0  0  0
 60129  1  0  0  0
 60130  1  0  0  0
 61131  1  0  0  0
 61132  1  0  0  0
 61133  1  0  0  0
 62134  1  0  0  0
 62135  1  0  0  0
 62136  1  0  0  0
 63 65  1  0  0  0
 63137  1  0  0  0
 63138  1  0  0  0
 63139  1  0  0  0
 64140  1  0  0  0
 65141  1  0  0  0
 68 78  1  0  0  0
 71 73  2  0  0  0
 71 81  1  0  0  0
 71142  1  0  0  0
 72 80  2  0  0  0
 72 81  1  0  0  0
 72143  1  0  0  0
 73 79  1  0  0  0
 73 80  1  0  0  0
 74144  1  0  0  0
 74145  1  0  0  0
 74146  1  0  0  0
 74 79  1  0  0  0
 75 76  1  0  0  0
 75 78  1  0  0  0
 75147  1  0  0  0
 75148  1  0  0  0
 76 81  1  0  0  0
 76149  1  0  0  0
 76150  1  0  0  0
 77 79  1  0  0  0
 77 82  1  0  0  0
 77151  1  0  0  0
 77152  1  0  0  0
 78153  1  0  0  0
 78154  1  0  0  0
 79155  1  0  0  0
 82156  1  0  0  0
M  ISO  4   1 100  68 101  78 101  82 100
M  END
> <chiral flag>
0

> <version>
0

> <s_m_source_file>
/data/baiqing/PycharmProjects/Reinvent-master-3.2/result/LINK_invent/BTK/process_docking_weight1_custom_sum_contain_oxygen_bond_distance_aromatic_linkinvent_7_9_3/rearranged_h_0080.sdf

> <i_m_source_file_index>
1

> <r_mmod_Potential_Energy-OPLS-2005>
-115.685516357422

> <r_mmod_Stretch_Energy-OPLS-2005>
42.058723449707

> <r_mmod_Bend_Energy-OPLS-2005>
106.092910766602

> <r_mmod_Torsional_Energy-OPLS-2005>
222.457229614258

> <r_mmod_Improper_Torsional_Energy-OPLS-2005>
4.34649038314819

> <r_mmod_Van_der_Waal_Energy-OPLS-2005>
118.495162963867

> <r_mmod_Electrostatic_Energy-OPLS-2005>
-395.083679199219

> <r_mmod_Solvation_Energy-OPLS-2005>
-231.598342895508

> <b_mmod_Minimization_Converged-OPLS-2005>
0

> <r_mmod_RMS_Derivative-OPLS-2005>
0.898563504219055

$$$$
1
                    3D
 Structure written by MMmdl.
157165  0  0  1  0            999 V2000
  -30.5001  -14.9526   20.4188 C   0  0  0  0  0  0
  -30.4333  -12.5869   19.4815 C   0  0  0  0  0  0
  -29.5195  -12.5477   18.2369 C   0  0  0  0  0  0
  -28.0414  -12.3613   18.6375 C   0  0  0  0  0  0
  -27.6261  -13.2559   19.8365 C   0  0  2  0  0  0
  -28.6698  -13.2453   20.9690 C   0  0  0  0  0  0
  -25.2449  -13.8233   20.5722 C   0  0  0  0  0  0
  -24.1775  -13.0433   20.9229 C   0  0  0  0  0  0
  -24.6407  -11.6940   20.8733 C   0  0  0  0  0  0
  -23.9099  -10.4295   21.0394 C   0  0  0  0  0  0
  -24.3669   -9.4196   21.9146 C   0  0  0  0  0  0
  -23.6331   -8.2237   22.0716 C   0  0  0  0  0  0
  -22.4289   -8.0288   21.3538 C   0  0  0  0  0  0
  -21.9937   -9.0261   20.4633 C   0  0  0  0  0  0
  -22.7279  -10.2133   20.3037 C   0  0  0  0  0  0
  -21.6860   -6.0735   22.5272 C   0  0  0  0  0  0
  -21.4021   -6.5631   23.8204 C   0  0  0  0  0  0
  -21.3675   -5.6779   24.9160 C   0  0  0  0  0  0
  -21.6065   -4.3041   24.7210 C   0  0  0  0  0  0
  -21.8825   -3.8139   23.4324 C   0  0  0  0  0  0
  -21.9197   -4.6962   22.3383 C   0  0  0  0  0  0
  -22.7795  -13.5187   21.1895 C   0  0  0  0  0  0
  -22.1661   -4.2153   21.0951 F   0  0  0  0  0  0
  -21.5643   -3.4517   25.7712 F   0  0  0  0  0  0
  -29.9373  -13.6778   20.3686 N   0  0  0  0  0  0
  -26.2868  -12.9477   20.3206 N   0  0  0  0  0  0
  -25.9331  -11.6599   20.5695 N   0  0  0  0  0  0
  -22.0457  -12.8177   22.0463 N   0  0  0  0  0  0
  -25.4076  -15.1981   20.4187 N   0  0  0  0  0  0
  -31.7112  -15.0362   20.1765 O   0  0  0  0  0  0
  -21.6654   -6.8885   21.4233 O   0  0  0  0  0  0
  -22.3447  -14.5457   20.6701 O   0  0  0  0  0  0
  -24.6446  -31.8438   23.1844 C   0  0  0  0  0  0
  -25.9212  -32.4698   23.8248 C   0  0  1  0  0  0
  -27.2142  -27.1091   20.1805 C   0  0  0  0  0  0
  -25.5948  -33.8500   24.2152 N   0  0  0  0  0  0
  -23.4510  -30.4607   21.5274 C   0  0  2  0  0  0
  -24.9022  -28.8760   20.1140 C   0  0  0  0  0  0
  -22.7575  -29.4547   22.4799 C   0  0  0  0  0  0
  -18.0325  -28.1432   22.8460 C   0  0  0  0  0  0
  -24.1483  -36.7249   23.2643 C   0  0  0  0  0  0
  -26.0090  -30.7082   21.3893 C   0  0  0  0  0  0
  -26.0784  -29.3169   20.7329 C   0  0  0  0  0  0
  -27.2402  -28.4536   20.7364 C   0  0  0  0  0  0
  -26.0163  -26.7683   19.5244 C   0  0  0  0  0  0
  -24.8859  -27.6179   19.4882 C   0  0  0  0  0  0
  -23.6818  -29.7853   20.1486 C   0  0  0  0  0  0
  -25.4115  -36.3022   24.0301 C   0  0  1  0  0  0
  -20.5935  -28.3754   23.1207 C   0  0  2  0  0  0
  -20.6797  -26.9440   22.5397 C   0  0  0  0  0  0
  -19.5779  -26.6378   21.5209 C   0  0  0  0  0  0
  -18.1959  -26.7968   22.1611 C   0  0  0  0  0  0
  -19.1580  -28.8902   23.2847 C   0  0  0  0  0  0
  -18.9497  -30.1489   23.8893 C   0  0  0  0  0  0
  -17.6496  -30.6613   24.0560 C   0  0  0  0  0  0
  -25.9073  -34.9413   23.5038 C   0  0  0  0  0  0
  -16.5386  -29.9106   23.6337 C   0  0  0  0  0  0
  -16.7310  -28.6533   23.0337 C   0  0  0  0  0  0
  -26.4501  -31.6606   25.0732 C   0  0  0  0  0  0
  -25.3634  -31.3865   26.1388 C   0  0  0  0  0  0
  -27.0387  -30.2988   24.6384 C   0  0  0  0  0  0
  -27.5999  -32.4401   25.7544 C   0  0  0  0  0  0
  -27.5577  -37.1778   24.8454 C   0  0  0  0  0  0
  -21.4258  -29.3095   22.3580 N   0  0  0  0  0  0
  -26.4277  -37.3736   23.9424 N   0  0  0  0  0  0
  -24.7214  -31.0260   22.0892 N   0  0  0  0  0  0
  -23.4209  -28.8082   23.2951 O   0  0  0  0  0  0
  -28.2810  -26.1346   20.1846 O   0  0  0  0  0  0
  -26.5650  -34.8917   22.4617 O   0  0  0  0  0  0
  -23.5553  -32.1317   23.7035 O   0  0  0  0  0  0
  -28.1862  -20.5214   18.3148 C   0  0  0  0  0  0
  -28.7624  -20.2130   19.5658 C   0  0  0  0  0  0
  -29.1432  -18.7342   19.6606 C   0  0  0  0  0  0
  -28.4104  -18.4361   17.4725 C   0  0  0  0  0  0
  -28.2353  -17.4882   16.3056 C   0  0  0  0  0  0
  -31.2546  -18.0539   21.0572 C   0  0  0  0  0  0
  -28.7771  -21.5901   20.5052 C   0  0  0  0  0  0
  -28.4387  -23.1783   19.8991 C   0  0  0  0  0  0
  -28.1647  -24.6544   20.7052 C   0  0  0  0  0  0
  -29.7982  -17.6869   20.7399 C   0  0  2  0  0  0
  -28.0101  -19.6717   17.2979 N   0  0  0  0  0  0
  -28.9466  -17.9533   18.5750 N   0  0  0  0  0  0
  -29.6684  -16.1003   20.5650 N   0  0  0  0  0  0
  -31.4702  -12.7469   19.1818 H   0  0  0  0  0  0
  -30.4104  -11.6252   19.9976 H   0  0  0  0  0  0
  -29.8278  -11.7476   17.5633 H   0  0  0  0  0  0
  -29.6338  -13.4784   17.6785 H   0  0  0  0  0  0
  -27.8919  -11.3110   18.8827 H   0  0  0  0  0  0
  -27.3976  -12.5694   17.7804 H   0  0  0  0  0  0
  -27.5939  -14.2731   19.4455 H   0  0  0  0  0  0
  -28.7548  -12.2502   21.4067 H   0  0  0  0  0  0
  -28.3769  -13.9150   21.7776 H   0  0  0  0  0  0
  -25.2838   -9.5651   22.4699 H   0  0  0  0  0  0
  -24.0051   -7.4613   22.7422 H   0  0  0  0  0  0
  -21.0864   -8.8804   19.8934 H   0  0  0  0  0  0
  -22.3757  -10.9679   19.6155 H   0  0  0  0  0  0
  -21.1997   -7.6130   23.9719 H   0  0  0  0  0  0
  -21.1508   -6.0485   25.9072 H   0  0  0  0  0  0
  -22.0592   -2.7598   23.2813 H   0  0  0  0  0  0
  -22.4128  -11.9912   22.4933 H   0  0  0  0  0  0
  -21.1038  -13.1134   22.2608 H   0  0  0  0  0  0
  -24.6386  -15.8450   20.5534 H   0  0  0  0  0  0
  -26.2398  -15.6472   20.0615 H   0  0  0  0  0  0
  -26.7290  -32.5277   23.0977 H   0  0  0  0  0  0
  -25.0099  -33.9642   25.0295 H   0  0  0  0  0  0
  -22.7562  -31.2885   21.3664 H   0  0  0  0  0  0
  -23.3770  -35.9565   23.3273 H   0  0  0  0  0  0
  -24.3552  -36.8921   22.2070 H   0  0  0  0  0  0
  -23.7229  -37.6419   23.6708 H   0  0  0  0  0  0
  -26.1776  -31.4662   20.6231 H   0  0  0  0  0  0
  -26.8727  -30.7476   22.0409 H   0  0  0  0  0  0
  -28.1453  -28.7967   21.2152 H   0  0  0  0  0  0
  -25.9497  -25.8050   19.0374 H   0  0  0  0  0  0
  -23.9907  -27.2789   18.9836 H   0  0  0  0  0  0
  -23.8288  -30.5597   19.3944 H   0  0  0  0  0  0
  -22.7952  -29.2333   19.8297 H   0  0  0  0  0  0
  -25.1319  -36.1819   25.0791 H   0  0  0  0  0  0
  -21.0043  -28.3344   24.1324 H   0  0  0  0  0  0
  -20.5649  -26.2376   23.3630 H   0  0  0  0  0  0
  -21.6655  -26.7402   22.1216 H   0  0  0  0  0  0
  -19.6918  -25.6264   21.1302 H   0  0  0  0  0  0
  -19.6731  -27.3128   20.6700 H   0  0  0  0  0  0
  -17.4209  -26.6701   21.4034 H   0  0  0  0  0  0
  -18.0353  -26.0134   22.9038 H   0  0  0  0  0  0
  -19.7970  -30.7305   24.2242 H   0  0  0  0  0  0
  -17.5054  -31.6289   24.5175 H   0  0  0  0  0  0
  -15.5384  -30.3010   23.7688 H   0  0  0  0  0  0
  -15.8704  -28.0869   22.7035 H   0  0  0  0  0  0
  -24.5756  -30.7301   25.7671 H   0  0  0  0  0  0
  -24.8895  -32.3105   26.4725 H   0  0  0  0  0  0
  -25.7817  -30.9039   27.0230 H   0  0  0  0  0  0
  -26.3051  -29.6713   24.1298 H   0  0  0  0  0  0
  -27.3886  -29.7290   25.5012 H   0  0  0  0  0  0
  -27.9002  -30.4235   23.9810 H   0  0  0  0  0  0
  -27.2527  -33.3685   26.2096 H   0  0  0  0  0  0
  -28.3813  -32.7003   25.0392 H   0  0  0  0  0  0
  -28.0663  -31.8568   26.5492 H   0  0  0  0  0  0
  -28.2538  -38.0125   24.7502 H   0  0  0  0  0  0
  -28.1120  -36.2639   24.6242 H   0  0  0  0  0  0
  -27.2303  -37.1377   25.8859 H   0  0  0  0  0  0
  -20.9435  -29.8873   21.6829 H   0  0  0  0  0  0
  -26.0131  -38.2800   24.1432 H   0  0  0  0  0  0
  -27.8251  -21.5053   18.0756 H   0  0  0  0  0  0
  -27.7949  -17.9923   15.4438 H   0  0  0  0  0  0
  -27.5812  -16.6591   16.5800 H   0  0  0  0  0  0
  -29.1995  -17.0882   15.9945 H   0  0  0  0  0  0
  -31.3325  -19.0976   21.3572 H   0  0  0  0  0  0
  -31.9079  -17.9021   20.1987 H   0  0  0  0  0  0
  -31.6349  -17.4455   21.8803 H   0  0  0  0  0  0
  -29.7435  -21.6150   21.0101 H   0  0  0  0  0  0
  -28.0532  -21.3976   21.2973 H   0  0  0  0  0  0
  -27.5079  -23.0941   19.3425 H   0  0  0  0  0  0
  -29.1992  -23.3892   19.1469 H   0  0  0  0  0  0
  -28.8765  -24.6360   21.5325 H   0  0  0  0  0  0
  -27.1978  -24.5749   21.2059 H   0  0  0  0  0  0
  -29.2285  -17.8937   21.6465 H   0  0  0  0  0  0
  -28.6966  -15.8368   20.5863 H   0  0  0  0  0  0
  1 25  1  0  0  0
  1 30  2  0  0  0
  1 83  1  0  0  0
  2  3  1  0  0  0
  2 25  1  0  0  0
  2 84  1  0  0  0
  2 85  1  0  0  0
  3  4  1  0  0  0
  3 86  1  0  0  0
  3 87  1  0  0  0
  4  5  1  0  0  0
  4 88  1  0  0  0
  4 89  1  0  0  0
  5  6  1  0  0  0
  5 26  1  0  0  0
  5 90  1  0  0  0
  6 25  1  0  0  0
  6 91  1  0  0  0
  6 92  1  0  0  0
  7  8  2  0  0  0
  7 26  1  0  0  0
  7 29  1  0  0  0
  8  9  1  0  0  0
  8 22  1  0  0  0
  9 10  1  0  0  0
  9 27  2  0  0  0
 10 11  2  0  0  0
 10 15  1  0  0  0
 11 12  1  0  0  0
 11 93  1  0  0  0
 12 13  2  0  0  0
 12 94  1  0  0  0
 13 14  1  0  0  0
 13 31  1  0  0  0
 14 15  2  0  0  0
 14 95  1  0  0  0
 15 96  1  0  0  0
 16 17  2  0  0  0
 16 21  1  0  0  0
 16 31  1  0  0  0
 17 18  1  0  0  0
 17 97  1  0  0  0
 18 19  2  0  0  0
 18 98  1  0  0  0
 19 20  1  0  0  0
 19 24  1  0  0  0
 20 21  2  0  0  0
 20 99  1  0  0  0
 21 23  1  0  0  0
 22 28  1  0  0  0
 22 32  2  0  0  0
 26 27  1  0  0  0
 28100  1  0  0  0
 28101  1  0  0  0
 29102  1  0  0  0
 29103  1  0  0  0
 33 34  1  0  0  0
 33 66  1  0  0  0
 33 70  2  0  0  0
 34 36  1  0  0  0
 34 59  1  0  0  0
 34104  1  0  0  0
 35 44  2  0  0  0
 35 45  1  0  0  0
 35 68  1  0  0  0
 36 56  1  0  0  0
 36105  1  0  0  0
 37 39  1  0  0  0
 37 47  1  0  0  0
 37 66  1  0  0  0
 37106  1  0  0  0
 38 43  2  0  0  0
 38 46  1  0  0  0
 38 47  1  0  0  0
 39 64  1  0  0  0
 39 67  2  0  0  0
 40 52  1  0  0  0
 40 53  2  0  0  0
 40 58  1  0  0  0
 41107  1  0  0  0
 41108  1  0  0  0
 41109  1  0  0  0
 41 48  1  0  0  0
 42 43  1  0  0  0
 42 66  1  0  0  0
 42110  1  0  0  0
 42111  1  0  0  0
 43 44  1  0  0  0
 44112  1  0  0  0
 45 46  2  0  0  0
 45113  1  0  0  0
 46114  1  0  0  0
 47115  1  0  0  0
 47116  1  0  0  0
 48 56  1  0  0  0
 48 65  1  0  0  0
 48117  1  0  0  0
 49 50  1  0  0  0
 49 53  1  0  0  0
 49 64  1  0  0  0
 49118  1  0  0  0
 50 51  1  0  0  0
 50119  1  0  0  0
 50120  1  0  0  0
 51 52  1  0  0  0
 51121  1  0  0  0
 51122  1  0  0  0
 52123  1  0  0  0
 52124  1  0  0  0
 53 54  1  0  0  0
 54 55  2  0  0  0
 54125  1  0  0  0
 55 57  1  0  0  0
 55126  1  0  0  0
 56 69  2  0  0  0
 57 58  2  0  0  0
 57127  1  0  0  0
 58128  1  0  0  0
 59 60  1  0  0  0
 59 61  1  0  0  0
 59 62  1  0  0  0
 60129  1  0  0  0
 60130  1  0  0  0
 60131  1  0  0  0
 61132  1  0  0  0
 61133  1  0  0  0
 61134  1  0  0  0
 62135  1  0  0  0
 62136  1  0  0  0
 62137  1  0  0  0
 63 65  1  0  0  0
 63138  1  0  0  0
 63139  1  0  0  0
 63140  1  0  0  0
 64141  1  0  0  0
 65142  1  0  0  0
 68 79  1  0  0  0
 71 72  2  0  0  0
 71 81  1  0  0  0
 71143  1  0  0  0
 72 73  1  0  0  0
 72 77  1  0  0  0
 73 80  1  0  0  0
 73 82  2  0  0  0
 74 75  1  0  0  0
 74 81  2  0  0  0
 74 82  1  0  0  0
 75144  1  0  0  0
 75145  1  0  0  0
 75146  1  0  0  0
 76147  1  0  0  0
 76148  1  0  0  0
 76149  1  0  0  0
 76 80  1  0  0  0
 77 78  1  0  0  0
 77150  1  0  0  0
 77151  1  0  0  0
 78 79  1  0  0  0
 78152  1  0  0  0
 78153  1  0  0  0
 79154  1  0  0  0
 79155  1  0  0  0
 80 83  1  0  0  0
 80156  1  0  0  0
 83157  1  0  0  0
M  ISO  4   1 100  68 101  79 101  83 100
M  END
> <chiral flag>
0

> <version>
0

> <s_m_source_file>
/data/baiqing/PycharmProjects/Reinvent-master-3.2/result/LINK_invent/BTK/process_docking_weight1_custom_sum_contain_oxygen_bond_distance_aromatic_linkinvent_7_9_3/rearranged_h_0080.sdf

> <i_m_source_file_index>
2

> <r_mmod_Potential_Energy-OPLS-2005>
113.89591217041

> <r_mmod_Stretch_Energy-OPLS-2005>
319.140869140625

> <r_mmod_Bend_Energy-OPLS-2005>
356.079223632812

> <r_mmod_Torsional_Energy-OPLS-2005>
215.578918457031

> <r_mmod_Improper_Torsional_Energy-OPLS-2005>
3.65332651138306

> <r_mmod_Van_der_Waal_Energy-OPLS-2005>
135.241851806641

> <r_mmod_Electrostatic_Energy-OPLS-2005>
-886.329956054688

> <r_mmod_Solvation_Energy-OPLS-2005>
-230.448669433594

> <b_mmod_Minimization_Converged-OPLS-2005>
0

> <r_mmod_RMS_Derivative-OPLS-2005>
4.12498950958252

$$$$
4
                    3D
 Structure written by MMmdl.
160168  0  0  1  0            999 V2000
  -30.4965  -15.0307   20.3931 C   0  0  0  0  0  0
  -30.4513  -12.6446   19.4841 C   0  0  0  0  0  0
  -29.5286  -12.5262   18.2507 C   0  0  0  0  0  0
  -28.0696  -12.2906   18.6878 C   0  0  0  0  0  0
  -27.6243  -13.2503   19.8214 C   0  0  2  0  0  0
  -28.6662  -13.3247   20.9539 C   0  0  0  0  0  0
  -25.2447  -13.8229   20.5697 C   0  0  0  0  0  0
  -24.1758  -13.0427   20.9209 C   0  0  0  0  0  0
  -24.6406  -11.6923   20.8764 C   0  0  0  0  0  0
  -23.9097  -10.4280   21.0400 C   0  0  0  0  0  0
  -24.3631   -9.4187   21.9181 C   0  0  0  0  0  0
  -23.6278   -8.2238   22.0754 C   0  0  0  0  0  0
  -22.4257   -8.0289   21.3550 C   0  0  0  0  0  0
  -21.9899   -9.0273   20.4652 C   0  0  0  0  0  0
  -22.7270  -10.2127   20.3046 C   0  0  0  0  0  0
  -21.6849   -6.0738   22.5295 C   0  0  0  0  0  0
  -21.4039   -6.5637   23.8234 C   0  0  0  0  0  0
  -21.3675   -5.6790   24.9195 C   0  0  0  0  0  0
  -21.6020   -4.3051   24.7241 C   0  0  0  0  0  0
  -21.8816   -3.8150   23.4363 C   0  0  0  0  0  0
  -21.9174   -4.6966   22.3412 C   0  0  0  0  0  0
  -22.7791  -13.5190   21.1894 C   0  0  0  0  0  0
  -22.1637   -4.2136   21.0995 F   0  0  0  0  0  0
  -21.5602   -3.4533   25.7756 F   0  0  0  0  0  0
  -29.9301  -13.7528   20.3381 N   0  0  0  0  0  0
  -26.2854  -12.9449   20.3167 N   0  0  0  0  0  0
  -25.9321  -11.6572   20.5691 N   0  0  0  0  0  0
  -22.0434  -12.8178   22.0460 N   0  0  0  0  0  0
  -25.4096  -15.1954   20.4155 N   0  0  0  0  0  0
  -31.7180  -15.1035   20.2267 O   0  0  0  0  0  0
  -21.6616   -6.8889   21.4264 O   0  0  0  0  0  0
  -22.3488  -14.5503   20.6777 O   0  0  0  0  0  0
  -24.6554  -31.8350   23.1823 C   0  0  0  0  0  0
  -25.9287  -32.4626   23.8262 C   0  0  1  0  0  0
  -27.2285  -27.0783   20.1538 C   0  0  0  0  0  0
  -25.6003  -33.8432   24.2185 N   0  0  0  0  0  0
  -23.4628  -30.4556   21.5280 C   0  0  2  0  0  0
  -24.9093  -28.8620   20.1197 C   0  0  0  0  0  0
  -22.7634  -29.4550   22.4826 C   0  0  0  0  0  0
  -18.0310  -28.1455   22.8460 C   0  0  0  0  0  0
  -24.1493  -36.7210   23.2648 C   0  0  0  0  0  0
  -26.0222  -30.6919   21.3865 C   0  0  0  0  0  0
  -26.0930  -29.2955   20.7317 C   0  0  0  0  0  0
  -27.2540  -28.4225   20.7236 C   0  0  0  0  0  0
  -26.0159  -26.7585   19.5071 C   0  0  0  0  0  0
  -24.8845  -27.6062   19.4958 C   0  0  0  0  0  0
  -23.6946  -29.7785   20.1518 C   0  0  0  0  0  0
  -25.4115  -36.2978   24.0330 C   0  0  1  0  0  0
  -20.5930  -28.3795   23.1204 C   0  0  2  0  0  0
  -20.6794  -26.9488   22.5398 C   0  0  0  0  0  0
  -19.5758  -26.6420   21.5208 C   0  0  0  0  0  0
  -18.1944  -26.7991   22.1622 C   0  0  0  0  0  0
  -19.1571  -28.8943   23.2820 C   0  0  0  0  0  0
  -18.9485  -30.1527   23.8852 C   0  0  0  0  0  0
  -17.6481  -30.6614   24.0592 C   0  0  0  0  0  0
  -25.9086  -34.9359   23.5064 C   0  0  0  0  0  0
  -16.5372  -29.9119   23.6334 C   0  0  0  0  0  0
  -16.7302  -28.6560   23.0317 C   0  0  0  0  0  0
  -26.4598  -31.6496   25.0708 C   0  0  0  0  0  0
  -25.3782  -31.3663   26.1400 C   0  0  0  0  0  0
  -27.0478  -30.2884   24.6322 C   0  0  0  0  0  0
  -27.6152  -32.4245   25.7464 C   0  0  0  0  0  0
  -27.5563  -37.1753   24.8476 C   0  0  0  0  0  0
  -21.4314  -29.3094   22.3553 N   0  0  0  0  0  0
  -26.4260  -37.3702   23.9422 N   0  0  0  0  0  0
  -24.7333  -31.0188   22.0868 N   0  0  0  0  0  0
  -23.4223  -28.8100   23.3016 O   0  0  0  0  0  0
  -28.2868  -26.0769   20.1482 O   0  0  0  0  0  0
  -26.5681  -34.8876   22.4648 O   0  0  0  0  0  0
  -23.5647  -32.1274   23.6987 O   0  0  0  0  0  0
  -28.8772  -21.7688   20.2880 C   0  0  0  0  0  0
  -28.9123  -23.2203   19.8992 C   0  0  0  0  0  0
  -29.6948  -20.7186   19.6165 C   0  0  0  0  0  0
  -30.4098  -22.5434   18.2819 C   0  0  0  0  0  0
  -31.2683  -22.9346   17.0964 C   0  0  0  0  0  0
  -31.2862  -18.6560   19.0527 C   0  0  0  0  0  0
  -28.1282  -18.0136   21.1736 C   0  0  0  0  0  0
  -30.4645  -18.0546   21.9716 C   0  0  0  0  0  0
  -28.0316  -24.5368   20.4389 C   0  0  0  0  0  0
  -29.8662  -19.0123   19.5900 C   0  0  1  0  0  0
  -29.5902  -17.7795   20.7298 C   0  0  0  0  0  0
  -29.7258  -23.5198   18.8689 N   0  0  0  0  0  0
  -30.4063  -21.2492   18.5914 N   0  0  0  0  0  0
  -29.6428  -16.1858   20.4300 N   0  0  0  0  0  0
  -31.4705  -12.8468   19.1545 H   0  0  0  0  0  0
  -30.4892  -11.7092   20.0404 H   0  0  0  0  0  0
  -29.8635  -11.7185   17.5983 H   0  0  0  0  0  0
  -29.5931  -13.4376   17.6544 H   0  0  0  0  0  0
  -28.0072  -11.2606   19.0416 H   0  0  0  0  0  0
  -27.3961  -12.3642   17.8330 H   0  0  0  0  0  0
  -27.5669  -14.2369   19.3594 H   0  0  0  0  0  0
  -28.3456  -14.0441   21.7092 H   0  0  0  0  0  0
  -28.7697  -12.3620   21.4588 H   0  0  0  0  0  0
  -25.2760   -9.5638   22.4793 H   0  0  0  0  0  0
  -23.9955   -7.4625   22.7478 H   0  0  0  0  0  0
  -21.0816   -8.8843   19.8966 H   0  0  0  0  0  0
  -22.3758  -10.9686   19.6175 H   0  0  0  0  0  0
  -21.2092   -7.6162   23.9732 H   0  0  0  0  0  0
  -21.1481   -6.0525   25.9087 H   0  0  0  0  0  0
  -22.0574   -2.7599   23.2863 H   0  0  0  0  0  0
  -22.4011  -11.9821   22.4863 H   0  0  0  0  0  0
  -21.1095  -13.1269   22.2745 H   0  0  0  0  0  0
  -24.6327  -15.8391   20.5189 H   0  0  0  0  0  0
  -26.2534  -15.6535   20.0995 H   0  0  0  0  0  0
  -26.7381  -32.5234   23.1006 H   0  0  0  0  0  0
  -25.0098  -33.9516   25.0306 H   0  0  0  0  0  0
  -22.7719  -31.2836   21.3645 H   0  0  0  0  0  0
  -23.3739  -35.9551   23.3283 H   0  0  0  0  0  0
  -24.3586  -36.8852   22.2067 H   0  0  0  0  0  0
  -23.7255  -37.6402   23.6700 H   0  0  0  0  0  0
  -26.1829  -31.4393   20.6089 H   0  0  0  0  0  0
  -26.8925  -30.7497   22.0290 H   0  0  0  0  0  0
  -28.1638  -28.7569   21.2011 H   0  0  0  0  0  0
  -25.9230  -25.8092   19.0022 H   0  0  0  0  0  0
  -23.9811  -27.2681   19.0054 H   0  0  0  0  0  0
  -23.8570  -30.5518   19.3987 H   0  0  0  0  0  0
  -22.8058  -29.2363   19.8268 H   0  0  0  0  0  0
  -25.1289  -36.1789   25.0817 H   0  0  0  0  0  0
  -21.0018  -28.3411   24.1326 H   0  0  0  0  0  0
  -20.5652  -26.2444   23.3641 H   0  0  0  0  0  0
  -21.6674  -26.7457   22.1218 H   0  0  0  0  0  0
  -19.6906  -25.6317   21.1263 H   0  0  0  0  0  0
  -19.6670  -27.3213   20.6722 H   0  0  0  0  0  0
  -17.4206  -26.6720   21.4033 H   0  0  0  0  0  0
  -18.0344  -26.0154   22.9047 H   0  0  0  0  0  0
  -19.7958  -30.7369   24.2189 H   0  0  0  0  0  0
  -17.5022  -31.6269   24.5261 H   0  0  0  0  0  0
  -15.5372  -30.3009   23.7669 H   0  0  0  0  0  0
  -15.8708  -28.0880   22.6997 H   0  0  0  0  0  0
  -24.6038  -30.6919   25.7719 H   0  0  0  0  0  0
  -24.8892  -32.2822   26.4735 H   0  0  0  0  0  0
  -25.8100  -30.8925   27.0230 H   0  0  0  0  0  0
  -26.3122  -29.6548   24.1360 H   0  0  0  0  0  0
  -27.4115  -29.7226   25.4911 H   0  0  0  0  0  0
  -27.9018  -30.4069   23.9642 H   0  0  0  0  0  0
  -27.2812  -33.3603   26.1936 H   0  0  0  0  0  0
  -28.4015  -32.6677   25.0306 H   0  0  0  0  0  0
  -28.0776  -31.8422   26.5443 H   0  0  0  0  0  0
  -28.2575  -38.0053   24.7505 H   0  0  0  0  0  0
  -28.1069  -36.2588   24.6314 H   0  0  0  0  0  0
  -27.2303  -37.1410   25.8886 H   0  0  0  0  0  0
  -20.9563  -29.8816   21.6698 H   0  0  0  0  0  0
  -26.0119  -38.2753   24.1438 H   0  0  0  0  0  0
  -28.2031  -21.4695   21.0809 H   0  0  0  0  0  0
  -31.0242  -22.3244   16.2280 H   0  0  0  0  0  0
  -32.3226  -22.7840   17.3274 H   0  0  0  0  0  0
  -31.1214  -23.9765   16.8109 H   0  0  0  0  0  0
  -31.4468  -17.5798   18.9699 H   0  0  0  0  0  0
  -32.0555  -19.0489   19.7188 H   0  0  0  0  0  0
  -31.4863  -19.0583   18.0588 H   0  0  0  0  0  0
  -27.9869  -19.0134   21.5874 H   0  0  0  0  0  0
  -27.8151  -17.3102   21.9479 H   0  0  0  0  0  0
  -27.4337  -17.9138   20.3351 H   0  0  0  0  0  0
  -30.3755  -19.0925   22.2990 H   0  0  0  0  0  0
  -31.5200  -17.8658   21.7789 H   0  0  0  0  0  0
  -30.1683  -17.4338   22.8214 H   0  0  0  0  0  0
  -28.0483  -24.4501   21.5252 H   0  0  0  0  0  0
  -27.0023  -24.3033   20.1809 H   0  0  0  0  0  0
  -29.1899  -18.7505   18.7733 H   0  0  0  0  0  0
  -28.7007  -15.8394   20.3647 H   0  0  0  0  0  0
  1 25  1  0  0  0
  1 30  2  0  0  0
  1 84  1  0  0  0
  2  3  1  0  0  0
  2 25  1  0  0  0
  2 85  1  0  0  0
  2 86  1  0  0  0
  3  4  1  0  0  0
  3 87  1  0  0  0
  3 88  1  0  0  0
  4  5  1  0  0  0
  4 89  1  0  0  0
  4 90  1  0  0  0
  5  6  1  0  0  0
  5 26  1  0  0  0
  5 91  1  0  0  0
  6 25  1  0  0  0
  6 92  1  0  0  0
  6 93  1  0  0  0
  7  8  2  0  0  0
  7 26  1  0  0  0
  7 29  1  0  0  0
  8  9  1  0  0  0
  8 22  1  0  0  0
  9 10  1  0  0  0
  9 27  2  0  0  0
 10 11  2  0  0  0
 10 15  1  0  0  0
 11 12  1  0  0  0
 11 94  1  0  0  0
 12 13  2  0  0  0
 12 95  1  0  0  0
 13 14  1  0  0  0
 13 31  1  0  0  0
 14 15  2  0  0  0
 14 96  1  0  0  0
 15 97  1  0  0  0
 16 17  2  0  0  0
 16 21  1  0  0  0
 16 31  1  0  0  0
 17 18  1  0  0  0
 17 98  1  0  0  0
 18 19  2  0  0  0
 18 99  1  0  0  0
 19 20  1  0  0  0
 19 24  1  0  0  0
 20 21  2  0  0  0
 20100  1  0  0  0
 21 23  1  0  0  0
 22 28  1  0  0  0
 22 32  2  0  0  0
 26 27  1  0  0  0
 28101  1  0  0  0
 28102  1  0  0  0
 29103  1  0  0  0
 29104  1  0  0  0
 33 34  1  0  0  0
 33 66  1  0  0  0
 33 70  2  0  0  0
 34 36  1  0  0  0
 34 59  1  0  0  0
 34105  1  0  0  0
 35 44  2  0  0  0
 35 45  1  0  0  0
 35 68  1  0  0  0
 36 56  1  0  0  0
 36106  1  0  0  0
 37 39  1  0  0  0
 37 47  1  0  0  0
 37 66  1  0  0  0
 37107  1  0  0  0
 38 43  2  0  0  0
 38 46  1  0  0  0
 38 47  1  0  0  0
 39 64  1  0  0  0
 39 67  2  0  0  0
 40 52  1  0  0  0
 40 53  2  0  0  0
 40 58  1  0  0  0
 41108  1  0  0  0
 41109  1  0  0  0
 41110  1  0  0  0
 41 48  1  0  0  0
 42 43  1  0  0  0
 42 66  1  0  0  0
 42111  1  0  0  0
 42112  1  0  0  0
 43 44  1  0  0  0
 44113  1  0  0  0
 45 46  2  0  0  0
 45114  1  0  0  0
 46115  1  0  0  0
 47116  1  0  0  0
 47117  1  0  0  0
 48 56  1  0  0  0
 48 65  1  0  0  0
 48118  1  0  0  0
 49 50  1  0  0  0
 49 53  1  0  0  0
 49 64  1  0  0  0
 49119  1  0  0  0
 50 51  1  0  0  0
 50120  1  0  0  0
 50121  1  0  0  0
 51 52  1  0  0  0
 51122  1  0  0  0
 51123  1  0  0  0
 52124  1  0  0  0
 52125  1  0  0  0
 53 54  1  0  0  0
 54 55  2  0  0  0
 54126  1  0  0  0
 55 57  1  0  0  0
 55127  1  0  0  0
 56 69  2  0  0  0
 57 58  2  0  0  0
 57128  1  0  0  0
 58129  1  0  0  0
 59 60  1  0  0  0
 59 61  1  0  0  0
 59 62  1  0  0  0
 60130  1  0  0  0
 60131  1  0  0  0
 60132  1  0  0  0
 61133  1  0  0  0
 61134  1  0  0  0
 61135  1  0  0  0
 62136  1  0  0  0
 62137  1  0  0  0
 62138  1  0  0  0
 63 65  1  0  0  0
 63139  1  0  0  0
 63140  1  0  0  0
 63141  1  0  0  0
 64142  1  0  0  0
 65143  1  0  0  0
 68 79  1  0  0  0
 71 72  2  0  0  0
 71 73  1  0  0  0
 71144  1  0  0  0
 72 79  1  0  0  0
 72 82  1  0  0  0
 73 80  1  0  0  0
 73 83  2  0  0  0
 74 75  1  0  0  0
 74 82  2  0  0  0
 74 83  1  0  0  0
 75145  1  0  0  0
 75146  1  0  0  0
 75147  1  0  0  0
 76148  1  0  0  0
 76149  1  0  0  0
 76150  1  0  0  0
 76 80  1  0  0  0
 77151  1  0  0  0
 77152  1  0  0  0
 77153  1  0  0  0
 77 81  1  0  0  0
 78 81  1  0  0  0
 78154  1  0  0  0
 78155  1  0  0  0
 78156  1  0  0  0
 79157  1  0  0  0
 79158  1  0  0  0
 80 81  1  0  0  0
 80159  1  0  0  0
 81 84  1  0  0  0
 84160  1  0  0  0
M  ISO  4   1 100  68 101  79 101  84 100
M  END
> <chiral flag>
0

> <version>
0

> <s_m_source_file>
/data/baiqing/PycharmProjects/Reinvent-master-3.2/result/LINK_invent/BTK/process_docking_weight1_custom_sum_contain_oxygen_bond_distance_aromatic_linkinvent_7_9_3/rearranged_h_0080.sdf

> <i_m_source_file_index>
3

> <r_mmod_Potential_Energy-OPLS-2005>
407.042572021484

> <r_mmod_Stretch_Energy-OPLS-2005>
341.691955566406

> <r_mmod_Bend_Energy-OPLS-2005>
374.561737060547

> <r_mmod_Torsional_Energy-OPLS-2005>
232.432754516602

> <r_mmod_Improper_Torsional_Energy-OPLS-2005>
5.30586338043213

> <r_mmod_Van_der_Waal_Energy-OPLS-2005>
135.706344604492

> <r_mmod_Electrostatic_Energy-OPLS-2005>
-698.553588867188

> <r_mmod_Solvation_Energy-OPLS-2005>
-237.78874206543

> <b_mmod_Minimization_Converged-OPLS-2005>
0

> <r_mmod_RMS_Derivative-OPLS-2005>
4.33143138885498

$$$$
5
                    3D
 Structure written by MMmdl.
186194  0  0  1  0            999 V2000
  -30.7916  -14.4802   20.2337 C   0  0  0  0  0  0
  -30.3957  -12.2581   19.3638 C   0  0  0  0  0  0
  -29.4352  -12.3682   18.1680 C   0  0  0  0  0  0
  -27.9766  -12.2781   18.6366 C   0  0  0  0  0  0
  -27.6475  -13.2120   19.8311 C   0  0  2  0  0  0
  -28.7404  -13.1479   20.9250 C   0  0  0  0  0  0
  -25.2586  -13.8202   20.5781 C   0  0  0  0  0  0
  -24.1868  -13.0476   20.9258 C   0  0  0  0  0  0
  -24.6406  -11.6935   20.8844 C   0  0  0  0  0  0
  -23.9074  -10.4301   21.0438 C   0  0  0  0  0  0
  -24.3617   -9.4200   21.9215 C   0  0  0  0  0  0
  -23.6299   -8.2240   22.0749 C   0  0  0  0  0  0
  -22.4278   -8.0290   21.3544 C   0  0  0  0  0  0
  -21.9924   -9.0265   20.4639 C   0  0  0  0  0  0
  -22.7238  -10.2143   20.3072 C   0  0  0  0  0  0
  -21.6843   -6.0729   22.5275 C   0  0  0  0  0  0
  -21.4015   -6.5642   23.8198 C   0  0  0  0  0  0
  -21.3663   -5.6789   24.9173 C   0  0  0  0  0  0
  -21.6039   -4.3057   24.7219 C   0  0  0  0  0  0
  -21.8821   -3.8144   23.4354 C   0  0  0  0  0  0
  -21.9198   -4.6963   22.3398 C   0  0  0  0  0  0
  -22.7854  -13.5241   21.1870 C   0  0  0  0  0  0
  -22.1664   -4.2142   21.0974 F   0  0  0  0  0  0
  -21.5629   -3.4543   25.7737 F   0  0  0  0  0  0
  -30.0376  -13.3522   20.2603 N   0  0  0  0  0  0
  -26.3034  -12.9403   20.3434 N   0  0  0  0  0  0
  -25.9353  -11.6557   20.5939 N   0  0  0  0  0  0
  -22.0504  -12.8236   22.0405 N   0  0  0  0  0  0
  -25.4340  -15.1920   20.4122 N   0  0  0  0  0  0
  -31.9207  -14.4959   20.7021 O   0  0  0  0  0  0
  -21.6652   -6.8895   21.4229 O   0  0  0  0  0  0
  -22.3525  -14.5549   20.6709 O   0  0  0  0  0  0
  -24.6136  -31.8669   23.2085 C   0  0  0  0  0  0
  -25.9046  -32.4807   23.8389 C   0  0  1  0  0  0
  -27.1916  -27.4095   20.0914 C   0  0  0  0  0  0
  -25.5882  -33.8614   24.2294 N   0  0  0  0  0  0
  -23.3976  -30.4951   21.5498 C   0  0  2  0  0  0
  -24.8324  -28.9587   20.1118 C   0  0  0  0  0  0
  -22.7394  -29.4673   22.4983 C   0  0  0  0  0  0
  -18.0269  -28.1370   22.8493 C   0  0  0  0  0  0
  -24.1484  -36.7318   23.2635 C   0  0  0  0  0  0
  -25.9297  -30.8217   21.3647 C   0  0  0  0  0  0
  -25.9993  -29.4590   20.7069 C   0  0  0  0  0  0
  -27.1858  -28.6871   20.6974 C   0  0  0  0  0  0
  -26.0250  -26.9503   19.4518 C   0  0  0  0  0  0
  -24.8391  -27.7034   19.4806 C   0  0  0  0  0  0
  -23.5969  -29.8273   20.1663 C   0  0  0  0  0  0
  -25.4105  -36.3113   24.0336 C   0  0  1  0  0  0
  -20.5840  -28.3654   23.1310 C   0  0  2  0  0  0
  -20.6756  -26.9397   22.5408 C   0  0  0  0  0  0
  -19.5734  -26.6376   21.5207 C   0  0  0  0  0  0
  -18.1915  -26.7905   22.1638 C   0  0  0  0  0  0
  -19.1516  -28.8833   23.2891 C   0  0  0  0  0  0
  -18.9454  -30.1442   23.8915 C   0  0  0  0  0  0
  -17.6461  -30.6584   24.0561 C   0  0  0  0  0  0
  -25.9026  -34.9474   23.5112 C   0  0  0  0  0  0
  -16.5344  -29.9085   23.6334 C   0  0  0  0  0  0
  -16.7260  -28.6490   23.0363 C   0  0  0  0  0  0
  -26.4446  -31.6619   25.0752 C   0  0  0  0  0  0
  -25.3706  -31.3745   26.1503 C   0  0  0  0  0  0
  -27.0280  -30.3056   24.6161 C   0  0  0  0  0  0
  -27.6003  -32.4334   25.7517 C   0  0  0  0  0  0
  -27.5579  -37.1818   24.8467 C   0  0  0  0  0  0
  -21.4134  -29.3035   22.3748 N   0  0  0  0  0  0
  -26.4296  -37.3798   23.9398 N   0  0  0  0  0  0
  -24.6650  -31.0779   22.0964 N   0  0  0  0  0  0
  -23.4176  -28.8228   23.3038 O   0  0  0  0  0  0
  -28.3194  -26.6256   20.0712 O   0  0  0  0  0  0
  -26.5624  -34.8926   22.4686 O   0  0  0  0  0  0
  -23.5324  -32.1428   23.7498 O   0  0  0  0  0  0
  -25.0395  -22.3419   18.5014 C   0  0  0  0  0  0
  -25.6020  -20.3153   17.2545 C   0  0  0  0  0  0
  -26.1935  -20.4986   19.6092 C   0  0  0  0  0  0
  -24.9944  -21.5924   17.3027 C   0  0  0  0  0  0
  -25.6214  -21.7872   19.6635 C   0  0  0  0  0  0
  -26.2330  -19.7710   18.3989 C   0  0  0  0  0  0
  -24.2119  -22.9598   13.6936 C   0  0  0  0  0  0
  -29.1822  -19.4230   19.0880 C   0  0  0  0  0  0
  -32.5971  -16.7645   18.5032 C   0  0  0  0  0  0
  -31.5455  -15.2393   16.7376 C   0  0  0  0  0  0
  -24.1998  -22.1315   16.1115 C   0  0  0  0  0  0
  -25.5712  -22.5203   20.9973 C   0  0  0  0  0  0
  -26.9271  -18.3999   18.3511 C   0  0  0  0  0  0
  -25.0375  -22.7509   14.9796 C   0  0  0  0  0  0
  -26.0754  -23.9832   21.0045 C   0  0  0  0  0  0
  -27.4905  -24.1942   20.3986 C   0  0  0  0  0  0
  -29.1852  -17.1084   17.9730 C   0  0  0  0  0  0
  -29.6815  -16.4345   19.2920 C   0  0  0  0  0  0
  -28.2863  -25.4434   20.8942 C   0  0  0  0  0  0
  -28.4551  -18.4821   18.1018 C   0  0  1  0  0  0
  -31.7945  -15.4705   18.2393 C   0  0  0  0  0  0
  -30.5954  -15.2758   19.1332 N   0  0  0  0  0  0
  -31.4337  -12.3202   19.0300 H   0  0  0  0  0  0
  -30.2872  -11.2968   19.8675 H   0  0  0  0  0  0
  -29.6435  -11.5795   17.4435 H   0  0  0  0  0  0
  -29.5581  -13.3083   17.6458 H   0  0  0  0  0  0
  -27.8072  -11.2401   18.9234 H   0  0  0  0  0  0
  -27.3005  -12.4797   17.8051 H   0  0  0  0  0  0
  -27.6428  -14.2219   19.4295 H   0  0  0  0  0  0
  -28.7237  -12.1850   21.4354 H   0  0  0  0  0  0
  -28.5725  -13.9143   21.6856 H   0  0  0  0  0  0
  -25.2762   -9.5667   22.4804 H   0  0  0  0  0  0
  -24.0001   -7.4605   22.7465 H   0  0  0  0  0  0
  -21.0863   -8.8791   19.8940 H   0  0  0  0  0  0
  -22.3713  -10.9709   19.6192 H   0  0  0  0  0  0
  -21.2008   -7.6144   23.9702 H   0  0  0  0  0  0
  -21.1480   -6.0529   25.9068 H   0  0  0  0  0  0
  -22.0601   -2.7612   23.2847 H   0  0  0  0  0  0
  -22.4106  -11.9890   22.4816 H   0  0  0  0  0  0
  -21.1082  -13.1233   22.2590 H   0  0  0  0  0  0
  -24.6761  -15.8542   20.5182 H   0  0  0  0  0  0
  -26.2998  -15.6212   20.1179 H   0  0  0  0  0  0
  -26.7102  -32.5501   23.1129 H   0  0  0  0  0  0
  -25.0042  -33.9758   25.0448 H   0  0  0  0  0  0
  -22.6854  -31.3135   21.4199 H   0  0  0  0  0  0
  -23.3742  -35.9658   23.3321 H   0  0  0  0  0  0
  -24.3560  -36.8916   22.2044 H   0  0  0  0  0  0
  -23.7256  -37.6533   23.6637 H   0  0  0  0  0  0
  -26.0503  -31.5871   20.5983 H   0  0  0  0  0  0
  -26.8130  -30.8662   21.9886 H   0  0  0  0  0  0
  -28.0915  -29.0602   21.1553 H   0  0  0  0  0  0
  -26.0291  -26.0053   18.9299 H   0  0  0  0  0  0
  -23.9418  -27.3289   19.0038 H   0  0  0  0  0  0
  -22.7211  -29.2401   19.8851 H   0  0  0  0  0  0
  -23.6907  -30.5995   19.4026 H   0  0  0  0  0  0
  -25.1279  -36.1961   25.0836 H   0  0  0  0  0  0
  -20.9917  -28.3195   24.1421 H   0  0  0  0  0  0
  -20.5635  -26.2261   23.3580 H   0  0  0  0  0  0
  -21.6628  -26.7428   22.1208 H   0  0  0  0  0  0
  -19.6896  -25.6278   21.1245 H   0  0  0  0  0  0
  -19.6675  -27.3179   20.6716 H   0  0  0  0  0  0
  -17.4163  -26.6617   21.4060 H   0  0  0  0  0  0
  -18.0371  -26.0053   22.9051 H   0  0  0  0  0  0
  -19.7945  -30.7243   24.2280 H   0  0  0  0  0  0
  -17.5031  -31.6274   24.5160 H   0  0  0  0  0  0
  -15.5349  -30.3001   23.7672 H   0  0  0  0  0  0
  -15.8643  -28.0827   22.7082 H   0  0  0  0  0  0
  -24.5893  -30.7042   25.7884 H   0  0  0  0  0  0
  -24.8882  -32.2912   26.4909 H   0  0  0  0  0  0
  -25.8075  -30.8987   27.0298 H   0  0  0  0  0  0
  -26.2854  -29.6838   24.1138 H   0  0  0  0  0  0
  -27.3951  -29.7258   25.4647 H   0  0  0  0  0  0
  -27.8724  -30.4363   23.9382 H   0  0  0  0  0  0
  -27.2611  -33.3623   26.2098 H   0  0  0  0  0  0
  -28.3821  -32.6901   25.0364 H   0  0  0  0  0  0
  -28.0652  -31.8468   26.5444 H   0  0  0  0  0  0
  -28.2608  -38.0106   24.7503 H   0  0  0  0  0  0
  -28.1064  -36.2640   24.6298 H   0  0  0  0  0  0
  -27.2298  -37.1479   25.8874 H   0  0  0  0  0  0
  -20.9262  -29.8746   21.6980 H   0  0  0  0  0  0
  -26.0185  -38.2874   24.1399 H   0  0  0  0  0  0
  -24.5740  -23.3197   18.5504 H   0  0  0  0  0  0
  -25.5640  -19.7371   16.3390 H   0  0  0  0  0  0
  -26.6193  -20.0682   20.5070 H   0  0  0  0  0  0
  -24.7700  -23.5225   12.9470 H   0  0  0  0  0  0
  -23.2939  -23.5156   13.8789 H   0  0  0  0  0  0
  -23.9228  -22.0104   13.2397 H   0  0  0  0  0  0
  -28.9902  -19.1403   20.1220 H   0  0  0  0  0  0
  -30.2616  -19.4188   18.9383 H   0  0  0  0  0  0
  -28.8578  -20.4560   18.9754 H   0  0  0  0  0  0
  -32.0510  -17.6597   18.2153 H   0  0  0  0  0  0
  -33.5271  -16.7668   17.9296 H   0  0  0  0  0  0
  -32.8815  -16.8625   19.5517 H   0  0  0  0  0  0
  -30.6358  -14.6837   16.5336 H   0  0  0  0  0  0
  -32.3702  -14.6731   16.2983 H   0  0  0  0  0  0
  -31.4886  -16.1722   16.1797 H   0  0  0  0  0  0
  -23.5026  -22.8865   16.4686 H   0  0  0  0  0  0
  -23.5822  -21.3229   15.7210 H   0  0  0  0  0  0
  -26.1564  -21.9582   21.7265 H   0  0  0  0  0  0
  -24.5379  -22.4717   21.3493 H   0  0  0  0  0  0
  -26.4552  -17.7836   17.5805 H   0  0  0  0  0  0
  -26.7524  -17.8900   19.2977 H   0  0  0  0  0  0
  -25.4599  -23.7079   15.2978 H   0  0  0  0  0  0
  -25.8882  -22.1080   14.7524 H   0  0  0  0  0  0
  -25.3407  -24.6167   20.5116 H   0  0  0  0  0  0
  -26.0775  -24.3152   22.0440 H   0  0  0  0  0  0
  -27.4652  -24.1530   19.3065 H   0  0  0  0  0  0
  -28.0695  -23.3201   20.7072 H   0  0  0  0  0  0
  -28.5836  -16.4074   17.3852 H   0  0  0  0  0  0
  -30.0482  -17.3230   17.3483 H   0  0  0  0  0  0
  -30.2161  -17.1600   19.9045 H   0  0  0  0  0  0
  -28.8146  -16.1383   19.8813 H   0  0  0  0  0  0
  -29.3313  -25.1413   20.9636 H   0  0  0  0  0  0
  -28.0087  -25.6979   21.9168 H   0  0  0  0  0  0
  -28.5487  -18.9458   17.1212 H   0  0  0  0  0  0
  -32.5108  -14.6729   18.4481 H   0  0  0  0  0  0
  1 25  1  0  0  0
  1 30  2  0  0  0
  1 92  1  0  0  0
  2  3  1  0  0  0
  2 25  1  0  0  0
  2 93  1  0  0  0
  2 94  1  0  0  0
  3  4  1  0  0  0
  3 95  1  0  0  0
  3 96  1  0  0  0
  4  5  1  0  0  0
  4 97  1  0  0  0
  4 98  1  0  0  0
  5  6  1  0  0  0
  5 26  1  0  0  0
  5 99  1  0  0  0
  6 25  1  0  0  0
  6100  1  0  0  0
  6101  1  0  0  0
  7  8  2  0  0  0
  7 26  1  0  0  0
  7 29  1  0  0  0
  8  9  1  0  0  0
  8 22  1  0  0  0
  9 10  1  0  0  0
  9 27  2  0  0  0
 10 11  2  0  0  0
 10 15  1  0  0  0
 11 12  1  0  0  0
 11102  1  0  0  0
 12 13  2  0  0  0
 12103  1  0  0  0
 13 14  1  0  0  0
 13 31  1  0  0  0
 14 15  2  0  0  0
 14104  1  0  0  0
 15105  1  0  0  0
 16 17  2  0  0  0
 16 21  1  0  0  0
 16 31  1  0  0  0
 17 18  1  0  0  0
 17106  1  0  0  0
 18 19  2  0  0  0
 18107  1  0  0  0
 19 20  1  0  0  0
 19 24  1  0  0  0
 20 21  2  0  0  0
 20108  1  0  0  0
 21 23  1  0  0  0
 22 28  1  0  0  0
 22 32  2  0  0  0
 26 27  1  0  0  0
 28109  1  0  0  0
 28110  1  0  0  0
 29111  1  0  0  0
 29112  1  0  0  0
 33 34  1  0  0  0
 33 66  1  0  0  0
 33 70  2  0  0  0
 34 36  1  0  0  0
 34 59  1  0  0  0
 34113  1  0  0  0
 35 44  2  0  0  0
 35 45  1  0  0  0
 35 68  1  0  0  0
 36 56  1  0  0  0
 36114  1  0  0  0
 37 39  1  0  0  0
 37 47  1  0  0  0
 37 66  1  0  0  0
 37115  1  0  0  0
 38 43  2  0  0  0
 38 46  1  0  0  0
 38 47  1  0  0  0
 39 64  1  0  0  0
 39 67  2  0  0  0
 40 52  1  0  0  0
 40 53  2  0  0  0
 40 58  1  0  0  0
 41116  1  0  0  0
 41117  1  0  0  0
 41118  1  0  0  0
 41 48  1  0  0  0
 42 43  1  0  0  0
 42 66  1  0  0  0
 42119  1  0  0  0
 42120  1  0  0  0
 43 44  1  0  0  0
 44121  1  0  0  0
 45 46  2  0  0  0
 45122  1  0  0  0
 46123  1  0  0  0
 47124  1  0  0  0
 47125  1  0  0  0
 48 56  1  0  0  0
 48 65  1  0  0  0
 48126  1  0  0  0
 49 50  1  0  0  0
 49 53  1  0  0  0
 49 64  1  0  0  0
 49127  1  0  0  0
 50 51  1  0  0  0
 50128  1  0  0  0
 50129  1  0  0  0
 51 52  1  0  0  0
 51130  1  0  0  0
 51131  1  0  0  0
 52132  1  0  0  0
 52133  1  0  0  0
 53 54  1  0  0  0
 54 55  2  0  0  0
 54134  1  0  0  0
 55 57  1  0  0  0
 55135  1  0  0  0
 56 69  2  0  0  0
 57 58  2  0  0  0
 57136  1  0  0  0
 58137  1  0  0  0
 59 60  1  0  0  0
 59 61  1  0  0  0
 59 62  1  0  0  0
 60138  1  0  0  0
 60139  1  0  0  0
 60140  1  0  0  0
 61141  1  0  0  0
 61142  1  0  0  0
 61143  1  0  0  0
 62144  1  0  0  0
 62145  1  0  0  0
 62146  1  0  0  0
 63 65  1  0  0  0
 63147  1  0  0  0
 63148  1  0  0  0
 63149  1  0  0  0
 64150  1  0  0  0
 65151  1  0  0  0
 68 89  1  0  0  0
 71 74  2  0  0  0
 71 75  1  0  0  0
 71152  1  0  0  0
 72 74  1  0  0  0
 72 76  2  0  0  0
 72153  1  0  0  0
 73 75  2  0  0  0
 73 76  1  0  0  0
 73154  1  0  0  0
 74 81  1  0  0  0
 75 82  1  0  0  0
 76 83  1  0  0  0
 77 84  1  0  0  0
 77155  1  0  0  0
 77156  1  0  0  0
 77157  1  0  0  0
 78158  1  0  0  0
 78159  1  0  0  0
 78160  1  0  0  0
 78 90  1  0  0  0
 79161  1  0  0  0
 79162  1  0  0  0
 79163  1  0  0  0
 79 91  1  0  0  0
 80 91  1  0  0  0
 80164  1  0  0  0
 80165  1  0  0  0
 80166  1  0  0  0
 81 84  1  0  0  0
 81167  1  0  0  0
 81168  1  0  0  0
 82 85  1  0  0  0
 82169  1  0  0  0
 82170  1  0  0  0
 83 90  1  0  0  0
 83171  1  0  0  0
 83172  1  0  0  0
 84173  1  0  0  0
 84174  1  0  0  0
 85 86  1  0  0  0
 85175  1  0  0  0
 85176  1  0  0  0
 86 89  1  0  0  0
 86177  1  0  0  0
 86178  1  0  0  0
 87 88  1  0  0  0
 87 90  1  0  0  0
 87179  1  0  0  0
 87180  1  0  0  0
 88 92  1  0  0  0
 88181  1  0  0  0
 88182  1  0  0  0
 89183  1  0  0  0
 89184  1  0  0  0
 90185  1  0  0  0
 91 92  1  0  0  0
 91186  1  0  0  0
M  ISO  4   1 100  68 101  89 101  92 100
M  END
> <chiral flag>
0

> <version>
0

> <s_m_source_file>
/data/baiqing/PycharmProjects/Reinvent-master-3.2/result/LINK_invent/BTK/process_docking_weight1_custom_sum_contain_oxygen_bond_distance_aromatic_linkinvent_7_9_3/rearranged_h_0080.sdf

> <i_m_source_file_index>
4

> <r_mmod_Potential_Energy-OPLS-2005>
422.765350341797

> <r_mmod_Stretch_Energy-OPLS-2005>
49.8957824707031

> <r_mmod_Bend_Energy-OPLS-2005>
136.186157226562

> <r_mmod_Torsional_Energy-OPLS-2005>
398.882873535156

> <r_mmod_Improper_Torsional_Energy-OPLS-2005>
29.1216411590576

> <r_mmod_Van_der_Waal_Energy-OPLS-2005>
144.836502075195

> <r_mmod_Electrostatic_Energy-OPLS-2005>
-257.229461669922

> <r_mmod_Solvation_Energy-OPLS-2005>
-173.477569580078

> <b_mmod_Minimization_Converged-OPLS-2005>
0

> <r_mmod_RMS_Derivative-OPLS-2005>
6.85813617706299

$$$$
6
                    3D
 Structure written by MMmdl.
171179  0  0  1  0            999 V2000
  -30.7478  -14.3976   20.4991 C   0  0  0  0  0  0
  -30.3996  -12.2391   19.4249 C   0  0  0  0  0  0
  -29.4904  -12.5116   18.2094 C   0  0  0  0  0  0
  -28.0055  -12.3813   18.6115 C   0  0  0  0  0  0
  -27.6616  -13.2016   19.8861 C   0  0  2  0  0  0
  -28.7126  -12.9857   21.0031 C   0  0  0  0  0  0
  -25.2551  -13.8077   20.5736 C   0  0  0  0  0  0
  -24.1790  -13.0402   20.9172 C   0  0  0  0  0  0
  -24.6352  -11.6871   20.8760 C   0  0  0  0  0  0
  -23.9026  -10.4278   21.0427 C   0  0  0  0  0  0
  -24.3587   -9.4188   21.9205 C   0  0  0  0  0  0
  -23.6282   -8.2226   22.0768 C   0  0  0  0  0  0
  -22.4259   -8.0259   21.3563 C   0  0  0  0  0  0
  -21.9891   -9.0226   20.4649 C   0  0  0  0  0  0
  -22.7208  -10.2102   20.3071 C   0  0  0  0  0  0
  -21.6842   -6.0742   22.5294 C   0  0  0  0  0  0
  -21.3999   -6.5650   23.8216 C   0  0  0  0  0  0
  -21.3671   -5.6788   24.9189 C   0  0  0  0  0  0
  -21.6053   -4.3064   24.7220 C   0  0  0  0  0  0
  -21.8807   -3.8158   23.4351 C   0  0  0  0  0  0
  -21.9179   -4.6982   22.3400 C   0  0  0  0  0  0
  -22.7806  -13.5212   21.1791 C   0  0  0  0  0  0
  -22.1641   -4.2162   21.0988 F   0  0  0  0  0  0
  -21.5643   -3.4545   25.7750 F   0  0  0  0  0  0
  -30.0466  -13.2404   20.4362 N   0  0  0  0  0  0
  -26.3016  -12.9293   20.3473 N   0  0  0  0  0  0
  -25.9294  -11.6443   20.5841 N   0  0  0  0  0  0
  -22.0404  -12.8264   22.0335 N   0  0  0  0  0  0
  -25.4269  -15.1795   20.4295 N   0  0  0  0  0  0
  -31.9143  -14.5051   20.1173 O   0  0  0  0  0  0
  -21.6638   -6.8871   21.4246 O   0  0  0  0  0  0
  -22.3552  -14.5539   20.6623 O   0  0  0  0  0  0
  -24.6060  -31.8694   23.2222 C   0  0  0  0  0  0
  -25.8993  -32.4841   23.8464 C   0  0  1  0  0  0
  -27.2313  -27.4778   20.0732 C   0  0  0  0  0  0
  -25.5882  -33.8655   24.2376 N   0  0  0  0  0  0
  -23.3920  -30.4921   21.5644 C   0  0  2  0  0  0
  -24.8342  -28.9699   20.1243 C   0  0  0  0  0  0
  -22.7383  -29.4548   22.5038 C   0  0  0  0  0  0
  -18.0261  -28.1326   22.8672 C   0  0  0  0  0  0
  -24.1490  -36.7313   23.2640 C   0  0  0  0  0  0
  -25.9174  -30.8450   21.3713 C   0  0  0  0  0  0
  -25.9933  -29.4824   20.7179 C   0  0  0  0  0  0
  -27.1919  -28.7396   20.6964 C   0  0  0  0  0  0
  -26.0561  -26.9801   19.4622 C   0  0  0  0  0  0
  -24.8564  -27.7105   19.5025 C   0  0  0  0  0  0
  -23.5998  -29.8423   20.1717 C   0  0  0  0  0  0
  -25.4112  -36.3120   24.0340 C   0  0  1  0  0  0
  -20.5852  -28.3560   23.1482 C   0  0  2  0  0  0
  -20.6565  -26.9200   22.5848 C   0  0  0  0  0  0
  -19.5626  -26.6225   21.5578 C   0  0  0  0  0  0
  -18.1906  -26.7705   22.2180 C   0  0  0  0  0  0
  -19.1544  -28.8820   23.2979 C   0  0  0  0  0  0
  -18.9541  -30.1445   23.8924 C   0  0  0  0  0  0
  -17.6558  -30.6600   24.0654 C   0  0  0  0  0  0
  -25.9019  -34.9474   23.5144 C   0  0  0  0  0  0
  -16.5429  -29.9102   23.6510 C   0  0  0  0  0  0
  -16.7269  -28.6484   23.0576 C   0  0  0  0  0  0
  -26.4451  -31.6613   25.0781 C   0  0  0  0  0  0
  -25.3741  -31.3718   26.1547 C   0  0  0  0  0  0
  -27.0271  -30.3057   24.6126 C   0  0  0  0  0  0
  -27.6037  -32.4316   25.7539 C   0  0  0  0  0  0
  -27.5573  -37.1821   24.8468 C   0  0  0  0  0  0
  -21.4130  -29.2773   22.3690 N   0  0  0  0  0  0
  -26.4302  -37.3790   23.9398 N   0  0  0  0  0  0
  -24.6568  -31.0782   22.1135 N   0  0  0  0  0  0
  -23.4163  -28.8187   23.3139 O   0  0  0  0  0  0
  -28.4313  -26.8051   20.0790 O   0  0  0  0  0  0
  -26.5575  -34.8909   22.4700 O   0  0  0  0  0  0
  -23.5276  -32.1453   23.7621 O   0  0  0  0  0  0
  -25.8700  -20.7163   22.1116 C   0  0  0  0  0  0
  -28.1512  -20.5451   20.6048 C   0  0  0  0  0  0
  -26.4704  -19.4520   21.9525 C   0  0  0  0  0  0
  -27.6678  -19.3692   21.2079 C   0  0  0  0  0  0
  -26.4700  -21.8395   21.5207 C   0  0  0  0  0  0
  -25.8507  -18.2276   22.6053 C   0  0  0  0  0  0
  -29.1346  -18.9174   17.6884 C   0  0  0  0  0  0
  -27.4431  -17.2769   18.4654 C   0  0  0  0  0  0
  -28.4618  -18.0662   21.1604 C   0  0  0  0  0  0
  -27.8339  -24.7256   21.2289 C   0  0  0  0  0  0
  -30.5440  -16.8398   20.4375 C   0  0  0  0  0  0
  -28.4315  -25.3880   19.9704 C   0  0  0  0  0  0
  -26.3903  -24.2047   21.0049 C   0  0  0  0  0  0
  -28.9200  -17.6760   18.5661 C   0  0  0  0  0  0
  -29.4832  -17.8767   20.0160 C   0  0  2  0  0  0
  -27.5575  -21.7412   20.7337 N   0  0  0  0  0  0
  -30.0283  -15.4975   20.7420 N   0  0  0  0  0  0
  -25.9850  -23.0981   21.8119 O   0  0  0  0  0  0
  -31.4504  -12.2736   19.1403 H   0  0  0  0  0  0
  -30.2330  -11.2336   19.8138 H   0  0  0  0  0  0
  -29.7250  -11.8310   17.3902 H   0  0  0  0  0  0
  -29.6717  -13.5221   17.8350 H   0  0  0  0  0  0
  -27.7920  -11.3229   18.7757 H   0  0  0  0  0  0
  -27.3614  -12.6947   17.7873 H   0  0  0  0  0  0
  -27.7054  -14.2497   19.5972 H   0  0  0  0  0  0
  -28.6681  -11.9578   21.3674 H   0  0  0  0  0  0
  -28.5134  -13.6165   21.8719 H   0  0  0  0  0  0
  -25.2732   -9.5661   22.4785 H   0  0  0  0  0  0
  -23.9996   -7.4622   22.7481 H   0  0  0  0  0  0
  -21.0835   -8.8729   19.8950 H   0  0  0  0  0  0
  -22.3677  -10.9648   19.6174 H   0  0  0  0  0  0
  -21.1976   -7.6154   23.9727 H   0  0  0  0  0  0
  -21.1517   -6.0537   25.9084 H   0  0  0  0  0  0
  -22.0582   -2.7630   23.2840 H   0  0  0  0  0  0
  -22.3997  -11.9954   22.4801 H   0  0  0  0  0  0
  -21.1005  -13.1315   22.2444 H   0  0  0  0  0  0
  -24.6564  -15.8301   20.5247 H   0  0  0  0  0  0
  -26.3010  -15.6204   20.1877 H   0  0  0  0  0  0
  -26.7059  -32.5524   23.1223 H   0  0  0  0  0  0
  -25.0094  -33.9861   25.0553 H   0  0  0  0  0  0
  -22.6761  -31.3054   21.4416 H   0  0  0  0  0  0
  -23.3735  -35.9659   23.3323 H   0  0  0  0  0  0
  -24.3598  -36.8899   22.2054 H   0  0  0  0  0  0
  -23.7269  -37.6541   23.6630 H   0  0  0  0  0  0
  -26.0165  -31.6118   20.6027 H   0  0  0  0  0  0
  -26.8094  -30.8962   21.9847 H   0  0  0  0  0  0
  -28.0854  -29.1299   21.1638 H   0  0  0  0  0  0
  -26.0428  -26.0345   18.9461 H   0  0  0  0  0  0
  -23.9654  -27.3089   19.0439 H   0  0  0  0  0  0
  -23.7301  -30.6318   19.4275 H   0  0  0  0  0  0
  -22.7187  -29.2814   19.8532 H   0  0  0  0  0  0
  -25.1289  -36.2000   25.0835 H   0  0  0  0  0  0
  -20.9918  -28.3241   24.1637 H   0  0  0  0  0  0
  -20.5041  -26.2362   23.4223 H   0  0  0  0  0  0
  -21.6399  -26.6746   22.1836 H   0  0  0  0  0  0
  -19.6777  -25.6153   21.1598 H   0  0  0  0  0  0
  -19.6607  -27.3143   20.7199 H   0  0  0  0  0  0
  -17.3944  -26.5859   21.4983 H   0  0  0  0  0  0
  -18.0787  -26.0192   23.0040 H   0  0  0  0  0  0
  -19.8065  -30.7209   24.2262 H   0  0  0  0  0  0
  -17.5196  -31.6254   24.5345 H   0  0  0  0  0  0
  -15.5428  -30.2970   23.8012 H   0  0  0  0  0  0
  -15.8609  -28.0730   22.7593 H   0  0  0  0  0  0
  -24.5892  -30.7082   25.7898 H   0  0  0  0  0  0
  -24.8957  -32.2881   26.5013 H   0  0  0  0  0  0
  -25.8110  -30.8885   27.0288 H   0  0  0  0  0  0
  -26.2831  -29.6867   24.1107 H   0  0  0  0  0  0
  -27.3969  -29.7245   25.4576 H   0  0  0  0  0  0
  -27.8680  -30.4379   23.9323 H   0  0  0  0  0  0
  -27.2661  -33.3585   26.2172 H   0  0  0  0  0  0
  -28.3826  -32.6916   25.0367 H   0  0  0  0  0  0
  -28.0711  -31.8406   26.5418 H   0  0  0  0  0  0
  -28.2604  -38.0099   24.7488 H   0  0  0  0  0  0
  -28.1051  -36.2633   24.6320 H   0  0  0  0  0  0
  -27.2288  -37.1501   25.8870 H   0  0  0  0  0  0
  -20.9317  -29.8202   21.6667 H   0  0  0  0  0  0
  -26.0184  -38.2863   24.1388 H   0  0  0  0  0  0
  -24.9735  -20.8312   22.7057 H   0  0  0  0  0  0
  -29.0698  -20.5678   20.0445 H   0  0  0  0  0  0
  -25.2347  -17.7036   21.8746 H   0  0  0  0  0  0
  -25.2164  -18.5082   23.4456 H   0  0  0  0  0  0
  -26.6009  -17.5376   22.9931 H   0  0  0  0  0  0
  -28.5849  -19.7734   18.0735 H   0  0  0  0  0  0
  -28.7652  -18.7539   16.6775 H   0  0  0  0  0  0
  -30.1927  -19.1690   17.6096 H   0  0  0  0  0  0
  -27.1242  -17.2014   17.4250 H   0  0  0  0  0  0
  -26.7910  -18.0031   18.9524 H   0  0  0  0  0  0
  -27.2691  -16.3036   18.9011 H   0  0  0  0  0  0
  -27.8101  -17.1984   21.1949 H   0  0  0  0  0  0
  -29.0065  -18.0691   22.1068 H   0  0  0  0  0  0
  -27.8676  -25.4130   22.0740 H   0  0  0  0  0  0
  -28.4987  -23.9096   21.5073 H   0  0  0  0  0  0
  -31.2887  -16.8077   19.6377 H   0  0  0  0  0  0
  -31.0758  -17.1971   21.3227 H   0  0  0  0  0  0
  -27.9701  -25.0458   19.0423 H   0  0  0  0  0  0
  -29.4755  -25.0811   19.8872 H   0  0  0  0  0  0
  -26.2141  -23.9429   19.9599 H   0  0  0  0  0  0
  -25.7014  -25.0167   21.2341 H   0  0  0  0  0  0
  -29.4878  -16.8764   18.0871 H   0  0  0  0  0  0
  -30.0963  -18.7746   19.9849 H   0  0  0  0  0  0
  -29.0852  -15.3897   21.0800 H   0  0  0  0  0  0
  1 25  1  0  0  0
  1 30  2  0  0  0
  1 87  1  0  0  0
  2  3  1  0  0  0
  2 25  1  0  0  0
  2 89  1  0  0  0
  2 90  1  0  0  0
  3  4  1  0  0  0
  3 91  1  0  0  0
  3 92  1  0  0  0
  4  5  1  0  0  0
  4 93  1  0  0  0
  4 94  1  0  0  0
  5  6  1  0  0  0
  5 26  1  0  0  0
  5 95  1  0  0  0
  6 25  1  0  0  0
  6 96  1  0  0  0
  6 97  1  0  0  0
  7  8  2  0  0  0
  7 26  1  0  0  0
  7 29  1  0  0  0
  8  9  1  0  0  0
  8 22  1  0  0  0
  9 10  1  0  0  0
  9 27  2  0  0  0
 10 11  2  0  0  0
 10 15  1  0  0  0
 11 12  1  0  0  0
 11 98  1  0  0  0
 12 13  2  0  0  0
 12 99  1  0  0  0
 13 14  1  0  0  0
 13 31  1  0  0  0
 14 15  2  0  0  0
 14100  1  0  0  0
 15101  1  0  0  0
 16 17  2  0  0  0
 16 21  1  0  0  0
 16 31  1  0  0  0
 17 18  1  0  0  0
 17102  1  0  0  0
 18 19  2  0  0  0
 18103  1  0  0  0
 19 20  1  0  0  0
 19 24  1  0  0  0
 20 21  2  0  0  0
 20104  1  0  0  0
 21 23  1  0  0  0
 22 28  1  0  0  0
 22 32  2  0  0  0
 26 27  1  0  0  0
 28105  1  0  0  0
 28106  1  0  0  0
 29107  1  0  0  0
 29108  1  0  0  0
 33 34  1  0  0  0
 33 66  1  0  0  0
 33 70  2  0  0  0
 34 36  1  0  0  0
 34 59  1  0  0  0
 34109  1  0  0  0
 35 44  2  0  0  0
 35 45  1  0  0  0
 35 68  1  0  0  0
 36 56  1  0  0  0
 36110  1  0  0  0
 37 39  1  0  0  0
 37 47  1  0  0  0
 37 66  1  0  0  0
 37111  1  0  0  0
 38 43  2  0  0  0
 38 46  1  0  0  0
 38 47  1  0  0  0
 39 64  1  0  0  0
 39 67  2  0  0  0
 40 52  1  0  0  0
 40 53  2  0  0  0
 40 58  1  0  0  0
 41112  1  0  0  0
 41113  1  0  0  0
 41114  1  0  0  0
 41 48  1  0  0  0
 42 43  1  0  0  0
 42 66  1  0  0  0
 42115  1  0  0  0
 42116  1  0  0  0
 43 44  1  0  0  0
 44117  1  0  0  0
 45 46  2  0  0  0
 45118  1  0  0  0
 46119  1  0  0  0
 47120  1  0  0  0
 47121  1  0  0  0
 48 56  1  0  0  0
 48 65  1  0  0  0
 48122  1  0  0  0
 49 50  1  0  0  0
 49 53  1  0  0  0
 49 64  1  0  0  0
 49123  1  0  0  0
 50 51  1  0  0  0
 50124  1  0  0  0
 50125  1  0  0  0
 51 52  1  0  0  0
 51126  1  0  0  0
 51127  1  0  0  0
 52128  1  0  0  0
 52129  1  0  0  0
 53 54  1  0  0  0
 54 55  2  0  0  0
 54130  1  0  0  0
 55 57  1  0  0  0
 55131  1  0  0  0
 56 69  2  0  0  0
 57 58  2  0  0  0
 57132  1  0  0  0
 58133  1  0  0  0
 59 60  1  0  0  0
 59 61  1  0  0  0
 59 62  1  0  0  0
 60134  1  0  0  0
 60135  1  0  0  0
 60136  1  0  0  0
 61137  1  0  0  0
 61138  1  0  0  0
 61139  1  0  0  0
 62140  1  0  0  0
 62141  1  0  0  0
 62142  1  0  0  0
 63 65  1  0  0  0
 63143  1  0  0  0
 63144  1  0  0  0
 63145  1  0  0  0
 64146  1  0  0  0
 65147  1  0  0  0
 68 82  1  0  0  0
 71 73  2  0  0  0
 71 75  1  0  0  0
 71148  1  0  0  0
 72 74  2  0  0  0
 72 86  1  0  0  0
 72149  1  0  0  0
 73 74  1  0  0  0
 73 76  1  0  0  0
 74 79  1  0  0  0
 75 86  2  0  0  0
 75 88  1  0  0  0
 76150  1  0  0  0
 76151  1  0  0  0
 76152  1  0  0  0
 77153  1  0  0  0
 77154  1  0  0  0
 77155  1  0  0  0
 77 84  1  0  0  0
 78 84  1  0  0  0
 78156  1  0  0  0
 78157  1  0  0  0
 78158  1  0  0  0
 79159  1  0  0  0
 79160  1  0  0  0
 79 85  1  0  0  0
 80 82  1  0  0  0
 80 83  1  0  0  0
 80161  1  0  0  0
 80162  1  0  0  0
 81 85  1  0  0  0
 81 87  1  0  0  0
 81163  1  0  0  0
 81164  1  0  0  0
 82165  1  0  0  0
 82166  1  0  0  0
 83 88  1  0  0  0
 83167  1  0  0  0
 83168  1  0  0  0
 84 85  1  0  0  0
 84169  1  0  0  0
 85170  1  0  0  0
 87171  1  0  0  0
M  ISO  4   1 100  68 101  82 101  87 100
M  END
> <chiral flag>
0

> <version>
0

> <s_m_source_file>
/data/baiqing/PycharmProjects/Reinvent-master-3.2/result/LINK_invent/BTK/process_docking_weight1_custom_sum_contain_oxygen_bond_distance_aromatic_linkinvent_7_9_3/rearranged_h_0080.sdf

> <i_m_source_file_index>
5

> <r_mmod_Potential_Energy-OPLS-2005>
-142.399673461914

> <r_mmod_Stretch_Energy-OPLS-2005>
33.8525848388672

> <r_mmod_Bend_Energy-OPLS-2005>
129.944091796875

> <r_mmod_Torsional_Energy-OPLS-2005>
235.199859619141

> <r_mmod_Improper_Torsional_Energy-OPLS-2005>
6.85037755966187

> <r_mmod_Van_der_Waal_Energy-OPLS-2005>
176.775695800781

> <r_mmod_Electrostatic_Energy-OPLS-2005>
-536.617492675781

> <r_mmod_Solvation_Energy-OPLS-2005>
-205.619354248047

> <b_mmod_Minimization_Converged-OPLS-2005>
0

> <r_mmod_RMS_Derivative-OPLS-2005>
6.77256059646606

$$$$
7
                    3D
 Structure written by MMmdl.
174182  0  0  1  0            999 V2000
  -30.7112  -14.4473   20.5583 C   0  0  0  0  0  0
  -30.4193  -12.2828   19.4296 C   0  0  0  0  0  0
  -29.4965  -12.4948   18.2109 C   0  0  0  0  0  0
  -28.0150  -12.3654   18.6192 C   0  0  0  0  0  0
  -27.6637  -13.2030   19.8788 C   0  0  2  0  0  0
  -28.7060  -12.9741   20.9979 C   0  0  0  0  0  0
  -25.2599  -13.8154   20.5693 C   0  0  0  0  0  0
  -24.1841  -13.0433   20.9181 C   0  0  0  0  0  0
  -24.6389  -11.6901   20.8734 C   0  0  0  0  0  0
  -23.9053  -10.4290   21.0403 C   0  0  0  0  0  0
  -24.3608   -9.4209   21.9181 C   0  0  0  0  0  0
  -23.6287   -8.2242   22.0753 C   0  0  0  0  0  0
  -22.4270   -8.0277   21.3544 C   0  0  0  0  0  0
  -21.9904   -9.0248   20.4643 C   0  0  0  0  0  0
  -22.7227  -10.2131   20.3052 C   0  0  0  0  0  0
  -21.6851   -6.0733   22.5279 C   0  0  0  0  0  0
  -21.4012   -6.5638   23.8213 C   0  0  0  0  0  0
  -21.3659   -5.6792   24.9175 C   0  0  0  0  0  0
  -21.6044   -4.3052   24.7226 C   0  0  0  0  0  0
  -21.8819   -3.8146   23.4345 C   0  0  0  0  0  0
  -21.9193   -4.6963   22.3401 C   0  0  0  0  0  0
  -22.7864  -13.5237   21.1838 C   0  0  0  0  0  0
  -22.1661   -4.2148   21.0978 F   0  0  0  0  0  0
  -21.5630   -3.4535   25.7738 F   0  0  0  0  0  0
  -30.0374  -13.2702   20.4510 N   0  0  0  0  0  0
  -26.3036  -12.9315   20.3393 N   0  0  0  0  0  0
  -25.9318  -11.6479   20.5779 N   0  0  0  0  0  0
  -22.0498  -12.8234   22.0394 N   0  0  0  0  0  0
  -25.4321  -15.1872   20.4098 N   0  0  0  0  0  0
  -31.8429  -14.5922   20.0852 O   0  0  0  0  0  0
  -21.6635   -6.8875   21.4240 O   0  0  0  0  0  0
  -22.3560  -14.5549   20.6691 O   0  0  0  0  0  0
  -24.6100  -31.8709   23.2117 C   0  0  0  0  0  0
  -25.9014  -32.4837   23.8403 C   0  0  1  0  0  0
  -27.2370  -27.4611   20.1031 C   0  0  0  0  0  0
  -25.5873  -33.8632   24.2334 N   0  0  0  0  0  0
  -23.3973  -30.4925   21.5507 C   0  0  2  0  0  0
  -24.8467  -28.9608   20.1134 C   0  0  0  0  0  0
  -22.7386  -29.4673   22.5008 C   0  0  0  0  0  0
  -18.0258  -28.1382   22.8487 C   0  0  0  0  0  0
  -24.1485  -36.7333   23.2638 C   0  0  0  0  0  0
  -25.9206  -30.8455   21.3605 C   0  0  0  0  0  0
  -26.0009  -29.4802   20.7129 C   0  0  0  0  0  0
  -27.1991  -28.7364   20.7106 C   0  0  0  0  0  0
  -26.0759  -26.9545   19.4878 C   0  0  0  0  0  0
  -24.8772  -27.6949   19.4990 C   0  0  0  0  0  0
  -23.6042  -29.8212   20.1653 C   0  0  0  0  0  0
  -25.4104  -36.3124   24.0340 C   0  0  1  0  0  0
  -20.5847  -28.3663   23.1331 C   0  0  2  0  0  0
  -20.6757  -26.9405   22.5428 C   0  0  0  0  0  0
  -19.5741  -26.6390   21.5217 C   0  0  0  0  0  0
  -18.1911  -26.7925   22.1618 C   0  0  0  0  0  0
  -19.1507  -28.8833   23.2900 C   0  0  0  0  0  0
  -18.9443  -30.1439   23.8915 C   0  0  0  0  0  0
  -17.6454  -30.6590   24.0563 C   0  0  0  0  0  0
  -25.9025  -34.9486   23.5138 C   0  0  0  0  0  0
  -16.5341  -29.9097   23.6330 C   0  0  0  0  0  0
  -16.7248  -28.6512   23.0352 C   0  0  0  0  0  0
  -26.4447  -31.6607   25.0722 C   0  0  0  0  0  0
  -25.3713  -31.3712   26.1473 C   0  0  0  0  0  0
  -27.0283  -30.3055   24.6079 C   0  0  0  0  0  0
  -27.6021  -32.4329   25.7483 C   0  0  0  0  0  0
  -27.5583  -37.1821   24.8461 C   0  0  0  0  0  0
  -21.4118  -29.3029   22.3742 N   0  0  0  0  0  0
  -26.4298  -37.3805   23.9402 N   0  0  0  0  0  0
  -24.6604  -31.0839   22.0994 N   0  0  0  0  0  0
  -23.4172  -28.8222   23.3049 O   0  0  0  0  0  0
  -28.3814  -26.7023   20.0814 O   0  0  0  0  0  0
  -26.5603  -34.8936   22.4708 O   0  0  0  0  0  0
  -23.5307  -32.1443   23.7539 O   0  0  0  0  0  0
  -31.0313  -19.9960   22.4873 C   0  0  0  0  0  0
  -31.5794  -18.7621   22.2729 C   0  0  0  0  0  0
  -29.4035  -18.4462   22.7631 C   0  0  0  0  0  0
  -29.6592  -19.7889   22.7961 C   0  0  0  0  0  0
  -28.6811  -20.8252   23.1584 C   0  0  0  0  0  0
  -28.9674  -22.1310   23.3409 C   0  0  0  0  0  0
  -30.4819  -15.6365   23.6126 C   0  0  0  0  0  0
  -26.5417  -22.9149   23.3080 C   0  0  0  0  0  0
  -28.0001  -23.2633   25.3085 C   0  0  0  0  0  0
  -28.2437  -24.9202   21.7599 C   0  0  0  0  0  0
  -28.4432  -24.6146   23.2589 C   0  0  0  0  0  0
  -29.8168  -16.7196   19.8689 C   0  0  0  0  0  0
  -28.8430  -26.2864   21.3683 C   0  0  0  0  0  0
  -30.0264  -15.7427   21.0701 C   0  0  2  0  0  0
  -30.7881  -16.3580   22.2883 C   0  0  1  0  0  0
  -27.9836  -23.2202   23.7694 C   0  0  0  0  0  0
  -30.5891  -17.8012   22.4348 N   0  0  0  0  0  0
  -31.0597  -17.2899   19.3026 N   0  3  0  0  0  0
  -31.4663  -12.3609   19.1319 H   0  0  0  0  0  0
  -30.3032  -11.2723   19.8243 H   0  0  0  0  0  0
  -29.7320  -11.7692   17.4311 H   0  0  0  0  0  0
  -29.6755  -13.4791   17.7756 H   0  0  0  0  0  0
  -27.8188  -11.3100   18.8123 H   0  0  0  0  0  0
  -27.3675  -12.6446   17.7875 H   0  0  0  0  0  0
  -27.7092  -14.2510   19.5852 H   0  0  0  0  0  0
  -28.6763  -11.9338   21.3257 H   0  0  0  0  0  0
  -28.4758  -13.5507   21.8928 H   0  0  0  0  0  0
  -25.2753   -9.5686   22.4755 H   0  0  0  0  0  0
  -23.9997   -7.4635   22.7474 H   0  0  0  0  0  0
  -21.0837   -8.8763   19.8948 H   0  0  0  0  0  0
  -22.3685  -10.9667   19.6159 H   0  0  0  0  0  0
  -21.2002   -7.6146   23.9717 H   0  0  0  0  0  0
  -21.1483   -6.0520   25.9079 H   0  0  0  0  0  0
  -22.0599   -2.7608   23.2845 H   0  0  0  0  0  0
  -22.4100  -11.9886   22.4777 H   0  0  0  0  0  0
  -21.1116  -13.1267   22.2588 H   0  0  0  0  0  0
  -24.6631  -15.8401   20.5150 H   0  0  0  0  0  0
  -26.2830  -15.6292   20.0878 H   0  0  0  0  0  0
  -26.7089  -32.5576   23.1181 H   0  0  0  0  0  0
  -24.9989  -33.9791   25.0452 H   0  0  0  0  0  0
  -22.6840  -31.3084   21.4128 H   0  0  0  0  0  0
  -23.3743  -35.9673   23.3317 H   0  0  0  0  0  0
  -24.3563  -36.8932   22.2045 H   0  0  0  0  0  0
  -23.7255  -37.6550   23.6644 H   0  0  0  0  0  0
  -26.0266  -31.6124   20.5910 H   0  0  0  0  0  0
  -26.8091  -30.9010   21.9773 H   0  0  0  0  0  0
  -28.0909  -29.1380   21.1723 H   0  0  0  0  0  0
  -26.1001  -25.9826   19.0145 H   0  0  0  0  0  0
  -23.9889  -27.2900   19.0335 H   0  0  0  0  0  0
  -23.7021  -30.5947   19.4029 H   0  0  0  0  0  0
  -22.7302  -29.2348   19.8755 H   0  0  0  0  0  0
  -25.1284  -36.1993   25.0836 H   0  0  0  0  0  0
  -20.9916  -28.3233   24.1458 H   0  0  0  0  0  0
  -20.5680  -26.2264   23.3611 H   0  0  0  0  0  0
  -21.6629  -26.7477   22.1209 H   0  0  0  0  0  0
  -19.6919  -25.6305   21.1238 H   0  0  0  0  0  0
  -19.6692  -27.3209   20.6753 H   0  0  0  0  0  0
  -17.4191  -26.6671   21.4013 H   0  0  0  0  0  0
  -18.0300  -26.0067   22.9011 H   0  0  0  0  0  0
  -19.7928  -30.7224   24.2314 H   0  0  0  0  0  0
  -17.5024  -31.6276   24.5156 H   0  0  0  0  0  0
  -15.5347  -30.3013   23.7658 H   0  0  0  0  0  0
  -15.8639  -28.0842   22.7081 H   0  0  0  0  0  0
  -24.5878  -30.7070   25.7805 H   0  0  0  0  0  0
  -24.8910  -32.2868   26.4933 H   0  0  0  0  0  0
  -25.8057  -30.8870   27.0227 H   0  0  0  0  0  0
  -26.2832  -29.6823   24.1121 H   0  0  0  0  0  0
  -27.4046  -29.7279   25.4529 H   0  0  0  0  0  0
  -27.8662  -30.4383   23.9232 H   0  0  0  0  0  0
  -27.2631  -33.3616   26.2091 H   0  0  0  0  0  0
  -28.3809  -32.6914   25.0294 H   0  0  0  0  0  0
  -28.0713  -31.8439   26.5373 H   0  0  0  0  0  0
  -28.2614  -38.0111   24.7496 H   0  0  0  0  0  0
  -28.1068  -36.2638   24.6300 H   0  0  0  0  0  0
  -27.2291  -37.1479   25.8865 H   0  0  0  0  0  0
  -20.9288  -29.8732   21.6939 H   0  0  0  0  0  0
  -26.0200  -38.2894   24.1388 H   0  0  0  0  0  0
  -31.5666  -20.9351   22.4426 H   0  0  0  0  0  0
  -32.5985  -18.4839   22.0343 H   0  0  0  0  0  0
  -28.4955  -17.8881   22.9527 H   0  0  0  0  0  0
  -27.6681  -20.4777   23.2990 H   0  0  0  0  0  0
  -29.9846  -22.4639   23.1925 H   0  0  0  0  0  0
  -30.7244  -14.5753   23.5539 H   0  0  0  0  0  0
  -29.4295  -15.7210   23.8839 H   0  0  0  0  0  0
  -31.0688  -16.0584   24.4286 H   0  0  0  0  0  0
  -26.1252  -22.0434   23.8141 H   0  0  0  0  0  0
  -26.4947  -22.7226   22.2353 H   0  0  0  0  0  0
  -25.8721  -23.7489   23.5216 H   0  0  0  0  0  0
  -27.7261  -22.2991   25.7391 H   0  0  0  0  0  0
  -27.2993  -24.0023   25.6979 H   0  0  0  0  0  0
  -28.9901  -23.5192   25.6897 H   0  0  0  0  0  0
  -27.1767  -24.9282   21.5382 H   0  0  0  0  0  0
  -28.6837  -24.1355   21.1442 H   0  0  0  0  0  0
  -27.9048  -25.3837   23.8151 H   0  0  0  0  0  0
  -29.4942  -24.7633   23.5142 H   0  0  0  0  0  0
  -29.1498  -17.5361   20.1463 H   0  0  0  0  0  0
  -29.2990  -16.1928   19.0657 H   0  0  0  0  0  0
  -29.9307  -26.2159   21.3420 H   0  0  0  0  0  0
  -28.6111  -27.0264   22.1359 H   0  0  0  0  0  0
  -29.0181  -15.5278   21.4132 H   0  0  0  0  0  0
  -31.8579  -16.2231   22.1166 H   0  0  0  0  0  0
  -31.4766  -17.9399   19.9471 H   0  0  0  0  0  0
  -30.8578  -17.7852   18.4509 H   0  0  0  0  0  0
  -31.7216  -16.5573   19.0979 H   0  0  0  0  0  0
  1 25  1  0  0  0
  1 30  2  0  0  0
  1 84  1  0  0  0
  2  3  1  0  0  0
  2 25  1  0  0  0
  2 89  1  0  0  0
  2 90  1  0  0  0
  3  4  1  0  0  0
  3 91  1  0  0  0
  3 92  1  0  0  0
  4  5  1  0  0  0
  4 93  1  0  0  0
  4 94  1  0  0  0
  5  6  1  0  0  0
  5 26  1  0  0  0
  5 95  1  0  0  0
  6 25  1  0  0  0
  6 96  1  0  0  0
  6 97  1  0  0  0
  7  8  2  0  0  0
  7 26  1  0  0  0
  7 29  1  0  0  0
  8  9  1  0  0  0
  8 22  1  0  0  0
  9 10  1  0  0  0
  9 27  2  0  0  0
 10 11  2  0  0  0
 10 15  1  0  0  0
 11 12  1  0  0  0
 11 98  1  0  0  0
 12 13  2  0  0  0
 12 99  1  0  0  0
 13 14  1  0  0  0
 13 31  1  0  0  0
 14 15  2  0  0  0
 14100  1  0  0  0
 15101  1  0  0  0
 16 17  2  0  0  0
 16 21  1  0  0  0
 16 31  1  0  0  0
 17 18  1  0  0  0
 17102  1  0  0  0
 18 19  2  0  0  0
 18103  1  0  0  0
 19 20  1  0  0  0
 19 24  1  0  0  0
 20 21  2  0  0  0
 20104  1  0  0  0
 21 23  1  0  0  0
 22 28  1  0  0  0
 22 32  2  0  0  0
 26 27  1  0  0  0
 28105  1  0  0  0
 28106  1  0  0  0
 29107  1  0  0  0
 29108  1  0  0  0
 33 34  1  0  0  0
 33 66  1  0  0  0
 33 70  2  0  0  0
 34 36  1  0  0  0
 34 59  1  0  0  0
 34109  1  0  0  0
 35 44  2  0  0  0
 35 45  1  0  0  0
 35 68  1  0  0  0
 36 56  1  0  0  0
 36110  1  0  0  0
 37 39  1  0  0  0
 37 47  1  0  0  0
 37 66  1  0  0  0
 37111  1  0  0  0
 38 43  2  0  0  0
 38 46  1  0  0  0
 38 47  1  0  0  0
 39 64  1  0  0  0
 39 67  2  0  0  0
 40 52  1  0  0  0
 40 53  2  0  0  0
 40 58  1  0  0  0
 41112  1  0  0  0
 41113  1  0  0  0
 41114  1  0  0  0
 41 48  1  0  0  0
 42 43  1  0  0  0
 42 66  1  0  0  0
 42115  1  0  0  0
 42116  1  0  0  0
 43 44  1  0  0  0
 44117  1  0  0  0
 45 46  2  0  0  0
 45118  1  0  0  0
 46119  1  0  0  0
 47120  1  0  0  0
 47121  1  0  0  0
 48 56  1  0  0  0
 48 65  1  0  0  0
 48122  1  0  0  0
 49 50  1  0  0  0
 49 53  1  0  0  0
 49 64  1  0  0  0
 49123  1  0  0  0
 50 51  1  0  0  0
 50124  1  0  0  0
 50125  1  0  0  0
 51 52  1  0  0  0
 51126  1  0  0  0
 51127  1  0  0  0
 52128  1  0  0  0
 52129  1  0  0  0
 53 54  1  0  0  0
 54 55  2  0  0  0
 54130  1  0  0  0
 55 57  1  0  0  0
 55131  1  0  0  0
 56 69  2  0  0  0
 57 58  2  0  0  0
 57132  1  0  0  0
 58133  1  0  0  0
 59 60  1  0  0  0
 59 61  1  0  0  0
 59 62  1  0  0  0
 60134  1  0  0  0
 60135  1  0  0  0
 60136  1  0  0  0
 61137  1  0  0  0
 61138  1  0  0  0
 61139  1  0  0  0
 62140  1  0  0  0
 62141  1  0  0  0
 62142  1  0  0  0
 63 65  1  0  0  0
 63143  1  0  0  0
 63144  1  0  0  0
 63145  1  0  0  0
 64146  1  0  0  0
 65147  1  0  0  0
 68 83  1  0  0  0
 71 72  2  0  0  0
 71 74  1  0  0  0
 71148  1  0  0  0
 72 87  1  0  0  0
 72149  1  0  0  0
 73 74  2  0  0  0
 73 87  1  0  0  0
 73150  1  0  0  0
 74 75  1  0  0  0
 75 76  2  0  0  0
 75151  1  0  0  0
 76 86  1  0  0  0
 76152  1  0  0  0
 77153  1  0  0  0
 77154  1  0  0  0
 77155  1  0  0  0
 77 85  1  0  0  0
 78156  1  0  0  0
 78157  1  0  0  0
 78158  1  0  0  0
 78 86  1  0  0  0
 79 86  1  0  0  0
 79159  1  0  0  0
 79160  1  0  0  0
 79161  1  0  0  0
 80 81  1  0  0  0
 80 83  1  0  0  0
 80162  1  0  0  0
 80163  1  0  0  0
 81 86  1  0  0  0
 81164  1  0  0  0
 81165  1  0  0  0
 82 88  1  0  0  0
 82166  1  0  0  0
 82167  1  0  0  0
 82 84  1  0  0  0
 83168  1  0  0  0
 83169  1  0  0  0
 84 85  1  0  0  0
 84170  1  0  0  0
 85 87  1  0  0  0
 85171  1  0  0  0
 88172  1  0  0  0
 88173  1  0  0  0
 88174  1  0  0  0
M  CHG  1  88   1
M  ISO  4   1 100  68 101  83 101  84 100
M  END
> <chiral flag>
0

> <version>
0

> <s_m_source_file>
/data/baiqing/PycharmProjects/Reinvent-master-3.2/result/LINK_invent/BTK/process_docking_weight1_custom_sum_contain_oxygen_bond_distance_aromatic_linkinvent_7_9_3/rearranged_h_0080.sdf

> <i_m_source_file_index>
6

> <r_mmod_Potential_Energy-OPLS-2005>
-277.120391845703

> <r_mmod_Stretch_Energy-OPLS-2005>
36.4138984680176

> <r_mmod_Bend_Energy-OPLS-2005>
107.155944824219

> <r_mmod_Torsional_Energy-OPLS-2005>
218.575820922852

> <r_mmod_Improper_Torsional_Energy-OPLS-2005>
4.63365507125854

> <r_mmod_Van_der_Waal_Energy-OPLS-2005>
131.22834777832

> <r_mmod_Electrostatic_Energy-OPLS-2005>
-345.065551757812

> <r_mmod_Solvation_Energy-OPLS-2005>
-440.753021240234

> <b_mmod_Minimization_Converged-OPLS-2005>
0

> <r_mmod_RMS_Derivative-OPLS-2005>
1.14533448219299

$$$$
8
                    3D
 Structure written by MMmdl.
166174  0  0  1  0            999 V2000
  -30.7900  -14.3577   20.7201 C   0  0  0  0  0  0
  -30.4198  -12.3039   19.3930 C   0  0  0  0  0  0
  -29.4764  -12.5479   18.2012 C   0  0  0  0  0  0
  -28.0088  -12.3847   18.6281 C   0  0  0  0  0  0
  -27.6691  -13.2040   19.8974 C   0  0  2  0  0  0
  -28.7119  -12.9559   21.0091 C   0  0  0  0  0  0
  -25.2604  -13.8146   20.5745 C   0  0  0  0  0  0
  -24.1845  -13.0388   20.9192 C   0  0  0  0  0  0
  -24.6404  -11.6874   20.8745 C   0  0  0  0  0  0
  -23.9061  -10.4269   21.0423 C   0  0  0  0  0  0
  -24.3606   -9.4188   21.9211 C   0  0  0  0  0  0
  -23.6263   -8.2236   22.0783 C   0  0  0  0  0  0
  -22.4255   -8.0273   21.3556 C   0  0  0  0  0  0
  -21.9894   -9.0248   20.4659 C   0  0  0  0  0  0
  -22.7236  -10.2133   20.3064 C   0  0  0  0  0  0
  -21.6864   -6.0685   22.5257 C   0  0  0  0  0  0
  -21.4021   -6.5615   23.8183 C   0  0  0  0  0  0
  -21.3666   -5.6797   24.9169 C   0  0  0  0  0  0
  -21.6043   -4.3052   24.7243 C   0  0  0  0  0  0
  -21.8815   -3.8106   23.4381 C   0  0  0  0  0  0
  -21.9197   -4.6898   22.3414 C   0  0  0  0  0  0
  -22.7875  -13.5179   21.1858 C   0  0  0  0  0  0
  -22.1655   -4.2050   21.0993 F   0  0  0  0  0  0
  -21.5646   -3.4570   25.7787 F   0  0  0  0  0  0
  -30.0575  -13.2421   20.4678 N   0  0  0  0  0  0
  -26.3064  -12.9315   20.3526 N   0  0  0  0  0  0
  -25.9346  -11.6458   20.5816 N   0  0  0  0  0  0
  -22.0556  -12.8124   22.0420 N   0  0  0  0  0  0
  -25.4243  -15.1878   20.4162 N   0  0  0  0  0  0
  -31.8053  -14.6674   20.0874 O   0  0  0  0  0  0
  -21.6643   -6.8847   21.4229 O   0  0  0  0  0  0
  -22.3540  -14.5498   20.6782 O   0  0  0  0  0  0
  -24.6116  -31.8720   23.2101 C   0  0  0  0  0  0
  -25.9027  -32.4839   23.8403 C   0  0  1  0  0  0
  -27.2536  -27.4784   20.0963 C   0  0  0  0  0  0
  -25.5888  -33.8633   24.2347 N   0  0  0  0  0  0
  -23.4025  -30.4882   21.5518 C   0  0  2  0  0  0
  -24.8538  -28.9504   20.1288 C   0  0  0  0  0  0
  -22.7426  -29.4664   22.5039 C   0  0  0  0  0  0
  -18.0270  -28.1389   22.8499 C   0  0  0  0  0  0
  -24.1479  -36.7306   23.2637 C   0  0  0  0  0  0
  -25.9244  -30.8471   21.3604 C   0  0  0  0  0  0
  -26.0059  -29.4764   20.7281 C   0  0  0  0  0  0
  -27.2116  -28.7451   20.7149 C   0  0  0  0  0  0
  -26.0917  -26.9530   19.4993 C   0  0  0  0  0  0
  -24.8878  -27.6845   19.5177 C   0  0  0  0  0  0
  -23.6118  -29.8103   20.1701 C   0  0  0  0  0  0
  -25.4109  -36.3124   24.0335 C   0  0  1  0  0  0
  -20.5868  -28.3668   23.1344 C   0  0  2  0  0  0
  -20.6753  -26.9408   22.5432 C   0  0  0  0  0  0
  -19.5725  -26.6404   21.5224 C   0  0  0  0  0  0
  -18.1912  -26.7936   22.1626 C   0  0  0  0  0  0
  -19.1525  -28.8842   23.2910 C   0  0  0  0  0  0
  -18.9433  -30.1448   23.8917 C   0  0  0  0  0  0
  -17.6441  -30.6589   24.0566 C   0  0  0  0  0  0
  -25.9025  -34.9483   23.5140 C   0  0  0  0  0  0
  -16.5342  -29.9084   23.6341 C   0  0  0  0  0  0
  -16.7255  -28.6508   23.0351 C   0  0  0  0  0  0
  -26.4460  -31.6589   25.0711 C   0  0  0  0  0  0
  -25.3714  -31.3672   26.1448 C   0  0  0  0  0  0
  -27.0252  -30.3030   24.6042 C   0  0  0  0  0  0
  -27.6038  -32.4300   25.7493 C   0  0  0  0  0  0
  -27.5582  -37.1810   24.8471 C   0  0  0  0  0  0
  -21.4157  -29.3025   22.3762 N   0  0  0  0  0  0
  -26.4291  -37.3802   23.9416 N   0  0  0  0  0  0
  -24.6637  -31.0838   22.1004 N   0  0  0  0  0  0
  -23.4204  -28.8244   23.3107 O   0  0  0  0  0  0
  -28.4348  -26.8078   19.9403 O   0  0  0  0  0  0
  -26.5587  -34.8932   22.4703 O   0  0  0  0  0  0
  -23.5302  -32.1446   23.7500 O   0  0  0  0  0  0
  -32.0952  -20.6844   21.5758 C   0  0  0  0  0  0
  -31.7592  -19.6706   20.6484 C   0  0  0  0  0  0
  -31.3163  -21.2809   19.0614 C   0  0  0  0  0  0
  -31.7084  -22.3011   19.9758 C   0  0  0  0  0  0
  -30.8341  -21.5778   17.6560 C   0  0  0  0  0  0
  -30.2062  -25.1657   18.2012 C   0  0  0  0  0  0
  -31.9184  -18.2014   21.0045 C   0  0  0  0  0  0
  -31.7955  -23.7798   19.5954 C   0  0  0  0  0  0
  -30.6805  -17.5719   21.6688 C   0  0  0  0  0  0
  -30.3661  -25.6073   20.7279 C   0  0  0  0  0  0
  -31.0087  -16.2358   22.3719 C   0  0  0  0  0  0
  -28.9494  -26.1253   21.0697 C   0  0  0  0  0  0
  -30.4390  -24.5402   19.5970 C   0  0  1  0  0  0
  -32.0740  -21.9973   21.2454 N   0  0  0  0  0  0
  -31.3393  -19.9674   19.3962 N   0  0  0  0  0  0
  -30.3545  -15.0841   21.7579 N   0  0  0  0  0  0
  -31.4587  -12.4122   19.0780 H   0  0  0  0  0  0
  -30.3284  -11.2787   19.7522 H   0  0  0  0  0  0
  -29.7060  -11.8675   17.3813 H   0  0  0  0  0  0
  -29.6280  -13.5586   17.8168 H   0  0  0  0  0  0
  -27.8288  -11.3265   18.8145 H   0  0  0  0  0  0
  -27.3432  -12.6718   17.8138 H   0  0  0  0  0  0
  -27.7245  -14.2566   19.6242 H   0  0  0  0  0  0
  -28.6770  -11.9223   21.3550 H   0  0  0  0  0  0
  -28.4525  -13.5460   21.8870 H   0  0  0  0  0  0
  -25.2768   -9.5646   22.4768 H   0  0  0  0  0  0
  -23.9959   -7.4622   22.7507 H   0  0  0  0  0  0
  -21.0838   -8.8793   19.8944 H   0  0  0  0  0  0
  -22.3729  -10.9680   19.6161 H   0  0  0  0  0  0
  -21.2026   -7.6126   23.9653 H   0  0  0  0  0  0
  -21.1489   -6.0553   25.9067 H   0  0  0  0  0  0
  -22.0587   -2.7541   23.2940 H   0  0  0  0  0  0
  -22.4210  -11.9754   22.4717 H   0  0  0  0  0  0
  -21.1177  -13.1116   22.2679 H   0  0  0  0  0  0
  -24.6502  -15.8328   20.5334 H   0  0  0  0  0  0
  -26.2789  -15.6470   20.1239 H   0  0  0  0  0  0
  -26.7113  -32.5570   23.1187 H   0  0  0  0  0  0
  -25.0029  -33.9795   25.0497 H   0  0  0  0  0  0
  -22.6904  -31.3025   21.4082 H   0  0  0  0  0  0
  -23.3733  -35.9636   23.3300 H   0  0  0  0  0  0
  -24.3588  -36.8910   22.2051 H   0  0  0  0  0  0
  -23.7212  -37.6506   23.6640 H   0  0  0  0  0  0
  -26.0203  -31.6031   20.5805 H   0  0  0  0  0  0
  -26.8193  -30.9182   21.9671 H   0  0  0  0  0  0
  -28.1142  -29.1629   21.1377 H   0  0  0  0  0  0
  -26.1310  -25.9933   19.0033 H   0  0  0  0  0  0
  -24.0065  -27.2793   19.0388 H   0  0  0  0  0  0
  -23.7137  -30.5780   19.4012 H   0  0  0  0  0  0
  -22.7414  -29.2172   19.8825 H   0  0  0  0  0  0
  -25.1285  -36.1987   25.0817 H   0  0  0  0  0  0
  -20.9935  -28.3197   24.1469 H   0  0  0  0  0  0
  -20.5675  -26.2264   23.3610 H   0  0  0  0  0  0
  -21.6616  -26.7462   22.1214 H   0  0  0  0  0  0
  -19.6877  -25.6322   21.1212 H   0  0  0  0  0  0
  -19.6644  -27.3252   20.6784 H   0  0  0  0  0  0
  -17.4190  -26.6710   21.4015 H   0  0  0  0  0  0
  -18.0285  -26.0081   22.9014 H   0  0  0  0  0  0
  -19.7894  -30.7273   24.2299 H   0  0  0  0  0  0
  -17.4970  -31.6258   24.5166 H   0  0  0  0  0  0
  -15.5328  -30.2972   23.7645 H   0  0  0  0  0  0
  -15.8669  -28.0822   22.7061 H   0  0  0  0  0  0
  -24.5937  -30.6968   25.7781 H   0  0  0  0  0  0
  -24.8839  -32.2788   26.4891 H   0  0  0  0  0  0
  -25.8076  -30.8861   27.0203 H   0  0  0  0  0  0
  -26.2759  -29.6855   24.1056 H   0  0  0  0  0  0
  -27.3970  -29.7235   25.4499 H   0  0  0  0  0  0
  -27.8633  -30.4375   23.9199 H   0  0  0  0  0  0
  -27.2662  -33.3601   26.2090 H   0  0  0  0  0  0
  -28.3837  -32.6845   25.0301 H   0  0  0  0  0  0
  -28.0686  -31.8377   26.5383 H   0  0  0  0  0  0
  -28.2610  -38.0106   24.7544 H   0  0  0  0  0  0
  -28.1068  -36.2634   24.6267 H   0  0  0  0  0  0
  -27.2307  -37.1455   25.8877 H   0  0  0  0  0  0
  -20.9357  -29.8712   21.6929 H   0  0  0  0  0  0
  -26.0172  -38.2874   24.1405 H   0  0  0  0  0  0
  -32.4158  -20.4340   22.5781 H   0  0  0  0  0  0
  -29.8382  -22.0193   17.6986 H   0  0  0  0  0  0
  -30.7766  -20.6651   17.0585 H   0  0  0  0  0  0
  -31.5028  -22.2635   17.1393 H   0  0  0  0  0  0
  -30.8780  -26.0104   18.0257 H   0  0  0  0  0  0
  -29.1854  -25.5152   18.0642 H   0  0  0  0  0  0
  -30.3798  -24.4423   17.4048 H   0  0  0  0  0  0
  -32.7760  -18.1304   21.6730 H   0  0  0  0  0  0
  -32.1867  -17.6306   20.1141 H   0  0  0  0  0  0
  -32.2757  -23.8416   18.6175 H   0  0  0  0  0  0
  -32.5140  -24.2701   20.2565 H   0  0  0  0  0  0
  -29.8673  -17.4633   20.9490 H   0  0  0  0  0  0
  -30.3150  -18.2651   22.4280 H   0  0  0  0  0  0
  -30.7906  -25.1862   21.6399 H   0  0  0  0  0  0
  -31.0078  -26.4542   20.4757 H   0  0  0  0  0  0
  -30.6631  -16.2831   23.4058 H   0  0  0  0  0  0
  -32.0829  -16.0676   22.4485 H   0  0  0  0  0  0
  -28.9966  -26.7965   21.9293 H   0  0  0  0  0  0
  -28.2880  -25.3000   21.3358 H   0  0  0  0  0  0
  -29.6438  -23.8112   19.7728 H   0  0  0  0  0  0
  -29.5242  -14.7393   22.2157 H   0  0  0  0  0  0
  1 25  1  0  0  0
  1 30  2  0  0  0
  1 86  1  0  0  0
  2  3  1  0  0  0
  2 25  1  0  0  0
  2 87  1  0  0  0
  2 88  1  0  0  0
  3  4  1  0  0  0
  3 89  1  0  0  0
  3 90  1  0  0  0
  4  5  1  0  0  0
  4 91  1  0  0  0
  4 92  1  0  0  0
  5  6  1  0  0  0
  5 26  1  0  0  0
  5 93  1  0  0  0
  6 25  1  0  0  0
  6 94  1  0  0  0
  6 95  1  0  0  0
  7  8  2  0  0  0
  7 26  1  0  0  0
  7 29  1  0  0  0
  8  9  1  0  0  0
  8 22  1  0  0  0
  9 10  1  0  0  0
  9 27  2  0  0  0
 10 11  2  0  0  0
 10 15  1  0  0  0
 11 12  1  0  0  0
 11 96  1  0  0  0
 12 13  2  0  0  0
 12 97  1  0  0  0
 13 14  1  0  0  0
 13 31  1  0  0  0
 14 15  2  0  0  0
 14 98  1  0  0  0
 15 99  1  0  0  0
 16 17  2  0  0  0
 16 21  1  0  0  0
 16 31  1  0  0  0
 17 18  1  0  0  0
 17100  1  0  0  0
 18 19  2  0  0  0
 18101  1  0  0  0
 19 20  1  0  0  0
 19 24  1  0  0  0
 20 21  2  0  0  0
 20102  1  0  0  0
 21 23  1  0  0  0
 22 28  1  0  0  0
 22 32  2  0  0  0
 26 27  1  0  0  0
 28103  1  0  0  0
 28104  1  0  0  0
 29105  1  0  0  0
 29106  1  0  0  0
 33 34  1  0  0  0
 33 66  1  0  0  0
 33 70  2  0  0  0
 34 36  1  0  0  0
 34 59  1  0  0  0
 34107  1  0  0  0
 35 44  2  0  0  0
 35 45  1  0  0  0
 35 68  1  0  0  0
 36 56  1  0  0  0
 36108  1  0  0  0
 37 39  1  0  0  0
 37 47  1  0  0  0
 37 66  1  0  0  0
 37109  1  0  0  0
 38 43  2  0  0  0
 38 46  1  0  0  0
 38 47  1  0  0  0
 39 64  1  0  0  0
 39 67  2  0  0  0
 40 52  1  0  0  0
 40 53  2  0  0  0
 40 58  1  0  0  0
 41110  1  0  0  0
 41111  1  0  0  0
 41112  1  0  0  0
 41 48  1  0  0  0
 42 43  1  0  0  0
 42 66  1  0  0  0
 42113  1  0  0  0
 42114  1  0  0  0
 43 44  1  0  0  0
 44115  1  0  0  0
 45 46  2  0  0  0
 45116  1  0  0  0
 46117  1  0  0  0
 47118  1  0  0  0
 47119  1  0  0  0
 48 56  1  0  0  0
 48 65  1  0  0  0
 48120  1  0  0  0
 49 50  1  0  0  0
 49 53  1  0  0  0
 49 64  1  0  0  0
 49121  1  0  0  0
 50 51  1  0  0  0
 50122  1  0  0  0
 50123  1  0  0  0
 51 52  1  0  0  0
 51124  1  0  0  0
 51125  1  0  0  0
 52126  1  0  0  0
 52127  1  0  0  0
 53 54  1  0  0  0
 54 55  2  0  0  0
 54128  1  0  0  0
 55 57  1  0  0  0
 55129  1  0  0  0
 56 69  2  0  0  0
 57 58  2  0  0  0
 57130  1  0  0  0
 58131  1  0  0  0
 59 60  1  0  0  0
 59 61  1  0  0  0
 59 62  1  0  0  0
 60132  1  0  0  0
 60133  1  0  0  0
 60134  1  0  0  0
 61135  1  0  0  0
 61136  1  0  0  0
 61137  1  0  0  0
 62138  1  0  0  0
 62139  1  0  0  0
 62140  1  0  0  0
 63 65  1  0  0  0
 63141  1  0  0  0
 63142  1  0  0  0
 63143  1  0  0  0
 64144  1  0  0  0
 65145  1  0  0  0
 68 82  1  0  0  0
 71 72  2  0  0  0
 71 84  1  0  0  0
 71146  1  0  0  0
 72 77  1  0  0  0
 72 85  1  0  0  0
 73 74  1  0  0  0
 73 75  1  0  0  0
 73 85  2  0  0  0
 74 78  1  0  0  0
 74 84  2  0  0  0
 75147  1  0  0  0
 75148  1  0  0  0
 75149  1  0  0  0
 76150  1  0  0  0
 76151  1  0  0  0
 76152  1  0  0  0
 76 83  1  0  0  0
 77 79  1  0  0  0
 77153  1  0  0  0
 77154  1  0  0  0
 78 83  1  0  0  0
 78155  1  0  0  0
 78156  1  0  0  0
 79 81  1  0  0  0
 79157  1  0  0  0
 79158  1  0  0  0
 80 82  1  0  0  0
 80 83  1  0  0  0
 80159  1  0  0  0
 80160  1  0  0  0
 81 86  1  0  0  0
 81161  1  0  0  0
 81162  1  0  0  0
 82163  1  0  0  0
 82164  1  0  0  0
 83165  1  0  0  0
 86166  1  0  0  0
M  ISO  4   1 100  68 101  82 101  86 100
M  END
> <chiral flag>
0

> <version>
0

> <s_m_source_file>
/data/baiqing/PycharmProjects/Reinvent-master-3.2/result/LINK_invent/BTK/process_docking_weight1_custom_sum_contain_oxygen_bond_distance_aromatic_linkinvent_7_9_3/rearranged_h_0080.sdf

> <i_m_source_file_index>
7

> <r_mmod_Potential_Energy-OPLS-2005>
-10.1789083480835

> <r_mmod_Stretch_Energy-OPLS-2005>
35.678050994873

> <r_mmod_Bend_Energy-OPLS-2005>
95.6497955322266

> <r_mmod_Torsional_Energy-OPLS-2005>
234.763900756836

> <r_mmod_Improper_Torsional_Energy-OPLS-2005>
2.46223258972168

> <r_mmod_Van_der_Waal_Energy-OPLS-2005>
155.656143188477

> <r_mmod_Electrostatic_Energy-OPLS-2005>
-323.411437988281

> <r_mmod_Solvation_Energy-OPLS-2005>
-218.677124023438

> <b_mmod_Minimization_Converged-OPLS-2005>
0

> <r_mmod_RMS_Derivative-OPLS-2005>
4.00859594345093

$$$$
9
                    3D
 Structure written by MMmdl.
170178  0  0  1  0            999 V2000
  -30.6533  -14.7180   20.1531 C   0  0  0  0  0  0
  -30.3597  -12.3750   19.4458 C   0  0  0  0  0  0
  -29.4692  -12.4040   18.1994 C   0  0  0  0  0  0
  -27.9684  -12.3902   18.5849 C   0  0  0  0  0  0
  -27.6023  -13.2268   19.8557 C   0  0  2  0  0  0
  -28.6934  -13.2428   20.9410 C   0  0  0  0  0  0
  -25.2164  -13.7900   20.5866 C   0  0  0  0  0  0
  -24.1546  -13.0198   20.9226 C   0  0  0  0  0  0
  -24.6267  -11.6709   20.8847 C   0  0  0  0  0  0
  -23.8997  -10.4138   21.0394 C   0  0  0  0  0  0
  -24.3587   -9.4073   21.9169 C   0  0  0  0  0  0
  -23.6251   -8.2158   22.0764 C   0  0  0  0  0  0
  -22.4219   -8.0204   21.3548 C   0  0  0  0  0  0
  -21.9881   -9.0157   20.4629 C   0  0  0  0  0  0
  -22.7194  -10.2010   20.3003 C   0  0  0  0  0  0
  -21.6808   -6.0713   22.5287 C   0  0  0  0  0  0
  -21.3984   -6.5647   23.8187 C   0  0  0  0  0  0
  -21.3629   -5.6776   24.9158 C   0  0  0  0  0  0
  -21.6018   -4.3046   24.7204 C   0  0  0  0  0  0
  -21.8843   -3.8142   23.4353 C   0  0  0  0  0  0
  -21.9195   -4.6971   22.3398 C   0  0  0  0  0  0
  -22.7552  -13.4991   21.1819 C   0  0  0  0  0  0
  -22.1699   -4.2170   21.0980 F   0  0  0  0  0  0
  -21.5592   -3.4545   25.7734 F   0  0  0  0  0  0
  -29.9517  -13.5365   20.2420 N   0  0  0  0  0  0
  -26.2756  -12.9246   20.3582 N   0  0  0  0  0  0
  -25.9244  -11.6387   20.6059 N   0  0  0  0  0  0
  -22.0268  -12.7982   22.0381 N   0  0  0  0  0  0
  -25.3282  -15.1627   20.4457 N   0  0  0  0  0  0
  -31.8270  -14.6799   20.5115 O   0  0  0  0  0  0
  -21.6556   -6.8848   21.4234 O   0  0  0  0  0  0
  -22.3277  -14.5356   20.6680 O   0  0  0  0  0  0
  -24.6284  -31.8573   23.1987 C   0  0  0  0  0  0
  -25.9138  -32.4737   23.8331 C   0  0  1  0  0  0
  -27.2374  -27.3076   20.0999 C   0  0  0  0  0  0
  -25.5928  -33.8540   24.2212 N   0  0  0  0  0  0
  -23.4236  -30.4781   21.5428 C   0  0  2  0  0  0
  -24.8784  -28.9425   20.1073 C   0  0  0  0  0  0
  -22.7480  -29.4606   22.4929 C   0  0  0  0  0  0
  -18.0259  -28.1486   22.8451 C   0  0  0  0  0  0
  -24.1517  -36.7249   23.2642 C   0  0  0  0  0  0
  -25.9716  -30.7847   21.3791 C   0  0  0  0  0  0
  -26.0503  -29.4180   20.7065 C   0  0  0  0  0  0
  -27.2344  -28.6145   20.6894 C   0  0  0  0  0  0
  -26.0321  -26.8982   19.4744 C   0  0  0  0  0  0
  -24.8707  -27.6872   19.4857 C   0  0  0  0  0  0
  -23.6420  -29.8128   20.1607 C   0  0  0  0  0  0
  -25.4142  -36.3009   24.0301 C   0  0  1  0  0  0
  -20.5847  -28.3745   23.1290 C   0  0  2  0  0  0
  -20.6796  -26.9489   22.5396 C   0  0  0  0  0  0
  -19.5787  -26.6512   21.5183 C   0  0  0  0  0  0
  -18.1935  -26.8027   22.1552 C   0  0  0  0  0  0
  -19.1520  -28.8924   23.2858 C   0  0  0  0  0  0
  -18.9457  -30.1517   23.8896 C   0  0  0  0  0  0
  -17.6462  -30.6640   24.0632 C   0  0  0  0  0  0
  -25.9092  -34.9409   23.5034 C   0  0  0  0  0  0
  -16.5329  -29.9164   23.6412 C   0  0  0  0  0  0
  -16.7251  -28.6622   23.0318 C   0  0  0  0  0  0
  -26.4539  -31.6578   25.0710 C   0  0  0  0  0  0
  -25.3735  -31.3745   26.1391 C   0  0  0  0  0  0
  -27.0418  -30.2972   24.6258 C   0  0  0  0  0  0
  -27.6073  -32.4336   25.7490 C   0  0  0  0  0  0
  -27.5557  -37.1762   24.8442 C   0  0  0  0  0  0
  -21.4172  -29.3053   22.3671 N   0  0  0  0  0  0
  -26.4281  -37.3705   23.9387 N   0  0  0  0  0  0
  -24.6911  -31.0552   22.0953 N   0  0  0  0  0  0
  -23.4198  -28.8112   23.3003 O   0  0  0  0  0  0
  -28.3448  -26.4349   20.1494 O   0  0  0  0  0  0
  -26.5652  -34.8875   22.4602 O   0  0  0  0  0  0
  -23.5436  -32.1386   23.7292 O   0  0  0  0  0  0
  -27.1589  -19.8845   19.4017 C   0  0  0  0  0  0
  -28.5309  -19.6740   19.6531 C   0  0  0  0  0  0
  -26.2551  -18.8532   19.5920 C   0  0  0  0  0  0
  -28.8854  -18.2705   19.9450 C   0  0  0  0  0  0
  -24.8461  -19.0443   19.1176 C   0  0  0  0  0  0
  -31.4574  -18.3649   19.6676 C   0  0  0  0  0  0
  -29.8039  -23.8832   21.5603 C   0  0  0  0  0  0
  -31.5659  -15.9768   18.2121 C   0  0  0  0  0  0
  -29.2071  -15.9254   18.1022 C   0  0  0  0  0  0
  -29.3711  -21.0034   19.5933 C   0  0  0  0  0  0
  -28.5413  -22.3671   19.8803 C   0  0  0  0  0  0
  -28.0962  -24.9877   19.9103 C   0  0  0  0  0  0
  -30.2492  -17.4578   19.9723 C   0  0  2  0  0  0
  -29.1686  -23.8205   20.1498 C   0  0  1  0  0  0
  -30.3327  -16.0082   19.1885 C   0  0  0  0  0  0
  -26.6104  -17.6752   20.1270 N   0  0  0  0  0  0
  -27.9004  -17.4065   20.3057 N   0  0  0  0  0  0
  -31.4203  -12.3882   19.1949 H   0  0  0  0  0  0
  -30.1860  -11.4456   19.9935 H   0  0  0  0  0  0
  -29.6848  -11.5391   17.5708 H   0  0  0  0  0  0
  -29.7286  -13.2656   17.5866 H   0  0  0  0  0  0
  -27.6601  -11.3533   18.7132 H   0  0  0  0  0  0
  -27.3778  -12.7484   17.7384 H   0  0  0  0  0  0
  -27.5120  -14.2488   19.5537 H   0  0  0  0  0  0
  -28.7353  -12.2821   21.4604 H   0  0  0  0  0  0
  -28.4861  -13.9918   21.7067 H   0  0  0  0  0  0
  -25.2766   -9.5561   22.4690 H   0  0  0  0  0  0
  -23.9973   -7.4530   22.7492 H   0  0  0  0  0  0
  -21.0839   -8.8634   19.8924 H   0  0  0  0  0  0
  -22.3675  -10.9537   19.6081 H   0  0  0  0  0  0
  -21.1974   -7.6155   23.9698 H   0  0  0  0  0  0
  -21.1404   -6.0522   25.9041 H   0  0  0  0  0  0
  -22.0665   -2.7645   23.2805 H   0  0  0  0  0  0
  -22.4092  -11.9670   22.4666 H   0  0  0  0  0  0
  -21.0866  -13.0848   22.2670 H   0  0  0  0  0  0
  -24.5231  -15.7520   20.6268 H   0  0  0  0  0  0
  -26.1652  -15.7174   20.2929 H   0  0  0  0  0  0
  -26.7176  -32.5427   23.1069 H   0  0  0  0  0  0
  -25.0079  -33.9725   25.0342 H   0  0  0  0  0  0
  -22.7191  -31.2982   21.3956 H   0  0  0  0  0  0
  -23.3759  -35.9585   23.3295 H   0  0  0  0  0  0
  -24.3568  -36.8904   22.2036 H   0  0  0  0  0  0
  -23.7309  -37.6453   23.6736 H   0  0  0  0  0  0
  -26.1206  -31.5657   20.6306 H   0  0  0  0  0  0
  -26.8425  -30.8175   22.0215 H   0  0  0  0  0  0
  -28.1401  -28.9725   21.1586 H   0  0  0  0  0  0
  -25.9499  -25.9452   18.9762 H   0  0  0  0  0  0
  -23.9669  -27.3157   19.0215 H   0  0  0  0  0  0
  -23.7456  -30.5902   19.4041 H   0  0  0  0  0  0
  -22.7690  -29.2334   19.8577 H   0  0  0  0  0  0
  -25.1327  -36.1821   25.0782 H   0  0  0  0  0  0
  -20.9922  -28.3322   24.1411 H   0  0  0  0  0  0
  -20.5765  -26.2282   23.3516 H   0  0  0  0  0  0
  -21.6661  -26.7584   22.1120 H   0  0  0  0  0  0
  -19.7009  -25.6454   21.1177 H   0  0  0  0  0  0
  -19.6788  -27.3385   20.6750 H   0  0  0  0  0  0
  -17.4203  -26.6701   21.3957 H   0  0  0  0  0  0
  -18.0405  -26.0200   22.8977 H   0  0  0  0  0  0
  -19.7959  -30.7310   24.2239 H   0  0  0  0  0  0
  -17.5061  -31.6315   24.5280 H   0  0  0  0  0  0
  -15.5336  -30.3047   23.7869 H   0  0  0  0  0  0
  -15.8635  -28.0990   22.6944 H   0  0  0  0  0  0
  -24.5895  -30.7135   25.7678 H   0  0  0  0  0  0
  -24.8967  -32.2921   26.4838 H   0  0  0  0  0  0
  -25.7997  -30.8869   27.0155 H   0  0  0  0  0  0
  -26.3045  -29.6648   24.1281 H   0  0  0  0  0  0
  -27.4046  -29.7314   25.4863 H   0  0  0  0  0  0
  -27.8946  -30.4195   23.9564 H   0  0  0  0  0  0
  -27.2687  -33.3649   26.2042 H   0  0  0  0  0  0
  -28.3915  -32.6847   25.0339 H   0  0  0  0  0  0
  -28.0714  -31.8461   26.5428 H   0  0  0  0  0  0
  -28.2531  -38.0097   24.7473 H   0  0  0  0  0  0
  -28.1096  -36.2600   24.6306 H   0  0  0  0  0  0
  -27.2244  -37.1418   25.8836 H   0  0  0  0  0  0
  -20.9411  -29.8630   21.6711 H   0  0  0  0  0  0
  -26.0138  -38.2751   24.1426 H   0  0  0  0  0  0
  -26.7419  -20.8035   19.0294 H   0  0  0  0  0  0
  -24.2516  -19.5026   19.9072 H   0  0  0  0  0  0
  -24.4301  -18.0929   18.7981 H   0  0  0  0  0  0
  -24.8561  -19.7052   18.2508 H   0  0  0  0  0  0
  -32.4141  -17.8626   19.8349 H   0  0  0  0  0  0
  -31.4542  -19.2354   20.3115 H   0  0  0  0  0  0
  -31.4319  -18.7251   18.6413 H   0  0  0  0  0  0
  -30.7395  -23.3283   21.5939 H   0  0  0  0  0  0
  -29.1641  -23.4652   22.3359 H   0  0  0  0  0  0
  -30.0361  -24.9069   21.8581 H   0  0  0  0  0  0
  -31.6981  -14.9943   17.7592 H   0  0  0  0  0  0
  -32.5119  -16.1641   18.7125 H   0  0  0  0  0  0
  -31.4939  -16.6721   17.3745 H   0  0  0  0  0  0
  -28.9925  -16.9324   17.7362 H   0  0  0  0  0  0
  -28.2376  -15.6042   18.4251 H   0  0  0  0  0  0
  -29.4656  -15.3460   17.2112 H   0  0  0  0  0  0
  -29.8598  -21.0488   18.6187 H   0  0  0  0  0  0
  -30.1402  -20.9094   20.3456 H   0  0  0  0  0  0
  -27.9375  -22.1389   20.7631 H   0  0  0  0  0  0
  -27.8119  -22.5267   19.0814 H   0  0  0  0  0  0
  -27.1926  -24.7037   20.4576 H   0  0  0  0  0  0
  -27.8499  -24.9065   18.8510 H   0  0  0  0  0  0
  -30.3497  -17.2119   21.0289 H   0  0  0  0  0  0
  -29.9640  -23.9896   19.4232 H   0  0  0  0  0  0
  1 25  1  0  0  0
  1 30  2  0  0  0
  1 85  1  0  0  0
  2  3  1  0  0  0
  2 25  1  0  0  0
  2 88  1  0  0  0
  2 89  1  0  0  0
  3  4  1  0  0  0
  3 90  1  0  0  0
  3 91  1  0  0  0
  4  5  1  0  0  0
  4 92  1  0  0  0
  4 93  1  0  0  0
  5  6  1  0  0  0
  5 26  1  0  0  0
  5 94  1  0  0  0
  6 25  1  0  0  0
  6 95  1  0  0  0
  6 96  1  0  0  0
  7  8  2  0  0  0
  7 26  1  0  0  0
  7 29  1  0  0  0
  8  9  1  0  0  0
  8 22  1  0  0  0
  9 10  1  0  0  0
  9 27  2  0  0  0
 10 11  2  0  0  0
 10 15  1  0  0  0
 11 12  1  0  0  0
 11 97  1  0  0  0
 12 13  2  0  0  0
 12 98  1  0  0  0
 13 14  1  0  0  0
 13 31  1  0  0  0
 14 15  2  0  0  0
 14 99  1  0  0  0
 15100  1  0  0  0
 16 17  2  0  0  0
 16 21  1  0  0  0
 16 31  1  0  0  0
 17 18  1  0  0  0
 17101  1  0  0  0
 18 19  2  0  0  0
 18102  1  0  0  0
 19 20  1  0  0  0
 19 24  1  0  0  0
 20 21  2  0  0  0
 20103  1  0  0  0
 21 23  1  0  0  0
 22 28  1  0  0  0
 22 32  2  0  0  0
 26 27  1  0  0  0
 28104  1  0  0  0
 28105  1  0  0  0
 29106  1  0  0  0
 29107  1  0  0  0
 33 34  1  0  0  0
 33 66  1  0  0  0
 33 70  2  0  0  0
 34 36  1  0  0  0
 34 59  1  0  0  0
 34108  1  0  0  0
 35 44  2  0  0  0
 35 45  1  0  0  0
 35 68  1  0  0  0
 36 56  1  0  0  0
 36109  1  0  0  0
 37 39  1  0  0  0
 37 47  1  0  0  0
 37 66  1  0  0  0
 37110  1  0  0  0
 38 43  2  0  0  0
 38 46  1  0  0  0
 38 47  1  0  0  0
 39 64  1  0  0  0
 39 67  2  0  0  0
 40 52  1  0  0  0
 40 53  2  0  0  0
 40 58  1  0  0  0
 41111  1  0  0  0
 41112  1  0  0  0
 41113  1  0  0  0
 41 48  1  0  0  0
 42 43  1  0  0  0
 42 66  1  0  0  0
 42114  1  0  0  0
 42115  1  0  0  0
 43 44  1  0  0  0
 44116  1  0  0  0
 45 46  2  0  0  0
 45117  1  0  0  0
 46118  1  0  0  0
 47119  1  0  0  0
 47120  1  0  0  0
 48 56  1  0  0  0
 48 65  1  0  0  0
 48121  1  0  0  0
 49 50  1  0  0  0
 49 53  1  0  0  0
 49 64  1  0  0  0
 49122  1  0  0  0
 50 51  1  0  0  0
 50123  1  0  0  0
 50124  1  0  0  0
 51 52  1  0  0  0
 51125  1  0  0  0
 51126  1  0  0  0
 52127  1  0  0  0
 52128  1  0  0  0
 53 54  1  0  0  0
 54 55  2  0  0  0
 54129  1  0  0  0
 55 57  1  0  0  0
 55130  1  0  0  0
 56 69  2  0  0  0
 57 58  2  0  0  0
 57131  1  0  0  0
 58132  1  0  0  0
 59 60  1  0  0  0
 59 61  1  0  0  0
 59 62  1  0  0  0
 60133  1  0  0  0
 60134  1  0  0  0
 60135  1  0  0  0
 61136  1  0  0  0
 61137  1  0  0  0
 61138  1  0  0  0
 62139  1  0  0  0
 62140  1  0  0  0
 62141  1  0  0  0
 63 65  1  0  0  0
 63142  1  0  0  0
 63143  1  0  0  0
 63144  1  0  0  0
 64145  1  0  0  0
 65146  1  0  0  0
 68 82  1  0  0  0
 71 72  2  0  0  0
 71 73  1  0  0  0
 71147  1  0  0  0
 72 74  1  0  0  0
 72 80  1  0  0  0
 73 75  1  0  0  0
 73 86  2  0  0  0
 74 83  1  0  0  0
 74 87  2  0  0  0
 75148  1  0  0  0
 75149  1  0  0  0
 75150  1  0  0  0
 76151  1  0  0  0
 76152  1  0  0  0
 76153  1  0  0  0
 76 83  1  0  0  0
 77154  1  0  0  0
 77155  1  0  0  0
 77156  1  0  0  0
 77 84  1  0  0  0
 78157  1  0  0  0
 78158  1  0  0  0
 78159  1  0  0  0
 78 85  1  0  0  0
 79 85  1  0  0  0
 79160  1  0  0  0
 79161  1  0  0  0
 79162  1  0  0  0
 80 81  1  0  0  0
 80163  1  0  0  0
 80164  1  0  0  0
 81 84  1  0  0  0
 81165  1  0  0  0
 81166  1  0  0  0
 82 84  1  0  0  0
 82167  1  0  0  0
 82168  1  0  0  0
 83 85  1  0  0  0
 83169  1  0  0  0
 84170  1  0  0  0
 86 87  1  0  0  0
M  ISO  4   1 100  68 101  82 101  85 100
M  END
> <chiral flag>
0

> <version>
0

> <s_m_source_file>
/data/baiqing/PycharmProjects/Reinvent-master-3.2/result/LINK_invent/BTK/process_docking_weight1_custom_sum_contain_oxygen_bond_distance_aromatic_linkinvent_7_9_3/rearranged_h_0080.sdf

> <i_m_source_file_index>
8

> <r_mmod_Potential_Energy-OPLS-2005>
516.569885253906

> <r_mmod_Stretch_Energy-OPLS-2005>
139.280792236328

> <r_mmod_Bend_Energy-OPLS-2005>
268.677307128906

> <r_mmod_Torsional_Energy-OPLS-2005>
284.601684570312

> <r_mmod_Improper_Torsional_Energy-OPLS-2005>
14.3859348297119

> <r_mmod_Van_der_Waal_Energy-OPLS-2005>
201.15544128418

> <r_mmod_Electrostatic_Energy-OPLS-2005>
-334.232543945312

> <r_mmod_Solvation_Energy-OPLS-2005>
-179.232238769531

> <b_mmod_Minimization_Converged-OPLS-2005>
0

> <r_mmod_RMS_Derivative-OPLS-2005>
11.2153196334839

$$$$
10
                    3D
 Structure written by MMmdl.
159167  0  0  1  0            999 V2000
  -30.6320  -14.5643   20.4992 C   0  0  0  0  0  0
  -30.4356  -12.3438   19.4266 C   0  0  0  0  0  0
  -29.4988  -12.4952   18.2077 C   0  0  0  0  0  0
  -28.0193  -12.3490   18.6228 C   0  0  0  0  0  0
  -27.6559  -13.2035   19.8649 C   0  0  2  0  0  0
  -28.7044  -13.0162   20.9848 C   0  0  0  0  0  0
  -25.2574  -13.8138   20.5685 C   0  0  0  0  0  0
  -24.1829  -13.0418   20.9182 C   0  0  0  0  0  0
  -24.6382  -11.6886   20.8731 C   0  0  0  0  0  0
  -23.9047  -10.4277   21.0406 C   0  0  0  0  0  0
  -24.3602   -9.4210   21.9195 C   0  0  0  0  0  0
  -23.6285   -8.2234   22.0767 C   0  0  0  0  0  0
  -22.4271   -8.0266   21.3542 C   0  0  0  0  0  0
  -21.9897   -9.0241   20.4655 C   0  0  0  0  0  0
  -22.7210  -10.2126   20.3065 C   0  0  0  0  0  0
  -21.6843   -6.0723   22.5279 C   0  0  0  0  0  0
  -21.4010   -6.5638   23.8208 C   0  0  0  0  0  0
  -21.3659   -5.6795   24.9177 C   0  0  0  0  0  0
  -21.6035   -4.3056   24.7237 C   0  0  0  0  0  0
  -21.8817   -3.8141   23.4360 C   0  0  0  0  0  0
  -21.9194   -4.6952   22.3408 C   0  0  0  0  0  0
  -22.7858  -13.5224   21.1859 C   0  0  0  0  0  0
  -22.1657   -4.2141   21.0986 F   0  0  0  0  0  0
  -21.5638   -3.4541   25.7751 F   0  0  0  0  0  0
  -30.0223  -13.3470   20.4191 N   0  0  0  0  0  0
  -26.2999  -12.9298   20.3336 N   0  0  0  0  0  0
  -25.9311  -11.6464   20.5765 N   0  0  0  0  0  0
  -22.0495  -12.8215   22.0407 N   0  0  0  0  0  0
  -25.4271  -15.1863   20.4097 N   0  0  0  0  0  0
  -31.7997  -14.7513   20.1506 O   0  0  0  0  0  0
  -21.6626   -6.8863   21.4241 O   0  0  0  0  0  0
  -22.3541  -14.5530   20.6700 O   0  0  0  0  0  0
  -24.6186  -31.8635   23.2041 C   0  0  0  0  0  0
  -25.9044  -32.4799   23.8369 C   0  0  1  0  0  0
  -27.2357  -27.3770   20.1129 C   0  0  0  0  0  0
  -25.5864  -33.8600   24.2290 N   0  0  0  0  0  0
  -23.4112  -30.4829   21.5475 C   0  0  2  0  0  0
  -24.8605  -28.9374   20.1168 C   0  0  0  0  0  0
  -22.7452  -29.4628   22.4988 C   0  0  0  0  0  0
  -18.0284  -28.1369   22.8493 C   0  0  0  0  0  0
  -24.1475  -36.7317   23.2644 C   0  0  0  0  0  0
  -25.9455  -30.8108   21.3656 C   0  0  0  0  0  0
  -26.0244  -29.4404   20.7124 C   0  0  0  0  0  0
  -27.2195  -28.6708   20.7002 C   0  0  0  0  0  0
  -26.0518  -26.8975   19.5153 C   0  0  0  0  0  0
  -24.8702  -27.6659   19.5154 C   0  0  0  0  0  0
  -23.6220  -29.8094   20.1648 C   0  0  0  0  0  0
  -25.4098  -36.3106   24.0333 C   0  0  1  0  0  0
  -20.5881  -28.3670   23.1309 C   0  0  2  0  0  0
  -20.6791  -26.9401   22.5428 C   0  0  0  0  0  0
  -19.5761  -26.6377   21.5225 C   0  0  0  0  0  0
  -18.1920  -26.7919   22.1615 C   0  0  0  0  0  0
  -19.1539  -28.8835   23.2887 C   0  0  0  0  0  0
  -18.9468  -30.1440   23.8907 C   0  0  0  0  0  0
  -17.6469  -30.6587   24.0556 C   0  0  0  0  0  0
  -25.9036  -34.9464   23.5122 C   0  0  0  0  0  0
  -16.5355  -29.9086   23.6325 C   0  0  0  0  0  0
  -16.7278  -28.6490   23.0367 C   0  0  0  0  0  0
  -26.4445  -31.6611   25.0730 C   0  0  0  0  0  0
  -25.3702  -31.3704   26.1482 C   0  0  0  0  0  0
  -27.0289  -30.3051   24.6129 C   0  0  0  0  0  0
  -27.5997  -32.4356   25.7495 C   0  0  0  0  0  0
  -27.5588  -37.1799   24.8457 C   0  0  0  0  0  0
  -21.4178  -29.3020   22.3720 N   0  0  0  0  0  0
  -26.4290  -37.3794   23.9419 N   0  0  0  0  0  0
  -24.6760  -31.0685   22.0962 N   0  0  0  0  0  0
  -23.4206  -28.8191   23.3062 O   0  0  0  0  0  0
  -28.3815  -26.5928   20.0892 O   0  0  0  0  0  0
  -26.5641  -34.8907   22.4700 O   0  0  0  0  0  0
  -23.5360  -32.1425   23.7395 O   0  0  0  0  0  0
  -27.6822  -19.5896   19.3700 C   0  0  0  0  0  0
  -29.0153  -19.2714   19.7465 C   0  0  0  0  0  0
  -27.5070  -20.9099   19.6777 C   0  0  0  0  0  0
  -26.2660  -21.7316   19.5597 C   0  0  0  0  0  0
  -30.8295  -17.9239   18.5774 C   0  0  0  0  0  0
  -28.7455  -24.0226   19.9174 C   0  0  0  0  0  0
  -28.9734  -22.7230   20.7895 C   0  0  0  0  0  0
  -30.0037  -17.0641   20.8683 C   0  0  0  0  0  0
  -28.3123  -25.2914   20.7438 C   0  0  0  0  0  0
  -29.6562  -17.8725   19.5679 C   0  0  1  0  0  0
  -29.6279  -20.3682   20.2336 N   0  0  0  0  0  0
  -28.7066  -21.3930   20.1771 N   0  0  0  0  0  0
  -29.7945  -15.5890   20.7915 N   0  0  0  0  0  0
  -31.4773  -12.4652   19.1235 H   0  0  0  0  0  0
  -30.3603  -11.3393   19.8478 H   0  0  0  0  0  0
  -29.7441  -11.7532   17.4462 H   0  0  0  0  0  0
  -29.6521  -13.4706   17.7444 H   0  0  0  0  0  0
  -27.8381  -11.2944   18.8362 H   0  0  0  0  0  0
  -27.3651  -12.6035   17.7882 H   0  0  0  0  0  0
  -27.6825  -14.2441   19.5405 H   0  0  0  0  0  0
  -28.7022  -11.9845   21.3394 H   0  0  0  0  0  0
  -28.4692  -13.6278   21.8568 H   0  0  0  0  0  0
  -25.2747   -9.5686   22.4774 H   0  0  0  0  0  0
  -23.9986   -7.4636   22.7498 H   0  0  0  0  0  0
  -21.0818   -8.8760   19.8973 H   0  0  0  0  0  0
  -22.3661  -10.9672   19.6182 H   0  0  0  0  0  0
  -21.1990   -7.6142   23.9712 H   0  0  0  0  0  0
  -21.1482   -6.0526   25.9080 H   0  0  0  0  0  0
  -22.0593   -2.7604   23.2863 H   0  0  0  0  0  0
  -22.4106  -11.9857   22.4770 H   0  0  0  0  0  0
  -21.1139  -13.1265   22.2668 H   0  0  0  0  0  0
  -24.6535  -15.8333   20.5150 H   0  0  0  0  0  0
  -26.2700  -15.6327   20.0749 H   0  0  0  0  0  0
  -26.7124  -32.5490   23.1143 H   0  0  0  0  0  0
  -24.9930  -33.9749   25.0377 H   0  0  0  0  0  0
  -22.6996  -31.2982   21.4030 H   0  0  0  0  0  0
  -23.3730  -35.9660   23.3301 H   0  0  0  0  0  0
  -24.3565  -36.8959   22.2064 H   0  0  0  0  0  0
  -23.7234  -37.6506   23.6694 H   0  0  0  0  0  0
  -26.0674  -31.5745   20.5958 H   0  0  0  0  0  0
  -26.8287  -30.8629   21.9916 H   0  0  0  0  0  0
  -28.1186  -29.0539   21.1623 H   0  0  0  0  0  0
  -26.0445  -25.9213   19.0499 H   0  0  0  0  0  0
  -23.9760  -27.2673   19.0554 H   0  0  0  0  0  0
  -23.7262  -30.5828   19.4025 H   0  0  0  0  0  0
  -22.7459  -29.2299   19.8725 H   0  0  0  0  0  0
  -25.1271  -36.1977   25.0831 H   0  0  0  0  0  0
  -20.9942  -28.3269   24.1447 H   0  0  0  0  0  0
  -20.5721  -26.2271   23.3627 H   0  0  0  0  0  0
  -21.6653  -26.7485   22.1193 H   0  0  0  0  0  0
  -19.6934  -25.6291   21.1250 H   0  0  0  0  0  0
  -19.6707  -27.3186   20.6753 H   0  0  0  0  0  0
  -17.4208  -26.6663   21.4001 H   0  0  0  0  0  0
  -18.0305  -26.0061   22.9009 H   0  0  0  0  0  0
  -19.7952  -30.7228   24.2296 H   0  0  0  0  0  0
  -17.5036  -31.6278   24.5144 H   0  0  0  0  0  0
  -15.5352  -30.2987   23.7672 H   0  0  0  0  0  0
  -15.8666  -28.0820   22.7106 H   0  0  0  0  0  0
  -24.5899  -30.7026   25.7836 H   0  0  0  0  0  0
  -24.8839  -32.2825   26.4950 H   0  0  0  0  0  0
  -25.8039  -30.8894   27.0258 H   0  0  0  0  0  0
  -26.2853  -29.6795   24.1186 H   0  0  0  0  0  0
  -27.4059  -29.7321   25.4607 H   0  0  0  0  0  0
  -27.8677  -30.4367   23.9287 H   0  0  0  0  0  0
  -27.2630  -33.3682   26.2048 H   0  0  0  0  0  0
  -28.3815  -32.6896   25.0326 H   0  0  0  0  0  0
  -28.0653  -31.8500   26.5440 H   0  0  0  0  0  0
  -28.2582  -38.0123   24.7558 H   0  0  0  0  0  0
  -28.1106  -36.2653   24.6223 H   0  0  0  0  0  0
  -27.2306  -37.1391   25.8857 H   0  0  0  0  0  0
  -20.9372  -29.8717   21.6899 H   0  0  0  0  0  0
  -26.0173  -38.2870   24.1425 H   0  0  0  0  0  0
  -26.9411  -18.9251   18.9466 H   0  0  0  0  0  0
  -26.2695  -22.3133   18.6389 H   0  0  0  0  0  0
  -26.1586  -22.4156   20.4023 H   0  0  0  0  0  0
  -25.3841  -21.0903   19.5404 H   0  0  0  0  0  0
  -30.5071  -18.3245   17.6160 H   0  0  0  0  0  0
  -31.2458  -16.9326   18.3947 H   0  0  0  0  0  0
  -31.6340  -18.5602   18.9478 H   0  0  0  0  0  0
  -28.0096  -23.8461   19.1346 H   0  0  0  0  0  0
  -29.6745  -24.2446   19.3932 H   0  0  0  0  0  0
  -28.3238  -22.7810   21.6622 H   0  0  0  0  0  0
  -29.9872  -22.7308   21.1938 H   0  0  0  0  0  0
  -29.3259  -17.4032   21.6513 H   0  0  0  0  0  0
  -31.0077  -17.3011   21.2235 H   0  0  0  0  0  0
  -28.9710  -25.3668   21.6096 H   0  0  0  0  0  0
  -27.3209  -25.1143   21.1649 H   0  0  0  0  0  0
  -28.8947  -17.2720   19.0675 H   0  0  0  0  0  0
  -28.8542  -15.2869   20.9981 H   0  0  0  0  0  0
  1 25  1  0  0  0
  1 30  2  0  0  0
  1 83  1  0  0  0
  2  3  1  0  0  0
  2 25  1  0  0  0
  2 84  1  0  0  0
  2 85  1  0  0  0
  3  4  1  0  0  0
  3 86  1  0  0  0
  3 87  1  0  0  0
  4  5  1  0  0  0
  4 88  1  0  0  0
  4 89  1  0  0  0
  5  6  1  0  0  0
  5 26  1  0  0  0
  5 90  1  0  0  0
  6 25  1  0  0  0
  6 91  1  0  0  0
  6 92  1  0  0  0
  7  8  2  0  0  0
  7 26  1  0  0  0
  7 29  1  0  0  0
  8  9  1  0  0  0
  8 22  1  0  0  0
  9 10  1  0  0  0
  9 27  2  0  0  0
 10 11  2  0  0  0
 10 15  1  0  0  0
 11 12  1  0  0  0
 11 93  1  0  0  0
 12 13  2  0  0  0
 12 94  1  0  0  0
 13 14  1  0  0  0
 13 31  1  0  0  0
 14 15  2  0  0  0
 14 95  1  0  0  0
 15 96  1  0  0  0
 16 17  2  0  0  0
 16 21  1  0  0  0
 16 31  1  0  0  0
 17 18  1  0  0  0
 17 97  1  0  0  0
 18 19  2  0  0  0
 18 98  1  0  0  0
 19 20  1  0  0  0
 19 24  1  0  0  0
 20 21  2  0  0  0
 20 99  1  0  0  0
 21 23  1  0  0  0
 22 28  1  0  0  0
 22 32  2  0  0  0
 26 27  1  0  0  0
 28100  1  0  0  0
 28101  1  0  0  0
 29102  1  0  0  0
 29103  1  0  0  0
 33 34  1  0  0  0
 33 66  1  0  0  0
 33 70  2  0  0  0
 34 36  1  0  0  0
 34 59  1  0  0  0
 34104  1  0  0  0
 35 44  2  0  0  0
 35 45  1  0  0  0
 35 68  1  0  0  0
 36 56  1  0  0  0
 36105  1  0  0  0
 37 39  1  0  0  0
 37 47  1  0  0  0
 37 66  1  0  0  0
 37106  1  0  0  0
 38 43  2  0  0  0
 38 46  1  0  0  0
 38 47  1  0  0  0
 39 64  1  0  0  0
 39 67  2  0  0  0
 40 52  1  0  0  0
 40 53  2  0  0  0
 40 58  1  0  0  0
 41107  1  0  0  0
 41108  1  0  0  0
 41109  1  0  0  0
 41 48  1  0  0  0
 42 43  1  0  0  0
 42 66  1  0  0  0
 42110  1  0  0  0
 42111  1  0  0  0
 43 44  1  0  0  0
 44112  1  0  0  0
 45 46  2  0  0  0
 45113  1  0  0  0
 46114  1  0  0  0
 47115  1  0  0  0
 47116  1  0  0  0
 48 56  1  0  0  0
 48 65  1  0  0  0
 48117  1  0  0  0
 49 50  1  0  0  0
 49 53  1  0  0  0
 49 64  1  0  0  0
 49118  1  0  0  0
 50 51  1  0  0  0
 50119  1  0  0  0
 50120  1  0  0  0
 51 52  1  0  0  0
 51121  1  0  0  0
 51122  1  0  0  0
 52123  1  0  0  0
 52124  1  0  0  0
 53 54  1  0  0  0
 54 55  2  0  0  0
 54125  1  0  0  0
 55 57  1  0  0  0
 55126  1  0  0  0
 56 69  2  0  0  0
 57 58  2  0  0  0
 57127  1  0  0  0
 58128  1  0  0  0
 59 60  1  0  0  0
 59 61  1  0  0  0
 59 62  1  0  0  0
 60129  1  0  0  0
 60130  1  0  0  0
 60131  1  0  0  0
 61132  1  0  0  0
 61133  1  0  0  0
 61134  1  0  0  0
 62135  1  0  0  0
 62136  1  0  0  0
 62137  1  0  0  0
 63 65  1  0  0  0
 63138  1  0  0  0
 63139  1  0  0  0
 63140  1  0  0  0
 64141  1  0  0  0
 65142  1  0  0  0
 68 79  1  0  0  0
 71 72  1  0  0  0
 71 73  2  0  0  0
 71143  1  0  0  0
 72 80  1  0  0  0
 72 81  2  0  0  0
 73 74  1  0  0  0
 73 82  1  0  0  0
 74144  1  0  0  0
 74145  1  0  0  0
 74146  1  0  0  0
 75147  1  0  0  0
 75148  1  0  0  0
 75149  1  0  0  0
 75 80  1  0  0  0
 76 77  1  0  0  0
 76 79  1  0  0  0
 76150  1  0  0  0
 76151  1  0  0  0
 77 82  1  0  0  0
 77152  1  0  0  0
 77153  1  0  0  0
 78 80  1  0  0  0
 78 83  1  0  0  0
 78154  1  0  0  0
 78155  1  0  0  0
 79156  1  0  0  0
 79157  1  0  0  0
 80158  1  0  0  0
 81 82  1  0  0  0
 83159  1  0  0  0
M  ISO  4   1 100  68 101  79 101  83 100
M  END
> <chiral flag>
0

> <version>
0

> <s_m_source_file>
/data/baiqing/PycharmProjects/Reinvent-master-3.2/result/LINK_invent/BTK/process_docking_weight1_custom_sum_contain_oxygen_bond_distance_aromatic_linkinvent_7_9_3/rearranged_h_0080.sdf

> <i_m_source_file_index>
9

> <r_mmod_Potential_Energy-OPLS-2005>
-82.6155776977539

> <r_mmod_Stretch_Energy-OPLS-2005>
55.1507682800293

> <r_mmod_Bend_Energy-OPLS-2005>
125.179893493652

> <r_mmod_Torsional_Energy-OPLS-2005>
237.704162597656

> <r_mmod_Improper_Torsional_Energy-OPLS-2005>
5.49963235855103

> <r_mmod_Van_der_Waal_Energy-OPLS-2005>
112.160758972168

> <r_mmod_Electrostatic_Energy-OPLS-2005>
-424.064636230469

> <r_mmod_Solvation_Energy-OPLS-2005>
-221.674468994141

> <b_mmod_Minimization_Converged-OPLS-2005>
0

> <r_mmod_RMS_Derivative-OPLS-2005>
2.73070907592773

$$$$
11
                    3D
 Structure written by MMmdl.
161169  0  0  1  0            999 V2000
  -30.6211  -14.5685   20.4617 C   0  0  0  0  0  0
  -30.4308  -12.3230   19.4590 C   0  0  0  0  0  0
  -29.5112  -12.4649   18.2240 C   0  0  0  0  0  0
  -28.0264  -12.3398   18.6261 C   0  0  0  0  0  0
  -27.6576  -13.2005   19.8647 C   0  0  2  0  0  0
  -28.6983  -13.0297   20.9991 C   0  0  0  0  0  0
  -25.2576  -13.8138   20.5669 C   0  0  0  0  0  0
  -24.1816  -13.0425   20.9164 C   0  0  0  0  0  0
  -24.6373  -11.6893   20.8721 C   0  0  0  0  0  0
  -23.9028  -10.4282   21.0393 C   0  0  0  0  0  0
  -24.3591   -9.4195   21.9175 C   0  0  0  0  0  0
  -23.6273   -8.2227   22.0768 C   0  0  0  0  0  0
  -22.4257   -8.0265   21.3539 C   0  0  0  0  0  0
  -21.9870   -9.0232   20.4645 C   0  0  0  0  0  0
  -22.7190  -10.2120   20.3044 C   0  0  0  0  0  0
  -21.6863   -6.0723   22.5263 C   0  0  0  0  0  0
  -21.4025   -6.5625   23.8193 C   0  0  0  0  0  0
  -21.3666   -5.6778   24.9152 C   0  0  0  0  0  0
  -21.6058   -4.3035   24.7220 C   0  0  0  0  0  0
  -21.8805   -3.8125   23.4334 C   0  0  0  0  0  0
  -21.9185   -4.6947   22.3390 C   0  0  0  0  0  0
  -22.7842  -13.5245   21.1803 C   0  0  0  0  0  0
  -22.1638   -4.2117   21.0969 F   0  0  0  0  0  0
  -21.5641   -3.4532   25.7742 F   0  0  0  0  0  0
  -30.0251  -13.3425   20.4435 N   0  0  0  0  0  0
  -26.3003  -12.9294   20.3322 N   0  0  0  0  0  0
  -25.9296  -11.6468   20.5761 N   0  0  0  0  0  0
  -22.0452  -12.8305   22.0380 N   0  0  0  0  0  0
  -25.4246  -15.1857   20.4030 N   0  0  0  0  0  0
  -31.7717  -14.7480   20.0528 O   0  0  0  0  0  0
  -21.6629   -6.8852   21.4225 O   0  0  0  0  0  0
  -22.3535  -14.5540   20.6609 O   0  0  0  0  0  0
  -24.6173  -31.8676   23.2108 C   0  0  0  0  0  0
  -25.9068  -32.4817   23.8414 C   0  0  1  0  0  0
  -27.2319  -27.4120   20.0782 C   0  0  0  0  0  0
  -25.5946  -33.8635   24.2334 N   0  0  0  0  0  0
  -23.4052  -30.4912   21.5481 C   0  0  2  0  0  0
  -24.8501  -28.9518   20.1183 C   0  0  0  0  0  0
  -22.7421  -29.4646   22.4962 C   0  0  0  0  0  0
  -18.0287  -28.1415   22.8495 C   0  0  0  0  0  0
  -24.1474  -36.7274   23.2639 C   0  0  0  0  0  0
  -25.9390  -30.8221   21.3715 C   0  0  0  0  0  0
  -26.0108  -29.4567   20.7129 C   0  0  0  0  0  0
  -27.2013  -28.6890   20.6931 C   0  0  0  0  0  0
  -26.0429  -26.9196   19.4929 C   0  0  0  0  0  0
  -24.8588  -27.6839   19.5115 C   0  0  0  0  0  0
  -23.6182  -29.8265   20.1626 C   0  0  0  0  0  0
  -25.4104  -36.3098   24.0350 C   0  0  1  0  0  0
  -20.5873  -28.3683   23.1316 C   0  0  2  0  0  0
  -20.6773  -26.9416   22.5418 C   0  0  0  0  0  0
  -19.5749  -26.6407   21.5224 C   0  0  0  0  0  0
  -18.1924  -26.7962   22.1629 C   0  0  0  0  0  0
  -19.1534  -28.8870   23.2910 C   0  0  0  0  0  0
  -18.9472  -30.1482   23.8908 C   0  0  0  0  0  0
  -17.6472  -30.6602   24.0575 C   0  0  0  0  0  0
  -25.9045  -34.9486   23.5123 C   0  0  0  0  0  0
  -16.5363  -29.9110   23.6336 C   0  0  0  0  0  0
  -16.7284  -28.6537   23.0347 C   0  0  0  0  0  0
  -26.4505  -31.6622   25.0759 C   0  0  0  0  0  0
  -25.3774  -31.3763   26.1501 C   0  0  0  0  0  0
  -27.0338  -30.3055   24.6194 C   0  0  0  0  0  0
  -27.6082  -32.4354   25.7520 C   0  0  0  0  0  0
  -27.5579  -37.1802   24.8480 C   0  0  0  0  0  0
  -21.4148  -29.3036   22.3702 N   0  0  0  0  0  0
  -26.4288  -37.3787   23.9423 N   0  0  0  0  0  0
  -24.6717  -31.0751   22.1017 N   0  0  0  0  0  0
  -23.4172  -28.8212   23.3040 O   0  0  0  0  0  0
  -28.4180  -26.6956   20.0943 O   0  0  0  0  0  0
  -26.5562  -34.8935   22.4665 O   0  0  0  0  0  0
  -23.5360  -32.1473   23.7484 O   0  0  0  0  0  0
  -28.9768  -19.2588   20.0731 C   0  0  0  0  0  0
  -29.8664  -18.1715   20.2128 C   0  0  0  0  0  0
  -29.4861  -20.5632   20.2113 C   0  0  0  0  0  0
  -31.5536  -19.6662   20.6122 C   0  0  0  0  0  0
  -33.2632  -20.2967   22.3988 C   0  0  0  0  0  0
  -29.7933  -16.5107   18.3071 C   0  0  0  0  0  0
  -33.0192  -19.9162   20.9286 C   0  0  0  0  0  0
  -28.2059  -24.1512   19.9930 C   0  0  0  0  0  0
  -28.5954  -25.4977   19.3054 C   0  0  0  0  0  0
  -29.2146  -22.9739   19.7633 C   0  0  0  0  0  0
  -29.4474  -16.7493   19.7918 C   0  0  2  0  0  0
  -31.1589  -18.3957   20.5086 N   0  0  0  0  0  0
  -30.7905  -20.7506   20.4724 N   0  0  0  0  0  0
  -29.7673  -15.5969   20.6828 N   0  0  0  0  0  0
  -28.6572  -21.6759   20.0842 O   0  0  0  0  0  0
  -31.4764  -12.4217   19.1673 H   0  0  0  0  0  0
  -30.3409  -11.3278   19.8938 H   0  0  0  0  0  0
  -29.7599  -11.6969   17.4902 H   0  0  0  0  0  0
  -29.6917  -13.4170   17.7274 H   0  0  0  0  0  0
  -27.8355  -11.2891   18.8486 H   0  0  0  0  0  0
  -27.3882  -12.5962   17.7805 H   0  0  0  0  0  0
  -27.6799  -14.2364   19.5328 H   0  0  0  0  0  0
  -28.6900  -12.0086   21.3807 H   0  0  0  0  0  0
  -28.4578  -13.6652   21.8514 H   0  0  0  0  0  0
  -25.2728   -9.5709   22.4740 H   0  0  0  0  0  0
  -23.9981   -7.4651   22.7522 H   0  0  0  0  0  0
  -21.0781   -8.8756   19.8973 H   0  0  0  0  0  0
  -22.3628  -10.9664   19.6162 H   0  0  0  0  0  0
  -21.2015   -7.6123   23.9698 H   0  0  0  0  0  0
  -21.1517   -6.0504   25.9069 H   0  0  0  0  0  0
  -22.0585   -2.7594   23.2839 H   0  0  0  0  0  0
  -22.4012  -11.9997   22.4860 H   0  0  0  0  0  0
  -21.1091  -13.1385   22.2513 H   0  0  0  0  0  0
  -24.6537  -15.8345   20.5060 H   0  0  0  0  0  0
  -26.2598  -15.6242   20.0432 H   0  0  0  0  0  0
  -26.7134  -32.5480   23.1162 H   0  0  0  0  0  0
  -25.0188  -33.9844   25.0542 H   0  0  0  0  0  0
  -22.6965  -31.3099   21.4051 H   0  0  0  0  0  0
  -23.3767  -35.9573   23.3319 H   0  0  0  0  0  0
  -24.3536  -36.8886   22.2046 H   0  0  0  0  0  0
  -23.7239  -37.6503   23.6619 H   0  0  0  0  0  0
  -26.0627  -31.5943   20.6103 H   0  0  0  0  0  0
  -26.8214  -30.8647   21.9985 H   0  0  0  0  0  0
  -28.1016  -29.0732   21.1533 H   0  0  0  0  0  0
  -25.9985  -25.9426   19.0317 H   0  0  0  0  0  0
  -23.9595  -27.2887   19.0621 H   0  0  0  0  0  0
  -23.7440  -30.6028   19.4054 H   0  0  0  0  0  0
  -22.7391  -29.2569   19.8556 H   0  0  0  0  0  0
  -25.1284  -36.1944   25.0852 H   0  0  0  0  0  0
  -20.9978  -28.3248   24.1436 H   0  0  0  0  0  0
  -20.5680  -26.2293   23.3602 H   0  0  0  0  0  0
  -21.6650  -26.7464   22.1204 H   0  0  0  0  0  0
  -19.6900  -25.6319   21.1264 H   0  0  0  0  0  0
  -19.6719  -27.3203   20.6740 H   0  0  0  0  0  0
  -17.4200  -26.6750   21.4013 H   0  0  0  0  0  0
  -18.0309  -26.0105   22.9027 H   0  0  0  0  0  0
  -19.7946  -30.7319   24.2261 H   0  0  0  0  0  0
  -17.5024  -31.6275   24.5201 H   0  0  0  0  0  0
  -15.5364  -30.3022   23.7668 H   0  0  0  0  0  0
  -15.8678  -28.0873   22.7049 H   0  0  0  0  0  0
  -24.5905  -30.7155   25.7835 H   0  0  0  0  0  0
  -24.8991  -32.2926   26.4973 H   0  0  0  0  0  0
  -25.8117  -30.8908   27.0247 H   0  0  0  0  0  0
  -26.2893  -29.6825   24.1197 H   0  0  0  0  0  0
  -27.4040  -29.7309   25.4705 H   0  0  0  0  0  0
  -27.8763  -30.4386   23.9396 H   0  0  0  0  0  0
  -27.2710  -33.3652   26.2131 H   0  0  0  0  0  0
  -28.3865  -32.6954   25.0321 H   0  0  0  0  0  0
  -28.0759  -31.8455   26.5426 H   0  0  0  0  0  0
  -28.2607  -38.0083   24.7488 H   0  0  0  0  0  0
  -28.1064  -36.2625   24.6317 H   0  0  0  0  0  0
  -27.2276  -37.1470   25.8879 H   0  0  0  0  0  0
  -20.9313  -29.8768   21.6926 H   0  0  0  0  0  0
  -26.0170  -38.2858   24.1455 H   0  0  0  0  0  0
  -27.9434  -19.1098   19.7962 H   0  0  0  0  0  0
  -34.3234  -20.4746   22.5778 H   0  0  0  0  0  0
  -32.9378  -19.5096   23.0774 H   0  0  0  0  0  0
  -32.7211  -21.2052   22.6567 H   0  0  0  0  0  0
  -30.8703  -16.4832   18.1340 H   0  0  0  0  0  0
  -29.3798  -17.3012   17.6786 H   0  0  0  0  0  0
  -29.3604  -15.5824   17.9491 H   0  0  0  0  0  0
  -33.3789  -20.7150   20.2788 H   0  0  0  0  0  0
  -33.6028  -19.0333   20.6741 H   0  0  0  0  0  0
  -27.2156  -23.8576   19.6377 H   0  0  0  0  0  0
  -28.1013  -24.3147   21.0643 H   0  0  0  0  0  0
  -28.1140  -25.5844   18.3301 H   0  0  0  0  0  0
  -29.6602  -25.4617   19.0716 H   0  0  0  0  0  0
  -30.1118  -23.1840   20.3488 H   0  0  0  0  0  0
  -29.5214  -22.9553   18.7154 H   0  0  0  0  0  0
  -28.3592  -16.7755   19.8230 H   0  0  0  0  0  0
  -28.9728  -15.3345   21.2431 H   0  0  0  0  0  0
  1 25  1  0  0  0
  1 30  2  0  0  0
  1 84  1  0  0  0
  2  3  1  0  0  0
  2 25  1  0  0  0
  2 86  1  0  0  0
  2 87  1  0  0  0
  3  4  1  0  0  0
  3 88  1  0  0  0
  3 89  1  0  0  0
  4  5  1  0  0  0
  4 90  1  0  0  0
  4 91  1  0  0  0
  5  6  1  0  0  0
  5 26  1  0  0  0
  5 92  1  0  0  0
  6 25  1  0  0  0
  6 93  1  0  0  0
  6 94  1  0  0  0
  7  8  2  0  0  0
  7 26  1  0  0  0
  7 29  1  0  0  0
  8  9  1  0  0  0
  8 22  1  0  0  0
  9 10  1  0  0  0
  9 27  2  0  0  0
 10 11  2  0  0  0
 10 15  1  0  0  0
 11 12  1  0  0  0
 11 95  1  0  0  0
 12 13  2  0  0  0
 12 96  1  0  0  0
 13 14  1  0  0  0
 13 31  1  0  0  0
 14 15  2  0  0  0
 14 97  1  0  0  0
 15 98  1  0  0  0
 16 17  2  0  0  0
 16 21  1  0  0  0
 16 31  1  0  0  0
 17 18  1  0  0  0
 17 99  1  0  0  0
 18 19  2  0  0  0
 18100  1  0  0  0
 19 20  1  0  0  0
 19 24  1  0  0  0
 20 21  2  0  0  0
 20101  1  0  0  0
 21 23  1  0  0  0
 22 28  1  0  0  0
 22 32  2  0  0  0
 26 27  1  0  0  0
 28102  1  0  0  0
 28103  1  0  0  0
 29104  1  0  0  0
 29105  1  0  0  0
 33 34  1  0  0  0
 33 66  1  0  0  0
 33 70  2  0  0  0
 34 36  1  0  0  0
 34 59  1  0  0  0
 34106  1  0  0  0
 35 44  2  0  0  0
 35 45  1  0  0  0
 35 68  1  0  0  0
 36 56  1  0  0  0
 36107  1  0  0  0
 37 39  1  0  0  0
 37 47  1  0  0  0
 37 66  1  0  0  0
 37108  1  0  0  0
 38 43  2  0  0  0
 38 46  1  0  0  0
 38 47  1  0  0  0
 39 64  1  0  0  0
 39 67  2  0  0  0
 40 52  1  0  0  0
 40 53  2  0  0  0
 40 58  1  0  0  0
 41109  1  0  0  0
 41110  1  0  0  0
 41111  1  0  0  0
 41 48  1  0  0  0
 42 43  1  0  0  0
 42 66  1  0  0  0
 42112  1  0  0  0
 42113  1  0  0  0
 43 44  1  0  0  0
 44114  1  0  0  0
 45 46  2  0  0  0
 45115  1  0  0  0
 46116  1  0  0  0
 47117  1  0  0  0
 47118  1  0  0  0
 48 56  1  0  0  0
 48 65  1  0  0  0
 48119  1  0  0  0
 49 50  1  0  0  0
 49 53  1  0  0  0
 49 64  1  0  0  0
 49120  1  0  0  0
 50 51  1  0  0  0
 50121  1  0  0  0
 50122  1  0  0  0
 51 52  1  0  0  0
 51123  1  0  0  0
 51124  1  0  0  0
 52125  1  0  0  0
 52126  1  0  0  0
 53 54  1  0  0  0
 54 55  2  0  0  0
 54127  1  0  0  0
 55 57  1  0  0  0
 55128  1  0  0  0
 56 69  2  0  0  0
 57 58  2  0  0  0
 57129  1  0  0  0
 58130  1  0  0  0
 59 60  1  0  0  0
 59 61  1  0  0  0
 59 62  1  0  0  0
 60131  1  0  0  0
 60132  1  0  0  0
 60133  1  0  0  0
 61134  1  0  0  0
 61135  1  0  0  0
 61136  1  0  0  0
 62137  1  0  0  0
 62138  1  0  0  0
 62139  1  0  0  0
 63 65  1  0  0  0
 63140  1  0  0  0
 63141  1  0  0  0
 63142  1  0  0  0
 64143  1  0  0  0
 65144  1  0  0  0
 68 79  1  0  0  0
 71 72  2  0  0  0
 71 73  1  0  0  0
 71145  1  0  0  0
 72 81  1  0  0  0
 72 82  1  0  0  0
 73 83  2  0  0  0
 73 85  1  0  0  0
 74 77  1  0  0  0
 74 82  2  0  0  0
 74 83  1  0  0  0
 75 77  1  0  0  0
 75146  1  0  0  0
 75147  1  0  0  0
 75148  1  0  0  0
 76149  1  0  0  0
 76150  1  0  0  0
 76151  1  0  0  0
 76 81  1  0  0  0
 77152  1  0  0  0
 77153  1  0  0  0
 78 79  1  0  0  0
 78 80  1  0  0  0
 78154  1  0  0  0
 78155  1  0  0  0
 79156  1  0  0  0
 79157  1  0  0  0
 80 85  1  0  0  0
 80158  1  0  0  0
 80159  1  0  0  0
 81 84  1  0  0  0
 81160  1  0  0  0
 84161  1  0  0  0
M  ISO  4   1 100  68 101  79 101  84 100
M  END
> <chiral flag>
0

> <version>
0

> <s_m_source_file>
/data/baiqing/PycharmProjects/Reinvent-master-3.2/result/LINK_invent/BTK/process_docking_weight1_custom_sum_contain_oxygen_bond_distance_aromatic_linkinvent_7_9_3/rearranged_h_0080.sdf

> <i_m_source_file_index>
10

> <r_mmod_Potential_Energy-OPLS-2005>
-646.433410644531

> <r_mmod_Stretch_Energy-OPLS-2005>
46.1584510803223

> <r_mmod_Bend_Energy-OPLS-2005>
130.471527099609

> <r_mmod_Torsional_Energy-OPLS-2005>
209.727386474609

> <r_mmod_Improper_Torsional_Energy-OPLS-2005>
10.9438037872314

> <r_mmod_Van_der_Waal_Energy-OPLS-2005>
155.471862792969

> <r_mmod_Electrostatic_Energy-OPLS-2005>
-984.748352050781

> <r_mmod_Solvation_Energy-OPLS-2005>
-240.168502807617

> <b_mmod_Minimization_Converged-OPLS-2005>
0

> <r_mmod_RMS_Derivative-OPLS-2005>
5.05648756027222

$$$$
12
                    3D
 Structure written by MMmdl.
161169  0  0  1  0            999 V2000
  -30.6772  -14.5387   20.5595 C   0  0  0  0  0  0
  -30.4288  -12.3453   19.4373 C   0  0  0  0  0  0
  -29.5004  -12.5065   18.2148 C   0  0  0  0  0  0
  -28.0222  -12.3565   18.6276 C   0  0  0  0  0  0
  -27.6573  -13.2122   19.8702 C   0  0  2  0  0  0
  -28.6999  -13.0274   20.9956 C   0  0  0  0  0  0
  -25.2572  -13.8164   20.5679 C   0  0  0  0  0  0
  -24.1831  -13.0434   20.9167 C   0  0  0  0  0  0
  -24.6393  -11.6903   20.8727 C   0  0  0  0  0  0
  -23.9059  -10.4287   21.0394 C   0  0  0  0  0  0
  -24.3611   -9.4203   21.9175 C   0  0  0  0  0  0
  -23.6288   -8.2239   22.0752 C   0  0  0  0  0  0
  -22.4274   -8.0271   21.3541 C   0  0  0  0  0  0
  -21.9902   -9.0240   20.4644 C   0  0  0  0  0  0
  -22.7226  -10.2122   20.3048 C   0  0  0  0  0  0
  -21.6852   -6.0727   22.5273 C   0  0  0  0  0  0
  -21.4011   -6.5634   23.8203 C   0  0  0  0  0  0
  -21.3664   -5.6790   24.9168 C   0  0  0  0  0  0
  -21.6045   -4.3051   24.7225 C   0  0  0  0  0  0
  -21.8819   -3.8141   23.4346 C   0  0  0  0  0  0
  -21.9191   -4.6955   22.3399 C   0  0  0  0  0  0
  -22.7854  -13.5222   21.1836 C   0  0  0  0  0  0
  -22.1662   -4.2137   21.0979 F   0  0  0  0  0  0
  -21.5630   -3.4538   25.7742 F   0  0  0  0  0  0
  -30.0236  -13.3472   20.4385 N   0  0  0  0  0  0
  -26.3004  -12.9341   20.3343 N   0  0  0  0  0  0
  -25.9321  -11.6497   20.5759 N   0  0  0  0  0  0
  -22.0503  -12.8222   22.0402 N   0  0  0  0  0  0
  -25.4297  -15.1883   20.4087 N   0  0  0  0  0  0
  -31.8197  -14.7095   20.1264 O   0  0  0  0  0  0
  -21.6637   -6.8870   21.4237 O   0  0  0  0  0  0
  -22.3540  -14.5524   20.6672 O   0  0  0  0  0  0
  -24.6202  -31.8644   23.2104 C   0  0  0  0  0  0
  -25.9077  -32.4799   23.8399 C   0  0  1  0  0  0
  -27.2235  -27.3784   20.0999 C   0  0  0  0  0  0
  -25.5916  -33.8604   24.2313 N   0  0  0  0  0  0
  -23.4099  -30.4919   21.5519 C   0  0  2  0  0  0
  -24.8553  -28.9618   20.1103 C   0  0  0  0  0  0
  -22.7435  -29.4643   22.4964 C   0  0  0  0  0  0
  -18.0279  -28.1375   22.8479 C   0  0  0  0  0  0
  -24.1492  -36.7317   23.2633 C   0  0  0  0  0  0
  -25.9470  -30.8134   21.3752 C   0  0  0  0  0  0
  -26.0210  -29.4471   20.7155 C   0  0  0  0  0  0
  -27.2066  -28.6642   20.7071 C   0  0  0  0  0  0
  -26.0362  -26.9419   19.4604 C   0  0  0  0  0  0
  -24.8620  -27.7112   19.4772 C   0  0  0  0  0  0
  -23.6205  -29.8330   20.1646 C   0  0  0  0  0  0
  -25.4112  -36.3093   24.0320 C   0  0  1  0  0  0
  -20.5874  -28.3663   23.1305 C   0  0  2  0  0  0
  -20.6772  -26.9393   22.5413 C   0  0  0  0  0  0
  -19.5755  -26.6376   21.5209 C   0  0  0  0  0  0
  -18.1933  -26.7920   22.1614 C   0  0  0  0  0  0
  -19.1528  -28.8836   23.2889 C   0  0  0  0  0  0
  -18.9451  -30.1445   23.8894 C   0  0  0  0  0  0
  -17.6450  -30.6578   24.0559 C   0  0  0  0  0  0
  -25.9038  -34.9457   23.5105 C   0  0  0  0  0  0
  -16.5344  -29.9071   23.6326 C   0  0  0  0  0  0
  -16.7267  -28.6496   23.0336 C   0  0  0  0  0  0
  -26.4475  -31.6596   25.0748 C   0  0  0  0  0  0
  -25.3718  -31.3727   26.1480 C   0  0  0  0  0  0
  -27.0314  -30.3025   24.6184 C   0  0  0  0  0  0
  -27.6050  -32.4317   25.7510 C   0  0  0  0  0  0
  -27.5584  -37.1807   24.8452 C   0  0  0  0  0  0
  -21.4157  -29.3029   22.3704 N   0  0  0  0  0  0
  -26.4295  -37.3780   23.9400 N   0  0  0  0  0  0
  -24.6775  -31.0709   22.1028 N   0  0  0  0  0  0
  -23.4184  -28.8165   23.3006 O   0  0  0  0  0  0
  -28.3572  -26.5670   20.1575 O   0  0  0  0  0  0
  -26.5598  -34.8906   22.4663 O   0  0  0  0  0  0
  -23.5382  -32.1410   23.7470 O   0  0  0  0  0  0
  -27.8562  -21.8241   22.3288 C   0  0  0  0  0  0
  -29.1066  -20.3840   21.4480 C   0  0  0  0  0  0
  -25.6484  -22.8626   21.6639 C   0  0  0  0  0  0
  -26.9063  -22.9680   22.5383 C   0  0  0  0  0  0
  -29.9657  -19.5519   20.5078 C   0  0  0  0  0  0
  -29.5646  -18.0325   20.3652 C   0  0  0  0  0  0
  -29.2154  -24.1362   20.4700 C   0  0  0  0  0  0
  -28.9124  -22.6222   20.1312 C   0  0  0  0  0  0
  -30.3693  -16.9927   21.2175 C   0  0  0  0  0  0
  -28.1682  -25.1440   19.8938 C   0  0  0  0  0  0
  -27.8732  -20.7884   23.1735 N   0  0  0  0  0  0
  -28.7152  -19.8681   22.6182 N   0  0  0  0  0  0
  -28.6801  -21.6789   21.2569 N   0  0  0  0  0  0
  -29.9486  -15.5752   21.0446 N   0  0  0  0  0  0
  -31.4720  -12.4557   19.1371 H   0  0  0  0  0  0
  -30.3458  -11.3411   19.8554 H   0  0  0  0  0  0
  -29.7506  -11.7690   17.4507 H   0  0  0  0  0  0
  -29.6575  -13.4850   17.7582 H   0  0  0  0  0  0
  -27.8476  -11.3020   18.8427 H   0  0  0  0  0  0
  -27.3692  -12.6065   17.7909 H   0  0  0  0  0  0
  -27.6902  -14.2544   19.5520 H   0  0  0  0  0  0
  -28.6936  -11.9972   21.3553 H   0  0  0  0  0  0
  -28.4554  -13.6433   21.8623 H   0  0  0  0  0  0
  -25.2752   -9.5676   22.4751 H   0  0  0  0  0  0
  -23.9989   -7.4632   22.7477 H   0  0  0  0  0  0
  -21.0829   -8.8748   19.8962 H   0  0  0  0  0  0
  -22.3670  -10.9653   19.6154 H   0  0  0  0  0  0
  -21.2006   -7.6142   23.9702 H   0  0  0  0  0  0
  -21.1489   -6.0524   25.9070 H   0  0  0  0  0  0
  -22.0602   -2.7604   23.2847 H   0  0  0  0  0  0
  -22.4129  -11.9884   22.4782 H   0  0  0  0  0  0
  -21.1119  -13.1245   22.2617 H   0  0  0  0  0  0
  -24.6621  -15.8434   20.5094 H   0  0  0  0  0  0
  -26.2833  -15.6262   20.0856 H   0  0  0  0  0  0
  -26.7144  -32.5484   23.1157 H   0  0  0  0  0  0
  -25.0061  -33.9751   25.0457 H   0  0  0  0  0  0
  -22.6998  -31.3101   21.4151 H   0  0  0  0  0  0
  -23.3732  -35.9672   23.3289 H   0  0  0  0  0  0
  -24.3579  -36.8953   22.2050 H   0  0  0  0  0  0
  -23.7278  -37.6528   23.6661 H   0  0  0  0  0  0
  -26.0718  -31.5819   20.6111 H   0  0  0  0  0  0
  -26.8301  -30.8592   22.0008 H   0  0  0  0  0  0
  -28.1012  -29.0306   21.1914 H   0  0  0  0  0  0
  -25.9836  -25.9978   18.9402 H   0  0  0  0  0  0
  -23.9696  -27.3372   18.9945 H   0  0  0  0  0  0
  -23.7324  -30.6113   19.4088 H   0  0  0  0  0  0
  -22.7422  -29.2584   19.8652 H   0  0  0  0  0  0
  -25.1298  -36.1946   25.0813 H   0  0  0  0  0  0
  -20.9966  -28.3233   24.1426 H   0  0  0  0  0  0
  -20.5688  -26.2257   23.3593 H   0  0  0  0  0  0
  -21.6639  -26.7438   22.1202 H   0  0  0  0  0  0
  -19.6908  -25.6286   21.1239 H   0  0  0  0  0  0
  -19.6711  -27.3178   20.6736 H   0  0  0  0  0  0
  -17.4204  -26.6660   21.4015 H   0  0  0  0  0  0
  -18.0334  -26.0066   22.9013 H   0  0  0  0  0  0
  -19.7927  -30.7266   24.2262 H   0  0  0  0  0  0
  -17.5003  -31.6260   24.5153 H   0  0  0  0  0  0
  -15.5339  -30.2967   23.7669 H   0  0  0  0  0  0
  -15.8670  -28.0828   22.7037 H   0  0  0  0  0  0
  -24.5917  -30.7036   25.7823 H   0  0  0  0  0  0
  -24.8871  -32.2885   26.4861 H   0  0  0  0  0  0
  -25.8059  -30.8953   27.0273 H   0  0  0  0  0  0
  -26.2889  -29.6771   24.1206 H   0  0  0  0  0  0
  -27.4016  -29.7278   25.4684 H   0  0  0  0  0  0
  -27.8756  -30.4306   23.9400 H   0  0  0  0  0  0
  -27.2688  -33.3637   26.2059 H   0  0  0  0  0  0
  -28.3886  -32.6839   25.0348 H   0  0  0  0  0  0
  -28.0680  -31.8445   26.5446 H   0  0  0  0  0  0
  -28.2587  -38.0120   24.7508 H   0  0  0  0  0  0
  -28.1100  -36.2644   24.6275 H   0  0  0  0  0  0
  -27.2290  -37.1462   25.8852 H   0  0  0  0  0  0
  -20.9306  -29.8766   21.6952 H   0  0  0  0  0  0
  -26.0169  -38.2852   24.1398 H   0  0  0  0  0  0
  -24.9732  -23.6983   21.8493 H   0  0  0  0  0  0
  -25.1046  -21.9410   21.8711 H   0  0  0  0  0  0
  -25.8961  -22.8655   20.6029 H   0  0  0  0  0  0
  -27.4042  -23.9227   22.4035 H   0  0  0  0  0  0
  -26.5977  -22.9646   23.5848 H   0  0  0  0  0  0
  -31.0098  -19.6441   20.8076 H   0  0  0  0  0  0
  -29.8997  -20.0007   19.5176 H   0  0  0  0  0  0
  -29.7145  -17.7573   19.3204 H   0  0  0  0  0  0
  -28.4934  -17.9237   20.5374 H   0  0  0  0  0  0
  -30.1874  -24.3943   20.0488 H   0  0  0  0  0  0
  -29.3427  -24.2812   21.5417 H   0  0  0  0  0  0
  -29.7483  -22.2439   19.5437 H   0  0  0  0  0  0
  -28.0471  -22.5578   19.4709 H   0  0  0  0  0  0
  -30.2557  -17.2380   22.2743 H   0  0  0  0  0  0
  -31.4345  -17.0978   21.0047 H   0  0  0  0  0  0
  -27.2081  -24.8250   20.2953 H   0  0  0  0  0  0
  -28.1167  -25.0064   18.8128 H   0  0  0  0  0  0
  -29.0176  -15.3422   21.3576 H   0  0  0  0  0  0
  1 25  1  0  0  0
  1 30  2  0  0  0
  1 84  1  0  0  0
  2  3  1  0  0  0
  2 25  1  0  0  0
  2 85  1  0  0  0
  2 86  1  0  0  0
  3  4  1  0  0  0
  3 87  1  0  0  0
  3 88  1  0  0  0
  4  5  1  0  0  0
  4 89  1  0  0  0
  4 90  1  0  0  0
  5  6  1  0  0  0
  5 26  1  0  0  0
  5 91  1  0  0  0
  6 25  1  0  0  0
  6 92  1  0  0  0
  6 93  1  0  0  0
  7  8  2  0  0  0
  7 26  1  0  0  0
  7 29  1  0  0  0
  8  9  1  0  0  0
  8 22  1  0  0  0
  9 10  1  0  0  0
  9 27  2  0  0  0
 10 11  2  0  0  0
 10 15  1  0  0  0
 11 12  1  0  0  0
 11 94  1  0  0  0
 12 13  2  0  0  0
 12 95  1  0  0  0
 13 14  1  0  0  0
 13 31  1  0  0  0
 14 15  2  0  0  0
 14 96  1  0  0  0
 15 97  1  0  0  0
 16 17  2  0  0  0
 16 21  1  0  0  0
 16 31  1  0  0  0
 17 18  1  0  0  0
 17 98  1  0  0  0
 18 19  2  0  0  0
 18 99  1  0  0  0
 19 20  1  0  0  0
 19 24  1  0  0  0
 20 21  2  0  0  0
 20100  1  0  0  0
 21 23  1  0  0  0
 22 28  1  0  0  0
 22 32  2  0  0  0
 26 27  1  0  0  0
 28101  1  0  0  0
 28102  1  0  0  0
 29103  1  0  0  0
 29104  1  0  0  0
 33 34  1  0  0  0
 33 66  1  0  0  0
 33 70  2  0  0  0
 34 36  1  0  0  0
 34 59  1  0  0  0
 34105  1  0  0  0
 35 44  2  0  0  0
 35 45  1  0  0  0
 35 68  1  0  0  0
 36 56  1  0  0  0
 36106  1  0  0  0
 37 39  1  0  0  0
 37 47  1  0  0  0
 37 66  1  0  0  0
 37107  1  0  0  0
 38 43  2  0  0  0
 38 46  1  0  0  0
 38 47  1  0  0  0
 39 64  1  0  0  0
 39 67  2  0  0  0
 40 52  1  0  0  0
 40 53  2  0  0  0
 40 58  1  0  0  0
 41108  1  0  0  0
 41109  1  0  0  0
 41110  1  0  0  0
 41 48  1  0  0  0
 42 43  1  0  0  0
 42 66  1  0  0  0
 42111  1  0  0  0
 42112  1  0  0  0
 43 44  1  0  0  0
 44113  1  0  0  0
 45 46  2  0  0  0
 45114  1  0  0  0
 46115  1  0  0  0
 47116  1  0  0  0
 47117  1  0  0  0
 48 56  1  0  0  0
 48 65  1  0  0  0
 48118  1  0  0  0
 49 50  1  0  0  0
 49 53  1  0  0  0
 49 64  1  0  0  0
 49119  1  0  0  0
 50 51  1  0  0  0
 50120  1  0  0  0
 50121  1  0  0  0
 51 52  1  0  0  0
 51122  1  0  0  0
 51123  1  0  0  0
 52124  1  0  0  0
 52125  1  0  0  0
 53 54  1  0  0  0
 54 55  2  0  0  0
 54126  1  0  0  0
 55 57  1  0  0  0
 55127  1  0  0  0
 56 69  2  0  0  0
 57 58  2  0  0  0
 57128  1  0  0  0
 58129  1  0  0  0
 59 60  1  0  0  0
 59 61  1  0  0  0
 59 62  1  0  0  0
 60130  1  0  0  0
 60131  1  0  0  0
 60132  1  0  0  0
 61133  1  0  0  0
 61134  1  0  0  0
 61135  1  0  0  0
 62136  1  0  0  0
 62137  1  0  0  0
 62138  1  0  0  0
 63 65  1  0  0  0
 63139  1  0  0  0
 63140  1  0  0  0
 63141  1  0  0  0
 64142  1  0  0  0
 65143  1  0  0  0
 68 80  1  0  0  0
 71 74  1  0  0  0
 71 81  2  0  0  0
 71 83  1  0  0  0
 72 75  1  0  0  0
 72 82  2  0  0  0
 72 83  1  0  0  0
 73 74  1  0  0  0
 73144  1  0  0  0
 73145  1  0  0  0
 73146  1  0  0  0
 74147  1  0  0  0
 74148  1  0  0  0
 75 76  1  0  0  0
 75149  1  0  0  0
 75150  1  0  0  0
 76 79  1  0  0  0
 76151  1  0  0  0
 76152  1  0  0  0
 77 78  1  0  0  0
 77 80  1  0  0  0
 77153  1  0  0  0
 77154  1  0  0  0
 78 83  1  0  0  0
 78155  1  0  0  0
 78156  1  0  0  0
 79 84  1  0  0  0
 79157  1  0  0  0
 79158  1  0  0  0
 80159  1  0  0  0
 80160  1  0  0  0
 81 82  1  0  0  0
 84161  1  0  0  0
M  ISO  4   1 100  68 101  80 101  84 100
M  END
> <chiral flag>
0

> <version>
0

> <s_m_source_file>
/data/baiqing/PycharmProjects/Reinvent-master-3.2/result/LINK_invent/BTK/process_docking_weight1_custom_sum_contain_oxygen_bond_distance_aromatic_linkinvent_7_9_3/rearranged_h_0080.sdf

> <i_m_source_file_index>
11

> <r_mmod_Potential_Energy-OPLS-2005>
-63.5799674987793

> <r_mmod_Stretch_Energy-OPLS-2005>
55.2818908691406

> <r_mmod_Bend_Energy-OPLS-2005>
127.433876037598

> <r_mmod_Torsional_Energy-OPLS-2005>
225.469573974609

> <r_mmod_Improper_Torsional_Energy-OPLS-2005>
4.15025520324707

> <r_mmod_Van_der_Waal_Energy-OPLS-2005>
128.212905883789

> <r_mmod_Electrostatic_Energy-OPLS-2005>
-390.991943359375

> <r_mmod_Solvation_Energy-OPLS-2005>
-238.800048828125

> <b_mmod_Minimization_Converged-OPLS-2005>
0

> <r_mmod_RMS_Derivative-OPLS-2005>
1.30119633674622

$$$$
13
                    3D
 Structure written by MMmdl.
156164  0  0  1  0            999 V2000
  -30.5644  -14.7619   20.4899 C   0  0  0  0  0  0
  -30.4527  -12.4752   19.4662 C   0  0  0  0  0  0
  -29.5198  -12.5134   18.2335 C   0  0  0  0  0  0
  -28.0470  -12.3179   18.6502 C   0  0  0  0  0  0
  -27.6447  -13.2193   19.8468 C   0  0  2  0  0  0
  -28.6876  -13.1375   20.9827 C   0  0  0  0  0  0
  -25.2534  -13.8165   20.5663 C   0  0  0  0  0  0
  -24.1811  -13.0431   20.9188 C   0  0  0  0  0  0
  -24.6382  -11.6907   20.8724 C   0  0  0  0  0  0
  -23.9050  -10.4289   21.0409 C   0  0  0  0  0  0
  -24.3598   -9.4199   21.9182 C   0  0  0  0  0  0
  -23.6279   -8.2240   22.0760 C   0  0  0  0  0  0
  -22.4256   -8.0268   21.3551 C   0  0  0  0  0  0
  -21.9887   -9.0247   20.4659 C   0  0  0  0  0  0
  -22.7220  -10.2124   20.3060 C   0  0  0  0  0  0
  -21.6852   -6.0721   22.5279 C   0  0  0  0  0  0
  -21.4025   -6.5635   23.8212 C   0  0  0  0  0  0
  -21.3657   -5.6786   24.9172 C   0  0  0  0  0  0
  -21.6040   -4.3051   24.7229 C   0  0  0  0  0  0
  -21.8818   -3.8134   23.4352 C   0  0  0  0  0  0
  -21.9199   -4.6948   22.3399 C   0  0  0  0  0  0
  -22.7839  -13.5237   21.1830 C   0  0  0  0  0  0
  -22.1662   -4.2137   21.0978 F   0  0  0  0  0  0
  -21.5624   -3.4533   25.7740 F   0  0  0  0  0  0
  -29.9851  -13.5167   20.4058 N   0  0  0  0  0  0
  -26.2948  -12.9347   20.3233 N   0  0  0  0  0  0
  -25.9306  -11.6502   20.5701 N   0  0  0  0  0  0
  -22.0463  -12.8268   22.0401 N   0  0  0  0  0  0
  -25.4210  -15.1892   20.4067 N   0  0  0  0  0  0
  -31.7548  -14.9135   20.1983 O   0  0  0  0  0  0
  -21.6634   -6.8858   21.4238 O   0  0  0  0  0  0
  -22.3530  -14.5546   20.6668 O   0  0  0  0  0  0
  -24.6310  -31.8556   23.1965 C   0  0  0  0  0  0
  -25.9134  -32.4755   23.8319 C   0  0  1  0  0  0
  -27.2251  -27.2594   20.1495 C   0  0  0  0  0  0
  -25.5922  -33.8557   24.2254 N   0  0  0  0  0  0
  -23.4296  -30.4764   21.5385 C   0  0  2  0  0  0
  -24.8779  -28.9124   20.1183 C   0  0  0  0  0  0
  -22.7501  -29.4622   22.4897 C   0  0  0  0  0  0
  -18.0304  -28.1416   22.8494 C   0  0  0  0  0  0
  -24.1484  -36.7287   23.2639 C   0  0  0  0  0  0
  -25.9732  -30.7703   21.3727 C   0  0  0  0  0  0
  -26.0487  -29.3874   20.7244 C   0  0  0  0  0  0
  -27.2278  -28.5761   20.7218 C   0  0  0  0  0  0
  -26.0328  -26.8398   19.5265 C   0  0  0  0  0  0
  -24.8744  -27.6451   19.5092 C   0  0  0  0  0  0
  -23.6498  -29.8031   20.1571 C   0  0  0  0  0  0
  -25.4109  -36.3073   24.0329 C   0  0  1  0  0  0
  -20.5903  -28.3734   23.1265 C   0  0  2  0  0  0
  -20.6796  -26.9452   22.5412 C   0  0  0  0  0  0
  -19.5766  -26.6408   21.5228 C   0  0  0  0  0  0
  -18.1947  -26.7958   22.1636 C   0  0  0  0  0  0
  -19.1555  -28.8886   23.2878 C   0  0  0  0  0  0
  -18.9473  -30.1481   23.8908 C   0  0  0  0  0  0
  -17.6474  -30.6610   24.0573 C   0  0  0  0  0  0
  -25.9050  -34.9442   23.5098 C   0  0  0  0  0  0
  -16.5367  -29.9115   23.6330 C   0  0  0  0  0  0
  -16.7289  -28.6530   23.0353 C   0  0  0  0  0  0
  -26.4502  -31.6574   25.0704 C   0  0  0  0  0  0
  -25.3714  -31.3749   26.1416 C   0  0  0  0  0  0
  -27.0337  -30.2981   24.6195 C   0  0  0  0  0  0
  -27.6054  -32.4319   25.7481 C   0  0  0  0  0  0
  -27.5581  -37.1793   24.8467 C   0  0  0  0  0  0
  -21.4210  -29.3073   22.3635 N   0  0  0  0  0  0
  -26.4284  -37.3772   23.9419 N   0  0  0  0  0  0
  -24.6974  -31.0522   22.0933 N   0  0  0  0  0  0
  -23.4191  -28.8183   23.3023 O   0  0  0  0  0  0
  -28.3334  -26.3870   20.1335 O   0  0  0  0  0  0
  -26.5637  -34.8921   22.4677 O   0  0  0  0  0  0
  -23.5456  -32.1383   23.7260 O   0  0  0  0  0  0
  -30.7256  -18.1734   18.8289 C   0  0  0  0  0  0
  -30.1265  -20.2288   18.7233 C   0  0  0  0  0  0
  -30.0061  -18.4133   19.9809 C   0  0  0  0  0  0
  -30.7575  -17.5313   22.2584 C   0  0  0  0  0  0
  -29.1440  -22.3585   20.8850 C   0  0  0  0  0  0
  -28.5393  -23.6113   20.0353 C   0  0  0  0  0  0
  -28.7706  -20.7742   20.7221 C   0  0  0  0  0  0
  -28.2455  -25.0316   20.7805 C   0  0  0  0  0  0
  -29.7927  -17.3233   21.0829 C   0  0  2  0  0  0
  -30.7961  -19.3134   18.0353 N   0  0  0  0  0  0
  -29.6203  -19.8252   19.8976 N   0  0  0  0  0  0
  -29.7060  -15.8264   20.7325 N   0  0  0  0  0  0
  -31.4884  -12.6374   19.1598 H   0  0  0  0  0  0
  -30.4263  -11.4956   19.9449 H   0  0  0  0  0  0
  -29.8133  -11.7445   17.5179 H   0  0  0  0  0  0
  -29.6313  -13.4691   17.7168 H   0  0  0  0  0  0
  -27.9215  -11.2704   18.9257 H   0  0  0  0  0  0
  -27.3855  -12.4902   17.8009 H   0  0  0  0  0  0
  -27.6414  -14.2402   19.4648 H   0  0  0  0  0  0
  -28.7328  -12.1304   21.4004 H   0  0  0  0  0  0
  -28.4097  -13.7935   21.8097 H   0  0  0  0  0  0
  -25.2742   -9.5699   22.4751 H   0  0  0  0  0  0
  -23.9990   -7.4642   22.7491 H   0  0  0  0  0  0
  -21.0807   -8.8766   19.8978 H   0  0  0  0  0  0
  -22.3662  -10.9658   19.6166 H   0  0  0  0  0  0
  -21.2023   -7.6145   23.9715 H   0  0  0  0  0  0
  -21.1476   -6.0514   25.9076 H   0  0  0  0  0  0
  -22.0596   -2.7602   23.2851 H   0  0  0  0  0  0
  -22.4054  -11.9952   22.4847 H   0  0  0  0  0  0
  -21.1085  -13.1334   22.2577 H   0  0  0  0  0  0
  -24.6422  -15.8315   20.5057 H   0  0  0  0  0  0
  -26.2497  -15.6302   20.0305 H   0  0  0  0  0  0
  -26.7208  -32.5413   23.1067 H   0  0  0  0  0  0
  -25.0030  -33.9690   25.0371 H   0  0  0  0  0  0
  -22.7267  -31.2986   21.3886 H   0  0  0  0  0  0
  -23.3750  -35.9614   23.3292 H   0  0  0  0  0  0
  -24.3583  -36.8917   22.2057 H   0  0  0  0  0  0
  -23.7228  -37.6482   23.6666 H   0  0  0  0  0  0
  -26.1047  -31.5254   20.5960 H   0  0  0  0  0  0
  -26.8530  -30.8281   22.0019 H   0  0  0  0  0  0
  -28.1294  -28.9407   21.1942 H   0  0  0  0  0  0
  -25.9940  -25.8651   19.0591 H   0  0  0  0  0  0
  -23.9759  -27.2741   19.0349 H   0  0  0  0  0  0
  -23.7815  -30.5773   19.3995 H   0  0  0  0  0  0
  -22.7669  -29.2386   19.8505 H   0  0  0  0  0  0
  -25.1284  -36.1925   25.0821 H   0  0  0  0  0  0
  -21.0008  -28.3340   24.1379 H   0  0  0  0  0  0
  -20.5742  -26.2351   23.3625 H   0  0  0  0  0  0
  -21.6660  -26.7511   22.1179 H   0  0  0  0  0  0
  -19.6933  -25.6319   21.1264 H   0  0  0  0  0  0
  -19.6693  -27.3213   20.6755 H   0  0  0  0  0  0
  -17.4217  -26.6715   21.4035 H   0  0  0  0  0  0
  -18.0339  -26.0103   22.9037 H   0  0  0  0  0  0
  -19.7941  -30.7297   24.2284 H   0  0  0  0  0  0
  -17.5027  -31.6282   24.5190 H   0  0  0  0  0  0
  -15.5367  -30.3025   23.7640 H   0  0  0  0  0  0
  -15.8688  -28.0851   22.7068 H   0  0  0  0  0  0
  -24.5871  -30.7128   25.7735 H   0  0  0  0  0  0
  -24.8918  -32.2927   26.4824 H   0  0  0  0  0  0
  -25.7991  -30.8921   27.0207 H   0  0  0  0  0  0
  -26.2913  -29.6737   24.1206 H   0  0  0  0  0  0
  -27.3996  -29.7247   25.4725 H   0  0  0  0  0  0
  -27.8805  -30.4253   23.9445 H   0  0  0  0  0  0
  -27.2661  -33.3621   26.2059 H   0  0  0  0  0  0
  -28.3852  -32.6887   25.0297 H   0  0  0  0  0  0
  -28.0738  -31.8448   26.5394 H   0  0  0  0  0  0
  -28.2591  -38.0098   24.7515 H   0  0  0  0  0  0
  -28.1080  -36.2626   24.6274 H   0  0  0  0  0  0
  -27.2307  -37.1423   25.8874 H   0  0  0  0  0  0
  -20.9411  -29.8744   21.6781 H   0  0  0  0  0  0
  -26.0166  -38.2845   24.1424 H   0  0  0  0  0  0
  -31.2007  -17.2533   18.5175 H   0  0  0  0  0  0
  -29.9852  -21.2348   18.3512 H   0  0  0  0  0  0
  -30.6644  -18.5387   22.6661 H   0  0  0  0  0  0
  -31.7941  -17.3941   21.9514 H   0  0  0  0  0  0
  -30.5528  -16.8332   23.0716 H   0  0  0  0  0  0
  -28.8556  -22.5834   21.9126 H   0  0  0  0  0  0
  -30.2303  -22.4501   20.9042 H   0  0  0  0  0  0
  -27.6145  -23.2952   19.5514 H   0  0  0  0  0  0
  -29.2338  -23.8025   19.2168 H   0  0  0  0  0  0
  -27.7446  -20.6943   20.3633 H   0  0  0  0  0  0
  -28.7426  -20.3435   21.7240 H   0  0  0  0  0  0
  -28.9686  -25.0955   21.5938 H   0  0  0  0  0  0
  -27.2838  -24.9492   21.2898 H   0  0  0  0  0  0
  -28.8030  -17.5296   21.4932 H   0  0  0  0  0  0
  -28.7603  -15.4881   20.8298 H   0  0  0  0  0  0
  1 25  1  0  0  0
  1 30  2  0  0  0
  1 82  1  0  0  0
  2  3  1  0  0  0
  2 25  1  0  0  0
  2 83  1  0  0  0
  2 84  1  0  0  0
  3  4  1  0  0  0
  3 85  1  0  0  0
  3 86  1  0  0  0
  4  5  1  0  0  0
  4 87  1  0  0  0
  4 88  1  0  0  0
  5  6  1  0  0  0
  5 26  1  0  0  0
  5 89  1  0  0  0
  6 25  1  0  0  0
  6 90  1  0  0  0
  6 91  1  0  0  0
  7  8  2  0  0  0
  7 26  1  0  0  0
  7 29  1  0  0  0
  8  9  1  0  0  0
  8 22  1  0  0  0
  9 10  1  0  0  0
  9 27  2  0  0  0
 10 11  2  0  0  0
 10 15  1  0  0  0
 11 12  1  0  0  0
 11 92  1  0  0  0
 12 13  2  0  0  0
 12 93  1  0  0  0
 13 14  1  0  0  0
 13 31  1  0  0  0
 14 15  2  0  0  0
 14 94  1  0  0  0
 15 95  1  0  0  0
 16 17  2  0  0  0
 16 21  1  0  0  0
 16 31  1  0  0  0
 17 18  1  0  0  0
 17 96  1  0  0  0
 18 19  2  0  0  0
 18 97  1  0  0  0
 19 20  1  0  0  0
 19 24  1  0  0  0
 20 21  2  0  0  0
 20 98  1  0  0  0
 21 23  1  0  0  0
 22 28  1  0  0  0
 22 32  2  0  0  0
 26 27  1  0  0  0
 28 99  1  0  0  0
 28100  1  0  0  0
 29101  1  0  0  0
 29102  1  0  0  0
 33 34  1  0  0  0
 33 66  1  0  0  0
 33 70  2  0  0  0
 34 36  1  0  0  0
 34 59  1  0  0  0
 34103  1  0  0  0
 35 44  2  0  0  0
 35 45  1  0  0  0
 35 68  1  0  0  0
 36 56  1  0  0  0
 36104  1  0  0  0
 37 39  1  0  0  0
 37 47  1  0  0  0
 37 66  1  0  0  0
 37105  1  0  0  0
 38 43  2  0  0  0
 38 46  1  0  0  0
 38 47  1  0  0  0
 39 64  1  0  0  0
 39 67  2  0  0  0
 40 52  1  0  0  0
 40 53  2  0  0  0
 40 58  1  0  0  0
 41106  1  0  0  0
 41107  1  0  0  0
 41108  1  0  0  0
 41 48  1  0  0  0
 42 43  1  0  0  0
 42 66  1  0  0  0
 42109  1  0  0  0
 42110  1  0  0  0
 43 44  1  0  0  0
 44111  1  0  0  0
 45 46  2  0  0  0
 45112  1  0  0  0
 46113  1  0  0  0
 47114  1  0  0  0
 47115  1  0  0  0
 48 56  1  0  0  0
 48 65  1  0  0  0
 48116  1  0  0  0
 49 50  1  0  0  0
 49 53  1  0  0  0
 49 64  1  0  0  0
 49117  1  0  0  0
 50 51  1  0  0  0
 50118  1  0  0  0
 50119  1  0  0  0
 51 52  1  0  0  0
 51120  1  0  0  0
 51121  1  0  0  0
 52122  1  0  0  0
 52123  1  0  0  0
 53 54  1  0  0  0
 54 55  2  0  0  0
 54124  1  0  0  0
 55 57  1  0  0  0
 55125  1  0  0  0
 56 69  2  0  0  0
 57 58  2  0  0  0
 57126  1  0  0  0
 58127  1  0  0  0
 59 60  1  0  0  0
 59 61  1  0  0  0
 59 62  1  0  0  0
 60128  1  0  0  0
 60129  1  0  0  0
 60130  1  0  0  0
 61131  1  0  0  0
 61132  1  0  0  0
 61133  1  0  0  0
 62134  1  0  0  0
 62135  1  0  0  0
 62136  1  0  0  0
 63 65  1  0  0  0
 63137  1  0  0  0
 63138  1  0  0  0
 63139  1  0  0  0
 64140  1  0  0  0
 65141  1  0  0  0
 68 78  1  0  0  0
 71 73  2  0  0  0
 71 80  1  0  0  0
 71142  1  0  0  0
 72 80  2  0  0  0
 72 81  1  0  0  0
 72143  1  0  0  0
 73 79  1  0  0  0
 73 81  1  0  0  0
 74144  1  0  0  0
 74145  1  0  0  0
 74146  1  0  0  0
 74 79  1  0  0  0
 75 76  1  0  0  0
 75 77  1  0  0  0
 75147  1  0  0  0
 75148  1  0  0  0
 76 78  1  0  0  0
 76149  1  0  0  0
 76150  1  0  0  0
 77 81  1  0  0  0
 77151  1  0  0  0
 77152  1  0  0  0
 78153  1  0  0  0
 78154  1  0  0  0
 79 82  1  0  0  0
 79155  1  0  0  0
 82156  1  0  0  0
M  ISO  4   1 100  68 101  78 101  82 100
M  END
> <chiral flag>
0

> <version>
0

> <s_m_source_file>
/data/baiqing/PycharmProjects/Reinvent-master-3.2/result/LINK_invent/BTK/process_docking_weight1_custom_sum_contain_oxygen_bond_distance_aromatic_linkinvent_7_9_3/rearranged_h_0080.sdf

> <i_m_source_file_index>
12

> <r_mmod_Potential_Energy-OPLS-2005>
224.021850585938

> <r_mmod_Stretch_Energy-OPLS-2005>
134.725189208984

> <r_mmod_Bend_Energy-OPLS-2005>
224.264938354492

> <r_mmod_Torsional_Energy-OPLS-2005>
248.170745849609

> <r_mmod_Improper_Torsional_Energy-OPLS-2005>
4.83258724212646

> <r_mmod_Van_der_Waal_Energy-OPLS-2005>
103.20719909668

> <r_mmod_Electrostatic_Energy-OPLS-2005>
-349.774383544922

> <r_mmod_Solvation_Energy-OPLS-2005>
-230.438125610352

> <b_mmod_Minimization_Converged-OPLS-2005>
0

> <r_mmod_RMS_Derivative-OPLS-2005>
2.2256715297699

$$$$
14
                    3D
 Structure written by MMmdl.
163171  0  0  1  0            999 V2000
  -30.7097  -14.3978   20.6350 C   0  0  0  0  0  0
  -30.4295  -12.2845   19.3946 C   0  0  0  0  0  0
  -29.4930  -12.5134   18.1906 C   0  0  0  0  0  0
  -28.0121  -12.3826   18.6030 C   0  0  0  0  0  0
  -27.6694  -13.1966   19.8786 C   0  0  2  0  0  0
  -28.7063  -12.9126   20.9876 C   0  0  0  0  0  0
  -25.2631  -13.8144   20.5665 C   0  0  0  0  0  0
  -24.1864  -13.0439   20.9170 C   0  0  0  0  0  0
  -24.6393  -11.6901   20.8712 C   0  0  0  0  0  0
  -23.9042  -10.4293   21.0398 C   0  0  0  0  0  0
  -24.3599   -9.4207   21.9182 C   0  0  0  0  0  0
  -23.6278   -8.2237   22.0756 C   0  0  0  0  0  0
  -22.4261   -8.0270   21.3537 C   0  0  0  0  0  0
  -21.9892   -9.0239   20.4637 C   0  0  0  0  0  0
  -22.7220  -10.2125   20.3045 C   0  0  0  0  0  0
  -21.6853   -6.0720   22.5278 C   0  0  0  0  0  0
  -21.4014   -6.5625   23.8204 C   0  0  0  0  0  0
  -21.3663   -5.6783   24.9170 C   0  0  0  0  0  0
  -21.6042   -4.3048   24.7229 C   0  0  0  0  0  0
  -21.8822   -3.8135   23.4349 C   0  0  0  0  0  0
  -21.9190   -4.6943   22.3407 C   0  0  0  0  0  0
  -22.7883  -13.5241   21.1834 C   0  0  0  0  0  0
  -22.1658   -4.2127   21.0986 F   0  0  0  0  0  0
  -21.5627   -3.4539   25.7742 F   0  0  0  0  0  0
  -30.0464  -13.2268   20.4534 N   0  0  0  0  0  0
  -26.3055  -12.9295   20.3345 N   0  0  0  0  0  0
  -25.9313  -11.6465   20.5729 N   0  0  0  0  0  0
  -22.0502  -12.8234   22.0376 N   0  0  0  0  0  0
  -25.4403  -15.1854   20.4067 N   0  0  0  0  0  0
  -31.7742  -14.6823   20.0793 O   0  0  0  0  0  0
  -21.6632   -6.8859   21.4236 O   0  0  0  0  0  0
  -22.3574  -14.5555   20.6692 O   0  0  0  0  0  0
  -24.6138  -31.8686   23.2104 C   0  0  0  0  0  0
  -25.9034  -32.4821   23.8400 C   0  0  1  0  0  0
  -27.2389  -27.4561   20.0788 C   0  0  0  0  0  0
  -25.5898  -33.8626   24.2313 N   0  0  0  0  0  0
  -23.4001  -30.4912   21.5519 C   0  0  2  0  0  0
  -24.8430  -28.9570   20.1208 C   0  0  0  0  0  0
  -22.7402  -29.4653   22.5013 C   0  0  0  0  0  0
  -18.0247  -28.1372   22.8474 C   0  0  0  0  0  0
  -24.1495  -36.7311   23.2640 C   0  0  0  0  0  0
  -25.9276  -30.8384   21.3609 C   0  0  0  0  0  0
  -26.0034  -29.4757   20.7055 C   0  0  0  0  0  0
  -27.2014  -28.7335   20.6763 C   0  0  0  0  0  0
  -26.0524  -26.9326   19.5127 C   0  0  0  0  0  0
  -24.8610  -27.6827   19.5267 C   0  0  0  0  0  0
  -23.6045  -29.8212   20.1678 C   0  0  0  0  0  0
  -25.4125  -36.3113   24.0326 C   0  0  1  0  0  0
  -20.5849  -28.3652   23.1329 C   0  0  2  0  0  0
  -20.6746  -26.9388   22.5435 C   0  0  0  0  0  0
  -19.5732  -26.6379   21.5216 C   0  0  0  0  0  0
  -18.1896  -26.7919   22.1604 C   0  0  0  0  0  0
  -19.1506  -28.8826   23.2885 C   0  0  0  0  0  0
  -18.9449  -30.1434   23.8888 C   0  0  0  0  0  0
  -17.6454  -30.6574   24.0568 C   0  0  0  0  0  0
  -25.9056  -34.9474   23.5113 C   0  0  0  0  0  0
  -16.5339  -29.9089   23.6342 C   0  0  0  0  0  0
  -16.7239  -28.6512   23.0332 C   0  0  0  0  0  0
  -26.4472  -31.6630   25.0747 C   0  0  0  0  0  0
  -25.3730  -31.3763   26.1499 C   0  0  0  0  0  0
  -27.0327  -30.3077   24.6135 C   0  0  0  0  0  0
  -27.6015  -32.4416   25.7510 C   0  0  0  0  0  0
  -27.5574  -37.1811   24.8452 C   0  0  0  0  0  0
  -21.4138  -29.3024   22.3749 N   0  0  0  0  0  0
  -26.4298  -37.3803   23.9390 N   0  0  0  0  0  0
  -24.6649  -31.0811   22.0990 N   0  0  0  0  0  0
  -23.4188  -28.8183   23.3029 O   0  0  0  0  0  0
  -28.4530  -26.8047   20.0505 O   0  0  0  0  0  0
  -26.5622  -34.8917   22.4674 O   0  0  0  0  0  0
  -23.5336  -32.1432   23.7522 O   0  0  0  0  0  0
  -29.0987  -20.1195   21.0697 C   0  0  0  0  0  0
  -28.9135  -18.7658   21.2269 C   0  0  0  0  0  0
  -27.5157  -19.8368   22.6000 C   0  0  0  0  0  0
  -26.4798  -20.0649   23.6521 C   0  0  0  0  0  0
  -29.0658  -25.1351   22.3070 C   0  0  0  0  0  0
  -29.5396  -17.5653   20.5808 C   0  0  0  0  0  0
  -28.4158  -23.0912   20.9130 C   0  0  0  0  0  0
  -28.0169  -22.2065   22.1152 C   0  0  0  0  0  0
  -30.3340  -16.6973   21.5860 C   0  0  0  0  0  0
  -28.5224  -25.3944   19.8436 C   0  0  0  0  0  0
  -28.2083  -24.6092   21.1371 C   0  0  2  0  0  0
  -28.2043  -20.7565   21.9028 N   0  0  0  0  0  0
  -27.9221  -18.6416   22.1663 N   0  3  0  0  0  0
  -30.0588  -15.2721   21.4097 N   0  0  0  0  0  0
  -31.4725  -12.3980   19.0934 H   0  0  0  0  0  0
  -30.3365  -11.2605   19.7594 H   0  0  0  0  0  0
  -29.7208  -11.7978   17.3998 H   0  0  0  0  0  0
  -29.6730  -13.5030   17.7665 H   0  0  0  0  0  0
  -27.8089  -11.3253   18.7766 H   0  0  0  0  0  0
  -27.3653  -12.6836   17.7783 H   0  0  0  0  0  0
  -27.7332  -14.2537   19.6184 H   0  0  0  0  0  0
  -28.6715  -11.8580   21.2662 H   0  0  0  0  0  0
  -28.4573  -13.4511   21.9024 H   0  0  0  0  0  0
  -25.2751   -9.5671   22.4753 H   0  0  0  0  0  0
  -23.9975   -7.4627   22.7491 H   0  0  0  0  0  0
  -21.0817   -8.8759   19.8948 H   0  0  0  0  0  0
  -22.3689  -10.9651   19.6138 H   0  0  0  0  0  0
  -21.2017   -7.6132   23.9700 H   0  0  0  0  0  0
  -21.1479   -6.0517   25.9067 H   0  0  0  0  0  0
  -22.0603   -2.7595   23.2867 H   0  0  0  0  0  0
  -22.4088  -11.9878   22.4754 H   0  0  0  0  0  0
  -21.1108  -13.1256   22.2546 H   0  0  0  0  0  0
  -24.6729  -15.8427   20.4895 H   0  0  0  0  0  0
  -26.2768  -15.6012   20.0187 H   0  0  0  0  0  0
  -26.7097  -32.5527   23.1158 H   0  0  0  0  0  0
  -25.0088  -33.9814   25.0483 H   0  0  0  0  0  0
  -22.6866  -31.3048   21.4120 H   0  0  0  0  0  0
  -23.3756  -35.9643   23.3337 H   0  0  0  0  0  0
  -24.3593  -36.8920   22.2046 H   0  0  0  0  0  0
  -23.7248  -37.6519   23.6662 H   0  0  0  0  0  0
  -26.0471  -31.6069   20.5968 H   0  0  0  0  0  0
  -26.8137  -30.8859   21.9832 H   0  0  0  0  0  0
  -28.1076  -29.1406   21.1047 H   0  0  0  0  0  0
  -26.0233  -25.9630   19.0396 H   0  0  0  0  0  0
  -23.9665  -27.2744   19.0802 H   0  0  0  0  0  0
  -23.7098  -30.5938   19.4047 H   0  0  0  0  0  0
  -22.7295  -29.2375   19.8761 H   0  0  0  0  0  0
  -25.1305  -36.1991   25.0822 H   0  0  0  0  0  0
  -20.9906  -28.3203   24.1467 H   0  0  0  0  0  0
  -20.5681  -26.2226   23.3606 H   0  0  0  0  0  0
  -21.6606  -26.7455   22.1203 H   0  0  0  0  0  0
  -19.6915  -25.6308   21.1205 H   0  0  0  0  0  0
  -19.6690  -27.3211   20.6763 H   0  0  0  0  0  0
  -17.4185  -26.6673   21.3979 H   0  0  0  0  0  0
  -18.0276  -26.0059   22.8992 H   0  0  0  0  0  0
  -19.7932  -30.7240   24.2240 H   0  0  0  0  0  0
  -17.5020  -31.6248   24.5183 H   0  0  0  0  0  0
  -15.5341  -30.2979   23.7696 H   0  0  0  0  0  0
  -15.8630  -28.0848   22.7031 H   0  0  0  0  0  0
  -24.5856  -30.7169   25.7841 H   0  0  0  0  0  0
  -24.8969  -32.2932   26.4989 H   0  0  0  0  0  0
  -25.8068  -30.8893   27.0240 H   0  0  0  0  0  0
  -26.2882  -29.6832   24.1175 H   0  0  0  0  0  0
  -27.4090  -29.7344   25.4622 H   0  0  0  0  0  0
  -27.8717  -30.4424   23.9301 H   0  0  0  0  0  0
  -27.2577  -33.3696   26.2102 H   0  0  0  0  0  0
  -28.3789  -32.7051   25.0324 H   0  0  0  0  0  0
  -28.0715  -31.8560   26.5421 H   0  0  0  0  0  0
  -28.2602  -38.0103   24.7523 H   0  0  0  0  0  0
  -28.1067  -36.2637   24.6273 H   0  0  0  0  0  0
  -27.2286  -37.1456   25.8856 H   0  0  0  0  0  0
  -20.9301  -29.8781   21.7003 H   0  0  0  0  0  0
  -26.0190  -38.2884   24.1410 H   0  0  0  0  0  0
  -29.7847  -20.6595   20.4307 H   0  0  0  0  0  0
  -25.5688  -20.4136   23.1672 H   0  0  0  0  0  0
  -26.8458  -20.8073   24.3614 H   0  0  0  0  0  0
  -26.2913  -19.1247   24.1714 H   0  0  0  0  0  0
  -28.7738  -24.6915   23.2575 H   0  0  0  0  0  0
  -28.9598  -26.2130   22.4292 H   0  0  0  0  0  0
  -30.1248  -24.9273   22.1489 H   0  0  0  0  0  0
  -30.1918  -17.8888   19.7684 H   0  0  0  0  0  0
  -28.7417  -16.9888   20.1111 H   0  0  0  0  0  0
  -27.8305  -22.7804   20.0463 H   0  0  0  0  0  0
  -29.4596  -22.9159   20.6525 H   0  0  0  0  0  0
  -26.9655  -22.3815   22.3434 H   0  0  0  0  0  0
  -28.5845  -22.4685   23.0081 H   0  0  0  0  0  0
  -30.0447  -16.9349   22.6097 H   0  0  0  0  0  0
  -31.4009  -16.9158   21.5179 H   0  0  0  0  0  0
  -27.9122  -25.0607   19.0052 H   0  0  0  0  0  0
  -29.5484  -25.1795   19.5439 H   0  0  0  0  0  0
  -27.1590  -24.7787   21.3815 H   0  0  0  0  0  0
  -27.5425  -17.7638   22.5025 H   0  0  0  0  0  0
  -29.2198  -14.9149   21.8425 H   0  0  0  0  0  0
  1 25  1  0  0  0
  1 30  2  0  0  0
  1 84  1  0  0  0
  2  3  1  0  0  0
  2 25  1  0  0  0
  2 85  1  0  0  0
  2 86  1  0  0  0
  3  4  1  0  0  0
  3 87  1  0  0  0
  3 88  1  0  0  0
  4  5  1  0  0  0
  4 89  1  0  0  0
  4 90  1  0  0  0
  5  6  1  0  0  0
  5 26  1  0  0  0
  5 91  1  0  0  0
  6 25  1  0  0  0
  6 92  1  0  0  0
  6 93  1  0  0  0
  7  8  2  0  0  0
  7 26  1  0  0  0
  7 29  1  0  0  0
  8  9  1  0  0  0
  8 22  1  0  0  0
  9 10  1  0  0  0
  9 27  2  0  0  0
 10 11  2  0  0  0
 10 15  1  0  0  0
 11 12  1  0  0  0
 11 94  1  0  0  0
 12 13  2  0  0  0
 12 95  1  0  0  0
 13 14  1  0  0  0
 13 31  1  0  0  0
 14 15  2  0  0  0
 14 96  1  0  0  0
 15 97  1  0  0  0
 16 17  2  0  0  0
 16 21  1  0  0  0
 16 31  1  0  0  0
 17 18  1  0  0  0
 17 98  1  0  0  0
 18 19  2  0  0  0
 18 99  1  0  0  0
 19 20  1  0  0  0
 19 24  1  0  0  0
 20 21  2  0  0  0
 20100  1  0  0  0
 21 23  1  0  0  0
 22 28  1  0  0  0
 22 32  2  0  0  0
 26 27  1  0  0  0
 28101  1  0  0  0
 28102  1  0  0  0
 29103  1  0  0  0
 29104  1  0  0  0
 33 34  1  0  0  0
 33 66  1  0  0  0
 33 70  2  0  0  0
 34 36  1  0  0  0
 34 59  1  0  0  0
 34105  1  0  0  0
 35 44  2  0  0  0
 35 45  1  0  0  0
 35 68  1  0  0  0
 36 56  1  0  0  0
 36106  1  0  0  0
 37 39  1  0  0  0
 37 47  1  0  0  0
 37 66  1  0  0  0
 37107  1  0  0  0
 38 43  2  0  0  0
 38 46  1  0  0  0
 38 47  1  0  0  0
 39 64  1  0  0  0
 39 67  2  0  0  0
 40 52  1  0  0  0
 40 53  2  0  0  0
 40 58  1  0  0  0
 41108  1  0  0  0
 41109  1  0  0  0
 41110  1  0  0  0
 41 48  1  0  0  0
 42 43  1  0  0  0
 42 66  1  0  0  0
 42111  1  0  0  0
 42112  1  0  0  0
 43 44  1  0  0  0
 44113  1  0  0  0
 45 46  2  0  0  0
 45114  1  0  0  0
 46115  1  0  0  0
 47116  1  0  0  0
 47117  1  0  0  0
 48 56  1  0  0  0
 48 65  1  0  0  0
 48118  1  0  0  0
 49 50  1  0  0  0
 49 53  1  0  0  0
 49 64  1  0  0  0
 49119  1  0  0  0
 50 51  1  0  0  0
 50120  1  0  0  0
 50121  1  0  0  0
 51 52  1  0  0  0
 51122  1  0  0  0
 51123  1  0  0  0
 52124  1  0  0  0
 52125  1  0  0  0
 53 54  1  0  0  0
 54 55  2  0  0  0
 54126  1  0  0  0
 55 57  1  0  0  0
 55127  1  0  0  0
 56 69  2  0  0  0
 57 58  2  0  0  0
 57128  1  0  0  0
 58129  1  0  0  0
 59 60  1  0  0  0
 59 61  1  0  0  0
 59 62  1  0  0  0
 60130  1  0  0  0
 60131  1  0  0  0
 60132  1  0  0  0
 61133  1  0  0  0
 61134  1  0  0  0
 61135  1  0  0  0
 62136  1  0  0  0
 62137  1  0  0  0
 62138  1  0  0  0
 63 65  1  0  0  0
 63139  1  0  0  0
 63140  1  0  0  0
 63141  1  0  0  0
 64142  1  0  0  0
 65143  1  0  0  0
 68 80  1  0  0  0
 71 72  2  0  0  0
 71 82  1  0  0  0
 71144  1  0  0  0
 72 76  1  0  0  0
 72 83  1  0  0  0
 73 74  1  0  0  0
 73 82  1  0  0  0
 73 83  2  0  0  0
 74145  1  0  0  0
 74146  1  0  0  0
 74147  1  0  0  0
 75148  1  0  0  0
 75149  1  0  0  0
 75150  1  0  0  0
 75 81  1  0  0  0
 76 79  1  0  0  0
 76151  1  0  0  0
 76152  1  0  0  0
 77 78  1  0  0  0
 77 81  1  0  0  0
 77153  1  0  0  0
 77154  1  0  0  0
 78 82  1  0  0  0
 78155  1  0  0  0
 78156  1  0  0  0
 79 84  1  0  0  0
 79157  1  0  0  0
 79158  1  0  0  0
 80 81  1  0  0  0
 80159  1  0  0  0
 80160  1  0  0  0
 81161  1  0  0  0
 83162  1  0  0  0
 84163  1  0  0  0
M  CHG  1  83   1
M  ISO  4   1 100  68 101  80 101  84 100
M  END
> <chiral flag>
0

> <version>
0

> <s_m_source_file>
/data/baiqing/PycharmProjects/Reinvent-master-3.2/result/LINK_invent/BTK/process_docking_weight1_custom_sum_contain_oxygen_bond_distance_aromatic_linkinvent_7_9_3/rearranged_h_0080.sdf

> <i_m_source_file_index>
13

> <r_mmod_Potential_Energy-OPLS-2005>
-135.828140258789

> <r_mmod_Stretch_Energy-OPLS-2005>
32.638298034668

> <r_mmod_Bend_Energy-OPLS-2005>
100.684036254883

> <r_mmod_Torsional_Energy-OPLS-2005>
219.134048461914

> <r_mmod_Improper_Torsional_Energy-OPLS-2005>
3.05389928817749

> <r_mmod_Van_der_Waal_Energy-OPLS-2005>
131.707885742188

> <r_mmod_Electrostatic_Energy-OPLS-2005>
-202.994888305664

> <r_mmod_Solvation_Energy-OPLS-2005>
-428.867309570312

> <b_mmod_Minimization_Converged-OPLS-2005>
0

> <r_mmod_RMS_Derivative-OPLS-2005>
2.46150994300842

$$$$
15
                    3D
 Structure written by MMmdl.
163171  0  0  1  0            999 V2000
  -30.6478  -14.5594   20.5816 C   0  0  0  0  0  0
  -30.4564  -12.3588   19.4563 C   0  0  0  0  0  0
  -29.5231  -12.5146   18.2378 C   0  0  0  0  0  0
  -28.0412  -12.3588   18.6439 C   0  0  0  0  0  0
  -27.6737  -13.2001   19.8947 C   0  0  2  0  0  0
  -28.7152  -12.9990   21.0189 C   0  0  0  0  0  0
  -25.2679  -13.8157   20.5668 C   0  0  0  0  0  0
  -24.1914  -13.0452   20.9201 C   0  0  0  0  0  0
  -24.6434  -11.6912   20.8760 C   0  0  0  0  0  0
  -23.9100  -10.4305   21.0427 C   0  0  0  0  0  0
  -24.3640   -9.4190   21.9178 C   0  0  0  0  0  0
  -23.6294   -8.2229   22.0734 C   0  0  0  0  0  0
  -22.4267   -8.0291   21.3525 C   0  0  0  0  0  0
  -21.9934   -9.0284   20.4623 C   0  0  0  0  0  0
  -22.7290  -10.2151   20.3048 C   0  0  0  0  0  0
  -21.6848   -6.0731   22.5259 C   0  0  0  0  0  0
  -21.4015   -6.5643   23.8189 C   0  0  0  0  0  0
  -21.3659   -5.6792   24.9147 C   0  0  0  0  0  0
  -21.6063   -4.3056   24.7201 C   0  0  0  0  0  0
  -21.8827   -3.8148   23.4327 C   0  0  0  0  0  0
  -21.9200   -4.6961   22.3383 C   0  0  0  0  0  0
  -22.7912  -13.5244   21.1804 C   0  0  0  0  0  0
  -22.1659   -4.2153   21.0944 F   0  0  0  0  0  0
  -21.5636   -3.4540   25.7712 F   0  0  0  0  0  0
  -30.0325  -13.3467   20.4602 N   0  0  0  0  0  0
  -26.3109  -12.9294   20.3447 N   0  0  0  0  0  0
  -25.9371  -11.6474   20.5842 N   0  0  0  0  0  0
  -22.0586  -12.8209   22.0357 N   0  0  0  0  0  0
  -25.4588  -15.1853   20.3971 N   0  0  0  0  0  0
  -31.7913  -14.7669   20.1670 O   0  0  0  0  0  0
  -21.6641   -6.8879   21.4209 O   0  0  0  0  0  0
  -22.3601  -14.5538   20.6645 O   0  0  0  0  0  0
  -24.6176  -31.8686   23.2032 C   0  0  0  0  0  0
  -25.9054  -32.4844   23.8370 C   0  0  1  0  0  0
  -27.2448  -27.3925   20.1181 C   0  0  0  0  0  0
  -25.5881  -33.8641   24.2285 N   0  0  0  0  0  0
  -23.4100  -30.4889   21.5433 C   0  0  2  0  0  0
  -24.8670  -28.9497   20.1074 C   0  0  0  0  0  0
  -22.7442  -29.4657   22.4942 C   0  0  0  0  0  0
  -18.0290  -28.1377   22.8491 C   0  0  0  0  0  0
  -24.1442  -36.7351   23.2625 C   0  0  0  0  0  0
  -25.9433  -30.8198   21.3676 C   0  0  0  0  0  0
  -26.0263  -29.4454   20.7259 C   0  0  0  0  0  0
  -27.2154  -28.6696   20.7391 C   0  0  0  0  0  0
  -26.0854  -26.9471   19.4491 C   0  0  0  0  0  0
  -24.8983  -27.7026   19.4624 C   0  0  0  0  0  0
  -23.6263  -29.8204   20.1574 C   0  0  0  0  0  0
  -25.4066  -36.3127   24.0312 C   0  0  1  0  0  0
  -20.5866  -28.3687   23.1279 C   0  0  2  0  0  0
  -20.6768  -26.9421   22.5376 C   0  0  0  0  0  0
  -19.5740  -26.6389   21.5182 C   0  0  0  0  0  0
  -18.1925  -26.7951   22.1583 C   0  0  0  0  0  0
  -19.1534  -28.8852   23.2897 C   0  0  0  0  0  0
  -18.9469  -30.1457   23.8899 C   0  0  0  0  0  0
  -17.6471  -30.6593   24.0554 C   0  0  0  0  0  0
  -25.9003  -34.9496   23.5097 C   0  0  0  0  0  0
  -16.5349  -29.9089   23.6316 C   0  0  0  0  0  0
  -16.7268  -28.6506   23.0374 C   0  0  0  0  0  0
  -26.4462  -31.6667   25.0714 C   0  0  0  0  0  0
  -25.3717  -31.3831   26.1458 C   0  0  0  0  0  0
  -27.0286  -30.3107   24.6119 C   0  0  0  0  0  0
  -27.5991  -32.4421   25.7493 C   0  0  0  0  0  0
  -27.5537  -37.1820   24.8450 C   0  0  0  0  0  0
  -21.4164  -29.3066   22.3708 N   0  0  0  0  0  0
  -26.4229  -37.3823   23.9410 N   0  0  0  0  0  0
  -24.6743  -31.0757   22.0953 N   0  0  0  0  0  0
  -23.4216  -28.8184   23.2979 O   0  0  0  0  0  0
  -28.3504  -26.5527   20.1429 O   0  0  0  0  0  0
  -26.5567  -34.8952   22.4652 O   0  0  0  0  0  0
  -23.5358  -32.1468   23.7395 O   0  0  0  0  0  0
  -31.2644  -20.0264   22.2936 C   0  0  0  0  0  0
  -30.2444  -20.3969   21.4583 C   0  0  0  0  0  0
  -31.1599  -22.2413   22.3679 C   0  0  0  0  0  0
  -31.5884  -23.6111   22.8077 C   0  0  0  0  0  0
  -26.9925  -25.0177   21.6497 C   0  0  0  0  0  0
  -29.3307  -19.4710   20.6641 C   0  0  0  0  0  0
  -29.8679  -18.0385   20.2690 C   0  0  0  0  0  0
  -29.3724  -24.2829   20.8123 C   0  0  0  0  0  0
  -29.2450  -22.6916   20.7297 C   0  0  0  0  0  0
  -30.1487  -16.9771   21.3904 C   0  0  0  0  0  0
  -28.3920  -25.4944   21.1612 C   0  0  1  0  0  0
  -30.1951  -21.8048   21.5103 N   0  0  0  0  0  0
  -31.7847  -21.1602   22.8319 N   0  3  0  0  0  0
  -29.8587  -15.5539   21.0566 N   0  0  0  0  0  0
  -31.4995  -12.4984   19.1575 H   0  0  0  0  0  0
  -30.3990  -11.3510   19.8685 H   0  0  0  0  0  0
  -29.7806  -11.7771   17.4782 H   0  0  0  0  0  0
  -29.6788  -13.4973   17.7901 H   0  0  0  0  0  0
  -27.8539  -11.3030   18.8389 H   0  0  0  0  0  0
  -27.3990  -12.6361   17.8090 H   0  0  0  0  0  0
  -27.7189  -14.2463   19.5932 H   0  0  0  0  0  0
  -28.7167  -11.9627   21.3632 H   0  0  0  0  0  0
  -28.4660  -13.5903   21.9026 H   0  0  0  0  0  0
  -25.2809   -9.5624   22.4731 H   0  0  0  0  0  0
  -24.0014   -7.4602   22.7418 H   0  0  0  0  0  0
  -21.0898   -8.8835   19.8887 H   0  0  0  0  0  0
  -22.3818  -10.9692   19.6142 H   0  0  0  0  0  0
  -21.2002   -7.6153   23.9686 H   0  0  0  0  0  0
  -21.1469   -6.0519   25.9048 H   0  0  0  0  0  0
  -22.0614   -2.7618   23.2824 H   0  0  0  0  0  0
  -22.4256  -11.9891   22.4756 H   0  0  0  0  0  0
  -21.1154  -13.1111   22.2494 H   0  0  0  0  0  0
  -24.7248  -15.8742   20.5123 H   0  0  0  0  0  0
  -26.3160  -15.5811   20.0314 H   0  0  0  0  0  0
  -26.7149  -32.5591   23.1164 H   0  0  0  0  0  0
  -25.0139  -33.9847   25.0497 H   0  0  0  0  0  0
  -22.7005  -31.3049   21.4023 H   0  0  0  0  0  0
  -23.3691  -35.9701   23.3303 H   0  0  0  0  0  0
  -24.3513  -36.8965   22.2039 H   0  0  0  0  0  0
  -23.7239  -37.6560   23.6661 H   0  0  0  0  0  0
  -26.0522  -31.5814   20.5963 H   0  0  0  0  0  0
  -26.8274  -30.8871   21.9871 H   0  0  0  0  0  0
  -28.0986  -29.0395   21.2425 H   0  0  0  0  0  0
  -26.1012  -25.9933   18.9446 H   0  0  0  0  0  0
  -24.0208  -27.3225   18.9565 H   0  0  0  0  0  0
  -23.7360  -30.5974   19.3985 H   0  0  0  0  0  0
  -22.7467  -29.2444   19.8590 H   0  0  0  0  0  0
  -25.1246  -36.1953   25.0801 H   0  0  0  0  0  0
  -20.9957  -28.3254   24.1390 H   0  0  0  0  0  0
  -20.5700  -26.2288   23.3603 H   0  0  0  0  0  0
  -21.6654  -26.7511   22.1149 H   0  0  0  0  0  0
  -19.6920  -25.6304   21.1256 H   0  0  0  0  0  0
  -19.6657  -27.3185   20.6724 H   0  0  0  0  0  0
  -17.4201  -26.6740   21.3985 H   0  0  0  0  0  0
  -18.0259  -26.0092   22.8963 H   0  0  0  0  0  0
  -19.7951  -30.7265   24.2250 H   0  0  0  0  0  0
  -17.5031  -31.6257   24.5162 H   0  0  0  0  0  0
  -15.5352  -30.2977   23.7642 H   0  0  0  0  0  0
  -15.8691  -28.0791   22.7094 H   0  0  0  0  0  0
  -24.5893  -30.7167   25.7857 H   0  0  0  0  0  0
  -24.8895  -32.3008   26.4823 H   0  0  0  0  0  0
  -25.8046  -30.9115   27.0286 H   0  0  0  0  0  0
  -26.2863  -29.6901   24.1098 H   0  0  0  0  0  0
  -27.4014  -29.7305   25.4564 H   0  0  0  0  0  0
  -27.8681  -30.4434   23.9293 H   0  0  0  0  0  0
  -27.2577  -33.3737   26.2027 H   0  0  0  0  0  0
  -28.3820  -32.6980   25.0355 H   0  0  0  0  0  0
  -28.0650  -31.8601   26.5467 H   0  0  0  0  0  0
  -28.2556  -38.0115   24.7448 H   0  0  0  0  0  0
  -28.1020  -36.2633   24.6296 H   0  0  0  0  0  0
  -27.2244  -37.1485   25.8852 H   0  0  0  0  0  0
  -20.9324  -29.8811   21.6962 H   0  0  0  0  0  0
  -26.0108  -38.2870   24.1501 H   0  0  0  0  0  0
  -31.6571  -19.0572   22.5553 H   0  0  0  0  0  0
  -32.1134  -24.1088   21.9908 H   0  0  0  0  0  0
  -32.2648  -23.4922   23.6558 H   0  0  0  0  0  0
  -30.7449  -24.1923   23.1675 H   0  0  0  0  0  0
  -27.0684  -24.4099   22.5491 H   0  0  0  0  0  0
  -26.4668  -24.4283   20.8999 H   0  0  0  0  0  0
  -26.3523  -25.8527   21.9311 H   0  0  0  0  0  0
  -29.0604  -19.9860   19.7406 H   0  0  0  0  0  0
  -28.3955  -19.3512   21.2140 H   0  0  0  0  0  0
  -30.7676  -18.1400   19.6580 H   0  0  0  0  0  0
  -29.1160  -17.6261   19.5926 H   0  0  0  0  0  0
  -29.1183  -24.0266   21.8378 H   0  0  0  0  0  0
  -28.7802  -24.2561   19.8954 H   0  0  0  0  0  0
  -29.4021  -22.3732   19.6940 H   0  0  0  0  0  0
  -28.2345  -22.3553   20.9734 H   0  0  0  0  0  0
  -29.5408  -17.2283   22.2600 H   0  0  0  0  0  0
  -31.1838  -17.0602   21.7165 H   0  0  0  0  0  0
  -28.8457  -26.0249   22.0045 H   0  0  0  0  0  0
  -32.5540  -21.1778   23.4906 H   0  0  0  0  0  0
  -28.9312  -15.2386   21.2983 H   0  0  0  0  0  0
  1 25  1  0  0  0
  1 30  2  0  0  0
  1 84  1  0  0  0
  2  3  1  0  0  0
  2 25  1  0  0  0
  2 85  1  0  0  0
  2 86  1  0  0  0
  3  4  1  0  0  0
  3 87  1  0  0  0
  3 88  1  0  0  0
  4  5  1  0  0  0
  4 89  1  0  0  0
  4 90  1  0  0  0
  5  6  1  0  0  0
  5 26  1  0  0  0
  5 91  1  0  0  0
  6 25  1  0  0  0
  6 92  1  0  0  0
  6 93  1  0  0  0
  7  8  2  0  0  0
  7 26  1  0  0  0
  7 29  1  0  0  0
  8  9  1  0  0  0
  8 22  1  0  0  0
  9 10  1  0  0  0
  9 27  2  0  0  0
 10 11  2  0  0  0
 10 15  1  0  0  0
 11 12  1  0  0  0
 11 94  1  0  0  0
 12 13  2  0  0  0
 12 95  1  0  0  0
 13 14  1  0  0  0
 13 31  1  0  0  0
 14 15  2  0  0  0
 14 96  1  0  0  0
 15 97  1  0  0  0
 16 17  2  0  0  0
 16 21  1  0  0  0
 16 31  1  0  0  0
 17 18  1  0  0  0
 17 98  1  0  0  0
 18 19  2  0  0  0
 18 99  1  0  0  0
 19 20  1  0  0  0
 19 24  1  0  0  0
 20 21  2  0  0  0
 20100  1  0  0  0
 21 23  1  0  0  0
 22 28  1  0  0  0
 22 32  2  0  0  0
 26 27  1  0  0  0
 28101  1  0  0  0
 28102  1  0  0  0
 29103  1  0  0  0
 29104  1  0  0  0
 33 34  1  0  0  0
 33 66  1  0  0  0
 33 70  2  0  0  0
 34 36  1  0  0  0
 34 59  1  0  0  0
 34105  1  0  0  0
 35 44  2  0  0  0
 35 45  1  0  0  0
 35 68  1  0  0  0
 36 56  1  0  0  0
 36106  1  0  0  0
 37 39  1  0  0  0
 37 47  1  0  0  0
 37 66  1  0  0  0
 37107  1  0  0  0
 38 43  2  0  0  0
 38 46  1  0  0  0
 38 47  1  0  0  0
 39 64  1  0  0  0
 39 67  2  0  0  0
 40 52  1  0  0  0
 40 53  2  0  0  0
 40 58  1  0  0  0
 41108  1  0  0  0
 41109  1  0  0  0
 41110  1  0  0  0
 41 48  1  0  0  0
 42 43  1  0  0  0
 42 66  1  0  0  0
 42111  1  0  0  0
 42112  1  0  0  0
 43 44  1  0  0  0
 44113  1  0  0  0
 45 46  2  0  0  0
 45114  1  0  0  0
 46115  1  0  0  0
 47116  1  0  0  0
 47117  1  0  0  0
 48 56  1  0  0  0
 48 65  1  0  0  0
 48118  1  0  0  0
 49 50  1  0  0  0
 49 53  1  0  0  0
 49 64  1  0  0  0
 49119  1  0  0  0
 50 51  1  0  0  0
 50120  1  0  0  0
 50121  1  0  0  0
 51 52  1  0  0  0
 51122  1  0  0  0
 51123  1  0  0  0
 52124  1  0  0  0
 52125  1  0  0  0
 53 54  1  0  0  0
 54 55  2  0  0  0
 54126  1  0  0  0
 55 57  1  0  0  0
 55127  1  0  0  0
 56 69  2  0  0  0
 57 58  2  0  0  0
 57128  1  0  0  0
 58129  1  0  0  0
 59 60  1  0  0  0
 59 61  1  0  0  0
 59 62  1  0  0  0
 60130  1  0  0  0
 60131  1  0  0  0
 60132  1  0  0  0
 61133  1  0  0  0
 61134  1  0  0  0
 61135  1  0  0  0
 62136  1  0  0  0
 62137  1  0  0  0
 62138  1  0  0  0
 63 65  1  0  0  0
 63139  1  0  0  0
 63140  1  0  0  0
 63141  1  0  0  0
 64142  1  0  0  0
 65143  1  0  0  0
 68 81  1  0  0  0
 71 72  2  0  0  0
 71 83  1  0  0  0
 71144  1  0  0  0
 72 76  1  0  0  0
 72 82  1  0  0  0
 73 74  1  0  0  0
 73 82  1  0  0  0
 73 83  2  0  0  0
 74145  1  0  0  0
 74146  1  0  0  0
 74147  1  0  0  0
 75148  1  0  0  0
 75149  1  0  0  0
 75150  1  0  0  0
 75 81  1  0  0  0
 76 77  1  0  0  0
 76151  1  0  0  0
 76152  1  0  0  0
 77 80  1  0  0  0
 77153  1  0  0  0
 77154  1  0  0  0
 78 79  1  0  0  0
 78 81  1  0  0  0
 78155  1  0  0  0
 78156  1  0  0  0
 79 82  1  0  0  0
 79157  1  0  0  0
 79158  1  0  0  0
 80 84  1  0  0  0
 80159  1  0  0  0
 80160  1  0  0  0
 81161  1  0  0  0
 83162  1  0  0  0
 84163  1  0  0  0
M  CHG  1  83   1
M  ISO  4   1 100  68 101  81 101  84 100
M  END
> <chiral flag>
0

> <version>
0

> <s_m_source_file>
/data/baiqing/PycharmProjects/Reinvent-master-3.2/result/LINK_invent/BTK/process_docking_weight1_custom_sum_contain_oxygen_bond_distance_aromatic_linkinvent_7_9_3/rearranged_h_0080.sdf

> <i_m_source_file_index>
14

> <r_mmod_Potential_Energy-OPLS-2005>
211.836929321289

> <r_mmod_Stretch_Energy-OPLS-2005>
67.629524230957

> <r_mmod_Bend_Energy-OPLS-2005>
371.687225341797

> <r_mmod_Torsional_Energy-OPLS-2005>
257.467315673828

> <r_mmod_Improper_Torsional_Energy-OPLS-2005>
3.38266372680664

> <r_mmod_Van_der_Waal_Energy-OPLS-2005>
144.778549194336

> <r_mmod_Electrostatic_Energy-OPLS-2005>
-238.857406616211

> <r_mmod_Solvation_Energy-OPLS-2005>
-422.560424804688

> <b_mmod_Minimization_Converged-OPLS-2005>
0

> <r_mmod_RMS_Derivative-OPLS-2005>
6.17400503158569

$$$$
16
                    3D
 Structure written by MMmdl.
166174  0  0  1  0            999 V2000
  -30.6315  -14.7225   20.4630 C   0  0  0  0  0  0
  -30.4267  -12.4483   19.4658 C   0  0  0  0  0  0
  -29.5027  -12.5079   18.2299 C   0  0  0  0  0  0
  -28.0324  -12.3329   18.6474 C   0  0  0  0  0  0
  -27.6448  -13.2319   19.8522 C   0  0  2  0  0  0
  -28.6902  -13.1671   20.9881 C   0  0  0  0  0  0
  -25.2528  -13.8203   20.5707 C   0  0  0  0  0  0
  -24.1813  -13.0440   20.9183 C   0  0  0  0  0  0
  -24.6408  -11.6903   20.8739 C   0  0  0  0  0  0
  -23.9070  -10.4294   21.0424 C   0  0  0  0  0  0
  -24.3633   -9.4197   21.9201 C   0  0  0  0  0  0
  -23.6302   -8.2232   22.0753 C   0  0  0  0  0  0
  -22.4289   -8.0277   21.3533 C   0  0  0  0  0  0
  -21.9923   -9.0256   20.4639 C   0  0  0  0  0  0
  -22.7243  -10.2136   20.3055 C   0  0  0  0  0  0
  -21.6862   -6.0735   22.5266 C   0  0  0  0  0  0
  -21.4014   -6.5636   23.8204 C   0  0  0  0  0  0
  -21.3651   -5.6796   24.9175 C   0  0  0  0  0  0
  -21.6050   -4.3054   24.7224 C   0  0  0  0  0  0
  -21.8822   -3.8135   23.4347 C   0  0  0  0  0  0
  -21.9190   -4.6957   22.3397 C   0  0  0  0  0  0
  -22.7824  -13.5200   21.1835 C   0  0  0  0  0  0
  -22.1661   -4.2138   21.0983 F   0  0  0  0  0  0
  -21.5628   -3.4541   25.7741 F   0  0  0  0  0  0
  -29.9884  -13.5112   20.3996 N   0  0  0  0  0  0
  -26.2978  -12.9414   20.3322 N   0  0  0  0  0  0
  -25.9345  -11.6557   20.5761 N   0  0  0  0  0  0
  -22.0492  -12.8198   22.0423 N   0  0  0  0  0  0
  -25.4196  -15.1922   20.4060 N   0  0  0  0  0  0
  -31.8212  -14.7980   20.1451 O   0  0  0  0  0  0
  -21.6631   -6.8875   21.4237 O   0  0  0  0  0  0
  -22.3482  -14.5530   20.6717 O   0  0  0  0  0  0
  -24.6328  -31.8521   23.1929 C   0  0  0  0  0  0
  -25.9150  -32.4730   23.8281 C   0  0  1  0  0  0
  -27.2085  -27.2533   20.1024 C   0  0  0  0  0  0
  -25.5971  -33.8549   24.2176 N   0  0  0  0  0  0
  -23.4231  -30.4764   21.5383 C   0  0  2  0  0  0
  -24.8679  -28.9192   20.1117 C   0  0  0  0  0  0
  -22.7484  -29.4591   22.4906 C   0  0  0  0  0  0
  -18.0279  -28.1371   22.8472 C   0  0  0  0  0  0
  -24.1523  -36.7247   23.2607 C   0  0  0  0  0  0
  -25.9719  -30.7591   21.3774 C   0  0  0  0  0  0
  -26.0419  -29.3824   20.7178 C   0  0  0  0  0  0
  -27.2132  -28.5621   20.7023 C   0  0  0  0  0  0
  -26.0030  -26.8541   19.4859 C   0  0  0  0  0  0
  -24.8522  -27.6663   19.4854 C   0  0  0  0  0  0
  -23.6420  -29.8074   20.1579 C   0  0  0  0  0  0
  -25.4142  -36.2998   24.0275 C   0  0  1  0  0  0
  -20.5875  -28.3684   23.1240 C   0  0  2  0  0  0
  -20.6799  -26.9416   22.5382 C   0  0  0  0  0  0
  -19.5776  -26.6379   21.5205 C   0  0  0  0  0  0
  -18.1938  -26.7893   22.1601 C   0  0  0  0  0  0
  -19.1533  -28.8841   23.2866 C   0  0  0  0  0  0
  -18.9468  -30.1443   23.8897 C   0  0  0  0  0  0
  -17.6472  -30.6575   24.0547 C   0  0  0  0  0  0
  -25.9130  -34.9414   23.4992 C   0  0  0  0  0  0
  -16.5359  -29.9073   23.6354 C   0  0  0  0  0  0
  -16.7285  -28.6483   23.0366 C   0  0  0  0  0  0
  -26.4523  -31.6558   25.0680 C   0  0  0  0  0  0
  -25.3720  -31.3737   26.1402 C   0  0  0  0  0  0
  -27.0351  -30.2937   24.6204 C   0  0  0  0  0  0
  -27.6106  -32.4288   25.7443 C   0  0  0  0  0  0
  -27.5647  -37.1693   24.8405 C   0  0  0  0  0  0
  -21.4193  -29.3042   22.3674 N   0  0  0  0  0  0
  -26.4246  -37.3756   23.9502 N   0  0  0  0  0  0
  -24.6947  -31.0467   22.0915 N   0  0  0  0  0  0
  -23.4191  -28.8116   23.2997 O   0  0  0  0  0  0
  -28.3265  -26.3886   20.1455 O   0  0  0  0  0  0
  -26.5692  -34.8883   22.4561 O   0  0  0  0  0  0
  -23.5481  -32.1358   23.7220 O   0  0  0  0  0  0
  -30.9381  -22.3997   20.0201 C   0  0  0  0  0  0
  -29.9048  -21.4556   20.1833 C   0  0  0  0  0  0
  -32.2742  -22.0241   20.1717 C   0  0  0  0  0  0
  -30.3480  -20.0541   20.3602 C   0  0  0  0  0  0
  -33.1259  -23.3523   17.5274 C   0  0  0  0  0  0
  -34.3529  -23.0124   21.2592 C   0  0  0  0  0  0
  -28.4893  -22.1395   20.1773 C   0  0  0  0  0  0
  -29.5520  -18.6771   20.4961 C   0  0  0  0  0  0
  -34.0659  -23.1012   18.7216 C   0  0  0  0  0  0
  -28.3708  -23.7099   20.6336 C   0  0  0  0  0  0
  -30.4583  -17.3099   20.5657 C   0  0  0  0  0  0
  -28.3387  -24.9748   19.6247 C   0  0  0  0  0  0
  -33.3596  -23.0848   20.0871 C   0  0  1  0  0  0
  -32.6310  -20.7379   20.3611 N   0  0  0  0  0  0
  -31.6867  -19.7995   20.4381 N   0  0  0  0  0  0
  -29.9027  -15.8857   20.6642 N   0  0  0  0  0  0
  -31.4697  -12.5636   19.1622 H   0  0  0  0  0  0
  -30.3629  -11.4700   19.9459 H   0  0  0  0  0  0
  -29.7842  -11.7351   17.5142 H   0  0  0  0  0  0
  -29.6338  -13.4615   17.7148 H   0  0  0  0  0  0
  -27.8953  -11.2830   18.9141 H   0  0  0  0  0  0
  -27.3710  -12.5235   17.8032 H   0  0  0  0  0  0
  -27.6380  -14.2558   19.4751 H   0  0  0  0  0  0
  -28.7232  -12.1708   21.4316 H   0  0  0  0  0  0
  -28.4291  -13.8544   21.7944 H   0  0  0  0  0  0
  -25.2798   -9.5665   22.4749 H   0  0  0  0  0  0
  -24.0005   -7.4626   22.7495 H   0  0  0  0  0  0
  -21.0833   -8.8781   19.8953 H   0  0  0  0  0  0
  -22.3726  -10.9674   19.6138 H   0  0  0  0  0  0
  -21.2012   -7.6144   23.9703 H   0  0  0  0  0  0
  -21.1471   -6.0528   25.9077 H   0  0  0  0  0  0
  -22.0608   -2.7595   23.2856 H   0  0  0  0  0  0
  -22.4133  -11.9845   22.4775 H   0  0  0  0  0  0
  -21.1103  -13.1188   22.2657 H   0  0  0  0  0  0
  -24.6495  -15.8452   20.5009 H   0  0  0  0  0  0
  -26.2664  -15.6298   20.0688 H   0  0  0  0  0  0
  -26.7204  -32.5338   23.0997 H   0  0  0  0  0  0
  -25.0178  -33.9730   25.0372 H   0  0  0  0  0  0
  -22.7180  -31.2970   21.3890 H   0  0  0  0  0  0
  -23.3821  -35.9540   23.3070 H   0  0  0  0  0  0
  -24.3665  -36.9091   22.2085 H   0  0  0  0  0  0
  -23.7253  -37.6366   23.6771 H   0  0  0  0  0  0
  -26.1183  -31.5187   20.6085 H   0  0  0  0  0  0
  -26.8468  -30.8061   22.0115 H   0  0  0  0  0  0
  -28.1160  -28.9109   21.1818 H   0  0  0  0  0  0
  -25.9003  -25.8961   19.0081 H   0  0  0  0  0  0
  -23.9491  -27.3049   19.0111 H   0  0  0  0  0  0
  -23.7656  -30.5775   19.3988 H   0  0  0  0  0  0
  -22.7661  -29.2345   19.8536 H   0  0  0  0  0  0
  -25.1287  -36.1742   25.0746 H   0  0  0  0  0  0
  -20.9984  -28.3266   24.1349 H   0  0  0  0  0  0
  -20.5714  -26.2299   23.3592 H   0  0  0  0  0  0
  -21.6655  -26.7481   22.1153 H   0  0  0  0  0  0
  -19.6973  -25.6305   21.1247 H   0  0  0  0  0  0
  -19.6687  -27.3157   20.6713 H   0  0  0  0  0  0
  -17.4221  -26.6642   21.4007 H   0  0  0  0  0  0
  -18.0357  -26.0006   22.8969 H   0  0  0  0  0  0
  -19.7952  -30.7265   24.2234 H   0  0  0  0  0  0
  -17.5036  -31.6262   24.5123 H   0  0  0  0  0  0
  -15.5372  -30.2973   23.7690 H   0  0  0  0  0  0
  -15.8664  -28.0823   22.7089 H   0  0  0  0  0  0
  -24.5886  -30.7098   25.7700 H   0  0  0  0  0  0
  -24.8953  -32.2942   26.4784 H   0  0  0  0  0  0
  -25.8010  -30.8923   27.0200 H   0  0  0  0  0  0
  -26.2908  -29.6688   24.1241 H   0  0  0  0  0  0
  -27.4020  -29.7199   25.4732 H   0  0  0  0  0  0
  -27.8783  -30.4150   23.9393 H   0  0  0  0  0  0
  -27.2742  -33.3614   26.1954 H   0  0  0  0  0  0
  -28.3931  -32.6803   25.0275 H   0  0  0  0  0  0
  -28.0715  -31.8448   26.5416 H   0  0  0  0  0  0
  -28.2325  -38.0311   24.7860 H   0  0  0  0  0  0
  -28.1433  -36.2862   24.5611 H   0  0  0  0  0  0
  -27.2421  -37.0592   25.8781 H   0  0  0  0  0  0
  -20.9389  -29.8771   21.6891 H   0  0  0  0  0  0
  -26.0037  -38.2728   24.1774 H   0  0  0  0  0  0
  -30.7292  -23.4340   19.7976 H   0  0  0  0  0  0
  -33.6993  -23.3953   16.6023 H   0  0  0  0  0  0
  -32.5838  -24.2963   17.6249 H   0  0  0  0  0  0
  -32.3853  -22.5576   17.4166 H   0  0  0  0  0  0
  -33.8244  -23.0056   22.2137 H   0  0  0  0  0  0
  -35.0243  -23.8722   21.2523 H   0  0  0  0  0  0
  -34.9656  -22.1083   21.2071 H   0  0  0  0  0  0
  -27.9012  -21.5510   20.8788 H   0  0  0  0  0  0
  -28.0111  -21.9916   19.2082 H   0  0  0  0  0  0
  -28.8658  -18.6048   19.6520 H   0  0  0  0  0  0
  -28.9355  -18.7453   21.3898 H   0  0  0  0  0  0
  -34.8355  -23.8746   18.7313 H   0  0  0  0  0  0
  -34.5777  -22.1494   18.5788 H   0  0  0  0  0  0
  -29.1095  -23.9058   21.4126 H   0  0  0  0  0  0
  -27.4203  -23.7720   21.1619 H   0  0  0  0  0  0
  -31.1324  -17.4080   21.4216 H   0  0  0  0  0  0
  -31.1083  -17.3094   19.6886 H   0  0  0  0  0  0
  -27.5783  -24.7900   18.8705 H   0  0  0  0  0  0
  -29.2530  -24.9301   19.0356 H   0  0  0  0  0  0
  -32.8528  -24.0451   20.2010 H   0  0  0  0  0  0
  -28.9238  -15.7815   20.8857 H   0  0  0  0  0  0
  1 25  1  0  0  0
  1 30  2  0  0  0
  1 86  1  0  0  0
  2  3  1  0  0  0
  2 25  1  0  0  0
  2 87  1  0  0  0
  2 88  1  0  0  0
  3  4  1  0  0  0
  3 89  1  0  0  0
  3 90  1  0  0  0
  4  5  1  0  0  0
  4 91  1  0  0  0
  4 92  1  0  0  0
  5  6  1  0  0  0
  5 26  1  0  0  0
  5 93  1  0  0  0
  6 25  1  0  0  0
  6 94  1  0  0  0
  6 95  1  0  0  0
  7  8  2  0  0  0
  7 26  1  0  0  0
  7 29  1  0  0  0
  8  9  1  0  0  0
  8 22  1  0  0  0
  9 10  1  0  0  0
  9 27  2  0  0  0
 10 11  2  0  0  0
 10 15  1  0  0  0
 11 12  1  0  0  0
 11 96  1  0  0  0
 12 13  2  0  0  0
 12 97  1  0  0  0
 13 14  1  0  0  0
 13 31  1  0  0  0
 14 15  2  0  0  0
 14 98  1  0  0  0
 15 99  1  0  0  0
 16 17  2  0  0  0
 16 21  1  0  0  0
 16 31  1  0  0  0
 17 18  1  0  0  0
 17100  1  0  0  0
 18 19  2  0  0  0
 18101  1  0  0  0
 19 20  1  0  0  0
 19 24  1  0  0  0
 20 21  2  0  0  0
 20102  1  0  0  0
 21 23  1  0  0  0
 22 28  1  0  0  0
 22 32  2  0  0  0
 26 27  1  0  0  0
 28103  1  0  0  0
 28104  1  0  0  0
 29105  1  0  0  0
 29106  1  0  0  0
 33 34  1  0  0  0
 33 66  1  0  0  0
 33 70  2  0  0  0
 34 36  1  0  0  0
 34 59  1  0  0  0
 34107  1  0  0  0
 35 44  2  0  0  0
 35 45  1  0  0  0
 35 68  1  0  0  0
 36 56  1  0  0  0
 36108  1  0  0  0
 37 39  1  0  0  0
 37 47  1  0  0  0
 37 66  1  0  0  0
 37109  1  0  0  0
 38 43  2  0  0  0
 38 46  1  0  0  0
 38 47  1  0  0  0
 39 64  1  0  0  0
 39 67  2  0  0  0
 40 52  1  0  0  0
 40 53  2  0  0  0
 40 58  1  0  0  0
 41110  1  0  0  0
 41111  1  0  0  0
 41112  1  0  0  0
 41 48  1  0  0  0
 42 43  1  0  0  0
 42 66  1  0  0  0
 42113  1  0  0  0
 42114  1  0  0  0
 43 44  1  0  0  0
 44115  1  0  0  0
 45 46  2  0  0  0
 45116  1  0  0  0
 46117  1  0  0  0
 47118  1  0  0  0
 47119  1  0  0  0
 48 56  1  0  0  0
 48 65  1  0  0  0
 48120  1  0  0  0
 49 50  1  0  0  0
 49 53  1  0  0  0
 49 64  1  0  0  0
 49121  1  0  0  0
 50 51  1  0  0  0
 50122  1  0  0  0
 50123  1  0  0  0
 51 52  1  0  0  0
 51124  1  0  0  0
 51125  1  0  0  0
 52126  1  0  0  0
 52127  1  0  0  0
 53 54  1  0  0  0
 54 55  2  0  0  0
 54128  1  0  0  0
 55 57  1  0  0  0
 55129  1  0  0  0
 56 69  2  0  0  0
 57 58  2  0  0  0
 57130  1  0  0  0
 58131  1  0  0  0
 59 60  1  0  0  0
 59 61  1  0  0  0
 59 62  1  0  0  0
 60132  1  0  0  0
 60133  1  0  0  0
 60134  1  0  0  0
 61135  1  0  0  0
 61136  1  0  0  0
 61137  1  0  0  0
 62138  1  0  0  0
 62139  1  0  0  0
 62140  1  0  0  0
 63 65  1  0  0  0
 63141  1  0  0  0
 63142  1  0  0  0
 63143  1  0  0  0
 64144  1  0  0  0
 65145  1  0  0  0
 68 82  1  0  0  0
 71 72  2  0  0  0
 71 73  1  0  0  0
 71146  1  0  0  0
 72 74  1  0  0  0
 72 77  1  0  0  0
 73 83  1  0  0  0
 73 84  2  0  0  0
 74 78  1  0  0  0
 74 85  2  0  0  0
 75 79  1  0  0  0
 75147  1  0  0  0
 75148  1  0  0  0
 75149  1  0  0  0
 76150  1  0  0  0
 76151  1  0  0  0
 76152  1  0  0  0
 76 83  1  0  0  0
 77 80  1  0  0  0
 77153  1  0  0  0
 77154  1  0  0  0
 78 81  1  0  0  0
 78155  1  0  0  0
 78156  1  0  0  0
 79 83  1  0  0  0
 79157  1  0  0  0
 79158  1  0  0  0
 80 82  1  0  0  0
 80159  1  0  0  0
 80160  1  0  0  0
 81 86  1  0  0  0
 81161  1  0  0  0
 81162  1  0  0  0
 82163  1  0  0  0
 82164  1  0  0  0
 83165  1  0  0  0
 84 85  1  0  0  0
 86166  1  0  0  0
M  ISO  4   1 100  68 101  82 101  86 100
M  END
> <chiral flag>
0

> <version>
0

> <s_m_source_file>
/data/baiqing/PycharmProjects/Reinvent-master-3.2/result/LINK_invent/BTK/process_docking_weight1_custom_sum_contain_oxygen_bond_distance_aromatic_linkinvent_7_9_3/rearranged_h_0080.sdf

> <i_m_source_file_index>
15

> <r_mmod_Potential_Energy-OPLS-2005>
234.082992553711

> <r_mmod_Stretch_Energy-OPLS-2005>
137.248413085938

> <r_mmod_Bend_Energy-OPLS-2005>
224.544143676758

> <r_mmod_Torsional_Energy-OPLS-2005>
202.788925170898

> <r_mmod_Improper_Torsional_Energy-OPLS-2005>
4.87752914428711

> <r_mmod_Van_der_Waal_Energy-OPLS-2005>
152.818267822266

> <r_mmod_Electrostatic_Energy-OPLS-2005>
-330.561676025391

> <r_mmod_Solvation_Energy-OPLS-2005>
-238.058227539062

> <b_mmod_Minimization_Converged-OPLS-2005>
0

> <r_mmod_RMS_Derivative-OPLS-2005>
6.2752833366394

$$$$
17
                    3D
 Structure written by MMmdl.
164172  0  0  1  0            999 V2000
  -30.5956  -13.3995   20.3517 C   0  0  0  0  0  0
  -29.8373  -11.1532   18.8632 C   0  0  0  0  0  0
  -28.8047  -12.1937   17.6088 C   0  0  0  0  0  0
  -27.7899  -13.7212   18.2935 C   0  0  0  0  0  0
  -27.9140  -14.3042   20.2818 C   0  0  2  0  0  0
  -28.9003  -13.2124   21.5307 C   0  0  0  0  0  0
  -25.6691  -14.8964   19.9679 C   0  0  0  0  0  0
  -24.2586  -14.3115   20.2923 C   0  0  0  0  0  0
  -24.7999  -12.5063   22.0966 C   0  0  0  0  0  0
  -24.0668  -10.7914   22.0886 C   0  0  0  0  0  0
  -24.6698   -9.5054   22.3132 C   0  0  0  0  0  0
  -24.0204   -8.2034   22.1540 C   0  0  0  0  0  0
  -22.7348   -8.0113   21.5650 C   0  0  0  0  0  0
  -22.1474   -9.1368   21.0964 C   0  0  0  0  0  0
  -22.7265  -10.3441   21.5027 C   0  0  0  0  0  0
  -21.7951   -6.0572   22.5289 C   0  0  0  0  0  0
  -21.4737   -6.5631   23.8089 C   0  0  0  0  0  0
  -21.3735   -5.6822   24.9045 C   0  0  0  0  0  0
  -21.5842   -4.3020   24.7197 C   0  0  0  0  0  0
  -21.8498   -3.7956   23.4359 C   0  0  0  0  0  0
  -21.9417   -4.6715   22.3426 C   0  0  0  0  0  0
  -22.8726  -14.7813   19.6606 C   0  0  0  0  0  0
  -22.1893   -4.1855   21.1034 F   0  0  0  0  0  0
  -21.5294   -3.4585   25.7766 F   0  0  0  0  0  0
  -29.9559  -12.2552   20.4398 N   0  0  0  0  0  0
  -26.9091  -14.1441   20.8675 N   0  0  0  0  0  0
  -26.4865  -12.7680   22.0996 N   0  0  0  0  0  0
  -21.8926  -13.9069   19.3393 N   0  0  0  0  0  0
  -25.8847  -16.0447   19.3472 N   0  0  0  0  0  0
  -31.5814  -13.9927   19.8641 O   0  0  0  0  0  0
  -21.9899   -6.8607   21.4375 O   0  0  0  0  0  0
  -22.4111  -15.8316   19.9915 O   0  0  0  0  0  0
  -24.7160  -31.7472   23.1325 C   0  0  0  0  0  0
  -25.9628  -32.4131   23.7928 C   0  0  1  0  0  0
  -26.4053  -25.9147   20.6265 C   0  0  0  0  0  0
  -25.6079  -33.8026   24.1709 N   0  0  0  0  0  0
  -23.5302  -30.3728   21.4909 C   0  0  2  0  0  0
  -24.8771  -28.5949   20.1158 C   0  0  0  0  0  0
  -22.7746  -29.4118   22.4500 C   0  0  0  0  0  0
  -18.0318  -28.1429   22.8429 C   0  0  0  0  0  0
  -24.1487  -36.7010   23.2658 C   0  0  0  0  0  0
  -26.0953  -30.1975   21.5277 C   0  0  0  0  0  0
  -25.9982  -28.6931   20.9334 C   0  0  0  0  0  0
  -26.7700  -27.3777   21.1470 C   0  0  0  0  0  0
  -25.5413  -26.2359   19.5476 C   0  0  0  0  0  0
  -24.7680  -27.4250   19.3511 C   0  0  0  0  0  0
  -23.7947  -29.6942   20.1090 C   0  0  0  0  0  0
  -25.4158  -36.2709   24.0240 C   0  0  1  0  0  0
  -20.5951  -28.3804   23.1041 C   0  0  2  0  0  0
  -20.6768  -26.9431   22.5390 C   0  0  0  0  0  0
  -19.5762  -26.6341   21.5197 C   0  0  0  0  0  0
  -18.1938  -26.7947   22.1596 C   0  0  0  0  0  0
  -19.1592  -28.8938   23.2723 C   0  0  0  0  0  0
  -18.9519  -30.1506   23.8796 C   0  0  0  0  0  0
  -17.6517  -30.6609   24.0544 C   0  0  0  0  0  0
  -25.9188  -34.9110   23.4831 C   0  0  0  0  0  0
  -16.5395  -29.9098   23.6357 C   0  0  0  0  0  0
  -16.7302  -28.6518   23.0372 C   0  0  0  0  0  0
  -26.4670  -31.6462   25.0803 C   0  0  0  0  0  0
  -25.3631  -31.3995   26.1364 C   0  0  0  0  0  0
  -27.0716  -30.2738   24.7200 C   0  0  0  0  0  0
  -27.5996  -32.4506   25.7612 C   0  0  0  0  0  0
  -27.5538  -37.1656   24.8462 C   0  0  0  0  0  0
  -21.4383  -29.3001   22.3280 N   0  0  0  0  0  0
  -26.4228  -37.3537   23.9421 N   0  0  0  0  0  0
  -24.8181  -30.8350   22.0934 N   0  0  0  0  0  0
  -23.4061  -28.7713   23.2948 O   0  0  0  0  0  0
  -26.6685  -24.2485   20.9243 O   0  0  0  0  0  0
  -26.5874  -34.8778   22.4482 O   0  0  0  0  0  0
  -23.6139  -32.0957   23.5965 O   0  0  0  0  0  0
  -22.6611  -13.0006   21.4397 C   0  0  0  0  0  0
  -23.7650  -12.1289   20.0390 C   0  0  0  0  0  0
  -22.9754  -14.5378   22.3455 C   0  0  0  0  0  0
  -25.5308  -12.5813   20.0884 C   0  0  0  0  0  0
  -24.2162  -15.7658   22.2790 C   0  0  0  0  0  0
  -23.2853  -11.2087   18.9102 C   0  0  0  0  0  0
  -20.4965  -15.2872   22.4708 C   0  0  0  0  0  0
  -27.6435  -10.5745   20.6870 C   0  0  0  0  0  0
  -21.8010  -14.9704   23.2171 C   0  0  0  0  0  0
  -24.5492  -17.9693   22.1755 C   0  0  0  0  0  0
  -25.5415  -20.0165   21.5025 C   0  0  0  0  0  0
  -25.7354  -22.3765   21.2956 C   0  0  0  0  0  0
  -27.5569  -11.9406   19.8437 C   0  0  2  0  0  0
  -25.2242  -14.6324   22.1745 N   0  0  0  0  0  0
  -29.6312  -13.1168   19.5406 N   0  0  0  0  0  0
  -30.8440  -11.0043   18.4695 H   0  0  0  0  0  0
  -29.4513  -10.1430   18.9699 H   0  0  0  0  0  0
  -28.1622  -11.5442   17.0119 H   0  0  0  0  0  0
  -29.5046  -12.5882   16.8704 H   0  0  0  0  0  0
  -26.7550  -13.6198   17.9617 H   0  0  0  0  0  0
  -28.1178  -14.5857   17.7146 H   0  0  0  0  0  0
  -28.2248  -15.3472   20.3759 H   0  0  0  0  0  0
  -28.6261  -12.3998   22.1953 H   0  0  0  0  0  0
  -29.3786  -13.8758   22.2687 H   0  0  0  0  0  0
  -25.6801   -9.5064   22.6937 H   0  0  0  0  0  0
  -24.5724   -7.3257   22.4592 H   0  0  0  0  0  0
  -21.1684   -9.0985   20.6341 H   0  0  0  0  0  0
  -21.9287  -10.9419   21.1409 H   0  0  0  0  0  0
  -21.3412   -7.6255   23.9572 H   0  0  0  0  0  0
  -21.1576   -6.0678   25.8906 H   0  0  0  0  0  0
  -21.9897   -2.7355   23.2897 H   0  0  0  0  0  0
  -22.1732  -12.9341   19.2888 H   0  0  0  0  0  0
  -20.9496  -14.1997   19.1321 H   0  0  0  0  0  0
  -25.1580  -16.5774   18.8863 H   0  0  0  0  0  0
  -26.7869  -16.5001   19.3154 H   0  0  0  0  0  0
  -26.7720  -32.4359   23.0609 H   0  0  0  0  0  0
  -25.0103  -33.9023   24.9785 H   0  0  0  0  0  0
  -22.8892  -31.2373   21.3065 H   0  0  0  0  0  0
  -23.3784  -35.9295   23.3200 H   0  0  0  0  0  0
  -24.3548  -36.8829   22.2099 H   0  0  0  0  0  0
  -23.7212  -37.6116   23.6863 H   0  0  0  0  0  0
  -26.4075  -30.8339   20.6980 H   0  0  0  0  0  0
  -26.9339  -30.2380   22.2057 H   0  0  0  0  0  0
  -27.5485  -27.4229   21.8953 H   0  0  0  0  0  0
  -25.2437  -25.3979   18.9335 H   0  0  0  0  0  0
  -23.9775  -27.3711   18.6150 H   0  0  0  0  0  0
  -24.1028  -30.4546   19.3903 H   0  0  0  0  0  0
  -22.8645  -29.2814   19.7157 H   0  0  0  0  0  0
  -25.1382  -36.1383   25.0724 H   0  0  0  0  0  0
  -21.0062  -28.3479   24.1152 H   0  0  0  0  0  0
  -20.5574  -26.2450   23.3689 H   0  0  0  0  0  0
  -21.6630  -26.7299   22.1247 H   0  0  0  0  0  0
  -19.6917  -25.6217   21.1306 H   0  0  0  0  0  0
  -19.6718  -27.3080   20.6672 H   0  0  0  0  0  0
  -17.4203  -26.6662   21.4004 H   0  0  0  0  0  0
  -18.0331  -26.0111   22.9019 H   0  0  0  0  0  0
  -19.8007  -30.7324   24.2125 H   0  0  0  0  0  0
  -17.5087  -31.6283   24.5173 H   0  0  0  0  0  0
  -15.5402  -30.2998   23.7745 H   0  0  0  0  0  0
  -15.8685  -28.0824   22.7166 H   0  0  0  0  0  0
  -24.5810  -30.7326   25.7731 H   0  0  0  0  0  0
  -24.8853  -32.3302   26.4428 H   0  0  0  0  0  0
  -25.7721  -30.9427   27.0386 H   0  0  0  0  0  0
  -26.3484  -29.6054   24.2524 H   0  0  0  0  0  0
  -27.4166  -29.7572   25.6168 H   0  0  0  0  0  0
  -27.9481  -30.3723   24.0791 H   0  0  0  0  0  0
  -27.2423  -33.3929   26.1774 H   0  0  0  0  0  0
  -28.3988  -32.6870   25.0586 H   0  0  0  0  0  0
  -28.0461  -31.8973   26.5881 H   0  0  0  0  0  0
  -28.2454  -38.0039   24.7542 H   0  0  0  0  0  0
  -28.1128  -36.2554   24.6235 H   0  0  0  0  0  0
  -27.2268  -37.1217   25.8865 H   0  0  0  0  0  0
  -20.9708  -29.8684   21.6354 H   0  0  0  0  0  0
  -25.9990  -38.2540   24.1484 H   0  0  0  0  0  0
  -21.6211  -12.7428   21.5844 H   0  0  0  0  0  0
  -22.2075  -11.0430   18.9408 H   0  0  0  0  0  0
  -23.7902  -10.2431   18.9634 H   0  0  0  0  0  0
  -23.5206  -11.6490   17.9422 H   0  0  0  0  0  0
  -19.7343  -15.6319   23.1702 H   0  0  0  0  0  0
  -20.0978  -14.4099   21.9647 H   0  0  0  0  0  0
  -20.6282  -16.0772   21.7317 H   0  0  0  0  0  0
  -26.9978   -9.8068   20.2585 H   0  0  0  0  0  0
  -27.3253  -10.6370   21.7186 H   0  0  0  0  0  0
  -28.6225  -10.1241   20.8087 H   0  0  0  0  0  0
  -22.1029  -15.8379   23.8085 H   0  0  0  0  0  0
  -21.6101  -14.1755   23.9385 H   0  0  0  0  0  0
  -24.5383  -18.1456   23.2504 H   0  0  0  0  0  0
  -23.5321  -18.2003   21.8622 H   0  0  0  0  0  0
  -25.6596  -19.7769   20.4462 H   0  0  0  0  0  0
  -26.5312  -19.8277   21.9190 H   0  0  0  0  0  0
  -25.3891  -22.6351   22.2957 H   0  0  0  0  0  0
  -24.8613  -22.5469   20.6657 H   0  0  0  0  0  0
  -27.2431  -11.3908   18.9627 H   0  0  0  0  0  0
  -29.7021  -13.5614   18.6413 H   0  0  0  0  0  0
  1 25  1  0  0  0
  1 30  2  0  0  0
  1 85  1  0  0  0
  2  3  1  0  0  0
  2 25  1  0  0  0
  2 86  1  0  0  0
  2 87  1  0  0  0
  3  4  1  0  0  0
  3 88  1  0  0  0
  3 89  1  0  0  0
  4  5  1  0  0  0
  4 90  1  0  0  0
  4 91  1  0  0  0
  5  6  1  0  0  0
  5 26  1  0  0  0
  5 92  1  0  0  0
  6 25  1  0  0  0
  6 93  1  0  0  0
  6 94  1  0  0  0
  7  8  2  0  0  0
  7 26  1  0  0  0
  7 29  1  0  0  0
  8  9  1  0  0  0
  8 22  1  0  0  0
  9 10  1  0  0  0
  9 27  2  0  0  0
 10 11  2  0  0  0
 10 15  1  0  0  0
 11 12  1  0  0  0
 11 95  1  0  0  0
 12 13  2  0  0  0
 12 96  1  0  0  0
 13 14  1  0  0  0
 13 31  1  0  0  0
 14 15  2  0  0  0
 14 97  1  0  0  0
 15 98  1  0  0  0
 16 17  2  0  0  0
 16 21  1  0  0  0
 16 31  1  0  0  0
 17 18  1  0  0  0
 17 99  1  0  0  0
 18 19  2  0  0  0
 18100  1  0  0  0
 19 20  1  0  0  0
 19 24  1  0  0  0
 20 21  2  0  0  0
 20101  1  0  0  0
 21 23  1  0  0  0
 22 28  1  0  0  0
 22 32  2  0  0  0
 26 27  1  0  0  0
 28102  1  0  0  0
 28103  1  0  0  0
 29104  1  0  0  0
 29105  1  0  0  0
 33 34  1  0  0  0
 33 66  1  0  0  0
 33 70  2  0  0  0
 34 36  1  0  0  0
 34 59  1  0  0  0
 34106  1  0  0  0
 35 44  2  0  0  0
 35 45  1  0  0  0
 35 68  1  0  0  0
 36 56  1  0  0  0
 36107  1  0  0  0
 37 39  1  0  0  0
 37 47  1  0  0  0
 37 66  1  0  0  0
 37108  1  0  0  0
 38 43  2  0  0  0
 38 46  1  0  0  0
 38 47  1  0  0  0
 39 64  1  0  0  0
 39 67  2  0  0  0
 40 52  1  0  0  0
 40 53  2  0  0  0
 40 58  1  0  0  0
 41109  1  0  0  0
 41110  1  0  0  0
 41111  1  0  0  0
 41 48  1  0  0  0
 42 43  1  0  0  0
 42 66  1  0  0  0
 42112  1  0  0  0
 42113  1  0  0  0
 43 44  1  0  0  0
 44114  1  0  0  0
 45 46  2  0  0  0
 45115  1  0  0  0
 46116  1  0  0  0
 47117  1  0  0  0
 47118  1  0  0  0
 48 56  1  0  0  0
 48 65  1  0  0  0
 48119  1  0  0  0
 49 50  1  0  0  0
 49 53  1  0  0  0
 49 64  1  0  0  0
 49120  1  0  0  0
 50 51  1  0  0  0
 50121  1  0  0  0
 50122  1  0  0  0
 51 52  1  0  0  0
 51123  1  0  0  0
 51124  1  0  0  0
 52125  1  0  0  0
 52126  1  0  0  0
 53 54  1  0  0  0
 54 55  2  0  0  0
 54127  1  0  0  0
 55 57  1  0  0  0
 55128  1  0  0  0
 56 69  2  0  0  0
 57 58  2  0  0  0
 57129  1  0  0  0
 58130  1  0  0  0
 59 60  1  0  0  0
 59 61  1  0  0  0
 59 62  1  0  0  0
 60131  1  0  0  0
 60132  1  0  0  0
 60133  1  0  0  0
 61134  1  0  0  0
 61135  1  0  0  0
 61136  1  0  0  0
 62137  1  0  0  0
 62138  1  0  0  0
 62139  1  0  0  0
 63 65  1  0  0  0
 63140  1  0  0  0
 63141  1  0  0  0
 63142  1  0  0  0
 64143  1  0  0  0
 65144  1  0  0  0
 68 82  1  0  0  0
 71 72  2  0  0  0
 71 73  1  0  0  0
 71145  1  0  0  0
 72 74  1  0  0  0
 72 76  1  0  0  0
 73 75  2  0  0  0
 73 79  1  0  0  0
 74 83  1  0  0  0
 74 84  2  0  0  0
 75 80  1  0  0  0
 75 84  1  0  0  0
 76146  1  0  0  0
 76147  1  0  0  0
 76148  1  0  0  0
 77 79  1  0  0  0
 77149  1  0  0  0
 77150  1  0  0  0
 77151  1  0  0  0
 78152  1  0  0  0
 78153  1  0  0  0
 78154  1  0  0  0
 78 83  1  0  0  0
 79155  1  0  0  0
 79156  1  0  0  0
 80 81  1  0  0  0
 80157  1  0  0  0
 80158  1  0  0  0
 81 82  1  0  0  0
 81159  1  0  0  0
 81160  1  0  0  0
 82161  1  0  0  0
 82162  1  0  0  0
 83 85  1  0  0  0
 83163  1  0  0  0
 85164  1  0  0  0
M  ISO  4   1 100  68 101  82 101  85 100
M  END
> <chiral flag>
0

> <version>
0

> <s_m_source_file>
/data/baiqing/PycharmProjects/Reinvent-master-3.2/result/LINK_invent/BTK/process_docking_weight1_custom_sum_contain_oxygen_bond_distance_aromatic_linkinvent_7_9_3/rearranged_h_0080.sdf

> <i_m_source_file_index>
16

> <r_mmod_Potential_Energy-OPLS-2005>
32087.8828125

> <r_mmod_Stretch_Energy-OPLS-2005>
17650.85546875

> <r_mmod_Bend_Energy-OPLS-2005>
2231.43530273438

> <r_mmod_Torsional_Energy-OPLS-2005>
627.254028320312

> <r_mmod_Improper_Torsional_Energy-OPLS-2005>
97.2745056152344

> <r_mmod_Van_der_Waal_Energy-OPLS-2005>
6396.56591796875

> <r_mmod_Electrostatic_Energy-OPLS-2005>
-606.262512207031

> <r_mmod_Solvation_Energy-OPLS-2005>
-254.72819519043

> <b_mmod_Minimization_Converged-OPLS-2005>
0

> <r_mmod_RMS_Derivative-OPLS-2005>
5.29749917984009

$$$$
18
                    3D
 Structure written by MMmdl.
168176  0  0  1  0            999 V2000
  -30.6102  -14.6604   20.2449 C   0  0  0  0  0  0
  -30.4234  -12.3622   19.4265 C   0  0  0  0  0  0
  -29.4826  -12.4141   18.2043 C   0  0  0  0  0  0
  -28.0060  -12.3062   18.6401 C   0  0  0  0  0  0
  -27.6327  -13.2086   19.8464 C   0  0  2  0  0  0
  -28.7072  -13.1550   20.9533 C   0  0  0  0  0  0
  -25.2557  -13.7964   20.6137 C   0  0  0  0  0  0
  -24.1799  -13.0213   20.9340 C   0  0  0  0  0  0
  -24.6382  -11.6710   20.8775 C   0  0  0  0  0  0
  -23.9036  -10.4139   21.0403 C   0  0  0  0  0  0
  -24.3596   -9.4055   21.9187 C   0  0  0  0  0  0
  -23.6252   -8.2116   22.0746 C   0  0  0  0  0  0
  -22.4222   -8.0193   21.3551 C   0  0  0  0  0  0
  -21.9869   -9.0150   20.4650 C   0  0  0  0  0  0
  -22.7228  -10.2014   20.3039 C   0  0  0  0  0  0
  -21.6807   -6.0720   22.5308 C   0  0  0  0  0  0
  -21.3974   -6.5626   23.8241 C   0  0  0  0  0  0
  -21.3644   -5.6784   24.9189 C   0  0  0  0  0  0
  -21.6036   -4.3043   24.7245 C   0  0  0  0  0  0
  -21.8828   -3.8142   23.4370 C   0  0  0  0  0  0
  -21.9187   -4.6958   22.3417 C   0  0  0  0  0  0
  -22.7841  -13.5064   21.1995 C   0  0  0  0  0  0
  -22.1678   -4.2161   21.1004 F   0  0  0  0  0  0
  -21.5626   -3.4514   25.7755 F   0  0  0  0  0  0
  -30.0138  -13.4350   20.3456 N   0  0  0  0  0  0
  -26.2948  -12.9188   20.3476 N   0  0  0  0  0  0
  -25.9313  -11.6332   20.5801 N   0  0  0  0  0  0
  -22.0408  -12.8057   22.0484 N   0  0  0  0  0  0
  -25.4160  -15.1707   20.5232 N   0  0  0  0  0  0
  -31.8298  -14.7589   20.3806 O   0  0  0  0  0  0
  -21.6567   -6.8830   21.4270 O   0  0  0  0  0  0
  -22.3600  -14.5426   20.6867 O   0  0  0  0  0  0
  -24.6254  -31.8566   23.1975 C   0  0  0  0  0  0
  -25.9067  -32.4773   23.8350 C   0  0  1  0  0  0
  -27.2096  -27.3162   20.0884 C   0  0  0  0  0  0
  -25.5887  -33.8585   24.2262 N   0  0  0  0  0  0
  -23.4166  -30.4811   21.5439 C   0  0  2  0  0  0
  -24.8605  -28.9418   20.1045 C   0  0  0  0  0  0
  -22.7506  -29.4530   22.4878 C   0  0  0  0  0  0
  -18.0303  -28.1296   22.8486 C   0  0  0  0  0  0
  -24.1514  -36.7343   23.2615 C   0  0  0  0  0  0
  -25.9597  -30.7819   21.3661 C   0  0  0  0  0  0
  -26.0303  -29.4122   20.7095 C   0  0  0  0  0  0
  -27.2130  -28.6097   20.6924 C   0  0  0  0  0  0
  -26.0197  -26.9032   19.4561 C   0  0  0  0  0  0
  -24.8562  -27.6934   19.4671 C   0  0  0  0  0  0
  -23.6283  -29.8206   20.1585 C   0  0  0  0  0  0
  -25.4144  -36.3103   24.0276 C   0  0  1  0  0  0
  -20.5905  -28.3660   23.1231 C   0  0  2  0  0  0
  -20.6837  -26.9379   22.5378 C   0  0  0  0  0  0
  -19.5801  -26.6299   21.5212 C   0  0  0  0  0  0
  -18.1956  -26.7834   22.1594 C   0  0  0  0  0  0
  -19.1549  -28.8806   23.2858 C   0  0  0  0  0  0
  -18.9477  -30.1412   23.8887 C   0  0  0  0  0  0
  -17.6476  -30.6547   24.0556 C   0  0  0  0  0  0
  -25.9036  -34.9448   23.5078 C   0  0  0  0  0  0
  -16.5370  -29.9027   23.6313 C   0  0  0  0  0  0
  -16.7289  -28.6418   23.0375 C   0  0  0  0  0  0
  -26.4514  -31.6577   25.0735 C   0  0  0  0  0  0
  -25.3712  -31.3671   26.1433 C   0  0  0  0  0  0
  -27.0457  -30.3043   24.6186 C   0  0  0  0  0  0
  -27.6149  -32.4340   25.7421 C   0  0  0  0  0  0
  -27.5597  -37.1796   24.8467 C   0  0  0  0  0  0
  -21.4229  -29.2984   22.3646 N   0  0  0  0  0  0
  -26.4341  -37.3784   23.9380 N   0  0  0  0  0  0
  -24.6866  -31.0574   22.0938 N   0  0  0  0  0  0
  -23.4240  -28.8020   23.2911 O   0  0  0  0  0  0
  -28.3371  -26.4803   20.1443 O   0  0  0  0  0  0
  -26.5628  -34.8893   22.4640 O   0  0  0  0  0  0
  -23.5398  -32.1357   23.7283 O   0  0  0  0  0  0
  -28.2637  -21.6737   21.2451 C   0  0  0  0  0  0
  -30.3204  -20.6597   19.7609 C   0  0  0  0  0  0
  -28.4716  -20.2609   21.2438 C   0  0  0  0  0  0
  -29.5623  -19.7229   20.5052 C   0  0  0  0  0  0
  -29.1171  -22.5379   20.5081 C   0  0  0  0  0  0
  -27.5425  -19.3542   22.0401 C   0  0  0  0  0  0
  -27.2320  -16.8099   18.0472 C   0  0  0  0  0  0
  -30.9127  -16.2069   18.1848 C   0  0  0  0  0  0
  -28.5985  -24.9176   18.3167 C   0  0  0  0  0  0
  -30.0210  -18.2177   20.5584 C   0  0  0  0  0  0
  -29.1219  -24.0978   20.6967 C   0  0  0  0  0  0
  -28.2322  -17.7097   18.7963 C   0  0  0  0  0  0
  -29.9447  -15.7910   19.3286 C   0  0  2  0  0  0
  -29.1553  -17.0707   19.8867 C   0  0  1  0  0  0
  -28.2286  -25.0413   19.8016 C   0  0  1  0  0  0
  -30.1106  -22.0062   19.7549 N   0  0  0  0  0  0
  -31.4650  -12.4720   19.1141 H   0  0  0  0  0  0
  -30.3542  -11.3913   19.9162 H   0  0  0  0  0  0
  -29.7134  -11.5920   17.5281 H   0  0  0  0  0  0
  -29.6481  -13.3226   17.6292 H   0  0  0  0  0  0
  -27.8343  -11.2637   18.9043 H   0  0  0  0  0  0
  -27.3452  -12.5151   17.8000 H   0  0  0  0  0  0
  -27.5790  -14.2226   19.4743 H   0  0  0  0  0  0
  -28.7203  -12.1711   21.4277 H   0  0  0  0  0  0
  -28.4909  -13.8811   21.7389 H   0  0  0  0  0  0
  -25.2738   -9.5506   22.4768 H   0  0  0  0  0  0
  -23.9946   -7.4487   22.7426 H   0  0  0  0  0  0
  -21.0801   -8.8668   19.8952 H   0  0  0  0  0  0
  -22.3702  -10.9550   19.6139 H   0  0  0  0  0  0
  -21.1946   -7.6131   23.9752 H   0  0  0  0  0  0
  -21.1468   -6.0507   25.9112 H   0  0  0  0  0  0
  -22.0627   -2.7611   23.2860 H   0  0  0  0  0  0
  -22.3875  -11.9621   22.4818 H   0  0  0  0  0  0
  -21.1051  -13.1123   22.2659 H   0  0  0  0  0  0
  -24.6481  -15.8008   20.7142 H   0  0  0  0  0  0
  -26.2849  -15.6510   20.3283 H   0  0  0  0  0  0
  -26.7129  -32.5492   23.1072 H   0  0  0  0  0  0
  -25.0230  -33.9783   25.0543 H   0  0  0  0  0  0
  -22.7058  -31.3017   21.4100 H   0  0  0  0  0  0
  -23.3783  -35.9673   23.3302 H   0  0  0  0  0  0
  -24.3600  -36.8981   22.2045 H   0  0  0  0  0  0
  -23.7259  -37.6517   23.6677 H   0  0  0  0  0  0
  -26.0868  -31.5323   20.5847 H   0  0  0  0  0  0
  -26.8370  -30.8410   21.9946 H   0  0  0  0  0  0
  -28.1150  -28.9548   21.1739 H   0  0  0  0  0  0
  -25.9461  -25.9598   18.9376 H   0  0  0  0  0  0
  -23.9624  -27.3266   18.9791 H   0  0  0  0  0  0
  -23.7296  -30.6045   19.4106 H   0  0  0  0  0  0
  -22.7513  -29.2445   19.8571 H   0  0  0  0  0  0
  -25.1296  -36.1990   25.0763 H   0  0  0  0  0  0
  -21.0041  -28.3280   24.1323 H   0  0  0  0  0  0
  -20.5828  -26.2262   23.3577 H   0  0  0  0  0  0
  -21.6676  -26.7408   22.1087 H   0  0  0  0  0  0
  -19.6997  -25.6203   21.1241 H   0  0  0  0  0  0
  -19.6736  -27.3136   20.6764 H   0  0  0  0  0  0
  -17.4247  -26.6651   21.3965 H   0  0  0  0  0  0
  -18.0347  -25.9892   22.8914 H   0  0  0  0  0  0
  -19.7966  -30.7262   24.2179 H   0  0  0  0  0  0
  -17.5033  -31.6211   24.5174 H   0  0  0  0  0  0
  -15.5396  -30.2966   23.7578 H   0  0  0  0  0  0
  -15.8676  -28.0759   22.7073 H   0  0  0  0  0  0
  -24.5879  -30.7058   25.7681 H   0  0  0  0  0  0
  -24.8899  -32.2822   26.4868 H   0  0  0  0  0  0
  -25.7878  -30.8772   27.0219 H   0  0  0  0  0  0
  -26.3029  -29.6743   24.1286 H   0  0  0  0  0  0
  -27.4352  -29.7370   25.4646 H   0  0  0  0  0  0
  -27.8788  -30.4454   23.9298 H   0  0  0  0  0  0
  -27.2798  -33.3650   26.1984 H   0  0  0  0  0  0
  -28.3828  -32.6878   25.0111 H   0  0  0  0  0  0
  -28.0977  -31.8500   26.5268 H   0  0  0  0  0  0
  -28.2561  -38.0147   24.7526 H   0  0  0  0  0  0
  -28.1102  -36.2638   24.6242 H   0  0  0  0  0  0
  -27.2287  -37.1393   25.8863 H   0  0  0  0  0  0
  -20.9424  -29.8749   21.6907 H   0  0  0  0  0  0
  -26.0249  -38.2843   24.1453 H   0  0  0  0  0  0
  -27.4830  -22.0982   21.8654 H   0  0  0  0  0  0
  -31.1776  -20.3297   19.1912 H   0  0  0  0  0  0
  -27.0984  -19.8783   22.8900 H   0  0  0  0  0  0
  -28.0595  -18.4821   22.4403 H   0  0  0  0  0  0
  -26.7349  -18.9906   21.3994 H   0  0  0  0  0  0
  -26.6447  -17.4078   17.3525 H   0  0  0  0  0  0
  -26.5224  -16.3749   18.7305 H   0  0  0  0  0  0
  -27.6889  -16.0066   17.4699 H   0  0  0  0  0  0
  -30.3581  -16.5665   17.3176 H   0  0  0  0  0  0
  -31.5311  -15.3743   17.8470 H   0  0  0  0  0  0
  -31.5980  -17.0017   18.4697 H   0  0  0  0  0  0
  -28.4819  -23.8928   17.9628 H   0  0  0  0  0  0
  -29.6445  -25.2054   18.1743 H   0  0  0  0  0  0
  -27.9844  -25.5604   17.6820 H   0  0  0  0  0  0
  -30.2323  -17.9408   21.5906 H   0  0  0  0  0  0
  -31.0092  -18.2066   20.1022 H   0  0  0  0  0  0
  -30.1506  -24.4357   20.5671 H   0  0  0  0  0  0
  -28.8978  -24.2835   21.7432 H   0  0  0  0  0  0
  -27.6276  -18.4825   19.2663 H   0  0  0  0  0  0
  -28.8260  -18.2459   18.0538 H   0  0  0  0  0  0
  -29.2079  -15.2235   18.7789 H   0  0  0  0  0  0
  -28.4829  -16.6955   20.6592 H   0  0  0  0  0  0
  -27.2164  -24.6660   19.9485 H   0  0  0  0  0  0
  1 25  1  0  0  0
  1 30  2  0  0  0
  1 83  1  0  0  0
  2  3  1  0  0  0
  2 25  1  0  0  0
  2 87  1  0  0  0
  2 88  1  0  0  0
  3  4  1  0  0  0
  3 89  1  0  0  0
  3 90  1  0  0  0
  4  5  1  0  0  0
  4 91  1  0  0  0
  4 92  1  0  0  0
  5  6  1  0  0  0
  5 26  1  0  0  0
  5 93  1  0  0  0
  6 25  1  0  0  0
  6 94  1  0  0  0
  6 95  1  0  0  0
  7  8  2  0  0  0
  7 26  1  0  0  0
  7 29  1  0  0  0
  8  9  1  0  0  0
  8 22  1  0  0  0
  9 10  1  0  0  0
  9 27  2  0  0  0
 10 11  2  0  0  0
 10 15  1  0  0  0
 11 12  1  0  0  0
 11 96  1  0  0  0
 12 13  2  0  0  0
 12 97  1  0  0  0
 13 14  1  0  0  0
 13 31  1  0  0  0
 14 15  2  0  0  0
 14 98  1  0  0  0
 15 99  1  0  0  0
 16 17  2  0  0  0
 16 21  1  0  0  0
 16 31  1  0  0  0
 17 18  1  0  0  0
 17100  1  0  0  0
 18 19  2  0  0  0
 18101  1  0  0  0
 19 20  1  0  0  0
 19 24  1  0  0  0
 20 21  2  0  0  0
 20102  1  0  0  0
 21 23  1  0  0  0
 22 28  1  0  0  0
 22 32  2  0  0  0
 26 27  1  0  0  0
 28103  1  0  0  0
 28104  1  0  0  0
 29105  1  0  0  0
 29106  1  0  0  0
 33 34  1  0  0  0
 33 66  1  0  0  0
 33 70  2  0  0  0
 34 36  1  0  0  0
 34 59  1  0  0  0
 34107  1  0  0  0
 35 44  2  0  0  0
 35 45  1  0  0  0
 35 68  1  0  0  0
 36 56  1  0  0  0
 36108  1  0  0  0
 37 39  1  0  0  0
 37 47  1  0  0  0
 37 66  1  0  0  0
 37109  1  0  0  0
 38 43  2  0  0  0
 38 46  1  0  0  0
 38 47  1  0  0  0
 39 64  1  0  0  0
 39 67  2  0  0  0
 40 52  1  0  0  0
 40 53  2  0  0  0
 40 58  1  0  0  0
 41110  1  0  0  0
 41111  1  0  0  0
 41112  1  0  0  0
 41 48  1  0  0  0
 42 43  1  0  0  0
 42 66  1  0  0  0
 42113  1  0  0  0
 42114  1  0  0  0
 43 44  1  0  0  0
 44115  1  0  0  0
 45 46  2  0  0  0
 45116  1  0  0  0
 46117  1  0  0  0
 47118  1  0  0  0
 47119  1  0  0  0
 48 56  1  0  0  0
 48 65  1  0  0  0
 48120  1  0  0  0
 49 50  1  0  0  0
 49 53  1  0  0  0
 49 64  1  0  0  0
 49121  1  0  0  0
 50 51  1  0  0  0
 50122  1  0  0  0
 50123  1  0  0  0
 51 52  1  0  0  0
 51124  1  0  0  0
 51125  1  0  0  0
 52126  1  0  0  0
 52127  1  0  0  0
 53 54  1  0  0  0
 54 55  2  0  0  0
 54128  1  0  0  0
 55 57  1  0  0  0
 55129  1  0  0  0
 56 69  2  0  0  0
 57 58  2  0  0  0
 57130  1  0  0  0
 58131  1  0  0  0
 59 60  1  0  0  0
 59 61  1  0  0  0
 59 62  1  0  0  0
 60132  1  0  0  0
 60133  1  0  0  0
 60134  1  0  0  0
 61135  1  0  0  0
 61136  1  0  0  0
 61137  1  0  0  0
 62138  1  0  0  0
 62139  1  0  0  0
 62140  1  0  0  0
 63 65  1  0  0  0
 63141  1  0  0  0
 63142  1  0  0  0
 63143  1  0  0  0
 64144  1  0  0  0
 65145  1  0  0  0
 68 85  1  0  0  0
 71 73  2  0  0  0
 71 75  1  0  0  0
 71146  1  0  0  0
 72 74  2  0  0  0
 72 86  1  0  0  0
 72147  1  0  0  0
 73 74  1  0  0  0
 73 76  1  0  0  0
 74 80  1  0  0  0
 75 81  1  0  0  0
 75 86  2  0  0  0
 76148  1  0  0  0
 76149  1  0  0  0
 76150  1  0  0  0
 77 82  1  0  0  0
 77151  1  0  0  0
 77152  1  0  0  0
 77153  1  0  0  0
 78154  1  0  0  0
 78155  1  0  0  0
 78156  1  0  0  0
 78 83  1  0  0  0
 79157  1  0  0  0
 79158  1  0  0  0
 79159  1  0  0  0
 79 85  1  0  0  0
 80160  1  0  0  0
 80161  1  0  0  0
 80 84  1  0  0  0
 81 85  1  0  0  0
 81162  1  0  0  0
 81163  1  0  0  0
 82 84  1  0  0  0
 82164  1  0  0  0
 82165  1  0  0  0
 83 84  1  0  0  0
 83166  1  0  0  0
 84167  1  0  0  0
 85168  1  0  0  0
M  ISO  4   1 100  68 101  83 100  85 101
M  END
> <chiral flag>
0

> <version>
0

> <s_m_source_file>
/data/baiqing/PycharmProjects/Reinvent-master-3.2/result/LINK_invent/BTK/process_docking_weight1_custom_sum_contain_oxygen_bond_distance_aromatic_linkinvent_7_9_3/rearranged_h_0080.sdf

> <i_m_source_file_index>
17

> <r_mmod_Potential_Energy-OPLS-2005>
100.029258728027

> <r_mmod_Stretch_Energy-OPLS-2005>
83.5532455444336

> <r_mmod_Bend_Energy-OPLS-2005>
160.415908813477

> <r_mmod_Torsional_Energy-OPLS-2005>
227.554702758789

> <r_mmod_Improper_Torsional_Energy-OPLS-2005>
21.5898418426514

> <r_mmod_Van_der_Waal_Energy-OPLS-2005>
148.67756652832

> <r_mmod_Electrostatic_Energy-OPLS-2005>
-427.317321777344

> <r_mmod_Solvation_Energy-OPLS-2005>
-197.254745483398

> <b_mmod_Minimization_Converged-OPLS-2005>
0

> <r_mmod_RMS_Derivative-OPLS-2005>
7.37532186508179

$$$$
19
                    3D
 Structure written by MMmdl.
161169  0  0  1  0            999 V2000
  -30.6072  -14.8547   20.4476 C   0  0  0  0  0  0
  -30.4310  -12.5308   19.4937 C   0  0  0  0  0  0
  -29.5132  -12.5134   18.2510 C   0  0  0  0  0  0
  -28.0429  -12.3278   18.6660 C   0  0  0  0  0  0
  -27.6328  -13.2487   19.8457 C   0  0  2  0  0  0
  -28.6785  -13.2496   20.9823 C   0  0  0  0  0  0
  -25.2460  -13.8233   20.5724 C   0  0  0  0  0  0
  -24.1777  -13.0453   20.9250 C   0  0  0  0  0  0
  -24.6402  -11.6940   20.8789 C   0  0  0  0  0  0
  -23.9092  -10.4303   21.0426 C   0  0  0  0  0  0
  -24.3645   -9.4212   21.9183 C   0  0  0  0  0  0
  -23.6320   -8.2249   22.0739 C   0  0  0  0  0  0
  -22.4297   -8.0295   21.3543 C   0  0  0  0  0  0
  -21.9945   -9.0270   20.4640 C   0  0  0  0  0  0
  -22.7274  -10.2144   20.3058 C   0  0  0  0  0  0
  -21.6849   -6.0752   22.5280 C   0  0  0  0  0  0
  -21.4007   -6.5645   23.8217 C   0  0  0  0  0  0
  -21.3666   -5.6789   24.9177 C   0  0  0  0  0  0
  -21.6057   -4.3057   24.7211 C   0  0  0  0  0  0
  -21.8827   -3.8156   23.4324 C   0  0  0  0  0  0
  -21.9194   -4.6983   22.3389 C   0  0  0  0  0  0
  -22.7798  -13.5214   21.1912 C   0  0  0  0  0  0
  -22.1669   -4.2182   21.0962 F   0  0  0  0  0  0
  -21.5633   -3.4525   25.7712 F   0  0  0  0  0  0
  -29.9631  -13.6274   20.3844 N   0  0  0  0  0  0
  -26.2897  -12.9472   20.3292 N   0  0  0  0  0  0
  -25.9335  -11.6596   20.5771 N   0  0  0  0  0  0
  -22.0461  -12.8179   22.0462 N   0  0  0  0  0  0
  -25.4149  -15.1964   20.4147 N   0  0  0  0  0  0
  -31.8087  -14.8892   20.1731 O   0  0  0  0  0  0
  -21.6657   -6.8896   21.4241 O   0  0  0  0  0  0
  -22.3468  -14.5527   20.6779 O   0  0  0  0  0  0
  -24.6393  -31.8484   23.1948 C   0  0  0  0  0  0
  -25.9184  -32.4724   23.8308 C   0  0  1  0  0  0
  -27.2012  -27.1554   20.1451 C   0  0  0  0  0  0
  -25.5959  -33.8536   24.2232 N   0  0  0  0  0  0
  -23.4410  -30.4714   21.5386 C   0  0  2  0  0  0
  -24.8909  -28.9194   20.1006 C   0  0  0  0  0  0
  -22.7546  -29.4569   22.4863 C   0  0  0  0  0  0
  -18.0300  -28.1388   22.8478 C   0  0  0  0  0  0
  -24.1488  -36.7252   23.2635 C   0  0  0  0  0  0
  -25.9958  -30.7254   21.3970 C   0  0  0  0  0  0
  -26.0638  -29.3415   20.7383 C   0  0  0  0  0  0
  -27.2148  -28.4704   20.7587 C   0  0  0  0  0  0
  -26.0243  -26.8727   19.4140 C   0  0  0  0  0  0
  -24.8848  -27.6970   19.4208 C   0  0  0  0  0  0
  -23.6665  -29.8157   20.1518 C   0  0  0  0  0  0
  -25.4118  -36.3047   24.0318 C   0  0  1  0  0  0
  -20.5912  -28.3718   23.1225 C   0  0  2  0  0  0
  -20.6804  -26.9423   22.5401 C   0  0  0  0  0  0
  -19.5778  -26.6379   21.5213 C   0  0  0  0  0  0
  -18.1951  -26.7930   22.1616 C   0  0  0  0  0  0
  -19.1555  -28.8869   23.2843 C   0  0  0  0  0  0
  -18.9482  -30.1462   23.8879 C   0  0  0  0  0  0
  -17.6485  -30.6596   24.0554 C   0  0  0  0  0  0
  -25.9066  -34.9423   23.5073 C   0  0  0  0  0  0
  -16.5372  -29.9093   23.6330 C   0  0  0  0  0  0
  -16.7283  -28.6499   23.0364 C   0  0  0  0  0  0
  -26.4520  -31.6577   25.0734 C   0  0  0  0  0  0
  -25.3714  -31.3774   26.1440 C   0  0  0  0  0  0
  -27.0377  -30.2970   24.6302 C   0  0  0  0  0  0
  -27.6051  -32.4332   25.7523 C   0  0  0  0  0  0
  -27.5570  -37.1795   24.8469 C   0  0  0  0  0  0
  -21.4242  -29.3058   22.3616 N   0  0  0  0  0  0
  -26.4283  -37.3755   23.9410 N   0  0  0  0  0  0
  -24.7113  -31.0344   22.0993 N   0  0  0  0  0  0
  -23.4200  -28.8097   23.2988 O   0  0  0  0  0  0
  -28.2406  -26.1620   20.2731 O   0  0  0  0  0  0
  -26.5632  -34.8912   22.4639 O   0  0  0  0  0  0
  -23.5514  -32.1373   23.7159 O   0  0  0  0  0  0
  -28.5095  -20.9502   21.2764 C   0  0  0  0  0  0
  -28.7900  -19.5277   21.2550 C   0  0  0  0  0  0
  -29.2475  -21.9189   20.5112 C   0  0  0  0  0  0
  -29.8354  -18.9741   20.4618 C   0  0  0  0  0  0
  -30.2409  -21.2597   19.7135 C   0  0  0  0  0  0
  -32.4944  -22.4239   19.5899 C   0  0  0  0  0  0
  -28.1914  -24.4018   18.5302 C   0  0  0  0  0  0
  -26.7401  -24.1039   20.6327 C   0  0  0  0  0  0
  -29.1618  -23.5538   20.7224 C   0  0  0  0  0  0
  -31.1973  -22.0688   18.8516 C   0  0  0  0  0  0
  -30.5136  -17.4880   20.5668 C   0  0  0  0  0  0
  -28.0823  -24.6209   20.0526 C   0  0  0  0  0  0
  -30.5043  -19.8980   19.7011 N   0  0  0  0  0  0
  -29.8988  -16.0612   20.6066 N   0  0  0  0  0  0
  -31.4694  -12.6620   19.1843 H   0  0  0  0  0  0
  -30.3954  -11.5726   20.0128 H   0  0  0  0  0  0
  -29.8082  -11.7133   17.5698 H   0  0  0  0  0  0
  -29.6280  -13.4455   17.6948 H   0  0  0  0  0  0
  -27.9145  -11.2834   18.9537 H   0  0  0  0  0  0
  -27.3842  -12.4936   17.8125 H   0  0  0  0  0  0
  -27.6016  -14.2582   19.4344 H   0  0  0  0  0  0
  -28.7435  -12.2682   21.4549 H   0  0  0  0  0  0
  -28.3956  -13.9546   21.7677 H   0  0  0  0  0  0
  -25.2789   -9.5688   22.4757 H   0  0  0  0  0  0
  -24.0048   -7.4630   22.7426 H   0  0  0  0  0  0
  -21.0888   -8.8779   19.8927 H   0  0  0  0  0  0
  -22.3733  -10.9688   19.6174 H   0  0  0  0  0  0
  -21.1989   -7.6153   23.9728 H   0  0  0  0  0  0
  -21.1487   -6.0513   25.9080 H   0  0  0  0  0  0
  -22.0602   -2.7620   23.2806 H   0  0  0  0  0  0
  -22.4098  -11.9842   22.4837 H   0  0  0  0  0  0
  -21.1066  -13.1159   22.2680 H   0  0  0  0  0  0
  -24.6487  -15.8515   20.5278 H   0  0  0  0  0  0
  -26.2576  -15.6343   20.0647 H   0  0  0  0  0  0
  -26.7253  -32.5336   23.1030 H   0  0  0  0  0  0
  -25.0162  -33.9686   25.0417 H   0  0  0  0  0  0
  -22.7411  -31.2967   21.3922 H   0  0  0  0  0  0
  -23.3762  -35.9570   23.3297 H   0  0  0  0  0  0
  -24.3575  -36.8878   22.2050 H   0  0  0  0  0  0
  -23.7247  -37.6450   23.6670 H   0  0  0  0  0  0
  -26.1529  -31.4802   20.6245 H   0  0  0  0  0  0
  -26.8649  -30.7711   22.0413 H   0  0  0  0  0  0
  -28.0955  -28.7768   21.3070 H   0  0  0  0  0  0
  -25.9264  -25.9792   18.8292 H   0  0  0  0  0  0
  -24.0045  -27.3824   18.8764 H   0  0  0  0  0  0
  -23.7991  -30.5988   19.4037 H   0  0  0  0  0  0
  -22.7819  -29.2586   19.8385 H   0  0  0  0  0  0
  -25.1306  -36.1868   25.0812 H   0  0  0  0  0  0
  -21.0003  -28.3314   24.1341 H   0  0  0  0  0  0
  -20.5717  -26.2325   23.3618 H   0  0  0  0  0  0
  -21.6666  -26.7459   22.1183 H   0  0  0  0  0  0
  -19.6949  -25.6285   21.1257 H   0  0  0  0  0  0
  -19.6718  -27.3175   20.6733 H   0  0  0  0  0  0
  -17.4226  -26.6657   21.4020 H   0  0  0  0  0  0
  -18.0346  -26.0081   22.9016 H   0  0  0  0  0  0
  -19.7959  -30.7266   24.2253 H   0  0  0  0  0  0
  -17.5045  -31.6281   24.5144 H   0  0  0  0  0  0
  -15.5368  -30.2995   23.7679 H   0  0  0  0  0  0
  -15.8676  -28.0816   22.7112 H   0  0  0  0  0  0
  -24.5921  -30.7075   25.7799 H   0  0  0  0  0  0
  -24.8866  -32.2954   26.4767 H   0  0  0  0  0  0
  -25.8004  -30.9053   27.0286 H   0  0  0  0  0  0
  -26.2998  -29.6709   24.1278 H   0  0  0  0  0  0
  -27.3964  -29.7253   25.4869 H   0  0  0  0  0  0
  -27.8910  -30.4207   23.9634 H   0  0  0  0  0  0
  -27.2656  -33.3662   26.2027 H   0  0  0  0  0  0
  -28.3901  -32.6841   25.0382 H   0  0  0  0  0  0
  -28.0664  -31.8506   26.5507 H   0  0  0  0  0  0
  -28.2587  -38.0092   24.7494 H   0  0  0  0  0  0
  -28.1063  -36.2619   24.6304 H   0  0  0  0  0  0
  -27.2282  -37.1444   25.8871 H   0  0  0  0  0  0
  -20.9437  -29.8773   21.6822 H   0  0  0  0  0  0
  -26.0140  -38.2813   24.1431 H   0  0  0  0  0  0
  -27.7437  -21.2987   21.9540 H   0  0  0  0  0  0
  -28.2385  -18.8737   21.9164 H   0  0  0  0  0  0
  -33.0480  -21.5243   19.8587 H   0  0  0  0  0  0
  -32.2911  -22.9764   20.5061 H   0  0  0  0  0  0
  -33.1424  -23.0398   18.9669 H   0  0  0  0  0  0
  -28.1678  -23.3417   18.2786 H   0  0  0  0  0  0
  -29.1357  -24.8040   18.1613 H   0  0  0  0  0  0
  -27.4092  -24.8760   17.9481 H   0  0  0  0  0  0
  -26.6876  -23.0176   20.5771 H   0  0  0  0  0  0
  -25.8425  -24.4282   20.1204 H   0  0  0  0  0  0
  -26.6386  -24.3779   21.6832 H   0  0  0  0  0  0
  -30.1493  -23.9510   20.4952 H   0  0  0  0  0  0
  -29.0985  -23.6910   21.8025 H   0  0  0  0  0  0
  -30.7102  -22.9757   18.4982 H   0  0  0  0  0  0
  -31.4336  -21.4963   17.9548 H   0  0  0  0  0  0
  -31.1415  -17.5392   21.4574 H   0  0  0  0  0  0
  -31.2304  -17.4517   19.7464 H   0  0  0  0  0  0
  -28.9058  -16.0038   20.7646 H   0  0  0  0  0  0
  1 25  1  0  0  0
  1 30  2  0  0  0
  1 84  1  0  0  0
  2  3  1  0  0  0
  2 25  1  0  0  0
  2 85  1  0  0  0
  2 86  1  0  0  0
  3  4  1  0  0  0
  3 87  1  0  0  0
  3 88  1  0  0  0
  4  5  1  0  0  0
  4 89  1  0  0  0
  4 90  1  0  0  0
  5  6  1  0  0  0
  5 26  1  0  0  0
  5 91  1  0  0  0
  6 25  1  0  0  0
  6 92  1  0  0  0
  6 93  1  0  0  0
  7  8  2  0  0  0
  7 26  1  0  0  0
  7 29  1  0  0  0
  8  9  1  0  0  0
  8 22  1  0  0  0
  9 10  1  0  0  0
  9 27  2  0  0  0
 10 11  2  0  0  0
 10 15  1  0  0  0
 11 12  1  0  0  0
 11 94  1  0  0  0
 12 13  2  0  0  0
 12 95  1  0  0  0
 13 14  1  0  0  0
 13 31  1  0  0  0
 14 15  2  0  0  0
 14 96  1  0  0  0
 15 97  1  0  0  0
 16 17  2  0  0  0
 16 21  1  0  0  0
 16 31  1  0  0  0
 17 18  1  0  0  0
 17 98  1  0  0  0
 18 19  2  0  0  0
 18 99  1  0  0  0
 19 20  1  0  0  0
 19 24  1  0  0  0
 20 21  2  0  0  0
 20100  1  0  0  0
 21 23  1  0  0  0
 22 28  1  0  0  0
 22 32  2  0  0  0
 26 27  1  0  0  0
 28101  1  0  0  0
 28102  1  0  0  0
 29103  1  0  0  0
 29104  1  0  0  0
 33 34  1  0  0  0
 33 66  1  0  0  0
 33 70  2  0  0  0
 34 36  1  0  0  0
 34 59  1  0  0  0
 34105  1  0  0  0
 35 44  2  0  0  0
 35 45  1  0  0  0
 35 68  1  0  0  0
 36 56  1  0  0  0
 36106  1  0  0  0
 37 39  1  0  0  0
 37 47  1  0  0  0
 37 66  1  0  0  0
 37107  1  0  0  0
 38 43  2  0  0  0
 38 46  1  0  0  0
 38 47  1  0  0  0
 39 64  1  0  0  0
 39 67  2  0  0  0
 40 52  1  0  0  0
 40 53  2  0  0  0
 40 58  1  0  0  0
 41108  1  0  0  0
 41109  1  0  0  0
 41110  1  0  0  0
 41 48  1  0  0  0
 42 43  1  0  0  0
 42 66  1  0  0  0
 42111  1  0  0  0
 42112  1  0  0  0
 43 44  1  0  0  0
 44113  1  0  0  0
 45 46  2  0  0  0
 45114  1  0  0  0
 46115  1  0  0  0
 47116  1  0  0  0
 47117  1  0  0  0
 48 56  1  0  0  0
 48 65  1  0  0  0
 48118  1  0  0  0
 49 50  1  0  0  0
 49 53  1  0  0  0
 49 64  1  0  0  0
 49119  1  0  0  0
 50 51  1  0  0  0
 50120  1  0  0  0
 50121  1  0  0  0
 51 52  1  0  0  0
 51122  1  0  0  0
 51123  1  0  0  0
 52124  1  0  0  0
 52125  1  0  0  0
 53 54  1  0  0  0
 54 55  2  0  0  0
 54126  1  0  0  0
 55 57  1  0  0  0
 55127  1  0  0  0
 56 69  2  0  0  0
 57 58  2  0  0  0
 57128  1  0  0  0
 58129  1  0  0  0
 59 60  1  0  0  0
 59 61  1  0  0  0
 59 62  1  0  0  0
 60130  1  0  0  0
 60131  1  0  0  0
 60132  1  0  0  0
 61133  1  0  0  0
 61134  1  0  0  0
 61135  1  0  0  0
 62136  1  0  0  0
 62137  1  0  0  0
 62138  1  0  0  0
 63 65  1  0  0  0
 63139  1  0  0  0
 63140  1  0  0  0
 63141  1  0  0  0
 64142  1  0  0  0
 65143  1  0  0  0
 68 82  1  0  0  0
 71 72  2  0  0  0
 71 73  1  0  0  0
 71144  1  0  0  0
 72 74  1  0  0  0
 72145  1  0  0  0
 73 75  2  0  0  0
 73 79  1  0  0  0
 74 81  1  0  0  0
 74 83  2  0  0  0
 75 80  1  0  0  0
 75 83  1  0  0  0
 76 80  1  0  0  0
 76146  1  0  0  0
 76147  1  0  0  0
 76148  1  0  0  0
 77149  1  0  0  0
 77150  1  0  0  0
 77151  1  0  0  0
 77 82  1  0  0  0
 78 82  1  0  0  0
 78152  1  0  0  0
 78153  1  0  0  0
 78154  1  0  0  0
 79 82  1  0  0  0
 79155  1  0  0  0
 79156  1  0  0  0
 80157  1  0  0  0
 80158  1  0  0  0
 81 84  1  0  0  0
 81159  1  0  0  0
 81160  1  0  0  0
 84161  1  0  0  0
M  ISO  4   1 100  68 101  82 101  84 100
M  END
> <chiral flag>
0

> <version>
0

> <s_m_source_file>
/data/baiqing/PycharmProjects/Reinvent-master-3.2/result/LINK_invent/BTK/process_docking_weight1_custom_sum_contain_oxygen_bond_distance_aromatic_linkinvent_7_9_3/rearranged_h_0080.sdf

> <i_m_source_file_index>
18

> <r_mmod_Potential_Energy-OPLS-2005>
85.8692626953125

> <r_mmod_Stretch_Energy-OPLS-2005>
201.869705200195

> <r_mmod_Bend_Energy-OPLS-2005>
260.567138671875

> <r_mmod_Torsional_Energy-OPLS-2005>
205.536956787109

> <r_mmod_Improper_Torsional_Energy-OPLS-2005>
7.43041229248047

> <r_mmod_Van_der_Waal_Energy-OPLS-2005>
145.654296875

> <r_mmod_Electrostatic_Energy-OPLS-2005>
-676.91357421875

> <r_mmod_Solvation_Energy-OPLS-2005>
-216.758071899414

> <b_mmod_Minimization_Converged-OPLS-2005>
0

> <r_mmod_RMS_Derivative-OPLS-2005>
2.42178535461426

$$$$
20
                    3D
 Structure written by MMmdl.
178186  0  0  1  0            999 V2000
  -30.7082  -14.4818   20.5210 C   0  0  0  0  0  0
  -30.4239  -12.2954   19.4231 C   0  0  0  0  0  0
  -29.4933  -12.4881   18.2072 C   0  0  0  0  0  0
  -28.0149  -12.3521   18.6238 C   0  0  0  0  0  0
  -27.6593  -13.2016   19.8734 C   0  0  2  0  0  0
  -28.7093  -13.0099   20.9933 C   0  0  0  0  0  0
  -25.2578  -13.8153   20.5697 C   0  0  0  0  0  0
  -24.1820  -13.0424   20.9170 C   0  0  0  0  0  0
  -24.6383  -11.6896   20.8748 C   0  0  0  0  0  0
  -23.9070  -10.4282   21.0419 C   0  0  0  0  0  0
  -24.3626   -9.4192   21.9190 C   0  0  0  0  0  0
  -23.6299   -8.2228   22.0770 C   0  0  0  0  0  0
  -22.4278   -8.0283   21.3557 C   0  0  0  0  0  0
  -21.9922   -9.0255   20.4659 C   0  0  0  0  0  0
  -22.7251  -10.2121   20.3067 C   0  0  0  0  0  0
  -21.6842   -6.0730   22.5282 C   0  0  0  0  0  0
  -21.4003   -6.5629   23.8218 C   0  0  0  0  0  0
  -21.3672   -5.6779   24.9174 C   0  0  0  0  0  0
  -21.6055   -4.3050   24.7232 C   0  0  0  0  0  0
  -21.8820   -3.8149   23.4348 C   0  0  0  0  0  0
  -21.9188   -4.6965   22.3405 C   0  0  0  0  0  0
  -22.7844  -13.5213   21.1854 C   0  0  0  0  0  0
  -22.1650   -4.2145   21.0980 F   0  0  0  0  0  0
  -21.5647   -3.4535   25.7746 F   0  0  0  0  0  0
  -30.0375  -13.2987   20.4257 N   0  0  0  0  0  0
  -26.3022  -12.9310   20.3413 N   0  0  0  0  0  0
  -25.9312  -11.6475   20.5805 N   0  0  0  0  0  0
  -22.0491  -12.8195   22.0411 N   0  0  0  0  0  0
  -25.4304  -15.1873   20.4128 N   0  0  0  0  0  0
  -31.8673  -14.6327   20.1239 O   0  0  0  0  0  0
  -21.6634   -6.8883   21.4248 O   0  0  0  0  0  0
  -22.3514  -14.5528   20.6720 O   0  0  0  0  0  0
  -24.6129  -31.8684   23.2095 C   0  0  0  0  0  0
  -25.9028  -32.4823   23.8395 C   0  0  1  0  0  0
  -27.2680  -27.4624   20.0902 C   0  0  0  0  0  0
  -25.5894  -33.8621   24.2331 N   0  0  0  0  0  0
  -23.4019  -30.4892   21.5479 C   0  0  2  0  0  0
  -24.8569  -28.9563   20.1169 C   0  0  0  0  0  0
  -22.7405  -29.4663   22.4985 C   0  0  0  0  0  0
  -18.0274  -28.1371   22.8492 C   0  0  0  0  0  0
  -24.1487  -36.7311   23.2639 C   0  0  0  0  0  0
  -25.9272  -30.8446   21.3578 C   0  0  0  0  0  0
  -26.0144  -29.4803   20.7058 C   0  0  0  0  0  0
  -27.2221  -28.7454   20.6912 C   0  0  0  0  0  0
  -26.0865  -26.9454   19.5190 C   0  0  0  0  0  0
  -24.8862  -27.6836   19.5215 C   0  0  0  0  0  0
  -23.6122  -29.8154   20.1649 C   0  0  0  0  0  0
  -25.4107  -36.3112   24.0341 C   0  0  1  0  0  0
  -20.5858  -28.3663   23.1315 C   0  0  2  0  0  0
  -20.6765  -26.9401   22.5414 C   0  0  0  0  0  0
  -19.5744  -26.6383   21.5209 C   0  0  0  0  0  0
  -18.1919  -26.7922   22.1618 C   0  0  0  0  0  0
  -19.1521  -28.8834   23.2898 C   0  0  0  0  0  0
  -18.9455  -30.1441   23.8906 C   0  0  0  0  0  0
  -17.6460  -30.6583   24.0563 C   0  0  0  0  0  0
  -25.9032  -34.9476   23.5134 C   0  0  0  0  0  0
  -16.5348  -29.9083   23.6332 C   0  0  0  0  0  0
  -16.7263  -28.6496   23.0355 C   0  0  0  0  0  0
  -26.4475  -31.6597   25.0710 C   0  0  0  0  0  0
  -25.3761  -31.3693   26.1473 C   0  0  0  0  0  0
  -27.0309  -30.3046   24.6062 C   0  0  0  0  0  0
  -27.6052  -32.4316   25.7470 C   0  0  0  0  0  0
  -27.5584  -37.1804   24.8466 C   0  0  0  0  0  0
  -21.4133  -29.3028   22.3717 N   0  0  0  0  0  0
  -26.4292  -37.3796   23.9418 N   0  0  0  0  0  0
  -24.6647  -31.0806   22.0977 N   0  0  0  0  0  0
  -23.4173  -28.8216   23.3040 O   0  0  0  0  0  0
  -28.3763  -26.6366   20.0472 O   0  0  0  0  0  0
  -26.5590  -34.8928   22.4690 O   0  0  0  0  0  0
  -23.5327  -32.1417   23.7508 O   0  0  0  0  0  0
  -30.4680  -21.0994   17.9324 C   0  0  0  0  0  0
  -29.5275  -20.1943   18.3638 C   0  0  0  0  0  0
  -28.6162  -22.2407   18.3653 C   0  0  0  0  0  0
  -27.5759  -23.3131   18.4469 C   0  0  0  0  0  0
  -31.3395  -25.8872   17.2805 C   0  0  0  0  0  0
  -30.5272  -25.6358   21.9018 C   0  0  0  0  0  0
  -32.1648  -26.7275   20.3993 C   0  0  0  0  0  0
  -29.8263  -16.1727   22.0368 C   0  0  0  0  0  0
  -29.5177  -18.6874   18.3570 C   0  0  0  0  0  0
  -29.8663  -17.9756   19.6860 C   0  0  0  0  0  0
  -30.7218  -24.8033   19.5507 C   0  0  0  0  0  0
  -30.4648  -23.5497   17.2803 C   0  0  0  0  0  0
  -29.6066  -16.4456   19.5537 C   0  0  0  0  0  0
  -29.6911  -27.1833   20.1139 C   0  0  0  0  0  0
  -30.4121  -24.9133   18.0340 C   0  0  2  0  0  0
  -30.7565  -26.0905   20.4449 C   0  0  0  0  0  0
  -29.8752  -22.3425   17.9059 N   0  0  0  0  0  0
  -28.4260  -20.9507   18.6792 N   0  3  0  0  0  0
  -29.9216  -15.5700   20.7091 N   0  0  0  0  0  0
  -31.4697  -12.3819   19.1209 H   0  0  0  0  0  0
  -30.3138  -11.2890   19.8336 H   0  0  0  0  0  0
  -29.7302  -11.7568   17.4327 H   0  0  0  0  0  0
  -29.6604  -13.4707   17.7622 H   0  0  0  0  0  0
  -27.8236  -11.2968   18.8254 H   0  0  0  0  0  0
  -27.3623  -12.6241   17.7944 H   0  0  0  0  0  0
  -27.6873  -14.2417   19.5583 H   0  0  0  0  0  0
  -28.6813  -11.9848   21.3655 H   0  0  0  0  0  0
  -28.4859  -13.6426   21.8531 H   0  0  0  0  0  0
  -25.2773   -9.5649   22.4766 H   0  0  0  0  0  0
  -24.0017   -7.4594   22.7460 H   0  0  0  0  0  0
  -21.0873   -8.8779   19.8937 H   0  0  0  0  0  0
  -22.3743  -10.9670   19.6183 H   0  0  0  0  0  0
  -21.1989   -7.6135   23.9727 H   0  0  0  0  0  0
  -21.1494   -6.0503   25.9077 H   0  0  0  0  0  0
  -22.0602   -2.7616   23.2843 H   0  0  0  0  0  0
  -22.4092  -11.9851   22.4800 H   0  0  0  0  0  0
  -21.1111  -13.1238   22.2623 H   0  0  0  0  0  0
  -24.6715  -15.8489   20.5404 H   0  0  0  0  0  0
  -26.2988  -15.6297   20.1410 H   0  0  0  0  0  0
  -26.7105  -32.5563   23.1174 H   0  0  0  0  0  0
  -25.0074  -33.9786   25.0497 H   0  0  0  0  0  0
  -22.6901  -31.3045   21.4054 H   0  0  0  0  0  0
  -23.3752  -35.9640   23.3299 H   0  0  0  0  0  0
  -24.3588  -36.8925   22.2055 H   0  0  0  0  0  0
  -23.7231  -37.6512   23.6652 H   0  0  0  0  0  0
  -26.0347  -31.6131   20.5906 H   0  0  0  0  0  0
  -26.8149  -30.9021   21.9753 H   0  0  0  0  0  0
  -28.0925  -29.1762   21.1613 H   0  0  0  0  0  0
  -26.0995  -25.9635   19.0681 H   0  0  0  0  0  0
  -23.9963  -27.2653   19.0717 H   0  0  0  0  0  0
  -23.7117  -30.5864   19.4004 H   0  0  0  0  0  0
  -22.7400  -29.2266   19.8741 H   0  0  0  0  0  0
  -25.1281  -36.1976   25.0833 H   0  0  0  0  0  0
  -20.9955  -28.3234   24.1434 H   0  0  0  0  0  0
  -20.5676  -26.2273   23.3599 H   0  0  0  0  0  0
  -21.6637  -26.7447   22.1208 H   0  0  0  0  0  0
  -19.6911  -25.6300   21.1227 H   0  0  0  0  0  0
  -19.6684  -27.3205   20.6749 H   0  0  0  0  0  0
  -17.4195  -26.6676   21.4013 H   0  0  0  0  0  0
  -18.0314  -26.0052   22.9002 H   0  0  0  0  0  0
  -19.7931  -30.7250   24.2275 H   0  0  0  0  0  0
  -17.5018  -31.6268   24.5157 H   0  0  0  0  0  0
  -15.5351  -30.2992   23.7654 H   0  0  0  0  0  0
  -15.8658  -28.0822   22.7071 H   0  0  0  0  0  0
  -24.5922  -30.7048   25.7820 H   0  0  0  0  0  0
  -24.8970  -32.2847   26.4956 H   0  0  0  0  0  0
  -25.8139  -30.8842   27.0207 H   0  0  0  0  0  0
  -26.2837  -29.6791   24.1160 H   0  0  0  0  0  0
  -27.4144  -29.7294   25.4500 H   0  0  0  0  0  0
  -27.8643  -30.4376   23.9157 H   0  0  0  0  0  0
  -27.2674  -33.3613   26.2061 H   0  0  0  0  0  0
  -28.3858  -32.6880   25.0294 H   0  0  0  0  0  0
  -28.0721  -31.8430   26.5377 H   0  0  0  0  0  0
  -28.2597  -38.0108   24.7534 H   0  0  0  0  0  0
  -28.1084  -36.2642   24.6261 H   0  0  0  0  0  0
  -27.2306  -37.1422   25.8869 H   0  0  0  0  0  0
  -20.9292  -29.8729   21.6919 H   0  0  0  0  0  0
  -26.0180  -38.2871   24.1433 H   0  0  0  0  0  0
  -31.4683  -20.9330   17.5538 H   0  0  0  0  0  0
  -27.5722  -23.8718   17.5122 H   0  0  0  0  0  0
  -27.8091  -23.9724   19.2815 H   0  0  0  0  0  0
  -26.6002  -22.8544   18.6005 H   0  0  0  0  0  0
  -31.1803  -26.9234   17.5680 H   0  0  0  0  0  0
  -31.1620  -25.8440   16.2050 H   0  0  0  0  0  0
  -32.3900  -25.6466   17.4465 H   0  0  0  0  0  0
  -31.2326  -24.8577   22.1963 H   0  0  0  0  0  0
  -29.5231  -25.2334   22.0393 H   0  0  0  0  0  0
  -30.6414  -26.4606   22.6065 H   0  0  0  0  0  0
  -32.9425  -26.0065   20.6561 H   0  0  0  0  0  0
  -32.2511  -27.5534   21.1062 H   0  0  0  0  0  0
  -32.4144  -27.1323   19.4209 H   0  0  0  0  0  0
  -29.9347  -15.4290   22.8291 H   0  0  0  0  0  0
  -28.8572  -16.6538   22.1667 H   0  0  0  0  0  0
  -30.6050  -16.9244   22.1738 H   0  0  0  0  0  0
  -30.1993  -18.3483   17.5770 H   0  0  0  0  0  0
  -28.5279  -18.3662   18.0298 H   0  0  0  0  0  0
  -29.2574  -18.3930   20.4880 H   0  0  0  0  0  0
  -30.9096  -18.1667   19.9399 H   0  0  0  0  0  0
  -31.6657  -24.2692   19.6700 H   0  0  0  0  0  0
  -29.9822  -24.1284   19.9803 H   0  0  0  0  0  0
  -31.5070  -23.3063   17.0668 H   0  0  0  0  0  0
  -29.9853  -23.6574   16.3064 H   0  0  0  0  0  0
  -28.5518  -16.3016   19.3254 H   0  0  0  0  0  0
  -30.1340  -16.0853   18.6668 H   0  0  0  0  0  0
  -29.9031  -27.6757   19.1661 H   0  0  0  0  0  0
  -29.7675  -27.9554   20.8776 H   0  0  0  0  0  0
  -29.4008  -25.3072   17.9380 H   0  0  0  0  0  0
  -27.5498  -20.5771   19.0270 H   0  0  0  0  0  0
  1 25  1  0  0  0
  1 30  2  0  0  0
  1 89  1  0  0  0
  2  3  1  0  0  0
  2 25  1  0  0  0
  2 90  1  0  0  0
  2 91  1  0  0  0
  3  4  1  0  0  0
  3 92  1  0  0  0
  3 93  1  0  0  0
  4  5  1  0  0  0
  4 94  1  0  0  0
  4 95  1  0  0  0
  5  6  1  0  0  0
  5 26  1  0  0  0
  5 96  1  0  0  0
  6 25  1  0  0  0
  6 97  1  0  0  0
  6 98  1  0  0  0
  7  8  2  0  0  0
  7 26  1  0  0  0
  7 29  1  0  0  0
  8  9  1  0  0  0
  8 22  1  0  0  0
  9 10  1  0  0  0
  9 27  2  0  0  0
 10 11  2  0  0  0
 10 15  1  0  0  0
 11 12  1  0  0  0
 11 99  1  0  0  0
 12 13  2  0  0  0
 12100  1  0  0  0
 13 14  1  0  0  0
 13 31  1  0  0  0
 14 15  2  0  0  0
 14101  1  0  0  0
 15102  1  0  0  0
 16 17  2  0  0  0
 16 21  1  0  0  0
 16 31  1  0  0  0
 17 18  1  0  0  0
 17103  1  0  0  0
 18 19  2  0  0  0
 18104  1  0  0  0
 19 20  1  0  0  0
 19 24  1  0  0  0
 20 21  2  0  0  0
 20105  1  0  0  0
 21 23  1  0  0  0
 22 28  1  0  0  0
 22 32  2  0  0  0
 26 27  1  0  0  0
 28106  1  0  0  0
 28107  1  0  0  0
 29108  1  0  0  0
 29109  1  0  0  0
 33 34  1  0  0  0
 33 66  1  0  0  0
 33 70  2  0  0  0
 34 36  1  0  0  0
 34 59  1  0  0  0
 34110  1  0  0  0
 35 44  2  0  0  0
 35 45  1  0  0  0
 35 68  1  0  0  0
 36 56  1  0  0  0
 36111  1  0  0  0
 37 39  1  0  0  0
 37 47  1  0  0  0
 37 66  1  0  0  0
 37112  1  0  0  0
 38 43  2  0  0  0
 38 46  1  0  0  0
 38 47  1  0  0  0
 39 64  1  0  0  0
 39 67  2  0  0  0
 40 52  1  0  0  0
 40 53  2  0  0  0
 40 58  1  0  0  0
 41113  1  0  0  0
 41114  1  0  0  0
 41115  1  0  0  0
 41 48  1  0  0  0
 42 43  1  0  0  0
 42 66  1  0  0  0
 42116  1  0  0  0
 42117  1  0  0  0
 43 44  1  0  0  0
 44118  1  0  0  0
 45 46  2  0  0  0
 45119  1  0  0  0
 46120  1  0  0  0
 47121  1  0  0  0
 47122  1  0  0  0
 48 56  1  0  0  0
 48 65  1  0  0  0
 48123  1  0  0  0
 49 50  1  0  0  0
 49 53  1  0  0  0
 49 64  1  0  0  0
 49124  1  0  0  0
 50 51  1  0  0  0
 50125  1  0  0  0
 50126  1  0  0  0
 51 52  1  0  0  0
 51127  1  0  0  0
 51128  1  0  0  0
 52129  1  0  0  0
 52130  1  0  0  0
 53 54  1  0  0  0
 54 55  2  0  0  0
 54131  1  0  0  0
 55 57  1  0  0  0
 55132  1  0  0  0
 56 69  2  0  0  0
 57 58  2  0  0  0
 57133  1  0  0  0
 58134  1  0  0  0
 59 60  1  0  0  0
 59 61  1  0  0  0
 59 62  1  0  0  0
 60135  1  0  0  0
 60136  1  0  0  0
 60137  1  0  0  0
 61138  1  0  0  0
 61139  1  0  0  0
 61140  1  0  0  0
 62141  1  0  0  0
 62142  1  0  0  0
 62143  1  0  0  0
 63 65  1  0  0  0
 63144  1  0  0  0
 63145  1  0  0  0
 63146  1  0  0  0
 64147  1  0  0  0
 65148  1  0  0  0
 68 84  1  0  0  0
 71 72  2  0  0  0
 71 87  1  0  0  0
 71149  1  0  0  0
 72 79  1  0  0  0
 72 88  1  0  0  0
 73 74  1  0  0  0
 73 87  1  0  0  0
 73 88  2  0  0  0
 74150  1  0  0  0
 74151  1  0  0  0
 74152  1  0  0  0
 75153  1  0  0  0
 75154  1  0  0  0
 75155  1  0  0  0
 75 85  1  0  0  0
 76156  1  0  0  0
 76157  1  0  0  0
 76158  1  0  0  0
 76 86  1  0  0  0
 77 86  1  0  0  0
 77159  1  0  0  0
 77160  1  0  0  0
 77161  1  0  0  0
 78 89  1  0  0  0
 78162  1  0  0  0
 78163  1  0  0  0
 78164  1  0  0  0
 79 80  1  0  0  0
 79165  1  0  0  0
 79166  1  0  0  0
 80 83  1  0  0  0
 80167  1  0  0  0
 80168  1  0  0  0
 81 85  1  0  0  0
 81 86  1  0  0  0
 81169  1  0  0  0
 81170  1  0  0  0
 82 85  1  0  0  0
 82 87  1  0  0  0
 82171  1  0  0  0
 82172  1  0  0  0
 83 89  1  0  0  0
 83173  1  0  0  0
 83174  1  0  0  0
 84 86  1  0  0  0
 84175  1  0  0  0
 84176  1  0  0  0
 85177  1  0  0  0
 88178  1  0  0  0
M  CHG  1  88   1
M  ISO  4   1 100  68 101  84 101  89 100
M  END
> <chiral flag>
0

> <version>
0

> <s_m_source_file>
/data/baiqing/PycharmProjects/Reinvent-master-3.2/result/LINK_invent/BTK/process_docking_weight1_custom_sum_contain_oxygen_bond_distance_aromatic_linkinvent_7_9_3/rearranged_h_0080.sdf

> <i_m_source_file_index>
19

> <r_mmod_Potential_Energy-OPLS-2005>
143.921676635742

> <r_mmod_Stretch_Energy-OPLS-2005>
41.4868049621582

> <r_mmod_Bend_Energy-OPLS-2005>
137.152053833008

> <r_mmod_Torsional_Energy-OPLS-2005>
333.304718017578

> <r_mmod_Improper_Torsional_Energy-OPLS-2005>
13.2634973526001

> <r_mmod_Van_der_Waal_Energy-OPLS-2005>
121.762115478516

> <r_mmod_Electrostatic_Energy-OPLS-2005>
-136.2802734375

> <r_mmod_Solvation_Energy-OPLS-2005>
-381.079711914062

> <b_mmod_Minimization_Converged-OPLS-2005>
0

> <r_mmod_RMS_Derivative-OPLS-2005>
2.08775234222412

$$$$
21
                    3D
 Structure written by MMmdl.
172180  0  0  1  0            999 V2000
  -30.7005  -14.3805   20.6489 C   0  0  0  0  0  0
  -30.4229  -12.2774   19.3984 C   0  0  0  0  0  0
  -29.4971  -12.5543   18.1921 C   0  0  0  0  0  0
  -28.0031  -12.4465   18.5732 C   0  0  0  0  0  0
  -27.6675  -13.1914   19.8910 C   0  0  2  0  0  0
  -28.7043  -12.8472   20.9839 C   0  0  0  0  0  0
  -25.2603  -13.8077   20.5749 C   0  0  0  0  0  0
  -24.1845  -13.0391   20.9177 C   0  0  0  0  0  0
  -24.6350  -11.6840   20.8685 C   0  0  0  0  0  0
  -23.9027  -10.4261   21.0421 C   0  0  0  0  0  0
  -24.3603   -9.4150   21.9180 C   0  0  0  0  0  0
  -23.6258   -8.2201   22.0730 C   0  0  0  0  0  0
  -22.4239   -8.0261   21.3542 C   0  0  0  0  0  0
  -21.9919   -9.0218   20.4627 C   0  0  0  0  0  0
  -22.7231  -10.2089   20.3036 C   0  0  0  0  0  0
  -21.6835   -6.0741   22.5318 C   0  0  0  0  0  0
  -21.4005   -6.5651   23.8225 C   0  0  0  0  0  0
  -21.3646   -5.6797   24.9181 C   0  0  0  0  0  0
  -21.6026   -4.3060   24.7247 C   0  0  0  0  0  0
  -21.8810   -3.8164   23.4376 C   0  0  0  0  0  0
  -21.9185   -4.6981   22.3425 C   0  0  0  0  0  0
  -22.7882  -13.5222   21.1871 C   0  0  0  0  0  0
  -22.1685   -4.2162   21.1015 F   0  0  0  0  0  0
  -21.5601   -3.4538   25.7765 F   0  0  0  0  0  0
  -30.0437  -13.2017   20.4734 N   0  0  0  0  0  0
  -26.3023  -12.9242   20.3360 N   0  0  0  0  0  0
  -25.9229  -11.6393   20.5533 N   0  0  0  0  0  0
  -22.0464  -12.8266   22.0408 N   0  0  0  0  0  0
  -25.4419  -15.1818   20.4337 N   0  0  0  0  0  0
  -31.7861  -14.6333   20.1126 O   0  0  0  0  0  0
  -21.6590   -6.8882   21.4266 O   0  0  0  0  0  0
  -22.3650  -14.5566   20.6704 O   0  0  0  0  0  0
  -24.6204  -31.8697   23.2180 C   0  0  0  0  0  0
  -25.9128  -32.4805   23.8446 C   0  0  1  0  0  0
  -27.2245  -27.4459   20.0635 C   0  0  0  0  0  0
  -25.6002  -33.8623   24.2372 N   0  0  0  0  0  0
  -23.4038  -30.4970   21.5605 C   0  0  2  0  0  0
  -24.8413  -28.9542   20.1267 C   0  0  0  0  0  0
  -22.7460  -29.4687   22.5056 C   0  0  0  0  0  0
  -18.0302  -28.1354   22.8523 C   0  0  0  0  0  0
  -24.1480  -36.7291   23.2628 C   0  0  0  0  0  0
  -25.9358  -30.8210   21.3833 C   0  0  0  0  0  0
  -26.0027  -29.4608   20.7243 C   0  0  0  0  0  0
  -27.1989  -28.7102   20.6989 C   0  0  0  0  0  0
  -26.0482  -26.9490   19.4717 C   0  0  0  0  0  0
  -24.8536  -27.6926   19.5103 C   0  0  0  0  0  0
  -23.6112  -29.8263   20.1769 C   0  0  0  0  0  0
  -25.4109  -36.3091   24.0318 C   0  0  1  0  0  0
  -20.5889  -28.3709   23.1307 C   0  0  2  0  0  0
  -20.6838  -26.9475   22.5385 C   0  0  0  0  0  0
  -19.5740  -26.6253   21.5316 C   0  0  0  0  0  0
  -18.1934  -26.7829   22.1808 C   0  0  0  0  0  0
  -19.1534  -28.8859   23.2873 C   0  0  0  0  0  0
  -18.9417  -30.1493   23.8836 C   0  0  0  0  0  0
  -17.6406  -30.6560   24.0501 C   0  0  0  0  0  0
  -25.9043  -34.9465   23.5116 C   0  0  0  0  0  0
  -16.5327  -29.9037   23.6268 C   0  0  0  0  0  0
  -16.7267  -28.6459   23.0321 C   0  0  0  0  0  0
  -26.4542  -31.6620   25.0790 C   0  0  0  0  0  0
  -25.3757  -31.3798   26.1503 C   0  0  0  0  0  0
  -27.0434  -30.3053   24.6265 C   0  0  0  0  0  0
  -27.6099  -32.4402   25.7523 C   0  0  0  0  0  0
  -27.5572  -37.1808   24.8451 C   0  0  0  0  0  0
  -21.4195  -29.3062   22.3757 N   0  0  0  0  0  0
  -26.4297  -37.3781   23.9388 N   0  0  0  0  0  0
  -24.6692  -31.0803   22.1079 N   0  0  0  0  0  0
  -23.4234  -28.8151   23.3018 O   0  0  0  0  0  0
  -28.3669  -26.7050   19.9035 O   0  0  0  0  0  0
  -26.5582  -34.8910   22.4666 O   0  0  0  0  0  0
  -23.5414  -32.1457   23.7595 O   0  0  0  0  0  0
  -27.4160  -21.8647   21.8257 C   0  0  0  0  0  0
  -27.7664  -20.5586   22.2457 C   0  0  0  0  0  0
  -27.9221  -22.9542   22.5482 C   0  0  0  0  0  0
  -28.7026  -20.4521   23.3333 C   0  0  0  0  0  0
  -27.1122  -19.4074   21.4919 C   0  0  0  0  0  0
  -30.9584  -19.4842   23.9852 C   0  0  0  0  0  0
  -28.8470  -18.8261   25.2795 C   0  0  0  0  0  0
  -29.4407  -16.3754   20.1577 C   0  0  0  0  0  0
  -27.7510  -24.3817   22.0825 C   0  0  0  0  0  0
  -28.9744  -24.8154   21.2606 C   0  0  0  0  0  0
  -30.0579  -16.6551   23.3191 C   0  0  0  0  0  0
  -29.3134  -17.9567   22.9584 C   0  0  0  0  0  0
  -29.4829  -15.4685   22.5278 C   0  0  0  0  0  0
  -29.1006  -26.3382   21.0615 C   0  0  0  0  0  0
  -29.4332  -19.1847   23.8877 C   0  0  0  0  0  0
  -28.6781  -22.7902   23.6546 N   0  0  0  0  0  0
  -29.0589  -21.5717   24.0223 N   0  0  0  0  0  0
  -29.9169  -15.3762   21.1193 N   0  0  0  0  0  0
  -31.4664  -12.3818   19.1106 H   0  0  0  0  0  0
  -30.3135  -11.2452   19.7328 H   0  0  0  0  0  0
  -29.7300  -11.8712   17.3772 H   0  0  0  0  0  0
  -29.6893  -13.5620   17.8216 H   0  0  0  0  0  0
  -27.7347  -11.3929   18.6413 H   0  0  0  0  0  0
  -27.3847  -12.8577   17.7725 H   0  0  0  0  0  0
  -27.7401  -14.2575   19.6795 H   0  0  0  0  0  0
  -28.6803  -11.7757   21.1860 H   0  0  0  0  0  0
  -28.4280  -13.2886   21.9388 H   0  0  0  0  0  0
  -25.2744   -9.5631   22.4772 H   0  0  0  0  0  0
  -23.9909   -7.4651   22.7546 H   0  0  0  0  0  0
  -21.0804   -8.8809   19.9037 H   0  0  0  0  0  0
  -22.3698  -10.9662   19.6192 H   0  0  0  0  0  0
  -21.2030   -7.6181   23.9702 H   0  0  0  0  0  0
  -21.1477   -6.0553   25.9066 H   0  0  0  0  0  0
  -22.0613   -2.7642   23.2839 H   0  0  0  0  0  0
  -22.3984  -11.9981   22.5026 H   0  0  0  0  0  0
  -21.1103  -13.1409   22.2513 H   0  0  0  0  0  0
  -24.6877  -15.8438   20.5749 H   0  0  0  0  0  0
  -26.3112  -15.6220   20.1614 H   0  0  0  0  0  0
  -26.7145  -32.5491   23.1160 H   0  0  0  0  0  0
  -25.0256  -33.9763   25.0589 H   0  0  0  0  0  0
  -22.6899  -31.3138   21.4235 H   0  0  0  0  0  0
  -23.3741  -35.9632   23.3316 H   0  0  0  0  0  0
  -24.3516  -36.8897   22.2022 H   0  0  0  0  0  0
  -23.7213  -37.6493   23.6625 H   0  0  0  0  0  0
  -26.0753  -31.5934   20.6268 H   0  0  0  0  0  0
  -26.8081  -30.8493   22.0219 H   0  0  0  0  0  0
  -28.1010  -29.1108   21.1370 H   0  0  0  0  0  0
  -26.0624  -25.9889   18.9734 H   0  0  0  0  0  0
  -23.9547  -27.3029   19.0509 H   0  0  0  0  0  0
  -23.7219  -30.5969   19.4126 H   0  0  0  0  0  0
  -22.7304  -29.2545   19.8802 H   0  0  0  0  0  0
  -25.1269  -36.1951   25.0809 H   0  0  0  0  0  0
  -21.0002  -28.3289   24.1433 H   0  0  0  0  0  0
  -20.5940  -26.2332   23.3565 H   0  0  0  0  0  0
  -21.6690  -26.7598   22.1070 H   0  0  0  0  0  0
  -19.6856  -25.6067   21.1533 H   0  0  0  0  0  0
  -19.6632  -27.2870   20.6687 H   0  0  0  0  0  0
  -17.4061  -26.6493   21.4361 H   0  0  0  0  0  0
  -18.0364  -26.0064   22.9267 H   0  0  0  0  0  0
  -19.7844  -30.7395   24.2190 H   0  0  0  0  0  0
  -17.4908  -31.6208   24.5149 H   0  0  0  0  0  0
  -15.5312  -30.2875   23.7619 H   0  0  0  0  0  0
  -15.8668  -28.0755   22.7028 H   0  0  0  0  0  0
  -24.5866  -30.7240   25.7772 H   0  0  0  0  0  0
  -24.9069  -32.3027   26.4954 H   0  0  0  0  0  0
  -25.8064  -30.8891   27.0252 H   0  0  0  0  0  0
  -26.3048  -29.6725   24.1331 H   0  0  0  0  0  0
  -27.4140  -29.7362   25.4802 H   0  0  0  0  0  0
  -27.8889  -30.4299   23.9506 H   0  0  0  0  0  0
  -27.2682  -33.3682   26.2129 H   0  0  0  0  0  0
  -28.3886  -32.7049   25.0345 H   0  0  0  0  0  0
  -28.0804  -31.8549   26.5438 H   0  0  0  0  0  0
  -28.2590  -38.0099   24.7510 H   0  0  0  0  0  0
  -28.1082  -36.2645   24.6288 H   0  0  0  0  0  0
  -27.2288  -37.1424   25.8854 H   0  0  0  0  0  0
  -20.9417  -29.8640   21.6830 H   0  0  0  0  0  0
  -26.0187  -38.2844   24.1481 H   0  0  0  0  0  0
  -26.7983  -22.0365   20.9552 H   0  0  0  0  0  0
  -26.3574  -19.7694   20.7944 H   0  0  0  0  0  0
  -26.5929  -18.7221   22.1655 H   0  0  0  0  0  0
  -27.8410  -18.8761   20.8829 H   0  0  0  0  0  0
  -31.1790  -20.3660   24.5872 H   0  0  0  0  0  0
  -31.3747  -19.6665   22.9931 H   0  0  0  0  0  0
  -31.5227  -18.6714   24.4396 H   0  0  0  0  0  0
  -28.8768  -19.6653   25.9753 H   0  0  0  0  0  0
  -29.3817  -18.0105   25.7644 H   0  0  0  0  0  0
  -27.8035  -18.5154   25.1982 H   0  0  0  0  0  0
  -30.1604  -17.1845   20.0567 H   0  0  0  0  0  0
  -28.4734  -16.7825   20.4473 H   0  0  0  0  0  0
  -29.3079  -15.9411   19.1607 H   0  0  0  0  0  0
  -27.6503  -25.0197   22.9610 H   0  0  0  0  0  0
  -26.8344  -24.4913   21.5024 H   0  0  0  0  0  0
  -28.9707  -24.2813   20.3043 H   0  0  0  0  0  0
  -29.8786  -24.4770   21.7702 H   0  0  0  0  0  0
  -29.9147  -16.4254   24.3754 H   0  0  0  0  0  0
  -31.1379  -16.7382   23.1709 H   0  0  0  0  0  0
  -28.2656  -17.6918   22.9082 H   0  0  0  0  0  0
  -29.6324  -18.2597   21.9627 H   0  0  0  0  0  0
  -28.3902  -15.4981   22.5526 H   0  0  0  0  0  0
  -29.7708  -14.5579   23.0633 H   0  0  0  0  0  0
  -30.1500  -26.5851   20.8807 H   0  0  0  0  0  0
  -28.7988  -26.8948   21.9513 H   0  0  0  0  0  0
  1 25  1  0  0  0
  1 30  2  0  0  0
  1 88  1  0  0  0
  2  3  1  0  0  0
  2 25  1  0  0  0
  2 89  1  0  0  0
  2 90  1  0  0  0
  3  4  1  0  0  0
  3 91  1  0  0  0
  3 92  1  0  0  0
  4  5  1  0  0  0
  4 93  1  0  0  0
  4 94  1  0  0  0
  5  6  1  0  0  0
  5 26  1  0  0  0
  5 95  1  0  0  0
  6 25  1  0  0  0
  6 96  1  0  0  0
  6 97  1  0  0  0
  7  8  2  0  0  0
  7 26  1  0  0  0
  7 29  1  0  0  0
  8  9  1  0  0  0
  8 22  1  0  0  0
  9 10  1  0  0  0
  9 27  2  0  0  0
 10 11  2  0  0  0
 10 15  1  0  0  0
 11 12  1  0  0  0
 11 98  1  0  0  0
 12 13  2  0  0  0
 12 99  1  0  0  0
 13 14  1  0  0  0
 13 31  1  0  0  0
 14 15  2  0  0  0
 14100  1  0  0  0
 15101  1  0  0  0
 16 17  2  0  0  0
 16 21  1  0  0  0
 16 31  1  0  0  0
 17 18  1  0  0  0
 17102  1  0  0  0
 18 19  2  0  0  0
 18103  1  0  0  0
 19 20  1  0  0  0
 19 24  1  0  0  0
 20 21  2  0  0  0
 20104  1  0  0  0
 21 23  1  0  0  0
 22 28  1  0  0  0
 22 32  2  0  0  0
 26 27  1  0  0  0
 28105  1  0  0  0
 28106  1  0  0  0
 29107  1  0  0  0
 29108  1  0  0  0
 33 34  1  0  0  0
 33 66  1  0  0  0
 33 70  2  0  0  0
 34 36  1  0  0  0
 34 59  1  0  0  0
 34109  1  0  0  0
 35 44  2  0  0  0
 35 45  1  0  0  0
 35 68  1  0  0  0
 36 56  1  0  0  0
 36110  1  0  0  0
 37 39  1  0  0  0
 37 47  1  0  0  0
 37 66  1  0  0  0
 37111  1  0  0  0
 38 43  2  0  0  0
 38 46  1  0  0  0
 38 47  1  0  0  0
 39 64  1  0  0  0
 39 67  2  0  0  0
 40 52  1  0  0  0
 40 53  2  0  0  0
 40 58  1  0  0  0
 41112  1  0  0  0
 41113  1  0  0  0
 41114  1  0  0  0
 41 48  1  0  0  0
 42 43  1  0  0  0
 42 66  1  0  0  0
 42115  1  0  0  0
 42116  1  0  0  0
 43 44  1  0  0  0
 44117  1  0  0  0
 45 46  2  0  0  0
 45118  1  0  0  0
 46119  1  0  0  0
 47120  1  0  0  0
 47121  1  0  0  0
 48 56  1  0  0  0
 48 65  1  0  0  0
 48122  1  0  0  0
 49 50  1  0  0  0
 49 53  1  0  0  0
 49 64  1  0  0  0
 49123  1  0  0  0
 50 51  1  0  0  0
 50124  1  0  0  0
 50125  1  0  0  0
 51 52  1  0  0  0
 51126  1  0  0  0
 51127  1  0  0  0
 52128  1  0  0  0
 52129  1  0  0  0
 53 54  1  0  0  0
 54 55  2  0  0  0
 54130  1  0  0  0
 55 57  1  0  0  0
 55131  1  0  0  0
 56 69  2  0  0  0
 57 58  2  0  0  0
 57132  1  0  0  0
 58133  1  0  0  0
 59 60  1  0  0  0
 59 61  1  0  0  0
 59 62  1  0  0  0
 60134  1  0  0  0
 60135  1  0  0  0
 60136  1  0  0  0
 61137  1  0  0  0
 61138  1  0  0  0
 61139  1  0  0  0
 62140  1  0  0  0
 62141  1  0  0  0
 62142  1  0  0  0
 63 65  1  0  0  0
 63143  1  0  0  0
 63144  1  0  0  0
 63145  1  0  0  0
 64146  1  0  0  0
 65147  1  0  0  0
 68 84  1  0  0  0
 71 72  2  0  0  0
 71 73  1  0  0  0
 71148  1  0  0  0
 72 74  1  0  0  0
 72 75  1  0  0  0
 73 79  1  0  0  0
 73 86  2  0  0  0
 74 85  1  0  0  0
 74 87  2  0  0  0
 75149  1  0  0  0
 75150  1  0  0  0
 75151  1  0  0  0
 76152  1  0  0  0
 76153  1  0  0  0
 76154  1  0  0  0
 76 85  1  0  0  0
 77 85  1  0  0  0
 77155  1  0  0  0
 77156  1  0  0  0
 77157  1  0  0  0
 78 88  1  0  0  0
 78158  1  0  0  0
 78159  1  0  0  0
 78160  1  0  0  0
 79 80  1  0  0  0
 79161  1  0  0  0
 79162  1  0  0  0
 80 84  1  0  0  0
 80163  1  0  0  0
 80164  1  0  0  0
 81 82  1  0  0  0
 81 83  1  0  0  0
 81165  1  0  0  0
 81166  1  0  0  0
 82 85  1  0  0  0
 82167  1  0  0  0
 82168  1  0  0  0
 83 88  1  0  0  0
 83169  1  0  0  0
 83170  1  0  0  0
 84171  1  0  0  0
 84172  1  0  0  0
 86 87  1  0  0  0
M  ISO  4   1 100  68 101  84 101  88 100
M  END
> <chiral flag>
0

> <version>
0

> <s_m_source_file>
/data/baiqing/PycharmProjects/Reinvent-master-3.2/result/LINK_invent/BTK/process_docking_weight1_custom_sum_contain_oxygen_bond_distance_aromatic_linkinvent_7_9_3/rearranged_h_0080.sdf

> <i_m_source_file_index>
20

> <r_mmod_Potential_Energy-OPLS-2005>
194.393661499023

> <r_mmod_Stretch_Energy-OPLS-2005>
42.1363677978516

> <r_mmod_Bend_Energy-OPLS-2005>
133.217849731445

> <r_mmod_Torsional_Energy-OPLS-2005>
315.581756591797

> <r_mmod_Improper_Torsional_Energy-OPLS-2005>
10.693657875061

> <r_mmod_Van_der_Waal_Energy-OPLS-2005>
175.454696655273

> <r_mmod_Electrostatic_Energy-OPLS-2005>
-283.699462890625

> <r_mmod_Solvation_Energy-OPLS-2005>
-211.283111572266

> <b_mmod_Minimization_Converged-OPLS-2005>
0

> <r_mmod_RMS_Derivative-OPLS-2005>
8.07871437072754

$$$$
22
                    3D
 Structure written by MMmdl.
160168  0  0  1  0            999 V2000
  -30.6300  -14.7186   20.4478 C   0  0  0  0  0  0
  -30.4220  -12.4363   19.4693 C   0  0  0  0  0  0
  -29.5038  -12.5029   18.2301 C   0  0  0  0  0  0
  -28.0297  -12.3330   18.6442 C   0  0  0  0  0  0
  -27.6396  -13.2319   19.8487 C   0  0  2  0  0  0
  -28.6840  -13.1695   20.9841 C   0  0  0  0  0  0
  -25.2501  -13.8199   20.5706 C   0  0  0  0  0  0
  -24.1796  -13.0438   20.9213 C   0  0  0  0  0  0
  -24.6385  -11.6917   20.8747 C   0  0  0  0  0  0
  -23.9071  -10.4294   21.0412 C   0  0  0  0  0  0
  -24.3629   -9.4207   21.9179 C   0  0  0  0  0  0
  -23.6306   -8.2242   22.0751 C   0  0  0  0  0  0
  -22.4285   -8.0280   21.3545 C   0  0  0  0  0  0
  -21.9920   -9.0251   20.4645 C   0  0  0  0  0  0
  -22.7249  -10.2130   20.3055 C   0  0  0  0  0  0
  -21.6853   -6.0742   22.5283 C   0  0  0  0  0  0
  -21.4010   -6.5647   23.8215 C   0  0  0  0  0  0
  -21.3654   -5.6798   24.9177 C   0  0  0  0  0  0
  -21.6043   -4.3061   24.7226 C   0  0  0  0  0  0
  -21.8818   -3.8156   23.4347 C   0  0  0  0  0  0
  -21.9192   -4.6971   22.3405 C   0  0  0  0  0  0
  -22.7820  -13.5214   21.1885 C   0  0  0  0  0  0
  -22.1669   -4.2152   21.0985 F   0  0  0  0  0  0
  -21.5625   -3.4544   25.7740 F   0  0  0  0  0  0
  -29.9857  -13.5056   20.3966 N   0  0  0  0  0  0
  -26.2922  -12.9405   20.3277 N   0  0  0  0  0  0
  -25.9316  -11.6547   20.5760 N   0  0  0  0  0  0
  -22.0485  -12.8185   22.0441 N   0  0  0  0  0  0
  -25.4186  -15.1919   20.4116 N   0  0  0  0  0  0
  -31.8251  -14.7874   20.1496 O   0  0  0  0  0  0
  -21.6642   -6.8881   21.4246 O   0  0  0  0  0  0
  -22.3501  -14.5523   20.6746 O   0  0  0  0  0  0
  -24.6313  -31.8544   23.1977 C   0  0  0  0  0  0
  -25.9133  -32.4748   23.8337 C   0  0  1  0  0  0
  -27.2234  -27.2729   20.1346 C   0  0  0  0  0  0
  -25.5917  -33.8551   24.2259 N   0  0  0  0  0  0
  -23.4283  -30.4760   21.5404 C   0  0  2  0  0  0
  -24.8753  -28.9160   20.1157 C   0  0  0  0  0  0
  -22.7501  -29.4606   22.4917 C   0  0  0  0  0  0
  -18.0291  -28.1397   22.8483 C   0  0  0  0  0  0
  -24.1482  -36.7288   23.2643 C   0  0  0  0  0  0
  -25.9714  -30.7727   21.3728 C   0  0  0  0  0  0
  -26.0465  -29.3938   20.7185 C   0  0  0  0  0  0
  -27.2269  -28.5865   20.7100 C   0  0  0  0  0  0
  -26.0309  -26.8502   19.5134 C   0  0  0  0  0  0
  -24.8712  -27.6518   19.5028 C   0  0  0  0  0  0
  -23.6460  -29.8036   20.1588 C   0  0  0  0  0  0
  -25.4107  -36.3070   24.0331 C   0  0  1  0  0  0
  -20.5894  -28.3708   23.1265 C   0  0  2  0  0  0
  -20.6773  -26.9422   22.5409 C   0  0  0  0  0  0
  -19.5748  -26.6390   21.5213 C   0  0  0  0  0  0
  -18.1932  -26.7937   22.1627 C   0  0  0  0  0  0
  -19.1545  -28.8873   23.2866 C   0  0  0  0  0  0
  -18.9466  -30.1473   23.8884 C   0  0  0  0  0  0
  -17.6464  -30.6591   24.0569 C   0  0  0  0  0  0
  -25.9051  -34.9437   23.5104 C   0  0  0  0  0  0
  -16.5355  -29.9090   23.6330 C   0  0  0  0  0  0
  -16.7278  -28.6513   23.0342 C   0  0  0  0  0  0
  -26.4495  -31.6576   25.0728 C   0  0  0  0  0  0
  -25.3720  -31.3725   26.1454 C   0  0  0  0  0  0
  -27.0350  -30.2994   24.6220 C   0  0  0  0  0  0
  -27.6058  -32.4316   25.7494 C   0  0  0  0  0  0
  -27.5578  -37.1793   24.8461 C   0  0  0  0  0  0
  -21.4209  -29.3053   22.3657 N   0  0  0  0  0  0
  -26.4283  -37.3771   23.9415 N   0  0  0  0  0  0
  -24.6962  -31.0524   22.0938 N   0  0  0  0  0  0
  -23.4195  -28.8157   23.3029 O   0  0  0  0  0  0
  -28.3310  -26.4036   20.1303 O   0  0  0  0  0  0
  -26.5634  -34.8915   22.4682 O   0  0  0  0  0  0
  -23.5458  -32.1361   23.7275 O   0  0  0  0  0  0
  -32.3572  -20.3880   18.6414 C   0  0  0  0  0  0
  -30.2525  -21.4147   20.0261 C   0  0  0  0  0  0
  -31.4593  -22.1347   19.7780 C   0  0  0  0  0  0
  -30.3781  -19.9668   19.7644 C   0  0  0  0  0  0
  -33.0770  -23.5618   21.1554 C   0  0  0  0  0  0
  -29.0211  -22.2797   20.5426 C   0  0  0  0  0  0
  -31.7795  -23.5252   20.3307 C   0  0  0  0  0  0
  -29.5549  -18.6735   20.2109 C   0  0  0  0  0  0
  -28.6860  -23.7095   19.8078 C   0  0  0  0  0  0
  -30.4449  -17.3046   20.4165 C   0  0  0  0  0  0
  -28.1780  -25.0006   20.6416 C   0  0  0  0  0  0
  -32.4658  -21.6320   19.0500 N   0  0  0  0  0  0
  -31.4028  -19.5526   18.9937 N   0  0  0  0  0  0
  -29.8944  -15.8853   20.6035 N   0  0  0  0  0  0
  -31.4668  -12.5410   19.1695 H   0  0  0  0  0  0
  -30.3485  -11.4603   19.9521 H   0  0  0  0  0  0
  -29.7792  -11.7313   17.5098 H   0  0  0  0  0  0
  -29.6352  -13.4603   17.7226 H   0  0  0  0  0  0
  -27.8826  -11.2838   18.9030 H   0  0  0  0  0  0
  -27.3716  -12.5313   17.7976 H   0  0  0  0  0  0
  -27.6343  -14.2540   19.4690 H   0  0  0  0  0  0
  -28.7114  -12.1772   21.4363 H   0  0  0  0  0  0
  -28.4263  -13.8635   21.7856 H   0  0  0  0  0  0
  -25.2781   -9.5671   22.4745 H   0  0  0  0  0  0
  -24.0011   -7.4625   22.7462 H   0  0  0  0  0  0
  -21.0856   -8.8776   19.8942 H   0  0  0  0  0  0
  -22.3720  -10.9673   19.6159 H   0  0  0  0  0  0
  -21.2008   -7.6156   23.9717 H   0  0  0  0  0  0
  -21.1474   -6.0537   25.9080 H   0  0  0  0  0  0
  -22.0599   -2.7616   23.2852 H   0  0  0  0  0  0
  -22.4154  -11.9855   22.4796 H   0  0  0  0  0  0
  -21.1089  -13.1162   22.2660 H   0  0  0  0  0  0
  -24.6481  -15.8433   20.5176 H   0  0  0  0  0  0
  -26.2631  -15.6318   20.0697 H   0  0  0  0  0  0
  -26.7206  -32.5404   23.1088 H   0  0  0  0  0  0
  -25.0020  -33.9684   25.0375 H   0  0  0  0  0  0
  -22.7251  -31.2978   21.3912 H   0  0  0  0  0  0
  -23.3746  -35.9617   23.3287 H   0  0  0  0  0  0
  -24.3576  -36.8933   22.2062 H   0  0  0  0  0  0
  -23.7230  -37.6481   23.6681 H   0  0  0  0  0  0
  -26.1049  -31.5326   20.6016 H   0  0  0  0  0  0
  -26.8507  -30.8252   22.0035 H   0  0  0  0  0  0
  -28.1304  -28.9516   21.1781 H   0  0  0  0  0  0
  -25.9917  -25.8789   19.0395 H   0  0  0  0  0  0
  -23.9734  -27.2802   19.0279 H   0  0  0  0  0  0
  -23.7716  -30.5764   19.3996 H   0  0  0  0  0  0
  -22.7641  -29.2361   19.8553 H   0  0  0  0  0  0
  -25.1285  -36.1919   25.0824 H   0  0  0  0  0  0
  -20.9984  -28.3289   24.1387 H   0  0  0  0  0  0
  -20.5665  -26.2324   23.3619 H   0  0  0  0  0  0
  -21.6641  -26.7437   22.1210 H   0  0  0  0  0  0
  -19.6907  -25.6299   21.1249 H   0  0  0  0  0  0
  -19.6682  -27.3195   20.6738 H   0  0  0  0  0  0
  -17.4197  -26.6681   21.4032 H   0  0  0  0  0  0
  -18.0333  -26.0086   22.9031 H   0  0  0  0  0  0
  -19.7940  -30.7298   24.2237 H   0  0  0  0  0  0
  -17.5014  -31.6265   24.5185 H   0  0  0  0  0  0
  -15.5353  -30.2988   23.7664 H   0  0  0  0  0  0
  -15.8680  -28.0839   22.7043 H   0  0  0  0  0  0
  -24.5871  -30.7107   25.7773 H   0  0  0  0  0  0
  -24.8937  -32.2894   26.4910 H   0  0  0  0  0  0
  -25.8031  -30.8865   27.0216 H   0  0  0  0  0  0
  -26.2939  -29.6733   24.1234 H   0  0  0  0  0  0
  -27.4015  -29.7271   25.4754 H   0  0  0  0  0  0
  -27.8819  -30.4273   23.9478 H   0  0  0  0  0  0
  -27.2671  -33.3619   26.2074 H   0  0  0  0  0  0
  -28.3857  -32.6876   25.0309 H   0  0  0  0  0  0
  -28.0736  -31.8439   26.5403 H   0  0  0  0  0  0
  -28.2581  -38.0103   24.7524 H   0  0  0  0  0  0
  -28.1087  -36.2637   24.6258 H   0  0  0  0  0  0
  -27.2303  -37.1410   25.8864 H   0  0  0  0  0  0
  -20.9406  -29.8772   21.6850 H   0  0  0  0  0  0
  -26.0160  -38.2844   24.1423 H   0  0  0  0  0  0
  -33.1621  -19.9907   18.0414 H   0  0  0  0  0  0
  -33.2517  -24.5596   21.5563 H   0  0  0  0  0  0
  -33.9441  -23.3002   20.5487 H   0  0  0  0  0  0
  -33.0300  -22.8658   21.9925 H   0  0  0  0  0  0
  -29.2057  -22.4724   21.6002 H   0  0  0  0  0  0
  -28.1276  -21.6543   20.5257 H   0  0  0  0  0  0
  -30.9948  -23.8827   20.9919 H   0  0  0  0  0  0
  -31.8468  -24.2333   19.5040 H   0  0  0  0  0  0
  -28.7868  -18.4961   19.4574 H   0  0  0  0  0  0
  -29.0233  -18.9077   21.1332 H   0  0  0  0  0  0
  -27.9562  -23.5117   19.0218 H   0  0  0  0  0  0
  -29.5465  -24.0450   19.2372 H   0  0  0  0  0  0
  -31.1466  -17.4889   21.2301 H   0  0  0  0  0  0
  -31.0686  -17.1953   19.5298 H   0  0  0  0  0  0
  -28.7303  -24.9976   21.5820 H   0  0  0  0  0  0
  -27.1447  -24.8232   20.9428 H   0  0  0  0  0  0
  -28.9092  -15.7841   20.7981 H   0  0  0  0  0  0
  1 25  1  0  0  0
  1 30  2  0  0  0
  1 84  1  0  0  0
  2  3  1  0  0  0
  2 25  1  0  0  0
  2 85  1  0  0  0
  2 86  1  0  0  0
  3  4  1  0  0  0
  3 87  1  0  0  0
  3 88  1  0  0  0
  4  5  1  0  0  0
  4 89  1  0  0  0
  4 90  1  0  0  0
  5  6  1  0  0  0
  5 26  1  0  0  0
  5 91  1  0  0  0
  6 25  1  0  0  0
  6 92  1  0  0  0
  6 93  1  0  0  0
  7  8  2  0  0  0
  7 26  1  0  0  0
  7 29  1  0  0  0
  8  9  1  0  0  0
  8 22  1  0  0  0
  9 10  1  0  0  0
  9 27  2  0  0  0
 10 11  2  0  0  0
 10 15  1  0  0  0
 11 12  1  0  0  0
 11 94  1  0  0  0
 12 13  2  0  0  0
 12 95  1  0  0  0
 13 14  1  0  0  0
 13 31  1  0  0  0
 14 15  2  0  0  0
 14 96  1  0  0  0
 15 97  1  0  0  0
 16 17  2  0  0  0
 16 21  1  0  0  0
 16 31  1  0  0  0
 17 18  1  0  0  0
 17 98  1  0  0  0
 18 19  2  0  0  0
 18 99  1  0  0  0
 19 20  1  0  0  0
 19 24  1  0  0  0
 20 21  2  0  0  0
 20100  1  0  0  0
 21 23  1  0  0  0
 22 28  1  0  0  0
 22 32  2  0  0  0
 26 27  1  0  0  0
 28101  1  0  0  0
 28102  1  0  0  0
 29103  1  0  0  0
 29104  1  0  0  0
 33 34  1  0  0  0
 33 66  1  0  0  0
 33 70  2  0  0  0
 34 36  1  0  0  0
 34 59  1  0  0  0
 34105  1  0  0  0
 35 44  2  0  0  0
 35 45  1  0  0  0
 35 68  1  0  0  0
 36 56  1  0  0  0
 36106  1  0  0  0
 37 39  1  0  0  0
 37 47  1  0  0  0
 37 66  1  0  0  0
 37107  1  0  0  0
 38 43  2  0  0  0
 38 46  1  0  0  0
 38 47  1  0  0  0
 39 64  1  0  0  0
 39 67  2  0  0  0
 40 52  1  0  0  0
 40 53  2  0  0  0
 40 58  1  0  0  0
 41108  1  0  0  0
 41109  1  0  0  0
 41110  1  0  0  0
 41 48  1  0  0  0
 42 43  1  0  0  0
 42 66  1  0  0  0
 42111  1  0  0  0
 42112  1  0  0  0
 43 44  1  0  0  0
 44113  1  0  0  0
 45 46  2  0  0  0
 45114  1  0  0  0
 46115  1  0  0  0
 47116  1  0  0  0
 47117  1  0  0  0
 48 56  1  0  0  0
 48 65  1  0  0  0
 48118  1  0  0  0
 49 50  1  0  0  0
 49 53  1  0  0  0
 49 64  1  0  0  0
 49119  1  0  0  0
 50 51  1  0  0  0
 50120  1  0  0  0
 50121  1  0  0  0
 51 52  1  0  0  0
 51122  1  0  0  0
 51123  1  0  0  0
 52124  1  0  0  0
 52125  1  0  0  0
 53 54  1  0  0  0
 54 55  2  0  0  0
 54126  1  0  0  0
 55 57  1  0  0  0
 55127  1  0  0  0
 56 69  2  0  0  0
 57 58  2  0  0  0
 57128  1  0  0  0
 58129  1  0  0  0
 59 60  1  0  0  0
 59 61  1  0  0  0
 59 62  1  0  0  0
 60130  1  0  0  0
 60131  1  0  0  0
 60132  1  0  0  0
 61133  1  0  0  0
 61134  1  0  0  0
 61135  1  0  0  0
 62136  1  0  0  0
 62137  1  0  0  0
 62138  1  0  0  0
 63 65  1  0  0  0
 63139  1  0  0  0
 63140  1  0  0  0
 63141  1  0  0  0
 64142  1  0  0  0
 65143  1  0  0  0
 68 81  1  0  0  0
 71 82  2  0  0  0
 71 83  1  0  0  0
 71144  1  0  0  0
 72 73  2  0  0  0
 72 74  1  0  0  0
 72 76  1  0  0  0
 73 77  1  0  0  0
 73 82  1  0  0  0
 74 78  1  0  0  0
 74 83  2  0  0  0
 75 77  1  0  0  0
 75145  1  0  0  0
 75146  1  0  0  0
 75147  1  0  0  0
 76 79  1  0  0  0
 76148  1  0  0  0
 76149  1  0  0  0
 77150  1  0  0  0
 77151  1  0  0  0
 78 80  1  0  0  0
 78152  1  0  0  0
 78153  1  0  0  0
 79 81  1  0  0  0
 79154  1  0  0  0
 79155  1  0  0  0
 80 84  1  0  0  0
 80156  1  0  0  0
 80157  1  0  0  0
 81158  1  0  0  0
 81159  1  0  0  0
 84160  1  0  0  0
M  ISO  4   1 100  68 101  81 101  84 100
M  END
> <chiral flag>
0

> <version>
0

> <s_m_source_file>
/data/baiqing/PycharmProjects/Reinvent-master-3.2/result/LINK_invent/BTK/process_docking_weight1_custom_sum_contain_oxygen_bond_distance_aromatic_linkinvent_7_9_3/rearranged_h_0080.sdf

> <i_m_source_file_index>
21

> <r_mmod_Potential_Energy-OPLS-2005>
-120.078712463379

> <r_mmod_Stretch_Energy-OPLS-2005>
138.642532348633

> <r_mmod_Bend_Energy-OPLS-2005>
205.436340332031

> <r_mmod_Torsional_Energy-OPLS-2005>
251.630828857422

> <r_mmod_Improper_Torsional_Energy-OPLS-2005>
5.23083209991455

> <r_mmod_Van_der_Waal_Energy-OPLS-2005>
160.984237670898

> <r_mmod_Electrostatic_Energy-OPLS-2005>
-720.852783203125

> <r_mmod_Solvation_Energy-OPLS-2005>
-236.39225769043

> <b_mmod_Minimization_Converged-OPLS-2005>
0

> <r_mmod_RMS_Derivative-OPLS-2005>
1.25904822349548

$$$$
23
                    3D
 Structure written by MMmdl.
163171  0  0  1  0            999 V2000
  -30.6724  -14.4886   20.5757 C   0  0  0  0  0  0
  -30.4417  -12.3175   19.4203 C   0  0  0  0  0  0
  -29.5052  -12.5012   18.2069 C   0  0  0  0  0  0
  -28.0265  -12.3485   18.6197 C   0  0  0  0  0  0
  -27.6663  -13.1939   19.8712 C   0  0  2  0  0  0
  -28.7072  -12.9674   20.9913 C   0  0  0  0  0  0
  -25.2638  -13.8125   20.5644 C   0  0  0  0  0  0
  -24.1860  -13.0439   20.9151 C   0  0  0  0  0  0
  -24.6385  -11.6898   20.8715 C   0  0  0  0  0  0
  -23.9041  -10.4302   21.0402 C   0  0  0  0  0  0
  -24.3599   -9.4223   21.9174 C   0  0  0  0  0  0
  -23.6289   -8.2252   22.0738 C   0  0  0  0  0  0
  -22.4271   -8.0290   21.3531 C   0  0  0  0  0  0
  -21.9904   -9.0260   20.4640 C   0  0  0  0  0  0
  -22.7218  -10.2145   20.3052 C   0  0  0  0  0  0
  -21.6856   -6.0746   22.5283 C   0  0  0  0  0  0
  -21.4014   -6.5641   23.8218 C   0  0  0  0  0  0
  -21.3654   -5.6784   24.9172 C   0  0  0  0  0  0
  -21.6045   -4.3051   24.7216 C   0  0  0  0  0  0
  -21.8818   -3.8152   23.4335 C   0  0  0  0  0  0
  -21.9190   -4.6974   22.3396 C   0  0  0  0  0  0
  -22.7883  -13.5262   21.1813 C   0  0  0  0  0  0
  -22.1656   -4.2160   21.0975 F   0  0  0  0  0  0
  -21.5626   -3.4529   25.7723 F   0  0  0  0  0  0
  -30.0389  -13.2914   20.4452 N   0  0  0  0  0  0
  -26.3054  -12.9263   20.3337 N   0  0  0  0  0  0
  -25.9309  -11.6442   20.5742 N   0  0  0  0  0  0
  -22.0496  -12.8293   22.0380 N   0  0  0  0  0  0
  -25.4435  -15.1835   20.4028 N   0  0  0  0  0  0
  -31.7968  -14.7169   20.1205 O   0  0  0  0  0  0
  -21.6633   -6.8894   21.4247 O   0  0  0  0  0  0
  -22.3586  -14.5571   20.6656 O   0  0  0  0  0  0
  -24.6154  -31.8672   23.2085 C   0  0  0  0  0  0
  -25.9040  -32.4819   23.8390 C   0  0  1  0  0  0
  -27.2364  -27.4267   20.1039 C   0  0  0  0  0  0
  -25.5889  -33.8615   24.2320 N   0  0  0  0  0  0
  -23.4054  -30.4899   21.5486 C   0  0  2  0  0  0
  -24.8552  -28.9566   20.1120 C   0  0  0  0  0  0
  -22.7420  -29.4651   22.4968 C   0  0  0  0  0  0
  -18.0272  -28.1375   22.8490 C   0  0  0  0  0  0
  -24.1486  -36.7317   23.2640 C   0  0  0  0  0  0
  -25.9349  -30.8319   21.3630 C   0  0  0  0  0  0
  -26.0162  -29.4662   20.7094 C   0  0  0  0  0  0
  -27.2130  -28.7095   20.7008 C   0  0  0  0  0  0
  -26.0634  -26.9382   19.4912 C   0  0  0  0  0  0
  -24.8748  -27.6926   19.4966 C   0  0  0  0  0  0
  -23.6154  -29.8216   20.1635 C   0  0  0  0  0  0
  -25.4106  -36.3109   24.0338 C   0  0  1  0  0  0
  -20.5865  -28.3664   23.1308 C   0  0  2  0  0  0
  -20.6757  -26.9396   22.5413 C   0  0  0  0  0  0
  -19.5738  -26.6387   21.5204 C   0  0  0  0  0  0
  -18.1918  -26.7927   22.1616 C   0  0  0  0  0  0
  -19.1521  -28.8835   23.2903 C   0  0  0  0  0  0
  -18.9453  -30.1437   23.8915 C   0  0  0  0  0  0
  -17.6454  -30.6583   24.0563 C   0  0  0  0  0  0
  -25.9029  -34.9473   23.5126 C   0  0  0  0  0  0
  -16.5344  -29.9084   23.6323 C   0  0  0  0  0  0
  -16.7260  -28.6500   23.0353 C   0  0  0  0  0  0
  -26.4476  -31.6599   25.0715 C   0  0  0  0  0  0
  -25.3749  -31.3708   26.1472 C   0  0  0  0  0  0
  -27.0305  -30.3044   24.6089 C   0  0  0  0  0  0
  -27.6056  -32.4325   25.7465 C   0  0  0  0  0  0
  -27.5581  -37.1808   24.8464 C   0  0  0  0  0  0
  -21.4146  -29.3035   22.3717 N   0  0  0  0  0  0
  -26.4294  -37.3792   23.9408 N   0  0  0  0  0  0
  -24.6702  -31.0766   22.0989 N   0  0  0  0  0  0
  -23.4184  -28.8192   23.3016 O   0  0  0  0  0  0
  -28.3640  -26.6305   20.1286 O   0  0  0  0  0  0
  -26.5600  -34.8929   22.4693 O   0  0  0  0  0  0
  -23.5344  -32.1413   23.7480 O   0  0  0  0  0  0
  -28.6350  -19.7521   20.4036 C   0  0  0  0  0  0
  -29.8672  -19.2144   19.9530 C   0  0  0  0  0  0
  -30.5890  -21.3747   19.4795 C   0  0  0  0  0  0
  -29.3277  -21.9040   19.8740 C   0  0  0  0  0  0
  -31.7049  -22.2589   18.9536 C   0  0  0  0  0  0
  -29.1132  -17.7764   17.3845 C   0  0  0  0  0  0
  -28.9187  -23.3767   19.6751 C   0  0  0  0  0  0
  -29.0828  -17.0907   18.7606 C   0  0  0  0  0  0
  -29.2301  -24.3372   20.8503 C   0  0  0  0  0  0
  -30.1248  -16.9221   21.1538 C   0  0  0  0  0  0
  -28.2316  -25.5148   21.0332 C   0  0  0  0  0  0
  -30.0741  -17.6895   19.7936 C   0  0  2  0  0  0
  -28.3669  -21.0837   20.3733 N   0  0  0  0  0  0
  -30.8568  -20.0406   19.5204 N   0  0  0  0  0  0
  -29.8987  -15.4632   21.0861 N   0  0  0  0  0  0
  -31.4817  -12.4440   19.1152 H   0  0  0  0  0  0
  -30.3694  -11.3022   19.8147 H   0  0  0  0  0  0
  -29.7568  -11.7781   17.4299 H   0  0  0  0  0  0
  -29.6629  -13.4881   17.7698 H   0  0  0  0  0  0
  -27.8461  -11.2915   18.8235 H   0  0  0  0  0  0
  -27.3748  -12.6090   17.7850 H   0  0  0  0  0  0
  -27.7153  -14.2401   19.5705 H   0  0  0  0  0  0
  -28.6887  -11.9266   21.3157 H   0  0  0  0  0  0
  -28.4597  -13.5478   21.8812 H   0  0  0  0  0  0
  -25.2750   -9.5697   22.4733 H   0  0  0  0  0  0
  -24.0005   -7.4638   22.7444 H   0  0  0  0  0  0
  -21.0834   -8.8771   19.8945 H   0  0  0  0  0  0
  -22.3676  -10.9671   19.6152 H   0  0  0  0  0  0
  -21.2010   -7.6147   23.9731 H   0  0  0  0  0  0
  -21.1475   -6.0504   25.9075 H   0  0  0  0  0  0
  -22.0606   -2.7619   23.2822 H   0  0  0  0  0  0
  -22.4086  -11.9990   22.4848 H   0  0  0  0  0  0
  -21.1105  -13.1345   22.2515 H   0  0  0  0  0  0
  -24.6837  -15.8477   20.5044 H   0  0  0  0  0  0
  -26.2992  -15.6109   20.0729 H   0  0  0  0  0  0
  -26.7107  -32.5542   23.1154 H   0  0  0  0  0  0
  -25.0031  -33.9773   25.0459 H   0  0  0  0  0  0
  -22.6943  -31.3069   21.4081 H   0  0  0  0  0  0
  -23.3740  -35.9660   23.3321 H   0  0  0  0  0  0
  -24.3577  -36.8914   22.2051 H   0  0  0  0  0  0
  -23.7248  -37.6531   23.6644 H   0  0  0  0  0  0
  -26.0463  -31.5975   20.5943 H   0  0  0  0  0  0
  -26.8228  -30.8875   21.9810 H   0  0  0  0  0  0
  -28.1079  -29.0939   21.1708 H   0  0  0  0  0  0
  -26.0687  -25.9643   19.0222 H   0  0  0  0  0  0
  -23.9841  -27.2941   19.0298 H   0  0  0  0  0  0
  -23.7206  -30.5962   19.4025 H   0  0  0  0  0  0
  -22.7413  -29.2382   19.8686 H   0  0  0  0  0  0
  -25.1285  -36.1977   25.0831 H   0  0  0  0  0  0
  -20.9962  -28.3231   24.1427 H   0  0  0  0  0  0
  -20.5646  -26.2273   23.3604 H   0  0  0  0  0  0
  -21.6631  -26.7433   22.1217 H   0  0  0  0  0  0
  -19.6902  -25.6304   21.1221 H   0  0  0  0  0  0
  -19.6684  -27.3207   20.6745 H   0  0  0  0  0  0
  -17.4194  -26.6686   21.4012 H   0  0  0  0  0  0
  -18.0315  -26.0057   22.8998 H   0  0  0  0  0  0
  -19.7928  -30.7242   24.2304 H   0  0  0  0  0  0
  -17.5012  -31.6266   24.5159 H   0  0  0  0  0  0
  -15.5344  -30.2993   23.7638 H   0  0  0  0  0  0
  -15.8664  -28.0820   22.7065 H   0  0  0  0  0  0
  -24.5905  -30.7076   25.7810 H   0  0  0  0  0  0
  -24.8960  -32.2864   26.4951 H   0  0  0  0  0  0
  -25.8106  -30.8850   27.0211 H   0  0  0  0  0  0
  -26.2836  -29.6797   24.1176 H   0  0  0  0  0  0
  -27.4112  -29.7294   25.4538 H   0  0  0  0  0  0
  -27.8657  -30.4367   23.9208 H   0  0  0  0  0  0
  -27.2673  -33.3601   26.2099 H   0  0  0  0  0  0
  -28.3825  -32.6934   25.0263 H   0  0  0  0  0  0
  -28.0778  -31.8424   26.5330 H   0  0  0  0  0  0
  -28.2615  -38.0090   24.7497 H   0  0  0  0  0  0
  -28.1059  -36.2622   24.6304 H   0  0  0  0  0  0
  -27.2301  -37.1482   25.8868 H   0  0  0  0  0  0
  -20.9301  -29.8764   21.6952 H   0  0  0  0  0  0
  -26.0188  -38.2875   24.1399 H   0  0  0  0  0  0
  -27.8351  -19.1048   20.7360 H   0  0  0  0  0  0
  -32.0200  -22.9654   19.7213 H   0  0  0  0  0  0
  -31.3761  -22.8219   18.0807 H   0  0  0  0  0  0
  -32.5785  -21.6735   18.6612 H   0  0  0  0  0  0
  -28.4518  -17.2649   16.6855 H   0  0  0  0  0  0
  -30.1165  -17.7619   16.9566 H   0  0  0  0  0  0
  -28.7894  -18.8153   17.4377 H   0  0  0  0  0  0
  -27.8431  -23.3820   19.4961 H   0  0  0  0  0  0
  -29.3529  -23.7669   18.7544 H   0  0  0  0  0  0
  -29.2978  -16.0352   18.5974 H   0  0  0  0  0  0
  -28.0681  -17.1321   19.1562 H   0  0  0  0  0  0
  -30.2589  -24.6933   20.7961 H   0  0  0  0  0  0
  -29.1728  -23.7504   21.7677 H   0  0  0  0  0  0
  -29.3357  -17.3033   21.8028 H   0  0  0  0  0  0
  -31.0622  -17.1350   21.6700 H   0  0  0  0  0  0
  -28.3638  -25.9189   22.0376 H   0  0  0  0  0  0
  -27.2202  -25.1055   21.0218 H   0  0  0  0  0  0
  -31.0659  -17.5581   19.3563 H   0  0  0  0  0  0
  -28.9992  -15.1481   21.4179 H   0  0  0  0  0  0
  1 25  1  0  0  0
  1 30  2  0  0  0
  1 85  1  0  0  0
  2  3  1  0  0  0
  2 25  1  0  0  0
  2 86  1  0  0  0
  2 87  1  0  0  0
  3  4  1  0  0  0
  3 88  1  0  0  0
  3 89  1  0  0  0
  4  5  1  0  0  0
  4 90  1  0  0  0
  4 91  1  0  0  0
  5  6  1  0  0  0
  5 26  1  0  0  0
  5 92  1  0  0  0
  6 25  1  0  0  0
  6 93  1  0  0  0
  6 94  1  0  0  0
  7  8  2  0  0  0
  7 26  1  0  0  0
  7 29  1  0  0  0
  8  9  1  0  0  0
  8 22  1  0  0  0
  9 10  1  0  0  0
  9 27  2  0  0  0
 10 11  2  0  0  0
 10 15  1  0  0  0
 11 12  1  0  0  0
 11 95  1  0  0  0
 12 13  2  0  0  0
 12 96  1  0  0  0
 13 14  1  0  0  0
 13 31  1  0  0  0
 14 15  2  0  0  0
 14 97  1  0  0  0
 15 98  1  0  0  0
 16 17  2  0  0  0
 16 21  1  0  0  0
 16 31  1  0  0  0
 17 18  1  0  0  0
 17 99  1  0  0  0
 18 19  2  0  0  0
 18100  1  0  0  0
 19 20  1  0  0  0
 19 24  1  0  0  0
 20 21  2  0  0  0
 20101  1  0  0  0
 21 23  1  0  0  0
 22 28  1  0  0  0
 22 32  2  0  0  0
 26 27  1  0  0  0
 28102  1  0  0  0
 28103  1  0  0  0
 29104  1  0  0  0
 29105  1  0  0  0
 33 34  1  0  0  0
 33 66  1  0  0  0
 33 70  2  0  0  0
 34 36  1  0  0  0
 34 59  1  0  0  0
 34106  1  0  0  0
 35 44  2  0  0  0
 35 45  1  0  0  0
 35 68  1  0  0  0
 36 56  1  0  0  0
 36107  1  0  0  0
 37 39  1  0  0  0
 37 47  1  0  0  0
 37 66  1  0  0  0
 37108  1  0  0  0
 38 43  2  0  0  0
 38 46  1  0  0  0
 38 47  1  0  0  0
 39 64  1  0  0  0
 39 67  2  0  0  0
 40 52  1  0  0  0
 40 53  2  0  0  0
 40 58  1  0  0  0
 41109  1  0  0  0
 41110  1  0  0  0
 41111  1  0  0  0
 41 48  1  0  0  0
 42 43  1  0  0  0
 42 66  1  0  0  0
 42112  1  0  0  0
 42113  1  0  0  0
 43 44  1  0  0  0
 44114  1  0  0  0
 45 46  2  0  0  0
 45115  1  0  0  0
 46116  1  0  0  0
 47117  1  0  0  0
 47118  1  0  0  0
 48 56  1  0  0  0
 48 65  1  0  0  0
 48119  1  0  0  0
 49 50  1  0  0  0
 49 53  1  0  0  0
 49 64  1  0  0  0
 49120  1  0  0  0
 50 51  1  0  0  0
 50121  1  0  0  0
 50122  1  0  0  0
 51 52  1  0  0  0
 51123  1  0  0  0
 51124  1  0  0  0
 52125  1  0  0  0
 52126  1  0  0  0
 53 54  1  0  0  0
 54 55  2  0  0  0
 54127  1  0  0  0
 55 57  1  0  0  0
 55128  1  0  0  0
 56 69  2  0  0  0
 57 58  2  0  0  0
 57129  1  0  0  0
 58130  1  0  0  0
 59 60  1  0  0  0
 59 61  1  0  0  0
 59 62  1  0  0  0
 60131  1  0  0  0
 60132  1  0  0  0
 60133  1  0  0  0
 61134  1  0  0  0
 61135  1  0  0  0
 61136  1  0  0  0
 62137  1  0  0  0
 62138  1  0  0  0
 62139  1  0  0  0
 63 65  1  0  0  0
 63140  1  0  0  0
 63141  1  0  0  0
 63142  1  0  0  0
 64143  1  0  0  0
 65144  1  0  0  0
 68 81  1  0  0  0
 71 72  2  0  0  0
 71 83  1  0  0  0
 71145  1  0  0  0
 72 82  1  0  0  0
 72 84  1  0  0  0
 73 74  1  0  0  0
 73 75  1  0  0  0
 73 84  2  0  0  0
 74 77  1  0  0  0
 74 83  2  0  0  0
 75146  1  0  0  0
 75147  1  0  0  0
 75148  1  0  0  0
 76 78  1  0  0  0
 76149  1  0  0  0
 76150  1  0  0  0
 76151  1  0  0  0
 77 79  1  0  0  0
 77152  1  0  0  0
 77153  1  0  0  0
 78154  1  0  0  0
 78155  1  0  0  0
 78 82  1  0  0  0
 79 81  1  0  0  0
 79156  1  0  0  0
 79157  1  0  0  0
 80 82  1  0  0  0
 80 85  1  0  0  0
 80158  1  0  0  0
 80159  1  0  0  0
 81160  1  0  0  0
 81161  1  0  0  0
 82162  1  0  0  0
 85163  1  0  0  0
M  ISO  4   1 100  68 101  81 101  85 100
M  END
> <chiral flag>
0

> <version>
0

> <s_m_source_file>
/data/baiqing/PycharmProjects/Reinvent-master-3.2/result/LINK_invent/BTK/process_docking_weight1_custom_sum_contain_oxygen_bond_distance_aromatic_linkinvent_7_9_3/rearranged_h_0080.sdf

> <i_m_source_file_index>
22

> <r_mmod_Potential_Energy-OPLS-2005>
-20.0070629119873

> <r_mmod_Stretch_Energy-OPLS-2005>
44.309944152832

> <r_mmod_Bend_Energy-OPLS-2005>
106.244171142578

> <r_mmod_Torsional_Energy-OPLS-2005>
225.54508972168

> <r_mmod_Improper_Torsional_Energy-OPLS-2005>
4.64011526107788

> <r_mmod_Van_der_Waal_Energy-OPLS-2005>
144.999633789062

> <r_mmod_Electrostatic_Energy-OPLS-2005>
-341.55712890625

> <r_mmod_Solvation_Energy-OPLS-2005>
-219.896026611328

> <b_mmod_Minimization_Converged-OPLS-2005>
0

> <r_mmod_RMS_Derivative-OPLS-2005>
1.84522199630737

$$$$
24
                    3D
 Structure written by MMmdl.
167175  0  0  1  0            999 V2000
  -30.6455  -14.5791   20.5246 C   0  0  0  0  0  0
  -30.4383  -12.3603   19.4348 C   0  0  0  0  0  0
  -29.5010  -12.4917   18.2146 C   0  0  0  0  0  0
  -28.0242  -12.3385   18.6313 C   0  0  0  0  0  0
  -27.6570  -13.2060   19.8641 C   0  0  2  0  0  0
  -28.7030  -13.0406   20.9899 C   0  0  0  0  0  0
  -25.2607  -13.8154   20.5696 C   0  0  0  0  0  0
  -24.1854  -13.0430   20.9181 C   0  0  0  0  0  0
  -24.6402  -11.6895   20.8742 C   0  0  0  0  0  0
  -23.9061  -10.4291   21.0411 C   0  0  0  0  0  0
  -24.3609   -9.4206   21.9191 C   0  0  0  0  0  0
  -23.6288   -8.2244   22.0757 C   0  0  0  0  0  0
  -22.4275   -8.0281   21.3547 C   0  0  0  0  0  0
  -21.9904   -9.0252   20.4647 C   0  0  0  0  0  0
  -22.7230  -10.2134   20.3060 C   0  0  0  0  0  0
  -21.6852   -6.0733   22.5275 C   0  0  0  0  0  0
  -21.4015   -6.5638   23.8209 C   0  0  0  0  0  0
  -21.3653   -5.6791   24.9171 C   0  0  0  0  0  0
  -21.6042   -4.3052   24.7224 C   0  0  0  0  0  0
  -21.8820   -3.8144   23.4345 C   0  0  0  0  0  0
  -21.9195   -4.6958   22.3398 C   0  0  0  0  0  0
  -22.7891  -13.5250   21.1841 C   0  0  0  0  0  0
  -22.1670   -4.2143   21.0977 F   0  0  0  0  0  0
  -21.5616   -3.4536   25.7737 F   0  0  0  0  0  0
  -30.0211  -13.3697   20.4233 N   0  0  0  0  0  0
  -26.3019  -12.9309   20.3333 N   0  0  0  0  0  0
  -25.9328  -11.6477   20.5762 N   0  0  0  0  0  0
  -22.0528  -12.8238   22.0396 N   0  0  0  0  0  0
  -25.4344  -15.1868   20.4136 N   0  0  0  0  0  0
  -31.8096  -14.7581   20.1585 O   0  0  0  0  0  0
  -21.6642   -6.8874   21.4239 O   0  0  0  0  0  0
  -22.3589  -14.5557   20.6689 O   0  0  0  0  0  0
  -24.6182  -31.8652   23.2029 C   0  0  0  0  0  0
  -25.9046  -32.4812   23.8368 C   0  0  1  0  0  0
  -27.2371  -27.3752   20.1067 C   0  0  0  0  0  0
  -25.5862  -33.8606   24.2299 N   0  0  0  0  0  0
  -23.4113  -30.4849   21.5437 C   0  0  2  0  0  0
  -24.8590  -28.9369   20.1141 C   0  0  0  0  0  0
  -22.7459  -29.4637   22.4956 C   0  0  0  0  0  0
  -18.0284  -28.1354   22.8495 C   0  0  0  0  0  0
  -24.1476  -36.7307   23.2657 C   0  0  0  0  0  0
  -25.9469  -30.8072   21.3716 C   0  0  0  0  0  0
  -26.0194  -29.4377   20.7144 C   0  0  0  0  0  0
  -27.2098  -28.6660   20.7012 C   0  0  0  0  0  0
  -26.0508  -26.8961   19.5083 C   0  0  0  0  0  0
  -24.8721  -27.6705   19.5042 C   0  0  0  0  0  0
  -23.6246  -29.8114   20.1601 C   0  0  0  0  0  0
  -25.4105  -36.3125   24.0354 C   0  0  1  0  0  0
  -20.5883  -28.3664   23.1284 C   0  0  2  0  0  0
  -20.6759  -26.9389   22.5402 C   0  0  0  0  0  0
  -19.5738  -26.6362   21.5192 C   0  0  0  0  0  0
  -18.1923  -26.7897   22.1621 C   0  0  0  0  0  0
  -19.1540  -28.8820   23.2888 C   0  0  0  0  0  0
  -18.9465  -30.1418   23.8915 C   0  0  0  0  0  0
  -17.6474  -30.6575   24.0547 C   0  0  0  0  0  0
  -25.9025  -34.9483   23.5145 C   0  0  0  0  0  0
  -16.5362  -29.9079   23.6311 C   0  0  0  0  0  0
  -16.7281  -28.6476   23.0375 C   0  0  0  0  0  0
  -26.4457  -31.6617   25.0719 C   0  0  0  0  0  0
  -25.3700  -31.3710   26.1450 C   0  0  0  0  0  0
  -27.0346  -30.3069   24.6156 C   0  0  0  0  0  0
  -27.6036  -32.4369   25.7469 C   0  0  0  0  0  0
  -27.5605  -37.1789   24.8476 C   0  0  0  0  0  0
  -21.4190  -29.3022   22.3680 N   0  0  0  0  0  0
  -26.4314  -37.3799   23.9423 N   0  0  0  0  0  0
  -24.6764  -31.0703   22.0955 N   0  0  0  0  0  0
  -23.4198  -28.8189   23.3042 O   0  0  0  0  0  0
  -28.4219  -26.6500   20.1330 O   0  0  0  0  0  0
  -26.5634  -34.8950   22.4736 O   0  0  0  0  0  0
  -23.5349  -32.1443   23.7367 O   0  0  0  0  0  0
  -27.0006  -20.0804   18.8783 C   0  0  0  0  0  0
  -27.8754  -18.9976   19.0226 C   0  0  0  0  0  0
  -27.3248  -21.3385   19.4286 C   0  0  0  0  0  0
  -29.0716  -19.1707   19.7290 C   0  0  0  0  0  0
  -28.5499  -21.4850   20.1444 C   0  0  0  0  0  0
  -26.2984  -22.4374   19.2122 C   0  0  0  0  0  0
  -31.4845  -18.4407   19.3618 C   0  0  0  0  0  0
  -29.0204  -22.4384   22.4007 C   0  0  0  0  0  0
  -30.5235  -23.0553   20.5027 C   0  0  0  0  0  0
  -28.2605  -24.1907   20.8132 C   0  0  0  0  0  0
  -30.1124  -17.0736   21.0620 C   0  0  0  0  0  0
  -28.5242  -25.2639   19.6938 C   0  0  0  0  0  0
  -30.0772  -17.9735   19.7698 C   0  0  1  0  0  0
  -29.0511  -22.7910   20.8936 C   0  0  0  0  0  0
  -29.3722  -20.3838   20.2901 N   0  0  0  0  0  0
  -29.8412  -15.6133   20.8844 N   0  0  0  0  0  0
  -31.4777  -12.4884   19.1280 H   0  0  0  0  0  0
  -30.3725  -11.3600   19.8655 H   0  0  0  0  0  0
  -29.7526  -11.7411   17.4639 H   0  0  0  0  0  0
  -29.6493  -13.4627   17.7400 H   0  0  0  0  0  0
  -27.8515  -11.2857   18.8570 H   0  0  0  0  0  0
  -27.3684  -12.5810   17.7945 H   0  0  0  0  0  0
  -27.6827  -14.2425   19.5289 H   0  0  0  0  0  0
  -28.7048  -12.0177   21.3697 H   0  0  0  0  0  0
  -28.4574  -13.6717   21.8468 H   0  0  0  0  0  0
  -25.2748   -9.5682   22.4776 H   0  0  0  0  0  0
  -23.9985   -7.4639   22.7490 H   0  0  0  0  0  0
  -21.0828   -8.8777   19.8962 H   0  0  0  0  0  0
  -22.3686  -10.9679   19.6179 H   0  0  0  0  0  0
  -21.2022   -7.6151   23.9706 H   0  0  0  0  0  0
  -21.1470   -6.0526   25.9071 H   0  0  0  0  0  0
  -22.0607   -2.7606   23.2850 H   0  0  0  0  0  0
  -22.4142  -11.9885   22.4758 H   0  0  0  0  0  0
  -21.1168  -13.1290   22.2635 H   0  0  0  0  0  0
  -24.6676  -15.8406   20.5279 H   0  0  0  0  0  0
  -26.2818  -15.6277   20.0793 H   0  0  0  0  0  0
  -26.7129  -32.5492   23.1149 H   0  0  0  0  0  0
  -24.9914  -33.9721   25.0376 H   0  0  0  0  0  0
  -22.7017  -31.3020   21.3955 H   0  0  0  0  0  0
  -23.3765  -35.9615   23.3313 H   0  0  0  0  0  0
  -24.3553  -36.8928   22.2072 H   0  0  0  0  0  0
  -23.7186  -37.6490   23.6676 H   0  0  0  0  0  0
  -26.0808  -31.5728   20.6057 H   0  0  0  0  0  0
  -26.8275  -30.8521   22.0024 H   0  0  0  0  0  0
  -28.1105  -29.0467   21.1617 H   0  0  0  0  0  0
  -26.0056  -25.9235   19.0447 H   0  0  0  0  0  0
  -23.9784  -27.2811   19.0351 H   0  0  0  0  0  0
  -23.7398  -30.5805   19.3952 H   0  0  0  0  0  0
  -22.7494  -29.2306   19.8638 H   0  0  0  0  0  0
  -25.1266  -36.2027   25.0849 H   0  0  0  0  0  0
  -20.9973  -28.3257   24.1413 H   0  0  0  0  0  0
  -20.5637  -26.2280   23.3607 H   0  0  0  0  0  0
  -21.6628  -26.7413   22.1200 H   0  0  0  0  0  0
  -19.6882  -25.6266   21.1245 H   0  0  0  0  0  0
  -19.6660  -27.3156   20.6711 H   0  0  0  0  0  0
  -17.4177  -26.6643   21.4043 H   0  0  0  0  0  0
  -18.0331  -26.0029   22.9006 H   0  0  0  0  0  0
  -19.7954  -30.7193   24.2323 H   0  0  0  0  0  0
  -17.5048  -31.6260   24.5150 H   0  0  0  0  0  0
  -15.5365  -30.2997   23.7607 H   0  0  0  0  0  0
  -15.8679  -28.0786   22.7134 H   0  0  0  0  0  0
  -24.5871  -30.7094   25.7725 H   0  0  0  0  0  0
  -24.8870  -32.2841   26.4938 H   0  0  0  0  0  0
  -25.7998  -30.8816   27.0196 H   0  0  0  0  0  0
  -26.2913  -29.6748   24.1286 H   0  0  0  0  0  0
  -27.4202  -29.7407   25.4639 H   0  0  0  0  0  0
  -27.8706  -30.4394   23.9288 H   0  0  0  0  0  0
  -27.2692  -33.3686   26.2055 H   0  0  0  0  0  0
  -28.3816  -32.6914   25.0261 H   0  0  0  0  0  0
  -28.0762  -31.8503   26.5357 H   0  0  0  0  0  0
  -28.2618  -38.0101   24.7582 H   0  0  0  0  0  0
  -28.1121  -36.2634   24.6256 H   0  0  0  0  0  0
  -27.2315  -37.1376   25.8877 H   0  0  0  0  0  0
  -20.9382  -29.8773   21.6908 H   0  0  0  0  0  0
  -26.0236  -38.2900   24.1403 H   0  0  0  0  0  0
  -26.0808  -19.9374   18.3294 H   0  0  0  0  0  0
  -27.6333  -18.0451   18.5696 H   0  0  0  0  0  0
  -25.5223  -22.1234   18.5130 H   0  0  0  0  0  0
  -26.7493  -23.3177   18.7699 H   0  0  0  0  0  0
  -25.7897  -22.6936   20.1405 H   0  0  0  0  0  0
  -31.4697  -18.9232   18.3842 H   0  0  0  0  0  0
  -32.1834  -17.6054   19.3146 H   0  0  0  0  0  0
  -31.8765  -19.1654   20.0756 H   0  0  0  0  0  0
  -29.6026  -21.5458   22.6283 H   0  0  0  0  0  0
  -27.9962  -22.2563   22.7287 H   0  0  0  0  0  0
  -29.4316  -23.2360   23.0210 H   0  0  0  0  0  0
  -31.1783  -22.2323   20.7885 H   0  0  0  0  0  0
  -30.9126  -23.9491   20.9909 H   0  0  0  0  0  0
  -30.6294  -23.1851   19.4257 H   0  0  0  0  0  0
  -27.1980  -24.0824   21.0071 H   0  0  0  0  0  0
  -28.5837  -24.7466   21.6933 H   0  0  0  0  0  0
  -29.3621  -17.4499   21.7571 H   0  0  0  0  0  0
  -31.0624  -17.1983   21.5841 H   0  0  0  0  0  0
  -27.9594  -25.0779   18.7852 H   0  0  0  0  0  0
  -29.5621  -25.1880   19.3812 H   0  0  0  0  0  0
  -29.7619  -17.3122   18.9606 H   0  0  0  0  0  0
  -28.8946  -15.3336   21.0916 H   0  0  0  0  0  0
  1 25  1  0  0  0
  1 30  2  0  0  0
  1 86  1  0  0  0
  2  3  1  0  0  0
  2 25  1  0  0  0
  2 87  1  0  0  0
  2 88  1  0  0  0
  3  4  1  0  0  0
  3 89  1  0  0  0
  3 90  1  0  0  0
  4  5  1  0  0  0
  4 91  1  0  0  0
  4 92  1  0  0  0
  5  6  1  0  0  0
  5 26  1  0  0  0
  5 93  1  0  0  0
  6 25  1  0  0  0
  6 94  1  0  0  0
  6 95  1  0  0  0
  7  8  2  0  0  0
  7 26  1  0  0  0
  7 29  1  0  0  0
  8  9  1  0  0  0
  8 22  1  0  0  0
  9 10  1  0  0  0
  9 27  2  0  0  0
 10 11  2  0  0  0
 10 15  1  0  0  0
 11 12  1  0  0  0
 11 96  1  0  0  0
 12 13  2  0  0  0
 12 97  1  0  0  0
 13 14  1  0  0  0
 13 31  1  0  0  0
 14 15  2  0  0  0
 14 98  1  0  0  0
 15 99  1  0  0  0
 16 17  2  0  0  0
 16 21  1  0  0  0
 16 31  1  0  0  0
 17 18  1  0  0  0
 17100  1  0  0  0
 18 19  2  0  0  0
 18101  1  0  0  0
 19 20  1  0  0  0
 19 24  1  0  0  0
 20 21  2  0  0  0
 20102  1  0  0  0
 21 23  1  0  0  0
 22 28  1  0  0  0
 22 32  2  0  0  0
 26 27  1  0  0  0
 28103  1  0  0  0
 28104  1  0  0  0
 29105  1  0  0  0
 29106  1  0  0  0
 33 34  1  0  0  0
 33 66  1  0  0  0
 33 70  2  0  0  0
 34 36  1  0  0  0
 34 59  1  0  0  0
 34107  1  0  0  0
 35 44  2  0  0  0
 35 45  1  0  0  0
 35 68  1  0  0  0
 36 56  1  0  0  0
 36108  1  0  0  0
 37 39  1  0  0  0
 37 47  1  0  0  0
 37 66  1  0  0  0
 37109  1  0  0  0
 38 43  2  0  0  0
 38 46  1  0  0  0
 38 47  1  0  0  0
 39 64  1  0  0  0
 39 67  2  0  0  0
 40 52  1  0  0  0
 40 53  2  0  0  0
 40 58  1  0  0  0
 41110  1  0  0  0
 41111  1  0  0  0
 41112  1  0  0  0
 41 48  1  0  0  0
 42 43  1  0  0  0
 42 66  1  0  0  0
 42113  1  0  0  0
 42114  1  0  0  0
 43 44  1  0  0  0
 44115  1  0  0  0
 45 46  2  0  0  0
 45116  1  0  0  0
 46117  1  0  0  0
 47118  1  0  0  0
 47119  1  0  0  0
 48 56  1  0  0  0
 48 65  1  0  0  0
 48120  1  0  0  0
 49 50  1  0  0  0
 49 53  1  0  0  0
 49 64  1  0  0  0
 49121  1  0  0  0
 50 51  1  0  0  0
 50122  1  0  0  0
 50123  1  0  0  0
 51 52  1  0  0  0
 51124  1  0  0  0
 51125  1  0  0  0
 52126  1  0  0  0
 52127  1  0  0  0
 53 54  1  0  0  0
 54 55  2  0  0  0
 54128  1  0  0  0
 55 57  1  0  0  0
 55129  1  0  0  0
 56 69  2  0  0  0
 57 58  2  0  0  0
 57130  1  0  0  0
 58131  1  0  0  0
 59 60  1  0  0  0
 59 61  1  0  0  0
 59 62  1  0  0  0
 60132  1  0  0  0
 60133  1  0  0  0
 60134  1  0  0  0
 61135  1  0  0  0
 61136  1  0  0  0
 61137  1  0  0  0
 62138  1  0  0  0
 62139  1  0  0  0
 62140  1  0  0  0
 63 65  1  0  0  0
 63141  1  0  0  0
 63142  1  0  0  0
 63143  1  0  0  0
 64144  1  0  0  0
 65145  1  0  0  0
 68 82  1  0  0  0
 71 72  2  0  0  0
 71 73  1  0  0  0
 71146  1  0  0  0
 72 74  1  0  0  0
 72147  1  0  0  0
 73 75  2  0  0  0
 73 76  1  0  0  0
 74 83  1  0  0  0
 74 85  2  0  0  0
 75 84  1  0  0  0
 75 85  1  0  0  0
 76148  1  0  0  0
 76149  1  0  0  0
 76150  1  0  0  0
 77151  1  0  0  0
 77152  1  0  0  0
 77153  1  0  0  0
 77 83  1  0  0  0
 78154  1  0  0  0
 78155  1  0  0  0
 78156  1  0  0  0
 78 84  1  0  0  0
 79 84  1  0  0  0
 79157  1  0  0  0
 79158  1  0  0  0
 79159  1  0  0  0
 80 82  1  0  0  0
 80 84  1  0  0  0
 80160  1  0  0  0
 80161  1  0  0  0
 81 83  1  0  0  0
 81 86  1  0  0  0
 81162  1  0  0  0
 81163  1  0  0  0
 82164  1  0  0  0
 82165  1  0  0  0
 83166  1  0  0  0
 86167  1  0  0  0
M  ISO  4   1 100  68 101  82 101  86 100
M  END
> <chiral flag>
0

> <version>
0

> <s_m_source_file>
/data/baiqing/PycharmProjects/Reinvent-master-3.2/result/LINK_invent/BTK/process_docking_weight1_custom_sum_contain_oxygen_bond_distance_aromatic_linkinvent_7_9_3/rearranged_h_0080.sdf

> <i_m_source_file_index>
23

> <r_mmod_Potential_Energy-OPLS-2005>
-138.477279663086

> <r_mmod_Stretch_Energy-OPLS-2005>
71.8068084716797

> <r_mmod_Bend_Energy-OPLS-2005>
179.159698486328

> <r_mmod_Torsional_Energy-OPLS-2005>
206.420806884766

> <r_mmod_Improper_Torsional_Energy-OPLS-2005>
4.16479778289795

> <r_mmod_Van_der_Waal_Energy-OPLS-2005>
157.007751464844

> <r_mmod_Electrostatic_Energy-OPLS-2005>
-576.67236328125

> <r_mmod_Solvation_Energy-OPLS-2005>
-209.089553833008

> <b_mmod_Minimization_Converged-OPLS-2005>
0

> <r_mmod_RMS_Derivative-OPLS-2005>
2.65793967247009

$$$$
25
                    3D
 Structure written by MMmdl.
176185  0  0  1  0            999 V2000
  -30.7377  -14.4118   20.6177 C   0  0  0  0  0  0
  -30.4164  -12.2888   19.4097 C   0  0  0  0  0  0
  -29.4886  -12.5113   18.1998 C   0  0  0  0  0  0
  -28.0109  -12.3735   18.6140 C   0  0  0  0  0  0
  -27.6631  -13.2036   19.8787 C   0  0  2  0  0  0
  -28.7034  -12.9653   20.9964 C   0  0  0  0  0  0
  -25.2572  -13.8095   20.5683 C   0  0  0  0  0  0
  -24.1828  -13.0391   20.9180 C   0  0  0  0  0  0
  -24.6391  -11.6869   20.8736 C   0  0  0  0  0  0
  -23.9058  -10.4266   21.0407 C   0  0  0  0  0  0
  -24.3613   -9.4189   21.9188 C   0  0  0  0  0  0
  -23.6284   -8.2229   22.0759 C   0  0  0  0  0  0
  -22.4266   -8.0272   21.3547 C   0  0  0  0  0  0
  -21.9902   -9.0246   20.4650 C   0  0  0  0  0  0
  -22.7234  -10.2120   20.3057 C   0  0  0  0  0  0
  -21.6847   -6.0734   22.5282 C   0  0  0  0  0  0
  -21.4008   -6.5639   23.8216 C   0  0  0  0  0  0
  -21.3657   -5.6791   24.9177 C   0  0  0  0  0  0
  -21.6044   -4.3054   24.7227 C   0  0  0  0  0  0
  -21.8820   -3.8147   23.4348 C   0  0  0  0  0  0
  -21.9191   -4.6963   22.3404 C   0  0  0  0  0  0
  -22.7856  -13.5213   21.1838 C   0  0  0  0  0  0
  -22.1661   -4.2151   21.0981 F   0  0  0  0  0  0
  -21.5629   -3.4537   25.7740 F   0  0  0  0  0  0
  -30.0399  -13.2587   20.4489 N   0  0  0  0  0  0
  -26.3027  -12.9292   20.3381 N   0  0  0  0  0  0
  -25.9319  -11.6454   20.5768 N   0  0  0  0  0  0
  -22.0489  -12.8224   22.0399 N   0  0  0  0  0  0
  -25.4261  -15.1785   20.4085 N   0  0  0  0  0  0
  -31.8234  -14.6270   20.0715 O   0  0  0  0  0  0
  -21.6629   -6.8875   21.4244 O   0  0  0  0  0  0
  -22.3558  -14.5528   20.6688 O   0  0  0  0  0  0
  -24.6103  -31.8696   23.2112 C   0  0  0  0  0  0
  -25.9011  -32.4829   23.8402 C   0  0  1  0  0  0
  -27.2422  -27.4624   20.1018 C   0  0  0  0  0  0
  -25.5885  -33.8626   24.2336 N   0  0  0  0  0  0
  -23.3975  -30.4897   21.5514 C   0  0  2  0  0  0
  -24.8469  -28.9568   20.1161 C   0  0  0  0  0  0
  -22.7392  -29.4643   22.5013 C   0  0  0  0  0  0
  -18.0262  -28.1350   22.8481 C   0  0  0  0  0  0
  -24.1490  -36.7319   23.2640 C   0  0  0  0  0  0
  -25.9217  -30.8446   21.3601 C   0  0  0  0  0  0
  -26.0024  -29.4797   20.7108 C   0  0  0  0  0  0
  -27.2026  -28.7405   20.6989 C   0  0  0  0  0  0
  -26.0790  -26.9532   19.4874 C   0  0  0  0  0  0
  -24.8786  -27.6909   19.5018 C   0  0  0  0  0  0
  -23.6055  -29.8182   20.1666 C   0  0  0  0  0  0
  -25.4111  -36.3114   24.0335 C   0  0  1  0  0  0
  -20.5848  -28.3628   23.1327 C   0  0  2  0  0  0
  -20.6752  -26.9370   22.5411 C   0  0  0  0  0  0
  -19.5737  -26.6362   21.5198 C   0  0  0  0  0  0
  -18.1912  -26.7898   22.1611 C   0  0  0  0  0  0
  -19.1512  -28.8807   23.2899 C   0  0  0  0  0  0
  -18.9449  -30.1418   23.8906 C   0  0  0  0  0  0
  -17.6455  -30.6566   24.0551 C   0  0  0  0  0  0
  -25.9032  -34.9477   23.5133 C   0  0  0  0  0  0
  -16.5342  -29.9066   23.6319 C   0  0  0  0  0  0
  -16.7254  -28.6481   23.0340 C   0  0  0  0  0  0
  -26.4458  -31.6596   25.0714 C   0  0  0  0  0  0
  -25.3736  -31.3696   26.1470 C   0  0  0  0  0  0
  -27.0281  -30.3046   24.6048 C   0  0  0  0  0  0
  -27.6040  -32.4315   25.7474 C   0  0  0  0  0  0
  -27.5586  -37.1810   24.8464 C   0  0  0  0  0  0
  -21.4124  -29.3010   22.3755 N   0  0  0  0  0  0
  -26.4302  -37.3793   23.9404 N   0  0  0  0  0  0
  -24.6609  -31.0816   22.1001 N   0  0  0  0  0  0
  -23.4181  -28.8194   23.3046 O   0  0  0  0  0  0
  -28.4187  -26.7484   20.0869 O   0  0  0  0  0  0
  -26.5597  -34.8925   22.4697 O   0  0  0  0  0  0
  -23.5304  -32.1446   23.7525 O   0  0  0  0  0  0
  -27.1043  -19.4700   20.1875 C   0  0  0  0  0  0
  -28.4164  -19.7892   20.6202 C   0  0  0  0  0  0
  -26.3656  -21.5636   20.8304 C   0  0  0  0  0  0
  -27.6913  -21.9119   21.2157 C   0  0  0  0  0  0
  -31.2490  -18.1118   23.4984 C   0  0  0  0  0  0
  -29.7990  -18.4158   23.1384 C   0  0  0  0  0  0
  -31.4851  -16.7225   22.9191 C   0  0  0  0  0  0
  -29.5630  -17.7658   21.7617 C   0  0  2  0  0  0
  -30.6771  -16.6937   21.6121 C   0  0  2  0  0  0
  -26.7577  -18.1436   19.5427 C   0  0  0  0  0  0
  -24.6085  -22.9892   19.6492 C   0  0  0  0  0  0
  -28.2028  -26.2484   22.5169 C   0  0  0  0  0  0
  -29.5583  -18.7748   20.5807 C   0  0  0  0  0  0
  -25.1614  -22.4834   20.9906 C   0  0  0  0  0  0
  -28.0747  -23.2863   21.7565 C   0  0  0  0  0  0
  -27.9625  -24.4123   20.7054 C   0  0  0  0  0  0
  -28.6086  -25.7548   21.1115 C   0  0  1  0  0  0
  -26.0828  -20.3478   20.3065 N   0  0  0  0  0  0
  -28.7094  -21.0196   21.1117 N   0  0  0  0  0  0
  -30.1393  -15.3523   21.3642 N   0  0  0  0  0  0
  -31.4614  -12.3802   19.1072 H   0  0  0  0  0  0
  -30.3093  -11.2730   19.7931 H   0  0  0  0  0  0
  -29.7226  -11.7965   17.4096 H   0  0  0  0  0  0
  -29.6622  -13.5026   17.7777 H   0  0  0  0  0  0
  -27.8173  -11.3165   18.8002 H   0  0  0  0  0  0
  -27.3603  -12.6591   17.7867 H   0  0  0  0  0  0
  -27.7138  -14.2553   19.5954 H   0  0  0  0  0  0
  -28.6701  -11.9263   21.3271 H   0  0  0  0  0  0
  -28.4621  -13.5552   21.8813 H   0  0  0  0  0  0
  -25.2759   -9.5663   22.4760 H   0  0  0  0  0  0
  -23.9992   -7.4621   22.7479 H   0  0  0  0  0  0
  -21.0834   -8.8768   19.8957 H   0  0  0  0  0  0
  -22.3699  -10.9663   19.6166 H   0  0  0  0  0  0
  -21.1998   -7.6146   23.9719 H   0  0  0  0  0  0
  -21.1478   -6.0521   25.9081 H   0  0  0  0  0  0
  -22.0601   -2.7609   23.2847 H   0  0  0  0  0  0
  -22.4088  -11.9877   22.4786 H   0  0  0  0  0  0
  -21.1114  -13.1275   22.2606 H   0  0  0  0  0  0
  -24.6569  -15.8309   20.5110 H   0  0  0  0  0  0
  -26.2765  -15.6070   20.0718 H   0  0  0  0  0  0
  -26.7091  -32.5558   23.1181 H   0  0  0  0  0  0
  -25.0025  -33.9796   25.0475 H   0  0  0  0  0  0
  -22.6846  -31.3047   21.4123 H   0  0  0  0  0  0
  -23.3742  -35.9665   23.3316 H   0  0  0  0  0  0
  -24.3585  -36.8919   22.2053 H   0  0  0  0  0  0
  -23.7256  -37.6532   23.6648 H   0  0  0  0  0  0
  -26.0280  -31.6108   20.5910 H   0  0  0  0  0  0
  -26.8113  -30.9005   21.9750 H   0  0  0  0  0  0
  -28.0978  -29.1414   21.1540 H   0  0  0  0  0  0
  -26.1016  -25.9946   18.9895 H   0  0  0  0  0  0
  -23.9929  -27.2860   19.0314 H   0  0  0  0  0  0
  -23.7096  -30.5918   19.4050 H   0  0  0  0  0  0
  -22.7320  -29.2327   19.8742 H   0  0  0  0  0  0
  -25.1289  -36.1989   25.0829 H   0  0  0  0  0  0
  -20.9931  -28.3182   24.1449 H   0  0  0  0  0  0
  -20.5637  -26.2233   23.3590 H   0  0  0  0  0  0
  -21.6629  -26.7406   22.1220 H   0  0  0  0  0  0
  -19.6906  -25.6278   21.1214 H   0  0  0  0  0  0
  -19.6686  -27.3185   20.6741 H   0  0  0  0  0  0
  -17.4184  -26.6634   21.4011 H   0  0  0  0  0  0
  -18.0319  -26.0033   22.9004 H   0  0  0  0  0  0
  -19.7931  -30.7210   24.2292 H   0  0  0  0  0  0
  -17.5016  -31.6253   24.5142 H   0  0  0  0  0  0
  -15.5343  -30.2971   23.7640 H   0  0  0  0  0  0
  -15.8647  -28.0805   22.7054 H   0  0  0  0  0  0
  -24.5900  -30.7051   25.7813 H   0  0  0  0  0  0
  -24.8930  -32.2847   26.4943 H   0  0  0  0  0  0
  -25.8090  -30.8852   27.0216 H   0  0  0  0  0  0
  -26.2810  -29.6813   24.1113 H   0  0  0  0  0  0
  -27.4087  -29.7265   25.4480 H   0  0  0  0  0  0
  -27.8628  -30.4381   23.9161 H   0  0  0  0  0  0
  -27.2658  -33.3601   26.2089 H   0  0  0  0  0  0
  -28.3824  -32.6897   25.0281 H   0  0  0  0  0  0
  -28.0733  -31.8413   26.5358 H   0  0  0  0  0  0
  -28.2605  -38.0107   24.7501 H   0  0  0  0  0  0
  -28.1073  -36.2630   24.6296 H   0  0  0  0  0  0
  -27.2294  -37.1470   25.8865 H   0  0  0  0  0  0
  -20.9282  -29.8746   21.6992 H   0  0  0  0  0  0
  -26.0192  -38.2872   24.1394 H   0  0  0  0  0  0
  -31.4366  -18.1585   24.5719 H   0  0  0  0  0  0
  -31.9086  -18.8331   23.0131 H   0  0  0  0  0  0
  -29.5880  -19.4841   23.1643 H   0  0  0  0  0  0
  -29.1424  -17.9466   23.8730 H   0  0  0  0  0  0
  -31.1063  -15.9774   23.6212 H   0  0  0  0  0  0
  -32.5437  -16.5110   22.7611 H   0  0  0  0  0  0
  -28.5881  -17.2809   21.7993 H   0  0  0  0  0  0
  -31.3398  -16.9926   20.7963 H   0  0  0  0  0  0
  -27.1438  -17.3141   20.1290 H   0  0  0  0  0  0
  -27.1898  -18.0867   18.5435 H   0  0  0  0  0  0
  -25.6787  -18.0140   19.4539 H   0  0  0  0  0  0
  -23.7554  -23.6494   19.8067 H   0  0  0  0  0  0
  -24.2736  -22.1598   19.0260 H   0  0  0  0  0  0
  -25.3602  -23.5415   19.0863 H   0  0  0  0  0  0
  -28.5336  -25.5565   23.2910 H   0  0  0  0  0  0
  -27.1217  -26.3538   22.6146 H   0  0  0  0  0  0
  -28.6590  -27.2126   22.7413 H   0  0  0  0  0  0
  -30.5090  -19.3096   20.5502 H   0  0  0  0  0  0
  -29.5021  -18.2319   19.6368 H   0  0  0  0  0  0
  -25.3947  -23.3271   21.6370 H   0  0  0  0  0  0
  -24.3803  -21.9319   21.5151 H   0  0  0  0  0  0
  -29.0988  -23.2461   22.1317 H   0  0  0  0  0  0
  -27.4526  -23.5061   22.6245 H   0  0  0  0  0  0
  -26.9141  -24.5701   20.4794 H   0  0  0  0  0  0
  -28.4287  -24.0811   19.7768 H   0  0  0  0  0  0
  -29.6864  -25.5880   21.1455 H   0  0  0  0  0  0
  -29.2470  -15.1150   21.7707 H   0  0  0  0  0  0
  1 25  1  0  0  0
  1 30  2  0  0  0
  1 90  1  0  0  0
  2  3  1  0  0  0
  2 25  1  0  0  0
  2 91  1  0  0  0
  2 92  1  0  0  0
  3  4  1  0  0  0
  3 93  1  0  0  0
  3 94  1  0  0  0
  4  5  1  0  0  0
  4 95  1  0  0  0
  4 96  1  0  0  0
  5  6  1  0  0  0
  5 26  1  0  0  0
  5 97  1  0  0  0
  6 25  1  0  0  0
  6 98  1  0  0  0
  6 99  1  0  0  0
  7  8  2  0  0  0
  7 26  1  0  0  0
  7 29  1  0  0  0
  8  9  1  0  0  0
  8 22  1  0  0  0
  9 10  1  0  0  0
  9 27  2  0  0  0
 10 11  2  0  0  0
 10 15  1  0  0  0
 11 12  1  0  0  0
 11100  1  0  0  0
 12 13  2  0  0  0
 12101  1  0  0  0
 13 14  1  0  0  0
 13 31  1  0  0  0
 14 15  2  0  0  0
 14102  1  0  0  0
 15103  1  0  0  0
 16 17  2  0  0  0
 16 21  1  0  0  0
 16 31  1  0  0  0
 17 18  1  0  0  0
 17104  1  0  0  0
 18 19  2  0  0  0
 18105  1  0  0  0
 19 20  1  0  0  0
 19 24  1  0  0  0
 20 21  2  0  0  0
 20106  1  0  0  0
 21 23  1  0  0  0
 22 28  1  0  0  0
 22 32  2  0  0  0
 26 27  1  0  0  0
 28107  1  0  0  0
 28108  1  0  0  0
 29109  1  0  0  0
 29110  1  0  0  0
 33 34  1  0  0  0
 33 66  1  0  0  0
 33 70  2  0  0  0
 34 36  1  0  0  0
 34 59  1  0  0  0
 34111  1  0  0  0
 35 44  2  0  0  0
 35 45  1  0  0  0
 35 68  1  0  0  0
 36 56  1  0  0  0
 36112  1  0  0  0
 37 39  1  0  0  0
 37 47  1  0  0  0
 37 66  1  0  0  0
 37113  1  0  0  0
 38 43  2  0  0  0
 38 46  1  0  0  0
 38 47  1  0  0  0
 39 64  1  0  0  0
 39 67  2  0  0  0
 40 52  1  0  0  0
 40 53  2  0  0  0
 40 58  1  0  0  0
 41114  1  0  0  0
 41115  1  0  0  0
 41116  1  0  0  0
 41 48  1  0  0  0
 42 43  1  0  0  0
 42 66  1  0  0  0
 42117  1  0  0  0
 42118  1  0  0  0
 43 44  1  0  0  0
 44119  1  0  0  0
 45 46  2  0  0  0
 45120  1  0  0  0
 46121  1  0  0  0
 47122  1  0  0  0
 47123  1  0  0  0
 48 56  1  0  0  0
 48 65  1  0  0  0
 48124  1  0  0  0
 49 50  1  0  0  0
 49 53  1  0  0  0
 49 64  1  0  0  0
 49125  1  0  0  0
 50 51  1  0  0  0
 50126  1  0  0  0
 50127  1  0  0  0
 51 52  1  0  0  0
 51128  1  0  0  0
 51129  1  0  0  0
 52130  1  0  0  0
 52131  1  0  0  0
 53 54  1  0  0  0
 54 55  2  0  0  0
 54132  1  0  0  0
 55 57  1  0  0  0
 55133  1  0  0  0
 56 69  2  0  0  0
 57 58  2  0  0  0
 57134  1  0  0  0
 58135  1  0  0  0
 59 60  1  0  0  0
 59 61  1  0  0  0
 59 62  1  0  0  0
 60136  1  0  0  0
 60137  1  0  0  0
 60138  1  0  0  0
 61139  1  0  0  0
 61140  1  0  0  0
 61141  1  0  0  0
 62142  1  0  0  0
 62143  1  0  0  0
 62144  1  0  0  0
 63 65  1  0  0  0
 63145  1  0  0  0
 63146  1  0  0  0
 63147  1  0  0  0
 64148  1  0  0  0
 65149  1  0  0  0
 68 87  1  0  0  0
 71 72  2  0  0  0
 71 80  1  0  0  0
 71 88  1  0  0  0
 72 83  1  0  0  0
 72 89  1  0  0  0
 73 74  1  0  0  0
 73 84  1  0  0  0
 73 88  2  0  0  0
 74 85  1  0  0  0
 74 89  2  0  0  0
 75 76  1  0  0  0
 75 77  1  0  0  0
 75150  1  0  0  0
 75151  1  0  0  0
 76 78  1  0  0  0
 76152  1  0  0  0
 76153  1  0  0  0
 77 79  1  0  0  0
 77154  1  0  0  0
 77155  1  0  0  0
 78 79  1  0  0  0
 78 83  1  0  0  0
 78156  1  0  0  0
 79 90  1  0  0  0
 79157  1  0  0  0
 80158  1  0  0  0
 80159  1  0  0  0
 80160  1  0  0  0
 81 84  1  0  0  0
 81161  1  0  0  0
 81162  1  0  0  0
 81163  1  0  0  0
 82164  1  0  0  0
 82165  1  0  0  0
 82166  1  0  0  0
 82 87  1  0  0  0
 83167  1  0  0  0
 83168  1  0  0  0
 84169  1  0  0  0
 84170  1  0  0  0
 85 86  1  0  0  0
 85171  1  0  0  0
 85172  1  0  0  0
 86 87  1  0  0  0
 86173  1  0  0  0
 86174  1  0  0  0
 87175  1  0  0  0
 90176  1  0  0  0
M  ISO  4   1 100  68 101  87 101  90 100
M  END
> <chiral flag>
0

> <version>
0

> <s_m_source_file>
/data/baiqing/PycharmProjects/Reinvent-master-3.2/result/LINK_invent/BTK/process_docking_weight1_custom_sum_contain_oxygen_bond_distance_aromatic_linkinvent_7_9_3/rearranged_h_0080.sdf

> <i_m_source_file_index>
24

> <r_mmod_Potential_Energy-OPLS-2005>
-29.8302173614502

> <r_mmod_Stretch_Energy-OPLS-2005>
37.6492881774902

> <r_mmod_Bend_Energy-OPLS-2005>
119.69548034668

> <r_mmod_Torsional_Energy-OPLS-2005>
255.026962280273

> <r_mmod_Improper_Torsional_Energy-OPLS-2005>
2.26975107192993

> <r_mmod_Van_der_Waal_Energy-OPLS-2005>
147.050979614258

> <r_mmod_Electrostatic_Energy-OPLS-2005>
-388.637725830078

> <r_mmod_Solvation_Energy-OPLS-2005>
-210.784576416016

> <b_mmod_Minimization_Converged-OPLS-2005>
0

> <r_mmod_RMS_Derivative-OPLS-2005>
0.875734627246857

$$$$
26
                    3D
 Structure written by MMmdl.
159167  0  0  1  0            999 V2000
  -30.6933  -14.4523   20.5788 C   0  0  0  0  0  0
  -30.4233  -12.2975   19.4154 C   0  0  0  0  0  0
  -29.4925  -12.5130   18.2035 C   0  0  0  0  0  0
  -28.0127  -12.3745   18.6147 C   0  0  0  0  0  0
  -27.6632  -13.2033   19.8795 C   0  0  2  0  0  0
  -28.7037  -12.9633   20.9976 C   0  0  0  0  0  0
  -25.2591  -13.8159   20.5677 C   0  0  0  0  0  0
  -24.1840  -13.0441   20.9181 C   0  0  0  0  0  0
  -24.6387  -11.6906   20.8737 C   0  0  0  0  0  0
  -23.9051  -10.4297   21.0403 C   0  0  0  0  0  0
  -24.3609   -9.4214   21.9177 C   0  0  0  0  0  0
  -23.6291   -8.2245   22.0745 C   0  0  0  0  0  0
  -22.4272   -8.0282   21.3541 C   0  0  0  0  0  0
  -21.9903   -9.0254   20.4642 C   0  0  0  0  0  0
  -22.7224  -10.2137   20.3051 C   0  0  0  0  0  0
  -21.6851   -6.0741   22.5281 C   0  0  0  0  0  0
  -21.4014   -6.5642   23.8216 C   0  0  0  0  0  0
  -21.3659   -5.6792   24.9177 C   0  0  0  0  0  0
  -21.6042   -4.3055   24.7224 C   0  0  0  0  0  0
  -21.8820   -3.8150   23.4344 C   0  0  0  0  0  0
  -21.9193   -4.6970   22.3404 C   0  0  0  0  0  0
  -22.7866  -13.5243   21.1853 C   0  0  0  0  0  0
  -22.1662   -4.2155   21.0982 F   0  0  0  0  0  0
  -21.5629   -3.4539   25.7736 F   0  0  0  0  0  0
  -30.0376  -13.2685   20.4506 N   0  0  0  0  0  0
  -26.3025  -12.9319   20.3380 N   0  0  0  0  0  0
  -25.9310  -11.6482   20.5764 N   0  0  0  0  0  0
  -22.0503  -12.8238   22.0412 N   0  0  0  0  0  0
  -25.4332  -15.1872   20.4064 N   0  0  0  0  0  0
  -31.8104  -14.6622   20.0971 O   0  0  0  0  0  0
  -21.6638   -6.8878   21.4237 O   0  0  0  0  0  0
  -22.3555  -14.5553   20.6706 O   0  0  0  0  0  0
  -24.6142  -31.8683   23.2094 C   0  0  0  0  0  0
  -25.9039  -32.4823   23.8387 C   0  0  1  0  0  0
  -27.2361  -27.4371   20.0931 C   0  0  0  0  0  0
  -25.5894  -33.8619   24.2317 N   0  0  0  0  0  0
  -23.4008  -30.4918   21.5504 C   0  0  2  0  0  0
  -24.8456  -28.9570   20.1136 C   0  0  0  0  0  0
  -22.7404  -29.4662   22.4997 C   0  0  0  0  0  0
  -18.0269  -28.1379   22.8495 C   0  0  0  0  0  0
  -24.1486  -36.7317   23.2639 C   0  0  0  0  0  0
  -25.9286  -30.8344   21.3613 C   0  0  0  0  0  0
  -26.0045  -29.4688   20.7092 C   0  0  0  0  0  0
  -27.2000  -28.7161   20.6947 C   0  0  0  0  0  0
  -26.0573  -26.9400   19.4887 C   0  0  0  0  0  0
  -24.8668  -27.6919   19.5012 C   0  0  0  0  0  0
  -23.6077  -29.8238   20.1644 C   0  0  0  0  0  0
  -25.4104  -36.3113   24.0339 C   0  0  1  0  0  0
  -20.5859  -28.3663   23.1325 C   0  0  2  0  0  0
  -20.6759  -26.9401   22.5419 C   0  0  0  0  0  0
  -19.5738  -26.6389   21.5213 C   0  0  0  0  0  0
  -18.1917  -26.7925   22.1626 C   0  0  0  0  0  0
  -19.1521  -28.8837   23.2905 C   0  0  0  0  0  0
  -18.9451  -30.1445   23.8914 C   0  0  0  0  0  0
  -17.6455  -30.6585   24.0572 C   0  0  0  0  0  0
  -25.9034  -34.9478   23.5129 C   0  0  0  0  0  0
  -16.5343  -29.9093   23.6326 C   0  0  0  0  0  0
  -16.7261  -28.6510   23.0344 C   0  0  0  0  0  0
  -26.4461  -31.6604   25.0718 C   0  0  0  0  0  0
  -25.3732  -31.3717   26.1475 C   0  0  0  0  0  0
  -27.0286  -30.3049   24.6086 C   0  0  0  0  0  0
  -27.6040  -32.4321   25.7475 C   0  0  0  0  0  0
  -27.5580  -37.1811   24.8465 C   0  0  0  0  0  0
  -21.4135  -29.3034   22.3735 N   0  0  0  0  0  0
  -26.4292  -37.3795   23.9409 N   0  0  0  0  0  0
  -24.6661  -31.0791   22.0991 N   0  0  0  0  0  0
  -23.4183  -28.8207   23.3036 O   0  0  0  0  0  0
  -28.4224  -26.7302   20.1199 O   0  0  0  0  0  0
  -26.5600  -34.8933   22.4691 O   0  0  0  0  0  0
  -23.5339  -32.1428   23.7497 O   0  0  0  0  0  0
  -29.4849  -20.7970   20.5302 C   0  0  0  0  0  0
  -28.2512  -22.2742   21.5345 C   0  0  0  0  0  0
  -28.5819  -20.1459   21.3466 C   0  0  0  0  0  0
  -28.4780  -18.2798   23.0501 C   0  0  0  0  0  0
  -29.6977  -24.6845   20.3648 C   0  0  0  0  0  0
  -29.0049  -17.6928   20.5702 C   0  0  0  0  0  0
  -29.9660  -23.2216   19.9239 C   0  0  0  0  0  0
  -30.2497  -16.8866   21.0459 C   0  0  0  0  0  0
  -28.4031  -25.3283   19.8240 C   0  0  0  0  0  0
  -28.3080  -18.6683   21.5703 C   0  0  2  0  0  0
  -27.7934  -21.1079   21.9800 N   0  0  0  0  0  0
  -29.2531  -22.1694   20.6491 N   0  0  0  0  0  0
  -29.9673  -15.4434   21.1239 N   0  0  0  0  0  0
  -31.4675  -12.4010   19.1148 H   0  0  0  0  0  0
  -30.3246  -11.2810   19.7998 H   0  0  0  0  0  0
  -29.7289  -11.7990   17.4133 H   0  0  0  0  0  0
  -29.6639  -13.5045   17.7804 H   0  0  0  0  0  0
  -27.8157  -11.3173   18.7977 H   0  0  0  0  0  0
  -27.3646  -12.6641   17.7863 H   0  0  0  0  0  0
  -27.7137  -14.2543   19.5939 H   0  0  0  0  0  0
  -28.6749  -11.9224   21.3232 H   0  0  0  0  0  0
  -28.4666  -13.5497   21.8864 H   0  0  0  0  0  0
  -25.2754   -9.5696   22.4752 H   0  0  0  0  0  0
  -24.0009   -7.4633   22.7456 H   0  0  0  0  0  0
  -21.0838   -8.8769   19.8946 H   0  0  0  0  0  0
  -22.3678  -10.9678   19.6167 H   0  0  0  0  0  0
  -21.2004   -7.6149   23.9722 H   0  0  0  0  0  0
  -21.1480   -6.0522   25.9080 H   0  0  0  0  0  0
  -22.0599   -2.7613   23.2841 H   0  0  0  0  0  0
  -22.4114  -11.9896   22.4801 H   0  0  0  0  0  0
  -21.1122  -13.1268   22.2616 H   0  0  0  0  0  0
  -24.6664  -15.8433   20.5042 H   0  0  0  0  0  0
  -26.2849  -15.6197   20.0726 H   0  0  0  0  0  0
  -26.7109  -32.5528   23.1150 H   0  0  0  0  0  0
  -25.0052  -33.9775   25.0468 H   0  0  0  0  0  0
  -22.6897  -31.3085   21.4122 H   0  0  0  0  0  0
  -23.3744  -35.9658   23.3315 H   0  0  0  0  0  0
  -24.3585  -36.8914   22.2053 H   0  0  0  0  0  0
  -23.7245  -37.6529   23.6640 H   0  0  0  0  0  0
  -26.0408  -31.5999   20.5924 H   0  0  0  0  0  0
  -26.8172  -30.8870   21.9784 H   0  0  0  0  0  0
  -28.0959  -29.1098   21.1538 H   0  0  0  0  0  0
  -26.0383  -25.9775   18.9979 H   0  0  0  0  0  0
  -23.9766  -27.2933   19.0337 H   0  0  0  0  0  0
  -23.7146  -30.5987   19.4043 H   0  0  0  0  0  0
  -22.7314  -29.2435   19.8697 H   0  0  0  0  0  0
  -25.1280  -36.1979   25.0833 H   0  0  0  0  0  0
  -20.9948  -28.3224   24.1448 H   0  0  0  0  0  0
  -20.5662  -26.2270   23.3603 H   0  0  0  0  0  0
  -21.6631  -26.7445   22.1212 H   0  0  0  0  0  0
  -19.6900  -25.6306   21.1230 H   0  0  0  0  0  0
  -19.6678  -27.3214   20.6757 H   0  0  0  0  0  0
  -17.4185  -26.6678   21.4028 H   0  0  0  0  0  0
  -18.0317  -26.0061   22.9018 H   0  0  0  0  0  0
  -19.7929  -30.7254   24.2286 H   0  0  0  0  0  0
  -17.5015  -31.6266   24.5175 H   0  0  0  0  0  0
  -15.5348  -30.3006   23.7637 H   0  0  0  0  0  0
  -15.8659  -28.0841   22.7045 H   0  0  0  0  0  0
  -24.5901  -30.7062   25.7822 H   0  0  0  0  0  0
  -24.8928  -32.2880   26.4919 H   0  0  0  0  0  0
  -25.8095  -30.8894   27.0232 H   0  0  0  0  0  0
  -26.2827  -29.6822   24.1133 H   0  0  0  0  0  0
  -27.4056  -29.7270   25.4533 H   0  0  0  0  0  0
  -27.8660  -30.4367   23.9230 H   0  0  0  0  0  0
  -27.2654  -33.3604   26.2085 H   0  0  0  0  0  0
  -28.3827  -32.6909   25.0290 H   0  0  0  0  0  0
  -28.0732  -31.8429   26.5362 H   0  0  0  0  0  0
  -28.2607  -38.0100   24.7508 H   0  0  0  0  0  0
  -28.1066  -36.2633   24.6291 H   0  0  0  0  0  0
  -27.2301  -37.1463   25.8871 H   0  0  0  0  0  0
  -20.9291  -29.8765   21.6969 H   0  0  0  0  0  0
  -26.0186  -38.2877   24.1407 H   0  0  0  0  0  0
  -30.2462  -20.4043   19.8688 H   0  0  0  0  0  0
  -27.8376  -23.2175   21.8607 H   0  0  0  0  0  0
  -27.7813  -18.8370   23.6770 H   0  0  0  0  0  0
  -29.4801  -18.5027   23.4159 H   0  0  0  0  0  0
  -28.2783  -17.2198   23.2093 H   0  0  0  0  0  0
  -30.5322  -25.2864   20.0037 H   0  0  0  0  0  0
  -29.7341  -24.7668   21.4514 H   0  0  0  0  0  0
  -28.2483  -16.9780   20.2441 H   0  0  0  0  0  0
  -29.2467  -18.2234   19.6491 H   0  0  0  0  0  0
  -31.0313  -23.0196   20.0437 H   0  0  0  0  0  0
  -29.7562  -23.1074   18.8595 H   0  0  0  0  0  0
  -31.0599  -17.0692   20.3379 H   0  0  0  0  0  0
  -30.6363  -17.2303   22.0029 H   0  0  0  0  0  0
  -27.5381  -24.8398   20.2735 H   0  0  0  0  0  0
  -28.3377  -25.1944   18.7431 H   0  0  0  0  0  0
  -27.2434  -18.5379   21.3665 H   0  0  0  0  0  0
  -29.0733  -15.1719   21.5054 H   0  0  0  0  0  0
  1 25  1  0  0  0
  1 30  2  0  0  0
  1 83  1  0  0  0
  2  3  1  0  0  0
  2 25  1  0  0  0
  2 84  1  0  0  0
  2 85  1  0  0  0
  3  4  1  0  0  0
  3 86  1  0  0  0
  3 87  1  0  0  0
  4  5  1  0  0  0
  4 88  1  0  0  0
  4 89  1  0  0  0
  5  6  1  0  0  0
  5 26  1  0  0  0
  5 90  1  0  0  0
  6 25  1  0  0  0
  6 91  1  0  0  0
  6 92  1  0  0  0
  7  8  2  0  0  0
  7 26  1  0  0  0
  7 29  1  0  0  0
  8  9  1  0  0  0
  8 22  1  0  0  0
  9 10  1  0  0  0
  9 27  2  0  0  0
 10 11  2  0  0  0
 10 15  1  0  0  0
 11 12  1  0  0  0
 11 93  1  0  0  0
 12 13  2  0  0  0
 12 94  1  0  0  0
 13 14  1  0  0  0
 13 31  1  0  0  0
 14 15  2  0  0  0
 14 95  1  0  0  0
 15 96  1  0  0  0
 16 17  2  0  0  0
 16 21  1  0  0  0
 16 31  1  0  0  0
 17 18  1  0  0  0
 17 97  1  0  0  0
 18 19  2  0  0  0
 18 98  1  0  0  0
 19 20  1  0  0  0
 19 24  1  0  0  0
 20 21  2  0  0  0
 20 99  1  0  0  0
 21 23  1  0  0  0
 22 28  1  0  0  0
 22 32  2  0  0  0
 26 27  1  0  0  0
 28100  1  0  0  0
 28101  1  0  0  0
 29102  1  0  0  0
 29103  1  0  0  0
 33 34  1  0  0  0
 33 66  1  0  0  0
 33 70  2  0  0  0
 34 36  1  0  0  0
 34 59  1  0  0  0
 34104  1  0  0  0
 35 44  2  0  0  0
 35 45  1  0  0  0
 35 68  1  0  0  0
 36 56  1  0  0  0
 36105  1  0  0  0
 37 39  1  0  0  0
 37 47  1  0  0  0
 37 66  1  0  0  0
 37106  1  0  0  0
 38 43  2  0  0  0
 38 46  1  0  0  0
 38 47  1  0  0  0
 39 64  1  0  0  0
 39 67  2  0  0  0
 40 52  1  0  0  0
 40 53  2  0  0  0
 40 58  1  0  0  0
 41107  1  0  0  0
 41108  1  0  0  0
 41109  1  0  0  0
 41 48  1  0  0  0
 42 43  1  0  0  0
 42 66  1  0  0  0
 42110  1  0  0  0
 42111  1  0  0  0
 43 44  1  0  0  0
 44112  1  0  0  0
 45 46  2  0  0  0
 45113  1  0  0  0
 46114  1  0  0  0
 47115  1  0  0  0
 47116  1  0  0  0
 48 56  1  0  0  0
 48 65  1  0  0  0
 48117  1  0  0  0
 49 50  1  0  0  0
 49 53  1  0  0  0
 49 64  1  0  0  0
 49118  1  0  0  0
 50 51  1  0  0  0
 50119  1  0  0  0
 50120  1  0  0  0
 51 52  1  0  0  0
 51121  1  0  0  0
 51122  1  0  0  0
 52123  1  0  0  0
 52124  1  0  0  0
 53 54  1  0  0  0
 54 55  2  0  0  0
 54125  1  0  0  0
 55 57  1  0  0  0
 55126  1  0  0  0
 56 69  2  0  0  0
 57 58  2  0  0  0
 57127  1  0  0  0
 58128  1  0  0  0
 59 60  1  0  0  0
 59 61  1  0  0  0
 59 62  1  0  0  0
 60129  1  0  0  0
 60130  1  0  0  0
 60131  1  0  0  0
 61132  1  0  0  0
 61133  1  0  0  0
 61134  1  0  0  0
 62135  1  0  0  0
 62136  1  0  0  0
 62137  1  0  0  0
 63 65  1  0  0  0
 63138  1  0  0  0
 63139  1  0  0  0
 63140  1  0  0  0
 64141  1  0  0  0
 65142  1  0  0  0
 68 79  1  0  0  0
 71 73  2  0  0  0
 71 82  1  0  0  0
 71143  1  0  0  0
 72 81  2  0  0  0
 72 82  1  0  0  0
 72144  1  0  0  0
 73 80  1  0  0  0
 73 81  1  0  0  0
 74145  1  0  0  0
 74146  1  0  0  0
 74147  1  0  0  0
 74 80  1  0  0  0
 75 77  1  0  0  0
 75 79  1  0  0  0
 75148  1  0  0  0
 75149  1  0  0  0
 76 78  1  0  0  0
 76 80  1  0  0  0
 76150  1  0  0  0
 76151  1  0  0  0
 77 82  1  0  0  0
 77152  1  0  0  0
 77153  1  0  0  0
 78 83  1  0  0  0
 78154  1  0  0  0
 78155  1  0  0  0
 79156  1  0  0  0
 79157  1  0  0  0
 80158  1  0  0  0
 83159  1  0  0  0
M  ISO  4   1 100  68 101  79 101  83 100
M  END
> <chiral flag>
0

> <version>
0

> <s_m_source_file>
/data/baiqing/PycharmProjects/Reinvent-master-3.2/result/LINK_invent/BTK/process_docking_weight1_custom_sum_contain_oxygen_bond_distance_aromatic_linkinvent_7_9_3/rearranged_h_0080.sdf

> <i_m_source_file_index>
25

> <r_mmod_Potential_Energy-OPLS-2005>
-84.5126495361328

> <r_mmod_Stretch_Energy-OPLS-2005>
36.352596282959

> <r_mmod_Bend_Energy-OPLS-2005>
115.250465393066

> <r_mmod_Torsional_Energy-OPLS-2005>
231.713760375977

> <r_mmod_Improper_Torsional_Energy-OPLS-2005>
4.098717212677

> <r_mmod_Van_der_Waal_Energy-OPLS-2005>
133.391967773438

> <r_mmod_Electrostatic_Energy-OPLS-2005>
-392.362823486328

> <r_mmod_Solvation_Energy-OPLS-2005>
-224.305587768555

> <b_mmod_Minimization_Converged-OPLS-2005>
0

> <r_mmod_RMS_Derivative-OPLS-2005>
0.938940703868866

$$$$
27
                    3D
 Structure written by MMmdl.
165173  0  0  1  0            999 V2000
  -30.6290  -14.7038   20.4954 C   0  0  0  0  0  0
  -30.4263  -12.4289   19.4900 C   0  0  0  0  0  0
  -29.5191  -12.5241   18.2451 C   0  0  0  0  0  0
  -28.0427  -12.3502   18.6490 C   0  0  0  0  0  0
  -27.6492  -13.2332   19.8641 C   0  0  2  0  0  0
  -28.6853  -13.1402   21.0062 C   0  0  0  0  0  0
  -25.2525  -13.8207   20.5687 C   0  0  0  0  0  0
  -24.1812  -13.0448   20.9184 C   0  0  0  0  0  0
  -24.6410  -11.6931   20.8735 C   0  0  0  0  0  0
  -23.9087  -10.4302   21.0390 C   0  0  0  0  0  0
  -24.3648   -9.4222   21.9159 C   0  0  0  0  0  0
  -23.6310   -8.2265   22.0749 C   0  0  0  0  0  0
  -22.4292   -8.0297   21.3551 C   0  0  0  0  0  0
  -21.9927   -9.0270   20.4653 C   0  0  0  0  0  0
  -22.7263  -10.2139   20.3041 C   0  0  0  0  0  0
  -21.6866   -6.0750   22.5289 C   0  0  0  0  0  0
  -21.4028   -6.5645   23.8219 C   0  0  0  0  0  0
  -21.3665   -5.6791   24.9185 C   0  0  0  0  0  0
  -21.6044   -4.3049   24.7217 C   0  0  0  0  0  0
  -21.8817   -3.8151   23.4343 C   0  0  0  0  0  0
  -21.9204   -4.6975   22.3397 C   0  0  0  0  0  0
  -22.7827  -13.5235   21.1830 C   0  0  0  0  0  0
  -22.1668   -4.2167   21.0980 F   0  0  0  0  0  0
  -21.5623   -3.4528   25.7728 F   0  0  0  0  0  0
  -29.9953  -13.4827   20.4406 N   0  0  0  0  0  0
  -26.2965  -12.9418   20.3292 N   0  0  0  0  0  0
  -25.9350  -11.6556   20.5755 N   0  0  0  0  0  0
  -22.0467  -12.8237   22.0389 N   0  0  0  0  0  0
  -25.4168  -15.1936   20.4142 N   0  0  0  0  0  0
  -31.7852  -14.7996   20.0775 O   0  0  0  0  0  0
  -21.6656   -6.8893   21.4242 O   0  0  0  0  0  0
  -22.3515  -14.5526   20.6662 O   0  0  0  0  0  0
  -24.6283  -31.8585   23.1924 C   0  0  0  0  0  0
  -25.9107  -32.4771   23.8306 C   0  0  1  0  0  0
  -27.2241  -27.2983   20.1509 C   0  0  0  0  0  0
  -25.5902  -33.8565   24.2237 N   0  0  0  0  0  0
  -23.4231  -30.4798   21.5372 C   0  0  2  0  0  0
  -24.8706  -28.9236   20.1124 C   0  0  0  0  0  0
  -22.7496  -29.4625   22.4900 C   0  0  0  0  0  0
  -18.0289  -28.1411   22.8505 C   0  0  0  0  0  0
  -24.1495  -36.7291   23.2650 C   0  0  0  0  0  0
  -25.9657  -30.7894   21.3620 C   0  0  0  0  0  0
  -26.0399  -29.4110   20.7138 C   0  0  0  0  0  0
  -27.2234  -28.6132   20.7149 C   0  0  0  0  0  0
  -26.0375  -26.8579   19.5312 C   0  0  0  0  0  0
  -24.8724  -27.6529   19.5120 C   0  0  0  0  0  0
  -23.6362  -29.8042   20.1571 C   0  0  0  0  0  0
  -25.4116  -36.3077   24.0336 C   0  0  1  0  0  0
  -20.5905  -28.3711   23.1290 C   0  0  2  0  0  0
  -20.6785  -26.9432   22.5422 C   0  0  0  0  0  0
  -19.5738  -26.6395   21.5247 C   0  0  0  0  0  0
  -18.1919  -26.7952   22.1655 C   0  0  0  0  0  0
  -19.1550  -28.8872   23.2901 C   0  0  0  0  0  0
  -18.9465  -30.1486   23.8903 C   0  0  0  0  0  0
  -17.6455  -30.6603   24.0584 C   0  0  0  0  0  0
  -25.9055  -34.9452   23.5086 C   0  0  0  0  0  0
  -16.5347  -29.9109   23.6338 C   0  0  0  0  0  0
  -16.7274  -28.6540   23.0336 C   0  0  0  0  0  0
  -26.4447  -31.6599   25.0700 C   0  0  0  0  0  0
  -25.3647  -31.3753   26.1417 C   0  0  0  0  0  0
  -27.0287  -30.3024   24.6158 C   0  0  0  0  0  0
  -27.6020  -32.4343   25.7452 C   0  0  0  0  0  0
  -27.5578  -37.1784   24.8453 C   0  0  0  0  0  0
  -21.4200  -29.3047   22.3658 N   0  0  0  0  0  0
  -26.4277  -37.3784   23.9414 N   0  0  0  0  0  0
  -24.6921  -31.0619   22.0857 N   0  0  0  0  0  0
  -23.4223  -28.8194   23.3001 O   0  0  0  0  0  0
  -28.3379  -26.4459   20.1525 O   0  0  0  0  0  0
  -26.5659  -34.8936   22.4676 O   0  0  0  0  0  0
  -23.5436  -32.1348   23.7242 O   0  0  0  0  0  0
  -27.8911  -21.1131   18.5635 C   0  0  0  0  0  0
  -28.4644  -21.0044   19.8036 C   0  0  0  0  0  0
  -28.6806  -19.5334   19.9158 C   0  0  0  0  0  0
  -26.5796  -18.1036   16.6537 C   0  0  0  0  0  0
  -28.0850  -19.8686   15.5977 C   0  0  0  0  0  0
  -31.5852  -17.7178   21.0949 C   0  0  0  0  0  0
  -28.6661  -22.3080   20.6803 C   0  0  0  0  0  0
  -29.1515  -18.4774   20.9831 C   0  0  0  0  0  0
  -28.4253  -23.7457   19.9530 C   0  0  0  0  0  0
  -28.2367  -25.1023   20.7938 C   0  0  0  0  0  0
  -27.1080  -19.5483   16.7363 C   0  0  0  0  0  0
  -30.2017  -17.3166   20.5359 C   0  0  1  0  0  0
  -28.2087  -18.9222   18.8322 N   0  0  0  0  0  0
  -27.7118  -19.8698   18.0229 N   0  0  0  0  0  0
  -29.8946  -15.8351   20.8295 N   0  0  0  0  0  0
  -31.4755  -12.5227   19.2044 H   0  0  0  0  0  0
  -30.3351  -11.4443   19.9500 H   0  0  0  0  0  0
  -29.8037  -11.7682   17.5120 H   0  0  0  0  0  0
  -29.6574  -13.4904   17.7575 H   0  0  0  0  0  0
  -27.8981  -11.2984   18.8977 H   0  0  0  0  0  0
  -27.3900  -12.5555   17.8016 H   0  0  0  0  0  0
  -27.6565  -14.2630   19.5069 H   0  0  0  0  0  0
  -28.7035  -12.1358   21.4325 H   0  0  0  0  0  0
  -28.4195  -13.8106   21.8243 H   0  0  0  0  0  0
  -25.2791   -9.5709   22.4739 H   0  0  0  0  0  0
  -24.0034   -7.4661   22.7469 H   0  0  0  0  0  0
  -21.0860   -8.8797   19.8958 H   0  0  0  0  0  0
  -22.3715  -10.9690   19.6165 H   0  0  0  0  0  0
  -21.2022   -7.6155   23.9739 H   0  0  0  0  0  0
  -21.1487   -6.0510   25.9089 H   0  0  0  0  0  0
  -22.0587   -2.7611   23.2832 H   0  0  0  0  0  0
  -22.4103  -11.9959   22.4859 H   0  0  0  0  0  0
  -21.1080  -13.1258   22.2553 H   0  0  0  0  0  0
  -24.6328  -15.8308   20.5113 H   0  0  0  0  0  0
  -26.2537  -15.6443   20.0643 H   0  0  0  0  0  0
  -26.7224  -32.5444   23.1114 H   0  0  0  0  0  0
  -24.9974  -33.9710   25.0332 H   0  0  0  0  0  0
  -22.7177  -31.3023   21.3895 H   0  0  0  0  0  0
  -23.3758  -35.9621   23.3283 H   0  0  0  0  0  0
  -24.3602  -36.8910   22.2064 H   0  0  0  0  0  0
  -23.7234  -37.6486   23.6683 H   0  0  0  0  0  0
  -26.1011  -31.5459   20.5878 H   0  0  0  0  0  0
  -26.8498  -30.8434   21.9880 H   0  0  0  0  0  0
  -28.1262  -28.9920   21.1757 H   0  0  0  0  0  0
  -26.0135  -25.8792   19.0724 H   0  0  0  0  0  0
  -23.9739  -27.2663   19.0521 H   0  0  0  0  0  0
  -23.7525  -30.5782   19.3967 H   0  0  0  0  0  0
  -22.7542  -29.2303   19.8622 H   0  0  0  0  0  0
  -25.1298  -36.1910   25.0825 H   0  0  0  0  0  0
  -21.0027  -28.3305   24.1398 H   0  0  0  0  0  0
  -20.5729  -26.2317   23.3630 H   0  0  0  0  0  0
  -21.6645  -26.7478   22.1183 H   0  0  0  0  0  0
  -19.6906  -25.6310   21.1264 H   0  0  0  0  0  0
  -19.6668  -27.3234   20.6801 H   0  0  0  0  0  0
  -17.4193  -26.6716   21.4048 H   0  0  0  0  0  0
  -18.0303  -26.0113   22.9062 H   0  0  0  0  0  0
  -19.7925  -30.7330   24.2256 H   0  0  0  0  0  0
  -17.4989  -31.6278   24.5193 H   0  0  0  0  0  0
  -15.5340  -30.3000   23.7660 H   0  0  0  0  0  0
  -15.8679  -28.0877   22.7003 H   0  0  0  0  0  0
  -24.5838  -30.7093   25.7734 H   0  0  0  0  0  0
  -24.8815  -32.2912   26.4825 H   0  0  0  0  0  0
  -25.7930  -30.8932   27.0212 H   0  0  0  0  0  0
  -26.2860  -29.6793   24.1161 H   0  0  0  0  0  0
  -27.3963  -29.7268   25.4662 H   0  0  0  0  0  0
  -27.8741  -30.4323   23.9400 H   0  0  0  0  0  0
  -27.2672  -33.3679   26.2004 H   0  0  0  0  0  0
  -28.3836  -32.6839   25.0260 H   0  0  0  0  0  0
  -28.0717  -31.8478   26.5360 H   0  0  0  0  0  0
  -28.2578  -38.0106   24.7560 H   0  0  0  0  0  0
  -28.1091  -36.2626   24.6210 H   0  0  0  0  0  0
  -27.2311  -37.1374   25.8864 H   0  0  0  0  0  0
  -20.9371  -29.8720   21.6831 H   0  0  0  0  0  0
  -26.0141  -38.2852   24.1414 H   0  0  0  0  0  0
  -27.5511  -21.9782   18.0114 H   0  0  0  0  0  0
  -25.9722  -17.9657   15.7585 H   0  0  0  0  0  0
  -25.9540  -17.8589   17.5146 H   0  0  0  0  0  0
  -27.3956  -17.3800   16.6179 H   0  0  0  0  0  0
  -27.6109  -19.7335   14.6272 H   0  0  0  0  0  0
  -28.9659  -19.2273   15.6384 H   0  0  0  0  0  0
  -28.4262  -20.9020   15.6552 H   0  0  0  0  0  0
  -31.6471  -17.5519   22.1715 H   0  0  0  0  0  0
  -31.7848  -18.7763   20.9161 H   0  0  0  0  0  0
  -32.3997  -17.1736   20.6193 H   0  0  0  0  0  0
  -29.6696  -22.3102   21.1066 H   0  0  0  0  0  0
  -28.0013  -22.2627   21.5450 H   0  0  0  0  0  0
  -28.2598  -17.9934   21.3798 H   0  0  0  0  0  0
  -29.5525  -19.0127   21.8461 H   0  0  0  0  0  0
  -27.5231  -23.6735   19.3508 H   0  0  0  0  0  0
  -29.2358  -23.8993   19.2390 H   0  0  0  0  0  0
  -29.0137  -25.0965   21.5571 H   0  0  0  0  0  0
  -27.3005  -25.0428   21.3532 H   0  0  0  0  0  0
  -26.2460  -20.2092   16.6306 H   0  0  0  0  0  0
  -30.2743  -17.3642   19.4489 H   0  0  0  0  0  0
  -28.9590  -15.6461   21.1604 H   0  0  0  0  0  0
  1 25  1  0  0  0
  1 30  2  0  0  0
  1 85  1  0  0  0
  2  3  1  0  0  0
  2 25  1  0  0  0
  2 86  1  0  0  0
  2 87  1  0  0  0
  3  4  1  0  0  0
  3 88  1  0  0  0
  3 89  1  0  0  0
  4  5  1  0  0  0
  4 90  1  0  0  0
  4 91  1  0  0  0
  5  6  1  0  0  0
  5 26  1  0  0  0
  5 92  1  0  0  0
  6 25  1  0  0  0
  6 93  1  0  0  0
  6 94  1  0  0  0
  7  8  2  0  0  0
  7 26  1  0  0  0
  7 29  1  0  0  0
  8  9  1  0  0  0
  8 22  1  0  0  0
  9 10  1  0  0  0
  9 27  2  0  0  0
 10 11  2  0  0  0
 10 15  1  0  0  0
 11 12  1  0  0  0
 11 95  1  0  0  0
 12 13  2  0  0  0
 12 96  1  0  0  0
 13 14  1  0  0  0
 13 31  1  0  0  0
 14 15  2  0  0  0
 14 97  1  0  0  0
 15 98  1  0  0  0
 16 17  2  0  0  0
 16 21  1  0  0  0
 16 31  1  0  0  0
 17 18  1  0  0  0
 17 99  1  0  0  0
 18 19  2  0  0  0
 18100  1  0  0  0
 19 20  1  0  0  0
 19 24  1  0  0  0
 20 21  2  0  0  0
 20101  1  0  0  0
 21 23  1  0  0  0
 22 28  1  0  0  0
 22 32  2  0  0  0
 26 27  1  0  0  0
 28102  1  0  0  0
 28103  1  0  0  0
 29104  1  0  0  0
 29105  1  0  0  0
 33 34  1  0  0  0
 33 66  1  0  0  0
 33 70  2  0  0  0
 34 36  1  0  0  0
 34 59  1  0  0  0
 34106  1  0  0  0
 35 44  2  0  0  0
 35 45  1  0  0  0
 35 68  1  0  0  0
 36 56  1  0  0  0
 36107  1  0  0  0
 37 39  1  0  0  0
 37 47  1  0  0  0
 37 66  1  0  0  0
 37108  1  0  0  0
 38 43  2  0  0  0
 38 46  1  0  0  0
 38 47  1  0  0  0
 39 64  1  0  0  0
 39 67  2  0  0  0
 40 52  1  0  0  0
 40 53  2  0  0  0
 40 58  1  0  0  0
 41109  1  0  0  0
 41110  1  0  0  0
 41111  1  0  0  0
 41 48  1  0  0  0
 42 43  1  0  0  0
 42 66  1  0  0  0
 42112  1  0  0  0
 42113  1  0  0  0
 43 44  1  0  0  0
 44114  1  0  0  0
 45 46  2  0  0  0
 45115  1  0  0  0
 46116  1  0  0  0
 47117  1  0  0  0
 47118  1  0  0  0
 48 56  1  0  0  0
 48 65  1  0  0  0
 48119  1  0  0  0
 49 50  1  0  0  0
 49 53  1  0  0  0
 49 64  1  0  0  0
 49120  1  0  0  0
 50 51  1  0  0  0
 50121  1  0  0  0
 50122  1  0  0  0
 51 52  1  0  0  0
 51123  1  0  0  0
 51124  1  0  0  0
 52125  1  0  0  0
 52126  1  0  0  0
 53 54  1  0  0  0
 54 55  2  0  0  0
 54127  1  0  0  0
 55 57  1  0  0  0
 55128  1  0  0  0
 56 69  2  0  0  0
 57 58  2  0  0  0
 57129  1  0  0  0
 58130  1  0  0  0
 59 60  1  0  0  0
 59 61  1  0  0  0
 59 62  1  0  0  0
 60131  1  0  0  0
 60132  1  0  0  0
 60133  1  0  0  0
 61134  1  0  0  0
 61135  1  0  0  0
 61136  1  0  0  0
 62137  1  0  0  0
 62138  1  0  0  0
 62139  1  0  0  0
 63 65  1  0  0  0
 63140  1  0  0  0
 63141  1  0  0  0
 63142  1  0  0  0
 64143  1  0  0  0
 65144  1  0  0  0
 68 80  1  0  0  0
 71 72  2  0  0  0
 71 84  1  0  0  0
 71145  1  0  0  0
 72 73  1  0  0  0
 72 77  1  0  0  0
 73 78  1  0  0  0
 73 83  2  0  0  0
 74146  1  0  0  0
 74147  1  0  0  0
 74148  1  0  0  0
 74 81  1  0  0  0
 75 81  1  0  0  0
 75149  1  0  0  0
 75150  1  0  0  0
 75151  1  0  0  0
 76152  1  0  0  0
 76153  1  0  0  0
 76154  1  0  0  0
 76 82  1  0  0  0
 77 79  1  0  0  0
 77155  1  0  0  0
 77156  1  0  0  0
 78 82  1  0  0  0
 78157  1  0  0  0
 78158  1  0  0  0
 79 80  1  0  0  0
 79159  1  0  0  0
 79160  1  0  0  0
 80161  1  0  0  0
 80162  1  0  0  0
 81 84  1  0  0  0
 81163  1  0  0  0
 82 85  1  0  0  0
 82164  1  0  0  0
 83 84  1  0  0  0
 85165  1  0  0  0
M  ISO  4   1 100  68 101  80 101  85 100
M  END
> <chiral flag>
0

> <version>
0

> <s_m_source_file>
/data/baiqing/PycharmProjects/Reinvent-master-3.2/result/LINK_invent/BTK/process_docking_weight1_custom_sum_contain_oxygen_bond_distance_aromatic_linkinvent_7_9_3/rearranged_h_0080.sdf

> <i_m_source_file_index>
26

> <r_mmod_Potential_Energy-OPLS-2005>
163.616119384766

> <r_mmod_Stretch_Energy-OPLS-2005>
121.86979675293

> <r_mmod_Bend_Energy-OPLS-2005>
181.189804077148

> <r_mmod_Torsional_Energy-OPLS-2005>
248.499862670898

> <r_mmod_Improper_Torsional_Energy-OPLS-2005>
5.36542224884033

> <r_mmod_Van_der_Waal_Energy-OPLS-2005>
116.170967102051

> <r_mmod_Electrostatic_Energy-OPLS-2005>
-364.729248046875

> <r_mmod_Solvation_Energy-OPLS-2005>
-208.081237792969

> <b_mmod_Minimization_Converged-OPLS-2005>
0

> <r_mmod_RMS_Derivative-OPLS-2005>
3.20017123222351

$$$$
28
                    3D
 Structure written by MMmdl.
171179  0  0  1  0            999 V2000
  -30.6726  -14.5056   20.5539 C   0  0  0  0  0  0
  -30.4274  -12.3258   19.4197 C   0  0  0  0  0  0
  -29.4960  -12.5244   18.2042 C   0  0  0  0  0  0
  -28.0143  -12.3934   18.6120 C   0  0  0  0  0  0
  -27.6625  -13.2123   19.8823 C   0  0  2  0  0  0
  -28.7090  -12.9881   20.9972 C   0  0  0  0  0  0
  -25.2581  -13.8164   20.5684 C   0  0  0  0  0  0
  -24.1847  -13.0423   20.9187 C   0  0  0  0  0  0
  -24.6417  -11.6893   20.8744 C   0  0  0  0  0  0
  -23.9076  -10.4279   21.0402 C   0  0  0  0  0  0
  -24.3628   -9.4199   21.9189 C   0  0  0  0  0  0
  -23.6299   -8.2234   22.0751 C   0  0  0  0  0  0
  -22.4284   -8.0278   21.3542 C   0  0  0  0  0  0
  -21.9908   -9.0254   20.4651 C   0  0  0  0  0  0
  -22.7234  -10.2140   20.3066 C   0  0  0  0  0  0
  -21.6851   -6.0757   22.5286 C   0  0  0  0  0  0
  -21.4013   -6.5651   23.8219 C   0  0  0  0  0  0
  -21.3656   -5.6794   24.9177 C   0  0  0  0  0  0
  -21.6044   -4.3055   24.7222 C   0  0  0  0  0  0
  -21.8813   -3.8163   23.4332 C   0  0  0  0  0  0
  -21.9185   -4.6993   22.3403 C   0  0  0  0  0  0
  -22.7867  -13.5226   21.1836 C   0  0  0  0  0  0
  -22.1654   -4.2184   21.0975 F   0  0  0  0  0  0
  -21.5640   -3.4524   25.7722 F   0  0  0  0  0  0
  -30.0327  -13.3079   20.4403 N   0  0  0  0  0  0
  -26.3038  -12.9346   20.3407 N   0  0  0  0  0  0
  -25.9347  -11.6497   20.5780 N   0  0  0  0  0  0
  -22.0493  -12.8254   22.0420 N   0  0  0  0  0  0
  -25.4301  -15.1873   20.4062 N   0  0  0  0  0  0
  -31.8122  -14.6992   20.1222 O   0  0  0  0  0  0
  -21.6626   -6.8896   21.4247 O   0  0  0  0  0  0
  -22.3562  -14.5525   20.6668 O   0  0  0  0  0  0
  -24.6145  -31.8675   23.2088 C   0  0  0  0  0  0
  -25.9046  -32.4818   23.8371 C   0  0  1  0  0  0
  -27.2194  -27.4190   20.1001 C   0  0  0  0  0  0
  -25.5895  -33.8620   24.2298 N   0  0  0  0  0  0
  -23.4027  -30.4920   21.5493 C   0  0  2  0  0  0
  -24.8474  -28.9553   20.1135 C   0  0  0  0  0  0
  -22.7412  -29.4649   22.4972 C   0  0  0  0  0  0
  -18.0269  -28.1371   22.8497 C   0  0  0  0  0  0
  -24.1487  -36.7315   23.2639 C   0  0  0  0  0  0
  -25.9356  -30.8256   21.3686 C   0  0  0  0  0  0
  -26.0099  -29.4609   20.7107 C   0  0  0  0  0  0
  -27.2027  -28.7001   20.7005 C   0  0  0  0  0  0
  -26.0459  -26.9325   19.4922 C   0  0  0  0  0  0
  -24.8597  -27.6893   19.5027 C   0  0  0  0  0  0
  -23.6125  -29.8265   20.1625 C   0  0  0  0  0  0
  -25.4116  -36.3118   24.0328 C   0  0  1  0  0  0
  -20.5863  -28.3661   23.1321 C   0  0  2  0  0  0
  -20.6760  -26.9394   22.5434 C   0  0  0  0  0  0
  -19.5741  -26.6375   21.5227 C   0  0  0  0  0  0
  -18.1916  -26.7919   22.1624 C   0  0  0  0  0  0
  -19.1524  -28.8828   23.2905 C   0  0  0  0  0  0
  -18.9453  -30.1435   23.8921 C   0  0  0  0  0  0
  -17.6462  -30.6584   24.0567 C   0  0  0  0  0  0
  -25.9045  -34.9482   23.5110 C   0  0  0  0  0  0
  -16.5347  -29.9095   23.6325 C   0  0  0  0  0  0
  -16.7264  -28.6504   23.0354 C   0  0  0  0  0  0
  -26.4471  -31.6611   25.0713 C   0  0  0  0  0  0
  -25.3725  -31.3759   26.1454 C   0  0  0  0  0  0
  -27.0304  -30.3037   24.6140 C   0  0  0  0  0  0
  -27.6026  -32.4349   25.7487 C   0  0  0  0  0  0
  -27.5593  -37.1809   24.8456 C   0  0  0  0  0  0
  -21.4136  -29.3033   22.3726 N   0  0  0  0  0  0
  -26.4303  -37.3808   23.9404 N   0  0  0  0  0  0
  -24.6689  -31.0765   22.0992 N   0  0  0  0  0  0
  -23.4180  -28.8187   23.3001 O   0  0  0  0  0  0
  -28.3474  -26.6261   20.1010 O   0  0  0  0  0  0
  -26.5626  -34.8937   22.4685 O   0  0  0  0  0  0
  -23.5337  -32.1441   23.7477 O   0  0  0  0  0  0
  -28.7229  -20.4336   21.2990 C   0  0  0  0  0  0
  -29.3040  -21.5889   20.8304 C   0  0  0  0  0  0
  -30.2057  -21.0906   19.8354 C   0  0  0  0  0  0
  -35.0723  -21.8382   18.6751 C   0  0  0  0  0  0
  -27.9310  -17.6334   21.8937 C   0  0  0  0  0  0
  -28.9053  -25.9547   22.3060 C   0  0  0  0  0  0
  -29.0372  -23.0027   21.3702 C   0  0  0  0  0  0
  -31.1620  -21.8227   18.9303 C   0  0  0  0  0  0
  -33.6296  -22.2727   18.3977 C   0  0  0  0  0  0
  -28.9337  -24.2033   20.3751 C   0  0  0  0  0  0
  -32.6259  -21.5338   19.2944 C   0  0  0  0  0  0
  -30.2291  -16.9710   20.9629 C   0  0  0  0  0  0
  -28.9707  -17.8873   20.7833 C   0  0  2  0  0  0
  -28.2734  -25.4843   20.9838 C   0  0  2  0  0  0
  -30.1614  -19.7630   19.7313 N   0  0  0  0  0  0
  -29.2830  -19.3330   20.6625 N   0  0  0  0  0  0
  -29.9082  -15.5251   20.9983 N   0  0  0  0  0  0
  -31.4699  -12.4349   19.1221 H   0  0  0  0  0  0
  -30.3353  -11.3130   19.8142 H   0  0  0  0  0  0
  -29.7381  -11.8093   17.4161 H   0  0  0  0  0  0
  -29.6647  -13.5134   17.7756 H   0  0  0  0  0  0
  -27.7967  -11.3365   18.7751 H   0  0  0  0  0  0
  -27.3788  -12.7079   17.7856 H   0  0  0  0  0  0
  -27.7032  -14.2649   19.5975 H   0  0  0  0  0  0
  -28.6891  -11.9470   21.3236 H   0  0  0  0  0  0
  -28.4797  -13.5763   21.8868 H   0  0  0  0  0  0
  -25.2774   -9.5688   22.4765 H   0  0  0  0  0  0
  -24.0010   -7.4625   22.7466 H   0  0  0  0  0  0
  -21.0834   -8.8785   19.8954 H   0  0  0  0  0  0
  -22.3686  -10.9698   19.6186 H   0  0  0  0  0  0
  -21.2007   -7.6152   23.9745 H   0  0  0  0  0  0
  -21.1492   -6.0515   25.9086 H   0  0  0  0  0  0
  -22.0599   -2.7628   23.2817 H   0  0  0  0  0  0
  -22.4048  -11.9904   22.4843 H   0  0  0  0  0  0
  -21.1142  -13.1388   22.2603 H   0  0  0  0  0  0
  -24.6621  -15.8408   20.5169 H   0  0  0  0  0  0
  -26.2724  -15.6244   20.0569 H   0  0  0  0  0  0
  -26.7114  -32.5514   23.1125 H   0  0  0  0  0  0
  -25.0006  -33.9786   25.0414 H   0  0  0  0  0  0
  -22.6911  -31.3088   21.4111 H   0  0  0  0  0  0
  -23.3761  -35.9635   23.3304 H   0  0  0  0  0  0
  -24.3578  -36.8940   22.2054 H   0  0  0  0  0  0
  -23.7226  -37.6509   23.6665 H   0  0  0  0  0  0
  -26.0609  -31.5976   20.6077 H   0  0  0  0  0  0
  -26.8165  -30.8668   21.9970 H   0  0  0  0  0  0
  -28.0978  -29.0795   21.1733 H   0  0  0  0  0  0
  -26.0491  -25.9591   19.0216 H   0  0  0  0  0  0
  -23.9653  -27.2914   19.0433 H   0  0  0  0  0  0
  -23.7264  -30.6044   19.4063 H   0  0  0  0  0  0
  -22.7344  -29.2527   19.8597 H   0  0  0  0  0  0
  -25.1300  -36.1983   25.0826 H   0  0  0  0  0  0
  -20.9955  -28.3227   24.1436 H   0  0  0  0  0  0
  -20.5656  -26.2269   23.3624 H   0  0  0  0  0  0
  -21.6632  -26.7424   22.1231 H   0  0  0  0  0  0
  -19.6897  -25.6288   21.1251 H   0  0  0  0  0  0
  -19.6686  -27.3189   20.6764 H   0  0  0  0  0  0
  -17.4192  -26.6678   21.4022 H   0  0  0  0  0  0
  -18.0297  -26.0058   22.9014 H   0  0  0  0  0  0
  -19.7936  -30.7243   24.2296 H   0  0  0  0  0  0
  -17.5024  -31.6271   24.5163 H   0  0  0  0  0  0
  -15.5356  -30.3010   23.7644 H   0  0  0  0  0  0
  -15.8654  -28.0842   22.7059 H   0  0  0  0  0  0
  -24.5851  -30.7170   25.7786 H   0  0  0  0  0  0
  -24.8976  -32.2942   26.4919 H   0  0  0  0  0  0
  -25.8046  -30.8891   27.0203 H   0  0  0  0  0  0
  -26.2865  -29.6809   24.1156 H   0  0  0  0  0  0
  -27.3997  -29.7282   25.4642 H   0  0  0  0  0  0
  -27.8741  -30.4331   23.9354 H   0  0  0  0  0  0
  -27.2608  -33.3612   26.2118 H   0  0  0  0  0  0
  -28.3809  -32.6980   25.0314 H   0  0  0  0  0  0
  -28.0726  -31.8452   26.5367 H   0  0  0  0  0  0
  -28.2605  -38.0117   24.7536 H   0  0  0  0  0  0
  -28.1099  -36.2650   24.6244 H   0  0  0  0  0  0
  -27.2313  -37.1417   25.8860 H   0  0  0  0  0  0
  -20.9279  -29.8802   21.7004 H   0  0  0  0  0  0
  -26.0192  -38.2885   24.1419 H   0  0  0  0  0  0
  -27.9627  -20.3179   22.0577 H   0  0  0  0  0  0
  -35.7744  -22.3778   18.0386 H   0  0  0  0  0  0
  -35.2043  -20.7734   18.4811 H   0  0  0  0  0  0
  -35.3498  -22.0270   19.7133 H   0  0  0  0  0  0
  -27.6099  -16.5935   21.9275 H   0  0  0  0  0  0
  -27.0292  -18.2251   21.7320 H   0  0  0  0  0  0
  -28.3327  -17.8876   22.8755 H   0  0  0  0  0  0
  -28.8896  -25.1788   23.0697 H   0  0  0  0  0  0
  -28.3583  -26.8049   22.7153 H   0  0  0  0  0  0
  -29.9392  -26.2698   22.1628 H   0  0  0  0  0  0
  -29.8110  -23.2487   22.0976 H   0  0  0  0  0  0
  -28.1152  -22.9858   21.9540 H   0  0  0  0  0  0
  -30.9844  -22.8931   18.9587 H   0  0  0  0  0  0
  -30.9790  -21.5266   17.8975 H   0  0  0  0  0  0
  -33.3920  -22.0911   17.3479 H   0  0  0  0  0  0
  -33.5377  -23.3484   18.5498 H   0  0  0  0  0  0
  -28.3477  -23.8985   19.5066 H   0  0  0  0  0  0
  -29.9225  -24.4647   20.0041 H   0  0  0  0  0  0
  -32.8000  -20.4601   19.2165 H   0  0  0  0  0  0
  -32.7981  -21.7951   20.3396 H   0  0  0  0  0  0
  -30.7424  -17.2327   21.8881 H   0  0  0  0  0  0
  -30.9374  -17.1620   20.1545 H   0  0  0  0  0  0
  -28.5033  -17.6067   19.8383 H   0  0  0  0  0  0
  -27.2324  -25.2282   21.1960 H   0  0  0  0  0  0
  -28.9812  -15.2757   21.3052 H   0  0  0  0  0  0
  1 25  1  0  0  0
  1 30  2  0  0  0
  1 87  1  0  0  0
  2  3  1  0  0  0
  2 25  1  0  0  0
  2 88  1  0  0  0
  2 89  1  0  0  0
  3  4  1  0  0  0
  3 90  1  0  0  0
  3 91  1  0  0  0
  4  5  1  0  0  0
  4 92  1  0  0  0
  4 93  1  0  0  0
  5  6  1  0  0  0
  5 26  1  0  0  0
  5 94  1  0  0  0
  6 25  1  0  0  0
  6 95  1  0  0  0
  6 96  1  0  0  0
  7  8  2  0  0  0
  7 26  1  0  0  0
  7 29  1  0  0  0
  8  9  1  0  0  0
  8 22  1  0  0  0
  9 10  1  0  0  0
  9 27  2  0  0  0
 10 11  2  0  0  0
 10 15  1  0  0  0
 11 12  1  0  0  0
 11 97  1  0  0  0
 12 13  2  0  0  0
 12 98  1  0  0  0
 13 14  1  0  0  0
 13 31  1  0  0  0
 14 15  2  0  0  0
 14 99  1  0  0  0
 15100  1  0  0  0
 16 17  2  0  0  0
 16 21  1  0  0  0
 16 31  1  0  0  0
 17 18  1  0  0  0
 17101  1  0  0  0
 18 19  2  0  0  0
 18102  1  0  0  0
 19 20  1  0  0  0
 19 24  1  0  0  0
 20 21  2  0  0  0
 20103  1  0  0  0
 21 23  1  0  0  0
 22 28  1  0  0  0
 22 32  2  0  0  0
 26 27  1  0  0  0
 28104  1  0  0  0
 28105  1  0  0  0
 29106  1  0  0  0
 29107  1  0  0  0
 33 34  1  0  0  0
 33 66  1  0  0  0
 33 70  2  0  0  0
 34 36  1  0  0  0
 34 59  1  0  0  0
 34108  1  0  0  0
 35 44  2  0  0  0
 35 45  1  0  0  0
 35 68  1  0  0  0
 36 56  1  0  0  0
 36109  1  0  0  0
 37 39  1  0  0  0
 37 47  1  0  0  0
 37 66  1  0  0  0
 37110  1  0  0  0
 38 43  2  0  0  0
 38 46  1  0  0  0
 38 47  1  0  0  0
 39 64  1  0  0  0
 39 67  2  0  0  0
 40 52  1  0  0  0
 40 53  2  0  0  0
 40 58  1  0  0  0
 41111  1  0  0  0
 41112  1  0  0  0
 41113  1  0  0  0
 41 48  1  0  0  0
 42 43  1  0  0  0
 42 66  1  0  0  0
 42114  1  0  0  0
 42115  1  0  0  0
 43 44  1  0  0  0
 44116  1  0  0  0
 45 46  2  0  0  0
 45117  1  0  0  0
 46118  1  0  0  0
 47119  1  0  0  0
 47120  1  0  0  0
 48 56  1  0  0  0
 48 65  1  0  0  0
 48121  1  0  0  0
 49 50  1  0  0  0
 49 53  1  0  0  0
 49 64  1  0  0  0
 49122  1  0  0  0
 50 51  1  0  0  0
 50123  1  0  0  0
 50124  1  0  0  0
 51 52  1  0  0  0
 51125  1  0  0  0
 51126  1  0  0  0
 52127  1  0  0  0
 52128  1  0  0  0
 53 54  1  0  0  0
 54 55  2  0  0  0
 54129  1  0  0  0
 55 57  1  0  0  0
 55130  1  0  0  0
 56 69  2  0  0  0
 57 58  2  0  0  0
 57131  1  0  0  0
 58132  1  0  0  0
 59 60  1  0  0  0
 59 61  1  0  0  0
 59 62  1  0  0  0
 60133  1  0  0  0
 60134  1  0  0  0
 60135  1  0  0  0
 61136  1  0  0  0
 61137  1  0  0  0
 61138  1  0  0  0
 62139  1  0  0  0
 62140  1  0  0  0
 62141  1  0  0  0
 63 65  1  0  0  0
 63142  1  0  0  0
 63143  1  0  0  0
 63144  1  0  0  0
 64145  1  0  0  0
 65146  1  0  0  0
 68 84  1  0  0  0
 71 72  2  0  0  0
 71 86  1  0  0  0
 71147  1  0  0  0
 72 73  1  0  0  0
 72 77  1  0  0  0
 73 78  1  0  0  0
 73 85  2  0  0  0
 74 79  1  0  0  0
 74148  1  0  0  0
 74149  1  0  0  0
 74150  1  0  0  0
 75151  1  0  0  0
 75152  1  0  0  0
 75153  1  0  0  0
 75 83  1  0  0  0
 76154  1  0  0  0
 76155  1  0  0  0
 76156  1  0  0  0
 76 84  1  0  0  0
 77 80  1  0  0  0
 77157  1  0  0  0
 77158  1  0  0  0
 78 81  1  0  0  0
 78159  1  0  0  0
 78160  1  0  0  0
 79 81  1  0  0  0
 79161  1  0  0  0
 79162  1  0  0  0
 80 84  1  0  0  0
 80163  1  0  0  0
 80164  1  0  0  0
 81165  1  0  0  0
 81166  1  0  0  0
 82 83  1  0  0  0
 82 87  1  0  0  0
 82167  1  0  0  0
 82168  1  0  0  0
 83 86  1  0  0  0
 83169  1  0  0  0
 84170  1  0  0  0
 85 86  1  0  0  0
 87171  1  0  0  0
M  ISO  4   1 100  68 101  84 101  87 100
M  END
> <chiral flag>
0

> <version>
0

> <s_m_source_file>
/data/baiqing/PycharmProjects/Reinvent-master-3.2/result/LINK_invent/BTK/process_docking_weight1_custom_sum_contain_oxygen_bond_distance_aromatic_linkinvent_7_9_3/rearranged_h_0080.sdf

> <i_m_source_file_index>
27

> <r_mmod_Potential_Energy-OPLS-2005>
-86.1259460449219

> <r_mmod_Stretch_Energy-OPLS-2005>
42.9328956604004

> <r_mmod_Bend_Energy-OPLS-2005>
103.912864685059

> <r_mmod_Torsional_Energy-OPLS-2005>
244.469833374023

> <r_mmod_Improper_Torsional_Energy-OPLS-2005>
4.79004240036011

> <r_mmod_Van_der_Waal_Energy-OPLS-2005>
119.881881713867

> <r_mmod_Electrostatic_Energy-OPLS-2005>
-405.919952392578

> <r_mmod_Solvation_Energy-OPLS-2005>
-213.100540161133

> <b_mmod_Minimization_Converged-OPLS-2005>
0

> <r_mmod_RMS_Derivative-OPLS-2005>
3.05927467346191

$$$$
29
                    3D
 Structure written by MMmdl.
176184  0  0  1  0            999 V2000
  -30.6632  -14.4468   20.5887 C   0  0  0  0  0  0
  -30.4370  -12.2941   19.4148 C   0  0  0  0  0  0
  -29.5010  -12.5230   18.2075 C   0  0  0  0  0  0
  -28.0186  -12.3820   18.6150 C   0  0  0  0  0  0
  -27.6692  -13.1945   19.8897 C   0  0  2  0  0  0
  -28.7081  -12.9228   21.0028 C   0  0  0  0  0  0
  -25.2616  -13.8134   20.5698 C   0  0  0  0  0  0
  -24.1849  -13.0441   20.9183 C   0  0  0  0  0  0
  -24.6376  -11.6894   20.8723 C   0  0  0  0  0  0
  -23.9041  -10.4290   21.0397 C   0  0  0  0  0  0
  -24.3605   -9.4203   21.9167 C   0  0  0  0  0  0
  -23.6286   -8.2241   22.0740 C   0  0  0  0  0  0
  -22.4263   -8.0264   21.3535 C   0  0  0  0  0  0
  -21.9889   -9.0242   20.4643 C   0  0  0  0  0  0
  -22.7203  -10.2129   20.3052 C   0  0  0  0  0  0
  -21.6867   -6.0717   22.5281 C   0  0  0  0  0  0
  -21.4026   -6.5623   23.8206 C   0  0  0  0  0  0
  -21.3655   -5.6770   24.9165 C   0  0  0  0  0  0
  -21.6049   -4.3037   24.7225 C   0  0  0  0  0  0
  -21.8821   -3.8129   23.4348 C   0  0  0  0  0  0
  -21.9200   -4.6950   22.3401 C   0  0  0  0  0  0
  -22.7866  -13.5255   21.1834 C   0  0  0  0  0  0
  -22.1667   -4.2128   21.0984 F   0  0  0  0  0  0
  -21.5626   -3.4516   25.7740 F   0  0  0  0  0  0
  -30.0456  -13.2429   20.4652 N   0  0  0  0  0  0
  -26.3052  -12.9278   20.3413 N   0  0  0  0  0  0
  -25.9299  -11.6449   20.5764 N   0  0  0  0  0  0
  -22.0490  -12.8238   22.0362 N   0  0  0  0  0  0
  -25.4376  -15.1855   20.4120 N   0  0  0  0  0  0
  -31.7534  -14.7174   20.0739 O   0  0  0  0  0  0
  -21.6647   -6.8856   21.4236 O   0  0  0  0  0  0
  -22.3555  -14.5574   20.6705 O   0  0  0  0  0  0
  -24.6132  -31.8672   23.2105 C   0  0  0  0  0  0
  -25.9023  -32.4826   23.8411 C   0  0  1  0  0  0
  -27.2349  -27.4523   20.0891 C   0  0  0  0  0  0
  -25.5881  -33.8624   24.2341 N   0  0  0  0  0  0
  -23.4030  -30.4892   21.5489 C   0  0  2  0  0  0
  -24.8508  -28.9560   20.1147 C   0  0  0  0  0  0
  -22.7411  -29.4654   22.4984 C   0  0  0  0  0  0
  -18.0269  -28.1374   22.8486 C   0  0  0  0  0  0
  -24.1480  -36.7316   23.2646 C   0  0  0  0  0  0
  -25.9297  -30.8402   21.3586 C   0  0  0  0  0  0
  -26.0103  -29.4769   20.7038 C   0  0  0  0  0  0
  -27.2103  -28.7309   20.6871 C   0  0  0  0  0  0
  -26.0644  -26.9387   19.4990 C   0  0  0  0  0  0
  -24.8701  -27.6848   19.5124 C   0  0  0  0  0  0
  -23.6109  -29.8185   20.1656 C   0  0  0  0  0  0
  -25.4100  -36.3116   24.0351 C   0  0  1  0  0  0
  -20.5864  -28.3652   23.1310 C   0  0  2  0  0  0
  -20.6755  -26.9382   22.5416 C   0  0  0  0  0  0
  -19.5742  -26.6368   21.5216 C   0  0  0  0  0  0
  -18.1914  -26.7918   22.1616 C   0  0  0  0  0  0
  -19.1521  -28.8829   23.2891 C   0  0  0  0  0  0
  -18.9456  -30.1436   23.8894 C   0  0  0  0  0  0
  -17.6461  -30.6572   24.0558 C   0  0  0  0  0  0
  -25.9023  -34.9480   23.5141 C   0  0  0  0  0  0
  -16.5347  -29.9070   23.6331 C   0  0  0  0  0  0
  -16.7261  -28.6495   23.0346 C   0  0  0  0  0  0
  -26.4446  -31.6613   25.0748 C   0  0  0  0  0  0
  -25.3730  -31.3717   26.1521 C   0  0  0  0  0  0
  -27.0288  -30.3063   24.6116 C   0  0  0  0  0  0
  -27.6021  -32.4344   25.7509 C   0  0  0  0  0  0
  -27.5570  -37.1801   24.8464 C   0  0  0  0  0  0
  -21.4142  -29.3025   22.3722 N   0  0  0  0  0  0
  -26.4283  -37.3799   23.9420 N   0  0  0  0  0  0
  -24.6670  -31.0805   22.0977 N   0  0  0  0  0  0
  -23.4185  -28.8201   23.3026 O   0  0  0  0  0  0
  -28.3691  -26.6785   20.1098 O   0  0  0  0  0  0
  -26.5586  -34.8929   22.4700 O   0  0  0  0  0  0
  -23.5322  -32.1403   23.7503 O   0  0  0  0  0  0
  -30.6239  -20.1614   21.9003 C   0  0  0  0  0  0
  -30.2216  -21.5080   21.8170 C   0  0  0  0  0  0
  -28.8327  -21.8234   21.7855 C   0  0  0  0  0  0
  -29.6513  -19.1562   21.9500 C   0  0  0  0  0  0
  -27.9064  -20.7246   21.7760 C   0  0  0  0  0  0
  -31.3095  -22.5723   21.8171 C   0  0  0  0  0  0
  -24.8225  -21.2911   19.7104 C   0  0  0  0  0  0
  -29.2367  -17.1220   23.4032 C   0  0  0  0  0  0
  -25.9670  -21.2692   23.3023 C   0  0  0  0  0  0
  -25.6549  -19.4610   21.6956 C   0  0  0  0  0  0
  -28.3993  -23.3019   21.9340 C   0  0  0  0  0  0
  -25.7803  -21.8384   20.7928 C   0  0  0  0  0  0
  -28.6331  -24.2760   20.7480 C   0  0  0  0  0  0
  -29.8701  -16.8182   20.9166 C   0  0  0  0  0  0
  -28.3723  -25.7361   21.1900 C   0  0  0  0  0  0
  -30.0142  -17.6832   22.1921 C   0  0  1  0  0  0
  -26.3534  -20.8444   21.8634 C   0  0  0  0  0  0
  -28.3434  -19.4450   21.8474 N   0  0  0  0  0  0
  -29.8918  -15.3735   21.1729 N   0  0  0  0  0  0
  -31.4803  -12.4147   19.1140 H   0  0  0  0  0  0
  -30.3506  -11.2722   19.7847 H   0  0  0  0  0  0
  -29.7399  -11.8266   17.4033 H   0  0  0  0  0  0
  -29.6678  -13.5237   17.8038 H   0  0  0  0  0  0
  -27.8144  -11.3241   18.7838 H   0  0  0  0  0  0
  -27.3723  -12.6877   17.7920 H   0  0  0  0  0  0
  -27.7294  -14.2513   19.6274 H   0  0  0  0  0  0
  -28.6809  -11.8747   21.3037 H   0  0  0  0  0  0
  -28.4636  -13.4772   21.9094 H   0  0  0  0  0  0
  -25.2766   -9.5688   22.4713 H   0  0  0  0  0  0
  -23.9981   -7.4642   22.7472 H   0  0  0  0  0  0
  -21.0807   -8.8787   19.8969 H   0  0  0  0  0  0
  -22.3663  -10.9676   19.6157 H   0  0  0  0  0  0
  -21.2024   -7.6130   23.9717 H   0  0  0  0  0  0
  -21.1470   -6.0492   25.9066 H   0  0  0  0  0  0
  -22.0609   -2.7599   23.2854 H   0  0  0  0  0  0
  -22.4053  -11.9845   22.4695 H   0  0  0  0  0  0
  -21.1119  -13.1281   22.2585 H   0  0  0  0  0  0
  -24.6868  -15.8512   20.5574 H   0  0  0  0  0  0
  -26.2901  -15.6181   20.0803 H   0  0  0  0  0  0
  -26.7098  -32.5538   23.1185 H   0  0  0  0  0  0
  -25.0067  -33.9787   25.0508 H   0  0  0  0  0  0
  -22.6921  -31.3051   21.4046 H   0  0  0  0  0  0
  -23.3744  -35.9642   23.3319 H   0  0  0  0  0  0
  -24.3576  -36.8925   22.2057 H   0  0  0  0  0  0
  -23.7229  -37.6524   23.6652 H   0  0  0  0  0  0
  -26.0434  -31.6097   20.5940 H   0  0  0  0  0  0
  -26.8161  -30.8906   21.9788 H   0  0  0  0  0  0
  -28.1071  -29.1248   21.1431 H   0  0  0  0  0  0
  -26.0753  -25.9574   19.0473 H   0  0  0  0  0  0
  -23.9747  -27.2714   19.0697 H   0  0  0  0  0  0
  -23.7189  -30.5896   19.4021 H   0  0  0  0  0  0
  -22.7364  -29.2350   19.8723 H   0  0  0  0  0  0
  -25.1263  -36.1986   25.0842 H   0  0  0  0  0  0
  -20.9944  -28.3208   24.1439 H   0  0  0  0  0  0
  -20.5658  -26.2256   23.3604 H   0  0  0  0  0  0
  -21.6616  -26.7418   22.1207 H   0  0  0  0  0  0
  -19.6902  -25.6286   21.1232 H   0  0  0  0  0  0
  -19.6683  -27.3183   20.6760 H   0  0  0  0  0  0
  -17.4185  -26.6685   21.4010 H   0  0  0  0  0  0
  -18.0283  -26.0055   22.9003 H   0  0  0  0  0  0
  -19.7936  -30.7246   24.2249 H   0  0  0  0  0  0
  -17.5022  -31.6256   24.5158 H   0  0  0  0  0  0
  -15.5345  -30.2968   23.7671 H   0  0  0  0  0  0
  -15.8671  -28.0821   22.7053 H   0  0  0  0  0  0
  -24.5911  -30.7036   25.7905 H   0  0  0  0  0  0
  -24.8907  -32.2860   26.4977 H   0  0  0  0  0  0
  -25.8107  -30.8918   27.0283 H   0  0  0  0  0  0
  -26.2829  -29.6823   24.1179 H   0  0  0  0  0  0
  -27.4079  -29.7303   25.4568 H   0  0  0  0  0  0
  -27.8645  -30.4419   23.9255 H   0  0  0  0  0  0
  -27.2636  -33.3643   26.2089 H   0  0  0  0  0  0
  -28.3811  -32.6909   25.0324 H   0  0  0  0  0  0
  -28.0700  -31.8477   26.5421 H   0  0  0  0  0  0
  -28.2584  -38.0101   24.7507 H   0  0  0  0  0  0
  -28.1060  -36.2624   24.6273 H   0  0  0  0  0  0
  -27.2292  -37.1445   25.8871 H   0  0  0  0  0  0
  -20.9303  -29.8766   21.6964 H   0  0  0  0  0  0
  -26.0174  -38.2877   24.1426 H   0  0  0  0  0  0
  -31.6711  -19.9032   21.9755 H   0  0  0  0  0  0
  -31.4569  -22.9571   20.8081 H   0  0  0  0  0  0
  -32.2653  -22.1651   22.1460 H   0  0  0  0  0  0
  -31.0799  -23.4027   22.4827 H   0  0  0  0  0  0
  -24.5120  -22.0847   19.0307 H   0  0  0  0  0  0
  -23.9122  -20.8667   20.1349 H   0  0  0  0  0  0
  -25.3027  -20.5256   19.0997 H   0  0  0  0  0  0
  -29.3586  -17.7628   24.2756 H   0  0  0  0  0  0
  -29.5839  -16.1284   23.6826 H   0  0  0  0  0  0
  -28.1691  -17.0568   23.1931 H   0  0  0  0  0  0
  -26.2777  -20.5122   24.0233 H   0  0  0  0  0  0
  -24.8894  -21.3950   23.4037 H   0  0  0  0  0  0
  -26.4282  -22.1943   23.6348 H   0  0  0  0  0  0
  -25.9553  -18.7497   22.4657 H   0  0  0  0  0  0
  -25.8796  -19.0030   20.7331 H   0  0  0  0  0  0
  -24.5729  -19.5459   21.7858 H   0  0  0  0  0  0
  -28.9092  -23.6921   22.8153 H   0  0  0  0  0  0
  -27.3513  -23.3808   22.1984 H   0  0  0  0  0  0
  -25.2755  -22.6577   21.3045 H   0  0  0  0  0  0
  -26.5948  -22.3012   20.2423 H   0  0  0  0  0  0
  -27.9863  -24.0190   19.9096 H   0  0  0  0  0  0
  -29.6508  -24.2058   20.3712 H   0  0  0  0  0  0
  -30.6192  -17.1077   20.1793 H   0  0  0  0  0  0
  -28.9007  -17.0234   20.4589 H   0  0  0  0  0  0
  -29.1432  -26.0431   21.8989 H   0  0  0  0  0  0
  -27.4343  -25.7713   21.7516 H   0  0  0  0  0  0
  -31.0696  -17.6568   22.4704 H   0  0  0  0  0  0
  -29.0588  -14.9981   21.5999 H   0  0  0  0  0  0
  1 25  1  0  0  0
  1 30  2  0  0  0
  1 89  1  0  0  0
  2  3  1  0  0  0
  2 25  1  0  0  0
  2 90  1  0  0  0
  2 91  1  0  0  0
  3  4  1  0  0  0
  3 92  1  0  0  0
  3 93  1  0  0  0
  4  5  1  0  0  0
  4 94  1  0  0  0
  4 95  1  0  0  0
  5  6  1  0  0  0
  5 26  1  0  0  0
  5 96  1  0  0  0
  6 25  1  0  0  0
  6 97  1  0  0  0
  6 98  1  0  0  0
  7  8  2  0  0  0
  7 26  1  0  0  0
  7 29  1  0  0  0
  8  9  1  0  0  0
  8 22  1  0  0  0
  9 10  1  0  0  0
  9 27  2  0  0  0
 10 11  2  0  0  0
 10 15  1  0  0  0
 11 12  1  0  0  0
 11 99  1  0  0  0
 12 13  2  0  0  0
 12100  1  0  0  0
 13 14  1  0  0  0
 13 31  1  0  0  0
 14 15  2  0  0  0
 14101  1  0  0  0
 15102  1  0  0  0
 16 17  2  0  0  0
 16 21  1  0  0  0
 16 31  1  0  0  0
 17 18  1  0  0  0
 17103  1  0  0  0
 18 19  2  0  0  0
 18104  1  0  0  0
 19 20  1  0  0  0
 19 24  1  0  0  0
 20 21  2  0  0  0
 20105  1  0  0  0
 21 23  1  0  0  0
 22 28  1  0  0  0
 22 32  2  0  0  0
 26 27  1  0  0  0
 28106  1  0  0  0
 28107  1  0  0  0
 29108  1  0  0  0
 29109  1  0  0  0
 33 34  1  0  0  0
 33 66  1  0  0  0
 33 70  2  0  0  0
 34 36  1  0  0  0
 34 59  1  0  0  0
 34110  1  0  0  0
 35 44  2  0  0  0
 35 45  1  0  0  0
 35 68  1  0  0  0
 36 56  1  0  0  0
 36111  1  0  0  0
 37 39  1  0  0  0
 37 47  1  0  0  0
 37 66  1  0  0  0
 37112  1  0  0  0
 38 43  2  0  0  0
 38 46  1  0  0  0
 38 47  1  0  0  0
 39 64  1  0  0  0
 39 67  2  0  0  0
 40 52  1  0  0  0
 40 53  2  0  0  0
 40 58  1  0  0  0
 41113  1  0  0  0
 41114  1  0  0  0
 41115  1  0  0  0
 41 48  1  0  0  0
 42 43  1  0  0  0
 42 66  1  0  0  0
 42116  1  0  0  0
 42117  1  0  0  0
 43 44  1  0  0  0
 44118  1  0  0  0
 45 46  2  0  0  0
 45119  1  0  0  0
 46120  1  0  0  0
 47121  1  0  0  0
 47122  1  0  0  0
 48 56  1  0  0  0
 48 65  1  0  0  0
 48123  1  0  0  0
 49 50  1  0  0  0
 49 53  1  0  0  0
 49 64  1  0  0  0
 49124  1  0  0  0
 50 51  1  0  0  0
 50125  1  0  0  0
 50126  1  0  0  0
 51 52  1  0  0  0
 51127  1  0  0  0
 51128  1  0  0  0
 52129  1  0  0  0
 52130  1  0  0  0
 53 54  1  0  0  0
 54 55  2  0  0  0
 54131  1  0  0  0
 55 57  1  0  0  0
 55132  1  0  0  0
 56 69  2  0  0  0
 57 58  2  0  0  0
 57133  1  0  0  0
 58134  1  0  0  0
 59 60  1  0  0  0
 59 61  1  0  0  0
 59 62  1  0  0  0
 60135  1  0  0  0
 60136  1  0  0  0
 60137  1  0  0  0
 61138  1  0  0  0
 61139  1  0  0  0
 61140  1  0  0  0
 62141  1  0  0  0
 62142  1  0  0  0
 62143  1  0  0  0
 63 65  1  0  0  0
 63144  1  0  0  0
 63145  1  0  0  0
 63146  1  0  0  0
 64147  1  0  0  0
 65148  1  0  0  0
 68 85  1  0  0  0
 71 72  2  0  0  0
 71 74  1  0  0  0
 71149  1  0  0  0
 72 73  1  0  0  0
 72 76  1  0  0  0
 73 75  2  0  0  0
 73 81  1  0  0  0
 74 86  1  0  0  0
 74 88  2  0  0  0
 75 87  1  0  0  0
 75 88  1  0  0  0
 76150  1  0  0  0
 76151  1  0  0  0
 76152  1  0  0  0
 77 82  1  0  0  0
 77153  1  0  0  0
 77154  1  0  0  0
 77155  1  0  0  0
 78156  1  0  0  0
 78157  1  0  0  0
 78158  1  0  0  0
 78 86  1  0  0  0
 79159  1  0  0  0
 79160  1  0  0  0
 79161  1  0  0  0
 79 87  1  0  0  0
 80 87  1  0  0  0
 80162  1  0  0  0
 80163  1  0  0  0
 80164  1  0  0  0
 81 83  1  0  0  0
 81165  1  0  0  0
 81166  1  0  0  0
 82 87  1  0  0  0
 82167  1  0  0  0
 82168  1  0  0  0
 83 85  1  0  0  0
 83169  1  0  0  0
 83170  1  0  0  0
 84 86  1  0  0  0
 84 89  1  0  0  0
 84171  1  0  0  0
 84172  1  0  0  0
 85173  1  0  0  0
 85174  1  0  0  0
 86175  1  0  0  0
 89176  1  0  0  0
M  ISO  4   1 100  68 101  85 101  89 100
M  END
> <chiral flag>
0

> <version>
0

> <s_m_source_file>
/data/baiqing/PycharmProjects/Reinvent-master-3.2/result/LINK_invent/BTK/process_docking_weight1_custom_sum_contain_oxygen_bond_distance_aromatic_linkinvent_7_9_3/rearranged_h_0080.sdf

> <i_m_source_file_index>
28

> <r_mmod_Potential_Energy-OPLS-2005>
-155.314315795898

> <r_mmod_Stretch_Energy-OPLS-2005>
46.6948509216309

> <r_mmod_Bend_Energy-OPLS-2005>
118.993766784668

> <r_mmod_Torsional_Energy-OPLS-2005>
252.166885375977

> <r_mmod_Improper_Torsional_Energy-OPLS-2005>
6.46641111373901

> <r_mmod_Van_der_Waal_Energy-OPLS-2005>
176.888320922852

> <r_mmod_Electrostatic_Energy-OPLS-2005>
-569.946716308594

> <r_mmod_Solvation_Energy-OPLS-2005>
-197.892074584961

> <b_mmod_Minimization_Converged-OPLS-2005>
0

> <r_mmod_RMS_Derivative-OPLS-2005>
2.90620112419128

$$$$
30
                    3D
 Structure written by MMmdl.
158166  0  0  1  0            999 V2000
  -30.5982  -14.6890   20.4875 C   0  0  0  0  0  0
  -30.4352  -12.4246   19.4470 C   0  0  0  0  0  0
  -29.5015  -12.5039   18.2182 C   0  0  0  0  0  0
  -28.0258  -12.3372   18.6356 C   0  0  0  0  0  0
  -27.6445  -13.2209   19.8531 C   0  0  2  0  0  0
  -28.6919  -13.1026   20.9803 C   0  0  0  0  0  0
  -25.2542  -13.8173   20.5701 C   0  0  0  0  0  0
  -24.1813  -13.0420   20.9211 C   0  0  0  0  0  0
  -24.6401  -11.6906   20.8764 C   0  0  0  0  0  0
  -23.9064  -10.4288   21.0425 C   0  0  0  0  0  0
  -24.3615   -9.4196   21.9199 C   0  0  0  0  0  0
  -23.6293   -8.2233   22.0761 C   0  0  0  0  0  0
  -22.4275   -8.0281   21.3535 C   0  0  0  0  0  0
  -21.9912   -9.0255   20.4642 C   0  0  0  0  0  0
  -22.7246  -10.2140   20.3064 C   0  0  0  0  0  0
  -21.6852   -6.0733   22.5281 C   0  0  0  0  0  0
  -21.4005   -6.5641   23.8209 C   0  0  0  0  0  0
  -21.3662   -5.6799   24.9170 C   0  0  0  0  0  0
  -21.6048   -4.3064   24.7221 C   0  0  0  0  0  0
  -21.8812   -3.8152   23.4346 C   0  0  0  0  0  0
  -21.9187   -4.6964   22.3397 C   0  0  0  0  0  0
  -22.7838  -13.5220   21.1858 C   0  0  0  0  0  0
  -22.1660   -4.2155   21.0971 F   0  0  0  0  0  0
  -21.5635   -3.4533   25.7734 F   0  0  0  0  0  0
  -29.9939  -13.4597   20.4024 N   0  0  0  0  0  0
  -26.2950  -12.9356   20.3285 N   0  0  0  0  0  0
  -25.9316  -11.6523   20.5741 N   0  0  0  0  0  0
  -22.0481  -12.8210   22.0426 N   0  0  0  0  0  0
  -25.4241  -15.1881   20.4097 N   0  0  0  0  0  0
  -31.7846  -14.8378   20.1814 O   0  0  0  0  0  0
  -21.6635   -6.8873   21.4235 O   0  0  0  0  0  0
  -22.3533  -14.5528   20.6723 O   0  0  0  0  0  0
  -24.6283  -31.8593   23.2033 C   0  0  0  0  0  0
  -25.9101  -32.4783   23.8364 C   0  0  1  0  0  0
  -27.1956  -27.2503   20.1295 C   0  0  0  0  0  0
  -25.5878  -33.8575   24.2278 N   0  0  0  0  0  0
  -23.4257  -30.4833   21.5509 C   0  0  2  0  0  0
  -24.8673  -28.9335   20.1094 C   0  0  0  0  0  0
  -22.7474  -29.4618   22.4961 C   0  0  0  0  0  0
  -18.0294  -28.1341   22.8493 C   0  0  0  0  0  0
  -24.1501  -36.7269   23.2646 C   0  0  0  0  0  0
  -25.9727  -30.7567   21.3973 C   0  0  0  0  0  0
  -26.0387  -29.3841   20.7328 C   0  0  0  0  0  0
  -27.2037  -28.5507   20.7390 C   0  0  0  0  0  0
  -26.0100  -26.8852   19.4534 C   0  0  0  0  0  0
  -24.8598  -27.6939   19.4556 C   0  0  0  0  0  0
  -23.6409  -29.8215   20.1653 C   0  0  0  0  0  0
  -25.4141  -36.3100   24.0333 C   0  0  1  0  0  0
  -20.5888  -28.3680   23.1249 C   0  0  2  0  0  0
  -20.6800  -26.9392   22.5392 C   0  0  0  0  0  0
  -19.5785  -26.6358   21.5195 C   0  0  0  0  0  0
  -18.1949  -26.7900   22.1599 C   0  0  0  0  0  0
  -19.1543  -28.8818   23.2884 C   0  0  0  0  0  0
  -18.9465  -30.1404   23.8936 C   0  0  0  0  0  0
  -17.6476  -30.6579   24.0524 C   0  0  0  0  0  0
  -25.9060  -34.9451   23.5130 C   0  0  0  0  0  0
  -16.5358  -29.9062   23.6321 C   0  0  0  0  0  0
  -16.7275  -28.6438   23.0402 C   0  0  0  0  0  0
  -26.4488  -31.6591   25.0734 C   0  0  0  0  0  0
  -25.3664  -31.3659   26.1393 C   0  0  0  0  0  0
  -27.0385  -30.3026   24.6216 C   0  0  0  0  0  0
  -27.6105  -32.4291   25.7449 C   0  0  0  0  0  0
  -27.5621  -37.1792   24.8466 C   0  0  0  0  0  0
  -21.4185  -29.3036   22.3636 N   0  0  0  0  0  0
  -26.4351  -37.3766   23.9386 N   0  0  0  0  0  0
  -24.6952  -31.0490   22.1067 N   0  0  0  0  0  0
  -23.4169  -28.8147   23.3056 O   0  0  0  0  0  0
  -28.2688  -26.3321   20.2138 O   0  0  0  0  0  0
  -26.5661  -34.8927   22.4715 O   0  0  0  0  0  0
  -23.5432  -32.1427   23.7301 O   0  0  0  0  0  0
  -29.2186  -21.0465   20.2822 C   0  0  0  0  0  0
  -27.5761  -19.5389   21.1871 C   0  0  0  0  0  0
  -28.7950  -19.6742   20.5077 C   0  0  0  0  0  0
  -28.4478  -22.1850   20.7620 C   0  0  0  0  0  0
  -27.2690  -21.8398   21.4782 C   0  0  0  0  0  0
  -26.3794  -22.8539   22.1797 C   0  0  0  0  0  0
  -30.4264  -18.5450   18.8160 C   0  0  0  0  0  0
  -28.9175  -23.7154   20.6649 C   0  0  0  0  0  0
  -30.0285  -17.2366   20.9981 C   0  0  0  0  0  0
  -28.0016  -24.8646   19.9919 C   0  0  0  0  0  0
  -29.4371  -18.3199   19.9671 C   0  0  1  0  0  0
  -26.8448  -20.5699   21.6485 N   0  0  0  0  0  0
  -29.7727  -15.7612   20.7432 N   0  0  0  0  0  0
  -31.4758  -12.5556   19.1455 H   0  0  0  0  0  0
  -30.3766  -11.4382   19.9085 H   0  0  0  0  0  0
  -29.7701  -11.7377   17.4887 H   0  0  0  0  0  0
  -29.6359  -13.4644   17.7158 H   0  0  0  0  0  0
  -27.8708  -11.2864   18.8826 H   0  0  0  0  0  0
  -27.3676  -12.5515   17.7925 H   0  0  0  0  0  0
  -27.6521  -14.2494   19.4947 H   0  0  0  0  0  0
  -28.7184  -12.0846   21.3724 H   0  0  0  0  0  0
  -28.4361  -13.7446   21.8256 H   0  0  0  0  0  0
  -25.2759   -9.5677   22.4781 H   0  0  0  0  0  0
  -23.9996   -7.4619   22.7491 H   0  0  0  0  0  0
  -21.0831   -8.8774   19.8947 H   0  0  0  0  0  0
  -22.3693  -10.9685   19.6175 H   0  0  0  0  0  0
  -21.1996   -7.6153   23.9705 H   0  0  0  0  0  0
  -21.1497   -6.0537   25.9081 H   0  0  0  0  0  0
  -22.0595   -2.7615   23.2839 H   0  0  0  0  0  0
  -22.4100  -11.9855   22.4786 H   0  0  0  0  0  0
  -21.1104  -13.1239   22.2642 H   0  0  0  0  0  0
  -24.6488  -15.8360   20.5001 H   0  0  0  0  0  0
  -26.2552  -15.6207   20.0321 H   0  0  0  0  0  0
  -26.7146  -32.5456   23.1079 H   0  0  0  0  0  0
  -24.9922  -33.9647   25.0358 H   0  0  0  0  0  0
  -22.7225  -31.3072   21.4129 H   0  0  0  0  0  0
  -23.3800  -35.9572   23.3322 H   0  0  0  0  0  0
  -24.3583  -36.8871   22.2062 H   0  0  0  0  0  0
  -23.7190  -37.6445   23.6665 H   0  0  0  0  0  0
  -26.1227  -31.5162   20.6314 H   0  0  0  0  0  0
  -26.8465  -30.7957   22.0359 H   0  0  0  0  0  0
  -28.0938  -28.8699   21.2640 H   0  0  0  0  0  0
  -25.9343  -25.9453   18.9270 H   0  0  0  0  0  0
  -23.9657  -27.3485   18.9523 H   0  0  0  0  0  0
  -23.7588  -30.6040   19.4150 H   0  0  0  0  0  0
  -22.7560  -29.2558   19.8703 H   0  0  0  0  0  0
  -25.1317  -36.2008   25.0832 H   0  0  0  0  0  0
  -21.0000  -28.3306   24.1361 H   0  0  0  0  0  0
  -20.5694  -26.2289   23.3608 H   0  0  0  0  0  0
  -21.6675  -26.7418   22.1194 H   0  0  0  0  0  0
  -19.6949  -25.6262   21.1240 H   0  0  0  0  0  0
  -19.6741  -27.3165   20.6721 H   0  0  0  0  0  0
  -17.4221  -26.6631   21.4007 H   0  0  0  0  0  0
  -18.0351  -26.0024   22.8976 H   0  0  0  0  0  0
  -19.7945  -30.7162   24.2385 H   0  0  0  0  0  0
  -17.5043  -31.6300   24.5060 H   0  0  0  0  0  0
  -15.5358  -30.2977   23.7638 H   0  0  0  0  0  0
  -15.8664  -28.0732   22.7194 H   0  0  0  0  0  0
  -24.5894  -30.6981   25.7603 H   0  0  0  0  0  0
  -24.8739  -32.2777   26.4816 H   0  0  0  0  0  0
  -25.7907  -30.8784   27.0170 H   0  0  0  0  0  0
  -26.2983  -29.6704   24.1295 H   0  0  0  0  0  0
  -27.4138  -29.7355   25.4740 H   0  0  0  0  0  0
  -27.8840  -30.4319   23.9450 H   0  0  0  0  0  0
  -27.2832  -33.3653   26.1991 H   0  0  0  0  0  0
  -28.3923  -32.6713   25.0228 H   0  0  0  0  0  0
  -28.0780  -31.8393   26.5345 H   0  0  0  0  0  0
  -28.2635  -38.0106   24.7575 H   0  0  0  0  0  0
  -28.1143  -36.2624   24.6292 H   0  0  0  0  0  0
  -27.2302  -37.1410   25.8860 H   0  0  0  0  0  0
  -20.9356  -29.8689   21.6794 H   0  0  0  0  0  0
  -26.0275  -38.2860   24.1384 H   0  0  0  0  0  0
  -30.1421  -21.2286   19.7513 H   0  0  0  0  0  0
  -27.1519  -18.5580   21.3440 H   0  0  0  0  0  0
  -26.9291  -23.7337   22.5106 H   0  0  0  0  0  0
  -25.9228  -22.4218   23.0738 H   0  0  0  0  0  0
  -25.5629  -23.1674   21.5278 H   0  0  0  0  0  0
  -29.9692  -19.0940   17.9923 H   0  0  0  0  0  0
  -30.7639  -17.5902   18.4087 H   0  0  0  0  0  0
  -31.3086  -19.0923   19.1438 H   0  0  0  0  0  0
  -29.8985  -23.7391   20.1915 H   0  0  0  0  0  0
  -29.1025  -24.0275   21.6928 H   0  0  0  0  0  0
  -29.5920  -17.4301   21.9782 H   0  0  0  0  0  0
  -31.0987  -17.4062   21.1348 H   0  0  0  0  0  0
  -26.9822  -24.6500   20.3001 H   0  0  0  0  0  0
  -28.0186  -24.7005   18.9124 H   0  0  0  0  0  0
  -28.5836  -17.8159   19.5064 H   0  0  0  0  0  0
  -28.8137  -15.4856   20.8893 H   0  0  0  0  0  0
  1 25  1  0  0  0
  1 30  2  0  0  0
  1 83  1  0  0  0
  2  3  1  0  0  0
  2 25  1  0  0  0
  2 84  1  0  0  0
  2 85  1  0  0  0
  3  4  1  0  0  0
  3 86  1  0  0  0
  3 87  1  0  0  0
  4  5  1  0  0  0
  4 88  1  0  0  0
  4 89  1  0  0  0
  5  6  1  0  0  0
  5 26  1  0  0  0
  5 90  1  0  0  0
  6 25  1  0  0  0
  6 91  1  0  0  0
  6 92  1  0  0  0
  7  8  2  0  0  0
  7 26  1  0  0  0
  7 29  1  0  0  0
  8  9  1  0  0  0
  8 22  1  0  0  0
  9 10  1  0  0  0
  9 27  2  0  0  0
 10 11  2  0  0  0
 10 15  1  0  0  0
 11 12  1  0  0  0
 11 93  1  0  0  0
 12 13  2  0  0  0
 12 94  1  0  0  0
 13 14  1  0  0  0
 13 31  1  0  0  0
 14 15  2  0  0  0
 14 95  1  0  0  0
 15 96  1  0  0  0
 16 17  2  0  0  0
 16 21  1  0  0  0
 16 31  1  0  0  0
 17 18  1  0  0  0
 17 97  1  0  0  0
 18 19  2  0  0  0
 18 98  1  0  0  0
 19 20  1  0  0  0
 19 24  1  0  0  0
 20 21  2  0  0  0
 20 99  1  0  0  0
 21 23  1  0  0  0
 22 28  1  0  0  0
 22 32  2  0  0  0
 26 27  1  0  0  0
 28100  1  0  0  0
 28101  1  0  0  0
 29102  1  0  0  0
 29103  1  0  0  0
 33 34  1  0  0  0
 33 66  1  0  0  0
 33 70  2  0  0  0
 34 36  1  0  0  0
 34 59  1  0  0  0
 34104  1  0  0  0
 35 44  2  0  0  0
 35 45  1  0  0  0
 35 68  1  0  0  0
 36 56  1  0  0  0
 36105  1  0  0  0
 37 39  1  0  0  0
 37 47  1  0  0  0
 37 66  1  0  0  0
 37106  1  0  0  0
 38 43  2  0  0  0
 38 46  1  0  0  0
 38 47  1  0  0  0
 39 64  1  0  0  0
 39 67  2  0  0  0
 40 52  1  0  0  0
 40 53  2  0  0  0
 40 58  1  0  0  0
 41107  1  0  0  0
 41108  1  0  0  0
 41109  1  0  0  0
 41 48  1  0  0  0
 42 43  1  0  0  0
 42 66  1  0  0  0
 42110  1  0  0  0
 42111  1  0  0  0
 43 44  1  0  0  0
 44112  1  0  0  0
 45 46  2  0  0  0
 45113  1  0  0  0
 46114  1  0  0  0
 47115  1  0  0  0
 47116  1  0  0  0
 48 56  1  0  0  0
 48 65  1  0  0  0
 48117  1  0  0  0
 49 50  1  0  0  0
 49 53  1  0  0  0
 49 64  1  0  0  0
 49118  1  0  0  0
 50 51  1  0  0  0
 50119  1  0  0  0
 50120  1  0  0  0
 51 52  1  0  0  0
 51121  1  0  0  0
 51122  1  0  0  0
 52123  1  0  0  0
 52124  1  0  0  0
 53 54  1  0  0  0
 54 55  2  0  0  0
 54125  1  0  0  0
 55 57  1  0  0  0
 55126  1  0  0  0
 56 69  2  0  0  0
 57 58  2  0  0  0
 57127  1  0  0  0
 58128  1  0  0  0
 59 60  1  0  0  0
 59 61  1  0  0  0
 59 62  1  0  0  0
 60129  1  0  0  0
 60130  1  0  0  0
 60131  1  0  0  0
 61132  1  0  0  0
 61133  1  0  0  0
 61134  1  0  0  0
 62135  1  0  0  0
 62136  1  0  0  0
 62137  1  0  0  0
 63 65  1  0  0  0
 63138  1  0  0  0
 63139  1  0  0  0
 63140  1  0  0  0
 64141  1  0  0  0
 65142  1  0  0  0
 68 80  1  0  0  0
 71 73  2  0  0  0
 71 74  1  0  0  0
 71143  1  0  0  0
 72 73  1  0  0  0
 72 82  2  0  0  0
 72144  1  0  0  0
 73 81  1  0  0  0
 74 75  2  0  0  0
 74 78  1  0  0  0
 75 76  1  0  0  0
 75 82  1  0  0  0
 76145  1  0  0  0
 76146  1  0  0  0
 76147  1  0  0  0
 77148  1  0  0  0
 77149  1  0  0  0
 77150  1  0  0  0
 77 81  1  0  0  0
 78 80  1  0  0  0
 78151  1  0  0  0
 78152  1  0  0  0
 79 81  1  0  0  0
 79 83  1  0  0  0
 79153  1  0  0  0
 79154  1  0  0  0
 80155  1  0  0  0
 80156  1  0  0  0
 81157  1  0  0  0
 83158  1  0  0  0
M  ISO  4   1 100  68 101  80 101  83 100
M  END
> <chiral flag>
0

> <version>
0

> <s_m_source_file>
/data/baiqing/PycharmProjects/Reinvent-master-3.2/result/LINK_invent/BTK/process_docking_weight1_custom_sum_contain_oxygen_bond_distance_aromatic_linkinvent_7_9_3/rearranged_h_0080.sdf

> <i_m_source_file_index>
29

> <r_mmod_Potential_Energy-OPLS-2005>
-64.5548706054688

> <r_mmod_Stretch_Energy-OPLS-2005>
113.753807067871

> <r_mmod_Bend_Energy-OPLS-2005>
164.779449462891

> <r_mmod_Torsional_Energy-OPLS-2005>
222.912994384766

> <r_mmod_Improper_Torsional_Energy-OPLS-2005>
5.4964280128479

> <r_mmod_Van_der_Waal_Energy-OPLS-2005>
142.433334350586

> <r_mmod_Electrostatic_Energy-OPLS-2005>
-573.420471191406

> <r_mmod_Solvation_Energy-OPLS-2005>
-221.10920715332

> <b_mmod_Minimization_Converged-OPLS-2005>
0

> <r_mmod_RMS_Derivative-OPLS-2005>
4.07181119918823

$$$$
31
                    3D
 Structure written by MMmdl.
149157  0  0  1  0            999 V2000
  -30.6316  -14.7418   20.4557 C   0  0  0  0  0  0
  -30.4252  -12.4545   19.4745 C   0  0  0  0  0  0
  -29.5074  -12.5008   18.2345 C   0  0  0  0  0  0
  -28.0326  -12.3329   18.6474 C   0  0  0  0  0  0
  -27.6384  -13.2369   19.8467 C   0  0  2  0  0  0
  -28.6835  -13.1849   20.9818 C   0  0  0  0  0  0
  -25.2495  -13.8213   20.5708 C   0  0  0  0  0  0
  -24.1794  -13.0446   20.9220 C   0  0  0  0  0  0
  -24.6394  -11.6928   20.8754 C   0  0  0  0  0  0
  -23.9071  -10.4300   21.0408 C   0  0  0  0  0  0
  -24.3622   -9.4214   21.9185 C   0  0  0  0  0  0
  -23.6300   -8.2244   22.0747 C   0  0  0  0  0  0
  -22.4282   -8.0279   21.3537 C   0  0  0  0  0  0
  -21.9919   -9.0254   20.4641 C   0  0  0  0  0  0
  -22.7243  -10.2138   20.3056 C   0  0  0  0  0  0
  -21.6856   -6.0738   22.5280 C   0  0  0  0  0  0
  -21.4008   -6.5639   23.8213 C   0  0  0  0  0  0
  -21.3666   -5.6791   24.9176 C   0  0  0  0  0  0
  -21.6053   -4.3054   24.7225 C   0  0  0  0  0  0
  -21.8818   -3.8146   23.4346 C   0  0  0  0  0  0
  -21.9192   -4.6963   22.3404 C   0  0  0  0  0  0
  -22.7813  -13.5219   21.1879 C   0  0  0  0  0  0
  -22.1662   -4.2149   21.0980 F   0  0  0  0  0  0
  -21.5634   -3.4537   25.7737 F   0  0  0  0  0  0
  -29.9820  -13.5292   20.3933 N   0  0  0  0  0  0
  -26.2923  -12.9432   20.3277 N   0  0  0  0  0  0
  -25.9325  -11.6568   20.5752 N   0  0  0  0  0  0
  -22.0457  -12.8206   22.0436 N   0  0  0  0  0  0
  -25.4175  -15.1939   20.4130 N   0  0  0  0  0  0
  -31.8277  -14.8005   20.1584 O   0  0  0  0  0  0
  -21.6641   -6.8880   21.4241 O   0  0  0  0  0  0
  -22.3498  -14.5525   20.6728 O   0  0  0  0  0  0
  -24.6324  -31.8534   23.1964 C   0  0  0  0  0  0
  -25.9145  -32.4742   23.8317 C   0  0  1  0  0  0
  -27.2193  -27.2531   20.1210 C   0  0  0  0  0  0
  -25.5933  -33.8545   24.2236 N   0  0  0  0  0  0
  -23.4283  -30.4761   21.5400 C   0  0  2  0  0  0
  -24.8730  -28.9212   20.1080 C   0  0  0  0  0  0
  -22.7506  -29.4591   22.4903 C   0  0  0  0  0  0
  -18.0290  -28.1387   22.8483 C   0  0  0  0  0  0
  -24.1491  -36.7278   23.2641 C   0  0  0  0  0  0
  -25.9748  -30.7637   21.3770 C   0  0  0  0  0  0
  -26.0445  -29.3866   20.7161 C   0  0  0  0  0  0
  -27.2166  -28.5645   20.7109 C   0  0  0  0  0  0
  -26.0164  -26.8498   19.4981 C   0  0  0  0  0  0
  -24.8644  -27.6615   19.4901 C   0  0  0  0  0  0
  -23.6447  -29.8091   20.1561 C   0  0  0  0  0  0
  -25.4121  -36.3062   24.0319 C   0  0  1  0  0  0
  -20.5893  -28.3699   23.1264 C   0  0  2  0  0  0
  -20.6777  -26.9416   22.5406 C   0  0  0  0  0  0
  -19.5750  -26.6380   21.5213 C   0  0  0  0  0  0
  -18.1931  -26.7928   22.1625 C   0  0  0  0  0  0
  -19.1544  -28.8861   23.2865 C   0  0  0  0  0  0
  -18.9465  -30.1460   23.8887 C   0  0  0  0  0  0
  -17.6464  -30.6587   24.0562 C   0  0  0  0  0  0
  -25.9062  -34.9431   23.5080 C   0  0  0  0  0  0
  -16.5354  -29.9085   23.6333 C   0  0  0  0  0  0
  -16.7276  -28.6500   23.0356 C   0  0  0  0  0  0
  -26.4507  -31.6584   25.0720 C   0  0  0  0  0  0
  -25.3720  -31.3745   26.1435 C   0  0  0  0  0  0
  -27.0362  -30.2996   24.6234 C   0  0  0  0  0  0
  -27.6050  -32.4342   25.7502 C   0  0  0  0  0  0
  -27.5579  -37.1798   24.8463 C   0  0  0  0  0  0
  -21.4212  -29.3040   22.3650 N   0  0  0  0  0  0
  -26.4292  -37.3765   23.9404 N   0  0  0  0  0  0
  -24.6975  -31.0498   22.0939 N   0  0  0  0  0  0
  -23.4203  -28.8134   23.3006 O   0  0  0  0  0  0
  -28.3382  -26.3884   20.2048 O   0  0  0  0  0  0
  -26.5639  -34.8910   22.4655 O   0  0  0  0  0  0
  -23.5471  -32.1353   23.7263 O   0  0  0  0  0  0
  -30.0669  -19.9005   19.9006 C   0  0  0  0  0  0
  -29.6929  -18.6839   20.4662 C   0  0  0  0  0  0
  -30.5036  -17.3195   20.5267 C   0  0  0  0  0  0
  -28.5627  -23.6221   20.4478 C   0  0  0  0  0  0
  -28.9007  -22.2787   19.6014 C   0  0  0  0  0  0
  -28.4160  -25.0081   19.6051 C   0  0  0  0  0  0
  -28.4738  -18.9696   21.0994 N   0  0  0  0  0  0
  -28.1181  -20.2327   20.9095 N   0  0  0  0  0  0
  -29.0833  -20.8727   20.1876 N   0  0  0  0  0  0
  -29.9128  -15.9157   20.6326 N   0  0  0  0  0  0
  -31.4670  -12.5691   19.1712 H   0  0  0  0  0  0
  -30.3621  -11.4823   19.9667 H   0  0  0  0  0  0
  -29.7881  -11.7188   17.5280 H   0  0  0  0  0  0
  -29.6395  -13.4499   17.7126 H   0  0  0  0  0  0
  -27.8857  -11.2851   18.9118 H   0  0  0  0  0  0
  -27.3771  -12.5256   17.7972 H   0  0  0  0  0  0
  -27.6294  -14.2569   19.4616 H   0  0  0  0  0  0
  -28.7192  -12.1940   21.4359 H   0  0  0  0  0  0
  -28.4226  -13.8818   21.7795 H   0  0  0  0  0  0
  -25.2766   -9.5697   22.4762 H   0  0  0  0  0  0
  -24.0014   -7.4638   22.7469 H   0  0  0  0  0  0
  -21.0849   -8.8778   19.8948 H   0  0  0  0  0  0
  -22.3700  -10.9679   19.6168 H   0  0  0  0  0  0
  -21.1989   -7.6144   23.9718 H   0  0  0  0  0  0
  -21.1494   -6.0517   25.9082 H   0  0  0  0  0  0
  -22.0591   -2.7605   23.2844 H   0  0  0  0  0  0
  -22.4067  -11.9870   22.4836 H   0  0  0  0  0  0
  -21.1068  -13.1227   22.2626 H   0  0  0  0  0  0
  -24.6496  -15.8461   20.5298 H   0  0  0  0  0  0
  -26.2645  -15.6388   20.0827 H   0  0  0  0  0  0
  -26.7215  -32.5387   23.1058 H   0  0  0  0  0  0
  -25.0072  -33.9677   25.0375 H   0  0  0  0  0  0
  -22.7254  -31.2988   21.3947 H   0  0  0  0  0  0
  -23.3748  -35.9615   23.3299 H   0  0  0  0  0  0
  -24.3576  -36.8907   22.2057 H   0  0  0  0  0  0
  -23.7250  -37.6476   23.6676 H   0  0  0  0  0  0
  -26.1179  -31.5267   20.6106 H   0  0  0  0  0  0
  -26.8509  -30.8088   22.0128 H   0  0  0  0  0  0
  -28.1151  -28.9176   21.1977 H   0  0  0  0  0  0
  -25.9125  -25.8811   19.0380 H   0  0  0  0  0  0
  -23.9624  -27.2957   19.0184 H   0  0  0  0  0  0
  -23.7694  -30.5843   19.3992 H   0  0  0  0  0  0
  -22.7627  -29.2423   19.8519 H   0  0  0  0  0  0
  -25.1309  -36.1907   25.0812 H   0  0  0  0  0  0
  -20.9987  -28.3285   24.1383 H   0  0  0  0  0  0
  -20.5676  -26.2317   23.3615 H   0  0  0  0  0  0
  -21.6645  -26.7434   22.1204 H   0  0  0  0  0  0
  -19.6908  -25.6288   21.1250 H   0  0  0  0  0  0
  -19.6683  -27.3185   20.6738 H   0  0  0  0  0  0
  -17.4202  -26.6675   21.4026 H   0  0  0  0  0  0
  -18.0326  -26.0075   22.9026 H   0  0  0  0  0  0
  -19.7941  -30.7275   24.2253 H   0  0  0  0  0  0
  -17.5020  -31.6267   24.5165 H   0  0  0  0  0  0
  -15.5354  -30.2984   23.7658 H   0  0  0  0  0  0
  -15.8677  -28.0811   22.7079 H   0  0  0  0  0  0
  -24.5890  -30.7103   25.7761 H   0  0  0  0  0  0
  -24.8915  -32.2918   26.4852 H   0  0  0  0  0  0
  -25.8022  -30.8924   27.0222 H   0  0  0  0  0  0
  -26.2954  -29.6738   24.1247 H   0  0  0  0  0  0
  -27.4010  -29.7280   25.4781 H   0  0  0  0  0  0
  -27.8847  -30.4254   23.9504 H   0  0  0  0  0  0
  -27.2637  -33.3643   26.2062 H   0  0  0  0  0  0
  -28.3868  -32.6907   25.0338 H   0  0  0  0  0  0
  -28.0714  -31.8485   26.5434 H   0  0  0  0  0  0
  -28.2597  -38.0095   24.7508 H   0  0  0  0  0  0
  -28.1071  -36.2623   24.6293 H   0  0  0  0  0  0
  -27.2289  -37.1451   25.8863 H   0  0  0  0  0  0
  -20.9407  -29.8766   21.6851 H   0  0  0  0  0  0
  -26.0160  -38.2835   24.1405 H   0  0  0  0  0  0
  -30.9398  -20.1474   19.3078 H   0  0  0  0  0  0
  -31.1981  -17.3965   21.3644 H   0  0  0  0  0  0
  -31.1542  -17.3020   19.6509 H   0  0  0  0  0  0
  -29.3460  -23.7559   21.1937 H   0  0  0  0  0  0
  -27.6435  -23.4597   21.0108 H   0  0  0  0  0  0
  -29.8071  -22.4871   19.0323 H   0  0  0  0  0  0
  -28.1222  -22.1802   18.8445 H   0  0  0  0  0  0
  -27.6593  -24.8567   18.8407 H   0  0  0  0  0  0
  -29.3301  -25.0651   19.0141 H   0  0  0  0  0  0
  -28.9238  -15.8484   20.8152 H   0  0  0  0  0  0
  1 25  1  0  0  0
  1 30  2  0  0  0
  1 80  1  0  0  0
  2  3  1  0  0  0
  2 25  1  0  0  0
  2 81  1  0  0  0
  2 82  1  0  0  0
  3  4  1  0  0  0
  3 83  1  0  0  0
  3 84  1  0  0  0
  4  5  1  0  0  0
  4 85  1  0  0  0
  4 86  1  0  0  0
  5  6  1  0  0  0
  5 26  1  0  0  0
  5 87  1  0  0  0
  6 25  1  0  0  0
  6 88  1  0  0  0
  6 89  1  0  0  0
  7  8  2  0  0  0
  7 26  1  0  0  0
  7 29  1  0  0  0
  8  9  1  0  0  0
  8 22  1  0  0  0
  9 10  1  0  0  0
  9 27  2  0  0  0
 10 11  2  0  0  0
 10 15  1  0  0  0
 11 12  1  0  0  0
 11 90  1  0  0  0
 12 13  2  0  0  0
 12 91  1  0  0  0
 13 14  1  0  0  0
 13 31  1  0  0  0
 14 15  2  0  0  0
 14 92  1  0  0  0
 15 93  1  0  0  0
 16 17  2  0  0  0
 16 21  1  0  0  0
 16 31  1  0  0  0
 17 18  1  0  0  0
 17 94  1  0  0  0
 18 19  2  0  0  0
 18 95  1  0  0  0
 19 20  1  0  0  0
 19 24  1  0  0  0
 20 21  2  0  0  0
 20 96  1  0  0  0
 21 23  1  0  0  0
 22 28  1  0  0  0
 22 32  2  0  0  0
 26 27  1  0  0  0
 28 97  1  0  0  0
 28 98  1  0  0  0
 29 99  1  0  0  0
 29100  1  0  0  0
 33 34  1  0  0  0
 33 66  1  0  0  0
 33 70  2  0  0  0
 34 36  1  0  0  0
 34 59  1  0  0  0
 34101  1  0  0  0
 35 44  2  0  0  0
 35 45  1  0  0  0
 35 68  1  0  0  0
 36 56  1  0  0  0
 36102  1  0  0  0
 37 39  1  0  0  0
 37 47  1  0  0  0
 37 66  1  0  0  0
 37103  1  0  0  0
 38 43  2  0  0  0
 38 46  1  0  0  0
 38 47  1  0  0  0
 39 64  1  0  0  0
 39 67  2  0  0  0
 40 52  1  0  0  0
 40 53  2  0  0  0
 40 58  1  0  0  0
 41104  1  0  0  0
 41105  1  0  0  0
 41106  1  0  0  0
 41 48  1  0  0  0
 42 43  1  0  0  0
 42 66  1  0  0  0
 42107  1  0  0  0
 42108  1  0  0  0
 43 44  1  0  0  0
 44109  1  0  0  0
 45 46  2  0  0  0
 45110  1  0  0  0
 46111  1  0  0  0
 47112  1  0  0  0
 47113  1  0  0  0
 48 56  1  0  0  0
 48 65  1  0  0  0
 48114  1  0  0  0
 49 50  1  0  0  0
 49 53  1  0  0  0
 49 64  1  0  0  0
 49115  1  0  0  0
 50 51  1  0  0  0
 50116  1  0  0  0
 50117  1  0  0  0
 51 52  1  0  0  0
 51118  1  0  0  0
 51119  1  0  0  0
 52120  1  0  0  0
 52121  1  0  0  0
 53 54  1  0  0  0
 54 55  2  0  0  0
 54122  1  0  0  0
 55 57  1  0  0  0
 55123  1  0  0  0
 56 69  2  0  0  0
 57 58  2  0  0  0
 57124  1  0  0  0
 58125  1  0  0  0
 59 60  1  0  0  0
 59 61  1  0  0  0
 59 62  1  0  0  0
 60126  1  0  0  0
 60127  1  0  0  0
 60128  1  0  0  0
 61129  1  0  0  0
 61130  1  0  0  0
 61131  1  0  0  0
 62132  1  0  0  0
 62133  1  0  0  0
 62134  1  0  0  0
 63 65  1  0  0  0
 63135  1  0  0  0
 63136  1  0  0  0
 63137  1  0  0  0
 64138  1  0  0  0
 65139  1  0  0  0
 68 76  1  0  0  0
 71 72  2  0  0  0
 71 79  1  0  0  0
 71140  1  0  0  0
 72 73  1  0  0  0
 72 77  1  0  0  0
 73 80  1  0  0  0
 73141  1  0  0  0
 73142  1  0  0  0
 74 75  1  0  0  0
 74 76  1  0  0  0
 74143  1  0  0  0
 74144  1  0  0  0
 75 79  1  0  0  0
 75145  1  0  0  0
 75146  1  0  0  0
 76147  1  0  0  0
 76148  1  0  0  0
 77 78  2  0  0  0
 78 79  1  0  0  0
 80149  1  0  0  0
M  ISO  4   1 100  68 101  76 101  80 100
M  END
> <chiral flag>
0

> <version>
0

> <s_m_source_file>
/data/baiqing/PycharmProjects/Reinvent-master-3.2/result/LINK_invent/BTK/process_docking_weight1_custom_sum_contain_oxygen_bond_distance_aromatic_linkinvent_7_9_3/rearranged_h_0080.sdf

> <i_m_source_file_index>
30

> <r_mmod_Potential_Energy-OPLS-2005>
39.1345252990723

> <r_mmod_Stretch_Energy-OPLS-2005>
118.984062194824

> <r_mmod_Bend_Energy-OPLS-2005>
200.068084716797

> <r_mmod_Torsional_Energy-OPLS-2005>
207.180786132812

> <r_mmod_Improper_Torsional_Energy-OPLS-2005>
6.32322549819946

> <r_mmod_Van_der_Waal_Energy-OPLS-2005>
117.808067321777

> <r_mmod_Electrostatic_Energy-OPLS-2005>
-470.561828613281

> <r_mmod_Solvation_Energy-OPLS-2005>
-226.805282592773

> <b_mmod_Minimization_Converged-OPLS-2005>
0

> <r_mmod_RMS_Derivative-OPLS-2005>
0.836115419864655

$$$$
32
                    3D
 Structure written by MMmdl.
154162  0  0  1  0            999 V2000
  -30.5850  -14.7225   20.4745 C   0  0  0  0  0  0
  -30.4366  -12.4393   19.4722 C   0  0  0  0  0  0
  -29.5107  -12.5080   18.2361 C   0  0  0  0  0  0
  -28.0370  -12.3274   18.6496 C   0  0  0  0  0  0
  -27.6458  -13.2203   19.8566 C   0  0  2  0  0  0
  -28.6864  -13.1228   20.9938 C   0  0  0  0  0  0
  -25.2530  -13.8173   20.5673 C   0  0  0  0  0  0
  -24.1807  -13.0436   20.9189 C   0  0  0  0  0  0
  -24.6383  -11.6909   20.8736 C   0  0  0  0  0  0
  -23.9058  -10.4289   21.0410 C   0  0  0  0  0  0
  -24.3615   -9.4204   21.9186 C   0  0  0  0  0  0
  -23.6289   -8.2241   22.0755 C   0  0  0  0  0  0
  -22.4269   -8.0280   21.3548 C   0  0  0  0  0  0
  -21.9912   -9.0251   20.4646 C   0  0  0  0  0  0
  -22.7239  -10.2128   20.3055 C   0  0  0  0  0  0
  -21.6849   -6.0731   22.5278 C   0  0  0  0  0  0
  -21.4014   -6.5640   23.8210 C   0  0  0  0  0  0
  -21.3656   -5.6794   24.9171 C   0  0  0  0  0  0
  -21.6046   -4.3055   24.7226 C   0  0  0  0  0  0
  -21.8819   -3.8147   23.4348 C   0  0  0  0  0  0
  -21.9193   -4.6962   22.3402 C   0  0  0  0  0  0
  -22.7832  -13.5227   21.1865 C   0  0  0  0  0  0
  -22.1663   -4.2151   21.0981 F   0  0  0  0  0  0
  -21.5627   -3.4540   25.7739 F   0  0  0  0  0  0
  -29.9946  -13.4805   20.4277 N   0  0  0  0  0  0
  -26.2945  -12.9356   20.3279 N   0  0  0  0  0  0
  -25.9309  -11.6510   20.5747 N   0  0  0  0  0  0
  -22.0482  -12.8203   22.0414 N   0  0  0  0  0  0
  -25.4253  -15.1892   20.4075 N   0  0  0  0  0  0
  -31.7487  -14.8767   20.0877 O   0  0  0  0  0  0
  -21.6635   -6.8875   21.4240 O   0  0  0  0  0  0
  -22.3527  -14.5543   20.6727 O   0  0  0  0  0  0
  -24.6321  -31.8554   23.2006 C   0  0  0  0  0  0
  -25.9149  -32.4750   23.8349 C   0  0  1  0  0  0
  -27.2079  -27.2525   20.1202 C   0  0  0  0  0  0
  -25.5948  -33.8556   24.2272 N   0  0  0  0  0  0
  -23.4276  -30.4823   21.5429 C   0  0  2  0  0  0
  -24.8733  -28.9351   20.1065 C   0  0  0  0  0  0
  -22.7507  -29.4602   22.4889 C   0  0  0  0  0  0
  -18.0283  -28.1384   22.8458 C   0  0  0  0  0  0
  -24.1490  -36.7281   23.2637 C   0  0  0  0  0  0
  -25.9767  -30.7622   21.3867 C   0  0  0  0  0  0
  -26.0439  -29.3864   20.7260 C   0  0  0  0  0  0
  -27.2106  -28.5542   20.7301 C   0  0  0  0  0  0
  -26.0187  -26.8885   19.4461 C   0  0  0  0  0  0
  -24.8658  -27.6940   19.4582 C   0  0  0  0  0  0
  -23.6472  -29.8248   20.1563 C   0  0  0  0  0  0
  -25.4118  -36.3071   24.0328 C   0  0  1  0  0  0
  -20.5891  -28.3700   23.1248 C   0  0  2  0  0  0
  -20.6779  -26.9410   22.5399 C   0  0  0  0  0  0
  -19.5759  -26.6373   21.5200 C   0  0  0  0  0  0
  -18.1930  -26.7917   22.1601 C   0  0  0  0  0  0
  -19.1543  -28.8855   23.2841 C   0  0  0  0  0  0
  -18.9479  -30.1451   23.8866 C   0  0  0  0  0  0
  -17.6485  -30.6578   24.0564 C   0  0  0  0  0  0
  -25.9062  -34.9439   23.5103 C   0  0  0  0  0  0
  -16.5369  -29.9077   23.6345 C   0  0  0  0  0  0
  -16.7274  -28.6508   23.0339 C   0  0  0  0  0  0
  -26.4517  -31.6578   25.0742 C   0  0  0  0  0  0
  -25.3732  -31.3740   26.1462 C   0  0  0  0  0  0
  -27.0391  -30.2998   24.6251 C   0  0  0  0  0  0
  -27.6076  -32.4327   25.7501 C   0  0  0  0  0  0
  -27.5583  -37.1787   24.8458 C   0  0  0  0  0  0
  -21.4214  -29.3048   22.3644 N   0  0  0  0  0  0
  -26.4287  -37.3774   23.9416 N   0  0  0  0  0  0
  -24.6977  -31.0512   22.0993 N   0  0  0  0  0  0
  -23.4201  -28.8133   23.2989 O   0  0  0  0  0  0
  -28.3000  -26.3523   20.2084 O   0  0  0  0  0  0
  -26.5628  -34.8906   22.4662 O   0  0  0  0  0  0
  -23.5475  -32.1397   23.7293 O   0  0  0  0  0  0
  -29.1113  -18.2849   21.0895 C   0  0  0  0  0  0
  -29.9051  -17.2567   20.5730 C   0  0  0  0  0  0
  -30.6321  -19.2397   19.7961 C   0  0  0  0  0  0
  -31.4754  -20.2341   19.0664 C   0  0  0  0  0  0
  -28.8373  -22.1753   20.0815 C   0  0  0  0  0  0
  -28.8252  -23.6954   20.6614 C   0  0  0  0  0  0
  -29.2046  -20.9512   21.0757 C   0  0  0  0  0  0
  -28.1791  -24.9027   19.8045 C   0  0  0  0  0  0
  -29.5910  -19.5196   20.6133 N   0  0  0  0  0  0
  -30.8202  -17.8962   19.7743 N   0  3  0  0  0  0
  -29.7806  -15.7970   20.8102 N   0  0  0  0  0  0
  -31.4773  -12.5711   19.1723 H   0  0  0  0  0  0
  -30.3813  -11.4529   19.9360 H   0  0  0  0  0  0
  -29.7907  -11.7425   17.5107 H   0  0  0  0  0  0
  -29.6357  -13.4666   17.7303 H   0  0  0  0  0  0
  -27.8977  -11.2771   18.9092 H   0  0  0  0  0  0
  -27.3770  -12.5197   17.8030 H   0  0  0  0  0  0
  -27.6489  -14.2457   19.4874 H   0  0  0  0  0  0
  -28.7132  -12.1126   21.4059 H   0  0  0  0  0  0
  -28.4151  -13.7770   21.8237 H   0  0  0  0  0  0
  -25.2763   -9.5678   22.4760 H   0  0  0  0  0  0
  -23.9999   -7.4632   22.7473 H   0  0  0  0  0  0
  -21.0849   -8.8767   19.8948 H   0  0  0  0  0  0
  -22.3703  -10.9666   19.6161 H   0  0  0  0  0  0
  -21.2004   -7.6147   23.9713 H   0  0  0  0  0  0
  -21.1477   -6.0523   25.9074 H   0  0  0  0  0  0
  -22.0602   -2.7611   23.2847 H   0  0  0  0  0  0
  -22.4104  -11.9853   22.4778 H   0  0  0  0  0  0
  -21.1110  -13.1235   22.2648 H   0  0  0  0  0  0
  -24.6515  -15.8391   20.4951 H   0  0  0  0  0  0
  -26.2626  -15.6219   20.0402 H   0  0  0  0  0  0
  -26.7214  -32.5394   23.1086 H   0  0  0  0  0  0
  -25.0126  -33.9711   25.0442 H   0  0  0  0  0  0
  -22.7241  -31.3054   21.3983 H   0  0  0  0  0  0
  -23.3766  -35.9598   23.3287 H   0  0  0  0  0  0
  -24.3587  -36.8919   22.2054 H   0  0  0  0  0  0
  -23.7237  -37.6472   23.6679 H   0  0  0  0  0  0
  -26.1215  -31.5227   20.6182 H   0  0  0  0  0  0
  -26.8527  -30.8067   22.0219 H   0  0  0  0  0  0
  -28.1009  -28.8877   21.2445 H   0  0  0  0  0  0
  -25.9277  -25.9663   18.8971 H   0  0  0  0  0  0
  -23.9736  -27.3498   18.9542 H   0  0  0  0  0  0
  -23.7752  -30.6046   19.4048 H   0  0  0  0  0  0
  -22.7647  -29.2620   19.8480 H   0  0  0  0  0  0
  -25.1293  -36.1919   25.0824 H   0  0  0  0  0  0
  -20.9980  -28.3280   24.1369 H   0  0  0  0  0  0
  -20.5675  -26.2306   23.3605 H   0  0  0  0  0  0
  -21.6648  -26.7420   22.1200 H   0  0  0  0  0  0
  -19.6933  -25.6282   21.1231 H   0  0  0  0  0  0
  -19.6704  -27.3173   20.6724 H   0  0  0  0  0  0
  -17.4203  -26.6654   21.3996 H   0  0  0  0  0  0
  -18.0332  -26.0054   22.8998 H   0  0  0  0  0  0
  -19.7965  -30.7265   24.2212 H   0  0  0  0  0  0
  -17.5048  -31.6252   24.5172 H   0  0  0  0  0  0
  -15.5374  -30.2981   23.7686 H   0  0  0  0  0  0
  -15.8669  -28.0836   22.7051 H   0  0  0  0  0  0
  -24.5910  -30.7079   25.7804 H   0  0  0  0  0  0
  -24.8913  -32.2907   26.4871 H   0  0  0  0  0  0
  -25.8041  -30.8938   27.0257 H   0  0  0  0  0  0
  -26.3000  -29.6702   24.1284 H   0  0  0  0  0  0
  -27.4095  -29.7303   25.4788 H   0  0  0  0  0  0
  -27.8858  -30.4286   23.9505 H   0  0  0  0  0  0
  -27.2709  -33.3659   26.2034 H   0  0  0  0  0  0
  -28.3900  -32.6833   25.0325 H   0  0  0  0  0  0
  -28.0723  -31.8470   26.5446 H   0  0  0  0  0  0
  -28.2576  -38.0106   24.7546 H   0  0  0  0  0  0
  -28.1103  -36.2643   24.6237 H   0  0  0  0  0  0
  -27.2299  -37.1378   25.8855 H   0  0  0  0  0  0
  -20.9402  -29.8809   21.6881 H   0  0  0  0  0  0
  -26.0163  -38.2841   24.1447 H   0  0  0  0  0  0
  -28.2843  -18.2386   21.7831 H   0  0  0  0  0  0
  -31.7121  -21.0609   19.7355 H   0  0  0  0  0  0
  -30.9117  -20.5921   18.2051 H   0  0  0  0  0  0
  -32.3951  -19.7545   18.7353 H   0  0  0  0  0  0
  -29.5131  -22.1632   19.2294 H   0  0  0  0  0  0
  -27.8541  -21.9640   19.6578 H   0  0  0  0  0  0
  -29.8532  -23.9637   20.9038 H   0  0  0  0  0  0
  -28.3043  -23.6773   21.6189 H   0  0  0  0  0  0
  -28.3729  -20.8301   21.7706 H   0  0  0  0  0  0
  -30.0371  -21.2772   21.6988 H   0  0  0  0  0  0
  -27.1395  -24.6011   19.7266 H   0  0  0  0  0  0
  -28.5752  -24.8419   18.7900 H   0  0  0  0  0  0
  -31.5569  -17.4357   19.2539 H   0  0  0  0  0  0
  -28.9006  -15.5107   21.2108 H   0  0  0  0  0  0
  1 25  1  0  0  0
  1 30  2  0  0  0
  1 81  1  0  0  0
  2  3  1  0  0  0
  2 25  1  0  0  0
  2 82  1  0  0  0
  2 83  1  0  0  0
  3  4  1  0  0  0
  3 84  1  0  0  0
  3 85  1  0  0  0
  4  5  1  0  0  0
  4 86  1  0  0  0
  4 87  1  0  0  0
  5  6  1  0  0  0
  5 26  1  0  0  0
  5 88  1  0  0  0
  6 25  1  0  0  0
  6 89  1  0  0  0
  6 90  1  0  0  0
  7  8  2  0  0  0
  7 26  1  0  0  0
  7 29  1  0  0  0
  8  9  1  0  0  0
  8 22  1  0  0  0
  9 10  1  0  0  0
  9 27  2  0  0  0
 10 11  2  0  0  0
 10 15  1  0  0  0
 11 12  1  0  0  0
 11 91  1  0  0  0
 12 13  2  0  0  0
 12 92  1  0  0  0
 13 14  1  0  0  0
 13 31  1  0  0  0
 14 15  2  0  0  0
 14 93  1  0  0  0
 15 94  1  0  0  0
 16 17  2  0  0  0
 16 21  1  0  0  0
 16 31  1  0  0  0
 17 18  1  0  0  0
 17 95  1  0  0  0
 18 19  2  0  0  0
 18 96  1  0  0  0
 19 20  1  0  0  0
 19 24  1  0  0  0
 20 21  2  0  0  0
 20 97  1  0  0  0
 21 23  1  0  0  0
 22 28  1  0  0  0
 22 32  2  0  0  0
 26 27  1  0  0  0
 28 98  1  0  0  0
 28 99  1  0  0  0
 29100  1  0  0  0
 29101  1  0  0  0
 33 34  1  0  0  0
 33 66  1  0  0  0
 33 70  2  0  0  0
 34 36  1  0  0  0
 34 59  1  0  0  0
 34102  1  0  0  0
 35 44  2  0  0  0
 35 45  1  0  0  0
 35 68  1  0  0  0
 36 56  1  0  0  0
 36103  1  0  0  0
 37 39  1  0  0  0
 37 47  1  0  0  0
 37 66  1  0  0  0
 37104  1  0  0  0
 38 43  2  0  0  0
 38 46  1  0  0  0
 38 47  1  0  0  0
 39 64  1  0  0  0
 39 67  2  0  0  0
 40 52  1  0  0  0
 40 53  2  0  0  0
 40 58  1  0  0  0
 41105  1  0  0  0
 41106  1  0  0  0
 41107  1  0  0  0
 41 48  1  0  0  0
 42 43  1  0  0  0
 42 66  1  0  0  0
 42108  1  0  0  0
 42109  1  0  0  0
 43 44  1  0  0  0
 44110  1  0  0  0
 45 46  2  0  0  0
 45111  1  0  0  0
 46112  1  0  0  0
 47113  1  0  0  0
 47114  1  0  0  0
 48 56  1  0  0  0
 48 65  1  0  0  0
 48115  1  0  0  0
 49 50  1  0  0  0
 49 53  1  0  0  0
 49 64  1  0  0  0
 49116  1  0  0  0
 50 51  1  0  0  0
 50117  1  0  0  0
 50118  1  0  0  0
 51 52  1  0  0  0
 51119  1  0  0  0
 51120  1  0  0  0
 52121  1  0  0  0
 52122  1  0  0  0
 53 54  1  0  0  0
 54 55  2  0  0  0
 54123  1  0  0  0
 55 57  1  0  0  0
 55124  1  0  0  0
 56 69  2  0  0  0
 57 58  2  0  0  0
 57125  1  0  0  0
 58126  1  0  0  0
 59 60  1  0  0  0
 59 61  1  0  0  0
 59 62  1  0  0  0
 60127  1  0  0  0
 60128  1  0  0  0
 60129  1  0  0  0
 61130  1  0  0  0
 61131  1  0  0  0
 61132  1  0  0  0
 62133  1  0  0  0
 62134  1  0  0  0
 62135  1  0  0  0
 63 65  1  0  0  0
 63136  1  0  0  0
 63137  1  0  0  0
 63138  1  0  0  0
 64139  1  0  0  0
 65140  1  0  0  0
 68 78  1  0  0  0
 71 72  2  0  0  0
 71 79  1  0  0  0
 71141  1  0  0  0
 72 80  1  0  0  0
 72 81  1  0  0  0
 73 74  1  0  0  0
 73 79  1  0  0  0
 73 80  2  0  0  0
 74142  1  0  0  0
 74143  1  0  0  0
 74144  1  0  0  0
 75 76  1  0  0  0
 75 77  1  0  0  0
 75145  1  0  0  0
 75146  1  0  0  0
 76 78  1  0  0  0
 76147  1  0  0  0
 76148  1  0  0  0
 77 79  1  0  0  0
 77149  1  0  0  0
 77150  1  0  0  0
 78151  1  0  0  0
 78152  1  0  0  0
 80153  1  0  0  0
 81154  1  0  0  0
M  CHG  1  80   1
M  ISO  4   1 100  68 101  78 101  81 100
M  END
> <chiral flag>
0

> <version>
0

> <s_m_source_file>
/data/baiqing/PycharmProjects/Reinvent-master-3.2/result/LINK_invent/BTK/process_docking_weight1_custom_sum_contain_oxygen_bond_distance_aromatic_linkinvent_7_9_3/rearranged_h_0080.sdf

> <i_m_source_file_index>
31

> <r_mmod_Potential_Energy-OPLS-2005>
60.4811553955078

> <r_mmod_Stretch_Energy-OPLS-2005>
117.154090881348

> <r_mmod_Bend_Energy-OPLS-2005>
177.919891357422

> <r_mmod_Torsional_Energy-OPLS-2005>
217.311813354492

> <r_mmod_Improper_Torsional_Energy-OPLS-2005>
5.23788356781006

> <r_mmod_Van_der_Waal_Energy-OPLS-2005>
120.98193359375

> <r_mmod_Electrostatic_Energy-OPLS-2005>
-241.828353881836

> <r_mmod_Solvation_Energy-OPLS-2005>
-420.325866699219

> <b_mmod_Minimization_Converged-OPLS-2005>
0

> <r_mmod_RMS_Derivative-OPLS-2005>
1.6749963760376

$$$$
33
                    3D
 Structure written by MMmdl.
162170  0  0  1  0            999 V2000
  -30.6595  -14.5867   20.4567 C   0  0  0  0  0  0
  -30.4182  -12.3457   19.4412 C   0  0  0  0  0  0
  -29.4907  -12.4435   18.2106 C   0  0  0  0  0  0
  -28.0124  -12.3165   18.6289 C   0  0  0  0  0  0
  -27.6403  -13.1969   19.8513 C   0  0  2  0  0  0
  -28.6920  -13.0969   20.9778 C   0  0  0  0  0  0
  -25.2568  -13.8119   20.5703 C   0  0  0  0  0  0
  -24.1816  -13.0431   20.9203 C   0  0  0  0  0  0
  -24.6344  -11.6888   20.8739 C   0  0  0  0  0  0
  -23.9019  -10.4291   21.0387 C   0  0  0  0  0  0
  -24.3600   -9.4215   21.9155 C   0  0  0  0  0  0
  -23.6298   -8.2238   22.0726 C   0  0  0  0  0  0
  -22.4272   -8.0272   21.3533 C   0  0  0  0  0  0
  -21.9901   -9.0237   20.4631 C   0  0  0  0  0  0
  -22.7198  -10.2126   20.3041 C   0  0  0  0  0  0
  -21.6856   -6.0747   22.5282 C   0  0  0  0  0  0
  -21.4011   -6.5647   23.8214 C   0  0  0  0  0  0
  -21.3651   -5.6792   24.9172 C   0  0  0  0  0  0
  -21.6040   -4.3056   24.7212 C   0  0  0  0  0  0
  -21.8829   -3.8160   23.4329 C   0  0  0  0  0  0
  -21.9204   -4.6984   22.3395 C   0  0  0  0  0  0
  -22.7855  -13.5249   21.1903 C   0  0  0  0  0  0
  -22.1676   -4.2173   21.0971 F   0  0  0  0  0  0
  -21.5631   -3.4535   25.7722 F   0  0  0  0  0  0
  -30.0040  -13.3921   20.3895 N   0  0  0  0  0  0
  -26.2937  -12.9236   20.3324 N   0  0  0  0  0  0
  -25.9260  -11.6419   20.5773 N   0  0  0  0  0  0
  -22.0527  -12.8196   22.0442 N   0  0  0  0  0  0
  -25.4379  -15.1824   20.4109 N   0  0  0  0  0  0
  -31.8622  -14.6897   20.2013 O   0  0  0  0  0  0
  -21.6632   -6.8878   21.4240 O   0  0  0  0  0  0
  -22.3540  -14.5579   20.6791 O   0  0  0  0  0  0
  -24.6183  -31.8636   23.2054 C   0  0  0  0  0  0
  -25.9057  -32.4801   23.8367 C   0  0  1  0  0  0
  -27.2345  -27.3861   20.1132 C   0  0  0  0  0  0
  -25.5899  -33.8599   24.2296 N   0  0  0  0  0  0
  -23.4083  -30.4851   21.5470 C   0  0  2  0  0  0
  -24.8566  -28.9407   20.1184 C   0  0  0  0  0  0
  -22.7426  -29.4642   22.4972 C   0  0  0  0  0  0
  -18.0273  -28.1371   22.8489 C   0  0  0  0  0  0
  -24.1485  -36.7303   23.2639 C   0  0  0  0  0  0
  -25.9420  -30.8157   21.3648 C   0  0  0  0  0  0
  -26.0212  -29.4452   20.7128 C   0  0  0  0  0  0
  -27.2156  -28.6793   20.6985 C   0  0  0  0  0  0
  -26.0528  -26.9020   19.5167 C   0  0  0  0  0  0
  -24.8702  -27.6699   19.5158 C   0  0  0  0  0  0
  -23.6194  -29.8127   20.1641 C   0  0  0  0  0  0
  -25.4112  -36.3097   24.0331 C   0  0  1  0  0  0
  -20.5870  -28.3663   23.1308 C   0  0  2  0  0  0
  -20.6768  -26.9392   22.5420 C   0  0  0  0  0  0
  -19.5750  -26.6376   21.5213 C   0  0  0  0  0  0
  -18.1924  -26.7917   22.1621 C   0  0  0  0  0  0
  -19.1526  -28.8833   23.2892 C   0  0  0  0  0  0
  -18.9454  -30.1442   23.8902 C   0  0  0  0  0  0
  -17.6460  -30.6579   24.0558 C   0  0  0  0  0  0
  -25.9045  -34.9463   23.5115 C   0  0  0  0  0  0
  -16.5345  -29.9081   23.6329 C   0  0  0  0  0  0
  -16.7265  -28.6494   23.0347 C   0  0  0  0  0  0
  -26.4477  -31.6597   25.0711 C   0  0  0  0  0  0
  -25.3728  -31.3714   26.1447 C   0  0  0  0  0  0
  -27.0321  -30.3037   24.6121 C   0  0  0  0  0  0
  -27.6048  -32.4329   25.7474 C   0  0  0  0  0  0
  -27.5580  -37.1795   24.8459 C   0  0  0  0  0  0
  -21.4149  -29.3022   22.3704 N   0  0  0  0  0  0
  -26.4291  -37.3790   23.9407 N   0  0  0  0  0  0
  -24.6745  -31.0707   22.0970 N   0  0  0  0  0  0
  -23.4176  -28.8187   23.3030 O   0  0  0  0  0  0
  -28.3872  -26.6180   20.0697 O   0  0  0  0  0  0
  -26.5614  -34.8920   22.4682 O   0  0  0  0  0  0
  -23.5367  -32.1408   23.7426 O   0  0  0  0  0  0
  -31.4160  -18.9276   19.7750 C   0  0  0  0  0  0
  -30.9149  -20.9077   19.1330 C   0  0  0  0  0  0
  -29.9329  -20.5240   20.0259 C   0  0  0  0  0  0
  -31.0348  -22.1695   18.3367 C   0  0  0  0  0  0
  -29.2793  -16.1774   19.2610 C   0  0  0  0  0  0
  -28.7073  -21.3288   20.4527 C   0  0  0  0  0  0
  -28.9363  -22.8036   20.9621 C   0  0  0  0  0  0
  -28.4502  -24.0238   20.0888 C   0  0  0  0  0  0
  -29.5275  -18.2437   21.2764 C   0  0  0  0  0  0
  -30.1589  -16.8038   21.5052 C   0  0  0  0  0  0
  -28.4160  -25.3955   20.8554 C   0  0  0  0  0  0
  -31.8631  -19.9011   18.9954 N   0  0  0  0  0  0
  -30.2543  -19.1887   20.3990 N   0  0  0  0  0  0
  -29.8790  -15.7129   20.5228 N   0  0  0  0  0  0
  -31.4592  -12.4559   19.1368 H   0  0  0  0  0  0
  -30.3389  -11.3623   19.9069 H   0  0  0  0  0  0
  -29.7399  -11.6606   17.4924 H   0  0  0  0  0  0
  -29.6477  -13.3828   17.6829 H   0  0  0  0  0  0
  -27.8344  -11.2671   18.8675 H   0  0  0  0  0  0
  -27.3644  -12.5507   17.7830 H   0  0  0  0  0  0
  -27.6275  -14.2163   19.4834 H   0  0  0  0  0  0
  -28.6929  -12.1023   21.4233 H   0  0  0  0  0  0
  -28.4577  -13.7966   21.7826 H   0  0  0  0  0  0
  -25.2750   -9.5718   22.4715 H   0  0  0  0  0  0
  -24.0041   -7.4620   22.7417 H   0  0  0  0  0  0
  -21.0853   -8.8734   19.8913 H   0  0  0  0  0  0
  -22.3645  -10.9665   19.6157 H   0  0  0  0  0  0
  -21.1991   -7.6151   23.9737 H   0  0  0  0  0  0
  -21.1459   -6.0509   25.9078 H   0  0  0  0  0  0
  -22.0615   -2.7627   23.2820 H   0  0  0  0  0  0
  -22.4180  -11.9822   22.4739 H   0  0  0  0  0  0
  -21.1150  -13.1179   22.2721 H   0  0  0  0  0  0
  -24.6884  -15.8548   20.5274 H   0  0  0  0  0  0
  -26.3170  -15.6067   20.1436 H   0  0  0  0  0  0
  -26.7117  -32.5495   23.1117 H   0  0  0  0  0  0
  -25.0018  -33.9751   25.0420 H   0  0  0  0  0  0
  -22.7000  -31.3038   21.4053 H   0  0  0  0  0  0
  -23.3751  -35.9632   23.3311 H   0  0  0  0  0  0
  -24.3577  -36.8922   22.2052 H   0  0  0  0  0  0
  -23.7237  -37.6507   23.6662 H   0  0  0  0  0  0
  -26.0592  -31.5798   20.5951 H   0  0  0  0  0  0
  -26.8263  -30.8702   21.9877 H   0  0  0  0  0  0
  -28.1188  -29.0699   21.1467 H   0  0  0  0  0  0
  -26.0475  -25.9285   19.0480 H   0  0  0  0  0  0
  -23.9737  -27.2758   19.0565 H   0  0  0  0  0  0
  -23.7269  -30.5859   19.4026 H   0  0  0  0  0  0
  -22.7420  -29.2332   19.8709 H   0  0  0  0  0  0
  -25.1291  -36.1957   25.0825 H   0  0  0  0  0  0
  -20.9961  -28.3232   24.1430 H   0  0  0  0  0  0
  -20.5680  -26.2260   23.3604 H   0  0  0  0  0  0
  -21.6636  -26.7435   22.1207 H   0  0  0  0  0  0
  -19.6916  -25.6291   21.1230 H   0  0  0  0  0  0
  -19.6703  -27.3198   20.6749 H   0  0  0  0  0  0
  -17.4199  -26.6666   21.4015 H   0  0  0  0  0  0
  -18.0330  -26.0050   22.9010 H   0  0  0  0  0  0
  -19.7932  -30.7250   24.2277 H   0  0  0  0  0  0
  -17.5015  -31.6266   24.5149 H   0  0  0  0  0  0
  -15.5350  -30.2980   23.7657 H   0  0  0  0  0  0
  -15.8660  -28.0818   22.7062 H   0  0  0  0  0  0
  -24.5899  -30.7071   25.7773 H   0  0  0  0  0  0
  -24.8910  -32.2867   26.4891 H   0  0  0  0  0  0
  -25.8050  -30.8873   27.0209 H   0  0  0  0  0  0
  -26.2873  -29.6787   24.1174 H   0  0  0  0  0  0
  -27.4087  -29.7294   25.4596 H   0  0  0  0  0  0
  -27.8711  -30.4364   23.9287 H   0  0  0  0  0  0
  -27.2672  -33.3630   26.2062 H   0  0  0  0  0  0
  -28.3845  -32.6887   25.0286 H   0  0  0  0  0  0
  -28.0731  -31.8442   26.5374 H   0  0  0  0  0  0
  -28.2588  -38.0098   24.7528 H   0  0  0  0  0  0
  -28.1082  -36.2630   24.6267 H   0  0  0  0  0  0
  -27.2293  -37.1428   25.8859 H   0  0  0  0  0  0
  -20.9316  -29.8719   21.6903 H   0  0  0  0  0  0
  -26.0178  -38.2866   24.1425 H   0  0  0  0  0  0
  -31.9372  -17.9841   19.8592 H   0  0  0  0  0  0
  -31.3691  -23.0022   18.9548 H   0  0  0  0  0  0
  -30.0799  -22.4438   17.8897 H   0  0  0  0  0  0
  -31.7476  -22.0596   17.5185 H   0  0  0  0  0  0
  -29.8406  -16.9962   18.8173 H   0  0  0  0  0  0
  -28.2527  -16.5099   19.4128 H   0  0  0  0  0  0
  -29.2460  -15.4051   18.4940 H   0  0  0  0  0  0
  -28.1990  -20.7777   21.2448 H   0  0  0  0  0  0
  -27.9920  -21.3429   19.6314 H   0  0  0  0  0  0
  -29.9837  -22.9359   21.2360 H   0  0  0  0  0  0
  -28.3947  -22.8825   21.9069 H   0  0  0  0  0  0
  -27.4512  -23.8188   19.7040 H   0  0  0  0  0  0
  -29.0933  -24.1227   19.2154 H   0  0  0  0  0  0
  -29.4721  -18.7265   22.2521 H   0  0  0  0  0  0
  -28.4929  -18.1759   20.9409 H   0  0  0  0  0  0
  -29.7511  -16.4367   22.4490 H   0  0  0  0  0  0
  -31.2315  -16.8833   21.6933 H   0  0  0  0  0  0
  -29.3259  -25.4610   21.4533 H   0  0  0  0  0  0
  -27.6003  -25.3871   21.5804 H   0  0  0  0  0  0
  1 25  1  0  0  0
  1 30  2  0  0  0
  1 84  1  0  0  0
  2  3  1  0  0  0
  2 25  1  0  0  0
  2 85  1  0  0  0
  2 86  1  0  0  0
  3  4  1  0  0  0
  3 87  1  0  0  0
  3 88  1  0  0  0
  4  5  1  0  0  0
  4 89  1  0  0  0
  4 90  1  0  0  0
  5  6  1  0  0  0
  5 26  1  0  0  0
  5 91  1  0  0  0
  6 25  1  0  0  0
  6 92  1  0  0  0
  6 93  1  0  0  0
  7  8  2  0  0  0
  7 26  1  0  0  0
  7 29  1  0  0  0
  8  9  1  0  0  0
  8 22  1  0  0  0
  9 10  1  0  0  0
  9 27  2  0  0  0
 10 11  2  0  0  0
 10 15  1  0  0  0
 11 12  1  0  0  0
 11 94  1  0  0  0
 12 13  2  0  0  0
 12 95  1  0  0  0
 13 14  1  0  0  0
 13 31  1  0  0  0
 14 15  2  0  0  0
 14 96  1  0  0  0
 15 97  1  0  0  0
 16 17  2  0  0  0
 16 21  1  0  0  0
 16 31  1  0  0  0
 17 18  1  0  0  0
 17 98  1  0  0  0
 18 19  2  0  0  0
 18 99  1  0  0  0
 19 20  1  0  0  0
 19 24  1  0  0  0
 20 21  2  0  0  0
 20100  1  0  0  0
 21 23  1  0  0  0
 22 28  1  0  0  0
 22 32  2  0  0  0
 26 27  1  0  0  0
 28101  1  0  0  0
 28102  1  0  0  0
 29103  1  0  0  0
 29104  1  0  0  0
 33 34  1  0  0  0
 33 66  1  0  0  0
 33 70  2  0  0  0
 34 36  1  0  0  0
 34 59  1  0  0  0
 34105  1  0  0  0
 35 44  2  0  0  0
 35 45  1  0  0  0
 35 68  1  0  0  0
 36 56  1  0  0  0
 36106  1  0  0  0
 37 39  1  0  0  0
 37 47  1  0  0  0
 37 66  1  0  0  0
 37107  1  0  0  0
 38 43  2  0  0  0
 38 46  1  0  0  0
 38 47  1  0  0  0
 39 64  1  0  0  0
 39 67  2  0  0  0
 40 52  1  0  0  0
 40 53  2  0  0  0
 40 58  1  0  0  0
 41108  1  0  0  0
 41109  1  0  0  0
 41110  1  0  0  0
 41 48  1  0  0  0
 42 43  1  0  0  0
 42 66  1  0  0  0
 42111  1  0  0  0
 42112  1  0  0  0
 43 44  1  0  0  0
 44113  1  0  0  0
 45 46  2  0  0  0
 45114  1  0  0  0
 46115  1  0  0  0
 47116  1  0  0  0
 47117  1  0  0  0
 48 56  1  0  0  0
 48 65  1  0  0  0
 48118  1  0  0  0
 49 50  1  0  0  0
 49 53  1  0  0  0
 49 64  1  0  0  0
 49119  1  0  0  0
 50 51  1  0  0  0
 50120  1  0  0  0
 50121  1  0  0  0
 51 52  1  0  0  0
 51122  1  0  0  0
 51123  1  0  0  0
 52124  1  0  0  0
 52125  1  0  0  0
 53 54  1  0  0  0
 54 55  2  0  0  0
 54126  1  0  0  0
 55 57  1  0  0  0
 55127  1  0  0  0
 56 69  2  0  0  0
 57 58  2  0  0  0
 57128  1  0  0  0
 58129  1  0  0  0
 59 60  1  0  0  0
 59 61  1  0  0  0
 59 62  1  0  0  0
 60130  1  0  0  0
 60131  1  0  0  0
 60132  1  0  0  0
 61133  1  0  0  0
 61134  1  0  0  0
 61135  1  0  0  0
 62136  1  0  0  0
 62137  1  0  0  0
 62138  1  0  0  0
 63 65  1  0  0  0
 63139  1  0  0  0
 63140  1  0  0  0
 63141  1  0  0  0
 64142  1  0  0  0
 65143  1  0  0  0
 68 81  1  0  0  0
 71 82  2  0  0  0
 71 83  1  0  0  0
 71144  1  0  0  0
 72 73  2  0  0  0
 72 74  1  0  0  0
 72 82  1  0  0  0
 73 76  1  0  0  0
 73 83  1  0  0  0
 74145  1  0  0  0
 74146  1  0  0  0
 74147  1  0  0  0
 75 84  1  0  0  0
 75148  1  0  0  0
 75149  1  0  0  0
 75150  1  0  0  0
 76 77  1  0  0  0
 76151  1  0  0  0
 76152  1  0  0  0
 77 78  1  0  0  0
 77153  1  0  0  0
 77154  1  0  0  0
 78 81  1  0  0  0
 78155  1  0  0  0
 78156  1  0  0  0
 79 80  1  0  0  0
 79 83  1  0  0  0
 79157  1  0  0  0
 79158  1  0  0  0
 80 84  1  0  0  0
 80159  1  0  0  0
 80160  1  0  0  0
 81161  1  0  0  0
 81162  1  0  0  0
M  ISO  4   1 100  68 101  81 101  84 100
M  END
> <chiral flag>
0

> <version>
0

> <s_m_source_file>
/data/baiqing/PycharmProjects/Reinvent-master-3.2/result/LINK_invent/BTK/process_docking_weight1_custom_sum_contain_oxygen_bond_distance_aromatic_linkinvent_7_9_3/rearranged_h_0080.sdf

> <i_m_source_file_index>
32

> <r_mmod_Potential_Energy-OPLS-2005>
181.960006713867

> <r_mmod_Stretch_Energy-OPLS-2005>
58.6809997558594

> <r_mmod_Bend_Energy-OPLS-2005>
131.255905151367

> <r_mmod_Torsional_Energy-OPLS-2005>
354.047271728516

> <r_mmod_Improper_Torsional_Energy-OPLS-2005>
9.32448577880859

> <r_mmod_Van_der_Waal_Energy-OPLS-2005>
118.60147857666

> <r_mmod_Electrostatic_Energy-OPLS-2005>
-309.901702880859

> <r_mmod_Solvation_Energy-OPLS-2005>
-213.867630004883

> <b_mmod_Minimization_Converged-OPLS-2005>
0

> <r_mmod_RMS_Derivative-OPLS-2005>
2.16949582099915

$$$$
34
                    3D
 Structure written by MMmdl.
160168  0  0  1  0            999 V2000
  -30.6787  -14.5381   20.5366 C   0  0  0  0  0  0
  -30.4264  -12.3390   19.4368 C   0  0  0  0  0  0
  -29.4985  -12.5005   18.2144 C   0  0  0  0  0  0
  -28.0210  -12.3531   18.6279 C   0  0  0  0  0  0
  -27.6563  -13.2123   19.8680 C   0  0  2  0  0  0
  -28.6995  -13.0369   20.9948 C   0  0  0  0  0  0
  -25.2565  -13.8172   20.5683 C   0  0  0  0  0  0
  -24.1824  -13.0442   20.9181 C   0  0  0  0  0  0
  -24.6386  -11.6910   20.8741 C   0  0  0  0  0  0
  -23.9058  -10.4292   21.0408 C   0  0  0  0  0  0
  -24.3612   -9.4208   21.9187 C   0  0  0  0  0  0
  -23.6286   -8.2243   22.0756 C   0  0  0  0  0  0
  -22.4270   -8.0281   21.3544 C   0  0  0  0  0  0
  -21.9902   -9.0257   20.4650 C   0  0  0  0  0  0
  -22.7230  -10.2136   20.3058 C   0  0  0  0  0  0
  -21.6854   -6.0734   22.5276 C   0  0  0  0  0  0
  -21.4015   -6.5637   23.8212 C   0  0  0  0  0  0
  -21.3661   -5.6790   24.9174 C   0  0  0  0  0  0
  -21.6044   -4.3052   24.7223 C   0  0  0  0  0  0
  -21.8820   -3.8144   23.4345 C   0  0  0  0  0  0
  -21.9193   -4.6960   22.3402 C   0  0  0  0  0  0
  -22.7847  -13.5240   21.1842 C   0  0  0  0  0  0
  -22.1663   -4.2147   21.0981 F   0  0  0  0  0  0
  -21.5629   -3.4537   25.7736 F   0  0  0  0  0  0
  -30.0237  -13.3463   20.4334 N   0  0  0  0  0  0
  -26.2998  -12.9349   20.3340 N   0  0  0  0  0  0
  -25.9313  -11.6506   20.5760 N   0  0  0  0  0  0
  -22.0487  -12.8237   22.0401 N   0  0  0  0  0  0
  -25.4285  -15.1891   20.4091 N   0  0  0  0  0  0
  -31.8288  -14.6986   20.1203 O   0  0  0  0  0  0
  -21.6636   -6.8874   21.4238 O   0  0  0  0  0  0
  -22.3536  -14.5548   20.6691 O   0  0  0  0  0  0
  -24.6201  -31.8649   23.2078 C   0  0  0  0  0  0
  -25.9076  -32.4807   23.8383 C   0  0  1  0  0  0
  -27.2244  -27.3808   20.1043 C   0  0  0  0  0  0
  -25.5913  -33.8607   24.2311 N   0  0  0  0  0  0
  -23.4098  -30.4905   21.5494 C   0  0  2  0  0  0
  -24.8545  -28.9553   20.1110 C   0  0  0  0  0  0
  -22.7439  -29.4651   22.4964 C   0  0  0  0  0  0
  -18.0278  -28.1380   22.8491 C   0  0  0  0  0  0
  -24.1487  -36.7309   23.2637 C   0  0  0  0  0  0
  -25.9452  -30.8154   21.3687 C   0  0  0  0  0  0
  -26.0201  -29.4481   20.7107 C   0  0  0  0  0  0
  -27.2086  -28.6710   20.6997 C   0  0  0  0  0  0
  -26.0374  -26.9264   19.4825 C   0  0  0  0  0  0
  -24.8615  -27.6969   19.4905 C   0  0  0  0  0  0
  -23.6200  -29.8279   20.1628 C   0  0  0  0  0  0
  -25.4109  -36.3103   24.0334 C   0  0  1  0  0  0
  -20.5874  -28.3677   23.1302 C   0  0  2  0  0  0
  -20.6768  -26.9408   22.5413 C   0  0  0  0  0  0
  -19.5745  -26.6386   21.5212 C   0  0  0  0  0  0
  -18.1925  -26.7925   22.1626 C   0  0  0  0  0  0
  -19.1529  -28.8844   23.2894 C   0  0  0  0  0  0
  -18.9455  -30.1448   23.8909 C   0  0  0  0  0  0
  -17.6458  -30.6586   24.0566 C   0  0  0  0  0  0
  -25.9041  -34.9470   23.5121 C   0  0  0  0  0  0
  -16.5348  -29.9088   23.6327 C   0  0  0  0  0  0
  -16.7267  -28.6503   23.0350 C   0  0  0  0  0  0
  -26.4483  -31.6598   25.0728 C   0  0  0  0  0  0
  -25.3737  -31.3717   26.1469 C   0  0  0  0  0  0
  -27.0317  -30.3033   24.6136 C   0  0  0  0  0  0
  -27.6052  -32.4323   25.7492 C   0  0  0  0  0  0
  -27.5581  -37.1808   24.8464 C   0  0  0  0  0  0
  -21.4159  -29.3041   22.3704 N   0  0  0  0  0  0
  -26.4292  -37.3791   23.9410 N   0  0  0  0  0  0
  -24.6771  -31.0715   22.0999 N   0  0  0  0  0  0
  -23.4190  -28.8184   23.3016 O   0  0  0  0  0  0
  -28.3635  -26.5810   20.1521 O   0  0  0  0  0  0
  -26.5605  -34.8926   22.4684 O   0  0  0  0  0  0
  -23.5381  -32.1420   23.7443 O   0  0  0  0  0  0
  -29.6235  -22.1461   18.4908 C   0  0  0  0  0  0
  -29.9464  -21.0055   17.8021 C   0  0  0  0  0  0
  -29.5803  -20.4502   19.9390 C   0  0  0  0  0  0
  -30.2837  -20.7851   16.3631 C   0  0  0  0  0  0
  -29.4812  -19.5665   21.1735 C   0  0  0  0  0  0
  -29.1592  -18.0375   20.9667 C   0  0  0  0  0  0
  -29.3276  -24.2781   20.6682 C   0  0  0  0  0  0
  -29.0483  -22.7414   20.9004 C   0  0  0  0  0  0
  -30.3540  -17.0249   20.9393 C   0  0  0  0  0  0
  -28.1610  -25.1379   20.0900 C   0  0  0  0  0  0
  -29.4223  -21.7989   19.8056 N   0  0  0  0  0  0
  -29.9099  -19.9933   18.7246 N   0  3  0  0  0  0
  -29.9384  -15.5975   20.9464 N   0  0  0  0  0  0
  -31.4700  -12.4443   19.1349 H   0  0  0  0  0  0
  -30.3386  -11.3365   19.8585 H   0  0  0  0  0  0
  -29.7472  -11.7624   17.4510 H   0  0  0  0  0  0
  -29.6570  -13.4785   17.7576 H   0  0  0  0  0  0
  -27.8439  -11.2990   18.8443 H   0  0  0  0  0  0
  -27.3684  -12.6037   17.7908 H   0  0  0  0  0  0
  -27.6866  -14.2526   19.5443 H   0  0  0  0  0  0
  -28.6871  -12.0132   21.3721 H   0  0  0  0  0  0
  -28.4585  -13.6704   21.8499 H   0  0  0  0  0  0
  -25.2762   -9.5683   22.4754 H   0  0  0  0  0  0
  -23.9999   -7.4635   22.7474 H   0  0  0  0  0  0
  -21.0834   -8.8777   19.8956 H   0  0  0  0  0  0
  -22.3693  -10.9675   19.6163 H   0  0  0  0  0  0
  -21.2009   -7.6144   23.9714 H   0  0  0  0  0  0
  -21.1482   -6.0520   25.9078 H   0  0  0  0  0  0
  -22.0597   -2.7603   23.2845 H   0  0  0  0  0  0
  -22.4100  -11.9905   22.4801 H   0  0  0  0  0  0
  -21.1109  -13.1273   22.2609 H   0  0  0  0  0  0
  -24.6603  -15.8433   20.5137 H   0  0  0  0  0  0
  -26.2766  -15.6266   20.0727 H   0  0  0  0  0  0
  -26.7146  -32.5499   23.1139 H   0  0  0  0  0  0
  -25.0065  -33.9762   25.0458 H   0  0  0  0  0  0
  -22.7009  -31.3095   21.4111 H   0  0  0  0  0  0
  -23.3746  -35.9645   23.3307 H   0  0  0  0  0  0
  -24.3581  -36.8918   22.2050 H   0  0  0  0  0  0
  -23.7243  -37.6517   23.6649 H   0  0  0  0  0  0
  -26.0666  -31.5816   20.6018 H   0  0  0  0  0  0
  -26.8298  -30.8646   21.9919 H   0  0  0  0  0  0
  -28.1045  -29.0447   21.1756 H   0  0  0  0  0  0
  -25.9939  -25.9667   18.9891 H   0  0  0  0  0  0
  -23.9671  -27.3145   19.0174 H   0  0  0  0  0  0
  -23.7331  -30.6057   19.4067 H   0  0  0  0  0  0
  -22.7415  -29.2534   19.8632 H   0  0  0  0  0  0
  -25.1285  -36.1965   25.0827 H   0  0  0  0  0  0
  -20.9967  -28.3246   24.1422 H   0  0  0  0  0  0
  -20.5671  -26.2285   23.3605 H   0  0  0  0  0  0
  -21.6638  -26.7445   22.1207 H   0  0  0  0  0  0
  -19.6907  -25.6298   21.1237 H   0  0  0  0  0  0
  -19.6683  -27.3200   20.6745 H   0  0  0  0  0  0
  -17.4193  -26.6672   21.4029 H   0  0  0  0  0  0
  -18.0329  -26.0065   22.9021 H   0  0  0  0  0  0
  -19.7932  -30.7260   24.2284 H   0  0  0  0  0  0
  -17.5014  -31.6268   24.5164 H   0  0  0  0  0  0
  -15.5350  -30.2995   23.7643 H   0  0  0  0  0  0
  -15.8665  -28.0828   22.7060 H   0  0  0  0  0  0
  -24.5910  -30.7065   25.7805 H   0  0  0  0  0  0
  -24.8927  -32.2877   26.4912 H   0  0  0  0  0  0
  -25.8080  -30.8889   27.0232 H   0  0  0  0  0  0
  -26.2872  -29.6795   24.1175 H   0  0  0  0  0  0
  -27.4056  -29.7274   25.4612 H   0  0  0  0  0  0
  -27.8724  -30.4340   23.9317 H   0  0  0  0  0  0
  -27.2668  -33.3613   26.2093 H   0  0  0  0  0  0
  -28.3849  -32.6902   25.0312 H   0  0  0  0  0  0
  -28.0738  -31.8436   26.5389 H   0  0  0  0  0  0
  -28.2601  -38.0104   24.7516 H   0  0  0  0  0  0
  -28.1075  -36.2637   24.6282 H   0  0  0  0  0  0
  -27.2302  -37.1450   25.8868 H   0  0  0  0  0  0
  -20.9321  -29.8775   21.6936 H   0  0  0  0  0  0
  -26.0180  -38.2869   24.1412 H   0  0  0  0  0  0
  -29.5362  -23.1637   18.1362 H   0  0  0  0  0  0
  -30.9112  -21.5965   15.9942 H   0  0  0  0  0  0
  -29.3750  -20.7509   15.7627 H   0  0  0  0  0  0
  -30.8242  -19.8482   16.2273 H   0  0  0  0  0  0
  -28.6852  -20.0112   21.7712 H   0  0  0  0  0  0
  -30.4044  -19.7020   21.7372 H   0  0  0  0  0  0
  -28.5121  -17.9019   20.0992 H   0  0  0  0  0  0
  -28.5424  -17.7456   21.8183 H   0  0  0  0  0  0
  -30.2349  -24.4209   20.0809 H   0  0  0  0  0  0
  -29.5599  -24.7032   21.6450 H   0  0  0  0  0  0
  -27.9981  -22.5724   21.1408 H   0  0  0  0  0  0
  -29.6136  -22.4235   21.7770 H   0  0  0  0  0  0
  -30.9935  -17.1913   21.8075 H   0  0  0  0  0  0
  -30.9761  -17.2209   20.0645 H   0  0  0  0  0  0
  -27.2655  -24.8807   20.6593 H   0  0  0  0  0  0
  -27.9760  -24.8443   19.0564 H   0  0  0  0  0  0
  -30.1011  -19.0198   18.5194 H   0  0  0  0  0  0
  -28.9989  -15.3892   21.2512 H   0  0  0  0  0  0
  1 25  1  0  0  0
  1 30  2  0  0  0
  1 83  1  0  0  0
  2  3  1  0  0  0
  2 25  1  0  0  0
  2 84  1  0  0  0
  2 85  1  0  0  0
  3  4  1  0  0  0
  3 86  1  0  0  0
  3 87  1  0  0  0
  4  5  1  0  0  0
  4 88  1  0  0  0
  4 89  1  0  0  0
  5  6  1  0  0  0
  5 26  1  0  0  0
  5 90  1  0  0  0
  6 25  1  0  0  0
  6 91  1  0  0  0
  6 92  1  0  0  0
  7  8  2  0  0  0
  7 26  1  0  0  0
  7 29  1  0  0  0
  8  9  1  0  0  0
  8 22  1  0  0  0
  9 10  1  0  0  0
  9 27  2  0  0  0
 10 11  2  0  0  0
 10 15  1  0  0  0
 11 12  1  0  0  0
 11 93  1  0  0  0
 12 13  2  0  0  0
 12 94  1  0  0  0
 13 14  1  0  0  0
 13 31  1  0  0  0
 14 15  2  0  0  0
 14 95  1  0  0  0
 15 96  1  0  0  0
 16 17  2  0  0  0
 16 21  1  0  0  0
 16 31  1  0  0  0
 17 18  1  0  0  0
 17 97  1  0  0  0
 18 19  2  0  0  0
 18 98  1  0  0  0
 19 20  1  0  0  0
 19 24  1  0  0  0
 20 21  2  0  0  0
 20 99  1  0  0  0
 21 23  1  0  0  0
 22 28  1  0  0  0
 22 32  2  0  0  0
 26 27  1  0  0  0
 28100  1  0  0  0
 28101  1  0  0  0
 29102  1  0  0  0
 29103  1  0  0  0
 33 34  1  0  0  0
 33 66  1  0  0  0
 33 70  2  0  0  0
 34 36  1  0  0  0
 34 59  1  0  0  0
 34104  1  0  0  0
 35 44  2  0  0  0
 35 45  1  0  0  0
 35 68  1  0  0  0
 36 56  1  0  0  0
 36105  1  0  0  0
 37 39  1  0  0  0
 37 47  1  0  0  0
 37 66  1  0  0  0
 37106  1  0  0  0
 38 43  2  0  0  0
 38 46  1  0  0  0
 38 47  1  0  0  0
 39 64  1  0  0  0
 39 67  2  0  0  0
 40 52  1  0  0  0
 40 53  2  0  0  0
 40 58  1  0  0  0
 41107  1  0  0  0
 41108  1  0  0  0
 41109  1  0  0  0
 41 48  1  0  0  0
 42 43  1  0  0  0
 42 66  1  0  0  0
 42110  1  0  0  0
 42111  1  0  0  0
 43 44  1  0  0  0
 44112  1  0  0  0
 45 46  2  0  0  0
 45113  1  0  0  0
 46114  1  0  0  0
 47115  1  0  0  0
 47116  1  0  0  0
 48 56  1  0  0  0
 48 65  1  0  0  0
 48117  1  0  0  0
 49 50  1  0  0  0
 49 53  1  0  0  0
 49 64  1  0  0  0
 49118  1  0  0  0
 50 51  1  0  0  0
 50119  1  0  0  0
 50120  1  0  0  0
 51 52  1  0  0  0
 51121  1  0  0  0
 51122  1  0  0  0
 52123  1  0  0  0
 52124  1  0  0  0
 53 54  1  0  0  0
 54 55  2  0  0  0
 54125  1  0  0  0
 55 57  1  0  0  0
 55126  1  0  0  0
 56 69  2  0  0  0
 57 58  2  0  0  0
 57127  1  0  0  0
 58128  1  0  0  0
 59 60  1  0  0  0
 59 61  1  0  0  0
 59 62  1  0  0  0
 60129  1  0  0  0
 60130  1  0  0  0
 60131  1  0  0  0
 61132  1  0  0  0
 61133  1  0  0  0
 61134  1  0  0  0
 62135  1  0  0  0
 62136  1  0  0  0
 62137  1  0  0  0
 63 65  1  0  0  0
 63138  1  0  0  0
 63139  1  0  0  0
 63140  1  0  0  0
 64141  1  0  0  0
 65142  1  0  0  0
 68 80  1  0  0  0
 71 72  2  0  0  0
 71 81  1  0  0  0
 71143  1  0  0  0
 72 74  1  0  0  0
 72 82  1  0  0  0
 73 75  1  0  0  0
 73 81  1  0  0  0
 73 82  2  0  0  0
 74144  1  0  0  0
 74145  1  0  0  0
 74146  1  0  0  0
 75 76  1  0  0  0
 75147  1  0  0  0
 75148  1  0  0  0
 76 79  1  0  0  0
 76149  1  0  0  0
 76150  1  0  0  0
 77 78  1  0  0  0
 77 80  1  0  0  0
 77151  1  0  0  0
 77152  1  0  0  0
 78 81  1  0  0  0
 78153  1  0  0  0
 78154  1  0  0  0
 79 83  1  0  0  0
 79155  1  0  0  0
 79156  1  0  0  0
 80157  1  0  0  0
 80158  1  0  0  0
 82159  1  0  0  0
 83160  1  0  0  0
M  CHG  1  82   1
M  ISO  4   1 100  68 101  80 101  83 100
M  END
> <chiral flag>
0

> <version>
0

> <s_m_source_file>
/data/baiqing/PycharmProjects/Reinvent-master-3.2/result/LINK_invent/BTK/process_docking_weight1_custom_sum_contain_oxygen_bond_distance_aromatic_linkinvent_7_9_3/rearranged_h_0080.sdf

> <i_m_source_file_index>
33

> <r_mmod_Potential_Energy-OPLS-2005>
-86.9475402832031

> <r_mmod_Stretch_Energy-OPLS-2005>
51.130542755127

> <r_mmod_Bend_Energy-OPLS-2005>
109.683364868164

> <r_mmod_Torsional_Energy-OPLS-2005>
229.039642333984

> <r_mmod_Improper_Torsional_Energy-OPLS-2005>
4.19502210617065

> <r_mmod_Van_der_Waal_Energy-OPLS-2005>
124.521812438965

> <r_mmod_Electrostatic_Energy-OPLS-2005>
-208.630416870117

> <r_mmod_Solvation_Energy-OPLS-2005>
-421.845184326172

> <b_mmod_Minimization_Converged-OPLS-2005>
0

> <r_mmod_RMS_Derivative-OPLS-2005>
0.693353176116943

$$$$
35
                    3D
 Structure written by MMmdl.
164172  0  0  1  0            999 V2000
  -30.7294  -14.4969   20.5169 C   0  0  0  0  0  0
  -30.4039  -12.3124   19.4346 C   0  0  0  0  0  0
  -29.4877  -12.4777   18.2067 C   0  0  0  0  0  0
  -28.0106  -12.3374   18.6221 C   0  0  0  0  0  0
  -27.6483  -13.2076   19.8563 C   0  0  2  0  0  0
  -28.6947  -13.0565   20.9854 C   0  0  0  0  0  0
  -25.2524  -13.8159   20.5666 C   0  0  0  0  0  0
  -24.1801  -13.0435   20.9207 C   0  0  0  0  0  0
  -24.6359  -11.6900   20.8753 C   0  0  0  0  0  0
  -23.9031  -10.4290   21.0406 C   0  0  0  0  0  0
  -24.3590   -9.4208   21.9180 C   0  0  0  0  0  0
  -23.6275   -8.2243   22.0750 C   0  0  0  0  0  0
  -22.4259   -8.0275   21.3542 C   0  0  0  0  0  0
  -21.9888   -9.0244   20.4643 C   0  0  0  0  0  0
  -22.7206  -10.2130   20.3053 C   0  0  0  0  0  0
  -21.6856   -6.0724   22.5270 C   0  0  0  0  0  0
  -21.4024   -6.5627   23.8202 C   0  0  0  0  0  0
  -21.3659   -5.6779   24.9163 C   0  0  0  0  0  0
  -21.6045   -4.3043   24.7217 C   0  0  0  0  0  0
  -21.8820   -3.8136   23.4337 C   0  0  0  0  0  0
  -21.9195   -4.6952   22.3394 C   0  0  0  0  0  0
  -22.7824  -13.5236   21.1856 C   0  0  0  0  0  0
  -22.1663   -4.2136   21.0973 F   0  0  0  0  0  0
  -21.5622   -3.4525   25.7730 F   0  0  0  0  0  0
  -30.0091  -13.3474   20.4044 N   0  0  0  0  0  0
  -26.2949  -12.9332   20.3297 N   0  0  0  0  0  0
  -25.9281  -11.6494   20.5770 N   0  0  0  0  0  0
  -22.0459  -12.8243   22.0418 N   0  0  0  0  0  0
  -25.4201  -15.1875   20.4008 N   0  0  0  0  0  0
  -31.9143  -14.5620   20.1970 O   0  0  0  0  0  0
  -21.6633   -6.8868   21.4235 O   0  0  0  0  0  0
  -22.3517  -14.5541   20.6691 O   0  0  0  0  0  0
  -24.6145  -31.8688   23.2122 C   0  0  0  0  0  0
  -25.9043  -32.4832   23.8401 C   0  0  1  0  0  0
  -27.2233  -27.4240   20.1026 C   0  0  0  0  0  0
  -25.5910  -33.8629   24.2340 N   0  0  0  0  0  0
  -23.4023  -30.4931   21.5527 C   0  0  2  0  0  0
  -24.8475  -28.9563   20.1198 C   0  0  0  0  0  0
  -22.7412  -29.4660   22.5002 C   0  0  0  0  0  0
  -18.0276  -28.1369   22.8486 C   0  0  0  0  0  0
  -24.1485  -36.7313   23.2638 C   0  0  0  0  0  0
  -25.9326  -30.8273   21.3715 C   0  0  0  0  0  0
  -26.0075  -29.4600   20.7223 C   0  0  0  0  0  0
  -27.2000  -28.6986   20.7158 C   0  0  0  0  0  0
  -26.0564  -26.9499   19.4708 C   0  0  0  0  0  0
  -24.8664  -27.6993   19.4921 C   0  0  0  0  0  0
  -23.6121  -29.8268   20.1672 C   0  0  0  0  0  0
  -25.4111  -36.3122   24.0340 C   0  0  1  0  0  0
  -20.5859  -28.3669   23.1331 C   0  0  2  0  0  0
  -20.6776  -26.9400   22.5444 C   0  0  0  0  0  0
  -19.5771  -26.6373   21.5233 C   0  0  0  0  0  0
  -18.1943  -26.7907   22.1629 C   0  0  0  0  0  0
  -19.1517  -28.8840   23.2894 C   0  0  0  0  0  0
  -18.9445  -30.1450   23.8893 C   0  0  0  0  0  0
  -17.6444  -30.6579   24.0545 C   0  0  0  0  0  0
  -25.9043  -34.9485   23.5140 C   0  0  0  0  0  0
  -16.5338  -29.9072   23.6312 C   0  0  0  0  0  0
  -16.7263  -28.6490   23.0342 C   0  0  0  0  0  0
  -26.4468  -31.6609   25.0725 C   0  0  0  0  0  0
  -25.3736  -31.3718   26.1476 C   0  0  0  0  0  0
  -27.0307  -30.3055   24.6109 C   0  0  0  0  0  0
  -27.6048  -32.4324   25.7481 C   0  0  0  0  0  0
  -27.5584  -37.1815   24.8467 C   0  0  0  0  0  0
  -21.4138  -29.3038   22.3745 N   0  0  0  0  0  0
  -26.4299  -37.3805   23.9410 N   0  0  0  0  0  0
  -24.6672  -31.0775   22.1037 N   0  0  0  0  0  0
  -23.4187  -28.8192   23.3031 O   0  0  0  0  0  0
  -28.3753  -26.6691   20.0692 O   0  0  0  0  0  0
  -26.5592  -34.8928   22.4694 O   0  0  0  0  0  0
  -23.5337  -32.1445   23.7515 O   0  0  0  0  0  0
  -25.3225  -22.7001   21.7209 C   0  0  0  0  0  0
  -26.5862  -22.1239   21.4954 C   0  0  0  0  0  0
  -26.6095  -20.7097   21.4148 C   0  0  0  0  0  0
  -24.3237  -20.6632   21.6607 C   0  0  0  0  0  0
  -22.5360  -19.6922   20.1624 C   0  0  0  0  0  0
  -27.8264  -23.0267   21.4315 C   0  0  0  0  0  0
  -23.0443  -19.8503   21.6020 C   0  0  0  0  0  0
  -27.6930  -24.2588   20.4810 C   0  0  0  0  0  0
  -29.0226  -17.8340   21.0102 C   0  0  0  0  0  0
  -29.0174  -16.2923   21.2370 C   0  0  0  0  0  0
  -28.4253  -25.5413   20.9654 C   0  0  0  0  0  0
  -27.7206  -18.5489   21.4322 C   0  0  0  0  0  0
  -24.1961  -21.9746   21.7806 N   0  0  0  0  0  0
  -25.4616  -20.0065   21.4916 N   0  0  0  0  0  0
  -30.0709  -15.6678   20.4330 N   0  0  0  0  0  0
  -27.7847  -19.9834   21.2624 O   0  0  0  0  0  0
  -31.4501  -12.3872   19.1335 H   0  0  0  0  0  0
  -30.2895  -11.3197   19.8722 H   0  0  0  0  0  0
  -29.7339  -11.7352   17.4464 H   0  0  0  0  0  0
  -29.6532  -13.4540   17.7473 H   0  0  0  0  0  0
  -27.8318  -11.2852   18.8469 H   0  0  0  0  0  0
  -27.3578  -12.5824   17.7834 H   0  0  0  0  0  0
  -27.6704  -14.2379   19.5061 H   0  0  0  0  0  0
  -28.6822  -12.0424   21.3870 H   0  0  0  0  0  0
  -28.4705  -13.7125   21.8263 H   0  0  0  0  0  0
  -25.2727   -9.5689   22.4757 H   0  0  0  0  0  0
  -23.9980   -7.4633   22.7470 H   0  0  0  0  0  0
  -21.0819   -8.8757   19.8952 H   0  0  0  0  0  0
  -22.3653  -10.9666   19.6165 H   0  0  0  0  0  0
  -21.2034   -7.6136   23.9702 H   0  0  0  0  0  0
  -21.1477   -6.0509   25.9063 H   0  0  0  0  0  0
  -22.0607   -2.7598   23.2836 H   0  0  0  0  0  0
  -22.4064  -11.9902   22.4815 H   0  0  0  0  0  0
  -21.1075  -13.1281   22.2605 H   0  0  0  0  0  0
  -24.6467  -15.8364   20.4979 H   0  0  0  0  0  0
  -26.2523  -15.6163   20.0188 H   0  0  0  0  0  0
  -26.7109  -32.5544   23.1159 H   0  0  0  0  0  0
  -25.0073  -33.9787   25.0494 H   0  0  0  0  0  0
  -22.6908  -31.3105   21.4151 H   0  0  0  0  0  0
  -23.3750  -35.9646   23.3320 H   0  0  0  0  0  0
  -24.3574  -36.8905   22.2048 H   0  0  0  0  0  0
  -23.7227  -37.6522   23.6633 H   0  0  0  0  0  0
  -26.0492  -31.5920   20.6020 H   0  0  0  0  0  0
  -26.8194  -30.8796   21.9914 H   0  0  0  0  0  0
  -28.0969  -29.0823   21.1826 H   0  0  0  0  0  0
  -26.0643  -26.0079   18.9439 H   0  0  0  0  0  0
  -23.9799  -27.3130   19.0089 H   0  0  0  0  0  0
  -23.7278  -30.6027   19.4086 H   0  0  0  0  0  0
  -22.7341  -29.2511   19.8676 H   0  0  0  0  0  0
  -25.1287  -36.1997   25.0832 H   0  0  0  0  0  0
  -20.9932  -28.3250   24.1459 H   0  0  0  0  0  0
  -20.5665  -26.2280   23.3633 H   0  0  0  0  0  0
  -21.6655  -26.7435   22.1262 H   0  0  0  0  0  0
  -19.6942  -25.6281   21.1272 H   0  0  0  0  0  0
  -19.6727  -27.3183   20.6761 H   0  0  0  0  0  0
  -17.4223  -26.6612   21.4032 H   0  0  0  0  0  0
  -18.0351  -26.0049   22.9022 H   0  0  0  0  0  0
  -19.7920  -30.7273   24.2263 H   0  0  0  0  0  0
  -17.5000  -31.6265   24.5128 H   0  0  0  0  0  0
  -15.5337  -30.2979   23.7635 H   0  0  0  0  0  0
  -15.8664  -28.0808   22.7055 H   0  0  0  0  0  0
  -24.5889  -30.7093   25.7803 H   0  0  0  0  0  0
  -24.8948  -32.2878   26.4949 H   0  0  0  0  0  0
  -25.8079  -30.8853   27.0218 H   0  0  0  0  0  0
  -26.2861  -29.6810   24.1159 H   0  0  0  0  0  0
  -27.4078  -29.7296   25.4571 H   0  0  0  0  0  0
  -27.8692  -30.4379   23.9268 H   0  0  0  0  0  0
  -27.2674  -33.3609   26.2103 H   0  0  0  0  0  0
  -28.3828  -32.6917   25.0287 H   0  0  0  0  0  0
  -28.0751  -31.8422   26.5356 H   0  0  0  0  0  0
  -28.2620  -38.0097   24.7514 H   0  0  0  0  0  0
  -28.1064  -36.2631   24.6303 H   0  0  0  0  0  0
  -27.2300  -37.1480   25.8869 H   0  0  0  0  0  0
  -20.9286  -29.8790   21.7000 H   0  0  0  0  0  0
  -26.0197  -38.2889   24.1405 H   0  0  0  0  0  0
  -25.2000  -23.7649   21.8517 H   0  0  0  0  0  0
  -21.6202  -19.1026   20.1292 H   0  0  0  0  0  0
  -23.2805  -19.1940   19.5406 H   0  0  0  0  0  0
  -22.3249  -20.6649   19.7176 H   0  0  0  0  0  0
  -28.7052  -22.4407   21.1600 H   0  0  0  0  0  0
  -28.0059  -23.3747   22.4500 H   0  0  0  0  0  0
  -22.2801  -20.3335   22.2120 H   0  0  0  0  0  0
  -23.2138  -18.8695   22.0478 H   0  0  0  0  0  0
  -26.6447  -24.5165   20.3765 H   0  0  0  0  0  0
  -28.0279  -23.9861   19.4794 H   0  0  0  0  0  0
  -29.1773  -18.0458   19.9511 H   0  0  0  0  0  0
  -29.8700  -18.2780   21.5354 H   0  0  0  0  0  0
  -28.0518  -15.8888   20.9453 H   0  0  0  0  0  0
  -29.1562  -16.0588   22.2938 H   0  0  0  0  0  0
  -29.4784  -25.3023   21.1149 H   0  0  0  0  0  0
  -28.0459  -25.8378   21.9448 H   0  0  0  0  0  0
  -27.4948  -18.3213   22.4753 H   0  0  0  0  0  0
  -26.9190  -18.1240   20.8260 H   0  0  0  0  0  0
  -30.6917  -16.3600   20.0410 H   0  0  0  0  0  0
  1 25  1  0  0  0
  1 30  2  0  0  0
  1 85  1  0  0  0
  2  3  1  0  0  0
  2 25  1  0  0  0
  2 87  1  0  0  0
  2 88  1  0  0  0
  3  4  1  0  0  0
  3 89  1  0  0  0
  3 90  1  0  0  0
  4  5  1  0  0  0
  4 91  1  0  0  0
  4 92  1  0  0  0
  5  6  1  0  0  0
  5 26  1  0  0  0
  5 93  1  0  0  0
  6 25  1  0  0  0
  6 94  1  0  0  0
  6 95  1  0  0  0
  7  8  2  0  0  0
  7 26  1  0  0  0
  7 29  1  0  0  0
  8  9  1  0  0  0
  8 22  1  0  0  0
  9 10  1  0  0  0
  9 27  2  0  0  0
 10 11  2  0  0  0
 10 15  1  0  0  0
 11 12  1  0  0  0
 11 96  1  0  0  0
 12 13  2  0  0  0
 12 97  1  0  0  0
 13 14  1  0  0  0
 13 31  1  0  0  0
 14 15  2  0  0  0
 14 98  1  0  0  0
 15 99  1  0  0  0
 16 17  2  0  0  0
 16 21  1  0  0  0
 16 31  1  0  0  0
 17 18  1  0  0  0
 17100  1  0  0  0
 18 19  2  0  0  0
 18101  1  0  0  0
 19 20  1  0  0  0
 19 24  1  0  0  0
 20 21  2  0  0  0
 20102  1  0  0  0
 21 23  1  0  0  0
 22 28  1  0  0  0
 22 32  2  0  0  0
 26 27  1  0  0  0
 28103  1  0  0  0
 28104  1  0  0  0
 29105  1  0  0  0
 29106  1  0  0  0
 33 34  1  0  0  0
 33 66  1  0  0  0
 33 70  2  0  0  0
 34 36  1  0  0  0
 34 59  1  0  0  0
 34107  1  0  0  0
 35 44  2  0  0  0
 35 45  1  0  0  0
 35 68  1  0  0  0
 36 56  1  0  0  0
 36108  1  0  0  0
 37 39  1  0  0  0
 37 47  1  0  0  0
 37 66  1  0  0  0
 37109  1  0  0  0
 38 43  2  0  0  0
 38 46  1  0  0  0
 38 47  1  0  0  0
 39 64  1  0  0  0
 39 67  2  0  0  0
 40 52  1  0  0  0
 40 53  2  0  0  0
 40 58  1  0  0  0
 41110  1  0  0  0
 41111  1  0  0  0
 41112  1  0  0  0
 41 48  1  0  0  0
 42 43  1  0  0  0
 42 66  1  0  0  0
 42113  1  0  0  0
 42114  1  0  0  0
 43 44  1  0  0  0
 44115  1  0  0  0
 45 46  2  0  0  0
 45116  1  0  0  0
 46117  1  0  0  0
 47118  1  0  0  0
 47119  1  0  0  0
 48 56  1  0  0  0
 48 65  1  0  0  0
 48120  1  0  0  0
 49 50  1  0  0  0
 49 53  1  0  0  0
 49 64  1  0  0  0
 49121  1  0  0  0
 50 51  1  0  0  0
 50122  1  0  0  0
 50123  1  0  0  0
 51 52  1  0  0  0
 51124  1  0  0  0
 51125  1  0  0  0
 52126  1  0  0  0
 52127  1  0  0  0
 53 54  1  0  0  0
 54 55  2  0  0  0
 54128  1  0  0  0
 55 57  1  0  0  0
 55129  1  0  0  0
 56 69  2  0  0  0
 57 58  2  0  0  0
 57130  1  0  0  0
 58131  1  0  0  0
 59 60  1  0  0  0
 59 61  1  0  0  0
 59 62  1  0  0  0
 60132  1  0  0  0
 60133  1  0  0  0
 60134  1  0  0  0
 61135  1  0  0  0
 61136  1  0  0  0
 61137  1  0  0  0
 62138  1  0  0  0
 62139  1  0  0  0
 62140  1  0  0  0
 63 65  1  0  0  0
 63141  1  0  0  0
 63142  1  0  0  0
 63143  1  0  0  0
 64144  1  0  0  0
 65145  1  0  0  0
 68 81  1  0  0  0
 71 72  2  0  0  0
 71 83  1  0  0  0
 71146  1  0  0  0
 72 73  1  0  0  0
 72 76  1  0  0  0
 73 84  2  0  0  0
 73 86  1  0  0  0
 74 77  1  0  0  0
 74 83  2  0  0  0
 74 84  1  0  0  0
 75 77  1  0  0  0
 75147  1  0  0  0
 75148  1  0  0  0
 75149  1  0  0  0
 76 78  1  0  0  0
 76150  1  0  0  0
 76151  1  0  0  0
 77152  1  0  0  0
 77153  1  0  0  0
 78 81  1  0  0  0
 78154  1  0  0  0
 78155  1  0  0  0
 79 80  1  0  0  0
 79 82  1  0  0  0
 79156  1  0  0  0
 79157  1  0  0  0
 80 85  1  0  0  0
 80158  1  0  0  0
 80159  1  0  0  0
 81160  1  0  0  0
 81161  1  0  0  0
 82 86  1  0  0  0
 82162  1  0  0  0
 82163  1  0  0  0
 85164  1  0  0  0
M  ISO  4   1 100  68 101  81 101  85 100
M  END
> <chiral flag>
0

> <version>
0

> <s_m_source_file>
/data/baiqing/PycharmProjects/Reinvent-master-3.2/result/LINK_invent/BTK/process_docking_weight1_custom_sum_contain_oxygen_bond_distance_aromatic_linkinvent_7_9_3/rearranged_h_0080.sdf

> <i_m_source_file_index>
34

> <r_mmod_Potential_Energy-OPLS-2005>
-399.749176025391

> <r_mmod_Stretch_Energy-OPLS-2005>
38.5852699279785

> <r_mmod_Bend_Energy-OPLS-2005>
129.151977539062

> <r_mmod_Torsional_Energy-OPLS-2005>
251.322204589844

> <r_mmod_Improper_Torsional_Energy-OPLS-2005>
21.0216217041016

> <r_mmod_Van_der_Waal_Energy-OPLS-2005>
158.498153686523

> <r_mmod_Electrostatic_Energy-OPLS-2005>
-807.927429199219

> <r_mmod_Solvation_Energy-OPLS-2005>
-212.891464233398

> <b_mmod_Minimization_Converged-OPLS-2005>
0

> <r_mmod_RMS_Derivative-OPLS-2005>
1.39605987071991

$$$$
36
                    3D
 Structure written by MMmdl.
163171  0  0  1  0            999 V2000
  -30.6521  -14.7301   20.5329 C   0  0  0  0  0  0
  -30.4315  -12.4654   19.4700 C   0  0  0  0  0  0
  -29.5059  -12.5298   18.2359 C   0  0  0  0  0  0
  -28.0335  -12.3539   18.6512 C   0  0  0  0  0  0
  -27.6456  -13.2398   19.8656 C   0  0  2  0  0  0
  -28.6964  -13.1571   20.9970 C   0  0  0  0  0  0
  -25.2482  -13.8194   20.5768 C   0  0  0  0  0  0
  -24.1792  -13.0443   20.9270 C   0  0  0  0  0  0
  -24.6371  -11.6912   20.8793 C   0  0  0  0  0  0
  -23.9034  -10.4292   21.0423 C   0  0  0  0  0  0
  -24.3593   -9.4183   21.9167 C   0  0  0  0  0  0
  -23.6288   -8.2205   22.0712 C   0  0  0  0  0  0
  -22.4256   -8.0246   21.3525 C   0  0  0  0  0  0
  -21.9904   -9.0216   20.4625 C   0  0  0  0  0  0
  -22.7231  -10.2108   20.3038 C   0  0  0  0  0  0
  -21.6847   -6.0719   22.5270 C   0  0  0  0  0  0
  -21.4032   -6.5627   23.8207 C   0  0  0  0  0  0
  -21.3663   -5.6778   24.9168 C   0  0  0  0  0  0
  -21.6053   -4.3041   24.7213 C   0  0  0  0  0  0
  -21.8837   -3.8122   23.4344 C   0  0  0  0  0  0
  -21.9175   -4.6942   22.3401 C   0  0  0  0  0  0
  -22.7803  -13.5193   21.1879 C   0  0  0  0  0  0
  -22.1659   -4.2133   21.0981 F   0  0  0  0  0  0
  -21.5618   -3.4509   25.7722 F   0  0  0  0  0  0
  -29.9959  -13.5218   20.4165 N   0  0  0  0  0  0
  -26.2964  -12.9458   20.3418 N   0  0  0  0  0  0
  -25.9339  -11.6583   20.5842 N   0  0  0  0  0  0
  -22.0433  -12.8234   22.0458 N   0  0  0  0  0  0
  -25.4087  -15.1948   20.4185 N   0  0  0  0  0  0
  -31.8313  -14.8186   20.1866 O   0  0  0  0  0  0
  -21.6610   -6.8852   21.4229 O   0  0  0  0  0  0
  -22.3474  -14.5459   20.6653 O   0  0  0  0  0  0
  -24.6293  -31.8598   23.2004 C   0  0  0  0  0  0
  -25.9153  -32.4771   23.8311 C   0  0  1  0  0  0
  -27.2134  -27.2637   20.1463 C   0  0  0  0  0  0
  -25.5985  -33.8568   24.2255 N   0  0  0  0  0  0
  -23.4251  -30.4856   21.5413 C   0  0  2  0  0  0
  -24.8753  -28.9302   20.1143 C   0  0  0  0  0  0
  -22.7481  -29.4659   22.4889 C   0  0  0  0  0  0
  -18.0319  -28.1383   22.8489 C   0  0  0  0  0  0
  -24.1499  -36.7279   23.2629 C   0  0  0  0  0  0
  -25.9725  -30.7643   21.3869 C   0  0  0  0  0  0
  -26.0450  -29.3869   20.7362 C   0  0  0  0  0  0
  -27.2183  -28.5643   20.7522 C   0  0  0  0  0  0
  -26.0372  -26.8933   19.4655 C   0  0  0  0  0  0
  -24.8755  -27.6883   19.4653 C   0  0  0  0  0  0
  -23.6456  -29.8193   20.1577 C   0  0  0  0  0  0
  -25.4134  -36.3084   24.0318 C   0  0  1  0  0  0
  -20.5927  -28.3718   23.1253 C   0  0  2  0  0  0
  -20.6802  -26.9429   22.5411 C   0  0  0  0  0  0
  -19.5770  -26.6374   21.5218 C   0  0  0  0  0  0
  -18.1961  -26.7935   22.1626 C   0  0  0  0  0  0
  -19.1571  -28.8866   23.2870 C   0  0  0  0  0  0
  -18.9477  -30.1457   23.8885 C   0  0  0  0  0  0
  -17.6467  -30.6587   24.0570 C   0  0  0  0  0  0
  -25.9064  -34.9454   23.5070 C   0  0  0  0  0  0
  -16.5378  -29.9082   23.6329 C   0  0  0  0  0  0
  -16.7290  -28.6510   23.0364 C   0  0  0  0  0  0
  -26.4528  -31.6556   25.0671 C   0  0  0  0  0  0
  -25.3733  -31.3689   26.1354 C   0  0  0  0  0  0
  -27.0386  -30.2981   24.6150 C   0  0  0  0  0  0
  -27.6099  -32.4284   25.7445 C   0  0  0  0  0  0
  -27.5587  -37.1788   24.8461 C   0  0  0  0  0  0
  -21.4215  -29.3066   22.3625 N   0  0  0  0  0  0
  -26.4303  -37.3795   23.9398 N   0  0  0  0  0  0
  -24.6941  -31.0556   22.0993 N   0  0  0  0  0  0
  -23.4170  -28.8198   23.2999 O   0  0  0  0  0  0
  -28.2738  -26.3258   20.1345 O   0  0  0  0  0  0
  -26.5620  -34.8922   22.4641 O   0  0  0  0  0  0
  -23.5445  -32.1444   23.7287 O   0  0  0  0  0  0
  -29.5624  -22.8267   21.2696 C   0  0  0  0  0  0
  -28.1399  -21.6148   20.1274 C   0  0  0  0  0  0
  -29.2877  -21.4505   20.8563 C   0  0  0  0  0  0
  -28.6058  -23.7632   20.8503 C   0  0  0  0  0  0
  -25.3320  -22.3752   19.4956 C   0  0  0  0  0  0
  -31.5863  -20.3561   20.8220 C   0  0  0  0  0  0
  -29.4004  -25.8650   22.1914 C   0  0  0  0  0  0
  -29.6351  -18.6209   20.7042 C   0  0  0  0  0  0
  -26.4420  -23.4274   19.5895 C   0  0  0  0  0  0
  -30.4398  -17.2885   21.1971 C   0  0  0  0  0  0
  -30.1106  -20.1104   21.1971 C   0  0  2  0  0  0
  -28.3431  -25.3022   21.2249 C   0  0  1  0  0  0
  -27.6916  -22.9513   20.1687 N   0  0  0  0  0  0
  -29.9399  -15.8677   20.8867 N   0  0  0  0  0  0
  -31.4688  -12.5892   19.1669 H   0  0  0  0  0  0
  -30.3738  -11.4829   19.9439 H   0  0  0  0  0  0
  -29.7820  -11.7518   17.5250 H   0  0  0  0  0  0
  -29.6356  -13.4873   17.7265 H   0  0  0  0  0  0
  -27.8920  -11.3036   18.9065 H   0  0  0  0  0  0
  -27.3695  -12.5602   17.8084 H   0  0  0  0  0  0
  -27.6450  -14.2710   19.5049 H   0  0  0  0  0  0
  -28.7458  -12.1471   21.4077 H   0  0  0  0  0  0
  -28.4387  -13.8105   21.8330 H   0  0  0  0  0  0
  -25.2736   -9.5663   22.4761 H   0  0  0  0  0  0
  -23.9990   -7.4598   22.7460 H   0  0  0  0  0  0
  -21.0815   -8.8745   19.8939 H   0  0  0  0  0  0
  -22.3661  -10.9652   19.6153 H   0  0  0  0  0  0
  -21.2017   -7.6126   23.9707 H   0  0  0  0  0  0
  -21.1508   -6.0499   25.9081 H   0  0  0  0  0  0
  -22.0600   -2.7572   23.2837 H   0  0  0  0  0  0
  -22.3994  -11.9957   22.5014 H   0  0  0  0  0  0
  -21.1003  -13.1216   22.2483 H   0  0  0  0  0  0
  -24.6286  -15.8344   20.5231 H   0  0  0  0  0  0
  -26.2470  -15.6446   20.0765 H   0  0  0  0  0  0
  -26.7218  -32.5425   23.1031 H   0  0  0  0  0  0
  -25.0151  -33.9685   25.0406 H   0  0  0  0  0  0
  -22.7206  -31.3078   21.3963 H   0  0  0  0  0  0
  -23.3754  -35.9610   23.3306 H   0  0  0  0  0  0
  -24.3571  -36.8888   22.2035 H   0  0  0  0  0  0
  -23.7239  -37.6480   23.6644 H   0  0  0  0  0  0
  -26.1184  -31.5221   20.6172 H   0  0  0  0  0  0
  -26.8463  -30.8061   22.0222 H   0  0  0  0  0  0
  -28.1112  -28.9169   21.2483 H   0  0  0  0  0  0
  -25.9987  -25.9617   18.9304 H   0  0  0  0  0  0
  -23.9851  -27.3359   18.9596 H   0  0  0  0  0  0
  -23.7746  -30.5970   19.4040 H   0  0  0  0  0  0
  -22.7607  -29.2591   19.8508 H   0  0  0  0  0  0
  -25.1320  -36.1912   25.0814 H   0  0  0  0  0  0
  -21.0043  -28.3315   24.1360 H   0  0  0  0  0  0
  -20.5701  -26.2353   23.3628 H   0  0  0  0  0  0
  -21.6678  -26.7456   22.1215 H   0  0  0  0  0  0
  -19.6939  -25.6276   21.1267 H   0  0  0  0  0  0
  -19.6705  -27.3179   20.6742 H   0  0  0  0  0  0
  -17.4255  -26.6722   21.4013 H   0  0  0  0  0  0
  -18.0342  -26.0052   22.8991 H   0  0  0  0  0  0
  -19.7944  -30.7313   24.2230 H   0  0  0  0  0  0
  -17.5016  -31.6253   24.5183 H   0  0  0  0  0  0
  -15.5377  -30.2978   23.7618 H   0  0  0  0  0  0
  -15.8715  -28.0801   22.7060 H   0  0  0  0  0  0
  -24.5920  -30.7063   25.7620 H   0  0  0  0  0  0
  -24.8893  -32.2858   26.4743 H   0  0  0  0  0  0
  -25.7999  -30.8838   27.0137 H   0  0  0  0  0  0
  -26.2981  -29.6681   24.1221 H   0  0  0  0  0  0
  -27.4149  -29.7281   25.4646 H   0  0  0  0  0  0
  -27.8824  -30.4253   23.9365 H   0  0  0  0  0  0
  -27.2741  -33.3597   26.2005 H   0  0  0  0  0  0
  -28.3912  -32.6807   25.0270 H   0  0  0  0  0  0
  -28.0755  -31.8391   26.5335 H   0  0  0  0  0  0
  -28.2623  -38.0071   24.7545 H   0  0  0  0  0  0
  -28.1081  -36.2613   24.6293 H   0  0  0  0  0  0
  -27.2297  -37.1459   25.8860 H   0  0  0  0  0  0
  -20.9380  -29.8772   21.6829 H   0  0  0  0  0  0
  -26.0167  -38.2865   24.1413 H   0  0  0  0  0  0
  -30.4009  -23.1034   21.8908 H   0  0  0  0  0  0
  -27.5641  -20.8599   19.6072 H   0  0  0  0  0  0
  -24.3873  -22.8568   19.2405 H   0  0  0  0  0  0
  -25.1944  -21.8580   20.4437 H   0  0  0  0  0  0
  -25.5375  -21.6351   18.7216 H   0  0  0  0  0  0
  -32.2381  -19.5572   21.1778 H   0  0  0  0  0  0
  -31.9615  -21.2783   21.2614 H   0  0  0  0  0  0
  -31.7162  -20.4521   19.7422 H   0  0  0  0  0  0
  -29.2284  -26.9220   22.3937 H   0  0  0  0  0  0
  -30.4059  -25.7786   21.7741 H   0  0  0  0  0  0
  -29.3794  -25.3464   23.1522 H   0  0  0  0  0  0
  -28.5933  -18.4933   20.9918 H   0  0  0  0  0  0
  -29.6356  -18.6209   19.6143 H   0  0  0  0  0  0
  -26.0602  -24.2226   20.2260 H   0  0  0  0  0  0
  -26.6493  -23.8496   18.6052 H   0  0  0  0  0  0
  -30.5022  -17.3446   22.2839 H   0  0  0  0  0  0
  -31.4799  -17.3544   20.8694 H   0  0  0  0  0  0
  -30.0839  -20.0691   22.2887 H   0  0  0  0  0  0
  -27.3974  -25.3351   21.7734 H   0  0  0  0  0  0
  -28.9646  -15.7016   21.0833 H   0  0  0  0  0  0
  1 25  1  0  0  0
  1 30  2  0  0  0
  1 84  1  0  0  0
  2  3  1  0  0  0
  2 25  1  0  0  0
  2 85  1  0  0  0
  2 86  1  0  0  0
  3  4  1  0  0  0
  3 87  1  0  0  0
  3 88  1  0  0  0
  4  5  1  0  0  0
  4 89  1  0  0  0
  4 90  1  0  0  0
  5  6  1  0  0  0
  5 26  1  0  0  0
  5 91  1  0  0  0
  6 25  1  0  0  0
  6 92  1  0  0  0
  6 93  1  0  0  0
  7  8  2  0  0  0
  7 26  1  0  0  0
  7 29  1  0  0  0
  8  9  1  0  0  0
  8 22  1  0  0  0
  9 10  1  0  0  0
  9 27  2  0  0  0
 10 11  2  0  0  0
 10 15  1  0  0  0
 11 12  1  0  0  0
 11 94  1  0  0  0
 12 13  2  0  0  0
 12 95  1  0  0  0
 13 14  1  0  0  0
 13 31  1  0  0  0
 14 15  2  0  0  0
 14 96  1  0  0  0
 15 97  1  0  0  0
 16 17  2  0  0  0
 16 21  1  0  0  0
 16 31  1  0  0  0
 17 18  1  0  0  0
 17 98  1  0  0  0
 18 19  2  0  0  0
 18 99  1  0  0  0
 19 20  1  0  0  0
 19 24  1  0  0  0
 20 21  2  0  0  0
 20100  1  0  0  0
 21 23  1  0  0  0
 22 28  1  0  0  0
 22 32  2  0  0  0
 26 27  1  0  0  0
 28101  1  0  0  0
 28102  1  0  0  0
 29103  1  0  0  0
 29104  1  0  0  0
 33 34  1  0  0  0
 33 66  1  0  0  0
 33 70  2  0  0  0
 34 36  1  0  0  0
 34 59  1  0  0  0
 34105  1  0  0  0
 35 44  2  0  0  0
 35 45  1  0  0  0
 35 68  1  0  0  0
 36 56  1  0  0  0
 36106  1  0  0  0
 37 39  1  0  0  0
 37 47  1  0  0  0
 37 66  1  0  0  0
 37107  1  0  0  0
 38 43  2  0  0  0
 38 46  1  0  0  0
 38 47  1  0  0  0
 39 64  1  0  0  0
 39 67  2  0  0  0
 40 52  1  0  0  0
 40 53  2  0  0  0
 40 58  1  0  0  0
 41108  1  0  0  0
 41109  1  0  0  0
 41110  1  0  0  0
 41 48  1  0  0  0
 42 43  1  0  0  0
 42 66  1  0  0  0
 42111  1  0  0  0
 42112  1  0  0  0
 43 44  1  0  0  0
 44113  1  0  0  0
 45 46  2  0  0  0
 45114  1  0  0  0
 46115  1  0  0  0
 47116  1  0  0  0
 47117  1  0  0  0
 48 56  1  0  0  0
 48 65  1  0  0  0
 48118  1  0  0  0
 49 50  1  0  0  0
 49 53  1  0  0  0
 49 64  1  0  0  0
 49119  1  0  0  0
 50 51  1  0  0  0
 50120  1  0  0  0
 50121  1  0  0  0
 51 52  1  0  0  0
 51122  1  0  0  0
 51123  1  0  0  0
 52124  1  0  0  0
 52125  1  0  0  0
 53 54  1  0  0  0
 54 55  2  0  0  0
 54126  1  0  0  0
 55 57  1  0  0  0
 55127  1  0  0  0
 56 69  2  0  0  0
 57 58  2  0  0  0
 57128  1  0  0  0
 58129  1  0  0  0
 59 60  1  0  0  0
 59 61  1  0  0  0
 59 62  1  0  0  0
 60130  1  0  0  0
 60131  1  0  0  0
 60132  1  0  0  0
 61133  1  0  0  0
 61134  1  0  0  0
 61135  1  0  0  0
 62136  1  0  0  0
 62137  1  0  0  0
 62138  1  0  0  0
 63 65  1  0  0  0
 63139  1  0  0  0
 63140  1  0  0  0
 63141  1  0  0  0
 64142  1  0  0  0
 65143  1  0  0  0
 68 82  1  0  0  0
 71 73  1  0  0  0
 71 74  2  0  0  0
 71144  1  0  0  0
 72 73  2  0  0  0
 72 83  1  0  0  0
 72145  1  0  0  0
 73 81  1  0  0  0
 74 82  1  0  0  0
 74 83  1  0  0  0
 75 79  1  0  0  0
 75146  1  0  0  0
 75147  1  0  0  0
 75148  1  0  0  0
 76149  1  0  0  0
 76150  1  0  0  0
 76151  1  0  0  0
 76 81  1  0  0  0
 77152  1  0  0  0
 77153  1  0  0  0
 77154  1  0  0  0
 77 82  1  0  0  0
 78 80  1  0  0  0
 78 81  1  0  0  0
 78155  1  0  0  0
 78156  1  0  0  0
 79 83  1  0  0  0
 79157  1  0  0  0
 79158  1  0  0  0
 80 84  1  0  0  0
 80159  1  0  0  0
 80160  1  0  0  0
 81161  1  0  0  0
 82162  1  0  0  0
 84163  1  0  0  0
M  ISO  4   1 100  68 101  82 101  84 100
M  END
> <chiral flag>
0

> <version>
0

> <s_m_source_file>
/data/baiqing/PycharmProjects/Reinvent-master-3.2/result/LINK_invent/BTK/process_docking_weight1_custom_sum_contain_oxygen_bond_distance_aromatic_linkinvent_7_9_3/rearranged_h_0080.sdf

> <i_m_source_file_index>
35

> <r_mmod_Potential_Energy-OPLS-2005>
172.603363037109

> <r_mmod_Stretch_Energy-OPLS-2005>
135.411346435547

> <r_mmod_Bend_Energy-OPLS-2005>
184.463851928711

> <r_mmod_Torsional_Energy-OPLS-2005>
252.614059448242

> <r_mmod_Improper_Torsional_Energy-OPLS-2005>
4.56183481216431

> <r_mmod_Van_der_Waal_Energy-OPLS-2005>
110.076889038086

> <r_mmod_Electrostatic_Energy-OPLS-2005>
-393.414489746094

> <r_mmod_Solvation_Energy-OPLS-2005>
-204.485397338867

> <b_mmod_Minimization_Converged-OPLS-2005>
0

> <r_mmod_RMS_Derivative-OPLS-2005>
5.92695188522339

$$$$
37
                    3D
 Structure written by MMmdl.
164172  0  0  1  0            999 V2000
  -30.6836  -14.4260   20.6171 C   0  0  0  0  0  0
  -30.4348  -12.2954   19.3979 C   0  0  0  0  0  0
  -29.4901  -12.5167   18.1968 C   0  0  0  0  0  0
  -28.0127  -12.3734   18.6141 C   0  0  0  0  0  0
  -27.6704  -13.1920   19.8877 C   0  0  2  0  0  0
  -28.7107  -12.9090   20.9954 C   0  0  0  0  0  0
  -25.2628  -13.8113   20.5679 C   0  0  0  0  0  0
  -24.1850  -13.0413   20.9156 C   0  0  0  0  0  0
  -24.6389  -11.6873   20.8725 C   0  0  0  0  0  0
  -23.9046  -10.4275   21.0402 C   0  0  0  0  0  0
  -24.3607   -9.4198   21.9184 C   0  0  0  0  0  0
  -23.6284   -8.2233   22.0753 C   0  0  0  0  0  0
  -22.4271   -8.0274   21.3533 C   0  0  0  0  0  0
  -21.9903   -9.0254   20.4642 C   0  0  0  0  0  0
  -22.7222  -10.2133   20.3057 C   0  0  0  0  0  0
  -21.6849   -6.0733   22.5275 C   0  0  0  0  0  0
  -21.4006   -6.5638   23.8211 C   0  0  0  0  0  0
  -21.3654   -5.6791   24.9175 C   0  0  0  0  0  0
  -21.6044   -4.3050   24.7226 C   0  0  0  0  0  0
  -21.8811   -3.8145   23.4344 C   0  0  0  0  0  0
  -21.9191   -4.6962   22.3401 C   0  0  0  0  0  0
  -22.7887  -13.5248   21.1827 C   0  0  0  0  0  0
  -22.1662   -4.2149   21.0977 F   0  0  0  0  0  0
  -21.5636   -3.4535   25.7740 F   0  0  0  0  0  0
  -30.0466  -13.2360   20.4589 N   0  0  0  0  0  0
  -26.3069  -12.9261   20.3430 N   0  0  0  0  0  0
  -25.9319  -11.6434   20.5787 N   0  0  0  0  0  0
  -22.0520  -12.8254   22.0384 N   0  0  0  0  0  0
  -25.4358  -15.1822   20.4097 N   0  0  0  0  0  0
  -31.7679  -14.6988   20.0924 O   0  0  0  0  0  0
  -21.6628   -6.8876   21.4236 O   0  0  0  0  0  0
  -22.3591  -14.5577   20.6705 O   0  0  0  0  0  0
  -24.6114  -31.8692   23.2125 C   0  0  0  0  0  0
  -25.9023  -32.4831   23.8406 C   0  0  1  0  0  0
  -27.2405  -27.4642   20.0949 C   0  0  0  0  0  0
  -25.5903  -33.8629   24.2340 N   0  0  0  0  0  0
  -23.3987  -30.4911   21.5517 C   0  0  2  0  0  0
  -24.8501  -28.9601   20.1161 C   0  0  0  0  0  0
  -22.7386  -29.4661   22.5008 C   0  0  0  0  0  0
  -18.0255  -28.1364   22.8484 C   0  0  0  0  0  0
  -24.1481  -36.7314   23.2629 C   0  0  0  0  0  0
  -25.9240  -30.8421   21.3635 C   0  0  0  0  0  0
  -26.0055  -29.4760   20.7184 C   0  0  0  0  0  0
  -27.2054  -28.7319   20.7144 C   0  0  0  0  0  0
  -26.0760  -26.9541   19.4890 C   0  0  0  0  0  0
  -24.8783  -27.6952   19.5011 C   0  0  0  0  0  0
  -23.6073  -29.8212   20.1660 C   0  0  0  0  0  0
  -25.4102  -36.3120   24.0333 C   0  0  1  0  0  0
  -20.5848  -28.3650   23.1325 C   0  0  2  0  0  0
  -20.6758  -26.9393   22.5418 C   0  0  0  0  0  0
  -19.5748  -26.6375   21.5205 C   0  0  0  0  0  0
  -18.1914  -26.7910   22.1607 C   0  0  0  0  0  0
  -19.1506  -28.8823   23.2897 C   0  0  0  0  0  0
  -18.9442  -30.1425   23.8915 C   0  0  0  0  0  0
  -17.6451  -30.6579   24.0559 C   0  0  0  0  0  0
  -25.9036  -34.9481   23.5129 C   0  0  0  0  0  0
  -16.5340  -29.9088   23.6325 C   0  0  0  0  0  0
  -16.7247  -28.6498   23.0355 C   0  0  0  0  0  0
  -26.4475  -31.6601   25.0718 C   0  0  0  0  0  0
  -25.3750  -31.3693   26.1470 C   0  0  0  0  0  0
  -27.0303  -30.3051   24.6061 C   0  0  0  0  0  0
  -27.6056  -32.4316   25.7483 C   0  0  0  0  0  0
  -27.5594  -37.1786   24.8442 C   0  0  0  0  0  0
  -21.4120  -29.3020   22.3741 N   0  0  0  0  0  0
  -26.4274  -37.3816   23.9436 N   0  0  0  0  0  0
  -24.6624  -31.0814   22.1016 N   0  0  0  0  0  0
  -23.4168  -28.8192   23.3034 O   0  0  0  0  0  0
  -28.3954  -26.7277   20.0357 O   0  0  0  0  0  0
  -26.5593  -34.8932   22.4688 O   0  0  0  0  0  0
  -23.5317  -32.1435   23.7538 O   0  0  0  0  0  0
  -29.6635  -19.8208   21.9484 C   0  0  0  0  0  0
  -28.7346  -20.4849   21.1911 C   0  0  0  0  0  0
  -27.2604  -20.2920   21.0212 C   0  0  0  0  0  0
  -29.7131  -19.1574   24.3627 C   0  0  0  0  0  0
  -28.3992  -23.7099   20.1063 C   0  0  0  0  0  0
  -29.3574  -24.6599   20.8521 C   0  0  0  0  0  0
  -30.3136  -17.4195   22.6039 C   0  0  0  0  0  0
  -29.0430  -22.4261   19.5382 C   0  0  0  0  0  0
  -30.0538  -16.7967   21.2169 C   0  0  0  0  0  0
  -28.6998  -26.0039   21.2253 C   0  0  0  0  0  0
  -29.4751  -18.6818   22.9224 C   0  0  2  0  0  0
  -30.9066  -20.4234   21.7429 N   0  0  0  0  0  0
  -30.7801  -21.3982   20.8959 N   0  0  0  0  0  0
  -29.4738  -21.4599   20.5413 N   0  0  0  0  0  0
  -29.9563  -15.3373   21.2801 N   0  0  0  0  0  0
  -31.4753  -12.4217   19.0907 H   0  0  0  0  0  0
  -30.3576  -11.2690   19.7613 H   0  0  0  0  0  0
  -29.7211  -11.8075   17.4018 H   0  0  0  0  0  0
  -29.6557  -13.5087   17.7756 H   0  0  0  0  0  0
  -27.8195  -11.3141   18.7905 H   0  0  0  0  0  0
  -27.3581  -12.6661   17.7924 H   0  0  0  0  0  0
  -27.7333  -14.2476   19.6228 H   0  0  0  0  0  0
  -28.6853  -11.8531   21.2694 H   0  0  0  0  0  0
  -28.4671  -13.4428   21.9150 H   0  0  0  0  0  0
  -25.2746   -9.5684   22.4765 H   0  0  0  0  0  0
  -23.9980   -7.4631   22.7483 H   0  0  0  0  0  0
  -21.0826   -8.8776   19.8967 H   0  0  0  0  0  0
  -22.3664  -10.9680   19.6181 H   0  0  0  0  0  0
  -21.1987   -7.6149   23.9711 H   0  0  0  0  0  0
  -21.1494   -6.0524   25.9079 H   0  0  0  0  0  0
  -22.0598   -2.7605   23.2844 H   0  0  0  0  0  0
  -22.4126  -11.9908   22.4767 H   0  0  0  0  0  0
  -21.1158  -13.1319   22.2615 H   0  0  0  0  0  0
  -24.6691  -15.8389   20.5083 H   0  0  0  0  0  0
  -26.2978  -15.6185   20.1071 H   0  0  0  0  0  0
  -26.7100  -32.5562   23.1181 H   0  0  0  0  0  0
  -25.0077  -33.9791   25.0501 H   0  0  0  0  0  0
  -22.6862  -31.3068   21.4124 H   0  0  0  0  0  0
  -23.3759  -35.9626   23.3254 H   0  0  0  0  0  0
  -24.3592  -36.8971   22.2053 H   0  0  0  0  0  0
  -23.7200  -37.6491   23.6671 H   0  0  0  0  0  0
  -26.0268  -31.6047   20.5910 H   0  0  0  0  0  0
  -26.8148  -30.9021   21.9760 H   0  0  0  0  0  0
  -28.0995  -29.1290   21.1742 H   0  0  0  0  0  0
  -26.0983  -25.9852   19.0105 H   0  0  0  0  0  0
  -23.9922  -27.2926   19.0305 H   0  0  0  0  0  0
  -23.7077  -30.5947   19.4033 H   0  0  0  0  0  0
  -22.7339  -29.2349   19.8746 H   0  0  0  0  0  0
  -25.1264  -36.1979   25.0821 H   0  0  0  0  0  0
  -20.9917  -28.3212   24.1455 H   0  0  0  0  0  0
  -20.5671  -26.2251   23.3594 H   0  0  0  0  0  0
  -21.6632  -26.7453   22.1213 H   0  0  0  0  0  0
  -19.6925  -25.6289   21.1225 H   0  0  0  0  0  0
  -19.6704  -27.3191   20.6745 H   0  0  0  0  0  0
  -17.4193  -26.6644   21.4002 H   0  0  0  0  0  0
  -18.0327  -26.0040   22.8998 H   0  0  0  0  0  0
  -19.7923  -30.7216   24.2315 H   0  0  0  0  0  0
  -17.5019  -31.6270   24.5138 H   0  0  0  0  0  0
  -15.5351  -30.3012   23.7641 H   0  0  0  0  0  0
  -15.8631  -28.0826   22.7096 H   0  0  0  0  0  0
  -24.5920  -30.7045   25.7807 H   0  0  0  0  0  0
  -24.8937  -32.2842   26.4938 H   0  0  0  0  0  0
  -25.8101  -30.8847   27.0217 H   0  0  0  0  0  0
  -26.2830  -29.6815   24.1140 H   0  0  0  0  0  0
  -27.4125  -29.7284   25.4495 H   0  0  0  0  0  0
  -27.8643  -30.4385   23.9164 H   0  0  0  0  0  0
  -27.2682  -33.3610   26.2083 H   0  0  0  0  0  0
  -28.3862  -32.6885   25.0308 H   0  0  0  0  0  0
  -28.0730  -31.8422   26.5383 H   0  0  0  0  0  0
  -28.2535  -38.0163   24.7636 H   0  0  0  0  0  0
  -28.1169  -36.2707   24.6080 H   0  0  0  0  0  0
  -27.2331  -37.1207   25.8840 H   0  0  0  0  0  0
  -20.9280  -29.8742   21.6963 H   0  0  0  0  0  0
  -26.0159  -38.2868   24.1541 H   0  0  0  0  0  0
  -26.8329  -19.7313   21.8526 H   0  0  0  0  0  0
  -27.0438  -19.7484   20.1019 H   0  0  0  0  0  0
  -26.7398  -21.2481   20.9747 H   0  0  0  0  0  0
  -29.0526  -19.9881   24.6136 H   0  0  0  0  0  0
  -30.7413  -19.4957   24.4986 H   0  0  0  0  0  0
  -29.5253  -18.3588   25.0811 H   0  0  0  0  0  0
  -27.9660  -24.2527   19.2665 H   0  0  0  0  0  0
  -27.5627  -23.4530   20.7552 H   0  0  0  0  0  0
  -30.2413  -24.8528   20.2425 H   0  0  0  0  0  0
  -29.7135  -24.1733   21.7615 H   0  0  0  0  0  0
  -31.3756  -17.6532   22.6934 H   0  0  0  0  0  0
  -30.1135  -16.6794   23.3800 H   0  0  0  0  0  0
  -29.8923  -22.6788   18.9024 H   0  0  0  0  0  0
  -28.3291  -21.9248   18.8850 H   0  0  0  0  0  0
  -30.8113  -17.1246   20.5035 H   0  0  0  0  0  0
  -29.0985  -17.1473   20.8217 H   0  0  0  0  0  0
  -29.3851  -26.6012   21.8282 H   0  0  0  0  0  0
  -27.8131  -25.8279   21.8381 H   0  0  0  0  0  0
  -28.4316  -18.3664   22.8802 H   0  0  0  0  0  0
  -29.1078  -14.9726   21.6872 H   0  0  0  0  0  0
  1 25  1  0  0  0
  1 30  2  0  0  0
  1 85  1  0  0  0
  2  3  1  0  0  0
  2 25  1  0  0  0
  2 86  1  0  0  0
  2 87  1  0  0  0
  3  4  1  0  0  0
  3 88  1  0  0  0
  3 89  1  0  0  0
  4  5  1  0  0  0
  4 90  1  0  0  0
  4 91  1  0  0  0
  5  6  1  0  0  0
  5 26  1  0  0  0
  5 92  1  0  0  0
  6 25  1  0  0  0
  6 93  1  0  0  0
  6 94  1  0  0  0
  7  8  2  0  0  0
  7 26  1  0  0  0
  7 29  1  0  0  0
  8  9  1  0  0  0
  8 22  1  0  0  0
  9 10  1  0  0  0
  9 27  2  0  0  0
 10 11  2  0  0  0
 10 15  1  0  0  0
 11 12  1  0  0  0
 11 95  1  0  0  0
 12 13  2  0  0  0
 12 96  1  0  0  0
 13 14  1  0  0  0
 13 31  1  0  0  0
 14 15  2  0  0  0
 14 97  1  0  0  0
 15 98  1  0  0  0
 16 17  2  0  0  0
 16 21  1  0  0  0
 16 31  1  0  0  0
 17 18  1  0  0  0
 17 99  1  0  0  0
 18 19  2  0  0  0
 18100  1  0  0  0
 19 20  1  0  0  0
 19 24  1  0  0  0
 20 21  2  0  0  0
 20101  1  0  0  0
 21 23  1  0  0  0
 22 28  1  0  0  0
 22 32  2  0  0  0
 26 27  1  0  0  0
 28102  1  0  0  0
 28103  1  0  0  0
 29104  1  0  0  0
 29105  1  0  0  0
 33 34  1  0  0  0
 33 66  1  0  0  0
 33 70  2  0  0  0
 34 36  1  0  0  0
 34 59  1  0  0  0
 34106  1  0  0  0
 35 44  2  0  0  0
 35 45  1  0  0  0
 35 68  1  0  0  0
 36 56  1  0  0  0
 36107  1  0  0  0
 37 39  1  0  0  0
 37 47  1  0  0  0
 37 66  1  0  0  0
 37108  1  0  0  0
 38 43  2  0  0  0
 38 46  1  0  0  0
 38 47  1  0  0  0
 39 64  1  0  0  0
 39 67  2  0  0  0
 40 52  1  0  0  0
 40 53  2  0  0  0
 40 58  1  0  0  0
 41109  1  0  0  0
 41110  1  0  0  0
 41111  1  0  0  0
 41 48  1  0  0  0
 42 43  1  0  0  0
 42 66  1  0  0  0
 42112  1  0  0  0
 42113  1  0  0  0
 43 44  1  0  0  0
 44114  1  0  0  0
 45 46  2  0  0  0
 45115  1  0  0  0
 46116  1  0  0  0
 47117  1  0  0  0
 47118  1  0  0  0
 48 56  1  0  0  0
 48 65  1  0  0  0
 48119  1  0  0  0
 49 50  1  0  0  0
 49 53  1  0  0  0
 49 64  1  0  0  0
 49120  1  0  0  0
 50 51  1  0  0  0
 50121  1  0  0  0
 50122  1  0  0  0
 51 52  1  0  0  0
 51123  1  0  0  0
 51124  1  0  0  0
 52125  1  0  0  0
 52126  1  0  0  0
 53 54  1  0  0  0
 54 55  2  0  0  0
 54127  1  0  0  0
 55 57  1  0  0  0
 55128  1  0  0  0
 56 69  2  0  0  0
 57 58  2  0  0  0
 57129  1  0  0  0
 58130  1  0  0  0
 59 60  1  0  0  0
 59 61  1  0  0  0
 59 62  1  0  0  0
 60131  1  0  0  0
 60132  1  0  0  0
 60133  1  0  0  0
 61134  1  0  0  0
 61135  1  0  0  0
 61136  1  0  0  0
 62137  1  0  0  0
 62138  1  0  0  0
 62139  1  0  0  0
 63 65  1  0  0  0
 63140  1  0  0  0
 63141  1  0  0  0
 63142  1  0  0  0
 64143  1  0  0  0
 65144  1  0  0  0
 68 80  1  0  0  0
 71 72  2  0  0  0
 71 81  1  0  0  0
 71 82  1  0  0  0
 72 73  1  0  0  0
 72 84  1  0  0  0
 73145  1  0  0  0
 73146  1  0  0  0
 73147  1  0  0  0
 74148  1  0  0  0
 74149  1  0  0  0
 74150  1  0  0  0
 74 81  1  0  0  0
 75 76  1  0  0  0
 75 78  1  0  0  0
 75151  1  0  0  0
 75152  1  0  0  0
 76 80  1  0  0  0
 76153  1  0  0  0
 76154  1  0  0  0
 77 79  1  0  0  0
 77 81  1  0  0  0
 77155  1  0  0  0
 77156  1  0  0  0
 78 84  1  0  0  0
 78157  1  0  0  0
 78158  1  0  0  0
 79 85  1  0  0  0
 79159  1  0  0  0
 79160  1  0  0  0
 80161  1  0  0  0
 80162  1  0  0  0
 81163  1  0  0  0
 82 83  2  0  0  0
 83 84  1  0  0  0
 85164  1  0  0  0
M  ISO  4   1 100  68 101  80 101  85 100
M  END
> <chiral flag>
0

> <version>
0

> <s_m_source_file>
/data/baiqing/PycharmProjects/Reinvent-master-3.2/result/LINK_invent/BTK/process_docking_weight1_custom_sum_contain_oxygen_bond_distance_aromatic_linkinvent_7_9_3/rearranged_h_0080.sdf

> <i_m_source_file_index>
36

> <r_mmod_Potential_Energy-OPLS-2005>
-106.297744750977

> <r_mmod_Stretch_Energy-OPLS-2005>
31.7206745147705

> <r_mmod_Bend_Energy-OPLS-2005>
93.5130157470703

> <r_mmod_Torsional_Energy-OPLS-2005>
237.851638793945

> <r_mmod_Improper_Torsional_Energy-OPLS-2005>
4.15253257751465

> <r_mmod_Van_der_Waal_Energy-OPLS-2005>
116.910858154297

> <r_mmod_Electrostatic_Energy-OPLS-2005>
-383.059173583984

> <r_mmod_Solvation_Energy-OPLS-2005>
-215.522552490234

> <b_mmod_Minimization_Converged-OPLS-2005>
0

> <r_mmod_RMS_Derivative-OPLS-2005>
1.61535799503326

$$$$
38
                    3D
 Structure written by MMmdl.
178186  0  0  1  0            999 V2000
  -30.7524  -14.4011   20.6525 C   0  0  0  0  0  0
  -30.4160  -12.2964   19.4079 C   0  0  0  0  0  0
  -29.4906  -12.5220   18.1983 C   0  0  0  0  0  0
  -28.0129  -12.3748   18.6109 C   0  0  0  0  0  0
  -27.6634  -13.2065   19.8740 C   0  0  2  0  0  0
  -28.7011  -12.9665   20.9935 C   0  0  0  0  0  0
  -25.2600  -13.8178   20.5687 C   0  0  0  0  0  0
  -24.1846  -13.0454   20.9179 C   0  0  0  0  0  0
  -24.6380  -11.6920   20.8723 C   0  0  0  0  0  0
  -23.9040  -10.4303   21.0403 C   0  0  0  0  0  0
  -24.3604   -9.4224   21.9186 C   0  0  0  0  0  0
  -23.6289   -8.2250   22.0751 C   0  0  0  0  0  0
  -22.4274   -8.0275   21.3540 C   0  0  0  0  0  0
  -21.9901   -9.0250   20.4648 C   0  0  0  0  0  0
  -22.7216  -10.2137   20.3054 C   0  0  0  0  0  0
  -21.6853   -6.0735   22.5287 C   0  0  0  0  0  0
  -21.4006   -6.5641   23.8225 C   0  0  0  0  0  0
  -21.3660   -5.6788   24.9186 C   0  0  0  0  0  0
  -21.6053   -4.3046   24.7230 C   0  0  0  0  0  0
  -21.8815   -3.8148   23.4346 C   0  0  0  0  0  0
  -21.9191   -4.6966   22.3406 C   0  0  0  0  0  0
  -22.7870  -13.5254   21.1845 C   0  0  0  0  0  0
  -22.1665   -4.2156   21.0981 F   0  0  0  0  0  0
  -21.5633   -3.4525   25.7734 F   0  0  0  0  0  0
  -30.0399  -13.2618   20.4523 N   0  0  0  0  0  0
  -26.3024  -12.9339   20.3339 N   0  0  0  0  0  0
  -25.9300  -11.6494   20.5733 N   0  0  0  0  0  0
  -22.0488  -12.8266   22.0403 N   0  0  0  0  0  0
  -25.4346  -15.1897   20.4139 N   0  0  0  0  0  0
  -31.8104  -14.6475   20.0667 O   0  0  0  0  0  0
  -21.6634   -6.8879   21.4246 O   0  0  0  0  0  0
  -22.3559  -14.5558   20.6676 O   0  0  0  0  0  0
  -24.6134  -31.8691   23.2120 C   0  0  0  0  0  0
  -25.9032  -32.4828   23.8407 C   0  0  1  0  0  0
  -27.2378  -27.4499   20.0710 C   0  0  0  0  0  0
  -25.5895  -33.8629   24.2339 N   0  0  0  0  0  0
  -23.4004  -30.4941   21.5526 C   0  0  2  0  0  0
  -24.8453  -28.9632   20.1144 C   0  0  0  0  0  0
  -22.7403  -29.4668   22.4995 C   0  0  0  0  0  0
  -18.0266  -28.1380   22.8499 C   0  0  0  0  0  0
  -24.1484  -36.7317   23.2640 C   0  0  0  0  0  0
  -25.9291  -30.8356   21.3649 C   0  0  0  0  0  0
  -26.0048  -29.4707   20.7123 C   0  0  0  0  0  0
  -27.1989  -28.7160   20.6987 C   0  0  0  0  0  0
  -26.0497  -26.9441   19.4925 C   0  0  0  0  0  0
  -24.8606  -27.6959   19.5086 C   0  0  0  0  0  0
  -23.6079  -29.8294   20.1660 C   0  0  0  0  0  0
  -25.4104  -36.3119   24.0344 C   0  0  1  0  0  0
  -20.5857  -28.3662   23.1324 C   0  0  2  0  0  0
  -20.6756  -26.9399   22.5421 C   0  0  0  0  0  0
  -19.5735  -26.6389   21.5218 C   0  0  0  0  0  0
  -18.1915  -26.7927   22.1631 C   0  0  0  0  0  0
  -19.1517  -28.8836   23.2909 C   0  0  0  0  0  0
  -18.9448  -30.1445   23.8915 C   0  0  0  0  0  0
  -17.6448  -30.6590   24.0565 C   0  0  0  0  0  0
  -25.9030  -34.9481   23.5136 C   0  0  0  0  0  0
  -16.5339  -29.9093   23.6326 C   0  0  0  0  0  0
  -16.7258  -28.6510   23.0348 C   0  0  0  0  0  0
  -26.4467  -31.6604   25.0730 C   0  0  0  0  0  0
  -25.3742  -31.3702   26.1486 C   0  0  0  0  0  0
  -27.0294  -30.3050   24.6096 C   0  0  0  0  0  0
  -27.6048  -32.4321   25.7487 C   0  0  0  0  0  0
  -27.5581  -37.1811   24.8467 C   0  0  0  0  0  0
  -21.4130  -29.3029   22.3734 N   0  0  0  0  0  0
  -26.4291  -37.3800   23.9413 N   0  0  0  0  0  0
  -24.6661  -31.0803   22.1016 N   0  0  0  0  0  0
  -23.4180  -28.8205   23.3031 O   0  0  0  0  0  0
  -28.4177  -26.7341   20.0875 O   0  0  0  0  0  0
  -26.5590  -34.8930   22.4698 O   0  0  0  0  0  0
  -23.5328  -32.1437   23.7518 O   0  0  0  0  0  0
  -30.3281  -19.3419   20.8055 C   0  0  0  0  0  0
  -28.2526  -18.5426   20.9790 C   0  0  0  0  0  0
  -29.5784  -19.9789   19.8510 C   0  0  0  0  0  0
  -28.2482  -19.4647   19.9665 C   0  0  0  0  0  0
  -25.6932  -18.0954   15.8563 C   0  0  0  0  0  0
  -24.3313  -19.1805   17.6812 C   0  0  0  0  0  0
  -30.5660  -18.3506   23.7157 C   0  0  0  0  0  0
  -30.1000  -20.9643   18.8229 C   0  0  0  0  0  0
  -27.0560  -19.8139   19.1118 C   0  0  0  0  0  0
  -30.4452  -22.3763   19.3488 C   0  0  0  0  0  0
  -26.8361  -18.7624   18.0108 C   0  0  0  0  0  0
  -29.3089  -23.4178   19.2315 C   0  0  0  0  0  0
  -29.8175  -24.8788   19.3061 C   0  0  0  0  0  0
  -30.9245  -16.4461   22.0603 C   0  0  0  0  0  0
  -28.7554  -25.9409   18.9457 C   0  0  0  0  0  0
  -25.7139  -19.1075   17.0121 C   0  0  0  0  0  0
  -29.9512  -17.5408   22.5638 C   0  0  2  0  0  0
  -29.5295  -18.4402   21.4895 N   0  0  0  0  0  0
  -30.2407  -15.2521   21.5517 N   0  0  0  0  0  0
  -31.4626  -12.3857   19.1099 H   0  0  0  0  0  0
  -30.3049  -11.2784   19.7844 H   0  0  0  0  0  0
  -29.7335  -11.8169   17.4019 H   0  0  0  0  0  0
  -29.6607  -13.5182   17.7882 H   0  0  0  0  0  0
  -27.8273  -11.3171   18.8016 H   0  0  0  0  0  0
  -27.3596  -12.6524   17.7831 H   0  0  0  0  0  0
  -27.7152  -14.2585   19.5903 H   0  0  0  0  0  0
  -28.6687  -11.9262   21.3210 H   0  0  0  0  0  0
  -28.4474  -13.5483   21.8794 H   0  0  0  0  0  0
  -25.2752   -9.5708   22.4748 H   0  0  0  0  0  0
  -24.0015   -7.4640   22.7456 H   0  0  0  0  0  0
  -21.0840   -8.8754   19.8953 H   0  0  0  0  0  0
  -22.3677  -10.9664   19.6149 H   0  0  0  0  0  0
  -21.1990   -7.6142   23.9734 H   0  0  0  0  0  0
  -21.1494   -6.0514   25.9095 H   0  0  0  0  0  0
  -22.0592   -2.7604   23.2839 H   0  0  0  0  0  0
  -22.4066  -11.9924   22.4813 H   0  0  0  0  0  0
  -21.1100  -13.1316   22.2555 H   0  0  0  0  0  0
  -24.6688  -15.8463   20.5209 H   0  0  0  0  0  0
  -26.2914  -15.6253   20.0962 H   0  0  0  0  0  0
  -26.7104  -32.5544   23.1172 H   0  0  0  0  0  0
  -25.0052  -33.9796   25.0486 H   0  0  0  0  0  0
  -22.6885  -31.3109   21.4162 H   0  0  0  0  0  0
  -23.3745  -35.9654   23.3321 H   0  0  0  0  0  0
  -24.3576  -36.8906   22.2051 H   0  0  0  0  0  0
  -23.7239  -37.6531   23.6634 H   0  0  0  0  0  0
  -26.0416  -31.6024   20.5970 H   0  0  0  0  0  0
  -26.8170  -30.8872   21.9832 H   0  0  0  0  0  0
  -28.0943  -29.1074   21.1624 H   0  0  0  0  0  0
  -26.0054  -25.9633   19.0452 H   0  0  0  0  0  0
  -23.9641  -27.2916   19.0590 H   0  0  0  0  0  0
  -23.7147  -30.6054   19.4074 H   0  0  0  0  0  0
  -22.7318  -29.2500   19.8700 H   0  0  0  0  0  0
  -25.1278  -36.1992   25.0839 H   0  0  0  0  0  0
  -20.9952  -28.3222   24.1443 H   0  0  0  0  0  0
  -20.5667  -26.2268   23.3605 H   0  0  0  0  0  0
  -21.6624  -26.7447   22.1206 H   0  0  0  0  0  0
  -19.6893  -25.6307   21.1232 H   0  0  0  0  0  0
  -19.6675  -27.3208   20.6756 H   0  0  0  0  0  0
  -17.4188  -26.6680   21.4029 H   0  0  0  0  0  0
  -18.0307  -26.0063   22.9020 H   0  0  0  0  0  0
  -19.7925  -30.7251   24.2290 H   0  0  0  0  0  0
  -17.5010  -31.6270   24.5166 H   0  0  0  0  0  0
  -15.5340  -30.3001   23.7643 H   0  0  0  0  0  0
  -15.8656  -28.0838   22.7044 H   0  0  0  0  0  0
  -24.5910  -30.7053   25.7823 H   0  0  0  0  0  0
  -24.8937  -32.2853   26.4956 H   0  0  0  0  0  0
  -25.8105  -30.8857   27.0231 H   0  0  0  0  0  0
  -26.2830  -29.6818   24.1154 H   0  0  0  0  0  0
  -27.4073  -29.7278   25.4545 H   0  0  0  0  0  0
  -27.8664  -30.4374   23.9233 H   0  0  0  0  0  0
  -27.2672  -33.3609   26.2097 H   0  0  0  0  0  0
  -28.3837  -32.6901   25.0299 H   0  0  0  0  0  0
  -28.0741  -31.8427   26.5375 H   0  0  0  0  0  0
  -28.2607  -38.0099   24.7512 H   0  0  0  0  0  0
  -28.1065  -36.2631   24.6294 H   0  0  0  0  0  0
  -27.2300  -37.1466   25.8870 H   0  0  0  0  0  0
  -20.9286  -29.8768   21.6974 H   0  0  0  0  0  0
  -26.0187  -38.2885   24.1406 H   0  0  0  0  0  0
  -31.3796  -19.4303   21.0441 H   0  0  0  0  0  0
  -27.4516  -17.9287   21.3711 H   0  0  0  0  0  0
  -24.9321  -18.3539   15.1191 H   0  0  0  0  0  0
  -25.4801  -17.0867   16.2128 H   0  0  0  0  0  0
  -26.6514  -18.0675   15.3366 H   0  0  0  0  0  0
  -23.5516  -19.3859   16.9471 H   0  0  0  0  0  0
  -24.2838  -19.9767   18.4238 H   0  0  0  0  0  0
  -24.0776  -18.2438   18.1795 H   0  0  0  0  0  0
  -30.8211  -17.7027   24.5545 H   0  0  0  0  0  0
  -29.8626  -19.0979   24.0843 H   0  0  0  0  0  0
  -31.4760  -18.8670   23.4119 H   0  0  0  0  0  0
  -29.4142  -21.0230   17.9775 H   0  0  0  0  0  0
  -31.0098  -20.5207   18.4154 H   0  0  0  0  0  0
  -27.1925  -20.8030   18.6745 H   0  0  0  0  0  0
  -26.1793  -19.8798   19.7566 H   0  0  0  0  0  0
  -31.2652  -22.7345   18.7245 H   0  0  0  0  0  0
  -30.8510  -22.3359   20.3601 H   0  0  0  0  0  0
  -26.6393  -17.7922   18.4689 H   0  0  0  0  0  0
  -27.7712  -18.6478   17.4604 H   0  0  0  0  0  0
  -28.5527  -23.2378   19.9971 H   0  0  0  0  0  0
  -28.8080  -23.2778   18.2726 H   0  0  0  0  0  0
  -30.6454  -24.9934   18.6042 H   0  0  0  0  0  0
  -30.2415  -25.0839   20.2901 H   0  0  0  0  0  0
  -31.5569  -16.1095   22.8820 H   0  0  0  0  0  0
  -31.6039  -16.8634   21.3149 H   0  0  0  0  0  0
  -27.9126  -25.4501   18.4657 H   0  0  0  0  0  0
  -29.1643  -26.6212   18.1971 H   0  0  0  0  0  0
  -25.9325  -20.0870   16.5836 H   0  0  0  0  0  0
  -29.0588  -17.0592   22.9675 H   0  0  0  0  0  0
  -29.3634  -14.9955   21.9772 H   0  0  0  0  0  0
  1 25  1  0  0  0
  1 30  2  0  0  0
  1 89  1  0  0  0
  2  3  1  0  0  0
  2 25  1  0  0  0
  2 90  1  0  0  0
  2 91  1  0  0  0
  3  4  1  0  0  0
  3 92  1  0  0  0
  3 93  1  0  0  0
  4  5  1  0  0  0
  4 94  1  0  0  0
  4 95  1  0  0  0
  5  6  1  0  0  0
  5 26  1  0  0  0
  5 96  1  0  0  0
  6 25  1  0  0  0
  6 97  1  0  0  0
  6 98  1  0  0  0
  7  8  2  0  0  0
  7 26  1  0  0  0
  7 29  1  0  0  0
  8  9  1  0  0  0
  8 22  1  0  0  0
  9 10  1  0  0  0
  9 27  2  0  0  0
 10 11  2  0  0  0
 10 15  1  0  0  0
 11 12  1  0  0  0
 11 99  1  0  0  0
 12 13  2  0  0  0
 12100  1  0  0  0
 13 14  1  0  0  0
 13 31  1  0  0  0
 14 15  2  0  0  0
 14101  1  0  0  0
 15102  1  0  0  0
 16 17  2  0  0  0
 16 21  1  0  0  0
 16 31  1  0  0  0
 17 18  1  0  0  0
 17103  1  0  0  0
 18 19  2  0  0  0
 18104  1  0  0  0
 19 20  1  0  0  0
 19 24  1  0  0  0
 20 21  2  0  0  0
 20105  1  0  0  0
 21 23  1  0  0  0
 22 28  1  0  0  0
 22 32  2  0  0  0
 26 27  1  0  0  0
 28106  1  0  0  0
 28107  1  0  0  0
 29108  1  0  0  0
 29109  1  0  0  0
 33 34  1  0  0  0
 33 66  1  0  0  0
 33 70  2  0  0  0
 34 36  1  0  0  0
 34 59  1  0  0  0
 34110  1  0  0  0
 35 44  2  0  0  0
 35 45  1  0  0  0
 35 68  1  0  0  0
 36 56  1  0  0  0
 36111  1  0  0  0
 37 39  1  0  0  0
 37 47  1  0  0  0
 37 66  1  0  0  0
 37112  1  0  0  0
 38 43  2  0  0  0
 38 46  1  0  0  0
 38 47  1  0  0  0
 39 64  1  0  0  0
 39 67  2  0  0  0
 40 52  1  0  0  0
 40 53  2  0  0  0
 40 58  1  0  0  0
 41113  1  0  0  0
 41114  1  0  0  0
 41115  1  0  0  0
 41 48  1  0  0  0
 42 43  1  0  0  0
 42 66  1  0  0  0
 42116  1  0  0  0
 42117  1  0  0  0
 43 44  1  0  0  0
 44118  1  0  0  0
 45 46  2  0  0  0
 45119  1  0  0  0
 46120  1  0  0  0
 47121  1  0  0  0
 47122  1  0  0  0
 48 56  1  0  0  0
 48 65  1  0  0  0
 48123  1  0  0  0
 49 50  1  0  0  0
 49 53  1  0  0  0
 49 64  1  0  0  0
 49124  1  0  0  0
 50 51  1  0  0  0
 50125  1  0  0  0
 50126  1  0  0  0
 51 52  1  0  0  0
 51127  1  0  0  0
 51128  1  0  0  0
 52129  1  0  0  0
 52130  1  0  0  0
 53 54  1  0  0  0
 54 55  2  0  0  0
 54131  1  0  0  0
 55 57  1  0  0  0
 55132  1  0  0  0
 56 69  2  0  0  0
 57 58  2  0  0  0
 57133  1  0  0  0
 58134  1  0  0  0
 59 60  1  0  0  0
 59 61  1  0  0  0
 59 62  1  0  0  0
 60135  1  0  0  0
 60136  1  0  0  0
 60137  1  0  0  0
 61138  1  0  0  0
 61139  1  0  0  0
 61140  1  0  0  0
 62141  1  0  0  0
 62142  1  0  0  0
 62143  1  0  0  0
 63 65  1  0  0  0
 63144  1  0  0  0
 63145  1  0  0  0
 63146  1  0  0  0
 64147  1  0  0  0
 65148  1  0  0  0
 68 85  1  0  0  0
 71 73  2  0  0  0
 71 88  1  0  0  0
 71149  1  0  0  0
 72 74  2  0  0  0
 72 88  1  0  0  0
 72150  1  0  0  0
 73 74  1  0  0  0
 73 78  1  0  0  0
 74 79  1  0  0  0
 75151  1  0  0  0
 75152  1  0  0  0
 75153  1  0  0  0
 75 86  1  0  0  0
 76 86  1  0  0  0
 76154  1  0  0  0
 76155  1  0  0  0
 76156  1  0  0  0
 77157  1  0  0  0
 77158  1  0  0  0
 77159  1  0  0  0
 77 87  1  0  0  0
 78 80  1  0  0  0
 78160  1  0  0  0
 78161  1  0  0  0
 79 81  1  0  0  0
 79162  1  0  0  0
 79163  1  0  0  0
 80 82  1  0  0  0
 80164  1  0  0  0
 80165  1  0  0  0
 81 86  1  0  0  0
 81166  1  0  0  0
 81167  1  0  0  0
 82 83  1  0  0  0
 82168  1  0  0  0
 82169  1  0  0  0
 83 85  1  0  0  0
 83170  1  0  0  0
 83171  1  0  0  0
 84 87  1  0  0  0
 84 89  1  0  0  0
 84172  1  0  0  0
 84173  1  0  0  0
 85174  1  0  0  0
 85175  1  0  0  0
 86176  1  0  0  0
 87 88  1  0  0  0
 87177  1  0  0  0
 89178  1  0  0  0
M  ISO  4   1 100  68 101  85 101  89 100
M  END
> <chiral flag>
0

> <version>
0

> <s_m_source_file>
/data/baiqing/PycharmProjects/Reinvent-master-3.2/result/LINK_invent/BTK/process_docking_weight1_custom_sum_contain_oxygen_bond_distance_aromatic_linkinvent_7_9_3/rearranged_h_0080.sdf

> <i_m_source_file_index>
37

> <r_mmod_Potential_Energy-OPLS-2005>
-87.6555099487305

> <r_mmod_Stretch_Energy-OPLS-2005>
33.770809173584

> <r_mmod_Bend_Energy-OPLS-2005>
105.379127502441

> <r_mmod_Torsional_Energy-OPLS-2005>
254.608581542969

> <r_mmod_Improper_Torsional_Energy-OPLS-2005>
2.1377432346344

> <r_mmod_Van_der_Waal_Energy-OPLS-2005>
121.684280395508

> <r_mmod_Electrostatic_Energy-OPLS-2005>
-415.385620117188

> <r_mmod_Solvation_Energy-OPLS-2005>
-198.394561767578

> <b_mmod_Minimization_Converged-OPLS-2005>
0

> <r_mmod_RMS_Derivative-OPLS-2005>
1.54456555843353

$$$$
39
                    3D
 Structure written by MMmdl.
158166  0  0  1  0            999 V2000
  -30.4564  -15.2300   20.3296 C   0  0  0  0  0  0
  -30.4271  -12.7626   19.5452 C   0  0  0  0  0  0
  -29.5461  -12.5662   18.2886 C   0  0  0  0  0  0
  -28.0784  -12.3285   18.6914 C   0  0  0  0  0  0
  -27.6135  -13.2873   19.8236 C   0  0  2  0  0  0
  -28.6413  -13.4388   20.9604 C   0  0  0  0  0  0
  -25.2382  -13.8287   20.5795 C   0  0  0  0  0  0
  -24.1746  -13.0472   20.9294 C   0  0  0  0  0  0
  -24.6410  -11.6971   20.8737 C   0  0  0  0  0  0
  -23.9094  -10.4320   21.0380 C   0  0  0  0  0  0
  -24.3650   -9.4232   21.9168 C   0  0  0  0  0  0
  -23.6338   -8.2247   22.0751 C   0  0  0  0  0  0
  -22.4314   -8.0296   21.3529 C   0  0  0  0  0  0
  -21.9927   -9.0269   20.4620 C   0  0  0  0  0  0
  -22.7259  -10.2154   20.3020 C   0  0  0  0  0  0
  -21.6858   -6.0751   22.5276 C   0  0  0  0  0  0
  -21.4025   -6.5642   23.8221 C   0  0  0  0  0  0
  -21.3677   -5.6778   24.9163 C   0  0  0  0  0  0
  -21.6056   -4.3055   24.7198 C   0  0  0  0  0  0
  -21.8827   -3.8160   23.4312 C   0  0  0  0  0  0
  -21.9181   -4.6982   22.3373 C   0  0  0  0  0  0
  -22.7745  -13.5227   21.1908 C   0  0  0  0  0  0
  -22.1660   -4.2179   21.0938 F   0  0  0  0  0  0
  -21.5621   -3.4525   25.7703 F   0  0  0  0  0  0
  -29.8869  -13.9234   20.3489 N   0  0  0  0  0  0
  -26.2814  -12.9590   20.3187 N   0  0  0  0  0  0
  -25.9343  -11.6691   20.5652 N   0  0  0  0  0  0
  -22.0323  -12.8242   22.0432 N   0  0  0  0  0  0
  -25.3979  -15.2037   20.4328 N   0  0  0  0  0  0
  -31.6497  -15.1874   19.9937 O   0  0  0  0  0  0
  -21.6678   -6.8901   21.4241 O   0  0  0  0  0  0
  -22.3424  -14.5492   20.6677 O   0  0  0  0  0  0
  -24.6641  -31.8227   23.1724 C   0  0  0  0  0  0
  -25.9333  -32.4584   23.8163 C   0  0  1  0  0  0
  -27.2056  -26.9418   20.1549 C   0  0  0  0  0  0
  -25.5961  -33.8392   24.2062 N   0  0  0  0  0  0
  -23.4750  -30.4347   21.5205 C   0  0  2  0  0  0
  -24.9233  -28.8242   20.1081 C   0  0  0  0  0  0
  -22.7648  -29.4431   22.4779 C   0  0  0  0  0  0
  -18.0306  -28.1380   22.8454 C   0  0  0  0  0  0
  -24.1483  -36.7203   23.2647 C   0  0  0  0  0  0
  -26.0438  -30.6296   21.3970 C   0  0  0  0  0  0
  -26.1076  -29.2215   20.7378 C   0  0  0  0  0  0
  -27.2462  -28.3005   20.7394 C   0  0  0  0  0  0
  -25.9953  -26.6941   19.4775 C   0  0  0  0  0  0
  -24.8896  -27.5790   19.4561 C   0  0  0  0  0  0
  -23.7098  -29.7505   20.1453 C   0  0  0  0  0  0
  -25.4118  -36.2969   24.0298 C   0  0  1  0  0  0
  -20.5925  -28.3744   23.1177 C   0  0  2  0  0  0
  -20.6761  -26.9418   22.5389 C   0  0  0  0  0  0
  -19.5753  -26.6359   21.5182 C   0  0  0  0  0  0
  -18.1946  -26.7911   22.1598 C   0  0  0  0  0  0
  -19.1564  -28.8873   23.2809 C   0  0  0  0  0  0
  -18.9486  -30.1445   23.8860 C   0  0  0  0  0  0
  -17.6490  -30.6580   24.0537 C   0  0  0  0  0  0
  -25.9098  -34.9351   23.5018 C   0  0  0  0  0  0
  -16.5372  -29.9070   23.6335 C   0  0  0  0  0  0
  -16.7292  -28.6473   23.0386 C   0  0  0  0  0  0
  -26.4559  -31.6544   25.0716 C   0  0  0  0  0  0
  -25.3683  -31.3781   26.1385 C   0  0  0  0  0  0
  -27.0425  -30.2904   24.6450 C   0  0  0  0  0  0
  -27.6037  -32.4346   25.7517 C   0  0  0  0  0  0
  -27.5562  -37.1761   24.8458 C   0  0  0  0  0  0
  -21.4328  -29.3043   22.3547 N   0  0  0  0  0  0
  -26.4268  -37.3717   23.9423 N   0  0  0  0  0  0
  -24.7491  -30.9889   22.0833 N   0  0  0  0  0  0
  -23.4213  -28.8003   23.3016 O   0  0  0  0  0  0
  -28.2010  -25.8412   20.2349 O   0  0  0  0  0  0
  -26.5703  -34.8896   22.4614 O   0  0  0  0  0  0
  -23.5717  -32.1152   23.6838 O   0  0  0  0  0  0
  -29.3764  -18.0134   19.9830 C   0  0  0  0  0  0
  -29.2707  -19.4437   20.5639 C   0  0  0  0  0  0
  -29.8669  -16.7557   20.7420 C   0  0  0  0  0  0
  -29.7453  -19.3873   21.9062 C   0  0  0  0  0  0
  -29.9847  -17.8315   17.4932 C   0  0  0  0  0  0
  -31.2217  -21.3742   22.4462 C   0  0  0  0  0  0
  -28.8780  -17.8244   18.5502 C   0  0  0  0  0  0
  -28.6628  -20.9706   19.9325 C   0  0  0  0  0  0
  -29.9106  -20.6280   22.7527 C   0  0  0  0  0  0
  -28.7779  -22.7221   20.4078 C   0  0  0  0  0  0
  -27.9825  -24.2469   19.8934 C   0  0  0  0  0  0
  -30.1836  -17.0288   22.0309 N   0  0  0  0  0  0
  -30.1385  -18.2579   22.5605 N   0  0  0  0  0  0
  -31.4614  -12.9125   19.2363 H   0  0  0  0  0  0
  -30.4449  -11.8518   20.1456 H   0  0  0  0  0  0
  -29.9231  -11.7401   17.6839 H   0  0  0  0  0  0
  -29.6141  -13.4544   17.6547 H   0  0  0  0  0  0
  -27.9916  -11.2930   19.0227 H   0  0  0  0  0  0
  -27.4289  -12.4232   17.8209 H   0  0  0  0  0  0
  -27.5390  -14.2706   19.3572 H   0  0  0  0  0  0
  -28.7844  -12.4949   21.4910 H   0  0  0  0  0  0
  -28.2891  -14.1604   21.6964 H   0  0  0  0  0  0
  -25.2792   -9.5772   22.4731 H   0  0  0  0  0  0
  -24.0068   -7.4651   22.7501 H   0  0  0  0  0  0
  -21.0831   -8.8802   19.8920 H   0  0  0  0  0  0
  -22.3726  -10.9692   19.6117 H   0  0  0  0  0  0
  -21.2056   -7.6152   23.9760 H   0  0  0  0  0  0
  -21.1482   -6.0471   25.9076 H   0  0  0  0  0  0
  -22.0589   -2.7621   23.2776 H   0  0  0  0  0  0
  -22.3956  -11.9998   22.4972 H   0  0  0  0  0  0
  -21.0899  -13.1236   22.2504 H   0  0  0  0  0  0
  -24.6270  -15.8448   20.5829 H   0  0  0  0  0  0
  -26.2444  -15.6622   20.1208 H   0  0  0  0  0  0
  -26.7402  -32.5108   23.0875 H   0  0  0  0  0  0
  -25.0062  -33.9439   25.0175 H   0  0  0  0  0  0
  -22.7914  -31.2686   21.3514 H   0  0  0  0  0  0
  -23.3768  -35.9517   23.3271 H   0  0  0  0  0  0
  -24.3563  -36.8898   22.2074 H   0  0  0  0  0  0
  -23.7230  -37.6375   23.6718 H   0  0  0  0  0  0
  -26.2230  -31.3694   20.6147 H   0  0  0  0  0  0
  -26.9075  -30.6798   22.0491 H   0  0  0  0  0  0
  -28.1449  -28.5996   21.2594 H   0  0  0  0  0  0
  -25.8649  -25.7448   18.9765 H   0  0  0  0  0  0
  -23.9926  -27.2712   18.9378 H   0  0  0  0  0  0
  -23.8649  -30.5145   19.3839 H   0  0  0  0  0  0
  -22.8208  -29.2033   19.8341 H   0  0  0  0  0  0
  -25.1332  -36.1739   25.0789 H   0  0  0  0  0  0
  -20.9999  -28.3321   24.1305 H   0  0  0  0  0  0
  -20.5585  -26.2364   23.3627 H   0  0  0  0  0  0
  -21.6650  -26.7375   22.1243 H   0  0  0  0  0  0
  -19.6928  -25.6259   21.1254 H   0  0  0  0  0  0
  -19.6690  -27.3125   20.6668 H   0  0  0  0  0  0
  -17.4203  -26.6627   21.4010 H   0  0  0  0  0  0
  -18.0381  -26.0056   22.9000 H   0  0  0  0  0  0
  -19.7967  -30.7248   24.2256 H   0  0  0  0  0  0
  -17.5053  -31.6275   24.5130 H   0  0  0  0  0  0
  -15.5374  -30.2988   23.7670 H   0  0  0  0  0  0
  -15.8674  -28.0776   22.7179 H   0  0  0  0  0  0
  -24.5868  -30.7130   25.7711 H   0  0  0  0  0  0
  -24.8869  -32.2974   26.4725 H   0  0  0  0  0  0
  -25.7940  -30.9007   27.0232 H   0  0  0  0  0  0
  -26.3078  -29.6602   24.1442 H   0  0  0  0  0  0
  -27.3923  -29.7260   25.5111 H   0  0  0  0  0  0
  -27.9053  -30.4078   23.9888 H   0  0  0  0  0  0
  -27.2605  -33.3679   26.1994 H   0  0  0  0  0  0
  -28.3918  -32.6864   25.0405 H   0  0  0  0  0  0
  -28.0648  -31.8547   26.5531 H   0  0  0  0  0  0
  -28.2562  -38.0077   24.7547 H   0  0  0  0  0  0
  -28.1080  -36.2612   24.6236 H   0  0  0  0  0  0
  -27.2289  -37.1375   25.8865 H   0  0  0  0  0  0
  -20.9564  -29.8771   21.6714 H   0  0  0  0  0  0
  -26.0098  -38.2776   24.1439 H   0  0  0  0  0  0
  -30.5453  -18.7685   17.5209 H   0  0  0  0  0  0
  -29.5564  -17.7167   16.4935 H   0  0  0  0  0  0
  -30.6786  -17.0053   17.6481 H   0  0  0  0  0  0
  -31.2206  -22.3736   22.8848 H   0  0  0  0  0  0
  -31.3831  -21.4726   21.3705 H   0  0  0  0  0  0
  -32.0752  -20.8252   22.8460 H   0  0  0  0  0  0
  -28.1628  -18.6132   18.3077 H   0  0  0  0  0  0
  -28.3192  -16.8895   18.4841 H   0  0  0  0  0  0
  -27.5874  -20.7822   19.9036 H   0  0  0  0  0  0
  -28.9700  -20.9554   18.8844 H   0  0  0  0  0  0
  -29.9101  -20.3530   23.8067 H   0  0  0  0  0  0
  -29.0230  -21.2328   22.6539 H   0  0  0  0  0  0
  -29.8446  -22.9467   20.3685 H   0  0  0  0  0  0
  -28.5184  -22.7663   21.4591 H   0  0  0  0  0  0
  -26.9298  -24.0805   20.1274 H   0  0  0  0  0  0
  -28.0107  -24.2248   18.8028 H   0  0  0  0  0  0
  1 25  1  0  0  0
  1 30  2  0  0  0
  1 73  1  0  0  0
  2  3  1  0  0  0
  2 25  1  0  0  0
  2 84  1  0  0  0
  2 85  1  0  0  0
  3  4  1  0  0  0
  3 86  1  0  0  0
  3 87  1  0  0  0
  4  5  1  0  0  0
  4 88  1  0  0  0
  4 89  1  0  0  0
  5  6  1  0  0  0
  5 26  1  0  0  0
  5 90  1  0  0  0
  6 25  1  0  0  0
  6 91  1  0  0  0
  6 92  1  0  0  0
  7  8  2  0  0  0
  7 26  1  0  0  0
  7 29  1  0  0  0
  8  9  1  0  0  0
  8 22  1  0  0  0
  9 10  1  0  0  0
  9 27  2  0  0  0
 10 11  2  0  0  0
 10 15  1  0  0  0
 11 12  1  0  0  0
 11 93  1  0  0  0
 12 13  2  0  0  0
 12 94  1  0  0  0
 13 14  1  0  0  0
 13 31  1  0  0  0
 14 15  2  0  0  0
 14 95  1  0  0  0
 15 96  1  0  0  0
 16 17  2  0  0  0
 16 21  1  0  0  0
 16 31  1  0  0  0
 17 18  1  0  0  0
 17 97  1  0  0  0
 18 19  2  0  0  0
 18 98  1  0  0  0
 19 20  1  0  0  0
 19 24  1  0  0  0
 20 21  2  0  0  0
 20 99  1  0  0  0
 21 23  1  0  0  0
 22 28  1  0  0  0
 22 32  2  0  0  0
 26 27  1  0  0  0
 28100  1  0  0  0
 28101  1  0  0  0
 29102  1  0  0  0
 29103  1  0  0  0
 33 34  1  0  0  0
 33 66  1  0  0  0
 33 70  2  0  0  0
 34 36  1  0  0  0
 34 59  1  0  0  0
 34104  1  0  0  0
 35 44  2  0  0  0
 35 45  1  0  0  0
 35 68  1  0  0  0
 36 56  1  0  0  0
 36105  1  0  0  0
 37 39  1  0  0  0
 37 47  1  0  0  0
 37 66  1  0  0  0
 37106  1  0  0  0
 38 43  2  0  0  0
 38 46  1  0  0  0
 38 47  1  0  0  0
 39 64  1  0  0  0
 39 67  2  0  0  0
 40 52  1  0  0  0
 40 53  2  0  0  0
 40 58  1  0  0  0
 41107  1  0  0  0
 41108  1  0  0  0
 41109  1  0  0  0
 41 48  1  0  0  0
 42 43  1  0  0  0
 42 66  1  0  0  0
 42110  1  0  0  0
 42111  1  0  0  0
 43 44  1  0  0  0
 44112  1  0  0  0
 45 46  2  0  0  0
 45113  1  0  0  0
 46114  1  0  0  0
 47115  1  0  0  0
 47116  1  0  0  0
 48 56  1  0  0  0
 48 65  1  0  0  0
 48117  1  0  0  0
 49 50  1  0  0  0
 49 53  1  0  0  0
 49 64  1  0  0  0
 49118  1  0  0  0
 50 51  1  0  0  0
 50119  1  0  0  0
 50120  1  0  0  0
 51 52  1  0  0  0
 51121  1  0  0  0
 51122  1  0  0  0
 52123  1  0  0  0
 52124  1  0  0  0
 53 54  1  0  0  0
 54 55  2  0  0  0
 54125  1  0  0  0
 55 57  1  0  0  0
 55126  1  0  0  0
 56 69  2  0  0  0
 57 58  2  0  0  0
 57127  1  0  0  0
 58128  1  0  0  0
 59 60  1  0  0  0
 59 61  1  0  0  0
 59 62  1  0  0  0
 60129  1  0  0  0
 60130  1  0  0  0
 60131  1  0  0  0
 61132  1  0  0  0
 61133  1  0  0  0
 61134  1  0  0  0
 62135  1  0  0  0
 62136  1  0  0  0
 62137  1  0  0  0
 63 65  1  0  0  0
 63138  1  0  0  0
 63139  1  0  0  0
 63140  1  0  0  0
 64141  1  0  0  0
 65142  1  0  0  0
 68 81  1  0  0  0
 71 72  2  0  0  0
 71 73  1  0  0  0
 71 77  1  0  0  0
 72 74  1  0  0  0
 72 78  1  0  0  0
 73 82  2  0  0  0
 74 79  1  0  0  0
 74 83  2  0  0  0
 75 77  1  0  0  0
 75143  1  0  0  0
 75144  1  0  0  0
 75145  1  0  0  0
 76 79  1  0  0  0
 76146  1  0  0  0
 76147  1  0  0  0
 76148  1  0  0  0
 77149  1  0  0  0
 77150  1  0  0  0
 78 80  1  0  0  0
 78151  1  0  0  0
 78152  1  0  0  0
 79153  1  0  0  0
 79154  1  0  0  0
 80 81  1  0  0  0
 80155  1  0  0  0
 80156  1  0  0  0
 81157  1  0  0  0
 81158  1  0  0  0
 82 83  1  0  0  0
M  ISO  4   1 100  68 101  73 100  81 101
M  END
> <chiral flag>
0

> <version>
0

> <s_m_source_file>
/data/baiqing/PycharmProjects/Reinvent-master-3.2/result/LINK_invent/BTK/process_docking_weight1_custom_sum_contain_oxygen_bond_distance_aromatic_linkinvent_7_9_3/rearranged_h_0080.sdf

> <i_m_source_file_index>
38

> <r_mmod_Potential_Energy-OPLS-2005>
1431.82885742188

> <r_mmod_Stretch_Energy-OPLS-2005>
593.526184082031

> <r_mmod_Bend_Energy-OPLS-2005>
451.879547119141

> <r_mmod_Torsional_Energy-OPLS-2005>
211.936431884766

> <r_mmod_Improper_Torsional_Energy-OPLS-2005>
3.79569005966187

> <r_mmod_Van_der_Waal_Energy-OPLS-2005>
123.22590637207

> <r_mmod_Electrostatic_Energy-OPLS-2005>
-162.261825561523

> <r_mmod_Solvation_Energy-OPLS-2005>
-215.144470214844

> <b_mmod_Minimization_Converged-OPLS-2005>
0

> <r_mmod_RMS_Derivative-OPLS-2005>
5.68392944335938

$$$$
40
                    3D
 Structure written by MMmdl.
155163  0  0  1  0            999 V2000
  -29.7490  -14.4583   20.6014 C   0  0  0  0  0  0
  -30.4634  -12.3584   19.4235 C   0  0  0  0  0  0
  -29.5233  -12.2248   18.1691 C   0  0  0  0  0  0
  -28.0094  -11.8968   18.5192 C   0  0  0  0  0  0
  -27.6483  -12.7296   19.7349 C   0  0  2  0  0  0
  -28.6067  -12.4467   20.9201 C   0  0  0  0  0  0
  -25.8001  -14.6845   20.5938 C   0  0  0  0  0  0
  -24.5499  -13.7550   20.9022 C   0  0  0  0  0  0
  -24.6765  -12.2214   20.8621 C   0  0  0  0  0  0
  -23.9070  -10.8219   21.0554 C   0  0  0  0  0  0
  -24.3757   -9.7376   21.8912 C   0  0  0  0  0  0
  -23.7014   -8.4744   22.0522 C   0  0  0  0  0  0
  -22.5002   -8.1904   21.3564 C   0  0  0  0  0  0
  -22.0554   -9.2010   20.4743 C   0  0  0  0  0  0
  -22.7320  -10.4540   20.3285 C   0  0  0  0  0  0
  -21.7546   -6.1467   22.5127 C   0  0  0  0  0  0
  -21.4518   -6.6118   23.8127 C   0  0  0  0  0  0
  -21.3799   -5.7122   24.8987 C   0  0  0  0  0  0
  -21.6017   -4.3359   24.6986 C   0  0  0  0  0  0
  -21.8749   -3.8584   23.4057 C   0  0  0  0  0  0
  -21.9404   -4.7547   22.3198 C   0  0  0  0  0  0
  -23.0681  -14.0287   21.1892 C   0  0  0  0  0  0
  -22.1760   -4.2633   21.0793 F   0  0  0  0  0  0
  -21.5492   -3.4753   25.7441 F   0  0  0  0  0  0
  -29.8045  -13.1155   20.5172 N   0  0  0  0  0  0
  -26.3456  -13.2577   20.1858 N   0  0  0  0  0  0
  -25.8328  -12.0347   20.4547 N   0  0  0  0  0  0
  -22.3654  -13.2118   22.0061 N   0  0  0  0  0  0
  -27.2323  -16.9895   20.7320 N   0  0  0  0  0  0
  -30.8123  -15.0782   20.3112 O   0  0  0  0  0  0
  -21.7807   -6.9945   21.4153 O   0  0  0  0  0  0
  -22.4592  -14.9006   20.5927 O   0  0  0  0  0  0
  -24.6993  -31.7804   23.1489 C   0  0  0  0  0  0
  -25.9558  -32.4297   23.7988 C   0  0  1  0  0  0
  -26.6494  -26.3259   20.2931 C   0  0  0  0  0  0
  -25.6092  -33.8168   24.1806 N   0  0  0  0  0  0
  -23.5010  -30.4192   21.5136 C   0  0  2  0  0  0
  -24.8607  -28.7458   20.0702 C   0  0  0  0  0  0
  -22.7716  -29.4276   22.4615 C   0  0  0  0  0  0
  -18.0319  -28.1409   22.8446 C   0  0  0  0  0  0
  -24.1522  -36.7105   23.2645 C   0  0  0  0  0  0
  -26.0844  -30.3702   21.4682 C   0  0  0  0  0  0
  -26.0355  -28.9209   20.8029 C   0  0  0  0  0  0
  -26.9495  -27.7224   20.8876 C   0  0  0  0  0  0
  -25.6065  -26.4861   19.3834 C   0  0  0  0  0  0
  -24.7247  -27.5843   19.3083 C   0  0  0  0  0  0
  -23.7349  -29.7793   20.1197 C   0  0  0  0  0  0
  -25.4181  -36.2801   24.0236 C   0  0  1  0  0  0
  -20.5948  -28.3772   23.1116 C   0  0  2  0  0  0
  -20.6793  -26.9427   22.5403 C   0  0  0  0  0  0
  -19.5781  -26.6358   21.5207 C   0  0  0  0  0  0
  -18.1951  -26.7938   22.1600 C   0  0  0  0  0  0
  -19.1583  -28.8915   23.2772 C   0  0  0  0  0  0
  -18.9499  -30.1499   23.8827 C   0  0  0  0  0  0
  -17.6493  -30.6605   24.0545 C   0  0  0  0  0  0
  -25.9194  -34.9202   23.4863 C   0  0  0  0  0  0
  -16.5381  -29.9083   23.6352 C   0  0  0  0  0  0
  -16.7302  -28.6498   23.0373 C   0  0  0  0  0  0
  -26.4643  -31.6470   25.0734 C   0  0  0  0  0  0
  -25.3637  -31.3908   26.1302 C   0  0  0  0  0  0
  -27.0602  -30.2750   24.6923 C   0  0  0  0  0  0
  -27.6042  -32.4431   25.7517 C   0  0  0  0  0  0
  -27.5563  -37.1713   24.8449 C   0  0  0  0  0  0
  -21.4367  -29.3010   22.3409 N   0  0  0  0  0  0
  -26.4271  -37.3597   23.9386 N   0  0  0  0  0  0
  -24.7938  -30.9022   22.0892 N   0  0  0  0  0  0
  -23.4161  -28.7846   23.2939 O   0  0  0  0  0  0
  -27.0795  -24.7956   20.4450 O   0  0  0  0  0  0
  -26.5857  -34.8821   22.4498 O   0  0  0  0  0  0
  -23.6023  -32.1093   23.6356 O   0  0  0  0  0  0
  -27.1681  -15.3874   22.2938 C   0  0  0  0  0  0
  -28.1805  -14.9949   20.6941 C   0  0  0  0  0  0
  -25.8096  -16.4707   19.0598 C   0  0  0  0  0  0
  -25.0331  -17.2049   20.5996 C   0  0  0  0  0  0
  -25.3768  -16.9065   17.6809 C   0  0  0  0  0  0
  -24.0548  -19.5211   19.4578 C   0  0  0  0  0  0
  -24.2664  -19.4989   21.9070 C   0  0  0  0  0  0
  -26.1677  -21.0017   20.5225 C   0  0  0  0  0  0
  -26.1672  -23.1173   20.3912 C   0  0  0  0  0  0
  -25.0326  -19.2239   20.6056 C   0  0  0  0  0  0
  -25.6061  -16.4109   22.1574 N   0  0  0  0  0  0
  -27.3537  -15.5024   19.0855 N   0  0  0  0  0  0
  -31.4094  -12.8258   19.1446 H   0  0  0  0  0  0
  -30.7225  -11.3655   19.7925 H   0  0  0  0  0  0
  -29.9159  -11.4603   17.4980 H   0  0  0  0  0  0
  -29.5753  -13.1530   17.5965 H   0  0  0  0  0  0
  -27.9031  -10.8384   18.7624 H   0  0  0  0  0  0
  -27.3533  -12.0799   17.6641 H   0  0  0  0  0  0
  -27.9616  -13.4508   19.0369 H   0  0  0  0  0  0
  -28.7704  -11.3745   21.0344 H   0  0  0  0  0  0
  -28.2319  -12.7702   21.8948 H   0  0  0  0  0  0
  -25.2916   -9.8961   22.4430 H   0  0  0  0  0  0
  -24.1254   -7.7321   22.7130 H   0  0  0  0  0  0
  -21.1646   -9.0217   19.8886 H   0  0  0  0  0  0
  -22.3217  -11.1735   19.6333 H   0  0  0  0  0  0
  -21.2745   -7.6644   23.9791 H   0  0  0  0  0  0
  -21.1583   -6.0798   25.8899 H   0  0  0  0  0  0
  -22.0314   -2.8033   23.2415 H   0  0  0  0  0  0
  -22.8037  -12.4484   22.5018 H   0  0  0  0  0  0
  -21.3783  -13.3810   22.1452 H   0  0  0  0  0  0
  -26.6756  -17.8037   20.9470 H   0  0  0  0  0  0
  -27.6764  -17.0059   19.8162 H   0  0  0  0  0  0
  -26.7601  -32.4567   23.0625 H   0  0  0  0  0  0
  -25.0047  -33.9181   24.9826 H   0  0  0  0  0  0
  -22.8381  -31.2736   21.3592 H   0  0  0  0  0  0
  -23.3796  -35.9419   23.3219 H   0  0  0  0  0  0
  -24.3584  -36.8891   22.2080 H   0  0  0  0  0  0
  -23.7282  -37.6246   23.6817 H   0  0  0  0  0  0
  -26.3725  -31.0745   20.6861 H   0  0  0  0  0  0
  -26.9193  -30.3765   22.1545 H   0  0  0  0  0  0
  -27.7985  -27.8055   21.5516 H   0  0  0  0  0  0
  -25.3235  -25.6180   18.8045 H   0  0  0  0  0  0
  -23.8596  -27.4834   18.6677 H   0  0  0  0  0  0
  -23.9782  -30.5620   19.4009 H   0  0  0  0  0  0
  -22.8088  -29.3286   19.7567 H   0  0  0  0  0  0
  -25.1399  -36.1519   25.0724 H   0  0  0  0  0  0
  -21.0030  -28.3427   24.1241 H   0  0  0  0  0  0
  -20.5654  -26.2389   23.3668 H   0  0  0  0  0  0
  -21.6648  -26.7372   22.1209 H   0  0  0  0  0  0
  -19.6942  -25.6245   21.1291 H   0  0  0  0  0  0
  -19.6738  -27.3119   20.6701 H   0  0  0  0  0  0
  -17.4221  -26.6674   21.4005 H   0  0  0  0  0  0
  -18.0355  -26.0092   22.9010 H   0  0  0  0  0  0
  -19.7980  -30.7326   24.2166 H   0  0  0  0  0  0
  -17.5048  -31.6275   24.5169 H   0  0  0  0  0  0
  -15.5380  -30.2967   23.7724 H   0  0  0  0  0  0
  -15.8695  -28.0795   22.7140 H   0  0  0  0  0  0
  -24.5873  -30.7174   25.7638 H   0  0  0  0  0  0
  -24.8769  -32.3168   26.4379 H   0  0  0  0  0  0
  -25.7766  -30.9321   27.0293 H   0  0  0  0  0  0
  -26.3309  -29.6199   24.2137 H   0  0  0  0  0  0
  -27.4040  -29.7417   25.5795 H   0  0  0  0  0  0
  -27.9325  -30.3742   24.0460 H   0  0  0  0  0  0
  -27.2539  -33.3875   26.1696 H   0  0  0  0  0  0
  -28.4014  -32.6770   25.0446 H   0  0  0  0  0  0
  -28.0511  -31.8840   26.5745 H   0  0  0  0  0  0
  -28.2502  -38.0079   24.7505 H   0  0  0  0  0  0
  -28.1137  -36.2590   24.6261 H   0  0  0  0  0  0
  -27.2274  -37.1316   25.8849 H   0  0  0  0  0  0
  -20.9657  -29.8715   21.6523 H   0  0  0  0  0  0
  -26.0064  -38.2630   24.1400 H   0  0  0  0  0  0
  -27.5221  -15.1235   23.2780 H   0  0  0  0  0  0
  -24.3194  -17.1730   17.6779 H   0  0  0  0  0  0
  -25.5234  -16.0952   16.9679 H   0  0  0  0  0  0
  -25.9611  -17.7650   17.3533 H   0  0  0  0  0  0
  -23.1716  -18.8816   19.5124 H   0  0  0  0  0  0
  -24.5216  -19.3607   18.4882 H   0  0  0  0  0  0
  -23.7145  -20.5577   19.4762 H   0  0  0  0  0  0
  -23.3571  -18.8995   21.9780 H   0  0  0  0  0  0
  -23.9796  -20.5475   21.9924 H   0  0  0  0  0  0
  -24.8868  -19.2632   22.7707 H   0  0  0  0  0  0
  -26.8004  -20.8625   21.3989 H   0  0  0  0  0  0
  -26.8293  -20.7613   19.6907 H   0  0  0  0  0  0
  -25.6849  -23.2330   19.4208 H   0  0  0  0  0  0
  -25.3680  -23.3476   21.0950 H   0  0  0  0  0  0
  1 25  1  0  0  0
  1 30  2  0  0  0
  1 72  1  0  0  0
  2  3  1  0  0  0
  2 25  1  0  0  0
  2 83  1  0  0  0
  2 84  1  0  0  0
  3  4  1  0  0  0
  3 85  1  0  0  0
  3 86  1  0  0  0
  4  5  1  0  0  0
  4 87  1  0  0  0
  4 88  1  0  0  0
  5  6  1  0  0  0
  5 26  1  0  0  0
  5 89  1  0  0  0
  6 25  1  0  0  0
  6 90  1  0  0  0
  6 91  1  0  0  0
  7  8  2  0  0  0
  7 26  1  0  0  0
  7 29  1  0  0  0
  8  9  1  0  0  0
  8 22  1  0  0  0
  9 10  1  0  0  0
  9 27  2  0  0  0
 10 11  2  0  0  0
 10 15  1  0  0  0
 11 12  1  0  0  0
 11 92  1  0  0  0
 12 13  2  0  0  0
 12 93  1  0  0  0
 13 14  1  0  0  0
 13 31  1  0  0  0
 14 15  2  0  0  0
 14 94  1  0  0  0
 15 95  1  0  0  0
 16 17  2  0  0  0
 16 21  1  0  0  0
 16 31  1  0  0  0
 17 18  1  0  0  0
 17 96  1  0  0  0
 18 19  2  0  0  0
 18 97  1  0  0  0
 19 20  1  0  0  0
 19 24  1  0  0  0
 20 21  2  0  0  0
 20 98  1  0  0  0
 21 23  1  0  0  0
 22 28  1  0  0  0
 22 32  2  0  0  0
 26 27  1  0  0  0
 28 99  1  0  0  0
 28100  1  0  0  0
 29101  1  0  0  0
 29102  1  0  0  0
 33 34  1  0  0  0
 33 66  1  0  0  0
 33 70  2  0  0  0
 34 36  1  0  0  0
 34 59  1  0  0  0
 34103  1  0  0  0
 35 44  2  0  0  0
 35 45  1  0  0  0
 35 68  1  0  0  0
 36 56  1  0  0  0
 36104  1  0  0  0
 37 39  1  0  0  0
 37 47  1  0  0  0
 37 66  1  0  0  0
 37105  1  0  0  0
 38 43  2  0  0  0
 38 46  1  0  0  0
 38 47  1  0  0  0
 39 64  1  0  0  0
 39 67  2  0  0  0
 40 52  1  0  0  0
 40 53  2  0  0  0
 40 58  1  0  0  0
 41106  1  0  0  0
 41107  1  0  0  0
 41108  1  0  0  0
 41 48  1  0  0  0
 42 43  1  0  0  0
 42 66  1  0  0  0
 42109  1  0  0  0
 42110  1  0  0  0
 43 44  1  0  0  0
 44111  1  0  0  0
 45 46  2  0  0  0
 45112  1  0  0  0
 46113  1  0  0  0
 47114  1  0  0  0
 47115  1  0  0  0
 48 56  1  0  0  0
 48 65  1  0  0  0
 48116  1  0  0  0
 49 50  1  0  0  0
 49 53  1  0  0  0
 49 64  1  0  0  0
 49117  1  0  0  0
 50 51  1  0  0  0
 50118  1  0  0  0
 50119  1  0  0  0
 51 52  1  0  0  0
 51120  1  0  0  0
 51121  1  0  0  0
 52122  1  0  0  0
 52123  1  0  0  0
 53 54  1  0  0  0
 54 55  2  0  0  0
 54124  1  0  0  0
 55 57  1  0  0  0
 55125  1  0  0  0
 56 69  2  0  0  0
 57 58  2  0  0  0
 57126  1  0  0  0
 58127  1  0  0  0
 59 60  1  0  0  0
 59 61  1  0  0  0
 59 62  1  0  0  0
 60128  1  0  0  0
 60129  1  0  0  0
 60130  1  0  0  0
 61131  1  0  0  0
 61132  1  0  0  0
 61133  1  0  0  0
 62134  1  0  0  0
 62135  1  0  0  0
 62136  1  0  0  0
 63 65  1  0  0  0
 63137  1  0  0  0
 63138  1  0  0  0
 63139  1  0  0  0
 64140  1  0  0  0
 65141  1  0  0  0
 68 79  1  0  0  0
 71 72  2  0  0  0
 71 81  1  0  0  0
 71142  1  0  0  0
 72 82  1  0  0  0
 73 74  1  0  0  0
 73 75  1  0  0  0
 73 82  2  0  0  0
 74 80  1  0  0  0
 74 81  2  0  0  0
 75143  1  0  0  0
 75144  1  0  0  0
 75145  1  0  0  0
 76146  1  0  0  0
 76147  1  0  0  0
 76148  1  0  0  0
 76 80  1  0  0  0
 77 80  1  0  0  0
 77149  1  0  0  0
 77150  1  0  0  0
 77151  1  0  0  0
 78 79  1  0  0  0
 78 80  1  0  0  0
 78152  1  0  0  0
 78153  1  0  0  0
 79154  1  0  0  0
 79155  1  0  0  0
M  ISO  4   1 100  68 101  72 100  79 101
M  END
> <chiral flag>
0

> <version>
0

> <s_m_source_file>
/data/baiqing/PycharmProjects/Reinvent-master-3.2/result/LINK_invent/BTK/process_docking_weight1_custom_sum_contain_oxygen_bond_distance_aromatic_linkinvent_7_9_3/rearranged_h_0080.sdf

> <i_m_source_file_index>
39

> <r_mmod_Potential_Energy-OPLS-2005>
14465.3037109375

> <r_mmod_Stretch_Energy-OPLS-2005>
8221.046875

> <r_mmod_Bend_Energy-OPLS-2005>
1124.51208496094

> <r_mmod_Torsional_Energy-OPLS-2005>
384.160369873047

> <r_mmod_Improper_Torsional_Energy-OPLS-2005>
45.4965553283691

> <r_mmod_Van_der_Waal_Energy-OPLS-2005>
2804.54565429688

> <r_mmod_Electrostatic_Energy-OPLS-2005>
-260.952911376953

> <r_mmod_Solvation_Energy-OPLS-2005>
-205.306411743164

> <b_mmod_Minimization_Converged-OPLS-2005>
0

> <r_mmod_RMS_Derivative-OPLS-2005>
3.95928764343262

$$$$
41
                    3D
 Structure written by MMmdl.
166174  0  0  1  0            999 V2000
  -30.6537  -14.7009   20.4673 C   0  0  0  0  0  0
  -30.4211  -12.4296   19.4744 C   0  0  0  0  0  0
  -29.5047  -12.5052   18.2352 C   0  0  0  0  0  0
  -28.0302  -12.3394   18.6466 C   0  0  0  0  0  0
  -27.6423  -13.2350   19.8543 C   0  0  2  0  0  0
  -28.6875  -13.1675   20.9899 C   0  0  0  0  0  0
  -25.2505  -13.8207   20.5715 C   0  0  0  0  0  0
  -24.1800  -13.0443   20.9221 C   0  0  0  0  0  0
  -24.6396  -11.6923   20.8754 C   0  0  0  0  0  0
  -23.9074  -10.4295   21.0403 C   0  0  0  0  0  0
  -24.3625   -9.4213   21.9180 C   0  0  0  0  0  0
  -23.6302   -8.2244   22.0750 C   0  0  0  0  0  0
  -22.4281   -8.0279   21.3544 C   0  0  0  0  0  0
  -21.9918   -9.0250   20.4644 C   0  0  0  0  0  0
  -22.7243  -10.2130   20.3051 C   0  0  0  0  0  0
  -21.6856   -6.0738   22.5283 C   0  0  0  0  0  0
  -21.4015   -6.5643   23.8215 C   0  0  0  0  0  0
  -21.3663   -5.6792   24.9176 C   0  0  0  0  0  0
  -21.6042   -4.3056   24.7226 C   0  0  0  0  0  0
  -21.8820   -3.8151   23.4346 C   0  0  0  0  0  0
  -21.9195   -4.6967   22.3402 C   0  0  0  0  0  0
  -22.7822  -13.5220   21.1870 C   0  0  0  0  0  0
  -22.1664   -4.2155   21.0978 F   0  0  0  0  0  0
  -21.5626   -3.4536   25.7737 F   0  0  0  0  0  0
  -29.9931  -13.4969   20.4074 N   0  0  0  0  0  0
  -26.2942  -12.9425   20.3311 N   0  0  0  0  0  0
  -25.9333  -11.6561   20.5772 N   0  0  0  0  0  0
  -22.0468  -12.8210   22.0425 N   0  0  0  0  0  0
  -25.4182  -15.1935   20.4136 N   0  0  0  0  0  0
  -31.8375  -14.7702   20.1299 O   0  0  0  0  0  0
  -21.6644   -6.8877   21.4240 O   0  0  0  0  0  0
  -22.3506  -14.5521   20.6708 O   0  0  0  0  0  0
  -24.6329  -31.8582   23.2055 C   0  0  0  0  0  0
  -25.9166  -32.4765   23.8378 C   0  0  1  0  0  0
  -27.1916  -27.2545   20.1280 C   0  0  0  0  0  0
  -25.5972  -33.8571   24.2293 N   0  0  0  0  0  0
  -23.4265  -30.4878   21.5502 C   0  0  2  0  0  0
  -24.8685  -28.9475   20.1121 C   0  0  0  0  0  0
  -22.7504  -29.4625   22.4933 C   0  0  0  0  0  0
  -18.0294  -28.1386   22.8475 C   0  0  0  0  0  0
  -24.1488  -36.7286   23.2636 C   0  0  0  0  0  0
  -25.9770  -30.7637   21.3948 C   0  0  0  0  0  0
  -26.0416  -29.3874   20.7401 C   0  0  0  0  0  0
  -27.2054  -28.5487   20.7513 C   0  0  0  0  0  0
  -26.0226  -26.9383   19.4076 C   0  0  0  0  0  0
  -24.8631  -27.7255   19.4350 C   0  0  0  0  0  0
  -23.6426  -29.8347   20.1629 C   0  0  0  0  0  0
  -25.4113  -36.3074   24.0328 C   0  0  1  0  0  0
  -20.5899  -28.3696   23.1262 C   0  0  2  0  0  0
  -20.6786  -26.9416   22.5399 C   0  0  0  0  0  0
  -19.5758  -26.6382   21.5207 C   0  0  0  0  0  0
  -18.1937  -26.7929   22.1617 C   0  0  0  0  0  0
  -19.1548  -28.8859   23.2859 C   0  0  0  0  0  0
  -18.9471  -30.1464   23.8872 C   0  0  0  0  0  0
  -17.6469  -30.6585   24.0558 C   0  0  0  0  0  0
  -25.9058  -34.9445   23.5103 C   0  0  0  0  0  0
  -16.5359  -29.9079   23.6336 C   0  0  0  0  0  0
  -16.7280  -28.6500   23.0349 C   0  0  0  0  0  0
  -26.4517  -31.6588   25.0767 C   0  0  0  0  0  0
  -25.3733  -31.3746   26.1480 C   0  0  0  0  0  0
  -27.0372  -30.2998   24.6283 C   0  0  0  0  0  0
  -27.6063  -32.4339   25.7536 C   0  0  0  0  0  0
  -27.5575  -37.1804   24.8465 C   0  0  0  0  0  0
  -21.4215  -29.3049   22.3657 N   0  0  0  0  0  0
  -26.4286  -37.3777   23.9409 N   0  0  0  0  0  0
  -24.6978  -31.0545   22.1049 N   0  0  0  0  0  0
  -23.4204  -28.8147   23.3016 O   0  0  0  0  0  0
  -28.2607  -26.3212   20.1251 O   0  0  0  0  0  0
  -26.5608  -34.8911   22.4657 O   0  0  0  0  0  0
  -23.5479  -32.1414   23.7342 O   0  0  0  0  0  0
  -31.1043  -21.8503   19.0095 C   0  0  0  0  0  0
  -31.8480  -20.8392   18.4744 C   0  0  0  0  0  0
  -30.3171  -19.9219   19.8532 C   0  0  0  0  0  0
  -32.9923  -20.8557   17.5130 C   0  0  0  0  0  0
  -26.3725  -23.6374   19.1685 C   0  0  0  0  0  0
  -28.4044  -25.1300   22.1790 C   0  0  0  0  0  0
  -29.6513  -18.6546   20.5033 C   0  0  0  0  0  0
  -26.7180  -24.2404   20.5513 C   0  0  0  0  0  0
  -29.1859  -23.8201   20.1302 C   0  0  0  0  0  0
  -29.1796  -22.2437   20.5793 C   0  0  0  0  0  0
  -30.4770  -17.2611   20.3260 C   0  0  0  0  0  0
  -28.1238  -24.9081   20.6817 C   0  0  1  0  0  0
  -30.1499  -21.3105   19.8485 N   0  0  0  0  0  0
  -31.3319  -19.6960   19.0046 N   0  3  0  0  0  0
  -29.9416  -15.8716   20.6627 N   0  0  0  0  0  0
  -31.4658  -12.5295   19.1746 H   0  0  0  0  0  0
  -30.3409  -11.4531   19.9549 H   0  0  0  0  0  0
  -29.7808  -11.7359   17.5124 H   0  0  0  0  0  0
  -29.6419  -13.4637   17.7319 H   0  0  0  0  0  0
  -27.8775  -11.2893   18.8996 H   0  0  0  0  0  0
  -27.3758  -12.5441   17.7987 H   0  0  0  0  0  0
  -27.6375  -14.2586   19.4800 H   0  0  0  0  0  0
  -28.7118  -12.1733   21.4373 H   0  0  0  0  0  0
  -28.4320  -13.8609   21.7930 H   0  0  0  0  0  0
  -25.2762   -9.5694   22.4765 H   0  0  0  0  0  0
  -24.0017   -7.4633   22.7465 H   0  0  0  0  0  0
  -21.0851   -8.8758   19.8948 H   0  0  0  0  0  0
  -22.3688  -10.9670   19.6167 H   0  0  0  0  0  0
  -21.2003   -7.6147   23.9721 H   0  0  0  0  0  0
  -21.1487   -6.0520   25.9080 H   0  0  0  0  0  0
  -22.0598   -2.7614   23.2842 H   0  0  0  0  0  0
  -22.4089  -11.9872   22.4811 H   0  0  0  0  0  0
  -21.1076  -13.1219   22.2615 H   0  0  0  0  0  0
  -24.6470  -15.8435   20.5188 H   0  0  0  0  0  0
  -26.2616  -15.6351   20.0709 H   0  0  0  0  0  0
  -26.7229  -32.5402   23.1115 H   0  0  0  0  0  0
  -25.0161  -33.9729   25.0468 H   0  0  0  0  0  0
  -22.7229  -31.3115   21.4118 H   0  0  0  0  0  0
  -23.3753  -35.9618   23.3294 H   0  0  0  0  0  0
  -24.3572  -36.8905   22.2049 H   0  0  0  0  0  0
  -23.7244  -37.6490   23.6655 H   0  0  0  0  0  0
  -26.1261  -31.5229   20.6254 H   0  0  0  0  0  0
  -26.8527  -30.8054   22.0304 H   0  0  0  0  0  0
  -28.0972  -28.8749   21.2678 H   0  0  0  0  0  0
  -25.9708  -26.0550   18.8044 H   0  0  0  0  0  0
  -23.9812  -27.3974   18.9016 H   0  0  0  0  0  0
  -23.7666  -30.6167   19.4125 H   0  0  0  0  0  0
  -22.7599  -29.2715   19.8544 H   0  0  0  0  0  0
  -25.1297  -36.1916   25.0822 H   0  0  0  0  0  0
  -20.9983  -28.3267   24.1387 H   0  0  0  0  0  0
  -20.5692  -26.2310   23.3603 H   0  0  0  0  0  0
  -21.6652  -26.7449   22.1187 H   0  0  0  0  0  0
  -19.6916  -25.6291   21.1244 H   0  0  0  0  0  0
  -19.6691  -27.3187   20.6728 H   0  0  0  0  0  0
  -17.4210  -26.6672   21.4015 H   0  0  0  0  0  0
  -18.0329  -26.0079   22.9016 H   0  0  0  0  0  0
  -19.7949  -30.7286   24.2221 H   0  0  0  0  0  0
  -17.5025  -31.6262   24.5165 H   0  0  0  0  0  0
  -15.5360  -30.2969   23.7681 H   0  0  0  0  0  0
  -15.8679  -28.0814   22.7071 H   0  0  0  0  0  0
  -24.5925  -30.7068   25.7817 H   0  0  0  0  0  0
  -24.8908  -32.2919   26.4871 H   0  0  0  0  0  0
  -25.8052  -30.8960   27.0280 H   0  0  0  0  0  0
  -26.2982  -29.6744   24.1263 H   0  0  0  0  0  0
  -27.3987  -29.7259   25.4827 H   0  0  0  0  0  0
  -27.8886  -30.4257   23.9591 H   0  0  0  0  0  0
  -27.2669  -33.3655   26.2075 H   0  0  0  0  0  0
  -28.3891  -32.6873   25.0374 H   0  0  0  0  0  0
  -28.0710  -31.8491   26.5486 H   0  0  0  0  0  0
  -28.2596  -38.0099   24.7513 H   0  0  0  0  0  0
  -28.1070  -36.2634   24.6288 H   0  0  0  0  0  0
  -27.2291  -37.1440   25.8868 H   0  0  0  0  0  0
  -20.9396  -29.8779   21.6871 H   0  0  0  0  0  0
  -26.0159  -38.2850   24.1412 H   0  0  0  0  0  0
  -31.2073  -22.9106   18.8303 H   0  0  0  0  0  0
  -32.6404  -21.1002   16.5107 H   0  0  0  0  0  0
  -33.4903  -19.8868   17.4786 H   0  0  0  0  0  0
  -33.7242  -21.6054   17.8128 H   0  0  0  0  0  0
  -26.7488  -22.6221   19.0573 H   0  0  0  0  0  0
  -26.7961  -24.2079   18.3425 H   0  0  0  0  0  0
  -25.2931  -23.5859   19.0265 H   0  0  0  0  0  0
  -28.3639  -24.1967   22.7412 H   0  0  0  0  0  0
  -27.6784  -25.8105   22.6259 H   0  0  0  0  0  0
  -29.3942  -25.5601   22.3344 H   0  0  0  0  0  0
  -28.6653  -18.5739   20.0456 H   0  0  0  0  0  0
  -29.5007  -18.8868   21.5572 H   0  0  0  0  0  0
  -26.6480  -23.4213   21.2686 H   0  0  0  0  0  0
  -25.9326  -24.9133   20.8916 H   0  0  0  0  0  0
  -29.1078  -23.8448   19.0435 H   0  0  0  0  0  0
  -30.1765  -24.2202   20.3456 H   0  0  0  0  0  0
  -28.1919  -21.8010   20.4737 H   0  0  0  0  0  0
  -29.4212  -22.1746   21.6398 H   0  0  0  0  0  0
  -31.4266  -17.3748   20.8528 H   0  0  0  0  0  0
  -30.7390  -17.1781   19.2707 H   0  0  0  0  0  0
  -31.6757  -18.7693   18.7814 H   0  0  0  0  0  0
  -28.9653  -15.7849   20.9035 H   0  0  0  0  0  0
  1 25  1  0  0  0
  1 30  2  0  0  0
  1 85  1  0  0  0
  2  3  1  0  0  0
  2 25  1  0  0  0
  2 86  1  0  0  0
  2 87  1  0  0  0
  3  4  1  0  0  0
  3 88  1  0  0  0
  3 89  1  0  0  0
  4  5  1  0  0  0
  4 90  1  0  0  0
  4 91  1  0  0  0
  5  6  1  0  0  0
  5 26  1  0  0  0
  5 92  1  0  0  0
  6 25  1  0  0  0
  6 93  1  0  0  0
  6 94  1  0  0  0
  7  8  2  0  0  0
  7 26  1  0  0  0
  7 29  1  0  0  0
  8  9  1  0  0  0
  8 22  1  0  0  0
  9 10  1  0  0  0
  9 27  2  0  0  0
 10 11  2  0  0  0
 10 15  1  0  0  0
 11 12  1  0  0  0
 11 95  1  0  0  0
 12 13  2  0  0  0
 12 96  1  0  0  0
 13 14  1  0  0  0
 13 31  1  0  0  0
 14 15  2  0  0  0
 14 97  1  0  0  0
 15 98  1  0  0  0
 16 17  2  0  0  0
 16 21  1  0  0  0
 16 31  1  0  0  0
 17 18  1  0  0  0
 17 99  1  0  0  0
 18 19  2  0  0  0
 18100  1  0  0  0
 19 20  1  0  0  0
 19 24  1  0  0  0
 20 21  2  0  0  0
 20101  1  0  0  0
 21 23  1  0  0  0
 22 28  1  0  0  0
 22 32  2  0  0  0
 26 27  1  0  0  0
 28102  1  0  0  0
 28103  1  0  0  0
 29104  1  0  0  0
 29105  1  0  0  0
 33 34  1  0  0  0
 33 66  1  0  0  0
 33 70  2  0  0  0
 34 36  1  0  0  0
 34 59  1  0  0  0
 34106  1  0  0  0
 35 44  2  0  0  0
 35 45  1  0  0  0
 35 68  1  0  0  0
 36 56  1  0  0  0
 36107  1  0  0  0
 37 39  1  0  0  0
 37 47  1  0  0  0
 37 66  1  0  0  0
 37108  1  0  0  0
 38 43  2  0  0  0
 38 46  1  0  0  0
 38 47  1  0  0  0
 39 64  1  0  0  0
 39 67  2  0  0  0
 40 52  1  0  0  0
 40 53  2  0  0  0
 40 58  1  0  0  0
 41109  1  0  0  0
 41110  1  0  0  0
 41111  1  0  0  0
 41 48  1  0  0  0
 42 43  1  0  0  0
 42 66  1  0  0  0
 42112  1  0  0  0
 42113  1  0  0  0
 43 44  1  0  0  0
 44114  1  0  0  0
 45 46  2  0  0  0
 45115  1  0  0  0
 46116  1  0  0  0
 47117  1  0  0  0
 47118  1  0  0  0
 48 56  1  0  0  0
 48 65  1  0  0  0
 48119  1  0  0  0
 49 50  1  0  0  0
 49 53  1  0  0  0
 49 64  1  0  0  0
 49120  1  0  0  0
 50 51  1  0  0  0
 50121  1  0  0  0
 50122  1  0  0  0
 51 52  1  0  0  0
 51123  1  0  0  0
 51124  1  0  0  0
 52125  1  0  0  0
 52126  1  0  0  0
 53 54  1  0  0  0
 54 55  2  0  0  0
 54127  1  0  0  0
 55 57  1  0  0  0
 55128  1  0  0  0
 56 69  2  0  0  0
 57 58  2  0  0  0
 57129  1  0  0  0
 58130  1  0  0  0
 59 60  1  0  0  0
 59 61  1  0  0  0
 59 62  1  0  0  0
 60131  1  0  0  0
 60132  1  0  0  0
 60133  1  0  0  0
 61134  1  0  0  0
 61135  1  0  0  0
 61136  1  0  0  0
 62137  1  0  0  0
 62138  1  0  0  0
 62139  1  0  0  0
 63 65  1  0  0  0
 63140  1  0  0  0
 63141  1  0  0  0
 63142  1  0  0  0
 64143  1  0  0  0
 65144  1  0  0  0
 68 82  1  0  0  0
 71 72  2  0  0  0
 71 83  1  0  0  0
 71145  1  0  0  0
 72 74  1  0  0  0
 72 84  1  0  0  0
 73 77  1  0  0  0
 73 83  1  0  0  0
 73 84  2  0  0  0
 74146  1  0  0  0
 74147  1  0  0  0
 74148  1  0  0  0
 75 78  1  0  0  0
 75149  1  0  0  0
 75150  1  0  0  0
 75151  1  0  0  0
 76152  1  0  0  0
 76153  1  0  0  0
 76154  1  0  0  0
 76 82  1  0  0  0
 77 81  1  0  0  0
 77155  1  0  0  0
 77156  1  0  0  0
 78 82  1  0  0  0
 78157  1  0  0  0
 78158  1  0  0  0
 79 80  1  0  0  0
 79 82  1  0  0  0
 79159  1  0  0  0
 79160  1  0  0  0
 80 83  1  0  0  0
 80161  1  0  0  0
 80162  1  0  0  0
 81 85  1  0  0  0
 81163  1  0  0  0
 81164  1  0  0  0
 84165  1  0  0  0
 85166  1  0  0  0
M  CHG  1  84   1
M  ISO  4   1 100  68 101  82 101  85 100
M  END
> <chiral flag>
0

> <version>
0

> <s_m_source_file>
/data/baiqing/PycharmProjects/Reinvent-master-3.2/result/LINK_invent/BTK/process_docking_weight1_custom_sum_contain_oxygen_bond_distance_aromatic_linkinvent_7_9_3/rearranged_h_0080.sdf

> <i_m_source_file_index>
40

> <r_mmod_Potential_Energy-OPLS-2005>
167.58918762207

> <r_mmod_Stretch_Energy-OPLS-2005>
133.354446411133

> <r_mmod_Bend_Energy-OPLS-2005>
204.381301879883

> <r_mmod_Torsional_Energy-OPLS-2005>
252.378524780273

> <r_mmod_Improper_Torsional_Energy-OPLS-2005>
5.87634658813477

> <r_mmod_Van_der_Waal_Energy-OPLS-2005>
135.914779663086

> <r_mmod_Electrostatic_Energy-OPLS-2005>
-234.846755981445

> <r_mmod_Solvation_Energy-OPLS-2005>
-411.349761962891

> <b_mmod_Minimization_Converged-OPLS-2005>
0

> <r_mmod_RMS_Derivative-OPLS-2005>
1.09535276889801

$$$$
42
                    3D
 Structure written by MMmdl.
166174  0  0  1  0            999 V2000
  -30.6389  -14.5273   20.5763 C   0  0  0  0  0  0
  -30.4401  -12.3373   19.4380 C   0  0  0  0  0  0
  -29.5074  -12.5234   18.2218 C   0  0  0  0  0  0
  -28.0258  -12.3770   18.6239 C   0  0  0  0  0  0
  -27.6662  -13.2050   19.8853 C   0  0  2  0  0  0
  -28.7042  -12.9680   21.0066 C   0  0  0  0  0  0
  -25.2593  -13.8153   20.5680 C   0  0  0  0  0  0
  -24.1848  -13.0438   20.9179 C   0  0  0  0  0  0
  -24.6393  -11.6903   20.8737 C   0  0  0  0  0  0
  -23.9059  -10.4288   21.0398 C   0  0  0  0  0  0
  -24.3621   -9.4206   21.9172 C   0  0  0  0  0  0
  -23.6308   -8.2236   22.0734 C   0  0  0  0  0  0
  -22.4285   -8.0273   21.3536 C   0  0  0  0  0  0
  -21.9930   -9.0238   20.4626 C   0  0  0  0  0  0
  -22.7249  -10.2124   20.3030 C   0  0  0  0  0  0
  -21.6854   -6.0740   22.5290 C   0  0  0  0  0  0
  -21.4006   -6.5638   23.8221 C   0  0  0  0  0  0
  -21.3660   -5.6792   24.9188 C   0  0  0  0  0  0
  -21.6052   -4.3060   24.7242 C   0  0  0  0  0  0
  -21.8817   -3.8147   23.4358 C   0  0  0  0  0  0
  -21.9195   -4.6966   22.3421 C   0  0  0  0  0  0
  -22.7865  -13.5215   21.1875 C   0  0  0  0  0  0
  -22.1653   -4.2153   21.0996 F   0  0  0  0  0  0
  -21.5645   -3.4532   25.7746 F   0  0  0  0  0  0
  -30.0393  -13.3040   20.4754 N   0  0  0  0  0  0
  -26.3037  -12.9317   20.3377 N   0  0  0  0  0  0
  -25.9313  -11.6489   20.5753 N   0  0  0  0  0  0
  -22.0520  -12.8172   22.0424 N   0  0  0  0  0  0
  -25.4350  -15.1865   20.4086 N   0  0  0  0  0  0
  -31.7242  -14.7897   20.0501 O   0  0  0  0  0  0
  -21.6643   -6.8878   21.4243 O   0  0  0  0  0  0
  -22.3547  -14.5536   20.6750 O   0  0  0  0  0  0
  -24.6208  -31.8661   23.2068 C   0  0  0  0  0  0
  -25.9109  -32.4781   23.8392 C   0  0  1  0  0  0
  -27.2515  -27.4138   20.0963 C   0  0  0  0  0  0
  -25.6004  -33.8590   24.2348 N   0  0  0  0  0  0
  -23.4093  -30.4920   21.5423 C   0  0  2  0  0  0
  -24.8570  -28.9473   20.1134 C   0  0  0  0  0  0
  -22.7437  -29.4694   22.4912 C   0  0  0  0  0  0
  -18.0295  -28.1395   22.8462 C   0  0  0  0  0  0
  -24.1502  -36.7287   23.2635 C   0  0  0  0  0  0
  -25.9435  -30.8179   21.3709 C   0  0  0  0  0  0
  -26.0149  -29.4520   20.7152 C   0  0  0  0  0  0
  -27.2068  -28.6915   20.7060 C   0  0  0  0  0  0
  -26.0668  -26.9176   19.5019 C   0  0  0  0  0  0
  -24.8799  -27.6781   19.5060 C   0  0  0  0  0  0
  -23.6202  -29.8187   20.1590 C   0  0  0  0  0  0
  -25.4122  -36.3080   24.0339 C   0  0  1  0  0  0
  -20.5896  -28.3715   23.1264 C   0  0  2  0  0  0
  -20.6822  -26.9445   22.5387 C   0  0  0  0  0  0
  -19.5795  -26.6403   21.5202 C   0  0  0  0  0  0
  -18.1961  -26.7945   22.1590 C   0  0  0  0  0  0
  -19.1546  -28.8863   23.2868 C   0  0  0  0  0  0
  -18.9475  -30.1467   23.8877 C   0  0  0  0  0  0
  -17.6474  -30.6585   24.0566 C   0  0  0  0  0  0
  -25.9061  -34.9449   23.5120 C   0  0  0  0  0  0
  -16.5359  -29.9080   23.6348 C   0  0  0  0  0  0
  -16.7283  -28.6511   23.0336 C   0  0  0  0  0  0
  -26.4533  -31.6563   25.0726 C   0  0  0  0  0  0
  -25.3798  -31.3684   26.1482 C   0  0  0  0  0  0
  -27.0418  -30.2998   24.6181 C   0  0  0  0  0  0
  -27.6094  -32.4296   25.7496 C   0  0  0  0  0  0
  -27.5590  -37.1810   24.8465 C   0  0  0  0  0  0
  -21.4163  -29.3067   22.3631 N   0  0  0  0  0  0
  -26.4297  -37.3771   23.9410 N   0  0  0  0  0  0
  -24.6741  -31.0778   22.0946 N   0  0  0  0  0  0
  -23.4193  -28.8224   23.2960 O   0  0  0  0  0  0
  -28.4547  -26.7255   20.1243 O   0  0  0  0  0  0
  -26.5562  -34.8911   22.4648 O   0  0  0  0  0  0
  -23.5401  -32.1411   23.7466 O   0  0  0  0  0  0
  -29.7782  -20.5049   20.5983 C   0  0  0  0  0  0
  -28.9534  -21.6398   20.7823 C   0  0  0  0  0  0
  -29.5590  -19.3836   21.4328 C   0  0  0  0  0  0
  -27.9028  -20.5678   22.5114 C   0  0  0  0  0  0
  -28.8470  -20.8892   25.4978 C   0  0  0  0  0  0
  -31.0006  -17.7140   22.7146 C   0  0  0  0  0  0
  -28.9843  -22.8709   19.8598 C   0  0  0  0  0  0
  -26.9758  -20.7076   23.7118 C   0  0  0  0  0  0
  -27.5931  -21.5218   24.8720 C   0  0  0  0  0  0
  -28.6047  -24.2456   20.5036 C   0  0  0  0  0  0
  -29.5995  -16.8681   20.6942 C   0  0  0  0  0  0
  -28.6344  -25.4356   19.5047 C   0  0  0  0  0  0
  -30.3757  -18.0614   21.3510 C   0  0  1  0  0  0
  -28.0062  -21.6372   21.7335 N   0  0  0  0  0  0
  -28.6077  -19.4444   22.3899 N   0  0  0  0  0  0
  -29.8671  -15.4758   21.1510 N   0  0  0  0  0  0
  -31.4806  -12.4638   19.1366 H   0  0  0  0  0  0
  -30.3658  -11.3209   19.8258 H   0  0  0  0  0  0
  -29.7545  -11.8003   17.4436 H   0  0  0  0  0  0
  -29.6702  -13.5106   17.7877 H   0  0  0  0  0  0
  -27.8348  -11.3197   18.8086 H   0  0  0  0  0  0
  -27.3797  -12.6563   17.7910 H   0  0  0  0  0  0
  -27.7105  -14.2565   19.6010 H   0  0  0  0  0  0
  -28.6881  -11.9232   21.3188 H   0  0  0  0  0  0
  -28.4470  -13.5373   21.9006 H   0  0  0  0  0  0
  -25.2760   -9.5689   22.4763 H   0  0  0  0  0  0
  -24.0033   -7.4627   22.7441 H   0  0  0  0  0  0
  -21.0874   -8.8753   19.8920 H   0  0  0  0  0  0
  -22.3709  -10.9673   19.6143 H   0  0  0  0  0  0
  -21.1962   -7.6138   23.9735 H   0  0  0  0  0  0
  -21.1485   -6.0512   25.9099 H   0  0  0  0  0  0
  -22.0589   -2.7609   23.2862 H   0  0  0  0  0  0
  -22.4107  -11.9799   22.4773 H   0  0  0  0  0  0
  -21.1125  -13.1176   22.2629 H   0  0  0  0  0  0
  -24.6713  -15.8466   20.5114 H   0  0  0  0  0  0
  -26.2922  -15.6214   20.0922 H   0  0  0  0  0  0
  -26.7178  -32.5479   23.1145 H   0  0  0  0  0  0
  -25.0324  -33.9749   25.0608 H   0  0  0  0  0  0
  -22.6979  -31.3083   21.3985 H   0  0  0  0  0  0
  -23.3765  -35.9619   23.3276 H   0  0  0  0  0  0
  -24.3604  -36.8914   22.2054 H   0  0  0  0  0  0
  -23.7248  -37.6492   23.6643 H   0  0  0  0  0  0
  -26.0890  -31.5827   20.6068 H   0  0  0  0  0  0
  -26.8191  -30.8533   22.0073 H   0  0  0  0  0  0
  -28.0976  -29.0781   21.1829 H   0  0  0  0  0  0
  -26.0282  -25.9420   19.0432 H   0  0  0  0  0  0
  -23.9894  -27.2778   19.0404 H   0  0  0  0  0  0
  -23.7325  -30.5918   19.3984 H   0  0  0  0  0  0
  -22.7433  -29.2445   19.8562 H   0  0  0  0  0  0
  -25.1291  -36.1934   25.0830 H   0  0  0  0  0  0
  -21.0022  -28.3333   24.1373 H   0  0  0  0  0  0
  -20.5824  -26.2312   23.3578 H   0  0  0  0  0  0
  -21.6679  -26.7541   22.1120 H   0  0  0  0  0  0
  -19.6989  -25.6325   21.1218 H   0  0  0  0  0  0
  -19.6760  -27.3215   20.6738 H   0  0  0  0  0  0
  -17.4265  -26.6709   21.3955 H   0  0  0  0  0  0
  -18.0336  -26.0071   22.8964 H   0  0  0  0  0  0
  -19.7959  -30.7292   24.2220 H   0  0  0  0  0  0
  -17.5032  -31.6256   24.5189 H   0  0  0  0  0  0
  -15.5362  -30.2972   23.7712 H   0  0  0  0  0  0
  -15.8678  -28.0835   22.7049 H   0  0  0  0  0  0
  -24.5917  -30.7100   25.7807 H   0  0  0  0  0  0
  -24.9083  -32.2869   26.4994 H   0  0  0  0  0  0
  -25.8162  -30.8780   27.0192 H   0  0  0  0  0  0
  -26.3004  -29.6652   24.1320 H   0  0  0  0  0  0
  -27.4265  -29.7333   25.4672 H   0  0  0  0  0  0
  -27.8787  -30.4297   23.9306 H   0  0  0  0  0  0
  -27.2693  -33.3567   26.2119 H   0  0  0  0  0  0
  -28.3889  -32.6914   25.0319 H   0  0  0  0  0  0
  -28.0782  -31.8406   26.5388 H   0  0  0  0  0  0
  -28.2586  -38.0127   24.7522 H   0  0  0  0  0  0
  -28.1110  -36.2663   24.6261 H   0  0  0  0  0  0
  -27.2312  -37.1400   25.8868 H   0  0  0  0  0  0
  -20.9338  -29.8682   21.6746 H   0  0  0  0  0  0
  -26.0179  -38.2854   24.1385 H   0  0  0  0  0  0
  -30.5419  -20.4859   19.8310 H   0  0  0  0  0  0
  -29.2161  -21.4853   26.3325 H   0  0  0  0  0  0
  -29.6577  -20.8107   24.7725 H   0  0  0  0  0  0
  -28.6407  -19.8860   25.8714 H   0  0  0  0  0  0
  -31.5780  -18.5565   23.0953 H   0  0  0  0  0  0
  -31.6791  -16.8656   22.6401 H   0  0  0  0  0  0
  -30.2327  -17.4712   23.4486 H   0  0  0  0  0  0
  -28.3112  -22.6719   19.0278 H   0  0  0  0  0  0
  -29.9827  -22.9431   19.4286 H   0  0  0  0  0  0
  -26.6788  -19.7219   24.0703 H   0  0  0  0  0  0
  -26.0547  -21.1935   23.3832 H   0  0  0  0  0  0
  -27.8397  -22.5232   24.5146 H   0  0  0  0  0  0
  -26.8420  -21.6554   25.6518 H   0  0  0  0  0  0
  -29.2871  -24.4529   21.3274 H   0  0  0  0  0  0
  -27.6072  -24.1843   20.9395 H   0  0  0  0  0  0
  -29.6865  -16.9293   19.6083 H   0  0  0  0  0  0
  -28.5383  -17.0187   20.8972 H   0  0  0  0  0  0
  -27.9722  -25.2660   18.6588 H   0  0  0  0  0  0
  -29.6301  -25.4646   19.0626 H   0  0  0  0  0  0
  -31.2186  -18.2694   20.6909 H   0  0  0  0  0  0
  -29.1050  -15.0796   21.6815 H   0  0  0  0  0  0
  1 25  1  0  0  0
  1 30  2  0  0  0
  1 86  1  0  0  0
  2  3  1  0  0  0
  2 25  1  0  0  0
  2 87  1  0  0  0
  2 88  1  0  0  0
  3  4  1  0  0  0
  3 89  1  0  0  0
  3 90  1  0  0  0
  4  5  1  0  0  0
  4 91  1  0  0  0
  4 92  1  0  0  0
  5  6  1  0  0  0
  5 26  1  0  0  0
  5 93  1  0  0  0
  6 25  1  0  0  0
  6 94  1  0  0  0
  6 95  1  0  0  0
  7  8  2  0  0  0
  7 26  1  0  0  0
  7 29  1  0  0  0
  8  9  1  0  0  0
  8 22  1  0  0  0
  9 10  1  0  0  0
  9 27  2  0  0  0
 10 11  2  0  0  0
 10 15  1  0  0  0
 11 12  1  0  0  0
 11 96  1  0  0  0
 12 13  2  0  0  0
 12 97  1  0  0  0
 13 14  1  0  0  0
 13 31  1  0  0  0
 14 15  2  0  0  0
 14 98  1  0  0  0
 15 99  1  0  0  0
 16 17  2  0  0  0
 16 21  1  0  0  0
 16 31  1  0  0  0
 17 18  1  0  0  0
 17100  1  0  0  0
 18 19  2  0  0  0
 18101  1  0  0  0
 19 20  1  0  0  0
 19 24  1  0  0  0
 20 21  2  0  0  0
 20102  1  0  0  0
 21 23  1  0  0  0
 22 28  1  0  0  0
 22 32  2  0  0  0
 26 27  1  0  0  0
 28103  1  0  0  0
 28104  1  0  0  0
 29105  1  0  0  0
 29106  1  0  0  0
 33 34  1  0  0  0
 33 66  1  0  0  0
 33 70  2  0  0  0
 34 36  1  0  0  0
 34 59  1  0  0  0
 34107  1  0  0  0
 35 44  2  0  0  0
 35 45  1  0  0  0
 35 68  1  0  0  0
 36 56  1  0  0  0
 36108  1  0  0  0
 37 39  1  0  0  0
 37 47  1  0  0  0
 37 66  1  0  0  0
 37109  1  0  0  0
 38 43  2  0  0  0
 38 46  1  0  0  0
 38 47  1  0  0  0
 39 64  1  0  0  0
 39 67  2  0  0  0
 40 52  1  0  0  0
 40 53  2  0  0  0
 40 58  1  0  0  0
 41110  1  0  0  0
 41111  1  0  0  0
 41112  1  0  0  0
 41 48  1  0  0  0
 42 43  1  0  0  0
 42 66  1  0  0  0
 42113  1  0  0  0
 42114  1  0  0  0
 43 44  1  0  0  0
 44115  1  0  0  0
 45 46  2  0  0  0
 45116  1  0  0  0
 46117  1  0  0  0
 47118  1  0  0  0
 47119  1  0  0  0
 48 56  1  0  0  0
 48 65  1  0  0  0
 48120  1  0  0  0
 49 50  1  0  0  0
 49 53  1  0  0  0
 49 64  1  0  0  0
 49121  1  0  0  0
 50 51  1  0  0  0
 50122  1  0  0  0
 50123  1  0  0  0
 51 52  1  0  0  0
 51124  1  0  0  0
 51125  1  0  0  0
 52126  1  0  0  0
 52127  1  0  0  0
 53 54  1  0  0  0
 54 55  2  0  0  0
 54128  1  0  0  0
 55 57  1  0  0  0
 55129  1  0  0  0
 56 69  2  0  0  0
 57 58  2  0  0  0
 57130  1  0  0  0
 58131  1  0  0  0
 59 60  1  0  0  0
 59 61  1  0  0  0
 59 62  1  0  0  0
 60132  1  0  0  0
 60133  1  0  0  0
 60134  1  0  0  0
 61135  1  0  0  0
 61136  1  0  0  0
 61137  1  0  0  0
 62138  1  0  0  0
 62139  1  0  0  0
 62140  1  0  0  0
 63 65  1  0  0  0
 63141  1  0  0  0
 63142  1  0  0  0
 63143  1  0  0  0
 64144  1  0  0  0
 65145  1  0  0  0
 68 82  1  0  0  0
 71 72  2  0  0  0
 71 73  1  0  0  0
 71146  1  0  0  0
 72 77  1  0  0  0
 72 84  1  0  0  0
 73 83  1  0  0  0
 73 85  2  0  0  0
 74 78  1  0  0  0
 74 84  2  0  0  0
 74 85  1  0  0  0
 75 79  1  0  0  0
 75147  1  0  0  0
 75148  1  0  0  0
 75149  1  0  0  0
 76150  1  0  0  0
 76151  1  0  0  0
 76152  1  0  0  0
 76 83  1  0  0  0
 77 80  1  0  0  0
 77153  1  0  0  0
 77154  1  0  0  0
 78 79  1  0  0  0
 78155  1  0  0  0
 78156  1  0  0  0
 79157  1  0  0  0
 79158  1  0  0  0
 80 82  1  0  0  0
 80159  1  0  0  0
 80160  1  0  0  0
 81 83  1  0  0  0
 81 86  1  0  0  0
 81161  1  0  0  0
 81162  1  0  0  0
 82163  1  0  0  0
 82164  1  0  0  0
 83165  1  0  0  0
 86166  1  0  0  0
M  ISO  4   1 100  68 101  82 101  86 100
M  END
> <chiral flag>
0

> <version>
0

> <s_m_source_file>
/data/baiqing/PycharmProjects/Reinvent-master-3.2/result/LINK_invent/BTK/process_docking_weight1_custom_sum_contain_oxygen_bond_distance_aromatic_linkinvent_7_9_3/rearranged_h_0080.sdf

> <i_m_source_file_index>
41

> <r_mmod_Potential_Energy-OPLS-2005>
-468.622497558594

> <r_mmod_Stretch_Energy-OPLS-2005>
46.1339721679688

> <r_mmod_Bend_Energy-OPLS-2005>
127.415969848633

> <r_mmod_Torsional_Energy-OPLS-2005>
200.578582763672

> <r_mmod_Improper_Torsional_Energy-OPLS-2005>
6.63536071777344

> <r_mmod_Van_der_Waal_Energy-OPLS-2005>
150.594360351562

> <r_mmod_Electrostatic_Energy-OPLS-2005>
-794.437927246094

> <r_mmod_Solvation_Energy-OPLS-2005>
-224.862609863281

> <b_mmod_Minimization_Converged-OPLS-2005>
0

> <r_mmod_RMS_Derivative-OPLS-2005>
2.86839866638184

$$$$
43
                    3D
 Structure written by MMmdl.
158166  0  0  1  0            999 V2000
  -30.7198  -14.6245   20.5026 C   0  0  0  0  0  0
  -30.4464  -12.3984   19.4219 C   0  0  0  0  0  0
  -29.5033  -12.5267   18.2053 C   0  0  0  0  0  0
  -28.0334  -12.3539   18.6322 C   0  0  0  0  0  0
  -27.6701  -13.2286   19.8613 C   0  0  2  0  0  0
  -28.7352  -13.1093   20.9815 C   0  0  0  0  0  0
  -25.2628  -13.8203   20.5652 C   0  0  0  0  0  0
  -24.1889  -13.0422   20.9151 C   0  0  0  0  0  0
  -24.6505  -11.6908   20.8735 C   0  0  0  0  0  0
  -23.9149  -10.4278   21.0393 C   0  0  0  0  0  0
  -24.3683   -9.4180   21.9187 C   0  0  0  0  0  0
  -23.6309   -8.2244   22.0754 C   0  0  0  0  0  0
  -22.4313   -8.0289   21.3547 C   0  0  0  0  0  0
  -21.9957   -9.0281   20.4656 C   0  0  0  0  0  0
  -22.7323  -10.2136   20.3044 C   0  0  0  0  0  0
  -21.6859   -6.0736   22.5288 C   0  0  0  0  0  0
  -21.4016   -6.5621   23.8206 C   0  0  0  0  0  0
  -21.3648   -5.6772   24.9171 C   0  0  0  0  0  0
  -21.6035   -4.3039   24.7211 C   0  0  0  0  0  0
  -21.8817   -3.8139   23.4349 C   0  0  0  0  0  0
  -21.9182   -4.6950   22.3388 C   0  0  0  0  0  0
  -22.7899  -13.5202   21.1767 C   0  0  0  0  0  0
  -22.1641   -4.2113   21.0980 F   0  0  0  0  0  0
  -21.5640   -3.4534   25.7743 F   0  0  0  0  0  0
  -30.0483  -13.4293   20.4035 N   0  0  0  0  0  0
  -26.3130  -12.9432   20.3392 N   0  0  0  0  0  0
  -25.9466  -11.6562   20.5823 N   0  0  0  0  0  0
  -22.0527  -12.8243   22.0372 N   0  0  0  0  0  0
  -25.4222  -15.1914   20.3955 N   0  0  0  0  0  0
  -31.8655  -14.7539   20.0751 O   0  0  0  0  0  0
  -21.6631   -6.8912   21.4261 O   0  0  0  0  0  0
  -22.3556  -14.5454   20.6554 O   0  0  0  0  0  0
  -24.6207  -31.8606   23.1985 C   0  0  0  0  0  0
  -25.9032  -32.4840   23.8325 C   0  0  1  0  0  0
  -27.2518  -27.3388   20.1339 C   0  0  0  0  0  0
  -25.5816  -33.8614   24.2255 N   0  0  0  0  0  0
  -23.4192  -30.4850   21.5373 C   0  0  2  0  0  0
  -24.8777  -28.9334   20.1215 C   0  0  0  0  0  0
  -22.7424  -29.4675   22.4862 C   0  0  0  0  0  0
  -18.0263  -28.1470   22.8476 C   0  0  0  0  0  0
  -24.1452  -36.7314   23.2638 C   0  0  0  0  0  0
  -25.9563  -30.8091   21.3591 C   0  0  0  0  0  0
  -26.0435  -29.4300   20.7176 C   0  0  0  0  0  0
  -27.2341  -28.6466   20.7091 C   0  0  0  0  0  0
  -26.0591  -26.8871   19.5218 C   0  0  0  0  0  0
  -24.8854  -27.6663   19.5188 C   0  0  0  0  0  0
  -23.6418  -29.8079   20.1584 C   0  0  0  0  0  0
  -25.4092  -36.3130   24.0325 C   0  0  1  0  0  0
  -20.5862  -28.3756   23.1250 C   0  0  2  0  0  0
  -20.6747  -26.9465   22.5415 C   0  0  0  0  0  0
  -19.5740  -26.6429   21.5207 C   0  0  0  0  0  0
  -18.1914  -26.8011   22.1626 C   0  0  0  0  0  0
  -19.1517  -28.8927   23.2886 C   0  0  0  0  0  0
  -18.9474  -30.1510   23.8925 C   0  0  0  0  0  0
  -17.6487  -30.6679   24.0593 C   0  0  0  0  0  0
  -25.9029  -34.9502   23.5127 C   0  0  0  0  0  0
  -16.5370  -29.9210   23.6342 C   0  0  0  0  0  0
  -16.7245  -28.6630   23.0354 C   0  0  0  0  0  0
  -26.4399  -31.6654   25.0685 C   0  0  0  0  0  0
  -25.3580  -31.3828   26.1376 C   0  0  0  0  0  0
  -27.0191  -30.3079   24.6107 C   0  0  0  0  0  0
  -27.5995  -32.4325   25.7465 C   0  0  0  0  0  0
  -27.5575  -37.1812   24.8449 C   0  0  0  0  0  0
  -21.4136  -29.3113   22.3642 N   0  0  0  0  0  0
  -26.4280  -37.3828   23.9417 N   0  0  0  0  0  0
  -24.6855  -31.0651   22.0938 N   0  0  0  0  0  0
  -23.4150  -28.8168   23.2916 O   0  0  0  0  0  0
  -28.3975  -26.5261   20.1695 O   0  0  0  0  0  0
  -26.5658  -34.8964   22.4723 O   0  0  0  0  0  0
  -23.5372  -32.1348   23.7350 O   0  0  0  0  0  0
  -29.8643  -20.3736   21.3171 C   0  0  0  0  0  0
  -29.7697  -21.7904   21.4088 C   0  0  0  0  0  0
  -29.6947  -19.7108   20.0726 C   0  0  0  0  0  0
  -29.5181  -22.5881   20.2669 C   0  0  0  0  0  0
  -29.4696  -20.5889   18.9647 C   0  0  0  0  0  0
  -30.5091  -19.5709   16.8125 C   0  0  0  0  0  0
  -29.6436  -18.1344   19.9407 C   0  0  0  0  0  0
  -29.5571  -24.1699   20.3170 C   0  0  0  0  0  0
  -29.2431  -20.0664   17.5436 C   0  0  0  0  0  0
  -30.4200  -17.1783   20.9552 C   0  0  0  0  0  0
  -28.2378  -25.0530   20.2146 C   0  0  0  0  0  0
  -29.4089  -21.9569   19.0658 N   0  0  0  0  0  0
  -30.0213  -15.7190   20.9261 N   0  0  0  0  0  0
  -31.4841  -12.4929   19.0935 H   0  0  0  0  0  0
  -30.3691  -11.4022   19.8622 H   0  0  0  0  0  0
  -29.7651  -11.7876   17.4458 H   0  0  0  0  0  0
  -29.6311  -13.5075   17.7420 H   0  0  0  0  0  0
  -27.8798  -11.3022   18.8781 H   0  0  0  0  0  0
  -27.3663  -12.5709   17.7970 H   0  0  0  0  0  0
  -27.6881  -14.2612   19.5103 H   0  0  0  0  0  0
  -28.7493  -12.1005   21.3925 H   0  0  0  0  0  0
  -28.5048  -13.7800   21.8117 H   0  0  0  0  0  0
  -25.2844   -9.5603   22.4734 H   0  0  0  0  0  0
  -23.9970   -7.4628   22.7516 H   0  0  0  0  0  0
  -21.0851   -8.8847   19.9008 H   0  0  0  0  0  0
  -22.3820  -10.9662   19.6114 H   0  0  0  0  0  0
  -21.2023   -7.6135   23.9706 H   0  0  0  0  0  0
  -21.1479   -6.0511   25.9069 H   0  0  0  0  0  0
  -22.0625   -2.7594   23.2859 H   0  0  0  0  0  0
  -22.4124  -11.9915   22.4786 H   0  0  0  0  0  0
  -21.1143  -13.1300   22.2530 H   0  0  0  0  0  0
  -24.6483  -15.8385   20.4978 H   0  0  0  0  0  0
  -26.2578  -15.6378   20.0361 H   0  0  0  0  0  0
  -26.7090  -32.5559   23.1084 H   0  0  0  0  0  0
  -24.9734  -33.9743   25.0235 H   0  0  0  0  0  0
  -22.7161  -31.3052   21.3839 H   0  0  0  0  0  0
  -23.3748  -35.9614   23.3309 H   0  0  0  0  0  0
  -24.3521  -36.8936   22.2051 H   0  0  0  0  0  0
  -23.7162  -37.6496   23.6656 H   0  0  0  0  0  0
  -26.0474  -31.5599   20.5731 H   0  0  0  0  0  0
  -26.8496  -30.8926   21.9657 H   0  0  0  0  0  0
  -28.1321  -29.0338   21.1736 H   0  0  0  0  0  0
  -26.0083  -25.9203   19.0429 H   0  0  0  0  0  0
  -23.9880  -27.2762   19.0611 H   0  0  0  0  0  0
  -23.7670  -30.5741   19.3919 H   0  0  0  0  0  0
  -22.7660  -29.2290   19.8590 H   0  0  0  0  0  0
  -25.1276  -36.1996   25.0820 H   0  0  0  0  0  0
  -20.9974  -28.3372   24.1361 H   0  0  0  0  0  0
  -20.5591  -26.2370   23.3626 H   0  0  0  0  0  0
  -21.6630  -26.7470   22.1252 H   0  0  0  0  0  0
  -19.6886  -25.6312   21.1304 H   0  0  0  0  0  0
  -19.6728  -27.3165   20.6682 H   0  0  0  0  0  0
  -17.4153  -26.6683   21.4066 H   0  0  0  0  0  0
  -18.0387  -26.0199   22.9083 H   0  0  0  0  0  0
  -19.7954  -30.7313   24.2320 H   0  0  0  0  0  0
  -17.5073  -31.6353   24.5211 H   0  0  0  0  0  0
  -15.5386  -30.3181   23.7677 H   0  0  0  0  0  0
  -15.8617  -28.1011   22.7063 H   0  0  0  0  0  0
  -24.5751  -30.7211   25.7652 H   0  0  0  0  0  0
  -24.8746  -32.3015   26.4721 H   0  0  0  0  0  0
  -25.7810  -30.9012   27.0193 H   0  0  0  0  0  0
  -26.2750  -29.6922   24.1045 H   0  0  0  0  0  0
  -27.3776  -29.7275   25.4613 H   0  0  0  0  0  0
  -27.8659  -30.4369   23.9365 H   0  0  0  0  0  0
  -27.2668  -33.3632   26.2073 H   0  0  0  0  0  0
  -28.3817  -32.6868   25.0300 H   0  0  0  0  0  0
  -28.0627  -31.8381   26.5354 H   0  0  0  0  0  0
  -28.2609  -38.0103   24.7551 H   0  0  0  0  0  0
  -28.1071  -36.2651   24.6233 H   0  0  0  0  0  0
  -27.2287  -37.1405   25.8846 H   0  0  0  0  0  0
  -20.9280  -29.8897   21.6921 H   0  0  0  0  0  0
  -26.0179  -38.2892   24.1508 H   0  0  0  0  0  0
  -30.0575  -19.8077   22.2162 H   0  0  0  0  0  0
  -29.9190  -22.2635   22.3697 H   0  0  0  0  0  0
  -30.3615  -19.6155   15.7332 H   0  0  0  0  0  0
  -30.7524  -18.5338   17.0427 H   0  0  0  0  0  0
  -31.3835  -20.1755   17.0486 H   0  0  0  0  0  0
  -29.9773  -17.8673   18.9383 H   0  0  0  0  0  0
  -28.5917  -17.8486   19.9396 H   0  0  0  0  0  0
  -30.2275  -24.4958   19.5237 H   0  0  0  0  0  0
  -30.0662  -24.4563   21.2386 H   0  0  0  0  0  0
  -28.8327  -20.8792   16.9446 H   0  0  0  0  0  0
  -28.4670  -19.2984   17.5485 H   0  0  0  0  0  0
  -30.2778  -17.5162   21.9840 H   0  0  0  0  0  0
  -31.4916  -17.2905   20.7894 H   0  0  0  0  0  0
  -27.6000  -24.8232   21.0715 H   0  0  0  0  0  0
  -27.7110  -24.7197   19.3230 H   0  0  0  0  0  0
  -29.1202  -15.5024   21.3260 H   0  0  0  0  0  0
  1 25  1  0  0  0
  1 30  2  0  0  0
  1 83  1  0  0  0
  2  3  1  0  0  0
  2 25  1  0  0  0
  2 84  1  0  0  0
  2 85  1  0  0  0
  3  4  1  0  0  0
  3 86  1  0  0  0
  3 87  1  0  0  0
  4  5  1  0  0  0
  4 88  1  0  0  0
  4 89  1  0  0  0
  5  6  1  0  0  0
  5 26  1  0  0  0
  5 90  1  0  0  0
  6 25  1  0  0  0
  6 91  1  0  0  0
  6 92  1  0  0  0
  7  8  2  0  0  0
  7 26  1  0  0  0
  7 29  1  0  0  0
  8  9  1  0  0  0
  8 22  1  0  0  0
  9 10  1  0  0  0
  9 27  2  0  0  0
 10 11  2  0  0  0
 10 15  1  0  0  0
 11 12  1  0  0  0
 11 93  1  0  0  0
 12 13  2  0  0  0
 12 94  1  0  0  0
 13 14  1  0  0  0
 13 31  1  0  0  0
 14 15  2  0  0  0
 14 95  1  0  0  0
 15 96  1  0  0  0
 16 17  2  0  0  0
 16 21  1  0  0  0
 16 31  1  0  0  0
 17 18  1  0  0  0
 17 97  1  0  0  0
 18 19  2  0  0  0
 18 98  1  0  0  0
 19 20  1  0  0  0
 19 24  1  0  0  0
 20 21  2  0  0  0
 20 99  1  0  0  0
 21 23  1  0  0  0
 22 28  1  0  0  0
 22 32  2  0  0  0
 26 27  1  0  0  0
 28100  1  0  0  0
 28101  1  0  0  0
 29102  1  0  0  0
 29103  1  0  0  0
 33 34  1  0  0  0
 33 66  1  0  0  0
 33 70  2  0  0  0
 34 36  1  0  0  0
 34 59  1  0  0  0
 34104  1  0  0  0
 35 44  2  0  0  0
 35 45  1  0  0  0
 35 68  1  0  0  0
 36 56  1  0  0  0
 36105  1  0  0  0
 37 39  1  0  0  0
 37 47  1  0  0  0
 37 66  1  0  0  0
 37106  1  0  0  0
 38 43  2  0  0  0
 38 46  1  0  0  0
 38 47  1  0  0  0
 39 64  1  0  0  0
 39 67  2  0  0  0
 40 52  1  0  0  0
 40 53  2  0  0  0
 40 58  1  0  0  0
 41107  1  0  0  0
 41108  1  0  0  0
 41109  1  0  0  0
 41 48  1  0  0  0
 42 43  1  0  0  0
 42 66  1  0  0  0
 42110  1  0  0  0
 42111  1  0  0  0
 43 44  1  0  0  0
 44112  1  0  0  0
 45 46  2  0  0  0
 45113  1  0  0  0
 46114  1  0  0  0
 47115  1  0  0  0
 47116  1  0  0  0
 48 56  1  0  0  0
 48 65  1  0  0  0
 48117  1  0  0  0
 49 50  1  0  0  0
 49 53  1  0  0  0
 49 64  1  0  0  0
 49118  1  0  0  0
 50 51  1  0  0  0
 50119  1  0  0  0
 50120  1  0  0  0
 51 52  1  0  0  0
 51121  1  0  0  0
 51122  1  0  0  0
 52123  1  0  0  0
 52124  1  0  0  0
 53 54  1  0  0  0
 54 55  2  0  0  0
 54125  1  0  0  0
 55 57  1  0  0  0
 55126  1  0  0  0
 56 69  2  0  0  0
 57 58  2  0  0  0
 57127  1  0  0  0
 58128  1  0  0  0
 59 60  1  0  0  0
 59 61  1  0  0  0
 59 62  1  0  0  0
 60129  1  0  0  0
 60130  1  0  0  0
 60131  1  0  0  0
 61132  1  0  0  0
 61133  1  0  0  0
 61134  1  0  0  0
 62135  1  0  0  0
 62136  1  0  0  0
 62137  1  0  0  0
 63 65  1  0  0  0
 63138  1  0  0  0
 63139  1  0  0  0
 63140  1  0  0  0
 64141  1  0  0  0
 65142  1  0  0  0
 68 81  1  0  0  0
 71 72  2  0  0  0
 71 73  1  0  0  0
 71143  1  0  0  0
 72 74  1  0  0  0
 72144  1  0  0  0
 73 75  2  0  0  0
 73 77  1  0  0  0
 74 78  1  0  0  0
 74 82  2  0  0  0
 75 79  1  0  0  0
 75 82  1  0  0  0
 76 79  1  0  0  0
 76145  1  0  0  0
 76146  1  0  0  0
 76147  1  0  0  0
 77 80  1  0  0  0
 77148  1  0  0  0
 77149  1  0  0  0
 78 81  1  0  0  0
 78150  1  0  0  0
 78151  1  0  0  0
 79152  1  0  0  0
 79153  1  0  0  0
 80 83  1  0  0  0
 80154  1  0  0  0
 80155  1  0  0  0
 81156  1  0  0  0
 81157  1  0  0  0
 83158  1  0  0  0
M  ISO  4   1 100  68 101  81 101  83 100
M  END
> <chiral flag>
0

> <version>
0

> <s_m_source_file>
/data/baiqing/PycharmProjects/Reinvent-master-3.2/result/LINK_invent/BTK/process_docking_weight1_custom_sum_contain_oxygen_bond_distance_aromatic_linkinvent_7_9_3/rearranged_h_0080.sdf

> <i_m_source_file_index>
42

> <r_mmod_Potential_Energy-OPLS-2005>
-165.474151611328

> <r_mmod_Stretch_Energy-OPLS-2005>
85.0828170776367

> <r_mmod_Bend_Energy-OPLS-2005>
141.347595214844

> <r_mmod_Torsional_Energy-OPLS-2005>
195.314331054688

> <r_mmod_Improper_Torsional_Energy-OPLS-2005>
4.81888151168823

> <r_mmod_Van_der_Waal_Energy-OPLS-2005>
142.995986938477

> <r_mmod_Electrostatic_Energy-OPLS-2005>
-552.575439453125

> <r_mmod_Solvation_Energy-OPLS-2005>
-224.655288696289

> <b_mmod_Minimization_Converged-OPLS-2005>
0

> <r_mmod_RMS_Derivative-OPLS-2005>
6.5442066192627

$$$$
44
                    3D
 Structure written by MMmdl.
167175  0  0  1  0            999 V2000
  -30.6847  -14.4544   20.4949 C   0  0  0  0  0  0
  -30.4227  -12.2695   19.4383 C   0  0  0  0  0  0
  -29.5067  -12.4910   18.2160 C   0  0  0  0  0  0
  -28.0234  -12.3578   18.6179 C   0  0  0  0  0  0
  -27.6638  -13.1972   19.8741 C   0  0  2  0  0  0
  -28.7032  -12.9905   21.0031 C   0  0  0  0  0  0
  -25.2612  -13.8128   20.5671 C   0  0  0  0  0  0
  -24.1856  -13.0422   20.9174 C   0  0  0  0  0  0
  -24.6392  -11.6882   20.8736 C   0  0  0  0  0  0
  -23.9053  -10.4283   21.0404 C   0  0  0  0  0  0
  -24.3603   -9.4194   21.9178 C   0  0  0  0  0  0
  -23.6289   -8.2220   22.0744 C   0  0  0  0  0  0
  -22.4277   -8.0270   21.3530 C   0  0  0  0  0  0
  -21.9912   -9.0243   20.4632 C   0  0  0  0  0  0
  -22.7229  -10.2123   20.3041 C   0  0  0  0  0  0
  -21.6837   -6.0741   22.5279 C   0  0  0  0  0  0
  -21.3998   -6.5641   23.8215 C   0  0  0  0  0  0
  -21.3665   -5.6792   24.9179 C   0  0  0  0  0  0
  -21.6052   -4.3058   24.7223 C   0  0  0  0  0  0
  -21.8809   -3.8156   23.4331 C   0  0  0  0  0  0
  -21.9182   -4.6975   22.3396 C   0  0  0  0  0  0
  -22.7879  -13.5237   21.1845 C   0  0  0  0  0  0
  -22.1657   -4.2171   21.0972 F   0  0  0  0  0  0
  -21.5655   -3.4532   25.7728 F   0  0  0  0  0  0
  -30.0419  -13.2603   20.4512 N   0  0  0  0  0  0
  -26.3031  -12.9278   20.3342 N   0  0  0  0  0  0
  -25.9318  -11.6444   20.5755 N   0  0  0  0  0  0
  -22.0509  -12.8226   22.0396 N   0  0  0  0  0  0
  -25.4349  -15.1847   20.4082 N   0  0  0  0  0  0
  -31.8570  -14.6143   20.1517 O   0  0  0  0  0  0
  -21.6621   -6.8874   21.4240 O   0  0  0  0  0  0
  -22.3571  -14.5551   20.6718 O   0  0  0  0  0  0
  -24.6116  -31.8720   23.2166 C   0  0  0  0  0  0
  -25.9026  -32.4843   23.8448 C   0  0  1  0  0  0
  -27.2287  -27.4562   20.0829 C   0  0  0  0  0  0
  -25.5912  -33.8648   24.2379 N   0  0  0  0  0  0
  -23.3977  -30.4970   21.5606 C   0  0  2  0  0  0
  -24.8370  -28.9623   20.1192 C   0  0  0  0  0  0
  -22.7393  -29.4690   22.5066 C   0  0  0  0  0  0
  -18.0276  -28.1388   22.8492 C   0  0  0  0  0  0
  -24.1485  -36.7299   23.2641 C   0  0  0  0  0  0
  -25.9247  -30.8376   21.3697 C   0  0  0  0  0  0
  -25.9960  -29.4758   20.7122 C   0  0  0  0  0  0
  -27.1924  -28.7307   20.6866 C   0  0  0  0  0  0
  -26.0465  -26.9403   19.5018 C   0  0  0  0  0  0
  -24.8559  -27.6938   19.5129 C   0  0  0  0  0  0
  -23.5992  -29.8292   20.1732 C   0  0  0  0  0  0
  -25.4113  -36.3133   24.0353 C   0  0  1  0  0  0
  -20.5858  -28.3656   23.1336 C   0  0  2  0  0  0
  -20.6777  -26.9407   22.5418 C   0  0  0  0  0  0
  -19.5769  -26.6400   21.5207 C   0  0  0  0  0  0
  -18.1937  -26.7947   22.1605 C   0  0  0  0  0  0
  -19.1520  -28.8847   23.2905 C   0  0  0  0  0  0
  -18.9438  -30.1457   23.8914 C   0  0  0  0  0  0
  -17.6441  -30.6590   24.0566 C   0  0  0  0  0  0
  -25.9041  -34.9492   23.5164 C   0  0  0  0  0  0
  -16.5333  -29.9094   23.6324 C   0  0  0  0  0  0
  -16.7264  -28.6507   23.0347 C   0  0  0  0  0  0
  -26.4473  -31.6619   25.0774 C   0  0  0  0  0  0
  -25.3734  -31.3669   26.1513 C   0  0  0  0  0  0
  -27.0329  -30.3088   24.6121 C   0  0  0  0  0  0
  -27.6095  -32.4333   25.7474 C   0  0  0  0  0  0
  -27.5590  -37.1811   24.8474 C   0  0  0  0  0  0
  -21.4132  -29.3031   22.3758 N   0  0  0  0  0  0
  -26.4304  -37.3815   23.9423 N   0  0  0  0  0  0
  -24.6638  -31.0825   22.1075 N   0  0  0  0  0  0
  -23.4165  -28.8211   23.3087 O   0  0  0  0  0  0
  -28.4360  -26.7936   20.0659 O   0  0  0  0  0  0
  -26.5582  -34.8923   22.4714 O   0  0  0  0  0  0
  -23.5319  -32.1494   23.7554 O   0  0  0  0  0  0
  -27.9431  -21.9924   20.0191 C   0  0  0  0  0  0
  -29.5425  -21.1750   21.6331 C   0  0  0  0  0  0
  -28.7799  -22.2444   21.1266 C   0  0  0  0  0  0
  -27.8981  -20.6889   19.4912 C   0  0  0  0  0  0
  -29.4322  -19.8917   21.0541 C   0  0  0  0  0  0
  -27.0407  -20.3551   18.2892 C   0  0  0  0  0  0
  -31.1589  -19.0140   22.7397 C   0  0  0  0  0  0
  -30.2059  -16.5756   18.3660 C   0  0  0  0  0  0
  -28.8775  -23.5949   21.8267 C   0  0  0  0  0  0
  -27.9825  -24.7346   21.3043 C   0  0  0  0  0  0
  -30.8536  -17.8087   20.5356 C   0  0  0  0  0  0
  -28.4637  -25.3703   19.9836 C   0  0  0  0  0  0
  -30.1551  -18.6576   21.6273 C   0  0  2  0  0  0
  -29.9190  -16.7692   19.8713 C   0  0  2  0  0  0
  -28.6065  -19.6669   20.0092 N   0  0  0  0  0  0
  -29.8417  -15.4933   20.6011 N   0  0  0  0  0  0
  -31.4728  -12.3491   19.1520 H   0  0  0  0  0  0
  -30.2928  -11.2611   19.8352 H   0  0  0  0  0  0
  -29.7519  -11.7768   17.4293 H   0  0  0  0  0  0
  -29.6874  -13.4804   17.7938 H   0  0  0  0  0  0
  -27.8268  -11.3019   18.8084 H   0  0  0  0  0  0
  -27.3823  -12.6406   17.7824 H   0  0  0  0  0  0
  -27.6976  -14.2408   19.5624 H   0  0  0  0  0  0
  -28.6643  -11.9663   21.3791 H   0  0  0  0  0  0
  -28.4796  -13.6267   21.8615 H   0  0  0  0  0  0
  -25.2742   -9.5684   22.4761 H   0  0  0  0  0  0
  -24.0007   -7.4620   22.7466 H   0  0  0  0  0  0
  -21.0844   -8.8748   19.8944 H   0  0  0  0  0  0
  -22.3680  -10.9661   19.6164 H   0  0  0  0  0  0
  -21.1955   -7.6140   23.9728 H   0  0  0  0  0  0
  -21.1523   -6.0516   25.9090 H   0  0  0  0  0  0
  -22.0579   -2.7617   23.2818 H   0  0  0  0  0  0
  -22.4113  -11.9878   22.4777 H   0  0  0  0  0  0
  -21.1133  -13.1282   22.2607 H   0  0  0  0  0  0
  -24.6680  -15.8381   20.5246 H   0  0  0  0  0  0
  -26.2814  -15.6301   20.0787 H   0  0  0  0  0  0
  -26.7087  -32.5548   23.1198 H   0  0  0  0  0  0
  -25.0122  -33.9844   25.0559 H   0  0  0  0  0  0
  -22.6883  -31.3159   21.4283 H   0  0  0  0  0  0
  -23.3777  -35.9605   23.3332 H   0  0  0  0  0  0
  -24.3551  -36.8883   22.2047 H   0  0  0  0  0  0
  -23.7203  -37.6501   23.6624 H   0  0  0  0  0  0
  -26.0440  -31.6069   20.6056 H   0  0  0  0  0  0
  -26.8101  -30.8798   21.9916 H   0  0  0  0  0  0
  -28.0930  -29.1264   21.1348 H   0  0  0  0  0  0
  -26.0264  -25.9735   19.0218 H   0  0  0  0  0  0
  -23.9616  -27.3002   19.0498 H   0  0  0  0  0  0
  -23.7042  -30.6080   19.4183 H   0  0  0  0  0  0
  -22.7195  -29.2544   19.8775 H   0  0  0  0  0  0
  -25.1286  -36.2023   25.0849 H   0  0  0  0  0  0
  -20.9933  -28.3218   24.1464 H   0  0  0  0  0  0
  -20.5702  -26.2266   23.3591 H   0  0  0  0  0  0
  -21.6647  -26.7500   22.1192 H   0  0  0  0  0  0
  -19.6936  -25.6313   21.1239 H   0  0  0  0  0  0
  -19.6714  -27.3203   20.6731 H   0  0  0  0  0  0
  -17.4215  -26.6699   21.3993 H   0  0  0  0  0  0
  -18.0325  -26.0084   22.8994 H   0  0  0  0  0  0
  -19.7909  -30.7279   24.2285 H   0  0  0  0  0  0
  -17.4991  -31.6269   24.5176 H   0  0  0  0  0  0
  -15.5335  -30.2991   23.7670 H   0  0  0  0  0  0
  -15.8658  -28.0835   22.7063 H   0  0  0  0  0  0
  -24.5919  -30.7018   25.7804 H   0  0  0  0  0  0
  -24.8880  -32.2782   26.5022 H   0  0  0  0  0  0
  -25.8071  -30.8778   27.0241 H   0  0  0  0  0  0
  -26.2863  -29.6810   24.1235 H   0  0  0  0  0  0
  -27.4213  -29.7367   25.4556 H   0  0  0  0  0  0
  -27.8648  -30.4480   23.9208 H   0  0  0  0  0  0
  -27.2793  -33.3650   26.2077 H   0  0  0  0  0  0
  -28.3836  -32.6867   25.0215 H   0  0  0  0  0  0
  -28.0839  -31.8441   26.5332 H   0  0  0  0  0  0
  -28.2642  -38.0080   24.7539 H   0  0  0  0  0  0
  -28.1063  -36.2628   24.6300 H   0  0  0  0  0  0
  -27.2303  -37.1456   25.8873 H   0  0  0  0  0  0
  -20.9318  -29.8705   21.6919 H   0  0  0  0  0  0
  -26.0215  -38.2909   24.1409 H   0  0  0  0  0  0
  -27.3348  -22.7679   19.5778 H   0  0  0  0  0  0
  -30.1803  -21.3571   22.4857 H   0  0  0  0  0  0
  -26.0275  -20.7313   18.4228 H   0  0  0  0  0  0
  -26.9826  -19.2757   18.1356 H   0  0  0  0  0  0
  -27.4600  -20.8033   17.3877 H   0  0  0  0  0  0
  -30.6587  -19.4927   23.5809 H   0  0  0  0  0  0
  -31.9337  -19.6872   22.3708 H   0  0  0  0  0  0
  -31.6490  -18.1254   23.1330 H   0  0  0  0  0  0
  -30.0593  -17.5105   17.8230 H   0  0  0  0  0  0
  -29.5273  -15.8435   17.9240 H   0  0  0  0  0  0
  -31.2286  -16.2475   18.1790 H   0  0  0  0  0  0
  -29.9201  -23.9169   21.8232 H   0  0  0  0  0  0
  -28.6319  -23.4251   22.8758 H   0  0  0  0  0  0
  -28.0046  -25.5087   22.0722 H   0  0  0  0  0  0
  -26.9403  -24.4218   21.2406 H   0  0  0  0  0  0
  -31.7136  -17.2828   20.9499 H   0  0  0  0  0  0
  -31.2759  -18.4814   19.7879 H   0  0  0  0  0  0
  -27.9282  -24.9870   19.1163 H   0  0  0  0  0  0
  -29.5063  -25.1049   19.8106 H   0  0  0  0  0  0
  -29.3886  -18.0405   22.0989 H   0  0  0  0  0  0
  -28.9002  -17.1508   19.9064 H   0  0  0  0  0  0
  -28.9218  -15.2458   20.9336 H   0  0  0  0  0  0
  1 25  1  0  0  0
  1 30  2  0  0  0
  1 86  1  0  0  0
  2  3  1  0  0  0
  2 25  1  0  0  0
  2 87  1  0  0  0
  2 88  1  0  0  0
  3  4  1  0  0  0
  3 89  1  0  0  0
  3 90  1  0  0  0
  4  5  1  0  0  0
  4 91  1  0  0  0
  4 92  1  0  0  0
  5  6  1  0  0  0
  5 26  1  0  0  0
  5 93  1  0  0  0
  6 25  1  0  0  0
  6 94  1  0  0  0
  6 95  1  0  0  0
  7  8  2  0  0  0
  7 26  1  0  0  0
  7 29  1  0  0  0
  8  9  1  0  0  0
  8 22  1  0  0  0
  9 10  1  0  0  0
  9 27  2  0  0  0
 10 11  2  0  0  0
 10 15  1  0  0  0
 11 12  1  0  0  0
 11 96  1  0  0  0
 12 13  2  0  0  0
 12 97  1  0  0  0
 13 14  1  0  0  0
 13 31  1  0  0  0
 14 15  2  0  0  0
 14 98  1  0  0  0
 15 99  1  0  0  0
 16 17  2  0  0  0
 16 21  1  0  0  0
 16 31  1  0  0  0
 17 18  1  0  0  0
 17100  1  0  0  0
 18 19  2  0  0  0
 18101  1  0  0  0
 19 20  1  0  0  0
 19 24  1  0  0  0
 20 21  2  0  0  0
 20102  1  0  0  0
 21 23  1  0  0  0
 22 28  1  0  0  0
 22 32  2  0  0  0
 26 27  1  0  0  0
 28103  1  0  0  0
 28104  1  0  0  0
 29105  1  0  0  0
 29106  1  0  0  0
 33 34  1  0  0  0
 33 66  1  0  0  0
 33 70  2  0  0  0
 34 36  1  0  0  0
 34 59  1  0  0  0
 34107  1  0  0  0
 35 44  2  0  0  0
 35 45  1  0  0  0
 35 68  1  0  0  0
 36 56  1  0  0  0
 36108  1  0  0  0
 37 39  1  0  0  0
 37 47  1  0  0  0
 37 66  1  0  0  0
 37109  1  0  0  0
 38 43  2  0  0  0
 38 46  1  0  0  0
 38 47  1  0  0  0
 39 64  1  0  0  0
 39 67  2  0  0  0
 40 52  1  0  0  0
 40 53  2  0  0  0
 40 58  1  0  0  0
 41110  1  0  0  0
 41111  1  0  0  0
 41112  1  0  0  0
 41 48  1  0  0  0
 42 43  1  0  0  0
 42 66  1  0  0  0
 42113  1  0  0  0
 42114  1  0  0  0
 43 44  1  0  0  0
 44115  1  0  0  0
 45 46  2  0  0  0
 45116  1  0  0  0
 46117  1  0  0  0
 47118  1  0  0  0
 47119  1  0  0  0
 48 56  1  0  0  0
 48 65  1  0  0  0
 48120  1  0  0  0
 49 50  1  0  0  0
 49 53  1  0  0  0
 49 64  1  0  0  0
 49121  1  0  0  0
 50 51  1  0  0  0
 50122  1  0  0  0
 50123  1  0  0  0
 51 52  1  0  0  0
 51124  1  0  0  0
 51125  1  0  0  0
 52126  1  0  0  0
 52127  1  0  0  0
 53 54  1  0  0  0
 54 55  2  0  0  0
 54128  1  0  0  0
 55 57  1  0  0  0
 55129  1  0  0  0
 56 69  2  0  0  0
 57 58  2  0  0  0
 57130  1  0  0  0
 58131  1  0  0  0
 59 60  1  0  0  0
 59 61  1  0  0  0
 59 62  1  0  0  0
 60132  1  0  0  0
 60133  1  0  0  0
 60134  1  0  0  0
 61135  1  0  0  0
 61136  1  0  0  0
 61137  1  0  0  0
 62138  1  0  0  0
 62139  1  0  0  0
 62140  1  0  0  0
 63 65  1  0  0  0
 63141  1  0  0  0
 63142  1  0  0  0
 63143  1  0  0  0
 64144  1  0  0  0
 65145  1  0  0  0
 68 82  1  0  0  0
 71 73  2  0  0  0
 71 74  1  0  0  0
 71146  1  0  0  0
 72 73  1  0  0  0
 72 75  2  0  0  0
 72147  1  0  0  0
 73 79  1  0  0  0
 74 76  1  0  0  0
 74 85  2  0  0  0
 75 83  1  0  0  0
 75 85  1  0  0  0
 76148  1  0  0  0
 76149  1  0  0  0
 76150  1  0  0  0
 77151  1  0  0  0
 77152  1  0  0  0
 77153  1  0  0  0
 77 83  1  0  0  0
 78154  1  0  0  0
 78155  1  0  0  0
 78156  1  0  0  0
 78 84  1  0  0  0
 79 80  1  0  0  0
 79157  1  0  0  0
 79158  1  0  0  0
 80 82  1  0  0  0
 80159  1  0  0  0
 80160  1  0  0  0
 81 83  1  0  0  0
 81 84  1  0  0  0
 81161  1  0  0  0
 81162  1  0  0  0
 82163  1  0  0  0
 82164  1  0  0  0
 83165  1  0  0  0
 84 86  1  0  0  0
 84166  1  0  0  0
 86167  1  0  0  0
M  ISO  4   1 100  68 101  82 101  86 100
M  END
> <chiral flag>
0

> <version>
0

> <s_m_source_file>
/data/baiqing/PycharmProjects/Reinvent-master-3.2/result/LINK_invent/BTK/process_docking_weight1_custom_sum_contain_oxygen_bond_distance_aromatic_linkinvent_7_9_3/rearranged_h_0080.sdf

> <i_m_source_file_index>
43

> <r_mmod_Potential_Energy-OPLS-2005>
-201.546951293945

> <r_mmod_Stretch_Energy-OPLS-2005>
33.9301261901855

> <r_mmod_Bend_Energy-OPLS-2005>
107.778945922852

> <r_mmod_Torsional_Energy-OPLS-2005>
234.639465332031

> <r_mmod_Improper_Torsional_Energy-OPLS-2005>
10.8954753875732

> <r_mmod_Van_der_Waal_Energy-OPLS-2005>
162.047912597656

> <r_mmod_Electrostatic_Energy-OPLS-2005>
-560.925170898438

> <r_mmod_Solvation_Energy-OPLS-2005>
-204.906860351562

> <b_mmod_Minimization_Converged-OPLS-2005>
0

> <r_mmod_RMS_Derivative-OPLS-2005>
2.58257651329041

$$$$
45
                    3D
 Structure written by MMmdl.
170178  0  0  1  0            999 V2000
  -30.6872  -14.4507   20.5881 C   0  0  0  0  0  0
  -30.4299  -12.2880   19.4356 C   0  0  0  0  0  0
  -29.5096  -12.4883   18.2159 C   0  0  0  0  0  0
  -28.0254  -12.3583   18.6117 C   0  0  0  0  0  0
  -27.6626  -13.1996   19.8684 C   0  0  2  0  0  0
  -28.6939  -12.9613   20.9932 C   0  0  0  0  0  0
  -25.2613  -13.8163   20.5628 C   0  0  0  0  0  0
  -24.1845  -13.0476   20.9159 C   0  0  0  0  0  0
  -24.6367  -11.6926   20.8717 C   0  0  0  0  0  0
  -23.9027  -10.4319   21.0383 C   0  0  0  0  0  0
  -24.3600   -9.4248   21.9154 C   0  0  0  0  0  0
  -23.6292   -8.2268   22.0725 C   0  0  0  0  0  0
  -22.4276   -8.0267   21.3517 C   0  0  0  0  0  0
  -21.9901   -9.0240   20.4626 C   0  0  0  0  0  0
  -22.7209  -10.2140   20.3030 C   0  0  0  0  0  0
  -21.6850   -6.0739   22.5267 C   0  0  0  0  0  0
  -21.4019   -6.5632   23.8214 C   0  0  0  0  0  0
  -21.3684   -5.6778   24.9166 C   0  0  0  0  0  0
  -21.6031   -4.3032   24.7216 C   0  0  0  0  0  0
  -21.8831   -3.8144   23.4331 C   0  0  0  0  0  0
  -21.9205   -4.6966   22.3397 C   0  0  0  0  0  0
  -22.7879  -13.5276   21.1839 C   0  0  0  0  0  0
  -22.1655   -4.2153   21.0972 F   0  0  0  0  0  0
  -21.5646   -3.4509   25.7729 F   0  0  0  0  0  0
  -30.0316  -13.2678   20.4563 N   0  0  0  0  0  0
  -26.3011  -12.9296   20.3273 N   0  0  0  0  0  0
  -25.9281  -11.6472   20.5708 N   0  0  0  0  0  0
  -22.0488  -12.8302   22.0404 N   0  0  0  0  0  0
  -25.4382  -15.1877   20.4101 N   0  0  0  0  0  0
  -31.7931  -14.6729   20.0880 O   0  0  0  0  0  0
  -21.6631   -6.8867   21.4225 O   0  0  0  0  0  0
  -22.3566  -14.5544   20.6621 O   0  0  0  0  0  0
  -24.6118  -31.8653   23.2111 C   0  0  0  0  0  0
  -25.9030  -32.4789   23.8384 C   0  0  1  0  0  0
  -27.2553  -27.4533   20.0821 C   0  0  0  0  0  0
  -25.5882  -33.8593   24.2296 N   0  0  0  0  0  0
  -23.3997  -30.4884   21.5483 C   0  0  2  0  0  0
  -24.8507  -28.9508   20.1155 C   0  0  0  0  0  0
  -22.7376  -29.4645   22.4989 C   0  0  0  0  0  0
  -18.0252  -28.1379   22.8512 C   0  0  0  0  0  0
  -24.1467  -36.7301   23.2630 C   0  0  0  0  0  0
  -25.9235  -30.8331   21.3661 C   0  0  0  0  0  0
  -26.0056  -29.4683   20.7151 C   0  0  0  0  0  0
  -27.2024  -28.7199   20.7085 C   0  0  0  0  0  0
  -26.0743  -26.9363   19.5008 C   0  0  0  0  0  0
  -24.8782  -27.6807   19.5151 C   0  0  0  0  0  0
  -23.6105  -29.8153   20.1642 C   0  0  0  0  0  0
  -25.4084  -36.3078   24.0331 C   0  0  1  0  0  0
  -20.5837  -28.3653   23.1333 C   0  0  2  0  0  0
  -20.6746  -26.9402   22.5416 C   0  0  0  0  0  0
  -19.5723  -26.6394   21.5212 C   0  0  0  0  0  0
  -18.1907  -26.7919   22.1639 C   0  0  0  0  0  0
  -19.1501  -28.8829   23.2922 C   0  0  0  0  0  0
  -18.9443  -30.1440   23.8927 C   0  0  0  0  0  0
  -17.6450  -30.6590   24.0567 C   0  0  0  0  0  0
  -25.9022  -34.9452   23.5103 C   0  0  0  0  0  0
  -16.5342  -29.9105   23.6319 C   0  0  0  0  0  0
  -16.7239  -28.6515   23.0351 C   0  0  0  0  0  0
  -26.4501  -31.6575   25.0698 C   0  0  0  0  0  0
  -25.3779  -31.3741   26.1463 C   0  0  0  0  0  0
  -27.0313  -30.2979   24.6125 C   0  0  0  0  0  0
  -27.6067  -32.4309   25.7458 C   0  0  0  0  0  0
  -27.5574  -37.1772   24.8452 C   0  0  0  0  0  0
  -21.4100  -29.3026   22.3727 N   0  0  0  0  0  0
  -26.4259  -37.3791   23.9438 N   0  0  0  0  0  0
  -24.6610  -31.0760   22.1015 N   0  0  0  0  0  0
  -23.4146  -28.8183   23.3027 O   0  0  0  0  0  0
  -28.4589  -26.7741   20.1016 O   0  0  0  0  0  0
  -26.5593  -34.8927   22.4676 O   0  0  0  0  0  0
  -23.5315  -32.1414   23.7518 O   0  0  0  0  0  0
  -29.4217  -21.3402   20.0251 C   0  0  0  0  0  0
  -30.2411  -22.1490   19.2112 C   0  0  0  0  0  0
  -31.5646  -21.6928   18.9542 C   0  0  0  0  0  0
  -29.9209  -20.1439   20.5925 C   0  0  0  0  0  0
  -31.9889  -20.4958   19.5836 C   0  0  0  0  0  0
  -32.5376  -22.4250   18.0256 C   0  0  0  0  0  0
  -33.3814  -19.9209   19.3815 C   0  0  0  0  0  0
  -29.5526  -19.3207   22.9655 C   0  0  0  0  0  0
  -27.5900  -19.6593   21.4889 C   0  0  0  0  0  0
  -29.6398  -23.4392   18.6296 C   0  0  0  0  0  0
  -29.1854  -24.4687   19.6895 C   0  0  0  0  0  0
  -29.0753  -17.7268   21.0133 C   0  0  0  0  0  0
  -30.3186  -16.8393   21.3032 C   0  0  0  0  0  0
  -28.7867  -25.8288   19.0777 C   0  0  0  0  0  0
  -29.0747  -19.2174   21.4997 C   0  0  0  0  0  0
  -31.1968  -19.7633   20.3888 N   0  0  0  0  0  0
  -29.9797  -15.4129   21.2013 N   0  0  0  0  0  0
  -31.4764  -12.3914   19.1460 H   0  0  0  0  0  0
  -30.3279  -11.2749   19.8323 H   0  0  0  0  0  0
  -29.7587  -11.7590   17.4437 H   0  0  0  0  0  0
  -29.6891  -13.4743   17.7850 H   0  0  0  0  0  0
  -27.8322  -11.3038   18.8085 H   0  0  0  0  0  0
  -27.3891  -12.6328   17.7696 H   0  0  0  0  0  0
  -27.7089  -14.2491   19.5745 H   0  0  0  0  0  0
  -28.6642  -11.9186   21.3144 H   0  0  0  0  0  0
  -28.4430  -13.5448   21.8818 H   0  0  0  0  0  0
  -25.2745   -9.5732   22.4732 H   0  0  0  0  0  0
  -24.0013   -7.4670   22.7451 H   0  0  0  0  0  0
  -21.0824   -8.8744   19.8950 H   0  0  0  0  0  0
  -22.3628  -10.9669   19.6138 H   0  0  0  0  0  0
  -21.1968   -7.6138   23.9721 H   0  0  0  0  0  0
  -21.1503   -6.0495   25.9079 H   0  0  0  0  0  0
  -22.0588   -2.7607   23.2822 H   0  0  0  0  0  0
  -22.4046  -11.9969   22.4865 H   0  0  0  0  0  0
  -21.1086  -13.1327   22.2512 H   0  0  0  0  0  0
  -24.6796  -15.8505   20.5230 H   0  0  0  0  0  0
  -26.2954  -15.6232   20.0942 H   0  0  0  0  0  0
  -26.7078  -32.5532   23.1129 H   0  0  0  0  0  0
  -25.0030  -33.9755   25.0439 H   0  0  0  0  0  0
  -22.6887  -31.3046   21.4052 H   0  0  0  0  0  0
  -23.3755  -35.9601   23.3209 H   0  0  0  0  0  0
  -24.3595  -36.9017   22.2070 H   0  0  0  0  0  0
  -23.7175  -37.6457   23.6717 H   0  0  0  0  0  0
  -26.0293  -31.6015   20.6000 H   0  0  0  0  0  0
  -26.8138  -30.8895   21.9808 H   0  0  0  0  0  0
  -28.0930  -29.1144   21.1777 H   0  0  0  0  0  0
  -26.0521  -25.9537   19.0531 H   0  0  0  0  0  0
  -23.9856  -27.2682   19.0646 H   0  0  0  0  0  0
  -23.7177  -30.5874   19.4013 H   0  0  0  0  0  0
  -22.7376  -29.2305   19.8694 H   0  0  0  0  0  0
  -25.1257  -36.1918   25.0817 H   0  0  0  0  0  0
  -20.9931  -28.3211   24.1451 H   0  0  0  0  0  0
  -20.5654  -26.2256   23.3593 H   0  0  0  0  0  0
  -21.6618  -26.7460   22.1199 H   0  0  0  0  0  0
  -19.6892  -25.6312   21.1222 H   0  0  0  0  0  0
  -19.6655  -27.3221   20.6758 H   0  0  0  0  0  0
  -17.4169  -26.6651   21.4054 H   0  0  0  0  0  0
  -18.0338  -26.0055   22.9026 H   0  0  0  0  0  0
  -19.7929  -30.7242   24.2308 H   0  0  0  0  0  0
  -17.5015  -31.6279   24.5155 H   0  0  0  0  0  0
  -15.5346  -30.3026   23.7616 H   0  0  0  0  0  0
  -15.8636  -28.0841   22.7057 H   0  0  0  0  0  0
  -24.5909  -30.7117   25.7840 H   0  0  0  0  0  0
  -24.9029  -32.2926   26.4907 H   0  0  0  0  0  0
  -25.8132  -30.8916   27.0211 H   0  0  0  0  0  0
  -26.2839  -29.6709   24.1226 H   0  0  0  0  0  0
  -27.4079  -29.7271   25.4626 H   0  0  0  0  0  0
  -27.8695  -30.4236   23.9260 H   0  0  0  0  0  0
  -27.2693  -33.3662   26.1948 H   0  0  0  0  0  0
  -28.3937  -32.6773   25.0311 H   0  0  0  0  0  0
  -28.0645  -31.8462   26.5449 H   0  0  0  0  0  0
  -28.2529  -38.0134   24.7593 H   0  0  0  0  0  0
  -28.1128  -36.2669   24.6137 H   0  0  0  0  0  0
  -27.2314  -37.1257   25.8857 H   0  0  0  0  0  0
  -20.9232  -29.8755   21.6984 H   0  0  0  0  0  0
  -26.0126  -38.2831   24.1556 H   0  0  0  0  0  0
  -28.4047  -21.6602   20.1963 H   0  0  0  0  0  0
  -32.0707  -23.1222   17.3374 H   0  0  0  0  0  0
  -33.0705  -21.7199   17.3853 H   0  0  0  0  0  0
  -33.2837  -22.9701   18.6050 H   0  0  0  0  0  0
  -33.5752  -19.7234   18.3282 H   0  0  0  0  0  0
  -33.5043  -18.9731   19.9060 H   0  0  0  0  0  0
  -34.1395  -20.6082   19.7549 H   0  0  0  0  0  0
  -29.3844  -20.3183   23.3694 H   0  0  0  0  0  0
  -30.6195  -19.1216   23.0681 H   0  0  0  0  0  0
  -29.0191  -18.6150   23.6016 H   0  0  0  0  0  0
  -27.4557  -20.6575   21.9084 H   0  0  0  0  0  0
  -26.9654  -18.9949   22.0863 H   0  0  0  0  0  0
  -27.1846  -19.6648   20.4745 H   0  0  0  0  0  0
  -28.7836  -23.1580   18.0160 H   0  0  0  0  0  0
  -30.3158  -23.9432   17.9468 H   0  0  0  0  0  0
  -29.9995  -24.6291   20.3974 H   0  0  0  0  0  0
  -28.3511  -24.0660   20.2630 H   0  0  0  0  0  0
  -28.2313  -17.2273   21.4879 H   0  0  0  0  0  0
  -28.8629  -17.7034   19.9428 H   0  0  0  0  0  0
  -30.6897  -16.9963   22.3148 H   0  0  0  0  0  0
  -31.1326  -17.1010   20.6259 H   0  0  0  0  0  0
  -28.0232  -25.7032   18.3123 H   0  0  0  0  0  0
  -29.6484  -26.2371   18.5479 H   0  0  0  0  0  0
  -29.0963  -15.1194   21.5902 H   0  0  0  0  0  0
  1 25  1  0  0  0
  1 30  2  0  0  0
  1 87  1  0  0  0
  2  3  1  0  0  0
  2 25  1  0  0  0
  2 88  1  0  0  0
  2 89  1  0  0  0
  3  4  1  0  0  0
  3 90  1  0  0  0
  3 91  1  0  0  0
  4  5  1  0  0  0
  4 92  1  0  0  0
  4 93  1  0  0  0
  5  6  1  0  0  0
  5 26  1  0  0  0
  5 94  1  0  0  0
  6 25  1  0  0  0
  6 95  1  0  0  0
  6 96  1  0  0  0
  7  8  2  0  0  0
  7 26  1  0  0  0
  7 29  1  0  0  0
  8  9  1  0  0  0
  8 22  1  0  0  0
  9 10  1  0  0  0
  9 27  2  0  0  0
 10 11  2  0  0  0
 10 15  1  0  0  0
 11 12  1  0  0  0
 11 97  1  0  0  0
 12 13  2  0  0  0
 12 98  1  0  0  0
 13 14  1  0  0  0
 13 31  1  0  0  0
 14 15  2  0  0  0
 14 99  1  0  0  0
 15100  1  0  0  0
 16 17  2  0  0  0
 16 21  1  0  0  0
 16 31  1  0  0  0
 17 18  1  0  0  0
 17101  1  0  0  0
 18 19  2  0  0  0
 18102  1  0  0  0
 19 20  1  0  0  0
 19 24  1  0  0  0
 20 21  2  0  0  0
 20103  1  0  0  0
 21 23  1  0  0  0
 22 28  1  0  0  0
 22 32  2  0  0  0
 26 27  1  0  0  0
 28104  1  0  0  0
 28105  1  0  0  0
 29106  1  0  0  0
 29107  1  0  0  0
 33 34  1  0  0  0
 33 66  1  0  0  0
 33 70  2  0  0  0
 34 36  1  0  0  0
 34 59  1  0  0  0
 34108  1  0  0  0
 35 44  2  0  0  0
 35 45  1  0  0  0
 35 68  1  0  0  0
 36 56  1  0  0  0
 36109  1  0  0  0
 37 39  1  0  0  0
 37 47  1  0  0  0
 37 66  1  0  0  0
 37110  1  0  0  0
 38 43  2  0  0  0
 38 46  1  0  0  0
 38 47  1  0  0  0
 39 64  1  0  0  0
 39 67  2  0  0  0
 40 52  1  0  0  0
 40 53  2  0  0  0
 40 58  1  0  0  0
 41111  1  0  0  0
 41112  1  0  0  0
 41113  1  0  0  0
 41 48  1  0  0  0
 42 43  1  0  0  0
 42 66  1  0  0  0
 42114  1  0  0  0
 42115  1  0  0  0
 43 44  1  0  0  0
 44116  1  0  0  0
 45 46  2  0  0  0
 45117  1  0  0  0
 46118  1  0  0  0
 47119  1  0  0  0
 47120  1  0  0  0
 48 56  1  0  0  0
 48 65  1  0  0  0
 48121  1  0  0  0
 49 50  1  0  0  0
 49 53  1  0  0  0
 49 64  1  0  0  0
 49122  1  0  0  0
 50 51  1  0  0  0
 50123  1  0  0  0
 50124  1  0  0  0
 51 52  1  0  0  0
 51125  1  0  0  0
 51126  1  0  0  0
 52127  1  0  0  0
 52128  1  0  0  0
 53 54  1  0  0  0
 54 55  2  0  0  0
 54129  1  0  0  0
 55 57  1  0  0  0
 55130  1  0  0  0
 56 69  2  0  0  0
 57 58  2  0  0  0
 57131  1  0  0  0
 58132  1  0  0  0
 59 60  1  0  0  0
 59 61  1  0  0  0
 59 62  1  0  0  0
 60133  1  0  0  0
 60134  1  0  0  0
 60135  1  0  0  0
 61136  1  0  0  0
 61137  1  0  0  0
 61138  1  0  0  0
 62139  1  0  0  0
 62140  1  0  0  0
 62141  1  0  0  0
 63 65  1  0  0  0
 63142  1  0  0  0
 63143  1  0  0  0
 63144  1  0  0  0
 64145  1  0  0  0
 65146  1  0  0  0
 68 84  1  0  0  0
 71 72  2  0  0  0
 71 74  1  0  0  0
 71147  1  0  0  0
 72 73  1  0  0  0
 72 80  1  0  0  0
 73 75  2  0  0  0
 73 76  1  0  0  0
 74 85  1  0  0  0
 74 86  2  0  0  0
 75 77  1  0  0  0
 75 86  1  0  0  0
 76148  1  0  0  0
 76149  1  0  0  0
 76150  1  0  0  0
 77151  1  0  0  0
 77152  1  0  0  0
 77153  1  0  0  0
 78154  1  0  0  0
 78155  1  0  0  0
 78156  1  0  0  0
 78 85  1  0  0  0
 79 85  1  0  0  0
 79157  1  0  0  0
 79158  1  0  0  0
 79159  1  0  0  0
 80 81  1  0  0  0
 80160  1  0  0  0
 80161  1  0  0  0
 81 84  1  0  0  0
 81162  1  0  0  0
 81163  1  0  0  0
 82 83  1  0  0  0
 82 85  1  0  0  0
 82164  1  0  0  0
 82165  1  0  0  0
 83 87  1  0  0  0
 83166  1  0  0  0
 83167  1  0  0  0
 84168  1  0  0  0
 84169  1  0  0  0
 87170  1  0  0  0
M  ISO  4   1 100  68 101  84 101  87 100
M  END
> <chiral flag>
0

> <version>
0

> <s_m_source_file>
/data/baiqing/PycharmProjects/Reinvent-master-3.2/result/LINK_invent/BTK/process_docking_weight1_custom_sum_contain_oxygen_bond_distance_aromatic_linkinvent_7_9_3/rearranged_h_0080.sdf

> <i_m_source_file_index>
44

> <r_mmod_Potential_Energy-OPLS-2005>
-270.923187255859

> <r_mmod_Stretch_Energy-OPLS-2005>
40.7777709960938

> <r_mmod_Bend_Energy-OPLS-2005>
118.016082763672

> <r_mmod_Torsional_Energy-OPLS-2005>
194.823089599609

> <r_mmod_Improper_Torsional_Energy-OPLS-2005>
2.99028992652893

> <r_mmod_Van_der_Waal_Energy-OPLS-2005>
171.671157836914

> <r_mmod_Electrostatic_Energy-OPLS-2005>
-594.346130371094

> <r_mmod_Solvation_Energy-OPLS-2005>
-216.251388549805

> <b_mmod_Minimization_Converged-OPLS-2005>
0

> <r_mmod_RMS_Derivative-OPLS-2005>
3.89758229255676

$$$$
46
                    3D
 Structure written by MMmdl.
160168  0  0  1  0            999 V2000
  -30.5083  -14.7610   20.4316 C   0  0  0  0  0  0
  -30.3896  -12.4401   19.4658 C   0  0  0  0  0  0
  -29.4634  -12.4911   18.2285 C   0  0  0  0  0  0
  -27.9944  -12.3081   18.6513 C   0  0  0  0  0  0
  -27.6130  -13.2081   19.8560 C   0  0  2  0  0  0
  -28.6573  -13.1110   20.9859 C   0  0  0  0  0  0
  -25.2363  -13.8132   20.5681 C   0  0  0  0  0  0
  -24.1605  -13.0309   20.9247 C   0  0  0  0  0  0
  -24.6194  -11.6853   20.8805 C   0  0  0  0  0  0
  -23.8878  -10.4194   21.0447 C   0  0  0  0  0  0
  -24.3487   -9.4140   21.9208 C   0  0  0  0  0  0
  -23.6221   -8.2141   22.0744 C   0  0  0  0  0  0
  -22.4223   -8.0167   21.3522 C   0  0  0  0  0  0
  -21.9809   -9.0102   20.4639 C   0  0  0  0  0  0
  -22.7074  -10.2020   20.3073 C   0  0  0  0  0  0
  -21.6837   -6.0644   22.5237 C   0  0  0  0  0  0
  -21.3989   -6.5573   23.8147 C   0  0  0  0  0  0
  -21.3702   -5.6782   24.9146 C   0  0  0  0  0  0
  -21.6069   -4.3046   24.7234 C   0  0  0  0  0  0
  -21.8815   -3.8078   23.4374 C   0  0  0  0  0  0
  -21.9164   -4.6861   22.3401 C   0  0  0  0  0  0
  -22.7699  -13.5168   21.1937 C   0  0  0  0  0  0
  -22.1647   -4.2035   21.1007 F   0  0  0  0  0  0
  -21.5677   -3.4568   25.7770 F   0  0  0  0  0  0
  -29.9451  -13.5040   20.3994 N   0  0  0  0  0  0
  -26.2707  -12.9238   20.3386 N   0  0  0  0  0  0
  -25.9103  -11.6407   20.5856 N   0  0  0  0  0  0
  -22.0428  -12.8018   22.0561 N   0  0  0  0  0  0
  -25.4122  -15.1765   20.3970 N   0  0  0  0  0  0
  -31.6927  -14.9034   20.1032 O   0  0  0  0  0  0
  -21.6629   -6.8751   21.4191 O   0  0  0  0  0  0
  -22.3341  -14.5445   20.6866 O   0  0  0  0  0  0
  -24.6371  -31.8404   23.1880 C   0  0  0  0  0  0
  -25.9057  -32.4660   23.8418 C   0  0  1  0  0  0
  -27.1790  -27.1770   20.0829 C   0  0  0  0  0  0
  -25.5790  -33.8509   24.2317 N   0  0  0  0  0  0
  -23.4431  -30.4856   21.5229 C   0  0  2  0  0  0
  -24.8814  -28.9208   20.1012 C   0  0  0  0  0  0
  -22.7506  -29.4660   22.4629 C   0  0  0  0  0  0
  -18.0345  -28.1167   22.8198 C   0  0  0  0  0  0
  -24.1521  -36.7429   23.2723 C   0  0  0  0  0  0
  -26.0097  -30.7187   21.3968 C   0  0  0  0  0  0
  -26.0633  -29.3450   20.7167 C   0  0  0  0  0  0
  -27.2254  -28.4866   20.6906 C   0  0  0  0  0  0
  -25.9197  -26.8059   19.5706 C   0  0  0  0  0  0
  -24.8185  -27.6609   19.5046 C   0  0  0  0  0  0
  -23.6552  -29.8045   20.1478 C   0  0  0  0  0  0
  -25.4087  -36.3164   24.0422 C   0  0  1  0  0  0
  -20.5946  -28.3636   23.0847 C   0  0  2  0  0  0
  -20.6817  -26.9284   22.5137 C   0  0  0  0  0  0
  -19.5895  -26.6148   21.4904 C   0  0  0  0  0  0
  -18.2067  -26.7642   22.1371 C   0  0  0  0  0  0
  -19.1590  -28.8696   23.2518 C   0  0  0  0  0  0
  -18.9590  -30.1295   23.8537 C   0  0  0  0  0  0
  -17.6624  -30.6372   24.0446 C   0  0  0  0  0  0
  -25.8980  -34.9454   23.5219 C   0  0  0  0  0  0
  -16.5489  -29.8845   23.6313 C   0  0  0  0  0  0
  -16.7342  -28.6301   23.0177 C   0  0  0  0  0  0
  -26.4348  -31.6580   25.0930 C   0  0  0  0  0  0
  -25.3452  -31.3463   26.1528 C   0  0  0  0  0  0
  -27.0362  -30.3026   24.6687 C   0  0  0  0  0  0
  -27.6065  -32.4308   25.7359 C   0  0  0  0  0  0
  -27.5536  -37.1869   24.8398 C   0  0  0  0  0  0
  -21.4222  -29.3090   22.3294 N   0  0  0  0  0  0
  -26.4267  -37.3838   23.9352 N   0  0  0  0  0  0
  -24.7184  -31.0391   22.0862 N   0  0  0  0  0  0
  -23.4134  -28.8144   23.2740 O   0  0  0  0  0  0
  -28.2700  -26.2561   19.9727 O   0  0  0  0  0  0
  -26.5658  -34.8907   22.4861 O   0  0  0  0  0  0
  -23.5497  -32.1234   23.7080 O   0  0  0  0  0  0
  -28.4319  -21.9045   22.0665 C   0  0  0  0  0  0
  -28.3018  -20.8893   22.9908 C   0  0  0  0  0  0
  -28.9218  -19.9375   21.0768 C   0  0  0  0  0  0
  -27.9924  -20.7475   24.4261 C   0  0  0  0  0  0
  -27.6037  -24.9037   17.9321 C   0  0  0  0  0  0
  -29.1714  -18.6225   20.2613 C   0  0  0  0  0  0
  -29.3281  -23.7868   19.5924 C   0  0  0  0  0  0
  -29.1338  -22.1160   19.5647 C   0  0  0  0  0  0
  -30.0296  -17.3496   20.8839 C   0  0  0  0  0  0
  -28.0907  -24.8323   19.4154 C   0  0  1  0  0  0
  -28.8300  -21.3245   20.8587 N   0  0  0  0  0  0
  -28.5361  -19.7396   22.3314 N   0  3  0  0  0  0
  -29.6779  -15.8604   20.6644 N   0  0  0  0  0  0
  -31.4357  -12.5470   19.1823 H   0  0  0  0  0  0
  -30.3082  -11.4626   19.9461 H   0  0  0  0  0  0
  -29.7350  -11.7200   17.5060 H   0  0  0  0  0  0
  -29.5700  -13.4490   17.7182 H   0  0  0  0  0  0
  -27.8503  -11.2598   18.9219 H   0  0  0  0  0  0
  -27.3174  -12.4923   17.8168 H   0  0  0  0  0  0
  -27.6103  -14.2298   19.4836 H   0  0  0  0  0  0
  -28.7047  -12.0874   21.3617 H   0  0  0  0  0  0
  -28.3928  -13.7348   21.8407 H   0  0  0  0  0  0
  -25.2611   -9.5647   22.4810 H   0  0  0  0  0  0
  -23.9947   -7.4524   22.7436 H   0  0  0  0  0  0
  -21.0758   -8.8545   19.8943 H   0  0  0  0  0  0
  -22.3466  -10.9542   19.6195 H   0  0  0  0  0  0
  -21.1973   -7.6082   23.9591 H   0  0  0  0  0  0
  -21.1589   -6.0571   25.9056 H   0  0  0  0  0  0
  -22.0576   -2.7533   23.2918 H   0  0  0  0  0  0
  -22.4167  -11.9629   22.4708 H   0  0  0  0  0  0
  -21.1099  -13.0981   22.3055 H   0  0  0  0  0  0
  -24.6316  -15.8286   20.4139 H   0  0  0  0  0  0
  -26.2363  -15.5603   19.9497 H   0  0  0  0  0  0
  -26.7157  -32.5257   23.1189 H   0  0  0  0  0  0
  -24.9854  -33.9632   25.0420 H   0  0  0  0  0  0
  -22.7614  -31.3242   21.3602 H   0  0  0  0  0  0
  -23.3724  -35.9821   23.3360 H   0  0  0  0  0  0
  -24.3718  -36.9026   22.2160 H   0  0  0  0  0  0
  -23.7346  -37.6692   23.6680 H   0  0  0  0  0  0
  -26.2067  -31.4689   20.6301 H   0  0  0  0  0  0
  -26.8692  -30.7317   22.0586 H   0  0  0  0  0  0
  -28.1493  -28.7915   21.1697 H   0  0  0  0  0  0
  -25.7137  -25.8268   19.1855 H   0  0  0  0  0  0
  -23.9156  -27.3086   19.0273 H   0  0  0  0  0  0
  -23.7079  -30.5477   19.3497 H   0  0  0  0  0  0
  -22.7844  -29.1896   19.9016 H   0  0  0  0  0  0
  -25.1283  -36.2172   25.0941 H   0  0  0  0  0  0
  -21.0123  -28.3264   24.0911 H   0  0  0  0  0  0
  -20.5396  -26.2353   23.3419 H   0  0  0  0  0  0
  -21.6743  -26.7009   22.1197 H   0  0  0  0  0  0
  -19.7161  -25.6016   21.1018 H   0  0  0  0  0  0
  -19.6839  -27.2817   20.6313 H   0  0  0  0  0  0
  -17.4297  -26.6084   21.3853 H   0  0  0  0  0  0
  -18.0736  -25.9740   22.8777 H   0  0  0  0  0  0
  -19.8171  -30.7120   24.1586 H   0  0  0  0  0  0
  -17.5276  -31.5990   24.5176 H   0  0  0  0  0  0
  -15.5507  -30.2732   23.7774 H   0  0  0  0  0  0
  -15.8707  -28.0684   22.6859 H   0  0  0  0  0  0
  -24.5809  -30.6726   25.7634 H   0  0  0  0  0  0
  -24.8333  -32.2370   26.5189 H   0  0  0  0  0  0
  -25.7644  -30.8415   27.0235 H   0  0  0  0  0  0
  -26.3129  -29.6529   24.1777 H   0  0  0  0  0  0
  -27.3976  -29.7652   25.5479 H   0  0  0  0  0  0
  -27.8957  -30.4334   24.0111 H   0  0  0  0  0  0
  -27.3029  -33.3776   26.1771 H   0  0  0  0  0  0
  -28.3583  -32.6512   24.9785 H   0  0  0  0  0  0
  -28.0944  -31.8486   26.5156 H   0  0  0  0  0  0
  -28.2544  -38.0184   24.7502 H   0  0  0  0  0  0
  -28.1017  -36.2732   24.6104 H   0  0  0  0  0  0
  -27.2235  -37.1376   25.8790 H   0  0  0  0  0  0
  -20.9386  -29.9032   21.6700 H   0  0  0  0  0  0
  -26.0212  -38.2965   24.1257 H   0  0  0  0  0  0
  -28.2732  -22.9699   22.2513 H   0  0  0  0  0  0
  -27.2475  -19.9473   24.5427 H   0  0  0  0  0  0
  -27.6260  -21.6901   24.8283 H   0  0  0  0  0  0
  -28.9178  -20.4341   24.9238 H   0  0  0  0  0  0
  -26.8310  -24.1470   17.7477 H   0  0  0  0  0  0
  -28.3722  -24.8016   17.1726 H   0  0  0  0  0  0
  -27.1550  -25.8651   17.6800 H   0  0  0  0  0  0
  -29.6513  -18.9929   19.3567 H   0  0  0  0  0  0
  -28.1492  -18.3230   20.0077 H   0  0  0  0  0  0
  -30.0914  -24.0686   18.7895 H   0  0  0  0  0  0
  -29.7906  -24.0604   20.5841 H   0  0  0  0  0  0
  -30.1902  -21.8445   19.4659 H   0  0  0  0  0  0
  -28.7502  -21.5351   18.6772 H   0  0  0  0  0  0
  -30.1153  -17.4476   21.9710 H   0  0  0  0  0  0
  -31.0503  -17.4843   20.5252 H   0  0  0  0  0  0
  -27.2604  -24.3398   19.9243 H   0  0  0  0  0  0
  -28.4147  -18.8334   22.7622 H   0  0  0  0  0  0
  -28.7172  -15.6123   20.8755 H   0  0  0  0  0  0
  1 25  1  0  0  0
  1 30  2  0  0  0
  1 83  1  0  0  0
  2  3  1  0  0  0
  2 25  1  0  0  0
  2 84  1  0  0  0
  2 85  1  0  0  0
  3  4  1  0  0  0
  3 86  1  0  0  0
  3 87  1  0  0  0
  4  5  1  0  0  0
  4 88  1  0  0  0
  4 89  1  0  0  0
  5  6  1  0  0  0
  5 26  1  0  0  0
  5 90  1  0  0  0
  6 25  1  0  0  0
  6 91  1  0  0  0
  6 92  1  0  0  0
  7  8  2  0  0  0
  7 26  1  0  0  0
  7 29  1  0  0  0
  8  9  1  0  0  0
  8 22  1  0  0  0
  9 10  1  0  0  0
  9 27  2  0  0  0
 10 11  2  0  0  0
 10 15  1  0  0  0
 11 12  1  0  0  0
 11 93  1  0  0  0
 12 13  2  0  0  0
 12 94  1  0  0  0
 13 14  1  0  0  0
 13 31  1  0  0  0
 14 15  2  0  0  0
 14 95  1  0  0  0
 15 96  1  0  0  0
 16 17  2  0  0  0
 16 21  1  0  0  0
 16 31  1  0  0  0
 17 18  1  0  0  0
 17 97  1  0  0  0
 18 19  2  0  0  0
 18 98  1  0  0  0
 19 20  1  0  0  0
 19 24  1  0  0  0
 20 21  2  0  0  0
 20 99  1  0  0  0
 21 23  1  0  0  0
 22 28  1  0  0  0
 22 32  2  0  0  0
 26 27  1  0  0  0
 28100  1  0  0  0
 28101  1  0  0  0
 29102  1  0  0  0
 29103  1  0  0  0
 33 34  1  0  0  0
 33 66  1  0  0  0
 33 70  2  0  0  0
 34 36  1  0  0  0
 34 59  1  0  0  0
 34104  1  0  0  0
 35 44  2  0  0  0
 35 45  1  0  0  0
 35 68  1  0  0  0
 36 56  1  0  0  0
 36105  1  0  0  0
 37 39  1  0  0  0
 37 47  1  0  0  0
 37 66  1  0  0  0
 37106  1  0  0  0
 38 43  2  0  0  0
 38 46  1  0  0  0
 38 47  1  0  0  0
 39 64  1  0  0  0
 39 67  2  0  0  0
 40 52  1  0  0  0
 40 53  2  0  0  0
 40 58  1  0  0  0
 41107  1  0  0  0
 41108  1  0  0  0
 41109  1  0  0  0
 41 48  1  0  0  0
 42 43  1  0  0  0
 42 66  1  0  0  0
 42110  1  0  0  0
 42111  1  0  0  0
 43 44  1  0  0  0
 44112  1  0  0  0
 45 46  2  0  0  0
 45113  1  0  0  0
 46114  1  0  0  0
 47115  1  0  0  0
 47116  1  0  0  0
 48 56  1  0  0  0
 48 65  1  0  0  0
 48117  1  0  0  0
 49 50  1  0  0  0
 49 53  1  0  0  0
 49 64  1  0  0  0
 49118  1  0  0  0
 50 51  1  0  0  0
 50119  1  0  0  0
 50120  1  0  0  0
 51 52  1  0  0  0
 51121  1  0  0  0
 51122  1  0  0  0
 52123  1  0  0  0
 52124  1  0  0  0
 53 54  1  0  0  0
 54 55  2  0  0  0
 54125  1  0  0  0
 55 57  1  0  0  0
 55126  1  0  0  0
 56 69  2  0  0  0
 57 58  2  0  0  0
 57127  1  0  0  0
 58128  1  0  0  0
 59 60  1  0  0  0
 59 61  1  0  0  0
 59 62  1  0  0  0
 60129  1  0  0  0
 60130  1  0  0  0
 60131  1  0  0  0
 61132  1  0  0  0
 61133  1  0  0  0
 61134  1  0  0  0
 62135  1  0  0  0
 62136  1  0  0  0
 62137  1  0  0  0
 63 65  1  0  0  0
 63138  1  0  0  0
 63139  1  0  0  0
 63140  1  0  0  0
 64141  1  0  0  0
 65142  1  0  0  0
 68 80  1  0  0  0
 71 72  2  0  0  0
 71 81  1  0  0  0
 71143  1  0  0  0
 72 74  1  0  0  0
 72 82  1  0  0  0
 73 76  1  0  0  0
 73 81  1  0  0  0
 73 82  2  0  0  0
 74144  1  0  0  0
 74145  1  0  0  0
 74146  1  0  0  0
 75147  1  0  0  0
 75148  1  0  0  0
 75149  1  0  0  0
 75 80  1  0  0  0
 76 79  1  0  0  0
 76150  1  0  0  0
 76151  1  0  0  0
 77 78  1  0  0  0
 77 80  1  0  0  0
 77152  1  0  0  0
 77153  1  0  0  0
 78 81  1  0  0  0
 78154  1  0  0  0
 78155  1  0  0  0
 79 83  1  0  0  0
 79156  1  0  0  0
 79157  1  0  0  0
 80158  1  0  0  0
 82159  1  0  0  0
 83160  1  0  0  0
M  CHG  1  82   1
M  ISO  4   1 100  68 101  80 101  83 100
M  END
> <chiral flag>
0

> <version>
0

> <s_m_source_file>
/data/baiqing/PycharmProjects/Reinvent-master-3.2/result/LINK_invent/BTK/process_docking_weight1_custom_sum_contain_oxygen_bond_distance_aromatic_linkinvent_7_9_3/rearranged_h_0080.sdf

> <i_m_source_file_index>
45

> <r_mmod_Potential_Energy-OPLS-2005>
315.001892089844

> <r_mmod_Stretch_Energy-OPLS-2005>
192.513320922852

> <r_mmod_Bend_Energy-OPLS-2005>
252.297561645508

> <r_mmod_Torsional_Energy-OPLS-2005>
245.572998046875

> <r_mmod_Improper_Torsional_Energy-OPLS-2005>
5.67551469802856

> <r_mmod_Van_der_Waal_Energy-OPLS-2005>
130.857894897461

> <r_mmod_Electrostatic_Energy-OPLS-2005>
-203.686981201172

> <r_mmod_Solvation_Energy-OPLS-2005>
-430.963928222656

> <b_mmod_Minimization_Converged-OPLS-2005>
0

> <r_mmod_RMS_Derivative-OPLS-2005>
33.0139541625977

$$$$
47
                    3D
 Structure written by MMmdl.
161169  0  0  1  0            999 V2000
  -30.6565  -14.5275   20.5409 C   0  0  0  0  0  0
  -30.4327  -12.3319   19.4258 C   0  0  0  0  0  0
  -29.4992  -12.5268   18.2098 C   0  0  0  0  0  0
  -28.0237  -12.3692   18.6253 C   0  0  0  0  0  0
  -27.6661  -13.2055   19.8818 C   0  0  2  0  0  0
  -28.7097  -12.9825   21.0029 C   0  0  0  0  0  0
  -25.2598  -13.8161   20.5625 C   0  0  0  0  0  0
  -24.1831  -13.0439   20.9119 C   0  0  0  0  0  0
  -24.6392  -11.6907   20.8685 C   0  0  0  0  0  0
  -23.9057  -10.4290   21.0357 C   0  0  0  0  0  0
  -24.3620   -9.4240   21.9149 C   0  0  0  0  0  0
  -23.6295   -8.2288   22.0782 C   0  0  0  0  0  0
  -22.4277   -8.0300   21.3570 C   0  0  0  0  0  0
  -21.9891   -9.0258   20.4674 C   0  0  0  0  0  0
  -22.7210  -10.2135   20.3036 C   0  0  0  0  0  0
  -21.6894   -6.0719   22.5291 C   0  0  0  0  0  0
  -21.4040   -6.5631   23.8213 C   0  0  0  0  0  0
  -21.3636   -5.6794   24.9178 C   0  0  0  0  0  0
  -21.6045   -4.3060   24.7250 C   0  0  0  0  0  0
  -21.8831   -3.8139   23.4379 C   0  0  0  0  0  0
  -21.9214   -4.6941   22.3421 C   0  0  0  0  0  0
  -22.7863  -13.5244   21.1804 C   0  0  0  0  0  0
  -22.1679   -4.2110   21.1009 F   0  0  0  0  0  0
  -21.5607   -3.4559   25.7771 F   0  0  0  0  0  0
  -30.0406  -13.3107   20.4582 N   0  0  0  0  0  0
  -26.3044  -12.9327   20.3360 N   0  0  0  0  0  0
  -25.9332  -11.6491   20.5751 N   0  0  0  0  0  0
  -22.0539  -12.8218   22.0371 N   0  0  0  0  0  0
  -25.4329  -15.1878   20.4037 N   0  0  0  0  0  0
  -31.7517  -14.7438   20.0227 O   0  0  0  0  0  0
  -21.6679   -6.8864   21.4257 O   0  0  0  0  0  0
  -22.3527  -14.5566   20.6686 O   0  0  0  0  0  0
  -24.6152  -31.8643   23.2110 C   0  0  0  0  0  0
  -25.9034  -32.4797   23.8410 C   0  0  1  0  0  0
  -27.2252  -27.4015   20.1102 C   0  0  0  0  0  0
  -25.5881  -33.8600   24.2343 N   0  0  0  0  0  0
  -23.4057  -30.4874   21.5501 C   0  0  2  0  0  0
  -24.8560  -28.9537   20.1102 C   0  0  0  0  0  0
  -22.7419  -29.4620   22.4984 C   0  0  0  0  0  0
  -18.0263  -28.1337   22.8494 C   0  0  0  0  0  0
  -24.1474  -36.7341   23.2645 C   0  0  0  0  0  0
  -25.9388  -30.8202   21.3696 C   0  0  0  0  0  0
  -26.0169  -29.4539   20.7141 C   0  0  0  0  0  0
  -27.2087  -28.6862   20.7074 C   0  0  0  0  0  0
  -26.0529  -26.9261   19.4857 C   0  0  0  0  0  0
  -24.8716  -27.6931   19.4879 C   0  0  0  0  0  0
  -23.6174  -29.8217   20.1637 C   0  0  0  0  0  0
  -25.4090  -36.3103   24.0344 C   0  0  1  0  0  0
  -20.5858  -28.3624   23.1318 C   0  0  2  0  0  0
  -20.6739  -26.9352   22.5413 C   0  0  0  0  0  0
  -19.5730  -26.6354   21.5190 C   0  0  0  0  0  0
  -18.1908  -26.7896   22.1607 C   0  0  0  0  0  0
  -19.1513  -28.8801   23.2899 C   0  0  0  0  0  0
  -18.9441  -30.1412   23.8895 C   0  0  0  0  0  0
  -17.6437  -30.6554   24.0541 C   0  0  0  0  0  0
  -25.9019  -34.9460   23.5145 C   0  0  0  0  0  0
  -16.5326  -29.9039   23.6317 C   0  0  0  0  0  0
  -16.7247  -28.6452   23.0353 C   0  0  0  0  0  0
  -26.4468  -31.6586   25.0756 C   0  0  0  0  0  0
  -25.3754  -31.3666   26.1523 C   0  0  0  0  0  0
  -27.0331  -30.3028   24.6180 C   0  0  0  0  0  0
  -27.6045  -32.4323   25.7510 C   0  0  0  0  0  0
  -27.5574  -37.1816   24.8456 C   0  0  0  0  0  0
  -21.4141  -29.3001   22.3733 N   0  0  0  0  0  0
  -26.4275  -37.3789   23.9415 N   0  0  0  0  0  0
  -24.6718  -31.0724   22.1013 N   0  0  0  0  0  0
  -23.4185  -28.8138   23.3012 O   0  0  0  0  0  0
  -28.3525  -26.6006   20.1281 O   0  0  0  0  0  0
  -26.5575  -34.8902   22.4709 O   0  0  0  0  0  0
  -23.5345  -32.1401   23.7504 O   0  0  0  0  0  0
  -30.0211  -19.4647   20.7542 C   0  0  0  0  0  0
  -30.1170  -20.6045   21.5410 C   0  0  0  0  0  0
  -30.8938  -20.8848   22.7949 C   0  0  0  0  0  0
  -31.4729  -17.8305   22.1183 C   0  0  0  0  0  0
  -31.7023  -18.0069   19.6354 C   0  0  0  0  0  0
  -28.8219  -24.0850   20.3338 C   0  0  0  0  0  0
  -28.8734  -22.9126   21.3745 C   0  0  0  0  0  0
  -29.6271  -16.9064   20.6656 C   0  0  0  0  0  0
  -28.2290  -25.4046   20.9404 C   0  0  0  0  0  0
  -30.6960  -18.0591   20.8057 C   0  0  0  0  0  0
  -29.1783  -19.8038   19.6872 N   0  0  0  0  0  0
  -28.7450  -21.0263   19.8071 N   0  0  0  0  0  0
  -29.3024  -21.5628   20.9179 N   0  0  0  0  0  0
  -29.9028  -15.5029   21.0965 N   0  0  0  0  0  0
  -31.4761  -12.4378   19.1247 H   0  0  0  0  0  0
  -30.3457  -11.3169   19.8162 H   0  0  0  0  0  0
  -29.7452  -11.8188   17.4166 H   0  0  0  0  0  0
  -29.6513  -13.5214   17.7866 H   0  0  0  0  0  0
  -27.8491  -11.3118   18.8283 H   0  0  0  0  0  0
  -27.3675  -12.6314   17.7957 H   0  0  0  0  0  0
  -27.7119  -14.2532   19.5875 H   0  0  0  0  0  0
  -28.6944  -11.9418   21.3315 H   0  0  0  0  0  0
  -28.4624  -13.5646   21.8917 H   0  0  0  0  0  0
  -25.2776   -9.5746   22.4696 H   0  0  0  0  0  0
  -24.0031   -7.4696   22.7519 H   0  0  0  0  0  0
  -21.0816   -8.8760   19.8971 H   0  0  0  0  0  0
  -22.3662  -10.9658   19.6136 H   0  0  0  0  0  0
  -21.2069   -7.6144   23.9701 H   0  0  0  0  0  0
  -21.1414   -6.0529   25.9063 H   0  0  0  0  0  0
  -22.0627   -2.7597   23.2913 H   0  0  0  0  0  0
  -22.4202  -11.9858   22.4675 H   0  0  0  0  0  0
  -21.1173  -13.1234   22.2632 H   0  0  0  0  0  0
  -24.6767  -15.8519   20.5279 H   0  0  0  0  0  0
  -26.2981  -15.6214   20.1021 H   0  0  0  0  0  0
  -26.7106  -32.5497   23.1169 H   0  0  0  0  0  0
  -24.9990  -33.9757   25.0461 H   0  0  0  0  0  0
  -22.6935  -31.3041   21.4107 H   0  0  0  0  0  0
  -23.3710  -35.9701   23.3297 H   0  0  0  0  0  0
  -24.3565  -36.8987   22.2063 H   0  0  0  0  0  0
  -23.7255  -37.6557   23.6673 H   0  0  0  0  0  0
  -26.0557  -31.5885   20.6044 H   0  0  0  0  0  0
  -26.8232  -30.8729   21.9917 H   0  0  0  0  0  0
  -28.1037  -29.0627   21.1827 H   0  0  0  0  0  0
  -26.0532  -25.9561   19.0082 H   0  0  0  0  0  0
  -23.9820  -27.3116   19.0040 H   0  0  0  0  0  0
  -23.7202  -30.5990   19.4045 H   0  0  0  0  0  0
  -22.7413  -29.2418   19.8661 H   0  0  0  0  0  0
  -25.1255  -36.1968   25.0835 H   0  0  0  0  0  0
  -20.9937  -28.3158   24.1443 H   0  0  0  0  0  0
  -20.5588  -26.2209   23.3592 H   0  0  0  0  0  0
  -21.6612  -26.7347   22.1232 H   0  0  0  0  0  0
  -19.6875  -25.6264   21.1217 H   0  0  0  0  0  0
  -19.6684  -27.3167   20.6728 H   0  0  0  0  0  0
  -17.4170  -26.6643   21.4011 H   0  0  0  0  0  0
  -18.0308  -26.0016   22.8987 H   0  0  0  0  0  0
  -19.7903  -30.7235   24.2269 H   0  0  0  0  0  0
  -17.4975  -31.6242   24.5130 H   0  0  0  0  0  0
  -15.5317  -30.2928   23.7661 H   0  0  0  0  0  0
  -15.8652  -28.0769   22.7080 H   0  0  0  0  0  0
  -24.5909  -30.7028   25.7867 H   0  0  0  0  0  0
  -24.8954  -32.2802   26.5045 H   0  0  0  0  0  0
  -25.8140  -30.8784   27.0238 H   0  0  0  0  0  0
  -26.2899  -29.6752   24.1249 H   0  0  0  0  0  0
  -27.4095  -29.7303   25.4672 H   0  0  0  0  0  0
  -27.8730  -30.4343   23.9354 H   0  0  0  0  0  0
  -27.2650  -33.3587   26.2154 H   0  0  0  0  0  0
  -28.3806  -32.6953   25.0309 H   0  0  0  0  0  0
  -28.0766  -31.8413   26.5369 H   0  0  0  0  0  0
  -28.2569  -38.0127   24.7486 H   0  0  0  0  0  0
  -28.1080  -36.2655   24.6269 H   0  0  0  0  0  0
  -27.2293  -37.1464   25.8856 H   0  0  0  0  0  0
  -20.9292  -29.8759   21.7007 H   0  0  0  0  0  0
  -26.0162  -38.2871   24.1411 H   0  0  0  0  0  0
  -30.8044  -20.0752   23.5173 H   0  0  0  0  0  0
  -30.5524  -21.7795   23.3113 H   0  0  0  0  0  0
  -31.9505  -21.0293   22.5621 H   0  0  0  0  0  0
  -32.2629  -18.5674   22.2526 H   0  0  0  0  0  0
  -31.9573  -16.8541   22.1434 H   0  0  0  0  0  0
  -30.8049  -17.8737   22.9784 H   0  0  0  0  0  0
  -32.4070  -18.8380   19.6991 H   0  0  0  0  0  0
  -31.1954  -18.0881   18.6728 H   0  0  0  0  0  0
  -32.2928  -17.0948   19.6131 H   0  0  0  0  0  0
  -28.2207  -23.7942   19.4739 H   0  0  0  0  0  0
  -29.8293  -24.2807   19.9627 H   0  0  0  0  0  0
  -27.8811  -22.7940   21.8120 H   0  0  0  0  0  0
  -29.5152  -23.2380   22.1883 H   0  0  0  0  0  0
  -29.2257  -16.8915   19.6509 H   0  0  0  0  0  0
  -28.7824  -17.1886   21.2943 H   0  0  0  0  0  0
  -28.7257  -25.6208   21.8869 H   0  0  0  0  0  0
  -27.1885  -25.2176   21.2127 H   0  0  0  0  0  0
  -29.1393  -15.1169   21.6305 H   0  0  0  0  0  0
  1 25  1  0  0  0
  1 30  2  0  0  0
  1 84  1  0  0  0
  2  3  1  0  0  0
  2 25  1  0  0  0
  2 85  1  0  0  0
  2 86  1  0  0  0
  3  4  1  0  0  0
  3 87  1  0  0  0
  3 88  1  0  0  0
  4  5  1  0  0  0
  4 89  1  0  0  0
  4 90  1  0  0  0
  5  6  1  0  0  0
  5 26  1  0  0  0
  5 91  1  0  0  0
  6 25  1  0  0  0
  6 92  1  0  0  0
  6 93  1  0  0  0
  7  8  2  0  0  0
  7 26  1  0  0  0
  7 29  1  0  0  0
  8  9  1  0  0  0
  8 22  1  0  0  0
  9 10  1  0  0  0
  9 27  2  0  0  0
 10 11  2  0  0  0
 10 15  1  0  0  0
 11 12  1  0  0  0
 11 94  1  0  0  0
 12 13  2  0  0  0
 12 95  1  0  0  0
 13 14  1  0  0  0
 13 31  1  0  0  0
 14 15  2  0  0  0
 14 96  1  0  0  0
 15 97  1  0  0  0
 16 17  2  0  0  0
 16 21  1  0  0  0
 16 31  1  0  0  0
 17 18  1  0  0  0
 17 98  1  0  0  0
 18 19  2  0  0  0
 18 99  1  0  0  0
 19 20  1  0  0  0
 19 24  1  0  0  0
 20 21  2  0  0  0
 20100  1  0  0  0
 21 23  1  0  0  0
 22 28  1  0  0  0
 22 32  2  0  0  0
 26 27  1  0  0  0
 28101  1  0  0  0
 28102  1  0  0  0
 29103  1  0  0  0
 29104  1  0  0  0
 33 34  1  0  0  0
 33 66  1  0  0  0
 33 70  2  0  0  0
 34 36  1  0  0  0
 34 59  1  0  0  0
 34105  1  0  0  0
 35 44  2  0  0  0
 35 45  1  0  0  0
 35 68  1  0  0  0
 36 56  1  0  0  0
 36106  1  0  0  0
 37 39  1  0  0  0
 37 47  1  0  0  0
 37 66  1  0  0  0
 37107  1  0  0  0
 38 43  2  0  0  0
 38 46  1  0  0  0
 38 47  1  0  0  0
 39 64  1  0  0  0
 39 67  2  0  0  0
 40 52  1  0  0  0
 40 53  2  0  0  0
 40 58  1  0  0  0
 41108  1  0  0  0
 41109  1  0  0  0
 41110  1  0  0  0
 41 48  1  0  0  0
 42 43  1  0  0  0
 42 66  1  0  0  0
 42111  1  0  0  0
 42112  1  0  0  0
 43 44  1  0  0  0
 44113  1  0  0  0
 45 46  2  0  0  0
 45114  1  0  0  0
 46115  1  0  0  0
 47116  1  0  0  0
 47117  1  0  0  0
 48 56  1  0  0  0
 48 65  1  0  0  0
 48118  1  0  0  0
 49 50  1  0  0  0
 49 53  1  0  0  0
 49 64  1  0  0  0
 49119  1  0  0  0
 50 51  1  0  0  0
 50120  1  0  0  0
 50121  1  0  0  0
 51 52  1  0  0  0
 51122  1  0  0  0
 51123  1  0  0  0
 52124  1  0  0  0
 52125  1  0  0  0
 53 54  1  0  0  0
 54 55  2  0  0  0
 54126  1  0  0  0
 55 57  1  0  0  0
 55127  1  0  0  0
 56 69  2  0  0  0
 57 58  2  0  0  0
 57128  1  0  0  0
 58129  1  0  0  0
 59 60  1  0  0  0
 59 61  1  0  0  0
 59 62  1  0  0  0
 60130  1  0  0  0
 60131  1  0  0  0
 60132  1  0  0  0
 61133  1  0  0  0
 61134  1  0  0  0
 61135  1  0  0  0
 62136  1  0  0  0
 62137  1  0  0  0
 62138  1  0  0  0
 63 65  1  0  0  0
 63139  1  0  0  0
 63140  1  0  0  0
 63141  1  0  0  0
 64142  1  0  0  0
 65143  1  0  0  0
 68 79  1  0  0  0
 71 72  2  0  0  0
 71 80  1  0  0  0
 71 81  1  0  0  0
 72 73  1  0  0  0
 72 83  1  0  0  0
 73144  1  0  0  0
 73145  1  0  0  0
 73146  1  0  0  0
 74147  1  0  0  0
 74148  1  0  0  0
 74149  1  0  0  0
 74 80  1  0  0  0
 75 80  1  0  0  0
 75150  1  0  0  0
 75151  1  0  0  0
 75152  1  0  0  0
 76 77  1  0  0  0
 76 79  1  0  0  0
 76153  1  0  0  0
 76154  1  0  0  0
 77 83  1  0  0  0
 77155  1  0  0  0
 77156  1  0  0  0
 78 80  1  0  0  0
 78 84  1  0  0  0
 78157  1  0  0  0
 78158  1  0  0  0
 79159  1  0  0  0
 79160  1  0  0  0
 81 82  2  0  0  0
 82 83  1  0  0  0
 84161  1  0  0  0
M  ISO  4   1 100  68 101  79 101  84 100
M  END
> <chiral flag>
0

> <version>
0

> <s_m_source_file>
/data/baiqing/PycharmProjects/Reinvent-master-3.2/result/LINK_invent/BTK/process_docking_weight1_custom_sum_contain_oxygen_bond_distance_aromatic_linkinvent_7_9_3/rearranged_h_0080.sdf

> <i_m_source_file_index>
46

> <r_mmod_Potential_Energy-OPLS-2005>
-59.3457069396973

> <r_mmod_Stretch_Energy-OPLS-2005>
54.9451179504395

> <r_mmod_Bend_Energy-OPLS-2005>
131.534027099609

> <r_mmod_Torsional_Energy-OPLS-2005>
248.626754760742

> <r_mmod_Improper_Torsional_Energy-OPLS-2005>
6.25323438644409

> <r_mmod_Van_der_Waal_Energy-OPLS-2005>
125.308776855469

> <r_mmod_Electrostatic_Energy-OPLS-2005>
-436.718688964844

> <r_mmod_Solvation_Energy-OPLS-2005>
-209.825454711914

> <b_mmod_Minimization_Converged-OPLS-2005>
0

> <r_mmod_RMS_Derivative-OPLS-2005>
3.65500330924988

$$$$
48
                    3D
 Structure written by MMmdl.
166174  0  0  1  0            999 V2000
  -30.6524  -14.5567   20.5902 C   0  0  0  0  0  0
  -30.4275  -12.3625   19.4516 C   0  0  0  0  0  0
  -29.5096  -12.5251   18.2221 C   0  0  0  0  0  0
  -28.0301  -12.3572   18.6240 C   0  0  0  0  0  0
  -27.6514  -13.2163   19.8623 C   0  0  2  0  0  0
  -28.6833  -13.0323   20.9972 C   0  0  0  0  0  0
  -25.2509  -13.8170   20.5643 C   0  0  0  0  0  0
  -24.1795  -13.0430   20.9204 C   0  0  0  0  0  0
  -24.6372  -11.6907   20.8722 C   0  0  0  0  0  0
  -23.9052  -10.4286   21.0392 C   0  0  0  0  0  0
  -24.3612   -9.4200   21.9160 C   0  0  0  0  0  0
  -23.6293   -8.2228   22.0718 C   0  0  0  0  0  0
  -22.4270   -8.0270   21.3521 C   0  0  0  0  0  0
  -21.9905   -9.0235   20.4618 C   0  0  0  0  0  0
  -22.7227  -10.2121   20.3039 C   0  0  0  0  0  0
  -21.6842   -6.0740   22.5275 C   0  0  0  0  0  0
  -21.4002   -6.5632   23.8217 C   0  0  0  0  0  0
  -21.3669   -5.6778   24.9177 C   0  0  0  0  0  0
  -21.6048   -4.3040   24.7213 C   0  0  0  0  0  0
  -21.8819   -3.8148   23.4331 C   0  0  0  0  0  0
  -21.9185   -4.6973   22.3398 C   0  0  0  0  0  0
  -22.7830  -13.5220   21.1893 C   0  0  0  0  0  0
  -22.1653   -4.2162   21.0973 F   0  0  0  0  0  0
  -21.5647   -3.4523   25.7723 F   0  0  0  0  0  0
  -30.0107  -13.3602   20.4551 N   0  0  0  0  0  0
  -26.2942  -12.9358   20.3242 N   0  0  0  0  0  0
  -25.9288  -11.6510   20.5688 N   0  0  0  0  0  0
  -22.0447  -12.8212   22.0454 N   0  0  0  0  0  0
  -25.4191  -15.1870   20.4026 N   0  0  0  0  0  0
  -31.7910  -14.7404   20.1458 O   0  0  0  0  0  0
  -21.6624   -6.8873   21.4237 O   0  0  0  0  0  0
  -22.3508  -14.5513   20.6727 O   0  0  0  0  0  0
  -24.6219  -31.8619   23.2037 C   0  0  0  0  0  0
  -25.9108  -32.4775   23.8352 C   0  0  1  0  0  0
  -27.2096  -27.3649   20.1522 C   0  0  0  0  0  0
  -25.5984  -33.8581   24.2314 N   0  0  0  0  0  0
  -23.4105  -30.4875   21.5430 C   0  0  2  0  0  0
  -24.8540  -28.9426   20.1104 C   0  0  0  0  0  0
  -22.7449  -29.4659   22.4953 C   0  0  0  0  0  0
  -18.0287  -28.1374   22.8484 C   0  0  0  0  0  0
  -24.1486  -36.7282   23.2636 C   0  0  0  0  0  0
  -25.9413  -30.8184   21.3555 C   0  0  0  0  0  0
  -26.0160  -29.4428   20.7132 C   0  0  0  0  0  0
  -27.1987  -28.6636   20.7241 C   0  0  0  0  0  0
  -26.0392  -26.8948   19.5247 C   0  0  0  0  0  0
  -24.8670  -27.6763   19.5012 C   0  0  0  0  0  0
  -23.6194  -29.8167   20.1572 C   0  0  0  0  0  0
  -25.4102  -36.3082   24.0344 C   0  0  1  0  0  0
  -20.5885  -28.3676   23.1301 C   0  0  2  0  0  0
  -20.6763  -26.9403   22.5410 C   0  0  0  0  0  0
  -19.5742  -26.6384   21.5205 C   0  0  0  0  0  0
  -18.1932  -26.7923   22.1610 C   0  0  0  0  0  0
  -19.1540  -28.8840   23.2888 C   0  0  0  0  0  0
  -18.9469  -30.1453   23.8891 C   0  0  0  0  0  0
  -17.6464  -30.6578   24.0572 C   0  0  0  0  0  0
  -25.9047  -34.9452   23.5108 C   0  0  0  0  0  0
  -16.5361  -29.9093   23.6325 C   0  0  0  0  0  0
  -16.7279  -28.6499   23.0343 C   0  0  0  0  0  0
  -26.4521  -31.6549   25.0678 C   0  0  0  0  0  0
  -25.3829  -31.3680   26.1469 C   0  0  0  0  0  0
  -27.0306  -30.2988   24.6027 C   0  0  0  0  0  0
  -27.6107  -32.4248   25.7440 C   0  0  0  0  0  0
  -27.5557  -37.1790   24.8492 C   0  0  0  0  0  0
  -21.4163  -29.3052   22.3700 N   0  0  0  0  0  0
  -26.4271  -37.3777   23.9426 N   0  0  0  0  0  0
  -24.6771  -31.0716   22.0929 N   0  0  0  0  0  0
  -23.4201  -28.8207   23.2997 O   0  0  0  0  0  0
  -28.3413  -26.5718   20.1700 O   0  0  0  0  0  0
  -26.5550  -34.8918   22.4636 O   0  0  0  0  0  0
  -23.5401  -32.1375   23.7421 O   0  0  0  0  0  0
  -28.1217  -21.5297   21.1119 C   0  0  0  0  0  0
  -28.6410  -22.7183   20.5239 C   0  0  0  0  0  0
  -28.9226  -20.3522   21.0713 C   0  0  0  0  0  0
  -30.5631  -21.5577   20.0212 C   0  0  0  0  0  0
  -32.0048  -21.5872   19.5693 C   0  0  0  0  0  0
  -27.5675  -18.2725   20.4779 C   0  0  0  0  0  0
  -30.5544  -18.6967   23.0644 C   0  0  0  0  0  0
  -28.7578  -17.0328   23.2224 C   0  0  0  0  0  0
  -27.8272  -24.0185   20.2545 C   0  0  0  0  0  0
  -30.2886  -17.0227   21.1568 C   0  0  0  0  0  0
  -28.2977  -25.3402   20.9600 C   0  0  0  0  0  0
  -28.4514  -18.9458   21.5425 C   0  0  1  0  0  0
  -29.5079  -17.9331   22.2041 C   0  0  0  0  0  0
  -29.8858  -22.7033   20.0066 N   0  0  0  0  0  0
  -30.1138  -20.3908   20.4529 N   0  0  0  0  0  0
  -29.9135  -15.5801   21.0938 N   0  0  0  0  0  0
  -31.4761  -12.4738   19.1668 H   0  0  0  0  0  0
  -30.3372  -11.3569   19.8637 H   0  0  0  0  0  0
  -29.7795  -11.7999   17.4525 H   0  0  0  0  0  0
  -29.6625  -13.5126   17.7804 H   0  0  0  0  0  0
  -27.8714  -11.3015   18.8468 H   0  0  0  0  0  0
  -27.3781  -12.5907   17.7808 H   0  0  0  0  0  0
  -27.6800  -14.2591   19.5415 H   0  0  0  0  0  0
  -28.6735  -12.0020   21.3516 H   0  0  0  0  0  0
  -28.4208  -13.6416   21.8630 H   0  0  0  0  0  0
  -25.2760   -9.5682   22.4727 H   0  0  0  0  0  0
  -24.0011   -7.4615   22.7422 H   0  0  0  0  0  0
  -21.0839   -8.8757   19.8921 H   0  0  0  0  0  0
  -22.3683  -10.9659   19.6147 H   0  0  0  0  0  0
  -21.1971   -7.6132   23.9737 H   0  0  0  0  0  0
  -21.1504   -6.0490   25.9084 H   0  0  0  0  0  0
  -22.0591   -2.7607   23.2819 H   0  0  0  0  0  0
  -22.4039  -11.9893   22.4910 H   0  0  0  0  0  0
  -21.1050  -13.1236   22.2610 H   0  0  0  0  0  0
  -24.6442  -15.8345   20.4910 H   0  0  0  0  0  0
  -26.2534  -15.6171   20.0270 H   0  0  0  0  0  0
  -26.7177  -32.5493   23.1113 H   0  0  0  0  0  0
  -25.0303  -33.9721   25.0581 H   0  0  0  0  0  0
  -22.7031  -31.3077   21.3992 H   0  0  0  0  0  0
  -23.3723  -35.9640   23.3346 H   0  0  0  0  0  0
  -24.3607  -36.8822   22.2045 H   0  0  0  0  0  0
  -23.7238  -37.6516   23.6585 H   0  0  0  0  0  0
  -26.0504  -31.5753   20.5770 H   0  0  0  0  0  0
  -26.8308  -30.8806   21.9707 H   0  0  0  0  0  0
  -28.0960  -29.0426   21.1943 H   0  0  0  0  0  0
  -26.0274  -25.9192   19.0603 H   0  0  0  0  0  0
  -23.9800  -27.2911   19.0184 H   0  0  0  0  0  0
  -23.7287  -30.5889   19.3935 H   0  0  0  0  0  0
  -22.7403  -29.2409   19.8597 H   0  0  0  0  0  0
  -25.1258  -36.1949   25.0822 H   0  0  0  0  0  0
  -20.9973  -28.3235   24.1417 H   0  0  0  0  0  0
  -20.5659  -26.2285   23.3603 H   0  0  0  0  0  0
  -21.6639  -26.7433   22.1206 H   0  0  0  0  0  0
  -19.6908  -25.6306   21.1217 H   0  0  0  0  0  0
  -19.6681  -27.3218   20.6750 H   0  0  0  0  0  0
  -17.4198  -26.6702   21.4019 H   0  0  0  0  0  0
  -18.0315  -26.0072   22.8987 H   0  0  0  0  0  0
  -19.7962  -30.7268   24.2242 H   0  0  0  0  0  0
  -17.5036  -31.6258   24.5182 H   0  0  0  0  0  0
  -15.5365  -30.2979   23.7654 H   0  0  0  0  0  0
  -15.8685  -28.0827   22.7032 H   0  0  0  0  0  0
  -24.6082  -30.6882   25.7912 H   0  0  0  0  0  0
  -24.8933  -32.2823   26.4819 H   0  0  0  0  0  0
  -25.8265  -30.9019   27.0278 H   0  0  0  0  0  0
  -26.2789  -29.6770   24.1144 H   0  0  0  0  0  0
  -27.4151  -29.7202   25.4432 H   0  0  0  0  0  0
  -27.8613  -30.4285   23.9084 H   0  0  0  0  0  0
  -27.2751  -33.3581   26.1973 H   0  0  0  0  0  0
  -28.3955  -32.6735   25.0280 H   0  0  0  0  0  0
  -28.0729  -31.8386   26.5395 H   0  0  0  0  0  0
  -28.2627  -38.0033   24.7445 H   0  0  0  0  0  0
  -28.0966  -36.2552   24.6390 H   0  0  0  0  0  0
  -27.2276  -37.1552   25.8899 H   0  0  0  0  0  0
  -20.9314  -29.8831   21.6984 H   0  0  0  0  0  0
  -26.0163  -38.2852   24.1410 H   0  0  0  0  0  0
  -27.1178  -21.5051   21.5213 H   0  0  0  0  0  0
  -32.0806  -21.7151   18.4910 H   0  0  0  0  0  0
  -32.5177  -20.6620   19.8365 H   0  0  0  0  0  0
  -32.5335  -22.4031   20.0603 H   0  0  0  0  0  0
  -26.6626  -18.8523   20.2957 H   0  0  0  0  0  0
  -27.2524  -17.2801   20.7944 H   0  0  0  0  0  0
  -28.0897  -18.1708   19.5268 H   0  0  0  0  0  0
  -31.2251  -18.0059   23.5761 H   0  0  0  0  0  0
  -30.0807  -19.3015   23.8399 H   0  0  0  0  0  0
  -31.1964  -19.3558   22.4839 H   0  0  0  0  0  0
  -29.4414  -16.3471   23.7268 H   0  0  0  0  0  0
  -27.9798  -16.4311   22.7548 H   0  0  0  0  0  0
  -28.2695  -17.6255   23.9969 H   0  0  0  0  0  0
  -26.7734  -23.8459   20.4748 H   0  0  0  0  0  0
  -27.8642  -24.1827   19.1800 H   0  0  0  0  0  0
  -31.3574  -17.0682   21.3724 H   0  0  0  0  0  0
  -30.2049  -17.4495   20.1568 H   0  0  0  0  0  0
  -29.3215  -25.1886   21.2997 H   0  0  0  0  0  0
  -27.7215  -25.4895   21.8746 H   0  0  0  0  0  0
  -27.7753  -19.2015   22.3598 H   0  0  0  0  0  0
  -28.9733  -15.3535   21.3799 H   0  0  0  0  0  0
  1 25  1  0  0  0
  1 30  2  0  0  0
  1 86  1  0  0  0
  2  3  1  0  0  0
  2 25  1  0  0  0
  2 87  1  0  0  0
  2 88  1  0  0  0
  3  4  1  0  0  0
  3 89  1  0  0  0
  3 90  1  0  0  0
  4  5  1  0  0  0
  4 91  1  0  0  0
  4 92  1  0  0  0
  5  6  1  0  0  0
  5 26  1  0  0  0
  5 93  1  0  0  0
  6 25  1  0  0  0
  6 94  1  0  0  0
  6 95  1  0  0  0
  7  8  2  0  0  0
  7 26  1  0  0  0
  7 29  1  0  0  0
  8  9  1  0  0  0
  8 22  1  0  0  0
  9 10  1  0  0  0
  9 27  2  0  0  0
 10 11  2  0  0  0
 10 15  1  0  0  0
 11 12  1  0  0  0
 11 96  1  0  0  0
 12 13  2  0  0  0
 12 97  1  0  0  0
 13 14  1  0  0  0
 13 31  1  0  0  0
 14 15  2  0  0  0
 14 98  1  0  0  0
 15 99  1  0  0  0
 16 17  2  0  0  0
 16 21  1  0  0  0
 16 31  1  0  0  0
 17 18  1  0  0  0
 17100  1  0  0  0
 18 19  2  0  0  0
 18101  1  0  0  0
 19 20  1  0  0  0
 19 24  1  0  0  0
 20 21  2  0  0  0
 20102  1  0  0  0
 21 23  1  0  0  0
 22 28  1  0  0  0
 22 32  2  0  0  0
 26 27  1  0  0  0
 28103  1  0  0  0
 28104  1  0  0  0
 29105  1  0  0  0
 29106  1  0  0  0
 33 34  1  0  0  0
 33 66  1  0  0  0
 33 70  2  0  0  0
 34 36  1  0  0  0
 34 59  1  0  0  0
 34107  1  0  0  0
 35 44  2  0  0  0
 35 45  1  0  0  0
 35 68  1  0  0  0
 36 56  1  0  0  0
 36108  1  0  0  0
 37 39  1  0  0  0
 37 47  1  0  0  0
 37 66  1  0  0  0
 37109  1  0  0  0
 38 43  2  0  0  0
 38 46  1  0  0  0
 38 47  1  0  0  0
 39 64  1  0  0  0
 39 67  2  0  0  0
 40 52  1  0  0  0
 40 53  2  0  0  0
 40 58  1  0  0  0
 41110  1  0  0  0
 41111  1  0  0  0
 41112  1  0  0  0
 41 48  1  0  0  0
 42 43  1  0  0  0
 42 66  1  0  0  0
 42113  1  0  0  0
 42114  1  0  0  0
 43 44  1  0  0  0
 44115  1  0  0  0
 45 46  2  0  0  0
 45116  1  0  0  0
 46117  1  0  0  0
 47118  1  0  0  0
 47119  1  0  0  0
 48 56  1  0  0  0
 48 65  1  0  0  0
 48120  1  0  0  0
 49 50  1  0  0  0
 49 53  1  0  0  0
 49 64  1  0  0  0
 49121  1  0  0  0
 50 51  1  0  0  0
 50122  1  0  0  0
 50123  1  0  0  0
 51 52  1  0  0  0
 51124  1  0  0  0
 51125  1  0  0  0
 52126  1  0  0  0
 52127  1  0  0  0
 53 54  1  0  0  0
 54 55  2  0  0  0
 54128  1  0  0  0
 55 57  1  0  0  0
 55129  1  0  0  0
 56 69  2  0  0  0
 57 58  2  0  0  0
 57130  1  0  0  0
 58131  1  0  0  0
 59 60  1  0  0  0
 59 61  1  0  0  0
 59 62  1  0  0  0
 60132  1  0  0  0
 60133  1  0  0  0
 60134  1  0  0  0
 61135  1  0  0  0
 61136  1  0  0  0
 61137  1  0  0  0
 62138  1  0  0  0
 62139  1  0  0  0
 62140  1  0  0  0
 63 65  1  0  0  0
 63141  1  0  0  0
 63142  1  0  0  0
 63143  1  0  0  0
 64144  1  0  0  0
 65145  1  0  0  0
 68 81  1  0  0  0
 71 72  2  0  0  0
 71 73  1  0  0  0
 71146  1  0  0  0
 72 79  1  0  0  0
 72 84  1  0  0  0
 73 82  1  0  0  0
 73 85  2  0  0  0
 74 75  1  0  0  0
 74 84  2  0  0  0
 74 85  1  0  0  0
 75147  1  0  0  0
 75148  1  0  0  0
 75149  1  0  0  0
 76150  1  0  0  0
 76151  1  0  0  0
 76152  1  0  0  0
 76 82  1  0  0  0
 77153  1  0  0  0
 77154  1  0  0  0
 77155  1  0  0  0
 77 83  1  0  0  0
 78 83  1  0  0  0
 78156  1  0  0  0
 78157  1  0  0  0
 78158  1  0  0  0
 79 81  1  0  0  0
 79159  1  0  0  0
 79160  1  0  0  0
 80 83  1  0  0  0
 80 86  1  0  0  0
 80161  1  0  0  0
 80162  1  0  0  0
 81163  1  0  0  0
 81164  1  0  0  0
 82 83  1  0  0  0
 82165  1  0  0  0
 86166  1  0  0  0
M  ISO  4   1 100  68 101  81 101  86 100
M  END
> <chiral flag>
0

> <version>
0

> <s_m_source_file>
/data/baiqing/PycharmProjects/Reinvent-master-3.2/result/LINK_invent/BTK/process_docking_weight1_custom_sum_contain_oxygen_bond_distance_aromatic_linkinvent_7_9_3/rearranged_h_0080.sdf

> <i_m_source_file_index>
47

> <r_mmod_Potential_Energy-OPLS-2005>
-378.589111328125

> <r_mmod_Stretch_Energy-OPLS-2005>
62.275390625

> <r_mmod_Bend_Energy-OPLS-2005>
132.015563964844

> <r_mmod_Torsional_Energy-OPLS-2005>
249.327239990234

> <r_mmod_Improper_Torsional_Energy-OPLS-2005>
5.00377750396729

> <r_mmod_Van_der_Waal_Energy-OPLS-2005>
152.813598632812

> <r_mmod_Electrostatic_Energy-OPLS-2005>
-786.685424804688

> <r_mmod_Solvation_Energy-OPLS-2005>
-222.014877319336

> <b_mmod_Minimization_Converged-OPLS-2005>
0

> <r_mmod_RMS_Derivative-OPLS-2005>
4.3160834312439

$$$$
49
                    3D
 Structure written by MMmdl.
155163  0  0  1  0            999 V2000
  -30.6593  -14.6634   20.4868 C   0  0  0  0  0  0
  -30.4229  -12.4088   19.4650 C   0  0  0  0  0  0
  -29.4992  -12.4819   18.2313 C   0  0  0  0  0  0
  -28.0277  -12.3152   18.6547 C   0  0  0  0  0  0
  -27.6422  -13.2225   19.8537 C   0  0  2  0  0  0
  -28.6871  -13.1443   20.9872 C   0  0  0  0  0  0
  -25.2514  -13.8187   20.5712 C   0  0  0  0  0  0
  -24.1798  -13.0440   20.9217 C   0  0  0  0  0  0
  -24.6378  -11.6914   20.8767 C   0  0  0  0  0  0
  -23.9060  -10.4297   21.0420 C   0  0  0  0  0  0
  -24.3611   -9.4203   21.9196 C   0  0  0  0  0  0
  -23.6291   -8.2235   22.0752 C   0  0  0  0  0  0
  -22.4277   -8.0273   21.3540 C   0  0  0  0  0  0
  -21.9912   -9.0247   20.4644 C   0  0  0  0  0  0
  -22.7237  -10.2133   20.3058 C   0  0  0  0  0  0
  -21.6850   -6.0729   22.5278 C   0  0  0  0  0  0
  -21.4011   -6.5632   23.8208 C   0  0  0  0  0  0
  -21.3667   -5.6787   24.9174 C   0  0  0  0  0  0
  -21.6043   -4.3048   24.7231 C   0  0  0  0  0  0
  -21.8819   -3.8140   23.4348 C   0  0  0  0  0  0
  -21.9195   -4.6956   22.3402 C   0  0  0  0  0  0
  -22.7818  -13.5217   21.1879 C   0  0  0  0  0  0
  -22.1658   -4.2139   21.0981 F   0  0  0  0  0  0
  -21.5640   -3.4535   25.7740 F   0  0  0  0  0  0
  -29.9937  -13.4686   20.4010 N   0  0  0  0  0  0
  -26.2928  -12.9379   20.3311 N   0  0  0  0  0  0
  -25.9306  -11.6532   20.5794 N   0  0  0  0  0  0
  -22.0472  -12.8193   22.0424 N   0  0  0  0  0  0
  -25.4225  -15.1908   20.4147 N   0  0  0  0  0  0
  -31.8429  -14.7420   20.1509 O   0  0  0  0  0  0
  -21.6638   -6.8868   21.4236 O   0  0  0  0  0  0
  -22.3502  -14.5535   20.6745 O   0  0  0  0  0  0
  -24.6242  -31.8598   23.2036 C   0  0  0  0  0  0
  -25.9090  -32.4782   23.8340 C   0  0  1  0  0  0
  -27.2112  -27.3069   20.1198 C   0  0  0  0  0  0
  -25.5922  -33.8578   24.2271 N   0  0  0  0  0  0
  -23.4157  -30.4851   21.5468 C   0  0  2  0  0  0
  -24.8602  -28.9429   20.1076 C   0  0  0  0  0  0
  -22.7469  -29.4612   22.4945 C   0  0  0  0  0  0
  -18.0287  -28.1378   22.8496 C   0  0  0  0  0  0
  -24.1490  -36.7277   23.2628 C   0  0  0  0  0  0
  -25.9562  -30.7935   21.3688 C   0  0  0  0  0  0
  -26.0297  -29.4195   20.7114 C   0  0  0  0  0  0
  -27.2062  -28.6118   20.7086 C   0  0  0  0  0  0
  -26.0103  -26.8790   19.5087 C   0  0  0  0  0  0
  -24.8539  -27.6805   19.4973 C   0  0  0  0  0  0
  -23.6298  -29.8259   20.1594 C   0  0  0  0  0  0
  -25.4107  -36.3069   24.0330 C   0  0  1  0  0  0
  -20.5881  -28.3669   23.1304 C   0  0  2  0  0  0
  -20.6759  -26.9392   22.5406 C   0  0  0  0  0  0
  -19.5745  -26.6384   21.5208 C   0  0  0  0  0  0
  -18.1927  -26.7923   22.1615 C   0  0  0  0  0  0
  -19.1538  -28.8846   23.2891 C   0  0  0  0  0  0
  -18.9465  -30.1454   23.8889 C   0  0  0  0  0  0
  -17.6463  -30.6570   24.0586 C   0  0  0  0  0  0
  -25.9055  -34.9448   23.5093 C   0  0  0  0  0  0
  -16.5355  -29.9077   23.6328 C   0  0  0  0  0  0
  -16.7275  -28.6508   23.0336 C   0  0  0  0  0  0
  -26.4488  -31.6584   25.0695 C   0  0  0  0  0  0
  -25.3746  -31.3703   26.1441 C   0  0  0  0  0  0
  -27.0316  -30.3018   24.6081 C   0  0  0  0  0  0
  -27.6056  -32.4317   25.7468 C   0  0  0  0  0  0
  -27.5602  -37.1751   24.8438 C   0  0  0  0  0  0
  -21.4185  -29.3037   22.3717 N   0  0  0  0  0  0
  -26.4254  -37.3794   23.9474 N   0  0  0  0  0  0
  -24.6847  -31.0619   22.0981 N   0  0  0  0  0  0
  -23.4223  -28.8135   23.2988 O   0  0  0  0  0  0
  -28.3359  -26.4678   20.2039 O   0  0  0  0  0  0
  -26.5624  -34.8925   22.4658 O   0  0  0  0  0  0
  -23.5410  -32.1392   23.7371 O   0  0  0  0  0  0
  -30.4171  -20.5533   19.5675 C   0  0  0  0  0  0
  -29.2981  -21.2172   20.1265 C   0  0  0  0  0  0
  -28.5089  -20.3254   20.9155 C   0  0  0  0  0  0
  -29.9534  -18.5096   20.5615 C   0  0  0  0  0  0
  -29.1333  -22.7066   19.7705 C   0  0  0  0  0  0
  -28.4046  -23.7952   20.2012 C   0  0  0  0  0  0
  -27.3626  -21.0641   23.0637 C   0  0  0  0  0  0
  -27.2025  -20.7411   21.5729 C   0  0  0  0  0  0
  -30.5626  -17.1467   21.0607 C   0  0  0  0  0  0
  -28.4342  -25.1900   19.4602 C   0  0  0  0  0  0
  -30.7289  -19.2480   19.7716 N   0  0  0  0  0  0
  -28.8515  -19.0120   21.1303 N   0  0  0  0  0  0
  -29.9522  -15.7982   20.7900 N   0  0  0  0  0  0
  -31.4663  -12.5145   19.1614 H   0  0  0  0  0  0
  -30.3513  -11.4318   19.9457 H   0  0  0  0  0  0
  -29.7709  -11.7068   17.5135 H   0  0  0  0  0  0
  -29.6306  -13.4365   17.7197 H   0  0  0  0  0  0
  -27.8888  -11.2688   18.9300 H   0  0  0  0  0  0
  -27.3632  -12.4940   17.8097 H   0  0  0  0  0  0
  -27.6425  -14.2440   19.4727 H   0  0  0  0  0  0
  -28.7067  -12.1478   21.4315 H   0  0  0  0  0  0
  -28.4326  -13.8326   21.7947 H   0  0  0  0  0  0
  -25.2756   -9.5685   22.4777 H   0  0  0  0  0  0
  -24.0008   -7.4613   22.7464 H   0  0  0  0  0  0
  -21.0847   -8.8764   19.8933 H   0  0  0  0  0  0
  -22.3701  -10.9673   19.6165 H   0  0  0  0  0  0
  -21.1987   -7.6142   23.9711 H   0  0  0  0  0  0
  -21.1494   -6.0521   25.9081 H   0  0  0  0  0  0
  -22.0592   -2.7601   23.2851 H   0  0  0  0  0  0
  -22.4090  -11.9826   22.4756 H   0  0  0  0  0  0
  -21.1084  -13.1203   22.2653 H   0  0  0  0  0  0
  -24.6581  -15.8473   20.5343 H   0  0  0  0  0  0
  -26.2737  -15.6329   20.0920 H   0  0  0  0  0  0
  -26.7147  -32.5448   23.1076 H   0  0  0  0  0  0
  -25.0130  -33.9737   25.0458 H   0  0  0  0  0  0
  -22.7075  -31.3051   21.4077 H   0  0  0  0  0  0
  -23.3783  -35.9568   23.3224 H   0  0  0  0  0  0
  -24.3620  -36.8953   22.2056 H   0  0  0  0  0  0
  -23.7171  -37.6431   23.6690 H   0  0  0  0  0  0
  -26.0765  -31.5569   20.5984 H   0  0  0  0  0  0
  -26.8407  -30.8471   21.9914 H   0  0  0  0  0  0
  -28.1039  -28.9731   21.1894 H   0  0  0  0  0  0
  -25.9062  -25.8998   19.0706 H   0  0  0  0  0  0
  -23.9523  -27.3047   19.0327 H   0  0  0  0  0  0
  -23.7533  -30.6080   19.4104 H   0  0  0  0  0  0
  -22.7476  -29.2623   19.8498 H   0  0  0  0  0  0
  -25.1254  -36.1890   25.0806 H   0  0  0  0  0  0
  -20.9976  -28.3202   24.1426 H   0  0  0  0  0  0
  -20.5653  -26.2254   23.3591 H   0  0  0  0  0  0
  -21.6630  -26.7415   22.1210 H   0  0  0  0  0  0
  -19.6919  -25.6310   21.1205 H   0  0  0  0  0  0
  -19.6699  -27.3227   20.6769 H   0  0  0  0  0  0
  -17.4200  -26.6703   21.4013 H   0  0  0  0  0  0
  -18.0324  -26.0039   22.8983 H   0  0  0  0  0  0
  -19.7937  -30.7279   24.2243 H   0  0  0  0  0  0
  -17.5014  -31.6251   24.5190 H   0  0  0  0  0  0
  -15.5354  -30.2983   23.7659 H   0  0  0  0  0  0
  -15.8674  -28.0836   22.7032 H   0  0  0  0  0  0
  -24.5935  -30.7031   25.7793 H   0  0  0  0  0  0
  -24.8928  -32.2855   26.4889 H   0  0  0  0  0  0
  -25.8084  -30.8888   27.0209 H   0  0  0  0  0  0
  -26.2858  -29.6800   24.1108 H   0  0  0  0  0  0
  -27.4062  -29.7230   25.4528 H   0  0  0  0  0  0
  -27.8703  -30.4349   23.9246 H   0  0  0  0  0  0
  -27.2666  -33.3627   26.2032 H   0  0  0  0  0  0
  -28.3867  -32.6853   25.0296 H   0  0  0  0  0  0
  -28.0712  -31.8442   26.5392 H   0  0  0  0  0  0
  -28.2461  -38.0206   24.7703 H   0  0  0  0  0  0
  -28.1231  -36.2740   24.5943 H   0  0  0  0  0  0
  -27.2367  -37.1004   25.8837 H   0  0  0  0  0  0
  -20.9341  -29.8783   21.6966 H   0  0  0  0  0  0
  -26.0108  -38.2816   24.1644 H   0  0  0  0  0  0
  -31.1096  -21.0964   18.9405 H   0  0  0  0  0  0
  -29.7491  -22.9609   18.9177 H   0  0  0  0  0  0
  -27.7403  -23.7176   21.0507 H   0  0  0  0  0  0
  -26.3965  -21.2820   23.5209 H   0  0  0  0  0  0
  -28.0087  -21.9294   23.2105 H   0  0  0  0  0  0
  -27.7996  -20.2221   23.6008 H   0  0  0  0  0  0
  -26.4897  -19.9208   21.4661 H   0  0  0  0  0  0
  -26.7596  -21.5798   21.0386 H   0  0  0  0  0  0
  -30.6582  -17.2309   22.1425 H   0  0  0  0  0  0
  -31.5935  -17.1352   20.7036 H   0  0  0  0  0  0
  -27.7368  -25.1379   18.6297 H   0  0  0  0  0  0
  -29.3979  -25.2446   18.9548 H   0  0  0  0  0  0
  -28.9654  -15.7140   20.9741 H   0  0  0  0  0  0
  1 25  1  0  0  0
  1 30  2  0  0  0
  1 83  1  0  0  0
  2  3  1  0  0  0
  2 25  1  0  0  0
  2 84  1  0  0  0
  2 85  1  0  0  0
  3  4  1  0  0  0
  3 86  1  0  0  0
  3 87  1  0  0  0
  4  5  1  0  0  0
  4 88  1  0  0  0
  4 89  1  0  0  0
  5  6  1  0  0  0
  5 26  1  0  0  0
  5 90  1  0  0  0
  6 25  1  0  0  0
  6 91  1  0  0  0
  6 92  1  0  0  0
  7  8  2  0  0  0
  7 26  1  0  0  0
  7 29  1  0  0  0
  8  9  1  0  0  0
  8 22  1  0  0  0
  9 10  1  0  0  0
  9 27  2  0  0  0
 10 11  2  0  0  0
 10 15  1  0  0  0
 11 12  1  0  0  0
 11 93  1  0  0  0
 12 13  2  0  0  0
 12 94  1  0  0  0
 13 14  1  0  0  0
 13 31  1  0  0  0
 14 15  2  0  0  0
 14 95  1  0  0  0
 15 96  1  0  0  0
 16 17  2  0  0  0
 16 21  1  0  0  0
 16 31  1  0  0  0
 17 18  1  0  0  0
 17 97  1  0  0  0
 18 19  2  0  0  0
 18 98  1  0  0  0
 19 20  1  0  0  0
 19 24  1  0  0  0
 20 21  2  0  0  0
 20 99  1  0  0  0
 21 23  1  0  0  0
 22 28  1  0  0  0
 22 32  2  0  0  0
 26 27  1  0  0  0
 28100  1  0  0  0
 28101  1  0  0  0
 29102  1  0  0  0
 29103  1  0  0  0
 33 34  1  0  0  0
 33 66  1  0  0  0
 33 70  2  0  0  0
 34 36  1  0  0  0
 34 59  1  0  0  0
 34104  1  0  0  0
 35 44  2  0  0  0
 35 45  1  0  0  0
 35 68  1  0  0  0
 36 56  1  0  0  0
 36105  1  0  0  0
 37 39  1  0  0  0
 37 47  1  0  0  0
 37 66  1  0  0  0
 37106  1  0  0  0
 38 43  2  0  0  0
 38 46  1  0  0  0
 38 47  1  0  0  0
 39 64  1  0  0  0
 39 67  2  0  0  0
 40 52  1  0  0  0
 40 53  2  0  0  0
 40 58  1  0  0  0
 41107  1  0  0  0
 41108  1  0  0  0
 41109  1  0  0  0
 41 48  1  0  0  0
 42 43  1  0  0  0
 42 66  1  0  0  0
 42110  1  0  0  0
 42111  1  0  0  0
 43 44  1  0  0  0
 44112  1  0  0  0
 45 46  2  0  0  0
 45113  1  0  0  0
 46114  1  0  0  0
 47115  1  0  0  0
 47116  1  0  0  0
 48 56  1  0  0  0
 48 65  1  0  0  0
 48117  1  0  0  0
 49 50  1  0  0  0
 49 53  1  0  0  0
 49 64  1  0  0  0
 49118  1  0  0  0
 50 51  1  0  0  0
 50119  1  0  0  0
 50120  1  0  0  0
 51 52  1  0  0  0
 51121  1  0  0  0
 51122  1  0  0  0
 52123  1  0  0  0
 52124  1  0  0  0
 53 54  1  0  0  0
 54 55  2  0  0  0
 54125  1  0  0  0
 55 57  1  0  0  0
 55126  1  0  0  0
 56 69  2  0  0  0
 57 58  2  0  0  0
 57127  1  0  0  0
 58128  1  0  0  0
 59 60  1  0  0  0
 59 61  1  0  0  0
 59 62  1  0  0  0
 60129  1  0  0  0
 60130  1  0  0  0
 60131  1  0  0  0
 61132  1  0  0  0
 61133  1  0  0  0
 61134  1  0  0  0
 62135  1  0  0  0
 62136  1  0  0  0
 62137  1  0  0  0
 63 65  1  0  0  0
 63138  1  0  0  0
 63139  1  0  0  0
 63140  1  0  0  0
 64141  1  0  0  0
 65142  1  0  0  0
 68 80  1  0  0  0
 71 72  2  0  0  0
 71 81  1  0  0  0
 71143  1  0  0  0
 72 73  1  0  0  0
 72 75  1  0  0  0
 73 78  1  0  0  0
 73 82  2  0  0  0
 74 79  1  0  0  0
 74 81  2  0  0  0
 74 82  1  0  0  0
 75 76  2  0  0  0
 75144  1  0  0  0
 76 80  1  0  0  0
 76145  1  0  0  0
 77 78  1  0  0  0
 77146  1  0  0  0
 77147  1  0  0  0
 77148  1  0  0  0
 78149  1  0  0  0
 78150  1  0  0  0
 79 83  1  0  0  0
 79151  1  0  0  0
 79152  1  0  0  0
 80153  1  0  0  0
 80154  1  0  0  0
 83155  1  0  0  0
M  ISO  4   1 100  68 101  80 101  83 100
M  END
> <chiral flag>
0

> <version>
0

> <s_m_source_file>
/data/baiqing/PycharmProjects/Reinvent-master-3.2/result/LINK_invent/BTK/process_docking_weight1_custom_sum_contain_oxygen_bond_distance_aromatic_linkinvent_7_9_3/rearranged_h_0080.sdf

> <i_m_source_file_index>
48

> <r_mmod_Potential_Energy-OPLS-2005>
-412.563323974609

> <r_mmod_Stretch_Energy-OPLS-2005>
81.4571685791016

> <r_mmod_Bend_Energy-OPLS-2005>
182.326385498047

> <r_mmod_Torsional_Energy-OPLS-2005>
194.353179931641

> <r_mmod_Improper_Torsional_Energy-OPLS-2005>
6.08478498458862

> <r_mmod_Van_der_Waal_Energy-OPLS-2005>
153.77897644043

> <r_mmod_Electrostatic_Energy-OPLS-2005>
-860.405212402344

> <r_mmod_Solvation_Energy-OPLS-2005>
-228.752731323242

> <b_mmod_Minimization_Converged-OPLS-2005>
0

> <r_mmod_RMS_Derivative-OPLS-2005>
2.5744960308075

$$$$
50
                    3D
 Structure written by MMmdl.
173181  0  0  1  0            999 V2000
  -30.6619  -14.5351   20.5269 C   0  0  0  0  0  0
  -30.4334  -12.3301   19.4341 C   0  0  0  0  0  0
  -29.4996  -12.4685   18.2127 C   0  0  0  0  0  0
  -28.0186  -12.3391   18.6259 C   0  0  0  0  0  0
  -27.6547  -13.2048   19.8623 C   0  0  2  0  0  0
  -28.6986  -13.0242   20.9859 C   0  0  0  0  0  0
  -25.2575  -13.8161   20.5654 C   0  0  0  0  0  0
  -24.1833  -13.0455   20.9180 C   0  0  0  0  0  0
  -24.6393  -11.6922   20.8740 C   0  0  0  0  0  0
  -23.9070  -10.4308   21.0420 C   0  0  0  0  0  0
  -24.3630   -9.4223   21.9196 C   0  0  0  0  0  0
  -23.6300   -8.2252   22.0770 C   0  0  0  0  0  0
  -22.4278   -8.0288   21.3557 C   0  0  0  0  0  0
  -21.9928   -9.0263   20.4656 C   0  0  0  0  0  0
  -22.7253  -10.2143   20.3062 C   0  0  0  0  0  0
  -21.6845   -6.0744   22.5295 C   0  0  0  0  0  0
  -21.3998   -6.5645   23.8228 C   0  0  0  0  0  0
  -21.3652   -5.6798   24.9187 C   0  0  0  0  0  0
  -21.6047   -4.3062   24.7239 C   0  0  0  0  0  0
  -21.8814   -3.8160   23.4357 C   0  0  0  0  0  0
  -21.9192   -4.6975   22.3410 C   0  0  0  0  0  0
  -22.7856  -13.5247   21.1853 C   0  0  0  0  0  0
  -22.1660   -4.2172   21.0985 F   0  0  0  0  0  0
  -21.5634   -3.4543   25.7746 F   0  0  0  0  0  0
  -30.0201  -13.3404   20.4196 N   0  0  0  0  0  0
  -26.2998  -12.9323   20.3309 N   0  0  0  0  0  0
  -25.9307  -11.6498   20.5755 N   0  0  0  0  0  0
  -22.0493  -12.8218   22.0389 N   0  0  0  0  0  0
  -25.4328  -15.1878   20.4101 N   0  0  0  0  0  0
  -31.8212  -14.7118   20.1482 O   0  0  0  0  0  0
  -21.6641   -6.8887   21.4255 O   0  0  0  0  0  0
  -22.3550  -14.5579   20.6738 O   0  0  0  0  0  0
  -24.6168  -31.8639   23.2059 C   0  0  0  0  0  0
  -25.9051  -32.4797   23.8374 C   0  0  1  0  0  0
  -27.2366  -27.3988   20.0924 C   0  0  0  0  0  0
  -25.5911  -33.8592   24.2282 N   0  0  0  0  0  0
  -23.4063  -30.4856   21.5481 C   0  0  2  0  0  0
  -24.8557  -28.9466   20.1156 C   0  0  0  0  0  0
  -22.7422  -29.4614   22.4989 C   0  0  0  0  0  0
  -18.0265  -28.1333   22.8481 C   0  0  0  0  0  0
  -24.1504  -36.7302   23.2633 C   0  0  0  0  0  0
  -25.9389  -30.8232   21.3612 C   0  0  0  0  0  0
  -26.0203  -29.4536   20.7059 C   0  0  0  0  0  0
  -27.2177  -28.6896   20.6839 C   0  0  0  0  0  0
  -26.0485  -26.9091   19.5131 C   0  0  0  0  0  0
  -24.8647  -27.6727   19.5205 C   0  0  0  0  0  0
  -23.6166  -29.8146   20.1644 C   0  0  0  0  0  0
  -25.4130  -36.3087   24.0324 C   0  0  1  0  0  0
  -20.5855  -28.3619   23.1316 C   0  0  2  0  0  0
  -20.6771  -26.9362   22.5408 C   0  0  0  0  0  0
  -19.5754  -26.6351   21.5197 C   0  0  0  0  0  0
  -18.1907  -26.7870   22.1592 C   0  0  0  0  0  0
  -19.1512  -28.8794   23.2873 C   0  0  0  0  0  0
  -18.9459  -30.1389   23.8899 C   0  0  0  0  0  0
  -17.6470  -30.6561   24.0532 C   0  0  0  0  0  0
  -25.9058  -34.9461   23.5089 C   0  0  0  0  0  0
  -16.5350  -29.9060   23.6323 C   0  0  0  0  0  0
  -16.7254  -28.6462   23.0363 C   0  0  0  0  0  0
  -26.4486  -31.6598   25.0709 C   0  0  0  0  0  0
  -25.3756  -31.3675   26.1456 C   0  0  0  0  0  0
  -27.0335  -30.3058   24.6068 C   0  0  0  0  0  0
  -27.6008  -32.4355   25.7514 C   0  0  0  0  0  0
  -27.5586  -37.1776   24.8443 C   0  0  0  0  0  0
  -21.4144  -29.2987   22.3726 N   0  0  0  0  0  0
  -26.4296  -37.3803   23.9419 N   0  0  0  0  0  0
  -24.6725  -31.0732   22.0960 N   0  0  0  0  0  0
  -23.4201  -28.8170   23.3033 O   0  0  0  0  0  0
  -28.3893  -26.6362   20.0441 O   0  0  0  0  0  0
  -26.5637  -34.8915   22.4669 O   0  0  0  0  0  0
  -23.5351  -32.1416   23.7435 O   0  0  0  0  0  0
  -29.7437  -20.3445   20.2233 C   0  0  0  0  0  0
  -27.7675  -21.0260   19.0306 C   0  0  0  0  0  0
  -28.8226  -21.3752   19.8925 C   0  0  0  0  0  0
  -29.5987  -19.0263   19.6929 C   0  0  0  0  0  0
  -28.4947  -18.8116   18.8253 C   0  0  0  0  0  0
  -32.0481  -18.4614   20.2031 C   0  0  0  0  0  0
  -26.7386  -15.8004   16.0364 C   0  0  0  0  0  0
  -28.6927  -16.1026   14.5926 C   0  0  0  0  0  0
  -28.8954  -22.7699   20.5662 C   0  0  0  0  0  0
  -28.1742  -17.4653   18.1749 C   0  0  0  0  0  0
  -28.5957  -24.0677   19.7326 C   0  0  0  0  0  0
  -30.2523  -16.9648   21.2109 C   0  0  0  0  0  0
  -28.5227  -17.4257   16.6664 C   0  0  0  0  0  0
  -28.3420  -25.3185   20.6501 C   0  0  0  0  0  0
  -30.6268  -17.8956   20.0033 C   0  0  1  0  0  0
  -27.6137  -19.7889   18.5137 N   0  0  0  0  0  0
  -29.8770  -15.5668   20.9116 N   0  0  0  0  0  0
  -28.1837  -16.1427   15.9855 N   0  3  0  0  0  0
  -31.4763  -12.4473   19.1337 H   0  0  0  0  0  0
  -30.3593  -11.3320   19.8672 H   0  0  0  0  0  0
  -29.7413  -11.7025   17.4751 H   0  0  0  0  0  0
  -29.6671  -13.4279   17.7218 H   0  0  0  0  0  0
  -27.8331  -11.2862   18.8471 H   0  0  0  0  0  0
  -27.3684  -12.5846   17.7864 H   0  0  0  0  0  0
  -27.6852  -14.2426   19.5324 H   0  0  0  0  0  0
  -28.6859  -11.9989   21.3568 H   0  0  0  0  0  0
  -28.4566  -13.6474   21.8480 H   0  0  0  0  0  0
  -25.2768   -9.5691   22.4778 H   0  0  0  0  0  0
  -24.0013   -7.4642   22.7491 H   0  0  0  0  0  0
  -21.0864   -8.8791   19.8944 H   0  0  0  0  0  0
  -22.3730  -10.9690   19.6176 H   0  0  0  0  0  0
  -21.1969   -7.6151   23.9737 H   0  0  0  0  0  0
  -21.1470   -6.0524   25.9091 H   0  0  0  0  0  0
  -22.0590   -2.7629   23.2855 H   0  0  0  0  0  0
  -22.4094  -11.9848   22.4736 H   0  0  0  0  0  0
  -21.1124  -13.1250   22.2641 H   0  0  0  0  0  0
  -24.6750  -15.8450   20.5529 H   0  0  0  0  0  0
  -26.3058  -15.6374   20.1713 H   0  0  0  0  0  0
  -26.7117  -32.5542   23.1139 H   0  0  0  0  0  0
  -25.0030  -33.9741   25.0404 H   0  0  0  0  0  0
  -22.6924  -31.2999   21.4040 H   0  0  0  0  0  0
  -23.3771  -35.9619   23.3292 H   0  0  0  0  0  0
  -24.3575  -36.8967   22.2044 H   0  0  0  0  0  0
  -23.7254  -37.6486   23.6705 H   0  0  0  0  0  0
  -26.0527  -31.5989   20.6008 H   0  0  0  0  0  0
  -26.8204  -30.8719   21.9916 H   0  0  0  0  0  0
  -28.1221  -29.0763   21.1309 H   0  0  0  0  0  0
  -26.0451  -25.9347   19.0460 H   0  0  0  0  0  0
  -23.9657  -27.2726   19.0640 H   0  0  0  0  0  0
  -23.7123  -30.5879   19.4000 H   0  0  0  0  0  0
  -22.7419  -29.2284   19.8784 H   0  0  0  0  0  0
  -25.1299  -36.1935   25.0816 H   0  0  0  0  0  0
  -20.9873  -28.3202   24.1465 H   0  0  0  0  0  0
  -20.5673  -26.2226   23.3591 H   0  0  0  0  0  0
  -21.6638  -26.7439   22.1178 H   0  0  0  0  0  0
  -19.6941  -25.6270   21.1211 H   0  0  0  0  0  0
  -19.6718  -27.3175   20.6732 H   0  0  0  0  0  0
  -17.4176  -26.6604   21.3986 H   0  0  0  0  0  0
  -18.0322  -25.9999   22.8981 H   0  0  0  0  0  0
  -19.7950  -30.7141   24.2324 H   0  0  0  0  0  0
  -17.5053  -31.6274   24.5093 H   0  0  0  0  0  0
  -15.5338  -30.2963   23.7687 H   0  0  0  0  0  0
  -15.8643  -28.0788   22.7117 H   0  0  0  0  0  0
  -24.5926  -30.7033   25.7797 H   0  0  0  0  0  0
  -24.8919  -32.2783   26.4966 H   0  0  0  0  0  0
  -25.8070  -30.8801   27.0195 H   0  0  0  0  0  0
  -26.2856  -29.6800   24.1165 H   0  0  0  0  0  0
  -27.4187  -29.7324   25.4507 H   0  0  0  0  0  0
  -27.8670  -30.4419   23.9168 H   0  0  0  0  0  0
  -27.2597  -33.3683   26.2053 H   0  0  0  0  0  0
  -28.3863  -32.6903   25.0372 H   0  0  0  0  0  0
  -28.0650  -31.8511   26.5486 H   0  0  0  0  0  0
  -28.2514  -38.0151   24.7598 H   0  0  0  0  0  0
  -28.1146  -36.2673   24.6151 H   0  0  0  0  0  0
  -27.2272  -37.1296   25.8823 H   0  0  0  0  0  0
  -20.9322  -29.8781   21.7012 H   0  0  0  0  0  0
  -26.0164  -38.2853   24.1479 H   0  0  0  0  0  0
  -30.5573  -20.5762   20.8951 H   0  0  0  0  0  0
  -26.9972  -21.7360   18.7683 H   0  0  0  0  0  0
  -32.3328  -19.1213   19.3825 H   0  0  0  0  0  0
  -32.7838  -17.6556   20.2434 H   0  0  0  0  0  0
  -32.1403  -19.0209   21.1362 H   0  0  0  0  0  0
  -26.5269  -14.8954   15.4652 H   0  0  0  0  0  0
  -26.1310  -16.6041   15.6169 H   0  0  0  0  0  0
  -26.3971  -15.6091   17.0537 H   0  0  0  0  0  0
  -28.5063  -15.1298   14.1333 H   0  0  0  0  0  0
  -29.7688  -16.2770   14.5497 H   0  0  0  0  0  0
  -28.2033  -16.8577   13.9751 H   0  0  0  0  0  0
  -29.8757  -22.8827   21.0335 H   0  0  0  0  0  0
  -28.1883  -22.7295   21.3940 H   0  0  0  0  0  0
  -27.1093  -17.2961   18.3240 H   0  0  0  0  0  0
  -28.6676  -16.6476   18.6960 H   0  0  0  0  0  0
  -27.7249  -23.9231   19.0933 H   0  0  0  0  0  0
  -29.4318  -24.2566   19.0570 H   0  0  0  0  0  0
  -29.4411  -17.4145   21.7850 H   0  0  0  0  0  0
  -31.0873  -16.9122   21.9120 H   0  0  0  0  0  0
  -29.5921  -17.6160   16.5526 H   0  0  0  0  0  0
  -28.0164  -18.2421   16.1513 H   0  0  0  0  0  0
  -29.1198  -25.3357   21.4150 H   0  0  0  0  0  0
  -27.4127  -25.1654   21.2016 H   0  0  0  0  0  0
  -30.7150  -17.2831   19.1081 H   0  0  0  0  0  0
  -28.9320  -15.3069   21.1503 H   0  0  0  0  0  0
  -28.6779  -15.4070   16.4691 H   0  0  0  0  0  0
  1 25  1  0  0  0
  1 30  2  0  0  0
  1 87  1  0  0  0
  2  3  1  0  0  0
  2 25  1  0  0  0
  2 89  1  0  0  0
  2 90  1  0  0  0
  3  4  1  0  0  0
  3 91  1  0  0  0
  3 92  1  0  0  0
  4  5  1  0  0  0
  4 93  1  0  0  0
  4 94  1  0  0  0
  5  6  1  0  0  0
  5 26  1  0  0  0
  5 95  1  0  0  0
  6 25  1  0  0  0
  6 96  1  0  0  0
  6 97  1  0  0  0
  7  8  2  0  0  0
  7 26  1  0  0  0
  7 29  1  0  0  0
  8  9  1  0  0  0
  8 22  1  0  0  0
  9 10  1  0  0  0
  9 27  2  0  0  0
 10 11  2  0  0  0
 10 15  1  0  0  0
 11 12  1  0  0  0
 11 98  1  0  0  0
 12 13  2  0  0  0
 12 99  1  0  0  0
 13 14  1  0  0  0
 13 31  1  0  0  0
 14 15  2  0  0  0
 14100  1  0  0  0
 15101  1  0  0  0
 16 17  2  0  0  0
 16 21  1  0  0  0
 16 31  1  0  0  0
 17 18  1  0  0  0
 17102  1  0  0  0
 18 19  2  0  0  0
 18103  1  0  0  0
 19 20  1  0  0  0
 19 24  1  0  0  0
 20 21  2  0  0  0
 20104  1  0  0  0
 21 23  1  0  0  0
 22 28  1  0  0  0
 22 32  2  0  0  0
 26 27  1  0  0  0
 28105  1  0  0  0
 28106  1  0  0  0
 29107  1  0  0  0
 29108  1  0  0  0
 33 34  1  0  0  0
 33 66  1  0  0  0
 33 70  2  0  0  0
 34 36  1  0  0  0
 34 59  1  0  0  0
 34109  1  0  0  0
 35 44  2  0  0  0
 35 45  1  0  0  0
 35 68  1  0  0  0
 36 56  1  0  0  0
 36110  1  0  0  0
 37 39  1  0  0  0
 37 47  1  0  0  0
 37 66  1  0  0  0
 37111  1  0  0  0
 38 43  2  0  0  0
 38 46  1  0  0  0
 38 47  1  0  0  0
 39 64  1  0  0  0
 39 67  2  0  0  0
 40 52  1  0  0  0
 40 53  2  0  0  0
 40 58  1  0  0  0
 41112  1  0  0  0
 41113  1  0  0  0
 41114  1  0  0  0
 41 48  1  0  0  0
 42 43  1  0  0  0
 42 66  1  0  0  0
 42115  1  0  0  0
 42116  1  0  0  0
 43 44  1  0  0  0
 44117  1  0  0  0
 45 46  2  0  0  0
 45118  1  0  0  0
 46119  1  0  0  0
 47120  1  0  0  0
 47121  1  0  0  0
 48 56  1  0  0  0
 48 65  1  0  0  0
 48122  1  0  0  0
 49 50  1  0  0  0
 49 53  1  0  0  0
 49 64  1  0  0  0
 49123  1  0  0  0
 50 51  1  0  0  0
 50124  1  0  0  0
 50125  1  0  0  0
 51 52  1  0  0  0
 51126  1  0  0  0
 51127  1  0  0  0
 52128  1  0  0  0
 52129  1  0  0  0
 53 54  1  0  0  0
 54 55  2  0  0  0
 54130  1  0  0  0
 55 57  1  0  0  0
 55131  1  0  0  0
 56 69  2  0  0  0
 57 58  2  0  0  0
 57132  1  0  0  0
 58133  1  0  0  0
 59 60  1  0  0  0
 59 61  1  0  0  0
 59 62  1  0  0  0
 60134  1  0  0  0
 60135  1  0  0  0
 60136  1  0  0  0
 61137  1  0  0  0
 61138  1  0  0  0
 61139  1  0  0  0
 62140  1  0  0  0
 62141  1  0  0  0
 62142  1  0  0  0
 63 65  1  0  0  0
 63143  1  0  0  0
 63144  1  0  0  0
 63145  1  0  0  0
 64146  1  0  0  0
 65147  1  0  0  0
 68 84  1  0  0  0
 71 73  2  0  0  0
 71 74  1  0  0  0
 71148  1  0  0  0
 72 73  1  0  0  0
 72 86  2  0  0  0
 72149  1  0  0  0
 73 79  1  0  0  0
 74 75  2  0  0  0
 74 85  1  0  0  0
 75 80  1  0  0  0
 75 86  1  0  0  0
 76150  1  0  0  0
 76151  1  0  0  0
 76152  1  0  0  0
 76 85  1  0  0  0
 77153  1  0  0  0
 77154  1  0  0  0
 77155  1  0  0  0
 77 88  1  0  0  0
 78 88  1  0  0  0
 78156  1  0  0  0
 78157  1  0  0  0
 78158  1  0  0  0
 79 81  1  0  0  0
 79159  1  0  0  0
 79160  1  0  0  0
 80 83  1  0  0  0
 80161  1  0  0  0
 80162  1  0  0  0
 81 84  1  0  0  0
 81163  1  0  0  0
 81164  1  0  0  0
 82 85  1  0  0  0
 82 87  1  0  0  0
 82165  1  0  0  0
 82166  1  0  0  0
 83 88  1  0  0  0
 83167  1  0  0  0
 83168  1  0  0  0
 84169  1  0  0  0
 84170  1  0  0  0
 85171  1  0  0  0
 87172  1  0  0  0
 88173  1  0  0  0
M  CHG  1  88   1
M  ISO  4   1 100  68 101  84 101  87 100
M  END
> <chiral flag>
0

> <version>
0

> <s_m_source_file>
/data/baiqing/PycharmProjects/Reinvent-master-3.2/result/LINK_invent/BTK/process_docking_weight1_custom_sum_contain_oxygen_bond_distance_aromatic_linkinvent_7_9_3/rearranged_h_0080.sdf

> <i_m_source_file_index>
49

> <r_mmod_Potential_Energy-OPLS-2005>
-341.275695800781

> <r_mmod_Stretch_Energy-OPLS-2005>
52.8130264282227

> <r_mmod_Bend_Energy-OPLS-2005>
121.396942138672

> <r_mmod_Torsional_Energy-OPLS-2005>
239.90592956543

> <r_mmod_Improper_Torsional_Energy-OPLS-2005>
4.43125152587891

> <r_mmod_Van_der_Waal_Energy-OPLS-2005>
135.69743347168

> <r_mmod_Electrostatic_Energy-OPLS-2005>
-463.115417480469

> <r_mmod_Solvation_Energy-OPLS-2005>
-453.860107421875

> <b_mmod_Minimization_Converged-OPLS-2005>
0

> <r_mmod_RMS_Derivative-OPLS-2005>
4.52839756011963

$$$$
51
                    3D
 Structure written by MMmdl.
158166  0  0  1  0            999 V2000
  -30.6921  -14.4880   20.5918 C   0  0  0  0  0  0
  -30.4176  -12.3132   19.4435 C   0  0  0  0  0  0
  -29.5031  -12.5078   18.2181 C   0  0  0  0  0  0
  -28.0203  -12.3771   18.6171 C   0  0  0  0  0  0
  -27.6586  -13.2121   19.8748 C   0  0  2  0  0  0
  -28.6944  -13.0071   21.0020 C   0  0  0  0  0  0
  -25.2557  -13.8156   20.5661 C   0  0  0  0  0  0
  -24.1836  -13.0429   20.9171 C   0  0  0  0  0  0
  -24.6399  -11.6899   20.8728 C   0  0  0  0  0  0
  -23.9058  -10.4284   21.0393 C   0  0  0  0  0  0
  -24.3597   -9.4200   21.9179 C   0  0  0  0  0  0
  -23.6276   -8.2240   22.0761 C   0  0  0  0  0  0
  -22.4272   -8.0269   21.3539 C   0  0  0  0  0  0
  -21.9918   -9.0233   20.4628 C   0  0  0  0  0  0
  -22.7231  -10.2119   20.3039 C   0  0  0  0  0  0
  -21.6850   -6.0731   22.5269 C   0  0  0  0  0  0
  -21.4012   -6.5634   23.8199 C   0  0  0  0  0  0
  -21.3666   -5.6792   24.9163 C   0  0  0  0  0  0
  -21.6055   -4.3056   24.7217 C   0  0  0  0  0  0
  -21.8823   -3.8144   23.4338 C   0  0  0  0  0  0
  -21.9198   -4.6962   22.3394 C   0  0  0  0  0  0
  -22.7856  -13.5203   21.1835 C   0  0  0  0  0  0
  -22.1658   -4.2149   21.0967 F   0  0  0  0  0  0
  -21.5639   -3.4533   25.7729 F   0  0  0  0  0  0
  -30.0249  -13.3077   20.4589 N   0  0  0  0  0  0
  -26.3003  -12.9343   20.3327 N   0  0  0  0  0  0
  -25.9332  -11.6500   20.5755 N   0  0  0  0  0  0
  -22.0503  -12.8169   22.0366 N   0  0  0  0  0  0
  -25.4232  -15.1884   20.4031 N   0  0  0  0  0  0
  -31.7985  -14.6586   20.0706 O   0  0  0  0  0  0
  -21.6643   -6.8869   21.4231 O   0  0  0  0  0  0
  -22.3551  -14.5529   20.6700 O   0  0  0  0  0  0
  -24.6141  -31.8650   23.2069 C   0  0  0  0  0  0
  -25.9030  -32.4801   23.8369 C   0  0  1  0  0  0
  -27.2434  -27.4100   20.1054 C   0  0  0  0  0  0
  -25.5877  -33.8601   24.2296 N   0  0  0  0  0  0
  -23.4032  -30.4851   21.5475 C   0  0  2  0  0  0
  -24.8520  -28.9440   20.1157 C   0  0  0  0  0  0
  -22.7402  -29.4632   22.4998 C   0  0  0  0  0  0
  -18.0259  -28.1369   22.8497 C   0  0  0  0  0  0
  -24.1466  -36.7295   23.2646 C   0  0  0  0  0  0
  -25.9324  -30.8243   21.3615 C   0  0  0  0  0  0
  -26.0099  -29.4548   20.7129 C   0  0  0  0  0  0
  -27.2025  -28.6945   20.7037 C   0  0  0  0  0  0
  -26.0595  -26.9116   19.5125 C   0  0  0  0  0  0
  -24.8734  -27.6733   19.5130 C   0  0  0  0  0  0
  -23.6127  -29.8115   20.1639 C   0  0  0  0  0  0
  -25.4094  -36.3093   24.0337 C   0  0  1  0  0  0
  -20.5847  -28.3639   23.1335 C   0  0  2  0  0  0
  -20.6740  -26.9377   22.5425 C   0  0  0  0  0  0
  -19.5716  -26.6375   21.5219 C   0  0  0  0  0  0
  -18.1898  -26.7911   22.1635 C   0  0  0  0  0  0
  -19.1511  -28.8824   23.2908 C   0  0  0  0  0  0
  -18.9444  -30.1440   23.8899 C   0  0  0  0  0  0
  -17.6451  -30.6583   24.0565 C   0  0  0  0  0  0
  -25.9038  -34.9463   23.5123 C   0  0  0  0  0  0
  -16.5338  -29.9086   23.6339 C   0  0  0  0  0  0
  -16.7251  -28.6510   23.0343 C   0  0  0  0  0  0
  -26.4450  -31.6581   25.0709 C   0  0  0  0  0  0
  -25.3722  -31.3673   26.1452 C   0  0  0  0  0  0
  -27.0306  -30.3032   24.6093 C   0  0  0  0  0  0
  -27.5990  -32.4315   25.7503 C   0  0  0  0  0  0
  -27.5562  -37.1792   24.8465 C   0  0  0  0  0  0
  -21.4130  -29.3010   22.3749 N   0  0  0  0  0  0
  -26.4260  -37.3788   23.9429 N   0  0  0  0  0  0
  -24.6683  -31.0736   22.0973 N   0  0  0  0  0  0
  -23.4178  -28.8201   23.3055 O   0  0  0  0  0  0
  -28.4420  -26.7142   20.1346 O   0  0  0  0  0  0
  -26.5624  -34.8923   22.4701 O   0  0  0  0  0  0
  -23.5333  -32.1408   23.7459 O   0  0  0  0  0  0
  -28.5647  -19.1763   20.8887 C   0  0  0  0  0  0
  -29.4446  -18.1504   20.5995 C   0  0  0  0  0  0
  -30.5587  -20.0973   20.6123 C   0  0  0  0  0  0
  -31.7009  -21.0555   20.5180 C   0  0  0  0  0  0
  -29.2569  -16.6570   20.3920 C   0  0  0  0  0  0
  -30.0804  -15.7149   21.3246 C   0  0  0  0  0  0
  -28.8229  -22.8285   20.1503 C   0  0  0  0  0  0
  -28.3542  -24.2423   20.6255 C   0  0  0  0  0  0
  -28.7528  -21.7213   21.2503 C   0  0  0  0  0  0
  -28.5795  -25.3851   19.5936 C   0  0  0  0  0  0
  -29.2699  -20.3648   20.8920 N   0  0  0  0  0  0
  -30.6543  -18.7727   20.4231 N   0  3  0  0  0  0
  -31.4659  -12.3961   19.1528 H   0  0  0  0  0  0
  -30.3024  -11.3060   19.8467 H   0  0  0  0  0  0
  -29.7464  -11.7773   17.4451 H   0  0  0  0  0  0
  -29.6832  -13.4905   17.7793 H   0  0  0  0  0  0
  -27.8200  -11.3212   18.8012 H   0  0  0  0  0  0
  -27.3807  -12.6658   17.7820 H   0  0  0  0  0  0
  -27.6985  -14.2582   19.5763 H   0  0  0  0  0  0
  -28.6726  -11.9759   21.3558 H   0  0  0  0  0  0
  -28.4430  -13.6148   21.8696 H   0  0  0  0  0  0
  -25.2738   -9.5694   22.4740 H   0  0  0  0  0  0
  -23.9981   -7.4662   22.7517 H   0  0  0  0  0  0
  -21.0851   -8.8746   19.8930 H   0  0  0  0  0  0
  -22.3682  -10.9656   19.6149 H   0  0  0  0  0  0
  -21.1989   -7.6146   23.9690 H   0  0  0  0  0  0
  -21.1490   -6.0528   25.9064 H   0  0  0  0  0  0
  -22.0597   -2.7609   23.2835 H   0  0  0  0  0  0
  -22.4104  -11.9809   22.4719 H   0  0  0  0  0  0
  -21.1124  -13.1204   22.2590 H   0  0  0  0  0  0
  -24.6404  -15.8268   20.4854 H   0  0  0  0  0  0
  -26.2445  -15.6192   20.0012 H   0  0  0  0  0  0
  -26.7108  -32.5496   23.1143 H   0  0  0  0  0  0
  -24.9957  -33.9753   25.0389 H   0  0  0  0  0  0
  -22.6902  -31.2996   21.4054 H   0  0  0  0  0  0
  -23.3734  -35.9620   23.3294 H   0  0  0  0  0  0
  -24.3552  -36.8934   22.2059 H   0  0  0  0  0  0
  -23.7197  -37.6483   23.6682 H   0  0  0  0  0  0
  -26.0437  -31.5869   20.5891 H   0  0  0  0  0  0
  -26.8206  -30.8807   21.9801 H   0  0  0  0  0  0
  -28.0961  -29.0888   21.1669 H   0  0  0  0  0  0
  -26.0228  -25.9347   19.0546 H   0  0  0  0  0  0
  -23.9811  -27.2702   19.0547 H   0  0  0  0  0  0
  -23.7160  -30.5830   19.4002 H   0  0  0  0  0  0
  -22.7381  -29.2266   19.8725 H   0  0  0  0  0  0
  -25.1268  -36.1942   25.0829 H   0  0  0  0  0  0
  -20.9924  -28.3183   24.1463 H   0  0  0  0  0  0
  -20.5647  -26.2234   23.3599 H   0  0  0  0  0  0
  -21.6608  -26.7413   22.1211 H   0  0  0  0  0  0
  -19.6872  -25.6299   21.1220 H   0  0  0  0  0  0
  -19.6659  -27.3215   20.6779 H   0  0  0  0  0  0
  -17.4164  -26.6650   21.4042 H   0  0  0  0  0  0
  -18.0306  -26.0054   22.9035 H   0  0  0  0  0  0
  -19.7922  -30.7253   24.2252 H   0  0  0  0  0  0
  -17.5011  -31.6267   24.5160 H   0  0  0  0  0  0
  -15.5338  -30.2994   23.7673 H   0  0  0  0  0  0
  -15.8643  -28.0858   22.7029 H   0  0  0  0  0  0
  -24.5884  -30.7040   25.7776 H   0  0  0  0  0  0
  -24.8938  -32.2831   26.4932 H   0  0  0  0  0  0
  -25.8078  -30.8802   27.0189 H   0  0  0  0  0  0
  -26.2878  -29.6784   24.1126 H   0  0  0  0  0  0
  -27.4056  -29.7258   25.4552 H   0  0  0  0  0  0
  -27.8705  -30.4354   23.9273 H   0  0  0  0  0  0
  -27.2570  -33.3604   26.2078 H   0  0  0  0  0  0
  -28.3818  -32.6884   25.0362 H   0  0  0  0  0  0
  -28.0634  -31.8441   26.5433 H   0  0  0  0  0  0
  -28.2547  -38.0118   24.7563 H   0  0  0  0  0  0
  -28.1081  -36.2646   24.6234 H   0  0  0  0  0  0
  -27.2287  -37.1389   25.8866 H   0  0  0  0  0  0
  -20.9288  -29.8733   21.6975 H   0  0  0  0  0  0
  -26.0137  -38.2853   24.1472 H   0  0  0  0  0  0
  -27.5013  -19.1450   21.0869 H   0  0  0  0  0  0
  -31.6010  -21.8201   21.2871 H   0  0  0  0  0  0
  -31.6921  -21.5033   19.5244 H   0  0  0  0  0  0
  -32.6302  -20.5064   20.6677 H   0  0  0  0  0  0
  -29.4661  -16.4380   19.3425 H   0  0  0  0  0  0
  -28.1994  -16.4367   20.5361 H   0  0  0  0  0  0
  -29.5127  -15.4356   22.2107 H   0  0  0  0  0  0
  -30.9306  -16.2720   21.7181 H   0  0  0  0  0  0
  -29.8451  -22.9174   19.7872 H   0  0  0  0  0  0
  -28.2318  -22.5227   19.2881 H   0  0  0  0  0  0
  -28.8950  -24.4976   21.5383 H   0  0  0  0  0  0
  -27.3004  -24.2103   20.9036 H   0  0  0  0  0  0
  -27.7194  -21.6016   21.5768 H   0  0  0  0  0  0
  -29.3064  -22.0395   22.1348 H   0  0  0  0  0  0
  -27.9900  -25.2362   18.6900 H   0  0  0  0  0  0
  -29.6151  -25.3244   19.2565 H   0  0  0  0  0  0
  -31.5144  -18.2995   20.1702 H   0  0  0  0  0  0
  1 25  1  0  0  0
  1 30  2  0  0  0
  1 76  1  0  0  0
  2  3  1  0  0  0
  2 25  1  0  0  0
  2 83  1  0  0  0
  2 84  1  0  0  0
  3  4  1  0  0  0
  3 85  1  0  0  0
  3 86  1  0  0  0
  4  5  1  0  0  0
  4 87  1  0  0  0
  4 88  1  0  0  0
  5  6  1  0  0  0
  5 26  1  0  0  0
  5 89  1  0  0  0
  6 25  1  0  0  0
  6 90  1  0  0  0
  6 91  1  0  0  0
  7  8  2  0  0  0
  7 26  1  0  0  0
  7 29  1  0  0  0
  8  9  1  0  0  0
  8 22  1  0  0  0
  9 10  1  0  0  0
  9 27  2  0  0  0
 10 11  2  0  0  0
 10 15  1  0  0  0
 11 12  1  0  0  0
 11 92  1  0  0  0
 12 13  2  0  0  0
 12 93  1  0  0  0
 13 14  1  0  0  0
 13 31  1  0  0  0
 14 15  2  0  0  0
 14 94  1  0  0  0
 15 95  1  0  0  0
 16 17  2  0  0  0
 16 21  1  0  0  0
 16 31  1  0  0  0
 17 18  1  0  0  0
 17 96  1  0  0  0
 18 19  2  0  0  0
 18 97  1  0  0  0
 19 20  1  0  0  0
 19 24  1  0  0  0
 20 21  2  0  0  0
 20 98  1  0  0  0
 21 23  1  0  0  0
 22 28  1  0  0  0
 22 32  2  0  0  0
 26 27  1  0  0  0
 28 99  1  0  0  0
 28100  1  0  0  0
 29101  1  0  0  0
 29102  1  0  0  0
 33 34  1  0  0  0
 33 66  1  0  0  0
 33 70  2  0  0  0
 34 36  1  0  0  0
 34 59  1  0  0  0
 34103  1  0  0  0
 35 44  2  0  0  0
 35 45  1  0  0  0
 35 68  1  0  0  0
 36 56  1  0  0  0
 36104  1  0  0  0
 37 39  1  0  0  0
 37 47  1  0  0  0
 37 66  1  0  0  0
 37105  1  0  0  0
 38 43  2  0  0  0
 38 46  1  0  0  0
 38 47  1  0  0  0
 39 64  1  0  0  0
 39 67  2  0  0  0
 40 52  1  0  0  0
 40 53  2  0  0  0
 40 58  1  0  0  0
 41106  1  0  0  0
 41107  1  0  0  0
 41108  1  0  0  0
 41 48  1  0  0  0
 42 43  1  0  0  0
 42 66  1  0  0  0
 42109  1  0  0  0
 42110  1  0  0  0
 43 44  1  0  0  0
 44111  1  0  0  0
 45 46  2  0  0  0
 45112  1  0  0  0
 46113  1  0  0  0
 47114  1  0  0  0
 47115  1  0  0  0
 48 56  1  0  0  0
 48 65  1  0  0  0
 48116  1  0  0  0
 49 50  1  0  0  0
 49 53  1  0  0  0
 49 64  1  0  0  0
 49117  1  0  0  0
 50 51  1  0  0  0
 50118  1  0  0  0
 50119  1  0  0  0
 51 52  1  0  0  0
 51120  1  0  0  0
 51121  1  0  0  0
 52122  1  0  0  0
 52123  1  0  0  0
 53 54  1  0  0  0
 54 55  2  0  0  0
 54124  1  0  0  0
 55 57  1  0  0  0
 55125  1  0  0  0
 56 69  2  0  0  0
 57 58  2  0  0  0
 57126  1  0  0  0
 58127  1  0  0  0
 59 60  1  0  0  0
 59 61  1  0  0  0
 59 62  1  0  0  0
 60128  1  0  0  0
 60129  1  0  0  0
 60130  1  0  0  0
 61131  1  0  0  0
 61132  1  0  0  0
 61133  1  0  0  0
 62134  1  0  0  0
 62135  1  0  0  0
 62136  1  0  0  0
 63 65  1  0  0  0
 63137  1  0  0  0
 63138  1  0  0  0
 63139  1  0  0  0
 64140  1  0  0  0
 65141  1  0  0  0
 68 80  1  0  0  0
 71 72  2  0  0  0
 71 81  1  0  0  0
 71142  1  0  0  0
 72 75  1  0  0  0
 72 82  1  0  0  0
 73 74  1  0  0  0
 73 81  1  0  0  0
 73 82  2  0  0  0
 74143  1  0  0  0
 74144  1  0  0  0
 74145  1  0  0  0
 75 76  1  0  0  0
 75146  1  0  0  0
 75147  1  0  0  0
 76148  1  0  0  0
 76149  1  0  0  0
 77 78  1  0  0  0
 77 79  1  0  0  0
 77150  1  0  0  0
 77151  1  0  0  0
 78 80  1  0  0  0
 78152  1  0  0  0
 78153  1  0  0  0
 79 81  1  0  0  0
 79154  1  0  0  0
 79155  1  0  0  0
 80156  1  0  0  0
 80157  1  0  0  0
 82158  1  0  0  0
M  CHG  1  82   1
M  ISO  4   1 100  68 101  76 100  80 101
M  END
> <chiral flag>
0

> <version>
0

> <s_m_source_file>
/data/baiqing/PycharmProjects/Reinvent-master-3.2/result/LINK_invent/BTK/process_docking_weight1_custom_sum_contain_oxygen_bond_distance_aromatic_linkinvent_7_9_3/rearranged_h_0080.sdf

> <i_m_source_file_index>
50

> <r_mmod_Potential_Energy-OPLS-2005>
-115.417427062988

> <r_mmod_Stretch_Energy-OPLS-2005>
42.0779190063477

> <r_mmod_Bend_Energy-OPLS-2005>
114.245811462402

> <r_mmod_Torsional_Energy-OPLS-2005>
189.116012573242

> <r_mmod_Improper_Torsional_Energy-OPLS-2005>
3.07184982299805

> <r_mmod_Van_der_Waal_Energy-OPLS-2005>
118.810768127441

> <r_mmod_Electrostatic_Energy-OPLS-2005>
-197.445617675781

> <r_mmod_Solvation_Energy-OPLS-2005>
-400.001281738281

> <b_mmod_Minimization_Converged-OPLS-2005>
0

> <r_mmod_RMS_Derivative-OPLS-2005>
2.46988654136658

$$$$
52
                    3D
 Structure written by MMmdl.
160168  0  0  1  0            999 V2000
  -30.6842  -14.5174   20.5190 C   0  0  0  0  0  0
  -30.4214  -12.3225   19.4147 C   0  0  0  0  0  0
  -29.4880  -12.4898   18.1971 C   0  0  0  0  0  0
  -28.0105  -12.3556   18.6157 C   0  0  0  0  0  0
  -27.6565  -13.2095   19.8620 C   0  0  2  0  0  0
  -28.7060  -13.0196   20.9805 C   0  0  0  0  0  0
  -25.2582  -13.8160   20.5658 C   0  0  0  0  0  0
  -24.1841  -13.0426   20.9193 C   0  0  0  0  0  0
  -24.6401  -11.6898   20.8734 C   0  0  0  0  0  0
  -23.9060  -10.4280   21.0400 C   0  0  0  0  0  0
  -24.3613   -9.4197   21.9174 C   0  0  0  0  0  0
  -23.6287   -8.2230   22.0750 C   0  0  0  0  0  0
  -22.4269   -8.0270   21.3542 C   0  0  0  0  0  0
  -21.9900   -9.0244   20.4643 C   0  0  0  0  0  0
  -22.7231  -10.2124   20.3050 C   0  0  0  0  0  0
  -21.6860   -6.0720   22.5277 C   0  0  0  0  0  0
  -21.4011   -6.5634   23.8208 C   0  0  0  0  0  0
  -21.3655   -5.6798   24.9172 C   0  0  0  0  0  0
  -21.6048   -4.3059   24.7230 C   0  0  0  0  0  0
  -21.8824   -3.8136   23.4359 C   0  0  0  0  0  0
  -21.9197   -4.6946   22.3403 C   0  0  0  0  0  0
  -22.7865  -13.5223   21.1857 C   0  0  0  0  0  0
  -22.1673   -4.2120   21.0984 F   0  0  0  0  0  0
  -21.5626   -3.4548   25.7744 F   0  0  0  0  0  0
  -30.0282  -13.3284   20.4131 N   0  0  0  0  0  0
  -26.3015  -12.9332   20.3337 N   0  0  0  0  0  0
  -25.9330  -11.6499   20.5759 N   0  0  0  0  0  0
  -22.0526  -12.8189   22.0421 N   0  0  0  0  0  0
  -25.4282  -15.1866   20.4026 N   0  0  0  0  0  0
  -31.8383  -14.6830   20.1190 O   0  0  0  0  0  0
  -21.6646   -6.8858   21.4237 O   0  0  0  0  0  0
  -22.3547  -14.5534   20.6726 O   0  0  0  0  0  0
  -24.6127  -31.8702   23.2152 C   0  0  0  0  0  0
  -25.9020  -32.4835   23.8439 C   0  0  1  0  0  0
  -27.2294  -27.4229   20.0899 C   0  0  0  0  0  0
  -25.5893  -33.8637   24.2368 N   0  0  0  0  0  0
  -23.4033  -30.4918   21.5604 C   0  0  2  0  0  0
  -24.8479  -28.9682   20.1161 C   0  0  0  0  0  0
  -22.7409  -29.4628   22.5036 C   0  0  0  0  0  0
  -18.0262  -28.1365   22.8450 C   0  0  0  0  0  0
  -24.1504  -36.7306   23.2624 C   0  0  0  0  0  0
  -25.9361  -30.8312   21.3749 C   0  0  0  0  0  0
  -26.0131  -29.4711   20.7077 C   0  0  0  0  0  0
  -27.2070  -28.7088   20.6849 C   0  0  0  0  0  0
  -26.0382  -26.9446   19.4904 C   0  0  0  0  0  0
  -24.8583  -27.7078   19.5005 C   0  0  0  0  0  0
  -23.6095  -29.8304   20.1733 C   0  0  0  0  0  0
  -25.4122  -36.3113   24.0327 C   0  0  1  0  0  0
  -20.5839  -28.3644   23.1310 C   0  0  2  0  0  0
  -20.6765  -26.9390   22.5397 C   0  0  0  0  0  0
  -19.5764  -26.6376   21.5175 C   0  0  0  0  0  0
  -18.1933  -26.7907   22.1582 C   0  0  0  0  0  0
  -19.1505  -28.8826   23.2866 C   0  0  0  0  0  0
  -18.9426  -30.1433   23.8872 C   0  0  0  0  0  0
  -17.6434  -30.6567   24.0538 C   0  0  0  0  0  0
  -25.9034  -34.9470   23.5136 C   0  0  0  0  0  0
  -16.5314  -29.9048   23.6342 C   0  0  0  0  0  0
  -16.7249  -28.6479   23.0339 C   0  0  0  0  0  0
  -26.4465  -31.6587   25.0738 C   0  0  0  0  0  0
  -25.3705  -31.3620   26.1449 C   0  0  0  0  0  0
  -27.0304  -30.3029   24.6109 C   0  0  0  0  0  0
  -27.6094  -32.4281   25.7439 C   0  0  0  0  0  0
  -27.5612  -37.1776   24.8442 C   0  0  0  0  0  0
  -21.4140  -29.3012   22.3733 N   0  0  0  0  0  0
  -26.4304  -37.3801   23.9407 N   0  0  0  0  0  0
  -24.6692  -31.0766   22.1090 N   0  0  0  0  0  0
  -23.4167  -28.8172   23.3082 O   0  0  0  0  0  0
  -28.3964  -26.6745   20.1178 O   0  0  0  0  0  0
  -26.5593  -34.8904   22.4698 O   0  0  0  0  0  0
  -23.5310  -32.1478   23.7518 O   0  0  0  0  0  0
  -29.6067  -20.5393   19.8933 C   0  0  0  0  0  0
  -29.5054  -21.8483   20.4090 C   0  0  0  0  0  0
  -29.4160  -19.4544   20.7780 C   0  0  0  0  0  0
  -29.1369  -20.9722   22.4909 C   0  0  0  0  0  0
  -28.9529  -21.2252   23.9728 C   0  0  0  0  0  0
  -29.3499  -17.8004   18.7963 C   0  0  0  0  0  0
  -29.6732  -23.0740   19.4999 C   0  0  0  0  0  0
  -29.6048  -24.5004   20.1318 C   0  0  0  0  0  0
  -30.3170  -16.9923   21.0148 C   0  0  0  0  0  0
  -28.2857  -25.2608   19.8617 C   0  0  0  0  0  0
  -29.3042  -17.9702   20.3282 C   0  0  1  0  0  0
  -29.2656  -22.0443   21.7186 N   0  0  0  0  0  0
  -29.1779  -19.7049   22.0843 N   0  0  0  0  0  0
  -29.9293  -15.5620   20.9209 N   0  0  0  0  0  0
  -31.4646  -12.4194   19.1088 H   0  0  0  0  0  0
  -30.3242  -11.3203   19.8350 H   0  0  0  0  0  0
  -29.7240  -11.7454   17.4354 H   0  0  0  0  0  0
  -29.6509  -13.4638   17.7321 H   0  0  0  0  0  0
  -27.8216  -11.3022   18.8252 H   0  0  0  0  0  0
  -27.3566  -12.6202   17.7842 H   0  0  0  0  0  0
  -27.6880  -14.2519   19.5437 H   0  0  0  0  0  0
  -28.6949  -11.9911   21.3446 H   0  0  0  0  0  0
  -28.4751  -13.6408   21.8469 H   0  0  0  0  0  0
  -25.2762   -9.5681   22.4749 H   0  0  0  0  0  0
  -23.9999   -7.4629   22.7479 H   0  0  0  0  0  0
  -21.0828   -8.8766   19.8952 H   0  0  0  0  0  0
  -22.3687  -10.9662   19.6163 H   0  0  0  0  0  0
  -21.2011   -7.6144   23.9695 H   0  0  0  0  0  0
  -21.1472   -6.0531   25.9074 H   0  0  0  0  0  0
  -22.0605   -2.7594   23.2873 H   0  0  0  0  0  0
  -22.4175  -11.9850   22.4770 H   0  0  0  0  0  0
  -21.1146  -13.1185   22.2651 H   0  0  0  0  0  0
  -24.6526  -15.8342   20.4909 H   0  0  0  0  0  0
  -26.2692  -15.6207   20.0457 H   0  0  0  0  0  0
  -26.7059  -32.5538   23.1177 H   0  0  0  0  0  0
  -25.0051  -33.9836   25.0513 H   0  0  0  0  0  0
  -22.6909  -31.3066   21.4308 H   0  0  0  0  0  0
  -23.3771  -35.9625   23.3282 H   0  0  0  0  0  0
  -24.3582  -36.8952   22.2033 H   0  0  0  0  0  0
  -23.7257  -37.6503   23.6662 H   0  0  0  0  0  0
  -26.0555  -31.6074   20.6188 H   0  0  0  0  0  0
  -26.8164  -30.8713   22.0020 H   0  0  0  0  0  0
  -28.1113  -29.0975   21.1373 H   0  0  0  0  0  0
  -25.9893  -25.9833   19.0035 H   0  0  0  0  0  0
  -23.9618  -27.3196   19.0377 H   0  0  0  0  0  0
  -23.7052  -30.6098   19.4185 H   0  0  0  0  0  0
  -22.7344  -29.2470   19.8848 H   0  0  0  0  0  0
  -25.1300  -36.1973   25.0818 H   0  0  0  0  0  0
  -20.9891  -28.3203   24.1446 H   0  0  0  0  0  0
  -20.5685  -26.2241   23.3569 H   0  0  0  0  0  0
  -21.6639  -26.7472   22.1198 H   0  0  0  0  0  0
  -19.6949  -25.6289   21.1234 H   0  0  0  0  0  0
  -19.6737  -27.3134   20.6664 H   0  0  0  0  0  0
  -17.4222  -26.6596   21.3974 H   0  0  0  0  0  0
  -18.0364  -26.0047   22.8979 H   0  0  0  0  0  0
  -19.7894  -30.7239   24.2235 H   0  0  0  0  0  0
  -17.4992  -31.6258   24.5124 H   0  0  0  0  0  0
  -15.5309  -30.2940   23.7736 H   0  0  0  0  0  0
  -15.8640  -28.0814   22.7068 H   0  0  0  0  0  0
  -24.5913  -30.6986   25.7691 H   0  0  0  0  0  0
  -24.8830  -32.2733   26.4922 H   0  0  0  0  0  0
  -25.8013  -30.8722   27.0194 H   0  0  0  0  0  0
  -26.2852  -29.6746   24.1223 H   0  0  0  0  0  0
  -27.4144  -29.7301   25.4562 H   0  0  0  0  0  0
  -27.8673  -30.4356   23.9240 H   0  0  0  0  0  0
  -27.2816  -33.3608   26.2033 H   0  0  0  0  0  0
  -28.3849  -32.6788   25.0187 H   0  0  0  0  0  0
  -28.0833  -31.8394   26.5315 H   0  0  0  0  0  0
  -28.2554  -38.0152   24.7631 H   0  0  0  0  0  0
  -28.1215  -36.2699   24.6137 H   0  0  0  0  0  0
  -27.2332  -37.1219   25.8836 H   0  0  0  0  0  0
  -20.9318  -29.8691   21.6900 H   0  0  0  0  0  0
  -26.0207  -38.2872   24.1462 H   0  0  0  0  0  0
  -29.7922  -20.3871   18.8392 H   0  0  0  0  0  0
  -27.9160  -21.4693   24.1989 H   0  0  0  0  0  0
  -29.5753  -22.0599   24.2971 H   0  0  0  0  0  0
  -29.2362  -20.3560   24.5671 H   0  0  0  0  0  0
  -28.5749  -18.3907   18.3048 H   0  0  0  0  0  0
  -29.1983  -16.7620   18.5047 H   0  0  0  0  0  0
  -30.3161  -18.1088   18.3932 H   0  0  0  0  0  0
  -28.9599  -22.9925   18.6805 H   0  0  0  0  0  0
  -30.6533  -22.9681   19.0338 H   0  0  0  0  0  0
  -30.3989  -25.0848   19.6672 H   0  0  0  0  0  0
  -29.8408  -24.4946   21.1959 H   0  0  0  0  0  0
  -30.3786  -17.2285   22.0761 H   0  0  0  0  0  0
  -31.3169  -17.1642   20.6138 H   0  0  0  0  0  0
  -27.4981  -24.8288   20.4820 H   0  0  0  0  0  0
  -28.0070  -25.1155   18.8178 H   0  0  0  0  0  0
  -28.3051  -17.6665   20.6430 H   0  0  0  0  0  0
  -28.9816  -15.3347   21.1806 H   0  0  0  0  0  0
  1 25  1  0  0  0
  1 30  2  0  0  0
  1 84  1  0  0  0
  2  3  1  0  0  0
  2 25  1  0  0  0
  2 85  1  0  0  0
  2 86  1  0  0  0
  3  4  1  0  0  0
  3 87  1  0  0  0
  3 88  1  0  0  0
  4  5  1  0  0  0
  4 89  1  0  0  0
  4 90  1  0  0  0
  5  6  1  0  0  0
  5 26  1  0  0  0
  5 91  1  0  0  0
  6 25  1  0  0  0
  6 92  1  0  0  0
  6 93  1  0  0  0
  7  8  2  0  0  0
  7 26  1  0  0  0
  7 29  1  0  0  0
  8  9  1  0  0  0
  8 22  1  0  0  0
  9 10  1  0  0  0
  9 27  2  0  0  0
 10 11  2  0  0  0
 10 15  1  0  0  0
 11 12  1  0  0  0
 11 94  1  0  0  0
 12 13  2  0  0  0
 12 95  1  0  0  0
 13 14  1  0  0  0
 13 31  1  0  0  0
 14 15  2  0  0  0
 14 96  1  0  0  0
 15 97  1  0  0  0
 16 17  2  0  0  0
 16 21  1  0  0  0
 16 31  1  0  0  0
 17 18  1  0  0  0
 17 98  1  0  0  0
 18 19  2  0  0  0
 18 99  1  0  0  0
 19 20  1  0  0  0
 19 24  1  0  0  0
 20 21  2  0  0  0
 20100  1  0  0  0
 21 23  1  0  0  0
 22 28  1  0  0  0
 22 32  2  0  0  0
 26 27  1  0  0  0
 28101  1  0  0  0
 28102  1  0  0  0
 29103  1  0  0  0
 29104  1  0  0  0
 33 34  1  0  0  0
 33 66  1  0  0  0
 33 70  2  0  0  0
 34 36  1  0  0  0
 34 59  1  0  0  0
 34105  1  0  0  0
 35 44  2  0  0  0
 35 45  1  0  0  0
 35 68  1  0  0  0
 36 56  1  0  0  0
 36106  1  0  0  0
 37 39  1  0  0  0
 37 47  1  0  0  0
 37 66  1  0  0  0
 37107  1  0  0  0
 38 43  2  0  0  0
 38 46  1  0  0  0
 38 47  1  0  0  0
 39 64  1  0  0  0
 39 67  2  0  0  0
 40 52  1  0  0  0
 40 53  2  0  0  0
 40 58  1  0  0  0
 41108  1  0  0  0
 41109  1  0  0  0
 41110  1  0  0  0
 41 48  1  0  0  0
 42 43  1  0  0  0
 42 66  1  0  0  0
 42111  1  0  0  0
 42112  1  0  0  0
 43 44  1  0  0  0
 44113  1  0  0  0
 45 46  2  0  0  0
 45114  1  0  0  0
 46115  1  0  0  0
 47116  1  0  0  0
 47117  1  0  0  0
 48 56  1  0  0  0
 48 65  1  0  0  0
 48118  1  0  0  0
 49 50  1  0  0  0
 49 53  1  0  0  0
 49 64  1  0  0  0
 49119  1  0  0  0
 50 51  1  0  0  0
 50120  1  0  0  0
 50121  1  0  0  0
 51 52  1  0  0  0
 51122  1  0  0  0
 51123  1  0  0  0
 52124  1  0  0  0
 52125  1  0  0  0
 53 54  1  0  0  0
 54 55  2  0  0  0
 54126  1  0  0  0
 55 57  1  0  0  0
 55127  1  0  0  0
 56 69  2  0  0  0
 57 58  2  0  0  0
 57128  1  0  0  0
 58129  1  0  0  0
 59 60  1  0  0  0
 59 61  1  0  0  0
 59 62  1  0  0  0
 60130  1  0  0  0
 60131  1  0  0  0
 60132  1  0  0  0
 61133  1  0  0  0
 61134  1  0  0  0
 61135  1  0  0  0
 62136  1  0  0  0
 62137  1  0  0  0
 62138  1  0  0  0
 63 65  1  0  0  0
 63139  1  0  0  0
 63140  1  0  0  0
 63141  1  0  0  0
 64142  1  0  0  0
 65143  1  0  0  0
 68 80  1  0  0  0
 71 72  2  0  0  0
 71 73  1  0  0  0
 71144  1  0  0  0
 72 77  1  0  0  0
 72 82  1  0  0  0
 73 81  1  0  0  0
 73 83  2  0  0  0
 74 75  1  0  0  0
 74 82  2  0  0  0
 74 83  1  0  0  0
 75145  1  0  0  0
 75146  1  0  0  0
 75147  1  0  0  0
 76148  1  0  0  0
 76149  1  0  0  0
 76150  1  0  0  0
 76 81  1  0  0  0
 77 78  1  0  0  0
 77151  1  0  0  0
 77152  1  0  0  0
 78 80  1  0  0  0
 78153  1  0  0  0
 78154  1  0  0  0
 79 81  1  0  0  0
 79 84  1  0  0  0
 79155  1  0  0  0
 79156  1  0  0  0
 80157  1  0  0  0
 80158  1  0  0  0
 81159  1  0  0  0
 84160  1  0  0  0
M  ISO  4   1 100  68 101  80 101  84 100
M  END
> <chiral flag>
0

> <version>
0

> <s_m_source_file>
/data/baiqing/PycharmProjects/Reinvent-master-3.2/result/LINK_invent/BTK/process_docking_weight1_custom_sum_contain_oxygen_bond_distance_aromatic_linkinvent_7_9_3/rearranged_h_0080.sdf

> <i_m_source_file_index>
51

> <r_mmod_Potential_Energy-OPLS-2005>
-512.649719238281

> <r_mmod_Stretch_Energy-OPLS-2005>
41.9106674194336

> <r_mmod_Bend_Energy-OPLS-2005>
106.958198547363

> <r_mmod_Torsional_Energy-OPLS-2005>
214.023544311523

> <r_mmod_Improper_Torsional_Energy-OPLS-2005>
4.53952121734619

> <r_mmod_Van_der_Waal_Energy-OPLS-2005>
164.267837524414

> <r_mmod_Electrostatic_Energy-OPLS-2005>
-830.8974609375

> <r_mmod_Solvation_Energy-OPLS-2005>
-231.986206054688

> <b_mmod_Minimization_Converged-OPLS-2005>
0

> <r_mmod_RMS_Derivative-OPLS-2005>
3.80954813957214

$$$$
53
                    3D
 Structure written by MMmdl.
160168  0  0  1  0            999 V2000
  -30.6739  -14.5829   20.4974 C   0  0  0  0  0  0
  -30.4145  -12.3521   19.4650 C   0  0  0  0  0  0
  -29.5042  -12.4923   18.2284 C   0  0  0  0  0  0
  -28.0257  -12.3445   18.6343 C   0  0  0  0  0  0
  -27.6492  -13.2211   19.8588 C   0  0  2  0  0  0
  -28.6872  -13.1006   20.9985 C   0  0  0  0  0  0
  -25.2535  -13.8171   20.5689 C   0  0  0  0  0  0
  -24.1819  -13.0433   20.9256 C   0  0  0  0  0  0
  -24.6389  -11.6913   20.8767 C   0  0  0  0  0  0
  -23.9068  -10.4287   21.0410 C   0  0  0  0  0  0
  -24.3617   -9.4200   21.9181 C   0  0  0  0  0  0
  -23.6292   -8.2235   22.0751 C   0  0  0  0  0  0
  -22.4275   -8.0274   21.3539 C   0  0  0  0  0  0
  -21.9914   -9.0255   20.4650 C   0  0  0  0  0  0
  -22.7241  -10.2134   20.3061 C   0  0  0  0  0  0
  -21.6850   -6.0736   22.5270 C   0  0  0  0  0  0
  -21.4018   -6.5641   23.8208 C   0  0  0  0  0  0
  -21.3657   -5.6790   24.9172 C   0  0  0  0  0  0
  -21.6051   -4.3055   24.7222 C   0  0  0  0  0  0
  -21.8817   -3.8143   23.4343 C   0  0  0  0  0  0
  -21.9197   -4.6962   22.3398 C   0  0  0  0  0  0
  -22.7843  -13.5226   21.1889 C   0  0  0  0  0  0
  -22.1662   -4.2148   21.0978 F   0  0  0  0  0  0
  -21.5628   -3.4539   25.7737 F   0  0  0  0  0  0
  -30.0095  -13.3909   20.4326 N   0  0  0  0  0  0
  -26.2951  -12.9367   20.3282 N   0  0  0  0  0  0
  -25.9305  -11.6514   20.5731 N   0  0  0  0  0  0
  -22.0474  -12.8221   22.0441 N   0  0  0  0  0  0
  -25.4239  -15.1866   20.3961 N   0  0  0  0  0  0
  -31.8443  -14.6790   20.1210 O   0  0  0  0  0  0
  -21.6633   -6.8873   21.4229 O   0  0  0  0  0  0
  -22.3563  -14.5528   20.6722 O   0  0  0  0  0  0
  -24.6173  -31.8653   23.2061 C   0  0  0  0  0  0
  -25.9054  -32.4812   23.8367 C   0  0  1  0  0  0
  -27.2326  -27.3877   20.1010 C   0  0  0  0  0  0
  -25.5904  -33.8610   24.2306 N   0  0  0  0  0  0
  -23.4053  -30.4862   21.5510 C   0  0  2  0  0  0
  -24.8478  -28.9440   20.1159 C   0  0  0  0  0  0
  -22.7440  -29.4600   22.4985 C   0  0  0  0  0  0
  -18.0293  -28.1342   22.8407 C   0  0  0  0  0  0
  -24.1490  -36.7307   23.2648 C   0  0  0  0  0  0
  -25.9361  -30.8173   21.3599 C   0  0  0  0  0  0
  -26.0099  -29.4466   20.7090 C   0  0  0  0  0  0
  -27.1993  -28.6763   20.6972 C   0  0  0  0  0  0
  -26.0395  -26.9022   19.5138 C   0  0  0  0  0  0
  -24.8592  -27.6713   19.5172 C   0  0  0  0  0  0
  -23.6136  -29.8192   20.1646 C   0  0  0  0  0  0
  -25.4106  -36.3106   24.0352 C   0  0  1  0  0  0
  -20.5862  -28.3571   23.1207 C   0  0  2  0  0  0
  -20.6787  -26.9330   22.5171 C   0  0  0  0  0  0
  -19.5651  -26.6117   21.5144 C   0  0  0  0  0  0
  -18.1876  -26.7861   22.1566 C   0  0  0  0  0  0
  -19.1562  -28.8771   23.2807 C   0  0  0  0  0  0
  -18.9492  -30.1367   23.8848 C   0  0  0  0  0  0
  -17.6508  -30.6554   24.0495 C   0  0  0  0  0  0
  -25.9048  -34.9481   23.5119 C   0  0  0  0  0  0
  -16.5380  -29.9045   23.6344 C   0  0  0  0  0  0
  -16.7294  -28.6458   23.0366 C   0  0  0  0  0  0
  -26.4471  -31.6605   25.0696 C   0  0  0  0  0  0
  -25.3722  -31.3723   26.1432 C   0  0  0  0  0  0
  -27.0304  -30.3056   24.6066 C   0  0  0  0  0  0
  -27.6054  -32.4312   25.7461 C   0  0  0  0  0  0
  -27.5578  -37.1815   24.8470 C   0  0  0  0  0  0
  -21.4158  -29.3054   22.3756 N   0  0  0  0  0  0
  -26.4278  -37.3795   23.9430 N   0  0  0  0  0  0
  -24.6727  -31.0708   22.0981 N   0  0  0  0  0  0
  -23.4215  -28.8066   23.2966 O   0  0  0  0  0  0
  -28.4231  -26.6690   20.1305 O   0  0  0  0  0  0
  -26.5607  -34.8936   22.4688 O   0  0  0  0  0  0
  -23.5368  -32.1426   23.7465 O   0  0  0  0  0  0
  -27.3891  -18.2428   20.4272 C   0  0  0  0  0  0
  -28.5248  -18.9620   20.7055 C   0  0  0  0  0  0
  -26.7739  -20.3681   20.5239 C   0  0  0  0  0  0
  -25.8691  -21.5660   20.5094 C   0  0  0  0  0  0
  -28.8210  -22.7408   20.0734 C   0  0  0  0  0  0
  -28.4607  -24.1702   20.6201 C   0  0  0  0  0  0
  -28.8448  -21.5649   21.1220 C   0  0  0  0  0  0
  -30.3546  -17.0634   20.2457 C   0  0  0  0  0  0
  -28.5538  -25.3334   19.5779 C   0  0  0  0  0  0
  -29.9237  -18.4090   20.9654 C   0  0  0  0  0  0
  -28.1026  -20.3073   20.7581 N   0  0  0  0  0  0
  -26.3522  -19.1214   20.3200 N   0  3  0  0  0  0
  -29.9365  -15.7070   20.7341 N   0  0  0  0  0  0
  -30.7799  -19.3191   20.5011 F   0  0  0  0  0  0
  -30.1208  -18.2925   22.2785 F   0  0  0  0  0  0
  -31.4625  -12.4273   19.1697 H   0  0  0  0  0  0
  -30.3036  -11.3623   19.9101 H   0  0  0  0  0  0
  -29.7652  -11.7405   17.4820 H   0  0  0  0  0  0
  -29.6656  -13.4621   17.7564 H   0  0  0  0  0  0
  -27.8526  -11.2933   18.8662 H   0  0  0  0  0  0
  -27.3774  -12.5802   17.7887 H   0  0  0  0  0  0
  -27.6626  -14.2530   19.5044 H   0  0  0  0  0  0
  -28.6723  -12.1013   21.4377 H   0  0  0  0  0  0
  -28.4447  -13.7913   21.8085 H   0  0  0  0  0  0
  -25.2764   -9.5668   22.4755 H   0  0  0  0  0  0
  -24.0006   -7.4620   22.7461 H   0  0  0  0  0  0
  -21.0858   -8.8779   19.8947 H   0  0  0  0  0  0
  -22.3707  -10.9678   19.6172 H   0  0  0  0  0  0
  -21.2007   -7.6145   23.9719 H   0  0  0  0  0  0
  -21.1483   -6.0516   25.9080 H   0  0  0  0  0  0
  -22.0599   -2.7606   23.2840 H   0  0  0  0  0  0
  -22.4079  -11.9874   22.4820 H   0  0  0  0  0  0
  -21.1081  -13.1243   22.2614 H   0  0  0  0  0  0
  -24.5963  -15.7734   20.3908 H   0  0  0  0  0  0
  -26.1390  -15.5068   19.7586 H   0  0  0  0  0  0
  -26.7089  -32.5499   23.1103 H   0  0  0  0  0  0
  -25.0055  -33.9775   25.0445 H   0  0  0  0  0  0
  -22.6945  -31.3042   21.4148 H   0  0  0  0  0  0
  -23.3751  -35.9634   23.3291 H   0  0  0  0  0  0
  -24.3591  -36.8936   22.2063 H   0  0  0  0  0  0
  -23.7236  -37.6513   23.6654 H   0  0  0  0  0  0
  -26.0501  -31.5797   20.5876 H   0  0  0  0  0  0
  -26.8258  -30.8749   21.9738 H   0  0  0  0  0  0
  -28.0971  -29.0634   21.1590 H   0  0  0  0  0  0
  -25.9828  -25.9265   19.0539 H   0  0  0  0  0  0
  -23.9592  -27.2745   19.0700 H   0  0  0  0  0  0
  -23.7357  -30.5953   19.4089 H   0  0  0  0  0  0
  -22.7331  -29.2475   19.8652 H   0  0  0  0  0  0
  -25.1284  -36.1970   25.0836 H   0  0  0  0  0  0
  -20.9999  -28.2996   24.1297 H   0  0  0  0  0  0
  -20.5955  -26.2117   23.3331 H   0  0  0  0  0  0
  -21.6597  -26.7494   22.0791 H   0  0  0  0  0  0
  -19.6710  -25.5899   21.1478 H   0  0  0  0  0  0
  -19.6533  -27.2576   20.6391 H   0  0  0  0  0  0
  -17.4101  -26.6556   21.4017 H   0  0  0  0  0  0
  -18.0267  -26.0029   22.8987 H   0  0  0  0  0  0
  -19.7958  -30.7178   24.2217 H   0  0  0  0  0  0
  -17.5112  -31.6305   24.4986 H   0  0  0  0  0  0
  -15.5380  -30.2952   23.7718 H   0  0  0  0  0  0
  -15.8698  -28.0737   22.7127 H   0  0  0  0  0  0
  -24.5882  -30.7095   25.7748 H   0  0  0  0  0  0
  -24.8915  -32.2882   26.4876 H   0  0  0  0  0  0
  -25.8049  -30.8871   27.0193 H   0  0  0  0  0  0
  -26.2850  -29.6808   24.1123 H   0  0  0  0  0  0
  -27.4105  -29.7301   25.4523 H   0  0  0  0  0  0
  -27.8663  -30.4393   23.9195 H   0  0  0  0  0  0
  -27.2691  -33.3603   26.2079 H   0  0  0  0  0  0
  -28.3846  -32.6899   25.0274 H   0  0  0  0  0  0
  -28.0729  -31.8399   26.5347 H   0  0  0  0  0  0
  -28.2610  -38.0108   24.7526 H   0  0  0  0  0  0
  -28.1073  -36.2646   24.6276 H   0  0  0  0  0  0
  -27.2312  -37.1445   25.8882 H   0  0  0  0  0  0
  -20.9307  -29.8964   21.7157 H   0  0  0  0  0  0
  -26.0172  -38.2874   24.1425 H   0  0  0  0  0  0
  -27.2473  -17.1794   20.3233 H   0  0  0  0  0  0
  -26.0958  -22.2089   21.3592 H   0  0  0  0  0  0
  -24.8377  -21.2272   20.5789 H   0  0  0  0  0  0
  -26.0039  -22.1006   19.5707 H   0  0  0  0  0  0
  -29.8078  -22.7901   19.6121 H   0  0  0  0  0  0
  -28.1595  -22.5005   19.2446 H   0  0  0  0  0  0
  -29.1347  -24.4034   21.4452 H   0  0  0  0  0  0
  -27.4564  -24.1663   21.0450 H   0  0  0  0  0  0
  -28.4123  -21.9139   22.0587 H   0  0  0  0  0  0
  -29.8718  -21.3072   21.3701 H   0  0  0  0  0  0
  -31.4453  -17.0788   20.2814 H   0  0  0  0  0  0
  -30.1132  -17.1402   19.1869 H   0  0  0  0  0  0
  -27.8949  -25.1567   18.7297 H   0  0  0  0  0  0
  -29.5555  -25.3027   19.1448 H   0  0  0  0  0  0
  -25.3873  -18.8666   20.1403 H   0  0  0  0  0  0
  -28.9812  -15.5788   21.0260 H   0  0  0  0  0  0
  1 25  1  0  0  0
  1 30  2  0  0  0
  1 83  1  0  0  0
  2  3  1  0  0  0
  2 25  1  0  0  0
  2 86  1  0  0  0
  2 87  1  0  0  0
  3  4  1  0  0  0
  3 88  1  0  0  0
  3 89  1  0  0  0
  4  5  1  0  0  0
  4 90  1  0  0  0
  4 91  1  0  0  0
  5  6  1  0  0  0
  5 26  1  0  0  0
  5 92  1  0  0  0
  6 25  1  0  0  0
  6 93  1  0  0  0
  6 94  1  0  0  0
  7  8  2  0  0  0
  7 26  1  0  0  0
  7 29  1  0  0  0
  8  9  1  0  0  0
  8 22  1  0  0  0
  9 10  1  0  0  0
  9 27  2  0  0  0
 10 11  2  0  0  0
 10 15  1  0  0  0
 11 12  1  0  0  0
 11 95  1  0  0  0
 12 13  2  0  0  0
 12 96  1  0  0  0
 13 14  1  0  0  0
 13 31  1  0  0  0
 14 15  2  0  0  0
 14 97  1  0  0  0
 15 98  1  0  0  0
 16 17  2  0  0  0
 16 21  1  0  0  0
 16 31  1  0  0  0
 17 18  1  0  0  0
 17 99  1  0  0  0
 18 19  2  0  0  0
 18100  1  0  0  0
 19 20  1  0  0  0
 19 24  1  0  0  0
 20 21  2  0  0  0
 20101  1  0  0  0
 21 23  1  0  0  0
 22 28  1  0  0  0
 22 32  2  0  0  0
 26 27  1  0  0  0
 28102  1  0  0  0
 28103  1  0  0  0
 29104  1  0  0  0
 29105  1  0  0  0
 33 34  1  0  0  0
 33 66  1  0  0  0
 33 70  2  0  0  0
 34 36  1  0  0  0
 34 59  1  0  0  0
 34106  1  0  0  0
 35 44  2  0  0  0
 35 45  1  0  0  0
 35 68  1  0  0  0
 36 56  1  0  0  0
 36107  1  0  0  0
 37 39  1  0  0  0
 37 47  1  0  0  0
 37 66  1  0  0  0
 37108  1  0  0  0
 38 43  2  0  0  0
 38 46  1  0  0  0
 38 47  1  0  0  0
 39 64  1  0  0  0
 39 67  2  0  0  0
 40 52  1  0  0  0
 40 53  2  0  0  0
 40 58  1  0  0  0
 41109  1  0  0  0
 41110  1  0  0  0
 41111  1  0  0  0
 41 48  1  0  0  0
 42 43  1  0  0  0
 42 66  1  0  0  0
 42112  1  0  0  0
 42113  1  0  0  0
 43 44  1  0  0  0
 44114  1  0  0  0
 45 46  2  0  0  0
 45115  1  0  0  0
 46116  1  0  0  0
 47117  1  0  0  0
 47118  1  0  0  0
 48 56  1  0  0  0
 48 65  1  0  0  0
 48119  1  0  0  0
 49 50  1  0  0  0
 49 53  1  0  0  0
 49 64  1  0  0  0
 49120  1  0  0  0
 50 51  1  0  0  0
 50121  1  0  0  0
 50122  1  0  0  0
 51 52  1  0  0  0
 51123  1  0  0  0
 51124  1  0  0  0
 52125  1  0  0  0
 52126  1  0  0  0
 53 54  1  0  0  0
 54 55  2  0  0  0
 54127  1  0  0  0
 55 57  1  0  0  0
 55128  1  0  0  0
 56 69  2  0  0  0
 57 58  2  0  0  0
 57129  1  0  0  0
 58130  1  0  0  0
 59 60  1  0  0  0
 59 61  1  0  0  0
 59 62  1  0  0  0
 60131  1  0  0  0
 60132  1  0  0  0
 60133  1  0  0  0
 61134  1  0  0  0
 61135  1  0  0  0
 61136  1  0  0  0
 62137  1  0  0  0
 62138  1  0  0  0
 62139  1  0  0  0
 63 65  1  0  0  0
 63140  1  0  0  0
 63141  1  0  0  0
 63142  1  0  0  0
 64143  1  0  0  0
 65144  1  0  0  0
 68 79  1  0  0  0
 71 72  2  0  0  0
 71 82  1  0  0  0
 71145  1  0  0  0
 72 80  1  0  0  0
 72 81  1  0  0  0
 73 74  1  0  0  0
 73 81  1  0  0  0
 73 82  2  0  0  0
 74146  1  0  0  0
 74147  1  0  0  0
 74148  1  0  0  0
 75 76  1  0  0  0
 75 77  1  0  0  0
 75149  1  0  0  0
 75150  1  0  0  0
 76 79  1  0  0  0
 76151  1  0  0  0
 76152  1  0  0  0
 77 81  1  0  0  0
 77153  1  0  0  0
 77154  1  0  0  0
 78 80  1  0  0  0
 78 83  1  0  0  0
 78155  1  0  0  0
 78156  1  0  0  0
 79157  1  0  0  0
 79158  1  0  0  0
 80 84  1  0  0  0
 80 85  1  0  0  0
 82159  1  0  0  0
 83160  1  0  0  0
M  CHG  1  82   1
M  ISO  4   1 100  68 101  79 101  83 100
M  END
> <chiral flag>
0

> <version>
0

> <s_m_source_file>
/data/baiqing/PycharmProjects/Reinvent-master-3.2/result/LINK_invent/BTK/process_docking_weight1_custom_sum_contain_oxygen_bond_distance_aromatic_linkinvent_7_9_3/rearranged_h_0080.sdf

> <i_m_source_file_index>
52

> <r_mmod_Potential_Energy-OPLS-2005>
-114.332046508789

> <r_mmod_Stretch_Energy-OPLS-2005>
58.7970504760742

> <r_mmod_Bend_Energy-OPLS-2005>
139.150665283203

> <r_mmod_Torsional_Energy-OPLS-2005>
240.205993652344

> <r_mmod_Improper_Torsional_Energy-OPLS-2005>
10.3141498565674

> <r_mmod_Van_der_Waal_Energy-OPLS-2005>
124.723182678223

> <r_mmod_Electrostatic_Energy-OPLS-2005>
-282.345764160156

> <r_mmod_Solvation_Energy-OPLS-2005>
-434.418670654297

> <b_mmod_Minimization_Converged-OPLS-2005>
0

> <r_mmod_RMS_Derivative-OPLS-2005>
3.66146802902222

$$$$
54
                    3D
 Structure written by MMmdl.
175183  0  0  1  0            999 V2000
  -30.7322  -14.4644   20.4755 C   0  0  0  0  0  0
  -30.4305  -12.2703   19.4363 C   0  0  0  0  0  0
  -29.5010  -12.4135   18.2126 C   0  0  0  0  0  0
  -28.0163  -12.3350   18.6244 C   0  0  0  0  0  0
  -27.6637  -13.2053   19.8626 C   0  0  2  0  0  0
  -28.7126  -13.0531   20.9871 C   0  0  0  0  0  0
  -25.2651  -13.8136   20.5764 C   0  0  0  0  0  0
  -24.1863  -13.0435   20.9217 C   0  0  0  0  0  0
  -24.6408  -11.6900   20.8765 C   0  0  0  0  0  0
  -23.9037  -10.4308   21.0417 C   0  0  0  0  0  0
  -24.3591   -9.4224   21.9200 C   0  0  0  0  0  0
  -23.6283   -8.2237   22.0733 C   0  0  0  0  0  0
  -22.4260   -8.0281   21.3524 C   0  0  0  0  0  0
  -21.9884   -9.0263   20.4631 C   0  0  0  0  0  0
  -22.7211  -10.2148   20.3045 C   0  0  0  0  0  0
  -21.6814   -6.0759   22.5303 C   0  0  0  0  0  0
  -21.4015   -6.5679   23.8251 C   0  0  0  0  0  0
  -21.3641   -5.6826   24.9221 C   0  0  0  0  0  0
  -21.6007   -4.3084   24.7245 C   0  0  0  0  0  0
  -21.8812   -3.8177   23.4375 C   0  0  0  0  0  0
  -21.9183   -4.6990   22.3437 C   0  0  0  0  0  0
  -22.7893  -13.5257   21.1872 C   0  0  0  0  0  0
  -22.1648   -4.2179   21.1007 F   0  0  0  0  0  0
  -21.5594   -3.4556   25.7757 F   0  0  0  0  0  0
  -30.0379  -13.3017   20.4047 N   0  0  0  0  0  0
  -26.3066  -12.9302   20.3354 N   0  0  0  0  0  0
  -25.9341  -11.6471   20.5802 N   0  0  0  0  0  0
  -22.0499  -12.8233   22.0395 N   0  0  0  0  0  0
  -25.4504  -15.1821   20.4198 N   0  0  0  0  0  0
  -31.9352  -14.5516   20.2274 O   0  0  0  0  0  0
  -21.6615   -6.8880   21.4245 O   0  0  0  0  0  0
  -22.3611  -14.5588   20.6758 O   0  0  0  0  0  0
  -24.6116  -31.8702   23.2122 C   0  0  0  0  0  0
  -25.9016  -32.4824   23.8421 C   0  0  1  0  0  0
  -27.2244  -27.4660   20.0999 C   0  0  0  0  0  0
  -25.5883  -33.8618   24.2363 N   0  0  0  0  0  0
  -23.3985  -30.4940   21.5520 C   0  0  2  0  0  0
  -24.8437  -28.9638   20.1173 C   0  0  0  0  0  0
  -22.7396  -29.4653   22.4995 C   0  0  0  0  0  0
  -18.0265  -28.1365   22.8500 C   0  0  0  0  0  0
  -24.1481  -36.7315   23.2635 C   0  0  0  0  0  0
  -25.9244  -30.8444   21.3666 C   0  0  0  0  0  0
  -26.0023  -29.4825   20.7150 C   0  0  0  0  0  0
  -27.2000  -28.7367   20.7048 C   0  0  0  0  0  0
  -26.0615  -26.9592   19.4893 C   0  0  0  0  0  0
  -24.8663  -27.6998   19.5034 C   0  0  0  0  0  0
  -23.6068  -29.8286   20.1667 C   0  0  0  0  0  0
  -25.4089  -36.3112   24.0358 C   0  0  1  0  0  0
  -20.5851  -28.3633   23.1319 C   0  0  2  0  0  0
  -20.6743  -26.9376   22.5403 C   0  0  0  0  0  0
  -19.5733  -26.6382   21.5197 C   0  0  0  0  0  0
  -18.1911  -26.7912   22.1616 C   0  0  0  0  0  0
  -19.1510  -28.8815   23.2897 C   0  0  0  0  0  0
  -18.9436  -30.1435   23.8900 C   0  0  0  0  0  0
  -17.6439  -30.6576   24.0533 C   0  0  0  0  0  0
  -25.9028  -34.9481   23.5150 C   0  0  0  0  0  0
  -16.5335  -29.9075   23.6319 C   0  0  0  0  0  0
  -16.7240  -28.6482   23.0343 C   0  0  0  0  0  0
  -26.4478  -31.6586   25.0736 C   0  0  0  0  0  0
  -25.3777  -31.3684   26.1513 C   0  0  0  0  0  0
  -27.0256  -30.3007   24.6096 C   0  0  0  0  0  0
  -27.6091  -32.4275   25.7462 C   0  0  0  0  0  0
  -27.5603  -37.1776   24.8449 C   0  0  0  0  0  0
  -21.4119  -29.3010   22.3744 N   0  0  0  0  0  0
  -26.4266  -37.3822   23.9453 N   0  0  0  0  0  0
  -24.6627  -31.0837   22.1016 N   0  0  0  0  0  0
  -23.4187  -28.8192   23.3008 O   0  0  0  0  0  0
  -28.3710  -26.7188   20.0861 O   0  0  0  0  0  0
  -26.5579  -34.8931   22.4713 O   0  0  0  0  0  0
  -23.5305  -32.1415   23.7546 O   0  0  0  0  0  0
  -25.4241  -23.4613   20.7628 C   0  0  0  0  0  0
  -24.7799  -22.6306   21.6445 C   0  0  0  0  0  0
  -26.8378  -21.8405   21.3413 C   0  0  0  0  0  0
  -31.1791  -20.9844   20.1760 C   0  0  0  0  0  0
  -27.0160  -19.3101   19.7462 C   0  0  0  0  0  0
  -29.9086  -16.1215   19.0069 C   0  0  0  0  0  0
  -28.0213  -20.9246   21.4784 C   0  0  0  0  0  0
  -30.7711  -19.7118   20.9410 C   0  0  0  0  0  0
  -28.8280  -24.3425   20.3980 C   0  0  0  0  0  0
  -29.1047  -17.7784   21.3351 C   0  0  0  0  0  0
  -27.7277  -23.5114   19.6978 C   0  0  0  0  0  0
  -30.1308  -16.6126   21.4100 C   0  0  0  0  0  0
  -28.3707  -25.6617   21.0422 C   0  0  0  0  0  0
  -28.2930  -20.0079   20.2565 C   0  0  1  0  0  0
  -29.4742  -19.0160   20.4540 C   0  0  1  0  0  0
  -26.6930  -22.9569   20.5948 N   0  0  0  0  0  0
  -25.6739  -21.6526   21.9737 N   0  3  0  0  0  0
  -29.9736  -15.5775   20.3702 N   0  0  0  0  0  0
  -31.4737  -12.3602   19.1283 H   0  0  0  0  0  0
  -30.3497  -11.2800   19.8883 H   0  0  0  0  0  0
  -29.7240  -11.6265   17.4922 H   0  0  0  0  0  0
  -29.6925  -13.3485   17.6909 H   0  0  0  0  0  0
  -27.7935  -11.2889   18.8277 H   0  0  0  0  0  0
  -27.3804  -12.6212   17.7855 H   0  0  0  0  0  0
  -27.6894  -14.2427   19.5278 H   0  0  0  0  0  0
  -28.6827  -12.0508   21.4167 H   0  0  0  0  0  0
  -28.5041  -13.7489   21.8023 H   0  0  0  0  0  0
  -25.2698   -9.5690   22.4852 H   0  0  0  0  0  0
  -23.9993   -7.4605   22.7432 H   0  0  0  0  0  0
  -21.0799   -8.8780   19.8955 H   0  0  0  0  0  0
  -22.3648  -10.9716   19.6181 H   0  0  0  0  0  0
  -21.2058   -7.6198   23.9736 H   0  0  0  0  0  0
  -21.1426   -6.0581   25.9111 H   0  0  0  0  0  0
  -22.0602   -2.7639   23.2864 H   0  0  0  0  0  0
  -22.4054  -11.9850   22.4751 H   0  0  0  0  0  0
  -21.1124  -13.1270   22.2655 H   0  0  0  0  0  0
  -24.7044  -15.8571   20.5372 H   0  0  0  0  0  0
  -26.3322  -15.5981   20.1500 H   0  0  0  0  0  0
  -26.7081  -32.5569   23.1199 H   0  0  0  0  0  0
  -25.0077  -33.9769   25.0532 H   0  0  0  0  0  0
  -22.6830  -31.3087   21.4131 H   0  0  0  0  0  0
  -23.3792  -35.9598   23.3205 H   0  0  0  0  0  0
  -24.3633  -36.9004   22.2075 H   0  0  0  0  0  0
  -23.7142  -37.6460   23.6688 H   0  0  0  0  0  0
  -26.0364  -31.6144   20.6004 H   0  0  0  0  0  0
  -26.8139  -30.8932   21.9851 H   0  0  0  0  0  0
  -28.0963  -29.1301   21.1629 H   0  0  0  0  0  0
  -26.0838  -26.0004   18.9951 H   0  0  0  0  0  0
  -23.9787  -27.2969   19.0319 H   0  0  0  0  0  0
  -23.7138  -30.6016   19.4034 H   0  0  0  0  0  0
  -22.7350  -29.2406   19.8748 H   0  0  0  0  0  0
  -25.1255  -36.1974   25.0852 H   0  0  0  0  0  0
  -20.9923  -28.3173   24.1446 H   0  0  0  0  0  0
  -20.5610  -26.2249   23.3586 H   0  0  0  0  0  0
  -21.6599  -26.7410   22.1192 H   0  0  0  0  0  0
  -19.6860  -25.6289   21.1230 H   0  0  0  0  0  0
  -19.6674  -27.3196   20.6729 H   0  0  0  0  0  0
  -17.4171  -26.6661   21.4019 H   0  0  0  0  0  0
  -18.0296  -26.0053   22.9013 H   0  0  0  0  0  0
  -19.7910  -30.7231   24.2277 H   0  0  0  0  0  0
  -17.4998  -31.6269   24.5116 H   0  0  0  0  0  0
  -15.5317  -30.2962   23.7668 H   0  0  0  0  0  0
  -15.8639  -28.0812   22.7052 H   0  0  0  0  0  0
  -24.5897  -30.7098   25.7849 H   0  0  0  0  0  0
  -24.9059  -32.2844   26.5071 H   0  0  0  0  0  0
  -25.8164  -30.8755   27.0194 H   0  0  0  0  0  0
  -26.2743  -29.6773   24.1227 H   0  0  0  0  0  0
  -27.4063  -29.7243   25.4534 H   0  0  0  0  0  0
  -27.8589  -30.4286   23.9186 H   0  0  0  0  0  0
  -27.2783  -33.3621   26.2003 H   0  0  0  0  0  0
  -28.3927  -32.6726   25.0282 H   0  0  0  0  0  0
  -28.0721  -31.8394   26.5400 H   0  0  0  0  0  0
  -28.2516  -38.0176   24.7651 H   0  0  0  0  0  0
  -28.1195  -36.2716   24.6059 H   0  0  0  0  0  0
  -27.2368  -37.1153   25.8854 H   0  0  0  0  0  0
  -20.9264  -29.8777   21.7016 H   0  0  0  0  0  0
  -26.0163  -38.2882   24.1544 H   0  0  0  0  0  0
  -25.0583  -24.3457   20.2588 H   0  0  0  0  0  0
  -23.7759  -22.6568   22.0447 H   0  0  0  0  0  0
  -32.1478  -21.3503   20.5190 H   0  0  0  0  0  0
  -30.4819  -21.8056   20.3092 H   0  0  0  0  0  0
  -31.2625  -20.7979   19.1053 H   0  0  0  0  0  0
  -26.3099  -20.0181   19.3115 H   0  0  0  0  0  0
  -26.4921  -18.7826   20.5414 H   0  0  0  0  0  0
  -27.2593  -18.5788   18.9759 H   0  0  0  0  0  0
  -28.9516  -16.6062   18.8185 H   0  0  0  0  0  0
  -30.0175  -15.3622   18.2361 H   0  0  0  0  0  0
  -30.7216  -16.8286   18.8295 H   0  0  0  0  0  0
  -27.8420  -20.3189   22.3638 H   0  0  0  0  0  0
  -28.8673  -21.5598   21.7288 H   0  0  0  0  0  0
  -30.6950  -19.9277   22.0077 H   0  0  0  0  0  0
  -31.6014  -19.0128   20.8375 H   0  0  0  0  0  0
  -29.6181  -24.5610   19.6786 H   0  0  0  0  0  0
  -29.3027  -23.7396   21.1701 H   0  0  0  0  0  0
  -28.9241  -18.1321   22.3505 H   0  0  0  0  0  0
  -28.1565  -17.3422   21.0203 H   0  0  0  0  0  0
  -28.1797  -22.6916   19.1477 H   0  0  0  0  0  0
  -27.2271  -24.1103   18.9378 H   0  0  0  0  0  0
  -29.9701  -16.1168   22.3693 H   0  0  0  0  0  0
  -31.1602  -16.9745   21.4433 H   0  0  0  0  0  0
  -29.0753  -25.9368   21.8279 H   0  0  0  0  0  0
  -27.4080  -25.5303   21.5386 H   0  0  0  0  0  0
  -28.6013  -20.6404   19.4265 H   0  0  0  0  0  0
  -29.6920  -18.6650   19.4490 H   0  0  0  0  0  0
  -25.4837  -20.8820   22.6030 H   0  0  0  0  0  0
  1 25  1  0  0  0
  1 30  2  0  0  0
  1 88  1  0  0  0
  2  3  1  0  0  0
  2 25  1  0  0  0
  2 89  1  0  0  0
  2 90  1  0  0  0
  3  4  1  0  0  0
  3 91  1  0  0  0
  3 92  1  0  0  0
  4  5  1  0  0  0
  4 93  1  0  0  0
  4 94  1  0  0  0
  5  6  1  0  0  0
  5 26  1  0  0  0
  5 95  1  0  0  0
  6 25  1  0  0  0
  6 96  1  0  0  0
  6 97  1  0  0  0
  7  8  2  0  0  0
  7 26  1  0  0  0
  7 29  1  0  0  0
  8  9  1  0  0  0
  8 22  1  0  0  0
  9 10  1  0  0  0
  9 27  2  0  0  0
 10 11  2  0  0  0
 10 15  1  0  0  0
 11 12  1  0  0  0
 11 98  1  0  0  0
 12 13  2  0  0  0
 12 99  1  0  0  0
 13 14  1  0  0  0
 13 31  1  0  0  0
 14 15  2  0  0  0
 14100  1  0  0  0
 15101  1  0  0  0
 16 17  2  0  0  0
 16 21  1  0  0  0
 16 31  1  0  0  0
 17 18  1  0  0  0
 17102  1  0  0  0
 18 19  2  0  0  0
 18103  1  0  0  0
 19 20  1  0  0  0
 19 24  1  0  0  0
 20 21  2  0  0  0
 20104  1  0  0  0
 21 23  1  0  0  0
 22 28  1  0  0  0
 22 32  2  0  0  0
 26 27  1  0  0  0
 28105  1  0  0  0
 28106  1  0  0  0
 29107  1  0  0  0
 29108  1  0  0  0
 33 34  1  0  0  0
 33 66  1  0  0  0
 33 70  2  0  0  0
 34 36  1  0  0  0
 34 59  1  0  0  0
 34109  1  0  0  0
 35 44  2  0  0  0
 35 45  1  0  0  0
 35 68  1  0  0  0
 36 56  1  0  0  0
 36110  1  0  0  0
 37 39  1  0  0  0
 37 47  1  0  0  0
 37 66  1  0  0  0
 37111  1  0  0  0
 38 43  2  0  0  0
 38 46  1  0  0  0
 38 47  1  0  0  0
 39 64  1  0  0  0
 39 67  2  0  0  0
 40 52  1  0  0  0
 40 53  2  0  0  0
 40 58  1  0  0  0
 41112  1  0  0  0
 41113  1  0  0  0
 41114  1  0  0  0
 41 48  1  0  0  0
 42 43  1  0  0  0
 42 66  1  0  0  0
 42115  1  0  0  0
 42116  1  0  0  0
 43 44  1  0  0  0
 44117  1  0  0  0
 45 46  2  0  0  0
 45118  1  0  0  0
 46119  1  0  0  0
 47120  1  0  0  0
 47121  1  0  0  0
 48 56  1  0  0  0
 48 65  1  0  0  0
 48122  1  0  0  0
 49 50  1  0  0  0
 49 53  1  0  0  0
 49 64  1  0  0  0
 49123  1  0  0  0
 50 51  1  0  0  0
 50124  1  0  0  0
 50125  1  0  0  0
 51 52  1  0  0  0
 51126  1  0  0  0
 51127  1  0  0  0
 52128  1  0  0  0
 52129  1  0  0  0
 53 54  1  0  0  0
 54 55  2  0  0  0
 54130  1  0  0  0
 55 57  1  0  0  0
 55131  1  0  0  0
 56 69  2  0  0  0
 57 58  2  0  0  0
 57132  1  0  0  0
 58133  1  0  0  0
 59 60  1  0  0  0
 59 61  1  0  0  0
 59 62  1  0  0  0
 60134  1  0  0  0
 60135  1  0  0  0
 60136  1  0  0  0
 61137  1  0  0  0
 61138  1  0  0  0
 61139  1  0  0  0
 62140  1  0  0  0
 62141  1  0  0  0
 62142  1  0  0  0
 63 65  1  0  0  0
 63143  1  0  0  0
 63144  1  0  0  0
 63145  1  0  0  0
 64146  1  0  0  0
 65147  1  0  0  0
 68 83  1  0  0  0
 71 72  2  0  0  0
 71 86  1  0  0  0
 71148  1  0  0  0
 72 87  1  0  0  0
 72149  1  0  0  0
 73 77  1  0  0  0
 73 86  1  0  0  0
 73 87  2  0  0  0
 74 78  1  0  0  0
 74150  1  0  0  0
 74151  1  0  0  0
 74152  1  0  0  0
 75153  1  0  0  0
 75154  1  0  0  0
 75155  1  0  0  0
 75 84  1  0  0  0
 76 88  1  0  0  0
 76156  1  0  0  0
 76157  1  0  0  0
 76158  1  0  0  0
 77 84  1  0  0  0
 77159  1  0  0  0
 77160  1  0  0  0
 78161  1  0  0  0
 78162  1  0  0  0
 78 85  1  0  0  0
 79 81  1  0  0  0
 79 83  1  0  0  0
 79163  1  0  0  0
 79164  1  0  0  0
 80 82  1  0  0  0
 80 85  1  0  0  0
 80165  1  0  0  0
 80166  1  0  0  0
 81 86  1  0  0  0
 81167  1  0  0  0
 81168  1  0  0  0
 82 88  1  0  0  0
 82169  1  0  0  0
 82170  1  0  0  0
 83171  1  0  0  0
 83172  1  0  0  0
 84 85  1  0  0  0
 84173  1  0  0  0
 85174  1  0  0  0
 87175  1  0  0  0
M  CHG  1  87   1
M  ISO  4   1 100  68 101  83 101  88 100
M  END
> <chiral flag>
0

> <version>
0

> <s_m_source_file>
/data/baiqing/PycharmProjects/Reinvent-master-3.2/result/LINK_invent/BTK/process_docking_weight1_custom_sum_contain_oxygen_bond_distance_aromatic_linkinvent_7_9_3/rearranged_h_0080.sdf

> <i_m_source_file_index>
53

> <r_mmod_Potential_Energy-OPLS-2005>
137.539016723633

> <r_mmod_Stretch_Energy-OPLS-2005>
36.3551330566406

> <r_mmod_Bend_Energy-OPLS-2005>
112.833137512207

> <r_mmod_Torsional_Energy-OPLS-2005>
375.320281982422

> <r_mmod_Improper_Torsional_Energy-OPLS-2005>
17.1145896911621

> <r_mmod_Van_der_Waal_Energy-OPLS-2005>
123.502258300781

> <r_mmod_Electrostatic_Energy-OPLS-2005>
-147.092254638672

> <r_mmod_Solvation_Energy-OPLS-2005>
-403.301971435547

> <b_mmod_Minimization_Converged-OPLS-2005>
0

> <r_mmod_RMS_Derivative-OPLS-2005>
5.15756607055664

$$$$
55
                    3D
 Structure written by MMmdl.
167175  0  0  1  0            999 V2000
  -30.6644  -14.6054   20.4701 C   0  0  0  0  0  0
  -30.4528  -12.3592   19.4659 C   0  0  0  0  0  0
  -29.5193  -12.4709   18.2341 C   0  0  0  0  0  0
  -28.0348  -12.3229   18.6482 C   0  0  0  0  0  0
  -27.6566  -13.1936   19.8778 C   0  0  2  0  0  0
  -28.7130  -13.0781   21.0054 C   0  0  0  0  0  0
  -25.2639  -13.8206   20.5807 C   0  0  0  0  0  0
  -24.1770  -13.0450   20.9096 C   0  0  0  0  0  0
  -24.6332  -11.6973   20.8664 C   0  0  0  0  0  0
  -23.9001  -10.4323   21.0264 C   0  0  0  0  0  0
  -24.3603   -9.4265   21.9050 C   0  0  0  0  0  0
  -23.6317   -8.2297   22.0661 C   0  0  0  0  0  0
  -22.4272   -8.0335   21.3495 C   0  0  0  0  0  0
  -21.9856   -9.0248   20.4520 C   0  0  0  0  0  0
  -22.7153  -10.2141   20.2928 C   0  0  0  0  0  0
  -21.6848   -6.0806   22.5290 C   0  0  0  0  0  0
  -21.3979   -6.5684   23.8224 C   0  0  0  0  0  0
  -21.3621   -5.6799   24.9144 C   0  0  0  0  0  0
  -21.6023   -4.3063   24.7163 C   0  0  0  0  0  0
  -21.8806   -3.8203   23.4277 C   0  0  0  0  0  0
  -21.9184   -4.7055   22.3357 C   0  0  0  0  0  0
  -22.7776  -13.5204   21.1856 C   0  0  0  0  0  0
  -22.1684   -4.2291   21.0921 F   0  0  0  0  0  0
  -21.5635   -3.4517   25.7655 F   0  0  0  0  0  0
  -30.0344  -13.3903   20.4389 N   0  0  0  0  0  0
  -26.3016  -12.9299   20.3507 N   0  0  0  0  0  0
  -25.9278  -11.6498   20.5784 N   0  0  0  0  0  0
  -22.0453  -12.8084   22.0374 N   0  0  0  0  0  0
  -25.4661  -15.1903   20.4672 N   0  0  0  0  0  0
  -31.8556  -14.7027   20.1654 O   0  0  0  0  0  0
  -21.6628   -6.8959   21.4268 O   0  0  0  0  0  0
  -22.3415  -14.5519   20.6732 O   0  0  0  0  0  0
  -24.6206  -31.8657   23.2058 C   0  0  0  0  0  0
  -25.9112  -32.4804   23.8361 C   0  0  1  0  0  0
  -27.2001  -27.3749   20.1218 C   0  0  0  0  0  0
  -25.5970  -33.8602   24.2282 N   0  0  0  0  0  0
  -23.4042  -30.4949   21.5393 C   0  0  2  0  0  0
  -24.8492  -28.9603   20.1037 C   0  0  0  0  0  0
  -22.7406  -29.4704   22.4888 C   0  0  0  0  0  0
  -18.0304  -28.1408   22.8481 C   0  0  0  0  0  0
  -24.1501  -36.7331   23.2614 C   0  0  0  0  0  0
  -25.9380  -30.8128   21.3670 C   0  0  0  0  0  0
  -26.0093  -29.4432   20.7228 C   0  0  0  0  0  0
  -27.1879  -28.6545   20.7361 C   0  0  0  0  0  0
  -26.0232  -26.9330   19.4695 C   0  0  0  0  0  0
  -24.8523  -27.7074   19.4768 C   0  0  0  0  0  0
  -23.6141  -29.8277   20.1542 C   0  0  0  0  0  0
  -25.4130  -36.3083   24.0296 C   0  0  1  0  0  0
  -20.5893  -28.3742   23.1263 C   0  0  2  0  0  0
  -20.6811  -26.9472   22.5379 C   0  0  0  0  0  0
  -19.5789  -26.6412   21.5184 C   0  0  0  0  0  0
  -18.1970  -26.7957   22.1602 C   0  0  0  0  0  0
  -19.1548  -28.8874   23.2894 C   0  0  0  0  0  0
  -18.9486  -30.1477   23.8915 C   0  0  0  0  0  0
  -17.6490  -30.6605   24.0581 C   0  0  0  0  0  0
  -25.9069  -34.9458   23.5070 C   0  0  0  0  0  0
  -16.5386  -29.9112   23.6325 C   0  0  0  0  0  0
  -16.7301  -28.6535   23.0337 C   0  0  0  0  0  0
  -26.4526  -31.6592   25.0710 C   0  0  0  0  0  0
  -25.3734  -31.3767   26.1408 C   0  0  0  0  0  0
  -27.0378  -30.3024   24.6125 C   0  0  0  0  0  0
  -27.6079  -32.4312   25.7509 C   0  0  0  0  0  0
  -27.5595  -37.1820   24.8448 C   0  0  0  0  0  0
  -21.4133  -29.3113   22.3648 N   0  0  0  0  0  0
  -26.4311  -37.3780   23.9384 N   0  0  0  0  0  0
  -24.6719  -31.0725   22.0962 N   0  0  0  0  0  0
  -23.4166  -28.8223   23.2932 O   0  0  0  0  0  0
  -28.3246  -26.5611   20.1975 O   0  0  0  0  0  0
  -26.5591  -34.8918   22.4605 O   0  0  0  0  0  0
  -23.5396  -32.1444   23.7438 O   0  0  0  0  0  0
  -30.6617  -20.4143   19.3402 C   0  0  0  0  0  0
  -31.5153  -19.6374   18.6155 C   0  0  0  0  0  0
  -30.7862  -18.4399   20.3686 C   0  0  0  0  0  0
  -32.2433  -19.9401   17.3458 C   0  0  0  0  0  0
  -30.5314  -17.2019   21.2316 C   0  0  0  0  0  0
  -28.6353  -22.7528   21.0821 C   0  0  0  0  0  0
  -29.6407  -21.7921   21.7853 C   0  0  0  0  0  0
  -29.1056  -24.2332   20.9240 C   0  0  0  0  0  0
  -29.4078  -20.2659   21.5147 C   0  0  0  0  0  0
  -29.3230  -16.2492   19.0851 C   0  0  0  0  0  0
  -28.0658  -25.1294   20.1937 C   0  0  0  0  0  0
  -29.8360  -15.9479   20.5320 C   0  0  1  0  0  0
  -30.2798  -19.7025   20.4497 N   0  0  0  0  0  0
  -31.6104  -18.4535   19.3035 N   0  3  0  0  0  0
  -28.1310  -17.1307   19.0187 N   0  3  0  0  0  0
  -31.4959  -12.4614   19.1552 H   0  0  0  0  0  0
  -30.3758  -11.3717   19.9274 H   0  0  0  0  0  0
  -29.7758  -11.7031   17.5028 H   0  0  0  0  0  0
  -29.6837  -13.4195   17.7166 H   0  0  0  0  0  0
  -27.8506  -11.2769   18.8821 H   0  0  0  0  0  0
  -27.3832  -12.5599   17.8074 H   0  0  0  0  0  0
  -27.6373  -14.2137   19.5271 H   0  0  0  0  0  0
  -28.7312  -12.0653   21.4108 H   0  0  0  0  0  0
  -28.4692  -13.7262   21.8548 H   0  0  0  0  0  0
  -25.2725   -9.5817   22.4609 H   0  0  0  0  0  0
  -24.0037   -7.4659   22.7367 H   0  0  0  0  0  0
  -21.0802   -8.8693   19.8804 H   0  0  0  0  0  0
  -22.3518  -10.9690   19.6053 H   0  0  0  0  0  0
  -21.1971   -7.6180   23.9801 H   0  0  0  0  0  0
  -21.1428   -6.0475   25.9055 H   0  0  0  0  0  0
  -22.0631   -2.7716   23.2657 H   0  0  0  0  0  0
  -22.4057  -11.9662   22.4666 H   0  0  0  0  0  0
  -21.1023  -13.1032   22.2539 H   0  0  0  0  0  0
  -24.6356  -15.7465   20.6389 H   0  0  0  0  0  0
  -26.2054  -15.4996   21.0883 H   0  0  0  0  0  0
  -26.7153  -32.5483   23.1098 H   0  0  0  0  0  0
  -25.0221  -33.9752   25.0496 H   0  0  0  0  0  0
  -22.6993  -31.3169   21.3959 H   0  0  0  0  0  0
  -23.3736  -35.9687   23.3268 H   0  0  0  0  0  0
  -24.3605  -36.8981   22.2035 H   0  0  0  0  0  0
  -23.7296  -37.6543   23.6668 H   0  0  0  0  0  0
  -26.0404  -31.5650   20.5840 H   0  0  0  0  0  0
  -26.8322  -30.8801   21.9751 H   0  0  0  0  0  0
  -28.0694  -28.9950   21.2578 H   0  0  0  0  0  0
  -25.9708  -25.9733   18.9675 H   0  0  0  0  0  0
  -23.9572  -27.3353   18.9959 H   0  0  0  0  0  0
  -23.7231  -30.5936   19.3871 H   0  0  0  0  0  0
  -22.7395  -29.2441   19.8628 H   0  0  0  0  0  0
  -25.1305  -36.1915   25.0792 H   0  0  0  0  0  0
  -21.0032  -28.3337   24.1364 H   0  0  0  0  0  0
  -20.5728  -26.2361   23.3584 H   0  0  0  0  0  0
  -21.6687  -26.7526   22.1166 H   0  0  0  0  0  0
  -19.6972  -25.6307   21.1251 H   0  0  0  0  0  0
  -19.6724  -27.3185   20.6681 H   0  0  0  0  0  0
  -17.4236  -26.6710   21.4005 H   0  0  0  0  0  0
  -18.0419  -26.0088   22.8990 H   0  0  0  0  0  0
  -19.7963  -30.7298   24.2290 H   0  0  0  0  0  0
  -17.5047  -31.6275   24.5204 H   0  0  0  0  0  0
  -15.5388  -30.3031   23.7628 H   0  0  0  0  0  0
  -15.8710  -28.0856   22.7035 H   0  0  0  0  0  0
  -24.5880  -30.7174   25.7708 H   0  0  0  0  0  0
  -24.8973  -32.2968   26.4791 H   0  0  0  0  0  0
  -25.8011  -30.8932   27.0187 H   0  0  0  0  0  0
  -26.2958  -29.6769   24.1146 H   0  0  0  0  0  0
  -27.4111  -29.7295   25.4624 H   0  0  0  0  0  0
  -27.8804  -30.4349   23.9332 H   0  0  0  0  0  0
  -27.2687  -33.3588   26.2135 H   0  0  0  0  0  0
  -28.3913  -32.6901   25.0372 H   0  0  0  0  0  0
  -28.0729  -31.8390   26.5404 H   0  0  0  0  0  0
  -28.2558  -38.0164   24.7515 H   0  0  0  0  0  0
  -28.1141  -36.2686   24.6233 H   0  0  0  0  0  0
  -27.2319  -37.1430   25.8853 H   0  0  0  0  0  0
  -20.9292  -29.8849   21.6881 H   0  0  0  0  0  0
  -26.0171  -38.2847   24.1375 H   0  0  0  0  0  0
  -30.3265  -21.4242   19.1459 H   0  0  0  0  0  0
  -33.3118  -20.0099   17.5351 H   0  0  0  0  0  0
  -31.9057  -20.8910   16.9333 H   0  0  0  0  0  0
  -32.0472  -19.1798   16.5925 H   0  0  0  0  0  0
  -29.8789  -17.5447   22.0334 H   0  0  0  0  0  0
  -31.4830  -16.9496   21.7105 H   0  0  0  0  0  0
  -27.7022  -22.7367   21.6525 H   0  0  0  0  0  0
  -28.3760  -22.3604   20.0964 H   0  0  0  0  0  0
  -29.6054  -21.9792   22.8599 H   0  0  0  0  0  0
  -30.6635  -22.0628   21.5193 H   0  0  0  0  0  0
  -30.0421  -24.2598   20.3697 H   0  0  0  0  0  0
  -29.3186  -24.6523   21.9065 H   0  0  0  0  0  0
  -28.3667  -20.0747   21.2486 H   0  0  0  0  0  0
  -29.5903  -19.7104   22.4320 H   0  0  0  0  0  0
  -30.1169  -16.6146   18.4435 H   0  0  0  0  0  0
  -29.0492  -15.3330   18.5760 H   0  0  0  0  0  0
  -27.0992  -24.9258   20.6654 H   0  0  0  0  0  0
  -27.9761  -24.7890   19.1616 H   0  0  0  0  0  0
  -28.9635  -15.7356   21.1429 H   0  0  0  0  0  0
  -32.2173  -17.6865   19.0350 H   0  0  0  0  0  0
  -27.3650  -16.7731   19.5600 H   0  0  0  0  0  0
  -27.8188  -17.2009   18.0635 H   0  0  0  0  0  0
  -28.3056  -18.0675   19.3301 H   0  0  0  0  0  0
  1 25  1  0  0  0
  1 30  2  0  0  0
  1 82  1  0  0  0
  2  3  1  0  0  0
  2 25  1  0  0  0
  2 86  1  0  0  0
  2 87  1  0  0  0
  3  4  1  0  0  0
  3 88  1  0  0  0
  3 89  1  0  0  0
  4  5  1  0  0  0
  4 90  1  0  0  0
  4 91  1  0  0  0
  5  6  1  0  0  0
  5 26  1  0  0  0
  5 92  1  0  0  0
  6 25  1  0  0  0
  6 93  1  0  0  0
  6 94  1  0  0  0
  7  8  2  0  0  0
  7 26  1  0  0  0
  7 29  1  0  0  0
  8  9  1  0  0  0
  8 22  1  0  0  0
  9 10  1  0  0  0
  9 27  2  0  0  0
 10 11  2  0  0  0
 10 15  1  0  0  0
 11 12  1  0  0  0
 11 95  1  0  0  0
 12 13  2  0  0  0
 12 96  1  0  0  0
 13 14  1  0  0  0
 13 31  1  0  0  0
 14 15  2  0  0  0
 14 97  1  0  0  0
 15 98  1  0  0  0
 16 17  2  0  0  0
 16 21  1  0  0  0
 16 31  1  0  0  0
 17 18  1  0  0  0
 17 99  1  0  0  0
 18 19  2  0  0  0
 18100  1  0  0  0
 19 20  1  0  0  0
 19 24  1  0  0  0
 20 21  2  0  0  0
 20101  1  0  0  0
 21 23  1  0  0  0
 22 28  1  0  0  0
 22 32  2  0  0  0
 26 27  1  0  0  0
 28102  1  0  0  0
 28103  1  0  0  0
 29104  1  0  0  0
 29105  1  0  0  0
 33 34  1  0  0  0
 33 66  1  0  0  0
 33 70  2  0  0  0
 34 36  1  0  0  0
 34 59  1  0  0  0
 34106  1  0  0  0
 35 44  2  0  0  0
 35 45  1  0  0  0
 35 68  1  0  0  0
 36 56  1  0  0  0
 36107  1  0  0  0
 37 39  1  0  0  0
 37 47  1  0  0  0
 37 66  1  0  0  0
 37108  1  0  0  0
 38 43  2  0  0  0
 38 46  1  0  0  0
 38 47  1  0  0  0
 39 64  1  0  0  0
 39 67  2  0  0  0
 40 52  1  0  0  0
 40 53  2  0  0  0
 40 58  1  0  0  0
 41109  1  0  0  0
 41110  1  0  0  0
 41111  1  0  0  0
 41 48  1  0  0  0
 42 43  1  0  0  0
 42 66  1  0  0  0
 42112  1  0  0  0
 42113  1  0  0  0
 43 44  1  0  0  0
 44114  1  0  0  0
 45 46  2  0  0  0
 45115  1  0  0  0
 46116  1  0  0  0
 47117  1  0  0  0
 47118  1  0  0  0
 48 56  1  0  0  0
 48 65  1  0  0  0
 48119  1  0  0  0
 49 50  1  0  0  0
 49 53  1  0  0  0
 49 64  1  0  0  0
 49120  1  0  0  0
 50 51  1  0  0  0
 50121  1  0  0  0
 50122  1  0  0  0
 51 52  1  0  0  0
 51123  1  0  0  0
 51124  1  0  0  0
 52125  1  0  0  0
 52126  1  0  0  0
 53 54  1  0  0  0
 54 55  2  0  0  0
 54127  1  0  0  0
 55 57  1  0  0  0
 55128  1  0  0  0
 56 69  2  0  0  0
 57 58  2  0  0  0
 57129  1  0  0  0
 58130  1  0  0  0
 59 60  1  0  0  0
 59 61  1  0  0  0
 59 62  1  0  0  0
 60131  1  0  0  0
 60132  1  0  0  0
 60133  1  0  0  0
 61134  1  0  0  0
 61135  1  0  0  0
 61136  1  0  0  0
 62137  1  0  0  0
 62138  1  0  0  0
 62139  1  0  0  0
 63 65  1  0  0  0
 63140  1  0  0  0
 63141  1  0  0  0
 63142  1  0  0  0
 64143  1  0  0  0
 65144  1  0  0  0
 68 81  1  0  0  0
 71 72  2  0  0  0
 71 83  1  0  0  0
 71145  1  0  0  0
 72 74  1  0  0  0
 72 84  1  0  0  0
 73 75  1  0  0  0
 73 83  1  0  0  0
 73 84  2  0  0  0
 74146  1  0  0  0
 74147  1  0  0  0
 74148  1  0  0  0
 75149  1  0  0  0
 75150  1  0  0  0
 75 82  1  0  0  0
 76 77  1  0  0  0
 76 78  1  0  0  0
 76151  1  0  0  0
 76152  1  0  0  0
 77 79  1  0  0  0
 77153  1  0  0  0
 77154  1  0  0  0
 78 81  1  0  0  0
 78155  1  0  0  0
 78156  1  0  0  0
 79 83  1  0  0  0
 79157  1  0  0  0
 79158  1  0  0  0
 80 82  1  0  0  0
 80 85  1  0  0  0
 80159  1  0  0  0
 80160  1  0  0  0
 81161  1  0  0  0
 81162  1  0  0  0
 82163  1  0  0  0
 84164  1  0  0  0
 85165  1  0  0  0
 85166  1  0  0  0
 85167  1  0  0  0
M  CHG  2  84   1  85   1
M  ISO  4   1 100  68 101  81 101  82 100
M  END
> <chiral flag>
0

> <version>
0

> <s_m_source_file>
/data/baiqing/PycharmProjects/Reinvent-master-3.2/result/LINK_invent/BTK/process_docking_weight1_custom_sum_contain_oxygen_bond_distance_aromatic_linkinvent_7_9_3/rearranged_h_0080.sdf

> <i_m_source_file_index>
54

> <r_mmod_Potential_Energy-OPLS-2005>
-211.175735473633

> <r_mmod_Stretch_Energy-OPLS-2005>
57.8762893676758

> <r_mmod_Bend_Energy-OPLS-2005>
111.620582580566

> <r_mmod_Torsional_Energy-OPLS-2005>
258.3974609375

> <r_mmod_Improper_Torsional_Energy-OPLS-2005>
13.6372375488281

> <r_mmod_Van_der_Waal_Energy-OPLS-2005>
130.022705078125

> <r_mmod_Electrostatic_Energy-OPLS-2005>
149.385955810547

> <r_mmod_Solvation_Energy-OPLS-2005>
-972.146301269531

> <b_mmod_Minimization_Converged-OPLS-2005>
0

> <r_mmod_RMS_Derivative-OPLS-2005>
8.70810985565186

$$$$
56
                    3D
 Structure written by MMmdl.
161169  0  0  1  0            999 V2000
  -30.6793  -14.6423   20.5090 C   0  0  0  0  0  0
  -30.4260  -12.4029   19.4753 C   0  0  0  0  0  0
  -29.5086  -12.4912   18.2398 C   0  0  0  0  0  0
  -28.0337  -12.3315   18.6556 C   0  0  0  0  0  0
  -27.6468  -13.2318   19.8595 C   0  0  2  0  0  0
  -28.6880  -13.1479   20.9971 C   0  0  0  0  0  0
  -25.2515  -13.8220   20.5722 C   0  0  0  0  0  0
  -24.1806  -13.0450   20.9223 C   0  0  0  0  0  0
  -24.6407  -11.6935   20.8784 C   0  0  0  0  0  0
  -23.9096  -10.4295   21.0450 C   0  0  0  0  0  0
  -24.3630   -9.4192   21.9218 C   0  0  0  0  0  0
  -23.6287   -8.2240   22.0757 C   0  0  0  0  0  0
  -22.4268   -8.0303   21.3552 C   0  0  0  0  0  0
  -21.9923   -9.0292   20.4656 C   0  0  0  0  0  0
  -22.7275  -10.2158   20.3088 C   0  0  0  0  0  0
  -21.6836   -6.0751   22.5298 C   0  0  0  0  0  0
  -21.4013   -6.5649   23.8241 C   0  0  0  0  0  0
  -21.3644   -5.6790   24.9196 C   0  0  0  0  0  0
  -21.6037   -4.3058   24.7237 C   0  0  0  0  0  0
  -21.8800   -3.8156   23.4358 C   0  0  0  0  0  0
  -21.9188   -4.6976   22.3420 C   0  0  0  0  0  0
  -22.7829  -13.5240   21.1873 C   0  0  0  0  0  0
  -22.1659   -4.2162   21.0996 F   0  0  0  0  0  0
  -21.5616   -3.4538   25.7748 F   0  0  0  0  0  0
  -30.0011  -13.4564   20.4185 N   0  0  0  0  0  0
  -26.2956  -12.9430   20.3321 N   0  0  0  0  0  0
  -25.9334  -11.6578   20.5795 N   0  0  0  0  0  0
  -22.0448  -12.8256   22.0429 N   0  0  0  0  0  0
  -25.4205  -15.1961   20.4177 N   0  0  0  0  0  0
  -31.8571  -14.7147   20.1537 O   0  0  0  0  0  0
  -21.6626   -6.8905   21.4262 O   0  0  0  0  0  0
  -22.3521  -14.5550   20.6717 O   0  0  0  0  0  0
  -24.6234  -31.8622   23.2024 C   0  0  0  0  0  0
  -25.9088  -32.4789   23.8353 C   0  0  1  0  0  0
  -27.2238  -27.3666   20.1246 C   0  0  0  0  0  0
  -25.5909  -33.8589   24.2283 N   0  0  0  0  0  0
  -23.4126  -30.4884   21.5424 C   0  0  2  0  0  0
  -24.8591  -28.9402   20.1134 C   0  0  0  0  0  0
  -22.7441  -29.4673   22.4931 C   0  0  0  0  0  0
  -18.0296  -28.1372   22.8491 C   0  0  0  0  0  0
  -24.1487  -36.7315   23.2636 C   0  0  0  0  0  0
  -25.9470  -30.8137   21.3586 C   0  0  0  0  0  0
  -26.0246  -29.4410   20.7093 C   0  0  0  0  0  0
  -27.2160  -28.6671   20.7001 C   0  0  0  0  0  0
  -26.0455  -26.8962   19.5151 C   0  0  0  0  0  0
  -24.8694  -27.6713   19.5070 C   0  0  0  0  0  0
  -23.6237  -29.8159   20.1589 C   0  0  0  0  0  0
  -25.4095  -36.3085   24.0338 C   0  0  1  0  0  0
  -20.5893  -28.3699   23.1269 C   0  0  2  0  0  0
  -20.6787  -26.9424   22.5403 C   0  0  0  0  0  0
  -19.5758  -26.6382   21.5213 C   0  0  0  0  0  0
  -18.1936  -26.7916   22.1621 C   0  0  0  0  0  0
  -19.1536  -28.8843   23.2889 C   0  0  0  0  0  0
  -18.9460  -30.1443   23.8915 C   0  0  0  0  0  0
  -17.6455  -30.6572   24.0568 C   0  0  0  0  0  0
  -25.9033  -34.9460   23.5098 C   0  0  0  0  0  0
  -16.5354  -29.9083   23.6313 C   0  0  0  0  0  0
  -16.7282  -28.6500   23.0338 C   0  0  0  0  0  0
  -26.4505  -31.6582   25.0692 C   0  0  0  0  0  0
  -25.3778  -31.3702   26.1447 C   0  0  0  0  0  0
  -27.0311  -30.3002   24.6090 C   0  0  0  0  0  0
  -27.6060  -32.4324   25.7474 C   0  0  0  0  0  0
  -27.5579  -37.1797   24.8462 C   0  0  0  0  0  0
  -21.4153  -29.3064   22.3654 N   0  0  0  0  0  0
  -26.4272  -37.3773   23.9424 N   0  0  0  0  0  0
  -24.6798  -31.0710   22.0920 N   0  0  0  0  0  0
  -23.4184  -28.8209   23.2989 O   0  0  0  0  0  0
  -28.3534  -26.5590   20.1071 O   0  0  0  0  0  0
  -26.5599  -34.8932   22.4668 O   0  0  0  0  0  0
  -23.5413  -32.1407   23.7378 O   0  0  0  0  0  0
  -30.1023  -19.3635   19.7043 C   0  0  0  0  0  0
  -29.7924  -20.7478   19.7479 C   0  0  0  0  0  0
  -29.8984  -18.5286   20.8351 C   0  0  0  0  0  0
  -29.2237  -21.3140   20.9080 C   0  0  0  0  0  0
  -29.2636  -19.1695   21.9347 C   0  0  0  0  0  0
  -30.1601  -18.6971   24.2641 C   0  0  0  0  0  0
  -28.9031  -23.9564   18.8457 C   0  0  0  0  0  0
  -30.6454  -17.1401   20.9153 C   0  0  0  0  0  0
  -29.1703  -22.8593   21.1863 C   0  0  0  0  0  0
  -29.0329  -18.4458   23.2521 C   0  0  0  0  0  0
  -28.3322  -25.3542   20.9398 C   0  0  0  0  0  0
  -28.3742  -23.9036   20.2871 C   0  0  1  0  0  0
  -28.9251  -20.4954   21.9524 N   0  0  0  0  0  0
  -29.9893  -15.7876   20.8264 N   0  0  0  0  0  0
  -31.4714  -12.5050   19.1738 H   0  0  0  0  0  0
  -30.3512  -11.4233   19.9486 H   0  0  0  0  0  0
  -29.7774  -11.7281   17.5085 H   0  0  0  0  0  0
  -29.6541  -13.4517   17.7453 H   0  0  0  0  0  0
  -27.8849  -11.2839   18.9206 H   0  0  0  0  0  0
  -27.3744  -12.5304   17.8103 H   0  0  0  0  0  0
  -27.6494  -14.2581   19.4906 H   0  0  0  0  0  0
  -28.6981  -12.1534   21.4468 H   0  0  0  0  0  0
  -28.4381  -13.8423   21.8019 H   0  0  0  0  0  0
  -25.2773   -9.5642   22.4799 H   0  0  0  0  0  0
  -23.9980   -7.4613   22.7447 H   0  0  0  0  0  0
  -21.0858   -8.8858   19.8956 H   0  0  0  0  0  0
  -22.3776  -10.9722   19.6205 H   0  0  0  0  0  0
  -21.2023   -7.6157   23.9756 H   0  0  0  0  0  0
  -21.1469   -6.0519   25.9097 H   0  0  0  0  0  0
  -22.0589   -2.7619   23.2871 H   0  0  0  0  0  0
  -22.4035  -11.9927   22.4862 H   0  0  0  0  0  0
  -21.1072  -13.1330   22.2602 H   0  0  0  0  0  0
  -24.6518  -15.8487   20.5294 H   0  0  0  0  0  0
  -26.2651  -15.6385   20.0800 H   0  0  0  0  0  0
  -26.7153  -32.5485   23.1116 H   0  0  0  0  0  0
  -25.0091  -33.9746   25.0450 H   0  0  0  0  0  0
  -22.7074  -31.3087   21.3990 H   0  0  0  0  0  0
  -23.3740  -35.9659   23.3282 H   0  0  0  0  0  0
  -24.3593  -36.8943   22.2054 H   0  0  0  0  0  0
  -23.7265  -37.6520   23.6677 H   0  0  0  0  0  0
  -26.0644  -31.5763   20.5850 H   0  0  0  0  0  0
  -26.8328  -30.8699   21.9794 H   0  0  0  0  0  0
  -28.1187  -29.0568   21.1482 H   0  0  0  0  0  0
  -26.0426  -25.9208   19.0498 H   0  0  0  0  0  0
  -23.9770  -27.2810   19.0389 H   0  0  0  0  0  0
  -23.7350  -30.5908   19.3995 H   0  0  0  0  0  0
  -22.7450  -29.2411   19.8635 H   0  0  0  0  0  0
  -25.1273  -36.1920   25.0827 H   0  0  0  0  0  0
  -21.0024  -28.3290   24.1372 H   0  0  0  0  0  0
  -20.5667  -26.2324   23.3611 H   0  0  0  0  0  0
  -21.6659  -26.7435   22.1204 H   0  0  0  0  0  0
  -19.6922  -25.6293   21.1245 H   0  0  0  0  0  0
  -19.6677  -27.3190   20.6736 H   0  0  0  0  0  0
  -17.4206  -26.6675   21.4024 H   0  0  0  0  0  0
  -18.0330  -26.0035   22.8987 H   0  0  0  0  0  0
  -19.7928  -30.7262   24.2293 H   0  0  0  0  0  0
  -17.5003  -31.6248   24.5170 H   0  0  0  0  0  0
  -15.5351  -30.2986   23.7615 H   0  0  0  0  0  0
  -15.8686  -28.0825   22.7036 H   0  0  0  0  0  0
  -24.5950  -30.7043   25.7813 H   0  0  0  0  0  0
  -24.8990  -32.2861   26.4919 H   0  0  0  0  0  0
  -25.8143  -30.8876   27.0195 H   0  0  0  0  0  0
  -26.2827  -29.6754   24.1191 H   0  0  0  0  0  0
  -27.4104  -29.7253   25.4547 H   0  0  0  0  0  0
  -27.8679  -30.4287   23.9215 H   0  0  0  0  0  0
  -27.2658  -33.3624   26.2053 H   0  0  0  0  0  0
  -28.3888  -32.6879   25.0318 H   0  0  0  0  0  0
  -28.0721  -31.8449   26.5397 H   0  0  0  0  0  0
  -28.2579  -38.0102   24.7487 H   0  0  0  0  0  0
  -28.1073  -36.2629   24.6280 H   0  0  0  0  0  0
  -27.2307  -37.1449   25.8864 H   0  0  0  0  0  0
  -20.9306  -29.8785   21.6879 H   0  0  0  0  0  0
  -26.0150  -38.2850   24.1391 H   0  0  0  0  0  0
  -30.6075  -18.9710   18.8340 H   0  0  0  0  0  0
  -30.0884  -21.3762   18.9200 H   0  0  0  0  0  0
  -29.9683  -18.1610   25.1929 H   0  0  0  0  0  0
  -30.2529  -19.7568   24.5029 H   0  0  0  0  0  0
  -31.1230  -18.3603   23.8807 H   0  0  0  0  0  0
  -28.7327  -23.0140   18.3282 H   0  0  0  0  0  0
  -29.9725  -24.1730   18.8185 H   0  0  0  0  0  0
  -28.3883  -24.7237   18.2682 H   0  0  0  0  0  0
  -31.2206  -17.1397   21.8414 H   0  0  0  0  0  0
  -31.4087  -17.1887   20.1367 H   0  0  0  0  0  0
  -30.2085  -23.1923   21.2290 H   0  0  0  0  0  0
  -28.8069  -22.9773   22.2080 H   0  0  0  0  0  0
  -28.9182  -17.3780   23.0736 H   0  0  0  0  0  0
  -28.0881  -18.7818   23.6819 H   0  0  0  0  0  0
  -29.2110  -25.4618   21.5780 H   0  0  0  0  0  0
  -27.4884  -25.3953   21.6308 H   0  0  0  0  0  0
  -27.3405  -23.5575   20.2278 H   0  0  0  0  0  0
  -29.0095  -15.7091   21.0509 H   0  0  0  0  0  0
  1 25  1  0  0  0
  1 30  2  0  0  0
  1 84  1  0  0  0
  2  3  1  0  0  0
  2 25  1  0  0  0
  2 85  1  0  0  0
  2 86  1  0  0  0
  3  4  1  0  0  0
  3 87  1  0  0  0
  3 88  1  0  0  0
  4  5  1  0  0  0
  4 89  1  0  0  0
  4 90  1  0  0  0
  5  6  1  0  0  0
  5 26  1  0  0  0
  5 91  1  0  0  0
  6 25  1  0  0  0
  6 92  1  0  0  0
  6 93  1  0  0  0
  7  8  2  0  0  0
  7 26  1  0  0  0
  7 29  1  0  0  0
  8  9  1  0  0  0
  8 22  1  0  0  0
  9 10  1  0  0  0
  9 27  2  0  0  0
 10 11  2  0  0  0
 10 15  1  0  0  0
 11 12  1  0  0  0
 11 94  1  0  0  0
 12 13  2  0  0  0
 12 95  1  0  0  0
 13 14  1  0  0  0
 13 31  1  0  0  0
 14 15  2  0  0  0
 14 96  1  0  0  0
 15 97  1  0  0  0
 16 17  2  0  0  0
 16 21  1  0  0  0
 16 31  1  0  0  0
 17 18  1  0  0  0
 17 98  1  0  0  0
 18 19  2  0  0  0
 18 99  1  0  0  0
 19 20  1  0  0  0
 19 24  1  0  0  0
 20 21  2  0  0  0
 20100  1  0  0  0
 21 23  1  0  0  0
 22 28  1  0  0  0
 22 32  2  0  0  0
 26 27  1  0  0  0
 28101  1  0  0  0
 28102  1  0  0  0
 29103  1  0  0  0
 29104  1  0  0  0
 33 34  1  0  0  0
 33 66  1  0  0  0
 33 70  2  0  0  0
 34 36  1  0  0  0
 34 59  1  0  0  0
 34105  1  0  0  0
 35 44  2  0  0  0
 35 45  1  0  0  0
 35 68  1  0  0  0
 36 56  1  0  0  0
 36106  1  0  0  0
 37 39  1  0  0  0
 37 47  1  0  0  0
 37 66  1  0  0  0
 37107  1  0  0  0
 38 43  2  0  0  0
 38 46  1  0  0  0
 38 47  1  0  0  0
 39 64  1  0  0  0
 39 67  2  0  0  0
 40 52  1  0  0  0
 40 53  2  0  0  0
 40 58  1  0  0  0
 41108  1  0  0  0
 41109  1  0  0  0
 41110  1  0  0  0
 41 48  1  0  0  0
 42 43  1  0  0  0
 42 66  1  0  0  0
 42111  1  0  0  0
 42112  1  0  0  0
 43 44  1  0  0  0
 44113  1  0  0  0
 45 46  2  0  0  0
 45114  1  0  0  0
 46115  1  0  0  0
 47116  1  0  0  0
 47117  1  0  0  0
 48 56  1  0  0  0
 48 65  1  0  0  0
 48118  1  0  0  0
 49 50  1  0  0  0
 49 53  1  0  0  0
 49 64  1  0  0  0
 49119  1  0  0  0
 50 51  1  0  0  0
 50120  1  0  0  0
 50121  1  0  0  0
 51 52  1  0  0  0
 51122  1  0  0  0
 51123  1  0  0  0
 52124  1  0  0  0
 52125  1  0  0  0
 53 54  1  0  0  0
 54 55  2  0  0  0
 54126  1  0  0  0
 55 57  1  0  0  0
 55127  1  0  0  0
 56 69  2  0  0  0
 57 58  2  0  0  0
 57128  1  0  0  0
 58129  1  0  0  0
 59 60  1  0  0  0
 59 61  1  0  0  0
 59 62  1  0  0  0
 60130  1  0  0  0
 60131  1  0  0  0
 60132  1  0  0  0
 61133  1  0  0  0
 61134  1  0  0  0
 61135  1  0  0  0
 62136  1  0  0  0
 62137  1  0  0  0
 62138  1  0  0  0
 63 65  1  0  0  0
 63139  1  0  0  0
 63140  1  0  0  0
 63141  1  0  0  0
 64142  1  0  0  0
 65143  1  0  0  0
 68 81  1  0  0  0
 71 72  2  0  0  0
 71 73  1  0  0  0
 71144  1  0  0  0
 72 74  1  0  0  0
 72145  1  0  0  0
 73 75  2  0  0  0
 73 78  1  0  0  0
 74 79  1  0  0  0
 74 83  2  0  0  0
 75 80  1  0  0  0
 75 83  1  0  0  0
 76 80  1  0  0  0
 76146  1  0  0  0
 76147  1  0  0  0
 76148  1  0  0  0
 77149  1  0  0  0
 77150  1  0  0  0
 77151  1  0  0  0
 77 82  1  0  0  0
 78 84  1  0  0  0
 78152  1  0  0  0
 78153  1  0  0  0
 79 82  1  0  0  0
 79154  1  0  0  0
 79155  1  0  0  0
 80156  1  0  0  0
 80157  1  0  0  0
 81 82  1  0  0  0
 81158  1  0  0  0
 81159  1  0  0  0
 82160  1  0  0  0
 84161  1  0  0  0
M  ISO  4   1 100  68 101  81 101  84 100
M  END
> <chiral flag>
0

> <version>
0

> <s_m_source_file>
/data/baiqing/PycharmProjects/Reinvent-master-3.2/result/LINK_invent/BTK/process_docking_weight1_custom_sum_contain_oxygen_bond_distance_aromatic_linkinvent_7_9_3/rearranged_h_0080.sdf

> <i_m_source_file_index>
55

> <r_mmod_Potential_Energy-OPLS-2005>
-73.1719970703125

> <r_mmod_Stretch_Energy-OPLS-2005>
70.2802276611328

> <r_mmod_Bend_Energy-OPLS-2005>
148.441757202148

> <r_mmod_Torsional_Energy-OPLS-2005>
249.495208740234

> <r_mmod_Improper_Torsional_Energy-OPLS-2005>
7.90722799301147

> <r_mmod_Van_der_Waal_Energy-OPLS-2005>
140.349029541016

> <r_mmod_Electrostatic_Energy-OPLS-2005>
-521.943176269531

> <r_mmod_Solvation_Energy-OPLS-2005>
-210.414215087891

> <b_mmod_Minimization_Converged-OPLS-2005>
0

> <r_mmod_RMS_Derivative-OPLS-2005>
3.58096981048584

$$$$
57
                    3D
 Structure written by MMmdl.
167175  0  0  1  0            999 V2000
  -30.6741  -14.4897   20.5185 C   0  0  0  0  0  0
  -30.4366  -12.2899   19.4354 C   0  0  0  0  0  0
  -29.5059  -12.4553   18.2152 C   0  0  0  0  0  0
  -28.0210  -12.3567   18.6234 C   0  0  0  0  0  0
  -27.6675  -13.1922   19.8838 C   0  0  2  0  0  0
  -28.7149  -12.9811   21.0022 C   0  0  0  0  0  0
  -25.2647  -13.8135   20.5690 C   0  0  0  0  0  0
  -24.1872  -13.0420   20.9150 C   0  0  0  0  0  0
  -24.6419  -11.6892   20.8748 C   0  0  0  0  0  0
  -23.9088  -10.4285   21.0416 C   0  0  0  0  0  0
  -24.3630   -9.4206   21.9188 C   0  0  0  0  0  0
  -23.6287   -8.2260   22.0776 C   0  0  0  0  0  0
  -22.4283   -8.0299   21.3547 C   0  0  0  0  0  0
  -21.9918   -9.0283   20.4654 C   0  0  0  0  0  0
  -22.7261  -10.2152   20.3067 C   0  0  0  0  0  0
  -21.6861   -6.0746   22.5276 C   0  0  0  0  0  0
  -21.4017   -6.5661   23.8208 C   0  0  0  0  0  0
  -21.3639   -5.6819   24.9171 C   0  0  0  0  0  0
  -21.6031   -4.3082   24.7229 C   0  0  0  0  0  0
  -21.8822   -3.8155   23.4355 C   0  0  0  0  0  0
  -21.9195   -4.6962   22.3406 C   0  0  0  0  0  0
  -22.7891  -13.5220   21.1794 C   0  0  0  0  0  0
  -22.1670   -4.2148   21.0984 F   0  0  0  0  0  0
  -21.5611   -3.4576   25.7734 F   0  0  0  0  0  0
  -30.0423  -13.2869   20.4390 N   0  0  0  0  0  0
  -26.3074  -12.9267   20.3444 N   0  0  0  0  0  0
  -25.9346  -11.6448   20.5822 N   0  0  0  0  0  0
  -22.0567  -12.8190   22.0370 N   0  0  0  0  0  0
  -25.4397  -15.1851   20.4096 N   0  0  0  0  0  0
  -31.8204  -14.6850   20.1065 O   0  0  0  0  0  0
  -21.6642   -6.8889   21.4233 O   0  0  0  0  0  0
  -22.3563  -14.5511   20.6633 O   0  0  0  0  0  0
  -24.6135  -31.8685   23.2105 C   0  0  0  0  0  0
  -25.9021  -32.4837   23.8411 C   0  0  1  0  0  0
  -27.2508  -27.4619   20.0915 C   0  0  0  0  0  0
  -25.5887  -33.8633   24.2348 N   0  0  0  0  0  0
  -23.4039  -30.4869   21.5515 C   0  0  2  0  0  0
  -24.8537  -28.9491   20.1231 C   0  0  0  0  0  0
  -22.7423  -29.4645   22.5018 C   0  0  0  0  0  0
  -18.0269  -28.1382   22.8500 C   0  0  0  0  0  0
  -24.1486  -36.7330   23.2638 C   0  0  0  0  0  0
  -25.9288  -30.8411   21.3591 C   0  0  0  0  0  0
  -26.0107  -29.4735   20.7138 C   0  0  0  0  0  0
  -27.2148  -28.7363   20.6944 C   0  0  0  0  0  0
  -26.0797  -26.9392   19.5042 C   0  0  0  0  0  0
  -24.8805  -27.6793   19.5169 C   0  0  0  0  0  0
  -23.6129  -29.8120   20.1687 C   0  0  0  0  0  0
  -25.4108  -36.3127   24.0343 C   0  0  1  0  0  0
  -20.5862  -28.3656   23.1343 C   0  0  2  0  0  0
  -20.6756  -26.9395   22.5423 C   0  0  0  0  0  0
  -19.5730  -26.6387   21.5223 C   0  0  0  0  0  0
  -18.1912  -26.7929   22.1630 C   0  0  0  0  0  0
  -19.1517  -28.8839   23.2919 C   0  0  0  0  0  0
  -18.9438  -30.1451   23.8923 C   0  0  0  0  0  0
  -17.6436  -30.6584   24.0574 C   0  0  0  0  0  0
  -25.9030  -34.9488   23.5146 C   0  0  0  0  0  0
  -16.5334  -29.9084   23.6321 C   0  0  0  0  0  0
  -16.7261  -28.6505   23.0346 C   0  0  0  0  0  0
  -26.4454  -31.6610   25.0732 C   0  0  0  0  0  0
  -25.3732  -31.3665   26.1483 C   0  0  0  0  0  0
  -27.0283  -30.3072   24.6064 C   0  0  0  0  0  0
  -27.6040  -32.4321   25.7490 C   0  0  0  0  0  0
  -27.5592  -37.1814   24.8462 C   0  0  0  0  0  0
  -21.4150  -29.3023   22.3762 N   0  0  0  0  0  0
  -26.4300  -37.3807   23.9416 N   0  0  0  0  0  0
  -24.6671  -31.0794   22.0996 N   0  0  0  0  0  0
  -23.4189  -28.8190   23.3066 O   0  0  0  0  0  0
  -28.4274  -26.7586   20.0233 O   0  0  0  0  0  0
  -26.5593  -34.8926   22.4703 O   0  0  0  0  0  0
  -23.5327  -32.1422   23.7502 O   0  0  0  0  0  0
  -31.7172  -22.2106   20.1746 C   0  0  0  0  0  0
  -29.5979  -21.0685   20.3338 C   0  0  0  0  0  0
  -30.3768  -22.2100   20.6031 C   0  0  0  0  0  0
  -32.2108  -21.0846   19.4865 C   0  0  0  0  0  0
  -30.1647  -19.9914   19.6219 C   0  0  0  0  0  0
  -33.6382  -21.0474   18.9827 C   0  0  0  0  0  0
  -28.8541  -19.3565   17.6179 C   0  0  0  0  0  0
  -28.8207  -16.4837   18.3699 C   0  0  0  0  0  0
  -29.7615  -23.4238   21.2859 C   0  0  0  0  0  0
  -29.4582  -24.5784   20.3079 C   0  0  0  0  0  0
  -30.0460  -16.9562   20.6088 C   0  0  0  0  0  0
  -28.5199  -25.6425   20.9057 C   0  0  0  0  0  0
  -29.2494  -18.9109   19.0449 C   0  0  1  0  0  0
  -29.7670  -17.4311   19.1425 C   0  0  2  0  0  0
  -31.4498  -20.0058   19.1990 N   0  0  0  0  0  0
  -29.8643  -15.5107   20.8537 N   0  0  0  0  0  0
  -31.4788  -12.3951   19.1298 H   0  0  0  0  0  0
  -30.3458  -11.2839   19.8492 H   0  0  0  0  0  0
  -29.7323  -11.6879   17.4730 H   0  0  0  0  0  0
  -29.7028  -13.4075   17.7237 H   0  0  0  0  0  0
  -27.8011  -11.3046   18.8067 H   0  0  0  0  0  0
  -27.3863  -12.6554   17.7879 H   0  0  0  0  0  0
  -27.7010  -14.2369   19.5885 H   0  0  0  0  0  0
  -28.6976  -11.9498   21.3572 H   0  0  0  0  0  0
  -28.4886  -13.5910   21.8776 H   0  0  0  0  0  0
  -25.2784   -9.5686   22.4743 H   0  0  0  0  0  0
  -23.9982   -7.4683   22.7539 H   0  0  0  0  0  0
  -21.0849   -8.8845   19.8952 H   0  0  0  0  0  0
  -22.3737  -10.9724   19.6202 H   0  0  0  0  0  0
  -21.2025   -7.6176   23.9685 H   0  0  0  0  0  0
  -21.1450   -6.0569   25.9062 H   0  0  0  0  0  0
  -22.0597   -2.7619   23.2874 H   0  0  0  0  0  0
  -22.4208  -11.9818   22.4662 H   0  0  0  0  0  0
  -21.1221  -13.1230   22.2679 H   0  0  0  0  0  0
  -24.6750  -15.8428   20.5087 H   0  0  0  0  0  0
  -26.2906  -15.6165   20.0739 H   0  0  0  0  0  0
  -26.7113  -32.5566   23.1198 H   0  0  0  0  0  0
  -25.0040  -33.9801   25.0496 H   0  0  0  0  0  0
  -22.6911  -31.3016   21.4080 H   0  0  0  0  0  0
  -23.3756  -35.9650   23.3279 H   0  0  0  0  0  0
  -24.3585  -36.8971   22.2057 H   0  0  0  0  0  0
  -23.7221  -37.6518   23.6672 H   0  0  0  0  0  0
  -26.0307  -31.6015   20.5834 H   0  0  0  0  0  0
  -26.8219  -30.9051   21.9700 H   0  0  0  0  0  0
  -28.1153  -29.1432   21.1319 H   0  0  0  0  0  0
  -26.1035  -25.9697   19.0255 H   0  0  0  0  0  0
  -23.9921  -27.2703   19.0546 H   0  0  0  0  0  0
  -23.7193  -30.5818   19.4034 H   0  0  0  0  0  0
  -22.7397  -29.2247   19.8783 H   0  0  0  0  0  0
  -25.1271  -36.2001   25.0836 H   0  0  0  0  0  0
  -20.9945  -28.3206   24.1471 H   0  0  0  0  0  0
  -20.5673  -26.2255   23.3596 H   0  0  0  0  0  0
  -21.6627  -26.7429   22.1226 H   0  0  0  0  0  0
  -19.6882  -25.6305   21.1241 H   0  0  0  0  0  0
  -19.6669  -27.3208   20.6766 H   0  0  0  0  0  0
  -17.4181  -26.6700   21.4032 H   0  0  0  0  0  0
  -18.0280  -26.0069   22.9017 H   0  0  0  0  0  0
  -19.7905  -30.7270   24.2307 H   0  0  0  0  0  0
  -17.4977  -31.6262   24.5173 H   0  0  0  0  0  0
  -15.5332  -30.2989   23.7617 H   0  0  0  0  0  0
  -15.8667  -28.0830   22.7035 H   0  0  0  0  0  0
  -24.5918  -30.7005   25.7803 H   0  0  0  0  0  0
  -24.8896  -32.2789   26.4983 H   0  0  0  0  0  0
  -25.8100  -30.8798   27.0214 H   0  0  0  0  0  0
  -26.2805  -29.6845   24.1138 H   0  0  0  0  0  0
  -27.4101  -29.7288   25.4488 H   0  0  0  0  0  0
  -27.8615  -30.4421   23.9166 H   0  0  0  0  0  0
  -27.2680  -33.3618   26.2093 H   0  0  0  0  0  0
  -28.3827  -32.6891   25.0300 H   0  0  0  0  0  0
  -28.0734  -31.8434   26.5380 H   0  0  0  0  0  0
  -28.2588  -38.0136   24.7559 H   0  0  0  0  0  0
  -28.1117  -36.2672   24.6235 H   0  0  0  0  0  0
  -27.2317  -37.1402   25.8864 H   0  0  0  0  0  0
  -20.9318  -29.8755   21.6988 H   0  0  0  0  0  0
  -26.0195  -38.2882   24.1436 H   0  0  0  0  0  0
  -32.3521  -23.0706   20.3479 H   0  0  0  0  0  0
  -28.5494  -21.0517   20.5981 H   0  0  0  0  0  0
  -34.2645  -21.7545   19.5261 H   0  0  0  0  0  0
  -33.6745  -21.3090   17.9248 H   0  0  0  0  0  0
  -34.0719  -20.0537   19.1030 H   0  0  0  0  0  0
  -28.5314  -20.3981   17.6173 H   0  0  0  0  0  0
  -28.0188  -18.7885   17.2141 H   0  0  0  0  0  0
  -29.6938  -19.2787   16.9265 H   0  0  0  0  0  0
  -29.1705  -15.4581   18.3774 H   0  0  0  0  0  0
  -28.7683  -16.7348   17.3115 H   0  0  0  0  0  0
  -27.8079  -16.5144   18.7751 H   0  0  0  0  0  0
  -30.4293  -23.7728   22.0747 H   0  0  0  0  0  0
  -28.8415  -23.1155   21.7857 H   0  0  0  0  0  0
  -28.9925  -24.1767   19.4075 H   0  0  0  0  0  0
  -30.3947  -25.0375   19.9894 H   0  0  0  0  0  0
  -29.3606  -17.4699   21.2820 H   0  0  0  0  0  0
  -31.0456  -17.2639   20.9186 H   0  0  0  0  0  0
  -28.9095  -25.9965   21.8614 H   0  0  0  0  0  0
  -27.5418  -25.1984   21.1051 H   0  0  0  0  0  0
  -28.3299  -18.9473   19.6325 H   0  0  0  0  0  0
  -30.7243  -17.3854   18.6192 H   0  0  0  0  0  0
  -28.9502  -15.2327   21.1787 H   0  0  0  0  0  0
  1 25  1  0  0  0
  1 30  2  0  0  0
  1 86  1  0  0  0
  2  3  1  0  0  0
  2 25  1  0  0  0
  2 87  1  0  0  0
  2 88  1  0  0  0
  3  4  1  0  0  0
  3 89  1  0  0  0
  3 90  1  0  0  0
  4  5  1  0  0  0
  4 91  1  0  0  0
  4 92  1  0  0  0
  5  6  1  0  0  0
  5 26  1  0  0  0
  5 93  1  0  0  0
  6 25  1  0  0  0
  6 94  1  0  0  0
  6 95  1  0  0  0
  7  8  2  0  0  0
  7 26  1  0  0  0
  7 29  1  0  0  0
  8  9  1  0  0  0
  8 22  1  0  0  0
  9 10  1  0  0  0
  9 27  2  0  0  0
 10 11  2  0  0  0
 10 15  1  0  0  0
 11 12  1  0  0  0
 11 96  1  0  0  0
 12 13  2  0  0  0
 12 97  1  0  0  0
 13 14  1  0  0  0
 13 31  1  0  0  0
 14 15  2  0  0  0
 14 98  1  0  0  0
 15 99  1  0  0  0
 16 17  2  0  0  0
 16 21  1  0  0  0
 16 31  1  0  0  0
 17 18  1  0  0  0
 17100  1  0  0  0
 18 19  2  0  0  0
 18101  1  0  0  0
 19 20  1  0  0  0
 19 24  1  0  0  0
 20 21  2  0  0  0
 20102  1  0  0  0
 21 23  1  0  0  0
 22 28  1  0  0  0
 22 32  2  0  0  0
 26 27  1  0  0  0
 28103  1  0  0  0
 28104  1  0  0  0
 29105  1  0  0  0
 29106  1  0  0  0
 33 34  1  0  0  0
 33 66  1  0  0  0
 33 70  2  0  0  0
 34 36  1  0  0  0
 34 59  1  0  0  0
 34107  1  0  0  0
 35 44  2  0  0  0
 35 45  1  0  0  0
 35 68  1  0  0  0
 36 56  1  0  0  0
 36108  1  0  0  0
 37 39  1  0  0  0
 37 47  1  0  0  0
 37 66  1  0  0  0
 37109  1  0  0  0
 38 43  2  0  0  0
 38 46  1  0  0  0
 38 47  1  0  0  0
 39 64  1  0  0  0
 39 67  2  0  0  0
 40 52  1  0  0  0
 40 53  2  0  0  0
 40 58  1  0  0  0
 41110  1  0  0  0
 41111  1  0  0  0
 41112  1  0  0  0
 41 48  1  0  0  0
 42 43  1  0  0  0
 42 66  1  0  0  0
 42113  1  0  0  0
 42114  1  0  0  0
 43 44  1  0  0  0
 44115  1  0  0  0
 45 46  2  0  0  0
 45116  1  0  0  0
 46117  1  0  0  0
 47118  1  0  0  0
 47119  1  0  0  0
 48 56  1  0  0  0
 48 65  1  0  0  0
 48120  1  0  0  0
 49 50  1  0  0  0
 49 53  1  0  0  0
 49 64  1  0  0  0
 49121  1  0  0  0
 50 51  1  0  0  0
 50122  1  0  0  0
 50123  1  0  0  0
 51 52  1  0  0  0
 51124  1  0  0  0
 51125  1  0  0  0
 52126  1  0  0  0
 52127  1  0  0  0
 53 54  1  0  0  0
 54 55  2  0  0  0
 54128  1  0  0  0
 55 57  1  0  0  0
 55129  1  0  0  0
 56 69  2  0  0  0
 57 58  2  0  0  0
 57130  1  0  0  0
 58131  1  0  0  0
 59 60  1  0  0  0
 59 61  1  0  0  0
 59 62  1  0  0  0
 60132  1  0  0  0
 60133  1  0  0  0
 60134  1  0  0  0
 61135  1  0  0  0
 61136  1  0  0  0
 61137  1  0  0  0
 62138  1  0  0  0
 62139  1  0  0  0
 62140  1  0  0  0
 63 65  1  0  0  0
 63141  1  0  0  0
 63142  1  0  0  0
 63143  1  0  0  0
 64144  1  0  0  0
 65145  1  0  0  0
 68 82  1  0  0  0
 71 73  2  0  0  0
 71 74  1  0  0  0
 71146  1  0  0  0
 72 73  1  0  0  0
 72 75  2  0  0  0
 72147  1  0  0  0
 73 79  1  0  0  0
 74 76  1  0  0  0
 74 85  2  0  0  0
 75 83  1  0  0  0
 75 85  1  0  0  0
 76148  1  0  0  0
 76149  1  0  0  0
 76150  1  0  0  0
 77151  1  0  0  0
 77152  1  0  0  0
 77153  1  0  0  0
 77 83  1  0  0  0
 78154  1  0  0  0
 78155  1  0  0  0
 78156  1  0  0  0
 78 84  1  0  0  0
 79 80  1  0  0  0
 79157  1  0  0  0
 79158  1  0  0  0
 80 82  1  0  0  0
 80159  1  0  0  0
 80160  1  0  0  0
 81 84  1  0  0  0
 81 86  1  0  0  0
 81161  1  0  0  0
 81162  1  0  0  0
 82163  1  0  0  0
 82164  1  0  0  0
 83 84  1  0  0  0
 83165  1  0  0  0
 84166  1  0  0  0
 86167  1  0  0  0
M  ISO  4   1 100  68 101  82 101  86 100
M  END
> <chiral flag>
0

> <version>
0

> <s_m_source_file>
/data/baiqing/PycharmProjects/Reinvent-master-3.2/result/LINK_invent/BTK/process_docking_weight1_custom_sum_contain_oxygen_bond_distance_aromatic_linkinvent_7_9_3/rearranged_h_0080.sdf

> <i_m_source_file_index>
56

> <r_mmod_Potential_Energy-OPLS-2005>
-240.787399291992

> <r_mmod_Stretch_Energy-OPLS-2005>
37.2653160095215

> <r_mmod_Bend_Energy-OPLS-2005>
98.4203033447266

> <r_mmod_Torsional_Energy-OPLS-2005>
237.589126586914

> <r_mmod_Improper_Torsional_Energy-OPLS-2005>
7.93271923065186

> <r_mmod_Van_der_Waal_Energy-OPLS-2005>
150.4677734375

> <r_mmod_Electrostatic_Energy-OPLS-2005>
-567.664001464844

> <r_mmod_Solvation_Energy-OPLS-2005>
-218.1884765625

> <b_mmod_Minimization_Converged-OPLS-2005>
0

> <r_mmod_RMS_Derivative-OPLS-2005>
2.4476056098938

$$$$
58
                    3D
 Structure written by MMmdl.
167175  0  0  1  0            999 V2000
  -30.7535  -14.4698   20.5483 C   0  0  0  0  0  0
  -30.4180  -12.3097   19.4259 C   0  0  0  0  0  0
  -29.4937  -12.4361   18.1986 C   0  0  0  0  0  0
  -28.0148  -12.3076   18.6111 C   0  0  0  0  0  0
  -27.6446  -13.1888   19.8330 C   0  0  2  0  0  0
  -28.6889  -13.0672   20.9694 C   0  0  0  0  0  0
  -25.2550  -13.8081   20.5597 C   0  0  0  0  0  0
  -24.1791  -13.0369   20.9205 C   0  0  0  0  0  0
  -24.6345  -11.6850   20.8765 C   0  0  0  0  0  0
  -23.9024  -10.4238   21.0455 C   0  0  0  0  0  0
  -24.3573   -9.4141   21.9220 C   0  0  0  0  0  0
  -23.6243   -8.2178   22.0774 C   0  0  0  0  0  0
  -22.4226   -8.0243   21.3564 C   0  0  0  0  0  0
  -21.9881   -9.0211   20.4666 C   0  0  0  0  0  0
  -22.7206  -10.2095   20.3096 C   0  0  0  0  0  0
  -21.6819   -6.0721   22.5292 C   0  0  0  0  0  0
  -21.3991   -6.5634   23.8216 C   0  0  0  0  0  0
  -21.3677   -5.6789   24.9179 C   0  0  0  0  0  0
  -21.6031   -4.3048   24.7232 C   0  0  0  0  0  0
  -21.8804   -3.8143   23.4351 C   0  0  0  0  0  0
  -21.9162   -4.6961   22.3401 C   0  0  0  0  0  0
  -22.7823  -13.5219   21.1839 C   0  0  0  0  0  0
  -22.1626   -4.2139   21.0985 F   0  0  0  0  0  0
  -21.5642   -3.4544   25.7751 F   0  0  0  0  0  0
  -30.0209  -13.3335   20.4013 N   0  0  0  0  0  0
  -26.2926  -12.9212   20.3167 N   0  0  0  0  0  0
  -25.9254  -11.6405   20.5735 N   0  0  0  0  0  0
  -22.0445  -12.8246   22.0426 N   0  0  0  0  0  0
  -25.4203  -15.1782   20.4000 N   0  0  0  0  0  0
  -31.9121  -14.5839   20.1511 O   0  0  0  0  0  0
  -21.6601   -6.8839   21.4236 O   0  0  0  0  0  0
  -22.3532  -14.5534   20.6713 O   0  0  0  0  0  0
  -24.6112  -31.8752   23.2097 C   0  0  0  0  0  0
  -25.9038  -32.4844   23.8352 C   0  0  1  0  0  0
  -27.2056  -27.4407   20.0754 C   0  0  0  0  0  0
  -25.5925  -33.8640   24.2310 N   0  0  0  0  0  0
  -23.3893  -30.5053   21.5549 C   0  0  2  0  0  0
  -24.8253  -28.9737   20.1135 C   0  0  0  0  0  0
  -22.7331  -29.4752   22.4993 C   0  0  0  0  0  0
  -18.0266  -28.1367   22.8490 C   0  0  0  0  0  0
  -24.1509  -36.7302   23.2624 C   0  0  0  0  0  0
  -25.9196  -30.8371   21.3590 C   0  0  0  0  0  0
  -25.9915  -29.4744   20.7054 C   0  0  0  0  0  0
  -27.1834  -28.7116   20.6929 C   0  0  0  0  0  0
  -26.0227  -26.9740   19.4453 C   0  0  0  0  0  0
  -24.8334  -27.7211   19.4868 C   0  0  0  0  0  0
  -23.5888  -29.8428   20.1684 C   0  0  0  0  0  0
  -25.4128  -36.3101   24.0323 C   0  0  1  0  0  0
  -20.5852  -28.3679   23.1308 C   0  0  2  0  0  0
  -20.6774  -26.9431   22.5394 C   0  0  0  0  0  0
  -19.5728  -26.6405   21.5225 C   0  0  0  0  0  0
  -18.1909  -26.7943   22.1624 C   0  0  0  0  0  0
  -19.1517  -28.8837   23.2923 C   0  0  0  0  0  0
  -18.9411  -30.1450   23.8915 C   0  0  0  0  0  0
  -17.6404  -30.6591   24.0532 C   0  0  0  0  0  0
  -25.9053  -34.9484   23.5118 C   0  0  0  0  0  0
  -16.5314  -29.9073   23.6286 C   0  0  0  0  0  0
  -16.7258  -28.6483   23.0346 C   0  0  0  0  0  0
  -26.4466  -31.6605   25.0670 C   0  0  0  0  0  0
  -25.3698  -31.3711   26.1388 C   0  0  0  0  0  0
  -27.0278  -30.3043   24.6026 C   0  0  0  0  0  0
  -27.6065  -32.4291   25.7441 C   0  0  0  0  0  0
  -27.5608  -37.1793   24.8469 C   0  0  0  0  0  0
  -21.4077  -29.3066   22.3679 N   0  0  0  0  0  0
  -26.4312  -37.3791   23.9418 N   0  0  0  0  0  0
  -24.6585  -31.0834   22.1008 N   0  0  0  0  0  0
  -23.4123  -28.8335   23.3068 O   0  0  0  0  0  0
  -28.3532  -26.6724   20.1252 O   0  0  0  0  0  0
  -26.5633  -34.8928   22.4687 O   0  0  0  0  0  0
  -23.5334  -32.1542   23.7512 O   0  0  0  0  0  0
  -26.4686  -20.6204   20.8198 C   0  0  0  0  0  0
  -25.6737  -20.1177   19.7826 C   0  0  0  0  0  0
  -27.6732  -19.9587   21.1532 C   0  0  0  0  0  0
  -26.0852  -18.9449   19.1386 C   0  0  0  0  0  0
  -27.9618  -18.7254   20.5074 C   0  0  0  0  0  0
  -25.3554  -18.4186   17.9247 C   0  0  0  0  0  0
  -29.6146  -16.4728   18.7264 C   0  0  0  0  0  0
  -28.5981  -20.5977   22.1931 C   0  0  0  0  0  0
  -29.1916  -17.8630   20.8447 C   0  0  0  0  0  0
  -29.3835  -21.8513   21.7096 C   0  0  0  0  0  0
  -28.5155  -22.9873   21.1150 C   0  0  0  0  0  0
  -29.1019  -24.4158   20.9705 C   0  0  0  0  0  0
  -28.1315  -25.2502   20.1068 C   0  0  0  0  0  0
  -29.2380  -16.4286   20.2348 C   0  0  1  0  0  0
  -27.1736  -18.2554   19.5142 N   0  0  0  0  0  0
  -30.1325  -15.5553   21.0279 N   0  0  0  0  0  0
  -31.4579  -12.4154   19.1134 H   0  0  0  0  0  0
  -30.3430  -11.3215   19.8824 H   0  0  0  0  0  0
  -29.7439  -11.6632   17.4709 H   0  0  0  0  0  0
  -29.6542  -13.3873   17.6936 H   0  0  0  0  0  0
  -27.8238  -11.2579   18.8361 H   0  0  0  0  0  0
  -27.3728  -12.5597   17.7653 H   0  0  0  0  0  0
  -27.6442  -14.2033   19.4487 H   0  0  0  0  0  0
  -28.6741  -12.0682   21.4077 H   0  0  0  0  0  0
  -28.4445  -13.7554   21.7795 H   0  0  0  0  0  0
  -25.2715   -9.5594   22.4804 H   0  0  0  0  0  0
  -23.9949   -7.4551   22.7496 H   0  0  0  0  0  0
  -21.0817   -8.8725   19.8953 H   0  0  0  0  0  0
  -22.3675  -10.9640   19.6213 H   0  0  0  0  0  0
  -21.1988   -7.6143   23.9718 H   0  0  0  0  0  0
  -21.1535   -6.0530   25.9084 H   0  0  0  0  0  0
  -22.0582   -2.7615   23.2852 H   0  0  0  0  0  0
  -22.4025  -11.9933   22.4885 H   0  0  0  0  0  0
  -21.1088  -13.1363   22.2576 H   0  0  0  0  0  0
  -24.6469  -15.8194   20.5307 H   0  0  0  0  0  0
  -26.2616  -15.6474   20.0832 H   0  0  0  0  0  0
  -26.7115  -32.5542   23.1107 H   0  0  0  0  0  0
  -25.0007  -33.9832   25.0413 H   0  0  0  0  0  0
  -22.6770  -31.3251   21.4248 H   0  0  0  0  0  0
  -23.3777  -35.9636   23.3287 H   0  0  0  0  0  0
  -24.3580  -36.8920   22.2040 H   0  0  0  0  0  0
  -23.7287  -37.6500   23.6654 H   0  0  0  0  0  0
  -26.0227  -31.5981   20.5858 H   0  0  0  0  0  0
  -26.8123  -30.8935   21.9688 H   0  0  0  0  0  0
  -28.0754  -29.0791   21.1830 H   0  0  0  0  0  0
  -25.9895  -26.0254   18.9267 H   0  0  0  0  0  0
  -23.9300  -27.3373   19.0325 H   0  0  0  0  0  0
  -23.6878  -30.6213   19.4103 H   0  0  0  0  0  0
  -22.7048  -29.2686   19.8817 H   0  0  0  0  0  0
  -25.1313  -36.1930   25.0819 H   0  0  0  0  0  0
  -20.9986  -28.3285   24.1413 H   0  0  0  0  0  0
  -20.5733  -26.2313   23.3590 H   0  0  0  0  0  0
  -21.6647  -26.7530   22.1134 H   0  0  0  0  0  0
  -19.6901  -25.6334   21.1225 H   0  0  0  0  0  0
  -19.6640  -27.3244   20.6768 H   0  0  0  0  0  0
  -17.4202  -26.6762   21.3998 H   0  0  0  0  0  0
  -18.0253  -26.0056   22.8972 H   0  0  0  0  0  0
  -19.7855  -30.7295   24.2314 H   0  0  0  0  0  0
  -17.4922  -31.6245   24.5150 H   0  0  0  0  0  0
  -15.5293  -30.2960   23.7553 H   0  0  0  0  0  0
  -15.8695  -28.0779   22.7052 H   0  0  0  0  0  0
  -24.5842  -30.7123   25.7661 H   0  0  0  0  0  0
  -24.8901  -32.2881   26.4843 H   0  0  0  0  0  0
  -25.7983  -30.8805   27.0143 H   0  0  0  0  0  0
  -26.2817  -29.6809   24.1074 H   0  0  0  0  0  0
  -27.4073  -29.7275   25.4475 H   0  0  0  0  0  0
  -27.8646  -30.4368   23.9157 H   0  0  0  0  0  0
  -27.2737  -33.3596   26.2061 H   0  0  0  0  0  0
  -28.3872  -32.6845   25.0258 H   0  0  0  0  0  0
  -28.0742  -31.8357   26.5314 H   0  0  0  0  0  0
  -28.2611  -38.0101   24.7535 H   0  0  0  0  0  0
  -28.1117  -36.2630   24.6277 H   0  0  0  0  0  0
  -27.2301  -37.1419   25.8860 H   0  0  0  0  0  0
  -20.9242  -29.8610   21.6729 H   0  0  0  0  0  0
  -26.0177  -38.2862   24.1413 H   0  0  0  0  0  0
  -26.1658  -21.5323   21.3138 H   0  0  0  0  0  0
  -24.7818  -20.6433   19.4735 H   0  0  0  0  0  0
  -24.6900  -19.1772   17.5171 H   0  0  0  0  0  0
  -24.7801  -17.5205   18.1524 H   0  0  0  0  0  0
  -26.0781  -18.1773   17.1464 H   0  0  0  0  0  0
  -28.8453  -16.9458   18.1139 H   0  0  0  0  0  0
  -29.7528  -15.4868   18.2925 H   0  0  0  0  0  0
  -30.5419  -17.0281   18.5819 H   0  0  0  0  0  0
  -29.3095  -19.8664   22.5660 H   0  0  0  0  0  0
  -28.0040  -20.8543   23.0680 H   0  0  0  0  0  0
  -29.2025  -17.7431   21.9267 H   0  0  0  0  0  0
  -30.0863  -18.4251   20.5717 H   0  0  0  0  0  0
  -30.1170  -21.5303   20.9671 H   0  0  0  0  0  0
  -29.9488  -22.2255   22.5634 H   0  0  0  0  0  0
  -28.1875  -22.6629   20.1274 H   0  0  0  0  0  0
  -27.6289  -23.0977   21.7407 H   0  0  0  0  0  0
  -30.1056  -24.4184   20.5474 H   0  0  0  0  0  0
  -29.1867  -24.8659   21.9589 H   0  0  0  0  0  0
  -27.1478  -25.0136   20.5161 H   0  0  0  0  0  0
  -28.1219  -24.8907   19.0750 H   0  0  0  0  0  0
  -28.2475  -16.0049   20.3599 H   0  0  0  0  0  0
  -30.7939  -16.1298   21.5317 H   0  0  0  0  0  0
  1 25  1  0  0  0
  1 30  2  0  0  0
  1 86  1  0  0  0
  2  3  1  0  0  0
  2 25  1  0  0  0
  2 87  1  0  0  0
  2 88  1  0  0  0
  3  4  1  0  0  0
  3 89  1  0  0  0
  3 90  1  0  0  0
  4  5  1  0  0  0
  4 91  1  0  0  0
  4 92  1  0  0  0
  5  6  1  0  0  0
  5 26  1  0  0  0
  5 93  1  0  0  0
  6 25  1  0  0  0
  6 94  1  0  0  0
  6 95  1  0  0  0
  7  8  2  0  0  0
  7 26  1  0  0  0
  7 29  1  0  0  0
  8  9  1  0  0  0
  8 22  1  0  0  0
  9 10  1  0  0  0
  9 27  2  0  0  0
 10 11  2  0  0  0
 10 15  1  0  0  0
 11 12  1  0  0  0
 11 96  1  0  0  0
 12 13  2  0  0  0
 12 97  1  0  0  0
 13 14  1  0  0  0
 13 31  1  0  0  0
 14 15  2  0  0  0
 14 98  1  0  0  0
 15 99  1  0  0  0
 16 17  2  0  0  0
 16 21  1  0  0  0
 16 31  1  0  0  0
 17 18  1  0  0  0
 17100  1  0  0  0
 18 19  2  0  0  0
 18101  1  0  0  0
 19 20  1  0  0  0
 19 24  1  0  0  0
 20 21  2  0  0  0
 20102  1  0  0  0
 21 23  1  0  0  0
 22 28  1  0  0  0
 22 32  2  0  0  0
 26 27  1  0  0  0
 28103  1  0  0  0
 28104  1  0  0  0
 29105  1  0  0  0
 29106  1  0  0  0
 33 34  1  0  0  0
 33 66  1  0  0  0
 33 70  2  0  0  0
 34 36  1  0  0  0
 34 59  1  0  0  0
 34107  1  0  0  0
 35 44  2  0  0  0
 35 45  1  0  0  0
 35 68  1  0  0  0
 36 56  1  0  0  0
 36108  1  0  0  0
 37 39  1  0  0  0
 37 47  1  0  0  0
 37 66  1  0  0  0
 37109  1  0  0  0
 38 43  2  0  0  0
 38 46  1  0  0  0
 38 47  1  0  0  0
 39 64  1  0  0  0
 39 67  2  0  0  0
 40 52  1  0  0  0
 40 53  2  0  0  0
 40 58  1  0  0  0
 41110  1  0  0  0
 41111  1  0  0  0
 41112  1  0  0  0
 41 48  1  0  0  0
 42 43  1  0  0  0
 42 66  1  0  0  0
 42113  1  0  0  0
 42114  1  0  0  0
 43 44  1  0  0  0
 44115  1  0  0  0
 45 46  2  0  0  0
 45116  1  0  0  0
 46117  1  0  0  0
 47118  1  0  0  0
 47119  1  0  0  0
 48 56  1  0  0  0
 48 65  1  0  0  0
 48120  1  0  0  0
 49 50  1  0  0  0
 49 53  1  0  0  0
 49 64  1  0  0  0
 49121  1  0  0  0
 50 51  1  0  0  0
 50122  1  0  0  0
 50123  1  0  0  0
 51 52  1  0  0  0
 51124  1  0  0  0
 51125  1  0  0  0
 52126  1  0  0  0
 52127  1  0  0  0
 53 54  1  0  0  0
 54 55  2  0  0  0
 54128  1  0  0  0
 55 57  1  0  0  0
 55129  1  0  0  0
 56 69  2  0  0  0
 57 58  2  0  0  0
 57130  1  0  0  0
 58131  1  0  0  0
 59 60  1  0  0  0
 59 61  1  0  0  0
 59 62  1  0  0  0
 60132  1  0  0  0
 60133  1  0  0  0
 60134  1  0  0  0
 61135  1  0  0  0
 61136  1  0  0  0
 61137  1  0  0  0
 62138  1  0  0  0
 62139  1  0  0  0
 62140  1  0  0  0
 63 65  1  0  0  0
 63141  1  0  0  0
 63142  1  0  0  0
 63143  1  0  0  0
 64144  1  0  0  0
 65145  1  0  0  0
 68 83  1  0  0  0
 71 72  2  0  0  0
 71 73  1  0  0  0
 71146  1  0  0  0
 72 74  1  0  0  0
 72147  1  0  0  0
 73 75  2  0  0  0
 73 78  1  0  0  0
 74 76  1  0  0  0
 74 85  2  0  0  0
 75 79  1  0  0  0
 75 85  1  0  0  0
 76148  1  0  0  0
 76149  1  0  0  0
 76150  1  0  0  0
 77151  1  0  0  0
 77152  1  0  0  0
 77153  1  0  0  0
 77 84  1  0  0  0
 78 80  1  0  0  0
 78154  1  0  0  0
 78155  1  0  0  0
 79 84  1  0  0  0
 79156  1  0  0  0
 79157  1  0  0  0
 80 81  1  0  0  0
 80158  1  0  0  0
 80159  1  0  0  0
 81 82  1  0  0  0
 81160  1  0  0  0
 81161  1  0  0  0
 82 83  1  0  0  0
 82162  1  0  0  0
 82163  1  0  0  0
 83164  1  0  0  0
 83165  1  0  0  0
 84 86  1  0  0  0
 84166  1  0  0  0
 86167  1  0  0  0
M  ISO  4   1 100  68 101  83 101  86 100
M  END
> <chiral flag>
0

> <version>
0

> <s_m_source_file>
/data/baiqing/PycharmProjects/Reinvent-master-3.2/result/LINK_invent/BTK/process_docking_weight1_custom_sum_contain_oxygen_bond_distance_aromatic_linkinvent_7_9_3/rearranged_h_0080.sdf

> <i_m_source_file_index>
57

> <r_mmod_Potential_Energy-OPLS-2005>
-47.6307220458984

> <r_mmod_Stretch_Energy-OPLS-2005>
39.0445823669434

> <r_mmod_Bend_Energy-OPLS-2005>
119.794898986816

> <r_mmod_Torsional_Energy-OPLS-2005>
278.375946044922

> <r_mmod_Improper_Torsional_Energy-OPLS-2005>
7.62460041046143

> <r_mmod_Van_der_Waal_Energy-OPLS-2005>
167.584579467773

> <r_mmod_Electrostatic_Energy-OPLS-2005>
-483.416046142578

> <r_mmod_Solvation_Energy-OPLS-2005>
-199.220413208008

> <b_mmod_Minimization_Converged-OPLS-2005>
0

> <r_mmod_RMS_Derivative-OPLS-2005>
6.23772048950195

$$$$
59
                    3D
 Structure written by MMmdl.
184192  0  0  1  0            999 V2000
  -30.7043  -14.3959   20.7061 C   0  0  0  0  0  0
  -30.4385  -12.3102   19.4044 C   0  0  0  0  0  0
  -29.4947  -12.5636   18.2101 C   0  0  0  0  0  0
  -28.0147  -12.4105   18.6140 C   0  0  0  0  0  0
  -27.6738  -13.2022   19.9016 C   0  0  2  0  0  0
  -28.7075  -12.8933   21.0083 C   0  0  0  0  0  0
  -25.2609  -13.8151   20.5689 C   0  0  0  0  0  0
  -24.1831  -13.0454   20.9155 C   0  0  0  0  0  0
  -24.6383  -11.6911   20.8719 C   0  0  0  0  0  0
  -23.9052  -10.4304   21.0407 C   0  0  0  0  0  0
  -24.3607   -9.4227   21.9197 C   0  0  0  0  0  0
  -23.6295   -8.2258   22.0758 C   0  0  0  0  0  0
  -22.4264   -8.0282   21.3551 C   0  0  0  0  0  0
  -21.9906   -9.0248   20.4650 C   0  0  0  0  0  0
  -22.7230  -10.2132   20.3056 C   0  0  0  0  0  0
  -21.6854   -6.0737   22.5295 C   0  0  0  0  0  0
  -21.4008   -6.5646   23.8222 C   0  0  0  0  0  0
  -21.3649   -5.6800   24.9185 C   0  0  0  0  0  0
  -21.6044   -4.3065   24.7244 C   0  0  0  0  0  0
  -21.8814   -3.8152   23.4363 C   0  0  0  0  0  0
  -21.9194   -4.6963   22.3424 C   0  0  0  0  0  0
  -22.7844  -13.5234   21.1857 C   0  0  0  0  0  0
  -22.1660   -4.2151   21.1001 F   0  0  0  0  0  0
  -21.5627   -3.4545   25.7762 F   0  0  0  0  0  0
  -30.0575  -13.2162   20.4998 N   0  0  0  0  0  0
  -26.3075  -12.9315   20.3465 N   0  0  0  0  0  0
  -25.9313  -11.6475   20.5771 N   0  0  0  0  0  0
  -22.0479  -12.8215   22.0394 N   0  0  0  0  0  0
  -25.4344  -15.1870   20.4087 N   0  0  0  0  0  0
  -31.7077  -14.7400   20.0731 O   0  0  0  0  0  0
  -21.6633   -6.8871   21.4248 O   0  0  0  0  0  0
  -22.3545  -14.5563   20.6714 O   0  0  0  0  0  0
  -24.6082  -31.8692   23.2127 C   0  0  0  0  0  0
  -25.9001  -32.4824   23.8433 C   0  0  1  0  0  0
  -27.2420  -27.4767   20.0638 C   0  0  0  0  0  0
  -25.5924  -33.8635   24.2388 N   0  0  0  0  0  0
  -23.3940  -30.4955   21.5496 C   0  0  2  0  0  0
  -24.8373  -28.9602   20.1147 C   0  0  0  0  0  0
  -22.7363  -29.4688   22.4994 C   0  0  0  0  0  0
  -18.0245  -28.1370   22.8489 C   0  0  0  0  0  0
  -24.1481  -36.7275   23.2629 C   0  0  0  0  0  0
  -25.9146  -30.8484   21.3502 C   0  0  0  0  0  0
  -25.9937  -29.4789   20.7106 C   0  0  0  0  0  0
  -27.1929  -28.7398   20.6896 C   0  0  0  0  0  0
  -26.0632  -26.9606   19.4729 C   0  0  0  0  0  0
  -24.8652  -27.6952   19.5012 C   0  0  0  0  0  0
  -23.5999  -29.8251   20.1636 C   0  0  0  0  0  0
  -25.4101  -36.3112   24.0354 C   0  0  1  0  0  0
  -20.5840  -28.3655   23.1304 C   0  0  2  0  0  0
  -20.6744  -26.9396   22.5397 C   0  0  0  0  0  0
  -19.5746  -26.6389   21.5174 C   0  0  0  0  0  0
  -18.1918  -26.7928   22.1578 C   0  0  0  0  0  0
  -19.1496  -28.8814   23.2916 C   0  0  0  0  0  0
  -18.9421  -30.1399   23.8985 C   0  0  0  0  0  0
  -17.6430  -30.6584   24.0553 C   0  0  0  0  0  0
  -25.9023  -34.9464   23.5152 C   0  0  0  0  0  0
  -16.5323  -29.9102   23.6302 C   0  0  0  0  0  0
  -16.7223  -28.6477   23.0395 C   0  0  0  0  0  0
  -26.4480  -31.6573   25.0704 C   0  0  0  0  0  0
  -25.3814  -31.3527   26.1464 C   0  0  0  0  0  0
  -27.0249  -30.3065   24.5908 C   0  0  0  0  0  0
  -27.6145  -32.4201   25.7449 C   0  0  0  0  0  0
  -27.5583  -37.1752   24.8442 C   0  0  0  0  0  0
  -21.4099  -29.3050   22.3733 N   0  0  0  0  0  0
  -26.4246  -37.3824   23.9468 N   0  0  0  0  0  0
  -24.6586  -31.0862   22.0990 N   0  0  0  0  0  0
  -23.4143  -28.8236   23.3027 O   0  0  0  0  0  0
  -28.4477  -26.8129   20.0509 O   0  0  0  0  0  0
  -26.5547  -34.8888   22.4689 O   0  0  0  0  0  0
  -23.5283  -32.1391   23.7575 O   0  0  0  0  0  0
  -28.5324  -19.3869   22.5734 C   0  0  0  0  0  0
  -30.4058  -20.0589   21.5870 C   0  0  0  0  0  0
  -29.8448  -18.9715   22.2001 C   0  0  0  0  0  0
  -28.3180  -20.6721   22.1594 C   0  0  0  0  0  0
  -25.0580  -22.3095   25.6066 C   0  0  0  0  0  0
  -24.6736  -23.2872   23.3125 C   0  0  0  0  0  0
  -29.9949  -21.2719   18.6225 C   0  0  0  0  0  0
  -30.1704  -17.1834   23.8991 C   0  0  0  0  0  0
  -31.9828  -17.6192   22.2283 C   0  0  0  0  0  0
  -27.0723  -21.5010   22.3173 C   0  0  0  0  0  0
  -26.7702  -21.8759   23.7851 C   0  0  0  0  0  0
  -29.9966  -25.1014   19.5059 C   0  0  0  0  0  0
  -30.2844  -23.7492   18.8337 C   0  0  0  0  0  0
  -29.7789  -22.4027   20.9571 C   0  0  0  0  0  0
  -29.8332  -16.6157   21.4089 C   0  0  0  0  0  0
  -28.5874  -25.6487   19.2472 C   0  0  0  0  0  0
  -25.2752  -22.1116   24.0974 C   0  0  0  0  0  0
  -29.5562  -22.5166   19.4227 C   0  0  2  0  0  0
  -30.4578  -17.5933   22.4379 C   0  0  0  0  0  0
  -29.4888  -21.0959   21.5395 N   0  0  0  0  0  0
  -30.1163  -15.1913   21.6130 N   0  0  0  0  0  0
  -31.4759  -12.4568   19.1007 H   0  0  0  0  0  0
  -30.3735  -11.2735   19.7368 H   0  0  0  0  0  0
  -29.7305  -11.8909   17.3855 H   0  0  0  0  0  0
  -29.6594  -13.5753   17.8364 H   0  0  0  0  0  0
  -27.8082  -11.3493   18.7595 H   0  0  0  0  0  0
  -27.3675  -12.7388   17.7990 H   0  0  0  0  0  0
  -27.7452  -14.2644   19.6620 H   0  0  0  0  0  0
  -28.6673  -11.8342   21.2645 H   0  0  0  0  0  0
  -28.4449  -13.4103   21.9313 H   0  0  0  0  0  0
  -25.2734   -9.5715   22.4787 H   0  0  0  0  0  0
  -24.0000   -7.4647   22.7488 H   0  0  0  0  0  0
  -21.0833   -8.8758   19.8978 H   0  0  0  0  0  0
  -22.3674  -10.9662   19.6164 H   0  0  0  0  0  0
  -21.1976   -7.6152   23.9724 H   0  0  0  0  0  0
  -21.1470   -6.0537   25.9087 H   0  0  0  0  0  0
  -22.0590   -2.7618   23.2874 H   0  0  0  0  0  0
  -22.4033  -11.9810   22.4716 H   0  0  0  0  0  0
  -21.1124  -13.1272   22.2643 H   0  0  0  0  0  0
  -24.6732  -15.8495   20.5063 H   0  0  0  0  0  0
  -26.2993  -15.6228   20.1145 H   0  0  0  0  0  0
  -26.7068  -32.5514   23.1208 H   0  0  0  0  0  0
  -25.0222  -33.9843   25.0629 H   0  0  0  0  0  0
  -22.6830  -31.3106   21.4079 H   0  0  0  0  0  0
  -23.3807  -35.9526   23.3161 H   0  0  0  0  0  0
  -24.3630  -36.9011   22.2071 H   0  0  0  0  0  0
  -23.7084  -37.6393   23.6687 H   0  0  0  0  0  0
  -25.9964  -31.6047   20.5685 H   0  0  0  0  0  0
  -26.8184  -30.9237   21.9444 H   0  0  0  0  0  0
  -28.0884  -29.1484   21.1375 H   0  0  0  0  0  0
  -26.0413  -26.0047   18.9722 H   0  0  0  0  0  0
  -23.9841  -27.2830   19.0293 H   0  0  0  0  0  0
  -23.7054  -30.5958   19.3979 H   0  0  0  0  0  0
  -22.7280  -29.2391   19.8664 H   0  0  0  0  0  0
  -25.1246  -36.2019   25.0839 H   0  0  0  0  0  0
  -20.9913  -28.3187   24.1422 H   0  0  0  0  0  0
  -20.5601  -26.2264   23.3583 H   0  0  0  0  0  0
  -21.6617  -26.7400   22.1210 H   0  0  0  0  0  0
  -19.6919  -25.6300   21.1197 H   0  0  0  0  0  0
  -19.6738  -27.3208   20.6727 H   0  0  0  0  0  0
  -17.4195  -26.6673   21.3979 H   0  0  0  0  0  0
  -18.0336  -26.0074   22.8979 H   0  0  0  0  0  0
  -19.7890  -30.7162   24.2480 H   0  0  0  0  0  0
  -17.4984  -31.6287   24.5123 H   0  0  0  0  0  0
  -15.5336  -30.3068   23.7563 H   0  0  0  0  0  0
  -15.8597  -28.0772   22.7214 H   0  0  0  0  0  0
  -24.6190  -30.6644   25.7791 H   0  0  0  0  0  0
  -24.8758  -32.2550   26.4893 H   0  0  0  0  0  0
  -25.8302  -30.8793   27.0204 H   0  0  0  0  0  0
  -26.2645  -29.6878   24.1117 H   0  0  0  0  0  0
  -27.4269  -29.7262   25.4217 H   0  0  0  0  0  0
  -27.8384  -30.4487   23.8804 H   0  0  0  0  0  0
  -27.2950  -33.3612   26.1937 H   0  0  0  0  0  0
  -28.4026  -32.6537   25.0275 H   0  0  0  0  0  0
  -28.0689  -31.8294   26.5416 H   0  0  0  0  0  0
  -28.2457  -38.0190   24.7718 H   0  0  0  0  0  0
  -28.1214  -36.2734   24.5987 H   0  0  0  0  0  0
  -27.2311  -37.1030   25.8827 H   0  0  0  0  0  0
  -20.9263  -29.8833   21.7015 H   0  0  0  0  0  0
  -26.0127  -38.2840   24.1714 H   0  0  0  0  0  0
  -27.7961  -18.7937   23.0979 H   0  0  0  0  0  0
  -31.3877  -20.1978   21.1569 H   0  0  0  0  0  0
  -23.9998  -22.4304   25.8459 H   0  0  0  0  0  0
  -25.5822  -23.1931   25.9725 H   0  0  0  0  0  0
  -25.4201  -21.4506   26.1718 H   0  0  0  0  0  0
  -23.6241  -23.4364   23.5736 H   0  0  0  0  0  0
  -24.7119  -23.1116   22.2375 H   0  0  0  0  0  0
  -25.1990  -24.2185   23.5231 H   0  0  0  0  0  0
  -29.8047  -21.3960   17.5563 H   0  0  0  0  0  0
  -29.4634  -20.3724   18.9346 H   0  0  0  0  0  0
  -31.0650  -21.0923   18.7403 H   0  0  0  0  0  0
  -30.5995  -17.9118   24.5902 H   0  0  0  0  0  0
  -30.5981  -16.2147   24.1550 H   0  0  0  0  0  0
  -29.1013  -17.1353   24.1104 H   0  0  0  0  0  0
  -32.4699  -18.3488   22.8776 H   0  0  0  0  0  0
  -32.2381  -17.8663   21.1962 H   0  0  0  0  0  0
  -32.4203  -16.6439   22.4425 H   0  0  0  0  0  0
  -26.2401  -20.9159   21.9224 H   0  0  0  0  0  0
  -27.1044  -22.4009   21.7037 H   0  0  0  0  0  0
  -27.3762  -22.7325   24.0833 H   0  0  0  0  0  0
  -27.0978  -21.0527   24.4199 H   0  0  0  0  0  0
  -30.7295  -25.8211   19.1378 H   0  0  0  0  0  0
  -30.1820  -25.0319   20.5791 H   0  0  0  0  0  0
  -31.3592  -23.5809   18.9087 H   0  0  0  0  0  0
  -30.0771  -23.8334   17.7656 H   0  0  0  0  0  0
  -29.1921  -23.1560   21.4806 H   0  0  0  0  0  0
  -30.8188  -22.6388   21.1936 H   0  0  0  0  0  0
  -30.1151  -16.9165   20.3972 H   0  0  0  0  0  0
  -28.7456  -16.7071   21.4408 H   0  0  0  0  0  0
  -27.8422  -24.8968   19.5069 H   0  0  0  0  0  0
  -28.4562  -25.8990   18.1922 H   0  0  0  0  0  0
  -24.7293  -21.2107   23.8132 H   0  0  0  0  0  0
  -28.4835  -22.6287   19.2584 H   0  0  0  0  0  0
  -29.4554  -14.7188   22.2114 H   0  0  0  0  0  0
  1 25  1  0  0  0
  1 30  2  0  0  0
  1 91  1  0  0  0
  2  3  1  0  0  0
  2 25  1  0  0  0
  2 92  1  0  0  0
  2 93  1  0  0  0
  3  4  1  0  0  0
  3 94  1  0  0  0
  3 95  1  0  0  0
  4  5  1  0  0  0
  4 96  1  0  0  0
  4 97  1  0  0  0
  5  6  1  0  0  0
  5 26  1  0  0  0
  5 98  1  0  0  0
  6 25  1  0  0  0
  6 99  1  0  0  0
  6100  1  0  0  0
  7  8  2  0  0  0
  7 26  1  0  0  0
  7 29  1  0  0  0
  8  9  1  0  0  0
  8 22  1  0  0  0
  9 10  1  0  0  0
  9 27  2  0  0  0
 10 11  2  0  0  0
 10 15  1  0  0  0
 11 12  1  0  0  0
 11101  1  0  0  0
 12 13  2  0  0  0
 12102  1  0  0  0
 13 14  1  0  0  0
 13 31  1  0  0  0
 14 15  2  0  0  0
 14103  1  0  0  0
 15104  1  0  0  0
 16 17  2  0  0  0
 16 21  1  0  0  0
 16 31  1  0  0  0
 17 18  1  0  0  0
 17105  1  0  0  0
 18 19  2  0  0  0
 18106  1  0  0  0
 19 20  1  0  0  0
 19 24  1  0  0  0
 20 21  2  0  0  0
 20107  1  0  0  0
 21 23  1  0  0  0
 22 28  1  0  0  0
 22 32  2  0  0  0
 26 27  1  0  0  0
 28108  1  0  0  0
 28109  1  0  0  0
 29110  1  0  0  0
 29111  1  0  0  0
 33 34  1  0  0  0
 33 66  1  0  0  0
 33 70  2  0  0  0
 34 36  1  0  0  0
 34 59  1  0  0  0
 34112  1  0  0  0
 35 44  2  0  0  0
 35 45  1  0  0  0
 35 68  1  0  0  0
 36 56  1  0  0  0
 36113  1  0  0  0
 37 39  1  0  0  0
 37 47  1  0  0  0
 37 66  1  0  0  0
 37114  1  0  0  0
 38 43  2  0  0  0
 38 46  1  0  0  0
 38 47  1  0  0  0
 39 64  1  0  0  0
 39 67  2  0  0  0
 40 52  1  0  0  0
 40 53  2  0  0  0
 40 58  1  0  0  0
 41115  1  0  0  0
 41116  1  0  0  0
 41117  1  0  0  0
 41 48  1  0  0  0
 42 43  1  0  0  0
 42 66  1  0  0  0
 42118  1  0  0  0
 42119  1  0  0  0
 43 44  1  0  0  0
 44120  1  0  0  0
 45 46  2  0  0  0
 45121  1  0  0  0
 46122  1  0  0  0
 47123  1  0  0  0
 47124  1  0  0  0
 48 56  1  0  0  0
 48 65  1  0  0  0
 48125  1  0  0  0
 49 50  1  0  0  0
 49 53  1  0  0  0
 49 64  1  0  0  0
 49126  1  0  0  0
 50 51  1  0  0  0
 50127  1  0  0  0
 50128  1  0  0  0
 51 52  1  0  0  0
 51129  1  0  0  0
 51130  1  0  0  0
 52131  1  0  0  0
 52132  1  0  0  0
 53 54  1  0  0  0
 54 55  2  0  0  0
 54133  1  0  0  0
 55 57  1  0  0  0
 55134  1  0  0  0
 56 69  2  0  0  0
 57 58  2  0  0  0
 57135  1  0  0  0
 58136  1  0  0  0
 59 60  1  0  0  0
 59 61  1  0  0  0
 59 62  1  0  0  0
 60137  1  0  0  0
 60138  1  0  0  0
 60139  1  0  0  0
 61140  1  0  0  0
 61141  1  0  0  0
 61142  1  0  0  0
 62143  1  0  0  0
 62144  1  0  0  0
 62145  1  0  0  0
 63 65  1  0  0  0
 63146  1  0  0  0
 63147  1  0  0  0
 63148  1  0  0  0
 64149  1  0  0  0
 65150  1  0  0  0
 68 86  1  0  0  0
 71 73  1  0  0  0
 71 74  2  0  0  0
 71151  1  0  0  0
 72 73  2  0  0  0
 72 90  1  0  0  0
 72152  1  0  0  0
 73 89  1  0  0  0
 74 80  1  0  0  0
 74 90  1  0  0  0
 75153  1  0  0  0
 75154  1  0  0  0
 75155  1  0  0  0
 75 87  1  0  0  0
 76 87  1  0  0  0
 76156  1  0  0  0
 76157  1  0  0  0
 76158  1  0  0  0
 77159  1  0  0  0
 77160  1  0  0  0
 77161  1  0  0  0
 77 88  1  0  0  0
 78162  1  0  0  0
 78163  1  0  0  0
 78164  1  0  0  0
 78 89  1  0  0  0
 79 89  1  0  0  0
 79165  1  0  0  0
 79166  1  0  0  0
 79167  1  0  0  0
 80 81  1  0  0  0
 80168  1  0  0  0
 80169  1  0  0  0
 81 87  1  0  0  0
 81170  1  0  0  0
 81171  1  0  0  0
 82 83  1  0  0  0
 82 86  1  0  0  0
 82172  1  0  0  0
 82173  1  0  0  0
 83 88  1  0  0  0
 83174  1  0  0  0
 83175  1  0  0  0
 84 88  1  0  0  0
 84 90  1  0  0  0
 84176  1  0  0  0
 84177  1  0  0  0
 85 89  1  0  0  0
 85 91  1  0  0  0
 85178  1  0  0  0
 85179  1  0  0  0
 86180  1  0  0  0
 86181  1  0  0  0
 87182  1  0  0  0
 88183  1  0  0  0
 91184  1  0  0  0
M  ISO  4   1 100  68 101  86 101  91 100
M  END
> <chiral flag>
0

> <version>
0

> <s_m_source_file>
/data/baiqing/PycharmProjects/Reinvent-master-3.2/result/LINK_invent/BTK/process_docking_weight1_custom_sum_contain_oxygen_bond_distance_aromatic_linkinvent_7_9_3/rearranged_h_0080.sdf

> <i_m_source_file_index>
58

> <r_mmod_Potential_Energy-OPLS-2005>
-86.7960357666016

> <r_mmod_Stretch_Energy-OPLS-2005>
35.3465919494629

> <r_mmod_Bend_Energy-OPLS-2005>
118.891052246094

> <r_mmod_Torsional_Energy-OPLS-2005>
250.203323364258

> <r_mmod_Improper_Torsional_Energy-OPLS-2005>
4.65385437011719

> <r_mmod_Van_der_Waal_Energy-OPLS-2005>
127.546417236328

> <r_mmod_Electrostatic_Energy-OPLS-2005>
-444.928253173828

> <r_mmod_Solvation_Energy-OPLS-2005>
-188.676727294922

> <b_mmod_Minimization_Converged-OPLS-2005>
0

> <r_mmod_RMS_Derivative-OPLS-2005>
4.12933540344238

$$$$
60
                    3D
 Structure written by MMmdl.
170178  0  0  1  0            999 V2000
  -30.6520  -14.7375   20.5005 C   0  0  0  0  0  0
  -30.4226  -12.4656   19.4720 C   0  0  0  0  0  0
  -29.5041  -12.5068   18.2335 C   0  0  0  0  0  0
  -28.0335  -12.3285   18.6534 C   0  0  0  0  0  0
  -27.6384  -13.2367   19.8494 C   0  0  2  0  0  0
  -28.6831  -13.1906   20.9856 C   0  0  0  0  0  0
  -25.2505  -13.8209   20.5706 C   0  0  0  0  0  0
  -24.1802  -13.0450   20.9218 C   0  0  0  0  0  0
  -24.6387  -11.6921   20.8750 C   0  0  0  0  0  0
  -23.9061  -10.4296   21.0411 C   0  0  0  0  0  0
  -24.3617   -9.4215   21.9185 C   0  0  0  0  0  0
  -23.6296   -8.2244   22.0744 C   0  0  0  0  0  0
  -22.4286   -8.0270   21.3532 C   0  0  0  0  0  0
  -21.9911   -9.0243   20.4640 C   0  0  0  0  0  0
  -22.7232  -10.2130   20.3057 C   0  0  0  0  0  0
  -21.6859   -6.0729   22.5281 C   0  0  0  0  0  0
  -21.4013   -6.5636   23.8214 C   0  0  0  0  0  0
  -21.3658   -5.6789   24.9172 C   0  0  0  0  0  0
  -21.6052   -4.3050   24.7226 C   0  0  0  0  0  0
  -21.8820   -3.8135   23.4345 C   0  0  0  0  0  0
  -21.9198   -4.6953   22.3402 C   0  0  0  0  0  0
  -22.7825  -13.5224   21.1868 C   0  0  0  0  0  0
  -22.1666   -4.2142   21.0979 F   0  0  0  0  0  0
  -21.5633   -3.4537   25.7734 F   0  0  0  0  0  0
  -29.9789  -13.5401   20.3934 N   0  0  0  0  0  0
  -26.2928  -12.9422   20.3299 N   0  0  0  0  0  0
  -25.9326  -11.6558   20.5781 N   0  0  0  0  0  0
  -22.0468  -12.8214   22.0422 N   0  0  0  0  0  0
  -25.4204  -15.1926   20.4107 N   0  0  0  0  0  0
  -31.8340  -14.7934   20.1519 O   0  0  0  0  0  0
  -21.6653   -6.8869   21.4243 O   0  0  0  0  0  0
  -22.3519  -14.5527   20.6705 O   0  0  0  0  0  0
  -24.6325  -31.8550   23.1989 C   0  0  0  0  0  0
  -25.9147  -32.4753   23.8330 C   0  0  1  0  0  0
  -27.2165  -27.2543   20.1225 C   0  0  0  0  0  0
  -25.5944  -33.8554   24.2255 N   0  0  0  0  0  0
  -23.4288  -30.4806   21.5415 C   0  0  2  0  0  0
  -24.8738  -28.9283   20.1099 C   0  0  0  0  0  0
  -22.7507  -29.4609   22.4887 C   0  0  0  0  0  0
  -18.0299  -28.1397   22.8480 C   0  0  0  0  0  0
  -24.1492  -36.7286   23.2636 C   0  0  0  0  0  0
  -25.9763  -30.7659   21.3791 C   0  0  0  0  0  0
  -26.0463  -29.3879   20.7212 C   0  0  0  0  0  0
  -27.2173  -28.5625   20.7196 C   0  0  0  0  0  0
  -26.0182  -26.8727   19.4738 C   0  0  0  0  0  0
  -24.8650  -27.6783   19.4784 C   0  0  0  0  0  0
  -23.6474  -29.8178   20.1570 C   0  0  0  0  0  0
  -25.4113  -36.3061   24.0320 C   0  0  1  0  0  0
  -20.5904  -28.3713   23.1258 C   0  0  2  0  0  0
  -20.6787  -26.9425   22.5404 C   0  0  0  0  0  0
  -19.5755  -26.6388   21.5217 C   0  0  0  0  0  0
  -18.1939  -26.7938   22.1629 C   0  0  0  0  0  0
  -19.1552  -28.8868   23.2870 C   0  0  0  0  0  0
  -18.9475  -30.1467   23.8890 C   0  0  0  0  0  0
  -17.6473  -30.6592   24.0570 C   0  0  0  0  0  0
  -25.9058  -34.9434   23.5089 C   0  0  0  0  0  0
  -16.5365  -29.9091   23.6333 C   0  0  0  0  0  0
  -16.7286  -28.6515   23.0342 C   0  0  0  0  0  0
  -26.4511  -31.6574   25.0715 C   0  0  0  0  0  0
  -25.3738  -31.3737   26.1441 C   0  0  0  0  0  0
  -27.0360  -30.2984   24.6214 C   0  0  0  0  0  0
  -27.6056  -32.4315   25.7501 C   0  0  0  0  0  0
  -27.5575  -37.1796   24.8462 C   0  0  0  0  0  0
  -21.4210  -29.3062   22.3641 N   0  0  0  0  0  0
  -26.4285  -37.3760   23.9405 N   0  0  0  0  0  0
  -24.6987  -31.0513   22.0967 N   0  0  0  0  0  0
  -23.4206  -28.8135   23.2976 O   0  0  0  0  0  0
  -28.3127  -26.3552   20.2044 O   0  0  0  0  0  0
  -26.5625  -34.8916   22.4655 O   0  0  0  0  0  0
  -23.5472  -32.1374   23.7282 O   0  0  0  0  0  0
  -27.7588  -21.6242   19.6553 C   0  0  0  0  0  0
  -29.6654  -21.1697   21.0102 C   0  0  0  0  0  0
  -28.8255  -22.1721   20.3996 C   0  0  0  0  0  0
  -27.5768  -20.2161   19.5810 C   0  0  0  0  0  0
  -29.4398  -19.7295   20.9131 C   0  0  0  0  0  0
  -26.9064  -19.1494   17.3940 C   0  0  0  0  0  0
  -25.1714  -20.4739   18.6970 C   0  0  0  0  0  0
  -31.3575  -19.4122   22.4905 C   0  0  0  0  0  0
  -31.0428  -16.4404   22.9533 C   0  0  0  0  0  0
  -28.4860  -24.8371   18.3232 C   0  0  0  0  0  0
  -29.0332  -23.7529   20.6114 C   0  0  0  0  0  0
  -26.4299  -19.5930   18.7851 C   0  0  0  0  0  0
  -30.1586  -18.6387   21.8577 C   0  0  2  0  0  0
  -30.7082  -17.0882   21.5658 C   0  0  2  0  0  0
  -28.1780  -24.8943   19.8311 C   0  0  1  0  0  0
  -28.3779  -19.3076   20.1996 N   0  0  0  0  0  0
  -29.9983  -15.8997   20.9097 N   0  0  0  0  0  0
  -31.4644  -12.5794   19.1687 H   0  0  0  0  0  0
  -30.3607  -11.4954   19.9661 H   0  0  0  0  0  0
  -29.7879  -11.7252   17.5275 H   0  0  0  0  0  0
  -29.6304  -13.4554   17.7096 H   0  0  0  0  0  0
  -27.8978  -11.2816   18.9263 H   0  0  0  0  0  0
  -27.3712  -12.5079   17.8060 H   0  0  0  0  0  0
  -27.6285  -14.2557   19.4624 H   0  0  0  0  0  0
  -28.7281  -12.2004   21.4401 H   0  0  0  0  0  0
  -28.4151  -13.8839   21.7835 H   0  0  0  0  0  0
  -25.2753   -9.5703   22.4769 H   0  0  0  0  0  0
  -24.0010   -7.4638   22.7463 H   0  0  0  0  0  0
  -21.0837   -8.8751   19.8950 H   0  0  0  0  0  0
  -22.3669  -10.9665   19.6179 H   0  0  0  0  0  0
  -21.2002   -7.6145   23.9713 H   0  0  0  0  0  0
  -21.1494   -6.0516   25.9075 H   0  0  0  0  0  0
  -22.0603   -2.7600   23.2850 H   0  0  0  0  0  0
  -22.4069  -11.9886   22.4846 H   0  0  0  0  0  0
  -21.1084  -13.1246   22.2610 H   0  0  0  0  0  0
  -24.6535  -15.8456   20.5238 H   0  0  0  0  0  0
  -26.2689  -15.6317   20.0760 H   0  0  0  0  0  0
  -26.7209  -32.5397   23.1068 H   0  0  0  0  0  0
  -25.0087  -33.9688   25.0399 H   0  0  0  0  0  0
  -22.7260  -31.3040   21.3953 H   0  0  0  0  0  0
  -23.3752  -35.9623   23.3287 H   0  0  0  0  0  0
  -24.3593  -36.8923   22.2057 H   0  0  0  0  0  0
  -23.7263  -37.6486   23.6675 H   0  0  0  0  0  0
  -26.1139  -31.5249   20.6075 H   0  0  0  0  0  0
  -26.8546  -30.8171   22.0112 H   0  0  0  0  0  0
  -28.1113  -28.9068   21.2200 H   0  0  0  0  0  0
  -25.9269  -25.9277   18.9629 H   0  0  0  0  0  0
  -23.9664  -27.3209   18.9948 H   0  0  0  0  0  0
  -23.7798  -30.5954   19.4044 H   0  0  0  0  0  0
  -22.7651  -29.2562   19.8455 H   0  0  0  0  0  0
  -25.1303  -36.1896   25.0812 H   0  0  0  0  0  0
  -21.0013  -28.3304   24.1373 H   0  0  0  0  0  0
  -20.5702  -26.2327   23.3618 H   0  0  0  0  0  0
  -21.6653  -26.7450   22.1192 H   0  0  0  0  0  0
  -19.6920  -25.6299   21.1251 H   0  0  0  0  0  0
  -19.6692  -27.3197   20.6748 H   0  0  0  0  0  0
  -17.4210  -26.6688   21.4031 H   0  0  0  0  0  0
  -18.0334  -26.0084   22.9029 H   0  0  0  0  0  0
  -19.7949  -30.7291   24.2249 H   0  0  0  0  0  0
  -17.5027  -31.6271   24.5179 H   0  0  0  0  0  0
  -15.5365  -30.2994   23.7662 H   0  0  0  0  0  0
  -15.8687  -28.0844   22.7042 H   0  0  0  0  0  0
  -24.5906  -30.7088   25.7780 H   0  0  0  0  0  0
  -24.8943  -32.2918   26.4846 H   0  0  0  0  0  0
  -25.8058  -30.8932   27.0231 H   0  0  0  0  0  0
  -26.2951  -29.6720   24.1234 H   0  0  0  0  0  0
  -27.4029  -29.7249   25.4740 H   0  0  0  0  0  0
  -27.8831  -30.4239   23.9468 H   0  0  0  0  0  0
  -27.2650  -33.3615   26.2064 H   0  0  0  0  0  0
  -28.3885  -32.6878   25.0350 H   0  0  0  0  0  0
  -28.0706  -31.8453   26.5438 H   0  0  0  0  0  0
  -28.2581  -38.0101   24.7504 H   0  0  0  0  0  0
  -28.1082  -36.2632   24.6289 H   0  0  0  0  0  0
  -27.2296  -37.1446   25.8865 H   0  0  0  0  0  0
  -20.9389  -29.8806   21.6868 H   0  0  0  0  0  0
  -26.0158  -38.2828   24.1413 H   0  0  0  0  0  0
  -27.0688  -22.2868   19.1558 H   0  0  0  0  0  0
  -30.4653  -21.5636   21.6195 H   0  0  0  0  0  0
  -27.7469  -18.4578   17.4735 H   0  0  0  0  0  0
  -27.2333  -20.0027   16.7990 H   0  0  0  0  0  0
  -26.1160  -18.6371   16.8466 H   0  0  0  0  0  0
  -24.8388  -20.7811   19.6893 H   0  0  0  0  0  0
  -24.3501  -19.9267   18.2355 H   0  0  0  0  0  0
  -25.3406  -21.3692   18.1009 H   0  0  0  0  0  0
  -31.9613  -19.8775   21.7107 H   0  0  0  0  0  0
  -32.0768  -18.8460   23.0676 H   0  0  0  0  0  0
  -31.0016  -20.1881   23.1685 H   0  0  0  0  0  0
  -31.5036  -17.0675   23.7069 H   0  0  0  0  0  0
  -31.7266  -15.5966   22.8532 H   0  0  0  0  0  0
  -30.1357  -16.0615   23.4289 H   0  0  0  0  0  0
  -28.3565  -23.8328   17.9210 H   0  0  0  0  0  0
  -29.5151  -25.1396   18.1278 H   0  0  0  0  0  0
  -27.8406  -25.4991   17.7474 H   0  0  0  0  0  0
  -30.0911  -23.9584   20.4454 H   0  0  0  0  0  0
  -28.8846  -23.9256   21.6770 H   0  0  0  0  0  0
  -26.1295  -18.6939   19.3254 H   0  0  0  0  0  0
  -29.4225  -18.5062   22.6518 H   0  0  0  0  0  0
  -31.6326  -17.2243   21.0018 H   0  0  0  0  0  0
  -27.1470  -24.5924   20.0040 H   0  0  0  0  0  0
  -28.9994  -15.8403   21.0410 H   0  0  0  0  0  0
  1 25  1  0  0  0
  1 30  2  0  0  0
  1 87  1  0  0  0
  2  3  1  0  0  0
  2 25  1  0  0  0
  2 88  1  0  0  0
  2 89  1  0  0  0
  3  4  1  0  0  0
  3 90  1  0  0  0
  3 91  1  0  0  0
  4  5  1  0  0  0
  4 92  1  0  0  0
  4 93  1  0  0  0
  5  6  1  0  0  0
  5 26  1  0  0  0
  5 94  1  0  0  0
  6 25  1  0  0  0
  6 95  1  0  0  0
  6 96  1  0  0  0
  7  8  2  0  0  0
  7 26  1  0  0  0
  7 29  1  0  0  0
  8  9  1  0  0  0
  8 22  1  0  0  0
  9 10  1  0  0  0
  9 27  2  0  0  0
 10 11  2  0  0  0
 10 15  1  0  0  0
 11 12  1  0  0  0
 11 97  1  0  0  0
 12 13  2  0  0  0
 12 98  1  0  0  0
 13 14  1  0  0  0
 13 31  1  0  0  0
 14 15  2  0  0  0
 14 99  1  0  0  0
 15100  1  0  0  0
 16 17  2  0  0  0
 16 21  1  0  0  0
 16 31  1  0  0  0
 17 18  1  0  0  0
 17101  1  0  0  0
 18 19  2  0  0  0
 18102  1  0  0  0
 19 20  1  0  0  0
 19 24  1  0  0  0
 20 21  2  0  0  0
 20103  1  0  0  0
 21 23  1  0  0  0
 22 28  1  0  0  0
 22 32  2  0  0  0
 26 27  1  0  0  0
 28104  1  0  0  0
 28105  1  0  0  0
 29106  1  0  0  0
 29107  1  0  0  0
 33 34  1  0  0  0
 33 66  1  0  0  0
 33 70  2  0  0  0
 34 36  1  0  0  0
 34 59  1  0  0  0
 34108  1  0  0  0
 35 44  2  0  0  0
 35 45  1  0  0  0
 35 68  1  0  0  0
 36 56  1  0  0  0
 36109  1  0  0  0
 37 39  1  0  0  0
 37 47  1  0  0  0
 37 66  1  0  0  0
 37110  1  0  0  0
 38 43  2  0  0  0
 38 46  1  0  0  0
 38 47  1  0  0  0
 39 64  1  0  0  0
 39 67  2  0  0  0
 40 52  1  0  0  0
 40 53  2  0  0  0
 40 58  1  0  0  0
 41111  1  0  0  0
 41112  1  0  0  0
 41113  1  0  0  0
 41 48  1  0  0  0
 42 43  1  0  0  0
 42 66  1  0  0  0
 42114  1  0  0  0
 42115  1  0  0  0
 43 44  1  0  0  0
 44116  1  0  0  0
 45 46  2  0  0  0
 45117  1  0  0  0
 46118  1  0  0  0
 47119  1  0  0  0
 47120  1  0  0  0
 48 56  1  0  0  0
 48 65  1  0  0  0
 48121  1  0  0  0
 49 50  1  0  0  0
 49 53  1  0  0  0
 49 64  1  0  0  0
 49122  1  0  0  0
 50 51  1  0  0  0
 50123  1  0  0  0
 50124  1  0  0  0
 51 52  1  0  0  0
 51125  1  0  0  0
 51126  1  0  0  0
 52127  1  0  0  0
 52128  1  0  0  0
 53 54  1  0  0  0
 54 55  2  0  0  0
 54129  1  0  0  0
 55 57  1  0  0  0
 55130  1  0  0  0
 56 69  2  0  0  0
 57 58  2  0  0  0
 57131  1  0  0  0
 58132  1  0  0  0
 59 60  1  0  0  0
 59 61  1  0  0  0
 59 62  1  0  0  0
 60133  1  0  0  0
 60134  1  0  0  0
 60135  1  0  0  0
 61136  1  0  0  0
 61137  1  0  0  0
 61138  1  0  0  0
 62139  1  0  0  0
 62140  1  0  0  0
 62141  1  0  0  0
 63 65  1  0  0  0
 63142  1  0  0  0
 63143  1  0  0  0
 63144  1  0  0  0
 64145  1  0  0  0
 65146  1  0  0  0
 68 85  1  0  0  0
 71 73  2  0  0  0
 71 74  1  0  0  0
 71147  1  0  0  0
 72 73  1  0  0  0
 72 75  2  0  0  0
 72148  1  0  0  0
 73 81  1  0  0  0
 74 82  1  0  0  0
 74 86  2  0  0  0
 75 83  1  0  0  0
 75 86  1  0  0  0
 76149  1  0  0  0
 76150  1  0  0  0
 76151  1  0  0  0
 76 82  1  0  0  0
 77 82  1  0  0  0
 77152  1  0  0  0
 77153  1  0  0  0
 77154  1  0  0  0
 78155  1  0  0  0
 78156  1  0  0  0
 78157  1  0  0  0
 78 83  1  0  0  0
 79158  1  0  0  0
 79159  1  0  0  0
 79160  1  0  0  0
 79 84  1  0  0  0
 80161  1  0  0  0
 80162  1  0  0  0
 80163  1  0  0  0
 80 85  1  0  0  0
 81 85  1  0  0  0
 81164  1  0  0  0
 81165  1  0  0  0
 82166  1  0  0  0
 83 84  1  0  0  0
 83167  1  0  0  0
 84 87  1  0  0  0
 84168  1  0  0  0
 85169  1  0  0  0
 87170  1  0  0  0
M  ISO  4   1 100  68 101  85 101  87 100
M  END
> <chiral flag>
0

> <version>
0

> <s_m_source_file>
/data/baiqing/PycharmProjects/Reinvent-master-3.2/result/LINK_invent/BTK/process_docking_weight1_custom_sum_contain_oxygen_bond_distance_aromatic_linkinvent_7_9_3/rearranged_h_0080.sdf

> <i_m_source_file_index>
59

> <r_mmod_Potential_Energy-OPLS-2005>
176.737655639648

> <r_mmod_Stretch_Energy-OPLS-2005>
152.190856933594

> <r_mmod_Bend_Energy-OPLS-2005>
259.639221191406

> <r_mmod_Torsional_Energy-OPLS-2005>
206.726547241211

> <r_mmod_Improper_Torsional_Energy-OPLS-2005>
4.88250970840454

> <r_mmod_Van_der_Waal_Energy-OPLS-2005>
167.671524047852

> <r_mmod_Electrostatic_Energy-OPLS-2005>
-499.429351806641

> <r_mmod_Solvation_Energy-OPLS-2005>
-202.03630065918

> <b_mmod_Minimization_Converged-OPLS-2005>
0

> <r_mmod_RMS_Derivative-OPLS-2005>
2.09329605102539

$$$$
61
                    3D
 Structure written by MMmdl.
169177  0  0  1  0            999 V2000
  -30.6495  -14.5450   20.5150 C   0  0  0  0  0  0
  -30.4329  -12.3380   19.4192 C   0  0  0  0  0  0
  -29.4994  -12.5224   18.2043 C   0  0  0  0  0  0
  -28.0281  -12.3435   18.6220 C   0  0  0  0  0  0
  -27.6591  -13.2053   19.8597 C   0  0  2  0  0  0
  -28.7009  -13.0127   20.9879 C   0  0  0  0  0  0
  -25.2599  -13.8142   20.5677 C   0  0  0  0  0  0
  -24.1864  -13.0398   20.9177 C   0  0  0  0  0  0
  -24.6449  -11.6871   20.8690 C   0  0  0  0  0  0
  -23.9118  -10.4252   21.0364 C   0  0  0  0  0  0
  -24.3653   -9.4172   21.9155 C   0  0  0  0  0  0
  -23.6309   -8.2226   22.0744 C   0  0  0  0  0  0
  -22.4286   -8.0267   21.3537 C   0  0  0  0  0  0
  -21.9934   -9.0230   20.4625 C   0  0  0  0  0  0
  -22.7285  -10.2109   20.3019 C   0  0  0  0  0  0
  -21.6874   -6.0724   22.5272 C   0  0  0  0  0  0
  -21.4000   -6.5624   23.8206 C   0  0  0  0  0  0
  -21.3664   -5.6778   24.9170 C   0  0  0  0  0  0
  -21.6070   -4.3049   24.7236 C   0  0  0  0  0  0
  -21.8827   -3.8141   23.4359 C   0  0  0  0  0  0
  -21.9199   -4.6946   22.3410 C   0  0  0  0  0  0
  -22.7883  -13.5179   21.1865 C   0  0  0  0  0  0
  -22.1673   -4.2136   21.0985 F   0  0  0  0  0  0
  -21.5632   -3.4536   25.7752 F   0  0  0  0  0  0
  -30.0342  -13.3269   20.4384 N   0  0  0  0  0  0
  -26.3025  -12.9310   20.3266 N   0  0  0  0  0  0
  -25.9360  -11.6465   20.5692 N   0  0  0  0  0  0
  -22.0583  -12.8098   22.0426 N   0  0  0  0  0  0
  -25.4233  -15.1877   20.4143 N   0  0  0  0  0  0
  -31.7700  -14.7555   20.0440 O   0  0  0  0  0  0
  -21.6649   -6.8869   21.4238 O   0  0  0  0  0  0
  -22.3532  -14.5479   20.6742 O   0  0  0  0  0  0
  -24.6233  -31.8616   23.2015 C   0  0  0  0  0  0
  -25.9076  -32.4793   23.8362 C   0  0  1  0  0  0
  -27.2434  -27.3506   20.1098 C   0  0  0  0  0  0
  -25.5897  -33.8590   24.2297 N   0  0  0  0  0  0
  -23.4170  -30.4802   21.5451 C   0  0  2  0  0  0
  -24.8666  -28.9348   20.1137 C   0  0  0  0  0  0
  -22.7456  -29.4652   22.4984 C   0  0  0  0  0  0
  -18.0293  -28.1406   22.8478 C   0  0  0  0  0  0
  -24.1479  -36.7289   23.2644 C   0  0  0  0  0  0
  -25.9534  -30.7997   21.3682 C   0  0  0  0  0  0
  -26.0318  -29.4279   20.7145 C   0  0  0  0  0  0
  -27.2230  -28.6466   20.7038 C   0  0  0  0  0  0
  -26.0595  -26.9064   19.4810 C   0  0  0  0  0  0
  -24.8820  -27.6776   19.4876 C   0  0  0  0  0  0
  -23.6265  -29.8023   20.1658 C   0  0  0  0  0  0
  -25.4109  -36.3100   24.0343 C   0  0  1  0  0  0
  -20.5885  -28.3705   23.1284 C   0  0  2  0  0  0
  -20.6801  -26.9440   22.5398 C   0  0  0  0  0  0
  -19.5770  -26.6405   21.5212 C   0  0  0  0  0  0
  -18.1944  -26.7951   22.1615 C   0  0  0  0  0  0
  -19.1541  -28.8876   23.2871 C   0  0  0  0  0  0
  -18.9468  -30.1486   23.8880 C   0  0  0  0  0  0
  -17.6467  -30.6599   24.0573 C   0  0  0  0  0  0
  -25.9046  -34.9464   23.5135 C   0  0  0  0  0  0
  -16.5361  -29.9093   23.6351 C   0  0  0  0  0  0
  -16.7275  -28.6523   23.0343 C   0  0  0  0  0  0
  -26.4466  -31.6574   25.0718 C   0  0  0  0  0  0
  -25.3710  -31.3650   26.1442 C   0  0  0  0  0  0
  -27.0308  -30.3011   24.6134 C   0  0  0  0  0  0
  -27.6023  -32.4300   25.7502 C   0  0  0  0  0  0
  -27.5591  -37.1802   24.8472 C   0  0  0  0  0  0
  -21.4186  -29.3045   22.3669 N   0  0  0  0  0  0
  -26.4283  -37.3801   23.9432 N   0  0  0  0  0  0
  -24.6830  -31.0647   22.0953 N   0  0  0  0  0  0
  -23.4174  -28.8233   23.3100 O   0  0  0  0  0  0
  -28.3798  -26.5328   20.1349 O   0  0  0  0  0  0
  -26.5626  -34.8928   22.4711 O   0  0  0  0  0  0
  -23.5398  -32.1405   23.7351 O   0  0  0  0  0  0
  -27.9511  -21.6567   19.0321 C   0  0  0  0  0  0
  -27.5827  -20.3859   18.6635 C   0  0  0  0  0  0
  -29.2756  -20.2302   20.1273 C   0  0  0  0  0  0
  -25.5729  -19.7133   15.3860 C   0  0  0  0  0  0
  -27.8738  -25.0661   21.9874 C   0  0  0  0  0  0
  -26.4865  -19.8667   17.7748 C   0  0  0  0  0  0
  -30.2715  -19.5632   21.0796 C   0  0  0  0  0  0
  -26.6670  -20.2818   16.3057 C   0  0  0  0  0  0
  -30.7040  -18.0380   20.9454 C   0  0  0  0  0  0
  -29.4566  -24.1874   20.1409 C   0  0  0  0  0  0
  -29.5800  -22.6996   20.7095 C   0  0  0  0  0  0
  -29.7048  -16.9477   20.4410 C   0  0  0  0  0  0
  -28.2153  -25.1068   20.4867 C   0  0  2  0  0  0
  -28.9706  -21.5546   19.9510 N   0  0  0  0  0  0
  -28.4226  -19.5519   19.3506 N   0  3  0  0  0  0
  -29.8510  -15.5514   20.9407 N   0  0  0  0  0  0
  -31.4726  -12.4505   19.1054 H   0  0  0  0  0  0
  -30.3441  -11.3244   19.8140 H   0  0  0  0  0  0
  -29.7504  -11.8106   17.4173 H   0  0  0  0  0  0
  -29.6416  -13.5164   17.7752 H   0  0  0  0  0  0
  -27.8765  -11.2863   18.8426 H   0  0  0  0  0  0
  -27.3668  -12.5734   17.7855 H   0  0  0  0  0  0
  -27.6883  -14.2459   19.5360 H   0  0  0  0  0  0
  -28.6811  -11.9829   21.3466 H   0  0  0  0  0  0
  -28.4502  -13.6284   21.8530 H   0  0  0  0  0  0
  -25.2822   -9.5621   22.4712 H   0  0  0  0  0  0
  -24.0015   -7.4622   22.7467 H   0  0  0  0  0  0
  -21.0877   -8.8736   19.8926 H   0  0  0  0  0  0
  -22.3754  -10.9621   19.6096 H   0  0  0  0  0  0
  -21.1956   -7.6120   23.9692 H   0  0  0  0  0  0
  -21.1490   -6.0515   25.9066 H   0  0  0  0  0  0
  -22.0606   -2.7593   23.2874 H   0  0  0  0  0  0
  -22.4263  -11.9754   22.4728 H   0  0  0  0  0  0
  -21.1174  -13.1011   22.2673 H   0  0  0  0  0  0
  -24.6402  -15.8230   20.5321 H   0  0  0  0  0  0
  -26.2708  -15.6503   20.1126 H   0  0  0  0  0  0
  -26.7158  -32.5485   23.1123 H   0  0  0  0  0  0
  -25.0012  -33.9730   25.0426 H   0  0  0  0  0  0
  -22.7094  -31.2990   21.3965 H   0  0  0  0  0  0
  -23.3768  -35.9592   23.3283 H   0  0  0  0  0  0
  -24.3575  -36.8930   22.2062 H   0  0  0  0  0  0
  -23.7182  -37.6467   23.6670 H   0  0  0  0  0  0
  -26.0771  -31.5608   20.5966 H   0  0  0  0  0  0
  -26.8366  -30.8558   21.9934 H   0  0  0  0  0  0
  -28.1173  -29.0223   21.1792 H   0  0  0  0  0  0
  -26.0313  -25.9560   18.9690 H   0  0  0  0  0  0
  -23.9919  -27.2958   19.0050 H   0  0  0  0  0  0
  -23.7221  -30.5667   19.3950 H   0  0  0  0  0  0
  -22.7527  -29.2114   19.8849 H   0  0  0  0  0  0
  -25.1285  -36.1966   25.0837 H   0  0  0  0  0  0
  -20.9968  -28.3299   24.1406 H   0  0  0  0  0  0
  -20.5760  -26.2322   23.3594 H   0  0  0  0  0  0
  -21.6666  -26.7508   22.1163 H   0  0  0  0  0  0
  -19.6944  -25.6313   21.1252 H   0  0  0  0  0  0
  -19.6717  -27.3217   20.6743 H   0  0  0  0  0  0
  -17.4221  -26.6689   21.4011 H   0  0  0  0  0  0
  -18.0343  -26.0094   22.9014 H   0  0  0  0  0  0
  -19.7942  -30.7319   24.2222 H   0  0  0  0  0  0
  -17.5016  -31.6276   24.5180 H   0  0  0  0  0  0
  -15.5362  -30.2986   23.7700 H   0  0  0  0  0  0
  -15.8675  -28.0853   22.7045 H   0  0  0  0  0  0
  -24.5900  -30.6994   25.7747 H   0  0  0  0  0  0
  -24.8873  -32.2775   26.4934 H   0  0  0  0  0  0
  -25.8047  -30.8774   27.0182 H   0  0  0  0  0  0
  -26.2870  -29.6771   24.1163 H   0  0  0  0  0  0
  -27.4025  -29.7250   25.4619 H   0  0  0  0  0  0
  -27.8726  -30.4320   23.9333 H   0  0  0  0  0  0
  -27.2637  -33.3591   26.2101 H   0  0  0  0  0  0
  -28.3825  -32.6877   25.0329 H   0  0  0  0  0  0
  -28.0697  -31.8410   26.5403 H   0  0  0  0  0  0
  -28.2579  -38.0132   24.7582 H   0  0  0  0  0  0
  -28.1118  -36.2669   24.6225 H   0  0  0  0  0  0
  -27.2312  -37.1357   25.8871 H   0  0  0  0  0  0
  -20.9396  -29.8651   21.6758 H   0  0  0  0  0  0
  -26.0177  -38.2875   24.1455 H   0  0  0  0  0  0
  -27.5312  -22.6072   18.7377 H   0  0  0  0  0  0
  -25.7274  -20.0259   14.3525 H   0  0  0  0  0  0
  -24.5800  -20.0510   15.6862 H   0  0  0  0  0  0
  -25.5682  -18.6224   15.3986 H   0  0  0  0  0  0
  -27.6511  -24.0568   22.3321 H   0  0  0  0  0  0
  -26.9888  -25.6643   22.2055 H   0  0  0  0  0  0
  -28.6913  -25.4548   22.5959 H   0  0  0  0  0  0
  -25.5292  -20.2319   18.1497 H   0  0  0  0  0  0
  -26.4407  -18.7787   17.8506 H   0  0  0  0  0  0
  -29.8599  -19.7292   22.0759 H   0  0  0  0  0  0
  -31.1741  -20.1728   21.0260 H   0  0  0  0  0  0
  -26.6701  -21.3697   16.2313 H   0  0  0  0  0  0
  -27.6408  -19.9441   15.9491 H   0  0  0  0  0  0
  -31.0913  -17.7324   21.9184 H   0  0  0  0  0  0
  -31.5743  -17.9951   20.2878 H   0  0  0  0  0  0
  -29.6007  -24.1643   19.0612 H   0  0  0  0  0  0
  -30.3317  -24.7167   20.5216 H   0  0  0  0  0  0
  -29.2201  -22.6339   21.7342 H   0  0  0  0  0  0
  -30.6451  -22.4751   20.7770 H   0  0  0  0  0  0
  -29.7161  -16.9279   19.3492 H   0  0  0  0  0  0
  -28.6960  -17.2404   20.7314 H   0  0  0  0  0  0
  -27.3840  -24.6759   19.9361 H   0  0  0  0  0  0
  -28.3705  -18.5424   19.3218 H   0  0  0  0  0  0
  -29.0111  -15.1979   21.3758 H   0  0  0  0  0  0
  1 25  1  0  0  0
  1 30  2  0  0  0
  1 86  1  0  0  0
  2  3  1  0  0  0
  2 25  1  0  0  0
  2 87  1  0  0  0
  2 88  1  0  0  0
  3  4  1  0  0  0
  3 89  1  0  0  0
  3 90  1  0  0  0
  4  5  1  0  0  0
  4 91  1  0  0  0
  4 92  1  0  0  0
  5  6  1  0  0  0
  5 26  1  0  0  0
  5 93  1  0  0  0
  6 25  1  0  0  0
  6 94  1  0  0  0
  6 95  1  0  0  0
  7  8  2  0  0  0
  7 26  1  0  0  0
  7 29  1  0  0  0
  8  9  1  0  0  0
  8 22  1  0  0  0
  9 10  1  0  0  0
  9 27  2  0  0  0
 10 11  2  0  0  0
 10 15  1  0  0  0
 11 12  1  0  0  0
 11 96  1  0  0  0
 12 13  2  0  0  0
 12 97  1  0  0  0
 13 14  1  0  0  0
 13 31  1  0  0  0
 14 15  2  0  0  0
 14 98  1  0  0  0
 15 99  1  0  0  0
 16 17  2  0  0  0
 16 21  1  0  0  0
 16 31  1  0  0  0
 17 18  1  0  0  0
 17100  1  0  0  0
 18 19  2  0  0  0
 18101  1  0  0  0
 19 20  1  0  0  0
 19 24  1  0  0  0
 20 21  2  0  0  0
 20102  1  0  0  0
 21 23  1  0  0  0
 22 28  1  0  0  0
 22 32  2  0  0  0
 26 27  1  0  0  0
 28103  1  0  0  0
 28104  1  0  0  0
 29105  1  0  0  0
 29106  1  0  0  0
 33 34  1  0  0  0
 33 66  1  0  0  0
 33 70  2  0  0  0
 34 36  1  0  0  0
 34 59  1  0  0  0
 34107  1  0  0  0
 35 44  2  0  0  0
 35 45  1  0  0  0
 35 68  1  0  0  0
 36 56  1  0  0  0
 36108  1  0  0  0
 37 39  1  0  0  0
 37 47  1  0  0  0
 37 66  1  0  0  0
 37109  1  0  0  0
 38 43  2  0  0  0
 38 46  1  0  0  0
 38 47  1  0  0  0
 39 64  1  0  0  0
 39 67  2  0  0  0
 40 52  1  0  0  0
 40 53  2  0  0  0
 40 58  1  0  0  0
 41110  1  0  0  0
 41111  1  0  0  0
 41112  1  0  0  0
 41 48  1  0  0  0
 42 43  1  0  0  0
 42 66  1  0  0  0
 42113  1  0  0  0
 42114  1  0  0  0
 43 44  1  0  0  0
 44115  1  0  0  0
 45 46  2  0  0  0
 45116  1  0  0  0
 46117  1  0  0  0
 47118  1  0  0  0
 47119  1  0  0  0
 48 56  1  0  0  0
 48 65  1  0  0  0
 48120  1  0  0  0
 49 50  1  0  0  0
 49 53  1  0  0  0
 49 64  1  0  0  0
 49121  1  0  0  0
 50 51  1  0  0  0
 50122  1  0  0  0
 50123  1  0  0  0
 51 52  1  0  0  0
 51124  1  0  0  0
 51125  1  0  0  0
 52126  1  0  0  0
 52127  1  0  0  0
 53 54  1  0  0  0
 54 55  2  0  0  0
 54128  1  0  0  0
 55 57  1  0  0  0
 55129  1  0  0  0
 56 69  2  0  0  0
 57 58  2  0  0  0
 57130  1  0  0  0
 58131  1  0  0  0
 59 60  1  0  0  0
 59 61  1  0  0  0
 59 62  1  0  0  0
 60132  1  0  0  0
 60133  1  0  0  0
 60134  1  0  0  0
 61135  1  0  0  0
 61136  1  0  0  0
 61137  1  0  0  0
 62138  1  0  0  0
 62139  1  0  0  0
 62140  1  0  0  0
 63 65  1  0  0  0
 63141  1  0  0  0
 63142  1  0  0  0
 63143  1  0  0  0
 64144  1  0  0  0
 65145  1  0  0  0
 68 83  1  0  0  0
 71 72  2  0  0  0
 71 84  1  0  0  0
 71146  1  0  0  0
 72 76  1  0  0  0
 72 85  1  0  0  0
 73 77  1  0  0  0
 73 84  1  0  0  0
 73 85  2  0  0  0
 74 78  1  0  0  0
 74147  1  0  0  0
 74148  1  0  0  0
 74149  1  0  0  0
 75150  1  0  0  0
 75151  1  0  0  0
 75152  1  0  0  0
 75 83  1  0  0  0
 76 78  1  0  0  0
 76153  1  0  0  0
 76154  1  0  0  0
 77 79  1  0  0  0
 77155  1  0  0  0
 77156  1  0  0  0
 78157  1  0  0  0
 78158  1  0  0  0
 79 82  1  0  0  0
 79159  1  0  0  0
 79160  1  0  0  0
 80 81  1  0  0  0
 80 83  1  0  0  0
 80161  1  0  0  0
 80162  1  0  0  0
 81 84  1  0  0  0
 81163  1  0  0  0
 81164  1  0  0  0
 82 86  1  0  0  0
 82165  1  0  0  0
 82166  1  0  0  0
 83167  1  0  0  0
 85168  1  0  0  0
 86169  1  0  0  0
M  CHG  1  85   1
M  ISO  4   1 100  68 101  83 101  86 100
M  END
> <chiral flag>
0

> <version>
0

> <s_m_source_file>
/data/baiqing/PycharmProjects/Reinvent-master-3.2/result/LINK_invent/BTK/process_docking_weight1_custom_sum_contain_oxygen_bond_distance_aromatic_linkinvent_7_9_3/rearranged_h_0080.sdf

> <i_m_source_file_index>
60

> <r_mmod_Potential_Energy-OPLS-2005>
2.76318073272705

> <r_mmod_Stretch_Energy-OPLS-2005>
66.8992004394531

> <r_mmod_Bend_Energy-OPLS-2005>
146.764633178711

> <r_mmod_Torsional_Energy-OPLS-2005>
257.945983886719

> <r_mmod_Improper_Torsional_Energy-OPLS-2005>
7.56685781478882

> <r_mmod_Van_der_Waal_Energy-OPLS-2005>
115.802597045898

> <r_mmod_Electrostatic_Energy-OPLS-2005>
-197.99250793457

> <r_mmod_Solvation_Energy-OPLS-2005>
-423.056976318359

> <b_mmod_Minimization_Converged-OPLS-2005>
0

> <r_mmod_RMS_Derivative-OPLS-2005>
3.55957198143005

$$$$
62
                    3D
 Structure written by MMmdl.
164172  0  0  1  0            999 V2000
  -30.6179  -14.5375   20.5195 C   0  0  0  0  0  0
  -30.4368  -12.3263   19.4233 C   0  0  0  0  0  0
  -29.4978  -12.4966   18.2052 C   0  0  0  0  0  0
  -28.0191  -12.3398   18.6177 C   0  0  0  0  0  0
  -27.6523  -13.1887   19.8621 C   0  0  2  0  0  0
  -28.6979  -12.9762   20.9813 C   0  0  0  0  0  0
  -25.2580  -13.8111   20.5642 C   0  0  0  0  0  0
  -24.1820  -13.0432   20.9168 C   0  0  0  0  0  0
  -24.6335  -11.6886   20.8723 C   0  0  0  0  0  0
  -23.8992  -10.4298   21.0427 C   0  0  0  0  0  0
  -24.3566   -9.4202   21.9190 C   0  0  0  0  0  0
  -23.6256   -8.2227   22.0743 C   0  0  0  0  0  0
  -22.4242   -8.0272   21.3547 C   0  0  0  0  0  0
  -21.9873   -9.0240   20.4650 C   0  0  0  0  0  0
  -22.7175  -10.2121   20.3080 C   0  0  0  0  0  0
  -21.6847   -6.0744   22.5295 C   0  0  0  0  0  0
  -21.4024   -6.5654   23.8233 C   0  0  0  0  0  0
  -21.3654   -5.6803   24.9186 C   0  0  0  0  0  0
  -21.6025   -4.3058   24.7230 C   0  0  0  0  0  0
  -21.8805   -3.8151   23.4348 C   0  0  0  0  0  0
  -21.9186   -4.6969   22.3405 C   0  0  0  0  0  0
  -22.7847  -13.5271   21.1845 C   0  0  0  0  0  0
  -22.1654   -4.2161   21.0980 F   0  0  0  0  0  0
  -21.5626   -3.4546   25.7737 F   0  0  0  0  0  0
  -30.0216  -13.3144   20.4286 N   0  0  0  0  0  0
  -26.2958  -12.9209   20.3262 N   0  0  0  0  0  0
  -25.9236  -11.6406   20.5703 N   0  0  0  0  0  0
  -22.0463  -12.8291   22.0404 N   0  0  0  0  0  0
  -25.4350  -15.1822   20.4046 N   0  0  0  0  0  0
  -31.7860  -14.7452   20.1846 O   0  0  0  0  0  0
  -21.6596   -6.8867   21.4261 O   0  0  0  0  0  0
  -22.3546  -14.5557   20.6669 O   0  0  0  0  0  0
  -24.6168  -31.8672   23.2123 C   0  0  0  0  0  0
  -25.9024  -32.4838   23.8426 C   0  0  1  0  0  0
  -27.2155  -27.3967   20.0968 C   0  0  0  0  0  0
  -25.5867  -33.8636   24.2341 N   0  0  0  0  0  0
  -23.4060  -30.4933   21.5551 C   0  0  2  0  0  0
  -24.8474  -28.9635   20.1129 C   0  0  0  0  0  0
  -22.7422  -29.4629   22.4990 C   0  0  0  0  0  0
  -18.0272  -28.1376   22.8496 C   0  0  0  0  0  0
  -24.1478  -36.7316   23.2650 C   0  0  0  0  0  0
  -25.9401  -30.8226   21.3703 C   0  0  0  0  0  0
  -26.0143  -29.4574   20.7090 C   0  0  0  0  0  0
  -27.2052  -28.6874   20.6882 C   0  0  0  0  0  0
  -26.0287  -26.9350   19.4840 C   0  0  0  0  0  0
  -24.8517  -27.7040   19.4928 C   0  0  0  0  0  0
  -23.6144  -29.8364   20.1669 C   0  0  0  0  0  0
  -25.4102  -36.3127   24.0353 C   0  0  1  0  0  0
  -20.5862  -28.3654   23.1316 C   0  0  2  0  0  0
  -20.6748  -26.9386   22.5416 C   0  0  0  0  0  0
  -19.5733  -26.6373   21.5207 C   0  0  0  0  0  0
  -18.1915  -26.7922   22.1623 C   0  0  0  0  0  0
  -19.1517  -28.8827   23.2902 C   0  0  0  0  0  0
  -18.9455  -30.1439   23.8919 C   0  0  0  0  0  0
  -17.6456  -30.6585   24.0561 C   0  0  0  0  0  0
  -25.9022  -34.9490   23.5154 C   0  0  0  0  0  0
  -16.5348  -29.9091   23.6332 C   0  0  0  0  0  0
  -16.7254  -28.6499   23.0364 C   0  0  0  0  0  0
  -26.4443  -31.6630   25.0766 C   0  0  0  0  0  0
  -25.3691  -31.3751   26.1513 C   0  0  0  0  0  0
  -27.0295  -30.3083   24.6146 C   0  0  0  0  0  0
  -27.6038  -32.4350   25.7495 C   0  0  0  0  0  0
  -27.5580  -37.1815   24.8468 C   0  0  0  0  0  0
  -21.4148  -29.3031   22.3731 N   0  0  0  0  0  0
  -26.4293  -37.3806   23.9416 N   0  0  0  0  0  0
  -24.6731  -31.0732   22.1048 N   0  0  0  0  0  0
  -23.4178  -28.8159   23.3016 O   0  0  0  0  0  0
  -28.3652  -26.6178   20.0958 O   0  0  0  0  0  0
  -26.5606  -34.8926   22.4721 O   0  0  0  0  0  0
  -23.5339  -32.1441   23.7482 O   0  0  0  0  0  0
  -27.9246  -21.5876   19.4970 C   0  0  0  0  0  0
  -29.9406  -20.4918   20.2556 C   0  0  0  0  0  0
  -29.1532  -21.6769   20.1771 C   0  0  0  0  0  0
  -27.5183  -20.3462   18.9780 C   0  0  0  0  0  0
  -29.4738  -19.2705   19.6920 C   0  0  0  0  0  0
  -26.2051  -20.1981   18.2351 C   0  0  0  0  0  0
  -31.7803  -18.1838   19.9126 C   0  0  0  0  0  0
  -30.1127  -17.2034   18.3603 C   0  0  0  0  0  0
  -29.5856  -22.9761   20.8859 C   0  0  0  0  0  0
  -29.4610  -24.3506   20.1408 C   0  0  0  0  0  0
  -29.7867  -17.0068   20.9248 C   0  0  0  0  0  0
  -28.2068  -25.2163   20.4526 C   0  0  0  0  0  0
  -30.2667  -17.9155   19.7288 C   0  0  0  0  0  0
  -28.2588  -19.2202   19.0935 N   0  0  0  0  0  0
  -29.7399  -15.5245   20.8017 N   0  0  0  0  0  0
  -31.4789  -12.4620   19.1299 H   0  0  0  0  0  0
  -30.3678  -11.3161   19.8310 H   0  0  0  0  0  0
  -29.7428  -11.7754   17.4228 H   0  0  0  0  0  0
  -29.6474  -13.4860   17.7686 H   0  0  0  0  0  0
  -27.8383  -11.2831   18.8205 H   0  0  0  0  0  0
  -27.3654  -12.5987   17.7863 H   0  0  0  0  0  0
  -27.6790  -14.2280   19.5376 H   0  0  0  0  0  0
  -28.6864  -11.9343   21.3034 H   0  0  0  0  0  0
  -28.4602  -13.5558   21.8752 H   0  0  0  0  0  0
  -25.2738   -9.5660   22.4727 H   0  0  0  0  0  0
  -23.9991   -7.4608   22.7442 H   0  0  0  0  0  0
  -21.0827   -8.8733   19.8927 H   0  0  0  0  0  0
  -22.3665  -10.9646   19.6148 H   0  0  0  0  0  0
  -21.2031   -7.6169   23.9749 H   0  0  0  0  0  0
  -21.1484   -6.0523   25.9089 H   0  0  0  0  0  0
  -22.0580   -2.7621   23.2839 H   0  0  0  0  0  0
  -22.4095  -12.0004   22.4880 H   0  0  0  0  0  0
  -21.1060  -13.1311   22.2537 H   0  0  0  0  0  0
  -24.6661  -15.8365   20.5032 H   0  0  0  0  0  0
  -26.2769  -15.6155   20.0490 H   0  0  0  0  0  0
  -26.7091  -32.5523   23.1178 H   0  0  0  0  0  0
  -24.9972  -33.9810   25.0456 H   0  0  0  0  0  0
  -22.6962  -31.3121   21.4226 H   0  0  0  0  0  0
  -23.3746  -35.9642   23.3330 H   0  0  0  0  0  0
  -24.3564  -36.8908   22.2060 H   0  0  0  0  0  0
  -23.7214  -37.6522   23.6645 H   0  0  0  0  0  0
  -26.0583  -31.5937   20.6075 H   0  0  0  0  0  0
  -26.8258  -30.8689   21.9916 H   0  0  0  0  0  0
  -28.1078  -29.0712   21.1425 H   0  0  0  0  0  0
  -25.9910  -25.9831   18.9752 H   0  0  0  0  0  0
  -23.9555  -27.3297   19.0167 H   0  0  0  0  0  0
  -23.7288  -30.6206   19.4174 H   0  0  0  0  0  0
  -22.7341  -29.2672   19.8640 H   0  0  0  0  0  0
  -25.1270  -36.2020   25.0850 H   0  0  0  0  0  0
  -20.9944  -28.3214   24.1437 H   0  0  0  0  0  0
  -20.5623  -26.2272   23.3610 H   0  0  0  0  0  0
  -21.6631  -26.7411   22.1230 H   0  0  0  0  0  0
  -19.6898  -25.6282   21.1244 H   0  0  0  0  0  0
  -19.6683  -27.3179   20.6735 H   0  0  0  0  0  0
  -17.4184  -26.6671   21.4031 H   0  0  0  0  0  0
  -18.0316  -26.0057   22.9012 H   0  0  0  0  0  0
  -19.7929  -30.7239   24.2311 H   0  0  0  0  0  0
  -17.5019  -31.6275   24.5148 H   0  0  0  0  0  0
  -15.5351  -30.3008   23.7639 H   0  0  0  0  0  0
  -15.8655  -28.0820   22.7092 H   0  0  0  0  0  0
  -24.5828  -30.7149   25.7834 H   0  0  0  0  0  0
  -24.8920  -32.2924   26.4983 H   0  0  0  0  0  0
  -25.8009  -30.8883   27.0268 H   0  0  0  0  0  0
  -26.2875  -29.6850   24.1151 H   0  0  0  0  0  0
  -27.4042  -29.7310   25.4607 H   0  0  0  0  0  0
  -27.8702  -30.4445   23.9340 H   0  0  0  0  0  0
  -27.2682  -33.3642   26.2104 H   0  0  0  0  0  0
  -28.3797  -32.6924   25.0276 H   0  0  0  0  0  0
  -28.0756  -31.8464   26.5367 H   0  0  0  0  0  0
  -28.2619  -38.0094   24.7505 H   0  0  0  0  0  0
  -28.1058  -36.2631   24.6301 H   0  0  0  0  0  0
  -27.2306  -37.1471   25.8874 H   0  0  0  0  0  0
  -20.9303  -29.8791   21.6997 H   0  0  0  0  0  0
  -26.0196  -38.2893   24.1408 H   0  0  0  0  0  0
  -27.2875  -22.4556   19.3902 H   0  0  0  0  0  0
  -30.8917  -20.5243   20.7662 H   0  0  0  0  0  0
  -25.5110  -20.9983   18.4899 H   0  0  0  0  0  0
  -25.7180  -19.2522   18.4745 H   0  0  0  0  0  0
  -26.3802  -20.2319   17.1602 H   0  0  0  0  0  0
  -32.1572  -18.8808   19.1624 H   0  0  0  0  0  0
  -32.3585  -17.2662   19.8173 H   0  0  0  0  0  0
  -32.0122  -18.5984   20.8950 H   0  0  0  0  0  0
  -30.3494  -17.8801   17.5389 H   0  0  0  0  0  0
  -29.0985  -16.8390   18.2006 H   0  0  0  0  0  0
  -30.7780  -16.3475   18.2622 H   0  0  0  0  0  0
  -30.6395  -22.8476   21.1287 H   0  0  0  0  0  0
  -29.0789  -23.0263   21.8519 H   0  0  0  0  0  0
  -29.5980  -24.2287   19.0672 H   0  0  0  0  0  0
  -30.3122  -24.9469   20.4745 H   0  0  0  0  0  0
  -28.7376  -17.2564   21.0966 H   0  0  0  0  0  0
  -30.2857  -17.2813   21.8541 H   0  0  0  0  0  0
  -27.9903  -25.1747   21.5214 H   0  0  0  0  0  0
  -27.3596  -24.7479   19.9580 H   0  0  0  0  0  0
  -28.8201  -15.1547   20.9872 H   0  0  0  0  0  0
  1 25  1  0  0  0
  1 30  2  0  0  0
  1 85  1  0  0  0
  2  3  1  0  0  0
  2 25  1  0  0  0
  2 86  1  0  0  0
  2 87  1  0  0  0
  3  4  1  0  0  0
  3 88  1  0  0  0
  3 89  1  0  0  0
  4  5  1  0  0  0
  4 90  1  0  0  0
  4 91  1  0  0  0
  5  6  1  0  0  0
  5 26  1  0  0  0
  5 92  1  0  0  0
  6 25  1  0  0  0
  6 93  1  0  0  0
  6 94  1  0  0  0
  7  8  2  0  0  0
  7 26  1  0  0  0
  7 29  1  0  0  0
  8  9  1  0  0  0
  8 22  1  0  0  0
  9 10  1  0  0  0
  9 27  2  0  0  0
 10 11  2  0  0  0
 10 15  1  0  0  0
 11 12  1  0  0  0
 11 95  1  0  0  0
 12 13  2  0  0  0
 12 96  1  0  0  0
 13 14  1  0  0  0
 13 31  1  0  0  0
 14 15  2  0  0  0
 14 97  1  0  0  0
 15 98  1  0  0  0
 16 17  2  0  0  0
 16 21  1  0  0  0
 16 31  1  0  0  0
 17 18  1  0  0  0
 17 99  1  0  0  0
 18 19  2  0  0  0
 18100  1  0  0  0
 19 20  1  0  0  0
 19 24  1  0  0  0
 20 21  2  0  0  0
 20101  1  0  0  0
 21 23  1  0  0  0
 22 28  1  0  0  0
 22 32  2  0  0  0
 26 27  1  0  0  0
 28102  1  0  0  0
 28103  1  0  0  0
 29104  1  0  0  0
 29105  1  0  0  0
 33 34  1  0  0  0
 33 66  1  0  0  0
 33 70  2  0  0  0
 34 36  1  0  0  0
 34 59  1  0  0  0
 34106  1  0  0  0
 35 44  2  0  0  0
 35 45  1  0  0  0
 35 68  1  0  0  0
 36 56  1  0  0  0
 36107  1  0  0  0
 37 39  1  0  0  0
 37 47  1  0  0  0
 37 66  1  0  0  0
 37108  1  0  0  0
 38 43  2  0  0  0
 38 46  1  0  0  0
 38 47  1  0  0  0
 39 64  1  0  0  0
 39 67  2  0  0  0
 40 52  1  0  0  0
 40 53  2  0  0  0
 40 58  1  0  0  0
 41109  1  0  0  0
 41110  1  0  0  0
 41111  1  0  0  0
 41 48  1  0  0  0
 42 43  1  0  0  0
 42 66  1  0  0  0
 42112  1  0  0  0
 42113  1  0  0  0
 43 44  1  0  0  0
 44114  1  0  0  0
 45 46  2  0  0  0
 45115  1  0  0  0
 46116  1  0  0  0
 47117  1  0  0  0
 47118  1  0  0  0
 48 56  1  0  0  0
 48 65  1  0  0  0
 48119  1  0  0  0
 49 50  1  0  0  0
 49 53  1  0  0  0
 49 64  1  0  0  0
 49120  1  0  0  0
 50 51  1  0  0  0
 50121  1  0  0  0
 50122  1  0  0  0
 51 52  1  0  0  0
 51123  1  0  0  0
 51124  1  0  0  0
 52125  1  0  0  0
 52126  1  0  0  0
 53 54  1  0  0  0
 54 55  2  0  0  0
 54127  1  0  0  0
 55 57  1  0  0  0
 55128  1  0  0  0
 56 69  2  0  0  0
 57 58  2  0  0  0
 57129  1  0  0  0
 58130  1  0  0  0
 59 60  1  0  0  0
 59 61  1  0  0  0
 59 62  1  0  0  0
 60131  1  0  0  0
 60132  1  0  0  0
 60133  1  0  0  0
 61134  1  0  0  0
 61135  1  0  0  0
 61136  1  0  0  0
 62137  1  0  0  0
 62138  1  0  0  0
 62139  1  0  0  0
 63 65  1  0  0  0
 63140  1  0  0  0
 63141  1  0  0  0
 63142  1  0  0  0
 64143  1  0  0  0
 65144  1  0  0  0
 68 82  1  0  0  0
 71 73  2  0  0  0
 71 74  1  0  0  0
 71145  1  0  0  0
 72 73  1  0  0  0
 72 75  2  0  0  0
 72146  1  0  0  0
 73 79  1  0  0  0
 74 76  1  0  0  0
 74 84  2  0  0  0
 75 83  1  0  0  0
 75 84  1  0  0  0
 76147  1  0  0  0
 76148  1  0  0  0
 76149  1  0  0  0
 77150  1  0  0  0
 77151  1  0  0  0
 77152  1  0  0  0
 77 83  1  0  0  0
 78 83  1  0  0  0
 78153  1  0  0  0
 78154  1  0  0  0
 78155  1  0  0  0
 79 80  1  0  0  0
 79156  1  0  0  0
 79157  1  0  0  0
 80 82  1  0  0  0
 80158  1  0  0  0
 80159  1  0  0  0
 81 83  1  0  0  0
 81 85  1  0  0  0
 81160  1  0  0  0
 81161  1  0  0  0
 82162  1  0  0  0
 82163  1  0  0  0
 85164  1  0  0  0
M  ISO  4   1 100  68 101  82 101  85 100
M  END
> <chiral flag>
0

> <version>
0

> <s_m_source_file>
/data/baiqing/PycharmProjects/Reinvent-master-3.2/result/LINK_invent/BTK/process_docking_weight1_custom_sum_contain_oxygen_bond_distance_aromatic_linkinvent_7_9_3/rearranged_h_0080.sdf

> <i_m_source_file_index>
61

> <r_mmod_Potential_Energy-OPLS-2005>
-200.777633666992

> <r_mmod_Stretch_Energy-OPLS-2005>
52.2596321105957

> <r_mmod_Bend_Energy-OPLS-2005>
137.157363891602

> <r_mmod_Torsional_Energy-OPLS-2005>
230.71467590332

> <r_mmod_Improper_Torsional_Energy-OPLS-2005>
5.19595241546631

> <r_mmod_Van_der_Waal_Energy-OPLS-2005>
153.367477416992

> <r_mmod_Electrostatic_Energy-OPLS-2005>
-598.195251464844

> <r_mmod_Solvation_Energy-OPLS-2005>
-205.461807250977

> <b_mmod_Minimization_Converged-OPLS-2005>
0

> <r_mmod_RMS_Derivative-OPLS-2005>
3.96649384498596

$$$$
63
                    3D
 Structure written by MMmdl.
166174  0  0  1  0            999 V2000
  -30.7571  -14.4030   20.6639 C   0  0  0  0  0  0
  -30.4152  -12.3056   19.4009 C   0  0  0  0  0  0
  -29.4823  -12.5169   18.1941 C   0  0  0  0  0  0
  -28.0081  -12.3636   18.6130 C   0  0  0  0  0  0
  -27.6600  -13.1993   19.8711 C   0  0  2  0  0  0
  -28.6996  -12.9713   20.9911 C   0  0  0  0  0  0
  -25.2595  -13.8153   20.5670 C   0  0  0  0  0  0
  -24.1836  -13.0441   20.9165 C   0  0  0  0  0  0
  -24.6374  -11.6903   20.8722 C   0  0  0  0  0  0
  -23.9039  -10.4291   21.0406 C   0  0  0  0  0  0
  -24.3598   -9.4213   21.9186 C   0  0  0  0  0  0
  -23.6275   -8.2244   22.0753 C   0  0  0  0  0  0
  -22.4260   -8.0279   21.3545 C   0  0  0  0  0  0
  -21.9891   -9.0252   20.4647 C   0  0  0  0  0  0
  -22.7208  -10.2132   20.3057 C   0  0  0  0  0  0
  -21.6851   -6.0736   22.5282 C   0  0  0  0  0  0
  -21.4017   -6.5641   23.8215 C   0  0  0  0  0  0
  -21.3659   -5.6790   24.9175 C   0  0  0  0  0  0
  -21.6037   -4.3054   24.7228 C   0  0  0  0  0  0
  -21.8820   -3.8146   23.4349 C   0  0  0  0  0  0
  -21.9189   -4.6961   22.3405 C   0  0  0  0  0  0
  -22.7866  -13.5254   21.1834 C   0  0  0  0  0  0
  -22.1654   -4.2148   21.0982 F   0  0  0  0  0  0
  -21.5623   -3.4539   25.7741 F   0  0  0  0  0  0
  -30.0382  -13.2666   20.4503 N   0  0  0  0  0  0
  -26.3013  -12.9303   20.3347 N   0  0  0  0  0  0
  -25.9296  -11.6470   20.5749 N   0  0  0  0  0  0
  -22.0495  -12.8255   22.0392 N   0  0  0  0  0  0
  -25.4343  -15.1867   20.4072 N   0  0  0  0  0  0
  -31.8043  -14.6549   20.0574 O   0  0  0  0  0  0
  -21.6629   -6.8874   21.4242 O   0  0  0  0  0  0
  -22.3560  -14.5562   20.6681 O   0  0  0  0  0  0
  -24.6125  -31.8685   23.2101 C   0  0  0  0  0  0
  -25.9025  -32.4824   23.8394 C   0  0  1  0  0  0
  -27.2369  -27.4381   20.0862 C   0  0  0  0  0  0
  -25.5893  -33.8626   24.2333 N   0  0  0  0  0  0
  -23.3997  -30.4915   21.5503 C   0  0  2  0  0  0
  -24.8438  -28.9537   20.1171 C   0  0  0  0  0  0
  -22.7387  -29.4677   22.5005 C   0  0  0  0  0  0
  -18.0271  -28.1370   22.8490 C   0  0  0  0  0  0
  -24.1487  -36.7311   23.2642 C   0  0  0  0  0  0
  -25.9269  -30.8330   21.3625 C   0  0  0  0  0  0
  -26.0018  -29.4653   20.7135 C   0  0  0  0  0  0
  -27.1959  -28.7116   20.6994 C   0  0  0  0  0  0
  -26.0551  -26.9363   19.4925 C   0  0  0  0  0  0
  -24.8645  -27.6875   19.5078 C   0  0  0  0  0  0
  -23.6065  -29.8204   20.1660 C   0  0  0  0  0  0
  -25.4106  -36.3111   24.0343 C   0  0  1  0  0  0
  -20.5857  -28.3668   23.1326 C   0  0  2  0  0  0
  -20.6763  -26.9406   22.5420 C   0  0  0  0  0  0
  -19.5754  -26.6393   21.5205 C   0  0  0  0  0  0
  -18.1929  -26.7921   22.1615 C   0  0  0  0  0  0
  -19.1515  -28.8831   23.2909 C   0  0  0  0  0  0
  -18.9439  -30.1438   23.8919 C   0  0  0  0  0  0
  -17.6439  -30.6575   24.0563 C   0  0  0  0  0  0
  -25.9029  -34.9478   23.5133 C   0  0  0  0  0  0
  -16.5332  -29.9074   23.6322 C   0  0  0  0  0  0
  -16.7259  -28.6492   23.0342 C   0  0  0  0  0  0
  -26.4467  -31.6599   25.0719 C   0  0  0  0  0  0
  -25.3735  -31.3689   26.1471 C   0  0  0  0  0  0
  -27.0299  -30.3046   24.6081 C   0  0  0  0  0  0
  -27.6051  -32.4317   25.7481 C   0  0  0  0  0  0
  -27.5581  -37.1811   24.8468 C   0  0  0  0  0  0
  -21.4124  -29.3047   22.3737 N   0  0  0  0  0  0
  -26.4295  -37.3792   23.9410 N   0  0  0  0  0  0
  -24.6643  -31.0791   22.0994 N   0  0  0  0  0  0
  -23.4158  -28.8235   23.3065 O   0  0  0  0  0  0
  -28.4414  -26.7630   20.0929 O   0  0  0  0  0  0
  -26.5589  -34.8924   22.4693 O   0  0  0  0  0  0
  -23.5319  -32.1438   23.7503 O   0  0  0  0  0  0
  -28.1340  -19.1360   19.9897 C   0  0  0  0  0  0
  -29.2115  -18.8222   20.8510 C   0  0  0  0  0  0
  -28.8805  -20.8146   21.9787 C   0  0  0  0  0  0
  -27.7858  -21.1241   21.1249 C   0  0  0  0  0  0
  -29.3148  -21.7257   23.1108 C   0  0  0  0  0  0
  -28.5895  -16.6181   22.7539 C   0  0  0  0  0  0
  -31.2750  -15.4050   22.8066 C   0  0  0  0  0  0
  -29.9894  -17.5139   20.7230 C   0  0  0  0  0  0
  -26.8937  -22.3510   21.3260 C   0  0  0  0  0  0
  -27.0906  -23.4996   20.3107 C   0  0  0  0  0  0
  -28.3882  -24.3099   20.4998 C   0  0  0  0  0  0
  -28.5820  -25.4693   19.4939 C   0  0  0  0  0  0
  -29.3739  -16.2868   21.4651 C   0  0  1  0  0  0
  -27.4214  -20.2828   20.1237 N   0  0  0  0  0  0
  -29.5909  -19.6676   21.8413 N   0  0  0  0  0  0
  -30.3483  -15.1903   21.6867 N   0  0  0  0  0  0
  -31.4577  -12.4068   19.0927 H   0  0  0  0  0  0
  -30.3201  -11.2885   19.7829 H   0  0  0  0  0  0
  -29.7206  -11.8033   17.4038 H   0  0  0  0  0  0
  -29.6440  -13.5086   17.7693 H   0  0  0  0  0  0
  -27.8221  -11.3069   18.8071 H   0  0  0  0  0  0
  -27.3531  -12.6399   17.7859 H   0  0  0  0  0  0
  -27.7052  -14.2438   19.5680 H   0  0  0  0  0  0
  -28.6721  -11.9348   21.3301 H   0  0  0  0  0  0
  -28.4468  -13.5669   21.8685 H   0  0  0  0  0  0
  -25.2748   -9.5687   22.4753 H   0  0  0  0  0  0
  -23.9984   -7.4640   22.7482 H   0  0  0  0  0  0
  -21.0814   -8.8766   19.8963 H   0  0  0  0  0  0
  -22.3665  -10.9668   19.6162 H   0  0  0  0  0  0
  -21.2018   -7.6151   23.9721 H   0  0  0  0  0  0
  -21.1475   -6.0522   25.9077 H   0  0  0  0  0  0
  -22.0598   -2.7609   23.2851 H   0  0  0  0  0  0
  -22.4092  -11.9910   22.4773 H   0  0  0  0  0  0
  -21.1131  -13.1320   22.2618 H   0  0  0  0  0  0
  -24.6722  -15.8459   20.5206 H   0  0  0  0  0  0
  -26.2909  -15.6219   20.0916 H   0  0  0  0  0  0
  -26.7088  -32.5536   23.1159 H   0  0  0  0  0  0
  -25.0060  -33.9791   25.0487 H   0  0  0  0  0  0
  -22.6889  -31.3083   21.4095 H   0  0  0  0  0  0
  -23.3745  -35.9649   23.3318 H   0  0  0  0  0  0
  -24.3585  -36.8904   22.2051 H   0  0  0  0  0  0
  -23.7242  -37.6524   23.6640 H   0  0  0  0  0  0
  -26.0381  -31.5969   20.5914 H   0  0  0  0  0  0
  -26.8156  -30.8883   21.9796 H   0  0  0  0  0  0
  -28.0920  -29.1070   21.1578 H   0  0  0  0  0  0
  -26.0230  -25.9733   19.0082 H   0  0  0  0  0  0
  -23.9730  -27.2868   19.0451 H   0  0  0  0  0  0
  -23.7131  -30.5916   19.4018 H   0  0  0  0  0  0
  -22.7307  -29.2374   19.8759 H   0  0  0  0  0  0
  -25.1283  -36.1985   25.0835 H   0  0  0  0  0  0
  -20.9945  -28.3227   24.1449 H   0  0  0  0  0  0
  -20.5653  -26.2277   23.3601 H   0  0  0  0  0  0
  -21.6643  -26.7447   22.1233 H   0  0  0  0  0  0
  -19.6925  -25.6311   21.1218 H   0  0  0  0  0  0
  -19.6699  -27.3221   20.6747 H   0  0  0  0  0  0
  -17.4208  -26.6677   21.4008 H   0  0  0  0  0  0
  -18.0329  -26.0052   22.8997 H   0  0  0  0  0  0
  -19.7907  -30.7250   24.2310 H   0  0  0  0  0  0
  -17.4985  -31.6256   24.5166 H   0  0  0  0  0  0
  -15.5332  -30.2974   23.7635 H   0  0  0  0  0  0
  -15.8665  -28.0811   22.7043 H   0  0  0  0  0  0
  -24.5889  -30.7069   25.7790 H   0  0  0  0  0  0
  -24.8957  -32.2844   26.4967 H   0  0  0  0  0  0
  -25.8087  -30.8820   27.0207 H   0  0  0  0  0  0
  -26.2841  -29.6819   24.1128 H   0  0  0  0  0  0
  -27.4070  -29.7270   25.4527 H   0  0  0  0  0  0
  -27.8677  -30.4371   23.9234 H   0  0  0  0  0  0
  -27.2668  -33.3593   26.2112 H   0  0  0  0  0  0
  -28.3827  -32.6931   25.0292 H   0  0  0  0  0  0
  -28.0763  -31.8412   26.5351 H   0  0  0  0  0  0
  -28.2613  -38.0096   24.7505 H   0  0  0  0  0  0
  -28.1066  -36.2628   24.6311 H   0  0  0  0  0  0
  -27.2302  -37.1478   25.8875 H   0  0  0  0  0  0
  -20.9289  -29.8741   21.6933 H   0  0  0  0  0  0
  -26.0188  -38.2876   24.1397 H   0  0  0  0  0  0
  -27.8330  -18.4595   19.2019 H   0  0  0  0  0  0
  -28.5350  -21.7890   23.8693 H   0  0  0  0  0  0
  -29.5177  -22.7286   22.7377 H   0  0  0  0  0  0
  -30.2222  -21.3620   23.5947 H   0  0  0  0  0  0
  -27.7215  -17.2427   22.5396 H   0  0  0  0  0  0
  -29.2043  -17.1562   23.4766 H   0  0  0  0  0  0
  -28.2166  -15.7139   23.2358 H   0  0  0  0  0  0
  -32.1453  -14.7475   22.7620 H   0  0  0  0  0  0
  -31.6460  -16.4289   22.8353 H   0  0  0  0  0  0
  -30.7738  -15.2024   23.7536 H   0  0  0  0  0  0
  -31.0024  -17.7030   21.0786 H   0  0  0  0  0  0
  -30.0998  -17.2831   19.6625 H   0  0  0  0  0  0
  -26.9883  -22.7356   22.3414 H   0  0  0  0  0  0
  -25.8612  -22.0064   21.2590 H   0  0  0  0  0  0
  -27.0299  -23.1090   19.2942 H   0  0  0  0  0  0
  -26.2487  -24.1821   20.4228 H   0  0  0  0  0  0
  -29.2300  -23.6246   20.3933 H   0  0  0  0  0  0
  -28.4454  -24.6940   21.5188 H   0  0  0  0  0  0
  -28.0033  -25.3376   18.5801 H   0  0  0  0  0  0
  -29.6186  -25.4332   19.1576 H   0  0  0  0  0  0
  -28.6097  -15.9040   20.7893 H   0  0  0  0  0  0
  1 25  1  0  0  0
  1 30  2  0  0  0
  1 86  1  0  0  0
  2  3  1  0  0  0
  2 25  1  0  0  0
  2 87  1  0  0  0
  2 88  1  0  0  0
  3  4  1  0  0  0
  3 89  1  0  0  0
  3 90  1  0  0  0
  4  5  1  0  0  0
  4 91  1  0  0  0
  4 92  1  0  0  0
  5  6  1  0  0  0
  5 26  1  0  0  0
  5 93  1  0  0  0
  6 25  1  0  0  0
  6 94  1  0  0  0
  6 95  1  0  0  0
  7  8  2  0  0  0
  7 26  1  0  0  0
  7 29  1  0  0  0
  8  9  1  0  0  0
  8 22  1  0  0  0
  9 10  1  0  0  0
  9 27  2  0  0  0
 10 11  2  0  0  0
 10 15  1  0  0  0
 11 12  1  0  0  0
 11 96  1  0  0  0
 12 13  2  0  0  0
 12 97  1  0  0  0
 13 14  1  0  0  0
 13 31  1  0  0  0
 14 15  2  0  0  0
 14 98  1  0  0  0
 15 99  1  0  0  0
 16 17  2  0  0  0
 16 21  1  0  0  0
 16 31  1  0  0  0
 17 18  1  0  0  0
 17100  1  0  0  0
 18 19  2  0  0  0
 18101  1  0  0  0
 19 20  1  0  0  0
 19 24  1  0  0  0
 20 21  2  0  0  0
 20102  1  0  0  0
 21 23  1  0  0  0
 22 28  1  0  0  0
 22 32  2  0  0  0
 26 27  1  0  0  0
 28103  1  0  0  0
 28104  1  0  0  0
 29105  1  0  0  0
 29106  1  0  0  0
 33 34  1  0  0  0
 33 66  1  0  0  0
 33 70  2  0  0  0
 34 36  1  0  0  0
 34 59  1  0  0  0
 34107  1  0  0  0
 35 44  2  0  0  0
 35 45  1  0  0  0
 35 68  1  0  0  0
 36 56  1  0  0  0
 36108  1  0  0  0
 37 39  1  0  0  0
 37 47  1  0  0  0
 37 66  1  0  0  0
 37109  1  0  0  0
 38 43  2  0  0  0
 38 46  1  0  0  0
 38 47  1  0  0  0
 39 64  1  0  0  0
 39 67  2  0  0  0
 40 52  1  0  0  0
 40 53  2  0  0  0
 40 58  1  0  0  0
 41110  1  0  0  0
 41111  1  0  0  0
 41112  1  0  0  0
 41 48  1  0  0  0
 42 43  1  0  0  0
 42 66  1  0  0  0
 42113  1  0  0  0
 42114  1  0  0  0
 43 44  1  0  0  0
 44115  1  0  0  0
 45 46  2  0  0  0
 45116  1  0  0  0
 46117  1  0  0  0
 47118  1  0  0  0
 47119  1  0  0  0
 48 56  1  0  0  0
 48 65  1  0  0  0
 48120  1  0  0  0
 49 50  1  0  0  0
 49 53  1  0  0  0
 49 64  1  0  0  0
 49121  1  0  0  0
 50 51  1  0  0  0
 50122  1  0  0  0
 50123  1  0  0  0
 51 52  1  0  0  0
 51124  1  0  0  0
 51125  1  0  0  0
 52126  1  0  0  0
 52127  1  0  0  0
 53 54  1  0  0  0
 54 55  2  0  0  0
 54128  1  0  0  0
 55 57  1  0  0  0
 55129  1  0  0  0
 56 69  2  0  0  0
 57 58  2  0  0  0
 57130  1  0  0  0
 58131  1  0  0  0
 59 60  1  0  0  0
 59 61  1  0  0  0
 59 62  1  0  0  0
 60132  1  0  0  0
 60133  1  0  0  0
 60134  1  0  0  0
 61135  1  0  0  0
 61136  1  0  0  0
 61137  1  0  0  0
 62138  1  0  0  0
 62139  1  0  0  0
 62140  1  0  0  0
 63 65  1  0  0  0
 63141  1  0  0  0
 63142  1  0  0  0
 63143  1  0  0  0
 64144  1  0  0  0
 65145  1  0  0  0
 68 82  1  0  0  0
 71 72  2  0  0  0
 71 84  1  0  0  0
 71146  1  0  0  0
 72 78  1  0  0  0
 72 85  1  0  0  0
 73 74  1  0  0  0
 73 75  1  0  0  0
 73 85  2  0  0  0
 74 79  1  0  0  0
 74 84  2  0  0  0
 75147  1  0  0  0
 75148  1  0  0  0
 75149  1  0  0  0
 76150  1  0  0  0
 76151  1  0  0  0
 76152  1  0  0  0
 76 83  1  0  0  0
 77 86  1  0  0  0
 77153  1  0  0  0
 77154  1  0  0  0
 77155  1  0  0  0
 78 83  1  0  0  0
 78156  1  0  0  0
 78157  1  0  0  0
 79 80  1  0  0  0
 79158  1  0  0  0
 79159  1  0  0  0
 80 81  1  0  0  0
 80160  1  0  0  0
 80161  1  0  0  0
 81 82  1  0  0  0
 81162  1  0  0  0
 81163  1  0  0  0
 82164  1  0  0  0
 82165  1  0  0  0
 83 86  1  0  0  0
 83166  1  0  0  0
M  ISO  4   1 100  68 101  82 101  86 100
M  END
> <chiral flag>
0

> <version>
0

> <s_m_source_file>
/data/baiqing/PycharmProjects/Reinvent-master-3.2/result/LINK_invent/BTK/process_docking_weight1_custom_sum_contain_oxygen_bond_distance_aromatic_linkinvent_7_9_3/rearranged_h_0080.sdf

> <i_m_source_file_index>
62

> <r_mmod_Potential_Energy-OPLS-2005>
168.652923583984

> <r_mmod_Stretch_Energy-OPLS-2005>
40.5243759155273

> <r_mmod_Bend_Energy-OPLS-2005>
113.308013916016

> <r_mmod_Torsional_Energy-OPLS-2005>
285.818115234375

> <r_mmod_Improper_Torsional_Energy-OPLS-2005>
4.96776866912842

> <r_mmod_Van_der_Waal_Energy-OPLS-2005>
150.791030883789

> <r_mmod_Electrostatic_Energy-OPLS-2005>
-236.639236450195

> <r_mmod_Solvation_Energy-OPLS-2005>
-199.124893188477

> <b_mmod_Minimization_Converged-OPLS-2005>
0

> <r_mmod_RMS_Derivative-OPLS-2005>
1.15364563465118

$$$$
64
                    3D
 Structure written by MMmdl.
156164  0  0  1  0            999 V2000
  -30.6665  -14.5462   20.4865 C   0  0  0  0  0  0
  -30.4073  -12.3157   19.4645 C   0  0  0  0  0  0
  -29.5064  -12.4840   18.2249 C   0  0  0  0  0  0
  -28.0239  -12.3458   18.6270 C   0  0  0  0  0  0
  -27.6504  -13.2143   19.8619 C   0  0  2  0  0  0
  -28.6871  -13.0659   20.9966 C   0  0  0  0  0  0
  -25.2554  -13.8167   20.5667 C   0  0  0  0  0  0
  -24.1818  -13.0421   20.9179 C   0  0  0  0  0  0
  -24.6407  -11.6901   20.8710 C   0  0  0  0  0  0
  -23.9075  -10.4293   21.0380 C   0  0  0  0  0  0
  -24.3625   -9.4203   21.9152 C   0  0  0  0  0  0
  -23.6292   -8.2244   22.0733 C   0  0  0  0  0  0
  -22.4265   -8.0294   21.3536 C   0  0  0  0  0  0
  -21.9903   -9.0268   20.4641 C   0  0  0  0  0  0
  -22.7244  -10.2141   20.3032 C   0  0  0  0  0  0
  -21.6862   -6.0743   22.5286 C   0  0  0  0  0  0
  -21.4022   -6.5638   23.8225 C   0  0  0  0  0  0
  -21.3641   -5.6782   24.9175 C   0  0  0  0  0  0
  -21.6031   -4.3048   24.7229 C   0  0  0  0  0  0
  -21.8825   -3.8153   23.4352 C   0  0  0  0  0  0
  -21.9202   -4.6972   22.3413 C   0  0  0  0  0  0
  -22.7851  -13.5217   21.1875 C   0  0  0  0  0  0
  -22.1666   -4.2160   21.0986 F   0  0  0  0  0  0
  -21.5617   -3.4525   25.7738 F   0  0  0  0  0  0
  -30.0067  -13.3552   20.4264 N   0  0  0  0  0  0
  -26.2976  -12.9343   20.3294 N   0  0  0  0  0  0
  -25.9327  -11.6498   20.5719 N   0  0  0  0  0  0
  -22.0509  -12.8167   22.0431 N   0  0  0  0  0  0
  -25.4256  -15.1882   20.4100 N   0  0  0  0  0  0
  -31.8457  -14.6574   20.1528 O   0  0  0  0  0  0
  -21.6625   -6.8889   21.4254 O   0  0  0  0  0  0
  -22.3520  -14.5534   20.6772 O   0  0  0  0  0  0
  -24.6155  -31.8649   23.2095 C   0  0  0  0  0  0
  -25.9032  -32.4801   23.8399 C   0  0  1  0  0  0
  -27.2208  -27.3889   20.0970 C   0  0  0  0  0  0
  -25.5864  -33.8607   24.2316 N   0  0  0  0  0  0
  -23.4032  -30.4921   21.5477 C   0  0  2  0  0  0
  -24.8453  -28.9535   20.1144 C   0  0  0  0  0  0
  -22.7377  -29.4671   22.4960 C   0  0  0  0  0  0
  -18.0277  -28.1369   22.8620 C   0  0  0  0  0  0
  -24.1486  -36.7317   23.2647 C   0  0  0  0  0  0
  -25.9367  -30.8194   21.3660 C   0  0  0  0  0  0
  -26.0096  -29.4513   20.7101 C   0  0  0  0  0  0
  -27.1973  -28.6772   20.6956 C   0  0  0  0  0  0
  -26.0268  -26.9111   19.5097 C   0  0  0  0  0  0
  -24.8505  -27.6838   19.5143 C   0  0  0  0  0  0
  -23.6108  -29.8267   20.1624 C   0  0  0  0  0  0
  -25.4116  -36.3125   24.0341 C   0  0  1  0  0  0
  -20.5858  -28.3738   23.1429 C   0  0  2  0  0  0
  -20.6721  -26.9413   22.5706 C   0  0  0  0  0  0
  -19.5829  -26.6571   21.5308 C   0  0  0  0  0  0
  -18.2007  -26.7903   22.1773 C   0  0  0  0  0  0
  -19.1504  -28.8872   23.3006 C   0  0  0  0  0  0
  -18.9408  -30.1483   23.8994 C   0  0  0  0  0  0
  -17.6397  -30.6594   24.0613 C   0  0  0  0  0  0
  -25.9032  -34.9474   23.5144 C   0  0  0  0  0  0
  -16.5307  -29.9082   23.6366 C   0  0  0  0  0  0
  -16.7253  -28.6472   23.0453 C   0  0  0  0  0  0
  -26.4455  -31.6597   25.0742 C   0  0  0  0  0  0
  -25.3728  -31.3682   26.1503 C   0  0  0  0  0  0
  -27.0283  -30.3035   24.6135 C   0  0  0  0  0  0
  -27.6037  -32.4322   25.7484 C   0  0  0  0  0  0
  -27.5585  -37.1815   24.8464 C   0  0  0  0  0  0
  -21.4104  -29.2996   22.3651 N   0  0  0  0  0  0
  -26.4308  -37.3798   23.9395 N   0  0  0  0  0  0
  -24.6701  -31.0748   22.0985 N   0  0  0  0  0  0
  -23.4127  -28.8308   23.3099 O   0  0  0  0  0  0
  -28.4010  -26.6564   20.1091 O   0  0  0  0  0  0
  -26.5619  -34.8920   22.4722 O   0  0  0  0  0  0
  -23.5341  -32.1417   23.7467 O   0  0  0  0  0  0
  -28.8337  -19.0855   21.7489 C   0  0  0  0  0  0
  -29.0849  -19.6702   19.6850 C   0  0  0  0  0  0
  -29.1634  -17.9555   21.0154 C   0  0  0  0  0  0
  -30.0729  -16.3834   22.7909 C   0  0  0  0  0  0
  -28.5589  -22.7076   20.1641 C   0  0  0  0  0  0
  -28.2013  -24.1688   20.6280 C   0  0  0  0  0  0
  -28.4534  -21.5923   21.2648 C   0  0  0  0  0  0
  -28.4767  -25.3036   19.5879 C   0  0  0  0  0  0
  -29.3004  -16.4895   21.4623 C   0  0  2  0  0  0
  -29.3383  -18.3546   19.6866 N   0  0  0  0  0  0
  -28.7839  -20.1926   20.8862 N   0  0  0  0  0  0
  -29.8926  -15.6524   20.4013 N   0  0  0  0  0  0
  -31.4611  -12.3789   19.1950 H   0  0  0  0  0  0
  -30.2664  -11.3248   19.9014 H   0  0  0  0  0  0
  -29.7622  -11.7424   17.4666 H   0  0  0  0  0  0
  -29.6820  -13.4603   17.7717 H   0  0  0  0  0  0
  -27.8446  -11.2923   18.8447 H   0  0  0  0  0  0
  -27.3813  -12.5912   17.7816 H   0  0  0  0  0  0
  -27.6732  -14.2517   19.5286 H   0  0  0  0  0  0
  -28.6675  -12.0548   21.4085 H   0  0  0  0  0  0
  -28.4605  -13.7332   21.8276 H   0  0  0  0  0  0
  -25.2780   -9.5666   22.4710 H   0  0  0  0  0  0
  -24.0008   -7.4631   22.7439 H   0  0  0  0  0  0
  -21.0822   -8.8795   19.8959 H   0  0  0  0  0  0
  -22.3703  -10.9677   19.6137 H   0  0  0  0  0  0
  -21.2007   -7.6143   23.9724 H   0  0  0  0  0  0
  -21.1441   -6.0512   25.9072 H   0  0  0  0  0  0
  -22.0619   -2.7623   23.2860 H   0  0  0  0  0  0
  -22.4142  -11.9802   22.4766 H   0  0  0  0  0  0
  -21.1154  -13.1223   22.2688 H   0  0  0  0  0  0
  -24.6573  -15.8426   20.5107 H   0  0  0  0  0  0
  -26.2727  -15.6266   20.0693 H   0  0  0  0  0  0
  -26.7107  -32.5506   23.1170 H   0  0  0  0  0  0
  -24.9942  -33.9767   25.0416 H   0  0  0  0  0  0
  -22.6939  -31.3106   21.4089 H   0  0  0  0  0  0
  -23.3746  -35.9646   23.3323 H   0  0  0  0  0  0
  -24.3578  -36.8922   22.2056 H   0  0  0  0  0  0
  -23.7226  -37.6524   23.6650 H   0  0  0  0  0  0
  -26.0625  -31.5898   20.6037 H   0  0  0  0  0  0
  -26.8202  -30.8657   21.9901 H   0  0  0  0  0  0
  -28.0990  -29.0578   21.1561 H   0  0  0  0  0  0
  -25.9681  -25.9386   19.0483 H   0  0  0  0  0  0
  -23.9481  -27.2933   19.0631 H   0  0  0  0  0  0
  -23.7156  -30.6022   19.4022 H   0  0  0  0  0  0
  -22.7327  -29.2478   19.8713 H   0  0  0  0  0  0
  -25.1285  -36.2010   25.0828 H   0  0  0  0  0  0
  -20.9992  -28.3481   24.1548 H   0  0  0  0  0  0
  -20.5233  -26.2384   23.3932 H   0  0  0  0  0  0
  -21.6705  -26.7274   22.1888 H   0  0  0  0  0  0
  -19.7073  -25.6597   21.1082 H   0  0  0  0  0  0
  -19.6767  -27.3637   20.7029 H   0  0  0  0  0  0
  -17.4247  -26.6536   21.4229 H   0  0  0  0  0  0
  -18.0558  -26.0024   22.9203 H   0  0  0  0  0  0
  -19.7844  -30.7316   24.2412 H   0  0  0  0  0  0
  -17.4926  -31.6277   24.5189 H   0  0  0  0  0  0
  -15.5309  -30.3000   23.7666 H   0  0  0  0  0  0
  -15.8662  -28.0769   22.7186 H   0  0  0  0  0  0
  -24.5904  -30.7020   25.7845 H   0  0  0  0  0  0
  -24.8912  -32.2816   26.4997 H   0  0  0  0  0  0
  -25.8101  -30.8829   27.0238 H   0  0  0  0  0  0
  -26.2822  -29.6810   24.1168 H   0  0  0  0  0  0
  -27.4019  -29.7263   25.4600 H   0  0  0  0  0  0
  -27.8684  -30.4350   23.9310 H   0  0  0  0  0  0
  -27.2662  -33.3610   26.2093 H   0  0  0  0  0  0
  -28.3810  -32.6898   25.0277 H   0  0  0  0  0  0
  -28.0746  -31.8429   26.5366 H   0  0  0  0  0  0
  -28.2619  -38.0097   24.7507 H   0  0  0  0  0  0
  -28.1067  -36.2628   24.6302 H   0  0  0  0  0  0
  -27.2298  -37.1478   25.8869 H   0  0  0  0  0  0
  -20.9295  -29.8530   21.6695 H   0  0  0  0  0  0
  -26.0212  -38.2878   24.1392 H   0  0  0  0  0  0
  -28.6221  -19.1850   22.8047 H   0  0  0  0  0  0
  -29.1277  -20.2670   18.7859 H   0  0  0  0  0  0
  -31.0930  -16.7505   22.6893 H   0  0  0  0  0  0
  -29.5875  -16.9766   23.5654 H   0  0  0  0  0  0
  -30.1194  -15.3587   23.1633 H   0  0  0  0  0  0
  -29.5769  -22.7142   19.7760 H   0  0  0  0  0  0
  -27.9186  -22.4502   19.3223 H   0  0  0  0  0  0
  -27.1529  -24.2189   20.9282 H   0  0  0  0  0  0
  -28.7834  -24.3929   21.5216 H   0  0  0  0  0  0
  -27.4432  -21.5899   21.6740 H   0  0  0  0  0  0
  -29.1107  -21.8591   22.0914 H   0  0  0  0  0  0
  -27.8884  -25.1678   18.6806 H   0  0  0  0  0  0
  -29.5068  -25.1917   19.2504 H   0  0  0  0  0  0
  -28.2972  -16.0968   21.6291 H   0  0  0  0  0  0
  -30.2459  -16.2898   19.6998 H   0  0  0  0  0  0
  1 25  1  0  0  0
  1 30  2  0  0  0
  1 82  1  0  0  0
  2  3  1  0  0  0
  2 25  1  0  0  0
  2 83  1  0  0  0
  2 84  1  0  0  0
  3  4  1  0  0  0
  3 85  1  0  0  0
  3 86  1  0  0  0
  4  5  1  0  0  0
  4 87  1  0  0  0
  4 88  1  0  0  0
  5  6  1  0  0  0
  5 26  1  0  0  0
  5 89  1  0  0  0
  6 25  1  0  0  0
  6 90  1  0  0  0
  6 91  1  0  0  0
  7  8  2  0  0  0
  7 26  1  0  0  0
  7 29  1  0  0  0
  8  9  1  0  0  0
  8 22  1  0  0  0
  9 10  1  0  0  0
  9 27  2  0  0  0
 10 11  2  0  0  0
 10 15  1  0  0  0
 11 12  1  0  0  0
 11 92  1  0  0  0
 12 13  2  0  0  0
 12 93  1  0  0  0
 13 14  1  0  0  0
 13 31  1  0  0  0
 14 15  2  0  0  0
 14 94  1  0  0  0
 15 95  1  0  0  0
 16 17  2  0  0  0
 16 21  1  0  0  0
 16 31  1  0  0  0
 17 18  1  0  0  0
 17 96  1  0  0  0
 18 19  2  0  0  0
 18 97  1  0  0  0
 19 20  1  0  0  0
 19 24  1  0  0  0
 20 21  2  0  0  0
 20 98  1  0  0  0
 21 23  1  0  0  0
 22 28  1  0  0  0
 22 32  2  0  0  0
 26 27  1  0  0  0
 28 99  1  0  0  0
 28100  1  0  0  0
 29101  1  0  0  0
 29102  1  0  0  0
 33 34  1  0  0  0
 33 66  1  0  0  0
 33 70  2  0  0  0
 34 36  1  0  0  0
 34 59  1  0  0  0
 34103  1  0  0  0
 35 44  2  0  0  0
 35 45  1  0  0  0
 35 68  1  0  0  0
 36 56  1  0  0  0
 36104  1  0  0  0
 37 39  1  0  0  0
 37 47  1  0  0  0
 37 66  1  0  0  0
 37105  1  0  0  0
 38 43  2  0  0  0
 38 46  1  0  0  0
 38 47  1  0  0  0
 39 64  1  0  0  0
 39 67  2  0  0  0
 40 52  1  0  0  0
 40 53  2  0  0  0
 40 58  1  0  0  0
 41106  1  0  0  0
 41107  1  0  0  0
 41108  1  0  0  0
 41 48  1  0  0  0
 42 43  1  0  0  0
 42 66  1  0  0  0
 42109  1  0  0  0
 42110  1  0  0  0
 43 44  1  0  0  0
 44111  1  0  0  0
 45 46  2  0  0  0
 45112  1  0  0  0
 46113  1  0  0  0
 47114  1  0  0  0
 47115  1  0  0  0
 48 56  1  0  0  0
 48 65  1  0  0  0
 48116  1  0  0  0
 49 50  1  0  0  0
 49 53  1  0  0  0
 49 64  1  0  0  0
 49117  1  0  0  0
 50 51  1  0  0  0
 50118  1  0  0  0
 50119  1  0  0  0
 51 52  1  0  0  0
 51120  1  0  0  0
 51121  1  0  0  0
 52122  1  0  0  0
 52123  1  0  0  0
 53 54  1  0  0  0
 54 55  2  0  0  0
 54124  1  0  0  0
 55 57  1  0  0  0
 55125  1  0  0  0
 56 69  2  0  0  0
 57 58  2  0  0  0
 57126  1  0  0  0
 58127  1  0  0  0
 59 60  1  0  0  0
 59 61  1  0  0  0
 59 62  1  0  0  0
 60128  1  0  0  0
 60129  1  0  0  0
 60130  1  0  0  0
 61131  1  0  0  0
 61132  1  0  0  0
 61133  1  0  0  0
 62134  1  0  0  0
 62135  1  0  0  0
 62136  1  0  0  0
 63 65  1  0  0  0
 63137  1  0  0  0
 63138  1  0  0  0
 63139  1  0  0  0
 64140  1  0  0  0
 65141  1  0  0  0
 68 78  1  0  0  0
 71 73  2  0  0  0
 71 81  1  0  0  0
 71142  1  0  0  0
 72 80  2  0  0  0
 72 81  1  0  0  0
 72143  1  0  0  0
 73 79  1  0  0  0
 73 80  1  0  0  0
 74144  1  0  0  0
 74145  1  0  0  0
 74146  1  0  0  0
 74 79  1  0  0  0
 75 76  1  0  0  0
 75 77  1  0  0  0
 75147  1  0  0  0
 75148  1  0  0  0
 76 78  1  0  0  0
 76149  1  0  0  0
 76150  1  0  0  0
 77 81  1  0  0  0
 77151  1  0  0  0
 77152  1  0  0  0
 78153  1  0  0  0
 78154  1  0  0  0
 79 82  1  0  0  0
 79155  1  0  0  0
 82156  1  0  0  0
M  ISO  4   1 100  68 101  78 101  82 100
M  END
> <chiral flag>
0

> <version>
0

> <s_m_source_file>
/data/baiqing/PycharmProjects/Reinvent-master-3.2/result/LINK_invent/BTK/process_docking_weight1_custom_sum_contain_oxygen_bond_distance_aromatic_linkinvent_7_9_3/rearranged_h_0080.sdf

> <i_m_source_file_index>
63

> <r_mmod_Potential_Energy-OPLS-2005>
-71.8230285644531

> <r_mmod_Stretch_Energy-OPLS-2005>
47.8128318786621

> <r_mmod_Bend_Energy-OPLS-2005>
137.003189086914

> <r_mmod_Torsional_Energy-OPLS-2005>
258.592041015625

> <r_mmod_Improper_Torsional_Energy-OPLS-2005>
20.8480319976807

> <r_mmod_Van_der_Waal_Energy-OPLS-2005>
120.878265380859

> <r_mmod_Electrostatic_Energy-OPLS-2005>
-472.062164306641

> <r_mmod_Solvation_Energy-OPLS-2005>
-210.90803527832

> <b_mmod_Minimization_Converged-OPLS-2005>
0

> <r_mmod_RMS_Derivative-OPLS-2005>
3.60787224769592

$$$$
65
                    3D
 Structure written by MMmdl.
169177  0  0  1  0            999 V2000
  -30.5989  -14.7454   20.4727 C   0  0  0  0  0  0
  -30.4401  -12.4585   19.4788 C   0  0  0  0  0  0
  -29.5089  -12.5112   18.2460 C   0  0  0  0  0  0
  -28.0323  -12.3471   18.6527 C   0  0  0  0  0  0
  -27.6444  -13.2368   19.8643 C   0  0  2  0  0  0
  -28.6911  -13.1603   21.0003 C   0  0  0  0  0  0
  -25.2506  -13.8185   20.5764 C   0  0  0  0  0  0
  -24.1829  -13.0417   20.9282 C   0  0  0  0  0  0
  -24.6452  -11.6882   20.8859 C   0  0  0  0  0  0
  -23.9138  -10.4239   21.0444 C   0  0  0  0  0  0
  -24.3661   -9.4114   21.9205 C   0  0  0  0  0  0
  -23.6299   -8.2182   22.0790 C   0  0  0  0  0  0
  -22.4285   -8.0248   21.3583 C   0  0  0  0  0  0
  -21.9932   -9.0243   20.4709 C   0  0  0  0  0  0
  -22.7291  -10.2098   20.3106 C   0  0  0  0  0  0
  -21.6839   -6.0725   22.5294 C   0  0  0  0  0  0
  -21.4002   -6.5650   23.8219 C   0  0  0  0  0  0
  -21.3661   -5.6819   24.9194 C   0  0  0  0  0  0
  -21.6035   -4.3084   24.7251 C   0  0  0  0  0  0
  -21.8809   -3.8152   23.4392 C   0  0  0  0  0  0
  -21.9197   -4.6958   22.3432 C   0  0  0  0  0  0
  -22.7831  -13.5152   21.1895 C   0  0  0  0  0  0
  -22.1694   -4.2126   21.1025 F   0  0  0  0  0  0
  -21.5605   -3.4585   25.7785 F   0  0  0  0  0  0
  -29.9962  -13.5097   20.4231 N   0  0  0  0  0  0
  -26.2980  -12.9426   20.3433 N   0  0  0  0  0  0
  -25.9413  -11.6560   20.5977 N   0  0  0  0  0  0
  -22.0474  -12.8213   22.0498 N   0  0  0  0  0  0
  -25.4131  -15.1919   20.4079 N   0  0  0  0  0  0
  -31.7730  -14.8790   20.1156 O   0  0  0  0  0  0
  -21.6639   -6.8855   21.4255 O   0  0  0  0  0  0
  -22.3514  -14.5425   20.6654 O   0  0  0  0  0  0
  -24.6306  -31.8544   23.1977 C   0  0  0  0  0  0
  -25.9116  -32.4756   23.8325 C   0  0  1  0  0  0
  -27.2365  -27.2592   20.1678 C   0  0  0  0  0  0
  -25.5922  -33.8555   24.2257 N   0  0  0  0  0  0
  -23.4334  -30.4693   21.5430 C   0  0  2  0  0  0
  -24.8842  -28.8992   20.1352 C   0  0  0  0  0  0
  -22.7490  -29.4579   22.4926 C   0  0  0  0  0  0
  -18.0284  -28.1404   22.8478 C   0  0  0  0  0  0
  -24.1489  -36.7267   23.2633 C   0  0  0  0  0  0
  -25.9789  -30.7610   21.3854 C   0  0  0  0  0  0
  -26.0515  -29.3770   20.7464 C   0  0  0  0  0  0
  -27.2307  -28.5670   20.7547 C   0  0  0  0  0  0
  -26.0623  -26.8550   19.5067 C   0  0  0  0  0  0
  -24.8913  -27.6405   19.5081 C   0  0  0  0  0  0
  -23.6585  -29.7910   20.1680 C   0  0  0  0  0  0
  -25.4118  -36.3065   24.0325 C   0  0  1  0  0  0
  -20.5883  -28.3714   23.1262 C   0  0  2  0  0  0
  -20.6768  -26.9423   22.5406 C   0  0  0  0  0  0
  -19.5755  -26.6404   21.5202 C   0  0  0  0  0  0
  -18.1934  -26.7956   22.1610 C   0  0  0  0  0  0
  -19.1534  -28.8877   23.2882 C   0  0  0  0  0  0
  -18.9444  -30.1471   23.8916 C   0  0  0  0  0  0
  -17.6436  -30.6599   24.0560 C   0  0  0  0  0  0
  -25.9046  -34.9437   23.5101 C   0  0  0  0  0  0
  -16.5334  -29.9085   23.6322 C   0  0  0  0  0  0
  -16.7266  -28.6505   23.0346 C   0  0  0  0  0  0
  -26.4504  -31.6584   25.0708 C   0  0  0  0  0  0
  -25.3715  -31.3721   26.1418 C   0  0  0  0  0  0
  -27.0353  -30.2992   24.6218 C   0  0  0  0  0  0
  -27.6076  -32.4328   25.7459 C   0  0  0  0  0  0
  -27.5591  -37.1776   24.8468 C   0  0  0  0  0  0
  -21.4193  -29.3047   22.3638 N   0  0  0  0  0  0
  -26.4300  -37.3754   23.9405 N   0  0  0  0  0  0
  -24.6991  -31.0482   22.0979 N   0  0  0  0  0  0
  -23.4159  -28.8106   23.3037 O   0  0  0  0  0  0
  -28.3700  -26.4261   20.1028 O   0  0  0  0  0  0
  -26.5615  -34.8907   22.4660 O   0  0  0  0  0  0
  -23.5442  -32.1372   23.7229 O   0  0  0  0  0  0
  -29.7624  -22.2363   21.6629 C   0  0  0  0  0  0
  -30.1190  -20.8772   21.9123 C   0  0  0  0  0  0
  -28.8083  -22.3086   20.6880 C   0  0  0  0  0  0
  -29.3595  -20.0201   21.1505 C   0  0  0  0  0  0
  -26.5631  -23.5032   20.5168 C   0  0  0  0  0  0
  -28.1085  -21.1666   17.8241 C   0  0  0  0  0  0
  -26.3401  -20.2922   19.4486 C   0  0  0  0  0  0
  -27.7577  -18.0092   21.4489 C   0  0  0  0  0  0
  -29.8119  -18.0911   22.7541 C   0  0  0  0  0  0
  -29.9932  -17.3412   20.4078 C   0  0  0  0  0  0
  -28.5007  -25.0921   20.7891 C   0  0  0  0  0  0
  -28.0620  -23.6379   20.2013 C   0  0  1  0  0  0
  -27.8447  -20.4261   19.1476 C   0  0  0  0  0  0
  -29.2406  -18.4195   21.3557 C   0  0  0  0  0  0
  -28.6437  -20.9223   20.2794 N   0  0  0  0  0  0
  -29.7947  -15.8462   20.7113 N   0  0  0  0  0  0
  -31.4742  -12.6041   19.1639 H   0  0  0  0  0  0
  -30.4148  -11.4792   19.9585 H   0  0  0  0  0  0
  -29.7830  -11.7382   17.5279 H   0  0  0  0  0  0
  -29.6396  -13.4642   17.7324 H   0  0  0  0  0  0
  -27.8695  -11.2969   18.8932 H   0  0  0  0  0  0
  -27.3854  -12.5634   17.8022 H   0  0  0  0  0  0
  -27.6362  -14.2611   19.4891 H   0  0  0  0  0  0
  -28.7242  -12.1642   21.4424 H   0  0  0  0  0  0
  -28.4314  -13.8419   21.8125 H   0  0  0  0  0  0
  -25.2801   -9.5547   22.4786 H   0  0  0  0  0  0
  -23.9967   -7.4543   22.7525 H   0  0  0  0  0  0
  -21.0827   -8.8774   19.9056 H   0  0  0  0  0  0
  -22.3728  -10.9653   19.6240 H   0  0  0  0  0  0
  -21.2002   -7.6168   23.9708 H   0  0  0  0  0  0
  -21.1522   -6.0574   25.9094 H   0  0  0  0  0  0
  -22.0592   -2.7616   23.2924 H   0  0  0  0  0  0
  -22.4030  -11.9891   22.4960 H   0  0  0  0  0  0
  -21.1133  -13.1325   22.2762 H   0  0  0  0  0  0
  -24.6254  -15.8280   20.4641 H   0  0  0  0  0  0
  -26.2469  -15.6342   20.0468 H   0  0  0  0  0  0
  -26.7151  -32.5437   23.1047 H   0  0  0  0  0  0
  -25.0109  -33.9693   25.0427 H   0  0  0  0  0  0
  -22.7338  -31.2920   21.3859 H   0  0  0  0  0  0
  -23.3750  -35.9599   23.3294 H   0  0  0  0  0  0
  -24.3570  -36.8882   22.2047 H   0  0  0  0  0  0
  -23.7233  -37.6459   23.6659 H   0  0  0  0  0  0
  -26.1274  -31.5080   20.6037 H   0  0  0  0  0  0
  -26.8553  -30.8181   22.0192 H   0  0  0  0  0  0
  -28.1307  -28.9310   21.2319 H   0  0  0  0  0  0
  -26.0589  -25.9179   18.9692 H   0  0  0  0  0  0
  -24.0081  -27.2633   19.0132 H   0  0  0  0  0  0
  -23.8032  -30.5660   19.4165 H   0  0  0  0  0  0
  -22.7760  -29.2322   19.8543 H   0  0  0  0  0  0
  -25.1278  -36.1933   25.0812 H   0  0  0  0  0  0
  -20.9993  -28.3330   24.1372 H   0  0  0  0  0  0
  -20.5676  -26.2305   23.3596 H   0  0  0  0  0  0
  -21.6628  -26.7448   22.1179 H   0  0  0  0  0  0
  -19.6916  -25.6318   21.1233 H   0  0  0  0  0  0
  -19.6727  -27.3208   20.6729 H   0  0  0  0  0  0
  -17.4187  -26.6689   21.4024 H   0  0  0  0  0  0
  -18.0344  -26.0128   22.9038 H   0  0  0  0  0  0
  -19.7919  -30.7288   24.2303 H   0  0  0  0  0  0
  -17.4981  -31.6286   24.5150 H   0  0  0  0  0  0
  -15.5331  -30.2971   23.7653 H   0  0  0  0  0  0
  -15.8671  -28.0822   22.7036 H   0  0  0  0  0  0
  -24.5919  -30.7054   25.7714 H   0  0  0  0  0  0
  -24.8862  -32.2877   26.4820 H   0  0  0  0  0  0
  -25.8015  -30.8908   27.0214 H   0  0  0  0  0  0
  -26.2963  -29.6745   24.1195 H   0  0  0  0  0  0
  -27.3949  -29.7263   25.4772 H   0  0  0  0  0  0
  -27.8876  -30.4205   23.9525 H   0  0  0  0  0  0
  -27.2713  -33.3647   26.2017 H   0  0  0  0  0  0
  -28.3892  -32.6866   25.0281 H   0  0  0  0  0  0
  -28.0760  -31.8472   26.5383 H   0  0  0  0  0  0
  -28.2585  -38.0089   24.7497 H   0  0  0  0  0  0
  -28.1111  -36.2610   24.6316 H   0  0  0  0  0  0
  -27.2302  -37.1439   25.8868 H   0  0  0  0  0  0
  -20.9365  -29.8697   21.6784 H   0  0  0  0  0  0
  -26.0195  -38.2827   24.1402 H   0  0  0  0  0  0
  -30.1530  -23.0985   22.1863 H   0  0  0  0  0  0
  -30.8320  -20.5662   22.6650 H   0  0  0  0  0  0
  -26.4203  -23.0861   21.5141 H   0  0  0  0  0  0
  -26.0487  -22.8686   19.8084 H   0  0  0  0  0  0
  -26.0416  -24.4541   20.5103 H   0  0  0  0  0  0
  -27.6978  -20.5969   16.9905 H   0  0  0  0  0  0
  -29.1722  -21.3034   17.6254 H   0  0  0  0  0  0
  -27.6242  -22.1388   17.7890 H   0  0  0  0  0  0
  -25.9739  -19.2981   19.1896 H   0  0  0  0  0  0
  -25.7361  -20.9867   18.8663 H   0  0  0  0  0  0
  -26.1262  -20.4563   20.5037 H   0  0  0  0  0  0
  -27.2214  -18.6309   22.1666 H   0  0  0  0  0  0
  -27.6352  -16.9788   21.7821 H   0  0  0  0  0  0
  -27.2572  -18.0717   20.4901 H   0  0  0  0  0  0
  -29.3486  -18.7005   23.5297 H   0  0  0  0  0  0
  -30.8884  -18.2578   22.7941 H   0  0  0  0  0  0
  -29.6411  -17.0530   23.0405 H   0  0  0  0  0  0
  -31.0624  -17.5597   20.4081 H   0  0  0  0  0  0
  -29.6632  -17.4982   19.3799 H   0  0  0  0  0  0
  -29.5842  -25.0271   20.8863 H   0  0  0  0  0  0
  -28.1364  -25.1843   21.8147 H   0  0  0  0  0  0
  -28.2026  -23.7310   19.1268 H   0  0  0  0  0  0
  -28.2209  -19.4197   18.9653 H   0  0  0  0  0  0
  -28.8662  -15.6065   21.0218 H   0  0  0  0  0  0
  1 25  1  0  0  0
  1 30  2  0  0  0
  1 86  1  0  0  0
  2  3  1  0  0  0
  2 25  1  0  0  0
  2 87  1  0  0  0
  2 88  1  0  0  0
  3  4  1  0  0  0
  3 89  1  0  0  0
  3 90  1  0  0  0
  4  5  1  0  0  0
  4 91  1  0  0  0
  4 92  1  0  0  0
  5  6  1  0  0  0
  5 26  1  0  0  0
  5 93  1  0  0  0
  6 25  1  0  0  0
  6 94  1  0  0  0
  6 95  1  0  0  0
  7  8  2  0  0  0
  7 26  1  0  0  0
  7 29  1  0  0  0
  8  9  1  0  0  0
  8 22  1  0  0  0
  9 10  1  0  0  0
  9 27  2  0  0  0
 10 11  2  0  0  0
 10 15  1  0  0  0
 11 12  1  0  0  0
 11 96  1  0  0  0
 12 13  2  0  0  0
 12 97  1  0  0  0
 13 14  1  0  0  0
 13 31  1  0  0  0
 14 15  2  0  0  0
 14 98  1  0  0  0
 15 99  1  0  0  0
 16 17  2  0  0  0
 16 21  1  0  0  0
 16 31  1  0  0  0
 17 18  1  0  0  0
 17100  1  0  0  0
 18 19  2  0  0  0
 18101  1  0  0  0
 19 20  1  0  0  0
 19 24  1  0  0  0
 20 21  2  0  0  0
 20102  1  0  0  0
 21 23  1  0  0  0
 22 28  1  0  0  0
 22 32  2  0  0  0
 26 27  1  0  0  0
 28103  1  0  0  0
 28104  1  0  0  0
 29105  1  0  0  0
 29106  1  0  0  0
 33 34  1  0  0  0
 33 66  1  0  0  0
 33 70  2  0  0  0
 34 36  1  0  0  0
 34 59  1  0  0  0
 34107  1  0  0  0
 35 44  2  0  0  0
 35 45  1  0  0  0
 35 68  1  0  0  0
 36 56  1  0  0  0
 36108  1  0  0  0
 37 39  1  0  0  0
 37 47  1  0  0  0
 37 66  1  0  0  0
 37109  1  0  0  0
 38 43  2  0  0  0
 38 46  1  0  0  0
 38 47  1  0  0  0
 39 64  1  0  0  0
 39 67  2  0  0  0
 40 52  1  0  0  0
 40 53  2  0  0  0
 40 58  1  0  0  0
 41110  1  0  0  0
 41111  1  0  0  0
 41112  1  0  0  0
 41 48  1  0  0  0
 42 43  1  0  0  0
 42 66  1  0  0  0
 42113  1  0  0  0
 42114  1  0  0  0
 43 44  1  0  0  0
 44115  1  0  0  0
 45 46  2  0  0  0
 45116  1  0  0  0
 46117  1  0  0  0
 47118  1  0  0  0
 47119  1  0  0  0
 48 56  1  0  0  0
 48 65  1  0  0  0
 48120  1  0  0  0
 49 50  1  0  0  0
 49 53  1  0  0  0
 49 64  1  0  0  0
 49121  1  0  0  0
 50 51  1  0  0  0
 50122  1  0  0  0
 50123  1  0  0  0
 51 52  1  0  0  0
 51124  1  0  0  0
 51125  1  0  0  0
 52126  1  0  0  0
 52127  1  0  0  0
 53 54  1  0  0  0
 54 55  2  0  0  0
 54128  1  0  0  0
 55 57  1  0  0  0
 55129  1  0  0  0
 56 69  2  0  0  0
 57 58  2  0  0  0
 57130  1  0  0  0
 58131  1  0  0  0
 59 60  1  0  0  0
 59 61  1  0  0  0
 59 62  1  0  0  0
 60132  1  0  0  0
 60133  1  0  0  0
 60134  1  0  0  0
 61135  1  0  0  0
 61136  1  0  0  0
 61137  1  0  0  0
 62138  1  0  0  0
 62139  1  0  0  0
 62140  1  0  0  0
 63 65  1  0  0  0
 63141  1  0  0  0
 63142  1  0  0  0
 63143  1  0  0  0
 64144  1  0  0  0
 65145  1  0  0  0
 68 81  1  0  0  0
 71 72  1  0  0  0
 71 73  2  0  0  0
 71146  1  0  0  0
 72 74  2  0  0  0
 72147  1  0  0  0
 73 82  1  0  0  0
 73 85  1  0  0  0
 74 84  1  0  0  0
 74 85  1  0  0  0
 75148  1  0  0  0
 75149  1  0  0  0
 75150  1  0  0  0
 75 82  1  0  0  0
 76151  1  0  0  0
 76152  1  0  0  0
 76153  1  0  0  0
 76 83  1  0  0  0
 77 83  1  0  0  0
 77154  1  0  0  0
 77155  1  0  0  0
 77156  1  0  0  0
 78157  1  0  0  0
 78158  1  0  0  0
 78159  1  0  0  0
 78 84  1  0  0  0
 79 84  1  0  0  0
 79160  1  0  0  0
 79161  1  0  0  0
 79162  1  0  0  0
 80 84  1  0  0  0
 80 86  1  0  0  0
 80163  1  0  0  0
 80164  1  0  0  0
 81 82  1  0  0  0
 81165  1  0  0  0
 81166  1  0  0  0
 82167  1  0  0  0
 83 85  1  0  0  0
 83168  1  0  0  0
 86169  1  0  0  0
M  ISO  4   1 100  68 101  81 101  86 100
M  END
> <chiral flag>
0

> <version>
0

> <s_m_source_file>
/data/baiqing/PycharmProjects/Reinvent-master-3.2/result/LINK_invent/BTK/process_docking_weight1_custom_sum_contain_oxygen_bond_distance_aromatic_linkinvent_7_9_3/rearranged_h_0080.sdf

> <i_m_source_file_index>
64

> <r_mmod_Potential_Energy-OPLS-2005>
206.021682739258

> <r_mmod_Stretch_Energy-OPLS-2005>
144.542678833008

> <r_mmod_Bend_Energy-OPLS-2005>
220.490447998047

> <r_mmod_Torsional_Energy-OPLS-2005>
303.051605224609

> <r_mmod_Improper_Torsional_Energy-OPLS-2005>
6.46934127807617

> <r_mmod_Van_der_Waal_Energy-OPLS-2005>
119.356475830078

> <r_mmod_Electrostatic_Energy-OPLS-2005>
-469.392120361328

> <r_mmod_Solvation_Energy-OPLS-2005>
-198.740524291992

> <b_mmod_Minimization_Converged-OPLS-2005>
0

> <r_mmod_RMS_Derivative-OPLS-2005>
4.59932518005371

$$$$
66
                    3D
 Structure written by MMmdl.
163171  0  0  1  0            999 V2000
  -30.7098  -14.4478   20.5659 C   0  0  0  0  0  0
  -30.4186  -12.2871   19.4255 C   0  0  0  0  0  0
  -29.4972  -12.4988   18.2066 C   0  0  0  0  0  0
  -28.0137  -12.3796   18.6095 C   0  0  0  0  0  0
  -27.6640  -13.2077   19.8755 C   0  0  2  0  0  0
  -28.7037  -12.9803   20.9981 C   0  0  0  0  0  0
  -25.2605  -13.8173   20.5663 C   0  0  0  0  0  0
  -24.1856  -13.0465   20.9177 C   0  0  0  0  0  0
  -24.6390  -11.6925   20.8732 C   0  0  0  0  0  0
  -23.9050  -10.4310   21.0418 C   0  0  0  0  0  0
  -24.3608   -9.4222   21.9195 C   0  0  0  0  0  0
  -23.6292   -8.2249   22.0750 C   0  0  0  0  0  0
  -22.4281   -8.0268   21.3538 C   0  0  0  0  0  0
  -21.9912   -9.0244   20.4648 C   0  0  0  0  0  0
  -22.7223  -10.2130   20.3064 C   0  0  0  0  0  0
  -21.6858   -6.0729   22.5280 C   0  0  0  0  0  0
  -21.4014   -6.5632   23.8211 C   0  0  0  0  0  0
  -21.3657   -5.6777   24.9172 C   0  0  0  0  0  0
  -21.6045   -4.3042   24.7223 C   0  0  0  0  0  0
  -21.8819   -3.8137   23.4351 C   0  0  0  0  0  0
  -21.9191   -4.6958   22.3406 C   0  0  0  0  0  0
  -22.7875  -13.5272   21.1827 C   0  0  0  0  0  0
  -22.1666   -4.2148   21.0986 F   0  0  0  0  0  0
  -21.5626   -3.4525   25.7740 F   0  0  0  0  0  0
  -30.0379  -13.2724   20.4508 N   0  0  0  0  0  0
  -26.3032  -12.9339   20.3338 N   0  0  0  0  0  0
  -25.9307  -11.6506   20.5726 N   0  0  0  0  0  0
  -22.0482  -12.8280   22.0379 N   0  0  0  0  0  0
  -25.4376  -15.1884   20.4042 N   0  0  0  0  0  0
  -31.8349  -14.6212   20.0896 O   0  0  0  0  0  0
  -21.6646   -6.8869   21.4239 O   0  0  0  0  0  0
  -22.3590  -14.5577   20.6647 O   0  0  0  0  0  0
  -24.6142  -31.8691   23.2088 C   0  0  0  0  0  0
  -25.9047  -32.4822   23.8381 C   0  0  1  0  0  0
  -27.2376  -27.4467   20.0995 C   0  0  0  0  0  0
  -25.5919  -33.8619   24.2318 N   0  0  0  0  0  0
  -23.4020  -30.4905   21.5486 C   0  0  2  0  0  0
  -24.8505  -28.9530   20.1170 C   0  0  0  0  0  0
  -22.7415  -29.4661   22.4982 C   0  0  0  0  0  0
  -18.0282  -28.1377   22.8483 C   0  0  0  0  0  0
  -24.1495  -36.7310   23.2633 C   0  0  0  0  0  0
  -25.9283  -30.8367   21.3605 C   0  0  0  0  0  0
  -26.0086  -29.4697   20.7130 C   0  0  0  0  0  0
  -27.2073  -28.7226   20.7050 C   0  0  0  0  0  0
  -26.0690  -26.9378   19.4989 C   0  0  0  0  0  0
  -24.8743  -27.6844   19.5079 C   0  0  0  0  0  0
  -23.6120  -29.8200   20.1637 C   0  0  0  0  0  0
  -25.4116  -36.3103   24.0331 C   0  0  1  0  0  0
  -20.5865  -28.3669   23.1321 C   0  0  2  0  0  0
  -20.6779  -26.9406   22.5415 C   0  0  0  0  0  0
  -19.5755  -26.6383   21.5208 C   0  0  0  0  0  0
  -18.1938  -26.7921   22.1619 C   0  0  0  0  0  0
  -19.1528  -28.8835   23.2901 C   0  0  0  0  0  0
  -18.9450  -30.1434   23.8919 C   0  0  0  0  0  0
  -17.6457  -30.6568   24.0580 C   0  0  0  0  0  0
  -25.9046  -34.9474   23.5116 C   0  0  0  0  0  0
  -16.5350  -29.9077   23.6315 C   0  0  0  0  0  0
  -16.7273  -28.6503   23.0327 C   0  0  0  0  0  0
  -26.4487  -31.6584   25.0696 C   0  0  0  0  0  0
  -25.3769  -31.3681   26.1449 C   0  0  0  0  0  0
  -27.0312  -30.3033   24.6038 C   0  0  0  0  0  0
  -27.6060  -32.4304   25.7471 C   0  0  0  0  0  0
  -27.5587  -37.1810   24.8467 C   0  0  0  0  0  0
  -21.4140  -29.3048   22.3739 N   0  0  0  0  0  0
  -26.4301  -37.3788   23.9405 N   0  0  0  0  0  0
  -24.6660  -31.0798   22.0982 N   0  0  0  0  0  0
  -23.4186  -28.8194   23.3022 O   0  0  0  0  0  0
  -28.3918  -26.7009   20.0796 O   0  0  0  0  0  0
  -26.5593  -34.8927   22.4667 O   0  0  0  0  0  0
  -23.5341  -32.1440   23.7489 O   0  0  0  0  0  0
  -28.8264  -20.8997   22.2022 C   0  0  0  0  0  0
  -28.2265  -19.7114   21.8444 C   0  0  0  0  0  0
  -26.9691  -21.4103   21.1035 C   0  0  0  0  0  0
  -25.8274  -22.1263   20.4569 C   0  0  0  0  0  0
  -28.1467  -17.9163   23.5652 C   0  0  0  0  0  0
  -28.2850  -24.3170   20.7737 C   0  0  0  0  0  0
  -30.0417  -17.9112   21.8579 C   0  0  0  0  0  0
  -28.2412  -23.3759   22.0058 C   0  0  0  0  0  0
  -30.2908  -16.8930   20.7205 C   0  0  0  0  0  0
  -28.5240  -25.7914   21.1783 C   0  0  0  0  0  0
  -28.5547  -18.2618   22.1258 C   0  0  2  0  0  0
  -28.0358  -21.9300   21.7388 N   0  0  0  0  0  0
  -27.0910  -20.0800   21.1697 N   0  3  0  0  0  0
  -29.9960  -15.4850   21.0460 N   0  0  0  0  0  0
  -31.4646  -12.3718   19.1252 H   0  0  0  0  0  0
  -30.3084  -11.2746   19.8165 H   0  0  0  0  0  0
  -29.7307  -11.7705   17.4277 H   0  0  0  0  0  0
  -29.6850  -13.4796   17.7685 H   0  0  0  0  0  0
  -27.8009  -11.3241   18.7808 H   0  0  0  0  0  0
  -27.3778  -12.6841   17.7771 H   0  0  0  0  0  0
  -27.7129  -14.2576   19.5836 H   0  0  0  0  0  0
  -28.6736  -11.9443   21.3403 H   0  0  0  0  0  0
  -28.4727  -13.5853   21.8768 H   0  0  0  0  0  0
  -25.2751   -9.5700   22.4773 H   0  0  0  0  0  0
  -23.9993   -7.4648   22.7477 H   0  0  0  0  0  0
  -21.0831   -8.8760   19.8973 H   0  0  0  0  0  0
  -22.3674  -10.9665   19.6170 H   0  0  0  0  0  0
  -21.2011   -7.6141   23.9722 H   0  0  0  0  0  0
  -21.1485   -6.0510   25.9075 H   0  0  0  0  0  0
  -22.0609   -2.7604   23.2853 H   0  0  0  0  0  0
  -22.4034  -11.9920   22.4781 H   0  0  0  0  0  0
  -21.1100  -13.1334   22.2559 H   0  0  0  0  0  0
  -24.6635  -15.8377   20.4829 H   0  0  0  0  0  0
  -26.2706  -15.6086   20.0115 H   0  0  0  0  0  0
  -26.7119  -32.5545   23.1146 H   0  0  0  0  0  0
  -25.0121  -33.9780   25.0499 H   0  0  0  0  0  0
  -22.6911  -31.3066   21.4081 H   0  0  0  0  0  0
  -23.3752  -35.9650   23.3313 H   0  0  0  0  0  0
  -24.3591  -36.8905   22.2044 H   0  0  0  0  0  0
  -23.7260  -37.6527   23.6638 H   0  0  0  0  0  0
  -26.0354  -31.5994   20.5883 H   0  0  0  0  0  0
  -26.8181  -30.8948   21.9750 H   0  0  0  0  0  0
  -28.1046  -29.1173   21.1599 H   0  0  0  0  0  0
  -26.0844  -25.9663   19.0258 H   0  0  0  0  0  0
  -23.9849  -27.2823   19.0430 H   0  0  0  0  0  0
  -23.7229  -30.5941   19.4034 H   0  0  0  0  0  0
  -22.7363  -29.2402   19.8667 H   0  0  0  0  0  0
  -25.1296  -36.1963   25.0826 H   0  0  0  0  0  0
  -20.9964  -28.3227   24.1437 H   0  0  0  0  0  0
  -20.5677  -26.2278   23.3602 H   0  0  0  0  0  0
  -21.6659  -26.7452   22.1223 H   0  0  0  0  0  0
  -19.6894  -25.6294   21.1239 H   0  0  0  0  0  0
  -19.6702  -27.3185   20.6742 H   0  0  0  0  0  0
  -17.4209  -26.6655   21.4019 H   0  0  0  0  0  0
  -18.0340  -26.0053   22.9000 H   0  0  0  0  0  0
  -19.7923  -30.7250   24.2300 H   0  0  0  0  0  0
  -17.5005  -31.6237   24.5206 H   0  0  0  0  0  0
  -15.5360  -30.2983   23.7623 H   0  0  0  0  0  0
  -15.8673  -28.0829   22.7012 H   0  0  0  0  0  0
  -24.5941  -30.7023   25.7790 H   0  0  0  0  0  0
  -24.8959  -32.2835   26.4904 H   0  0  0  0  0  0
  -25.8133  -30.8852   27.0195 H   0  0  0  0  0  0
  -26.2832  -29.6794   24.1126 H   0  0  0  0  0  0
  -27.4144  -29.7257   25.4457 H   0  0  0  0  0  0
  -27.8641  -30.4361   23.9129 H   0  0  0  0  0  0
  -27.2671  -33.3585   26.2082 H   0  0  0  0  0  0
  -28.3863  -32.6895   25.0305 H   0  0  0  0  0  0
  -28.0739  -31.8412   26.5362 H   0  0  0  0  0  0
  -28.2609  -38.0102   24.7509 H   0  0  0  0  0  0
  -28.1077  -36.2636   24.6300 H   0  0  0  0  0  0
  -27.2303  -37.1467   25.8868 H   0  0  0  0  0  0
  -20.9295  -29.8817   21.7002 H   0  0  0  0  0  0
  -26.0190  -38.2866   24.1403 H   0  0  0  0  0  0
  -29.7272  -21.0797   22.7746 H   0  0  0  0  0  0
  -25.5886  -23.0234   21.0265 H   0  0  0  0  0  0
  -24.9588  -21.4673   20.4377 H   0  0  0  0  0  0
  -26.1181  -22.3804   19.4367 H   0  0  0  0  0  0
  -27.0833  -18.0925   23.7303 H   0  0  0  0  0  0
  -28.6959  -18.5200   24.2892 H   0  0  0  0  0  0
  -28.3433  -16.8670   23.7887 H   0  0  0  0  0  0
  -27.3539  -24.2641   20.2153 H   0  0  0  0  0  0
  -29.0682  -23.9914   20.0893 H   0  0  0  0  0  0
  -30.5749  -18.8241   21.5899 H   0  0  0  0  0  0
  -30.5350  -17.5671   22.7689 H   0  0  0  0  0  0
  -27.4481  -23.6869   22.6874 H   0  0  0  0  0  0
  -29.1745  -23.4734   22.5633 H   0  0  0  0  0  0
  -31.3317  -17.0027   20.4124 H   0  0  0  0  0  0
  -29.6992  -17.1682   19.8455 H   0  0  0  0  0  0
  -29.5328  -25.8934   21.5783 H   0  0  0  0  0  0
  -27.8535  -26.0654   21.9966 H   0  0  0  0  0  0
  -27.9357  -17.6503   21.4663 H   0  0  0  0  0  0
  -26.4113  -19.4328   20.7855 H   0  0  0  0  0  0
  -29.0819  -15.2674   21.4125 H   0  0  0  0  0  0
  1 25  1  0  0  0
  1 30  2  0  0  0
  1 84  1  0  0  0
  2  3  1  0  0  0
  2 25  1  0  0  0
  2 85  1  0  0  0
  2 86  1  0  0  0
  3  4  1  0  0  0
  3 87  1  0  0  0
  3 88  1  0  0  0
  4  5  1  0  0  0
  4 89  1  0  0  0
  4 90  1  0  0  0
  5  6  1  0  0  0
  5 26  1  0  0  0
  5 91  1  0  0  0
  6 25  1  0  0  0
  6 92  1  0  0  0
  6 93  1  0  0  0
  7  8  2  0  0  0
  7 26  1  0  0  0
  7 29  1  0  0  0
  8  9  1  0  0  0
  8 22  1  0  0  0
  9 10  1  0  0  0
  9 27  2  0  0  0
 10 11  2  0  0  0
 10 15  1  0  0  0
 11 12  1  0  0  0
 11 94  1  0  0  0
 12 13  2  0  0  0
 12 95  1  0  0  0
 13 14  1  0  0  0
 13 31  1  0  0  0
 14 15  2  0  0  0
 14 96  1  0  0  0
 15 97  1  0  0  0
 16 17  2  0  0  0
 16 21  1  0  0  0
 16 31  1  0  0  0
 17 18  1  0  0  0
 17 98  1  0  0  0
 18 19  2  0  0  0
 18 99  1  0  0  0
 19 20  1  0  0  0
 19 24  1  0  0  0
 20 21  2  0  0  0
 20100  1  0  0  0
 21 23  1  0  0  0
 22 28  1  0  0  0
 22 32  2  0  0  0
 26 27  1  0  0  0
 28101  1  0  0  0
 28102  1  0  0  0
 29103  1  0  0  0
 29104  1  0  0  0
 33 34  1  0  0  0
 33 66  1  0  0  0
 33 70  2  0  0  0
 34 36  1  0  0  0
 34 59  1  0  0  0
 34105  1  0  0  0
 35 44  2  0  0  0
 35 45  1  0  0  0
 35 68  1  0  0  0
 36 56  1  0  0  0
 36106  1  0  0  0
 37 39  1  0  0  0
 37 47  1  0  0  0
 37 66  1  0  0  0
 37107  1  0  0  0
 38 43  2  0  0  0
 38 46  1  0  0  0
 38 47  1  0  0  0
 39 64  1  0  0  0
 39 67  2  0  0  0
 40 52  1  0  0  0
 40 53  2  0  0  0
 40 58  1  0  0  0
 41108  1  0  0  0
 41109  1  0  0  0
 41110  1  0  0  0
 41 48  1  0  0  0
 42 43  1  0  0  0
 42 66  1  0  0  0
 42111  1  0  0  0
 42112  1  0  0  0
 43 44  1  0  0  0
 44113  1  0  0  0
 45 46  2  0  0  0
 45114  1  0  0  0
 46115  1  0  0  0
 47116  1  0  0  0
 47117  1  0  0  0
 48 56  1  0  0  0
 48 65  1  0  0  0
 48118  1  0  0  0
 49 50  1  0  0  0
 49 53  1  0  0  0
 49 64  1  0  0  0
 49119  1  0  0  0
 50 51  1  0  0  0
 50120  1  0  0  0
 50121  1  0  0  0
 51 52  1  0  0  0
 51122  1  0  0  0
 51123  1  0  0  0
 52124  1  0  0  0
 52125  1  0  0  0
 53 54  1  0  0  0
 54 55  2  0  0  0
 54126  1  0  0  0
 55 57  1  0  0  0
 55127  1  0  0  0
 56 69  2  0  0  0
 57 58  2  0  0  0
 57128  1  0  0  0
 58129  1  0  0  0
 59 60  1  0  0  0
 59 61  1  0  0  0
 59 62  1  0  0  0
 60130  1  0  0  0
 60131  1  0  0  0
 60132  1  0  0  0
 61133  1  0  0  0
 61134  1  0  0  0
 61135  1  0  0  0
 62136  1  0  0  0
 62137  1  0  0  0
 62138  1  0  0  0
 63 65  1  0  0  0
 63139  1  0  0  0
 63140  1  0  0  0
 63141  1  0  0  0
 64142  1  0  0  0
 65143  1  0  0  0
 68 80  1  0  0  0
 71 72  2  0  0  0
 71 82  1  0  0  0
 71144  1  0  0  0
 72 81  1  0  0  0
 72 83  1  0  0  0
 73 74  1  0  0  0
 73 82  1  0  0  0
 73 83  2  0  0  0
 74145  1  0  0  0
 74146  1  0  0  0
 74147  1  0  0  0
 75148  1  0  0  0
 75149  1  0  0  0
 75150  1  0  0  0
 75 81  1  0  0  0
 76 78  1  0  0  0
 76 80  1  0  0  0
 76151  1  0  0  0
 76152  1  0  0  0
 77 79  1  0  0  0
 77 81  1  0  0  0
 77153  1  0  0  0
 77154  1  0  0  0
 78 82  1  0  0  0
 78155  1  0  0  0
 78156  1  0  0  0
 79 84  1  0  0  0
 79157  1  0  0  0
 79158  1  0  0  0
 80159  1  0  0  0
 80160  1  0  0  0
 81161  1  0  0  0
 83162  1  0  0  0
 84163  1  0  0  0
M  CHG  1  83   1
M  ISO  4   1 100  68 101  80 101  84 100
M  END
> <chiral flag>
0

> <version>
0

> <s_m_source_file>
/data/baiqing/PycharmProjects/Reinvent-master-3.2/result/LINK_invent/BTK/process_docking_weight1_custom_sum_contain_oxygen_bond_distance_aromatic_linkinvent_7_9_3/rearranged_h_0080.sdf

> <i_m_source_file_index>
65

> <r_mmod_Potential_Energy-OPLS-2005>
-108.723457336426

> <r_mmod_Stretch_Energy-OPLS-2005>
35.0825576782227

> <r_mmod_Bend_Energy-OPLS-2005>
95.0917816162109

> <r_mmod_Torsional_Energy-OPLS-2005>
267.544738769531

> <r_mmod_Improper_Torsional_Energy-OPLS-2005>
6.3402624130249

> <r_mmod_Van_der_Waal_Energy-OPLS-2005>
123.334754943848

> <r_mmod_Electrostatic_Energy-OPLS-2005>
-221.140884399414

> <r_mmod_Solvation_Energy-OPLS-2005>
-425.596069335938

> <b_mmod_Minimization_Converged-OPLS-2005>
0

> <r_mmod_RMS_Derivative-OPLS-2005>
2.20680403709412

$$$$
67
                    3D
 Structure written by MMmdl.
164172  0  0  1  0            999 V2000
  -30.6122  -14.4383   20.4866 C   0  0  0  0  0  0
  -30.4194  -12.2659   19.3979 C   0  0  0  0  0  0
  -29.4695  -12.4420   18.1916 C   0  0  0  0  0  0
  -27.9865  -12.3151   18.6020 C   0  0  0  0  0  0
  -27.6333  -13.1678   19.8406 C   0  0  2  0  0  0
  -28.6809  -12.9407   20.9502 C   0  0  0  0  0  0
  -25.2570  -13.7927   20.5724 C   0  0  0  0  0  0
  -24.1784  -13.0335   20.9190 C   0  0  0  0  0  0
  -24.6285  -11.6741   20.8732 C   0  0  0  0  0  0
  -23.8933  -10.4221   21.0406 C   0  0  0  0  0  0
  -24.3544   -9.4166   21.9189 C   0  0  0  0  0  0
  -23.6265   -8.2182   22.0742 C   0  0  0  0  0  0
  -22.4256   -8.0225   21.3531 C   0  0  0  0  0  0
  -21.9849   -9.0168   20.4617 C   0  0  0  0  0  0
  -22.7124  -10.2066   20.3042 C   0  0  0  0  0  0
  -21.6842   -6.0740   22.5285 C   0  0  0  0  0  0
  -21.3989   -6.5645   23.8198 C   0  0  0  0  0  0
  -21.3639   -5.6802   24.9164 C   0  0  0  0  0  0
  -21.6026   -4.3058   24.7208 C   0  0  0  0  0  0
  -21.8823   -3.8155   23.4327 C   0  0  0  0  0  0
  -21.9199   -4.6981   22.3386 C   0  0  0  0  0  0
  -22.7881  -13.5188   21.1907 C   0  0  0  0  0  0
  -22.1692   -4.2171   21.0968 F   0  0  0  0  0  0
  -21.5633   -3.4545   25.7720 F   0  0  0  0  0  0
  -30.0143  -13.2365   20.3954 N   0  0  0  0  0  0
  -26.2883  -12.9009   20.3181 N   0  0  0  0  0  0
  -25.9171  -11.6235   20.5704 N   0  0  0  0  0  0
  -22.0492  -12.8200   22.0402 N   0  0  0  0  0  0
  -25.4406  -15.1662   20.4431 N   0  0  0  0  0  0
  -31.8197  -14.6567   20.3137 O   0  0  0  0  0  0
  -21.6598   -6.8867   21.4237 O   0  0  0  0  0  0
  -22.3574  -14.5552   20.6739 O   0  0  0  0  0  0
  -24.6112  -31.8735   23.2134 C   0  0  0  0  0  0
  -25.9072  -32.4852   23.8414 C   0  0  1  0  0  0
  -27.2348  -27.4959   20.0738 C   0  0  0  0  0  0
  -25.5939  -33.8621   24.2348 N   0  0  0  0  0  0
  -23.3897  -30.5071   21.5572 C   0  0  2  0  0  0
  -24.8381  -28.9699   20.1237 C   0  0  0  0  0  0
  -22.7283  -29.4801   22.5026 C   0  0  0  0  0  0
  -18.0264  -28.1301   22.8418 C   0  0  0  0  0  0
  -24.1527  -36.7276   23.2609 C   0  0  0  0  0  0
  -25.9186  -30.8559   21.3635 C   0  0  0  0  0  0
  -25.9976  -29.4980   20.7045 C   0  0  0  0  0  0
  -27.2050  -28.7741   20.6736 C   0  0  0  0  0  0
  -26.0658  -26.9547   19.5199 C   0  0  0  0  0  0
  -24.8580  -27.6884   19.5381 C   0  0  0  0  0  0
  -23.6008  -29.8443   20.1742 C   0  0  0  0  0  0
  -25.4152  -36.3081   24.0315 C   0  0  1  0  0  0
  -20.5807  -28.3821   23.1474 C   0  0  2  0  0  0
  -20.6919  -26.9738   22.5237 C   0  0  0  0  0  0
  -19.5978  -26.7034   21.4844 C   0  0  0  0  0  0
  -18.2198  -26.7993   22.1368 C   0  0  0  0  0  0
  -19.1418  -28.8856   23.2933 C   0  0  0  0  0  0
  -18.9232  -30.1367   23.9142 C   0  0  0  0  0  0
  -17.6145  -30.6357   24.0781 C   0  0  0  0  0  0
  -25.9074  -34.9464   23.5098 C   0  0  0  0  0  0
  -16.5138  -29.8748   23.6387 C   0  0  0  0  0  0
  -16.7196  -28.6271   23.0269 C   0  0  0  0  0  0
  -26.4565  -31.6586   25.0716 C   0  0  0  0  0  0
  -25.3843  -31.3649   26.1443 C   0  0  0  0  0  0
  -27.0422  -30.3021   24.6115 C   0  0  0  0  0  0
  -27.6151  -32.4303   25.7522 C   0  0  0  0  0  0
  -27.5584  -37.1808   24.8482 C   0  0  0  0  0  0
  -21.3979  -29.3454   22.4124 N   0  0  0  0  0  0
  -26.4301  -37.3789   23.9427 N   0  0  0  0  0  0
  -24.6596  -31.0898   22.1042 N   0  0  0  0  0  0
  -23.4139  -28.8046   23.2760 O   0  0  0  0  0  0
  -28.4137  -26.7908   20.0323 O   0  0  0  0  0  0
  -26.5619  -34.8903   22.4641 O   0  0  0  0  0  0
  -23.5315  -32.1427   23.7542 O   0  0  0  0  0  0
  -27.5948  -20.9165   21.5816 C   0  0  0  0  0  0
  -25.6579  -21.0761   19.6326 C   0  0  0  0  0  0
  -27.0717  -19.7125   21.0725 C   0  0  0  0  0  0
  -26.1124  -19.8010   20.0335 C   0  0  0  0  0  0
  -27.1163  -22.1439   21.0713 C   0  0  0  0  0  0
  -25.5462  -18.5800   19.3354 C   0  0  0  0  0  0
  -27.9403  -18.4254   23.1501 C   0  0  0  0  0  0
  -27.6109  -23.4890   21.5842 C   0  0  0  0  0  0
  -28.2472  -24.3848   20.5017 C   0  0  0  0  0  0
  -28.4991  -17.5976   20.7089 C   0  0  0  0  0  0
  -29.7697  -16.7465   21.0786 C   0  0  0  0  0  0
  -28.5336  -25.7970   21.0401 C   0  0  0  0  0  0
  -27.4977  -18.3571   21.6575 C   0  0  2  0  0  0
  -26.1405  -22.2202   20.1471 N   0  0  0  0  0  0
  -29.6821  -15.3924   20.5519 N   0  0  0  0  0  0
  -31.4608  -12.3981   19.0964 H   0  0  0  0  0  0
  -30.3317  -11.2643   19.8260 H   0  0  0  0  0  0
  -29.7042  -11.6829   17.4481 H   0  0  0  0  0  0
  -29.6242  -13.4084   17.7071 H   0  0  0  0  0  0
  -27.7843  -11.2650   18.8045 H   0  0  0  0  0  0
  -27.3350  -12.5737   17.7658 H   0  0  0  0  0  0
  -27.6498  -14.2023   19.5046 H   0  0  0  0  0  0
  -28.6473  -11.9037   21.2864 H   0  0  0  0  0  0
  -28.4561  -13.5551   21.8233 H   0  0  0  0  0  0
  -25.2697   -9.5678   22.4744 H   0  0  0  0  0  0
  -23.9991   -7.4568   22.7461 H   0  0  0  0  0  0
  -21.0773   -8.8612   19.8941 H   0  0  0  0  0  0
  -22.3542  -10.9591   19.6145 H   0  0  0  0  0  0
  -21.1943   -7.6145   23.9694 H   0  0  0  0  0  0
  -21.1479   -6.0536   25.9059 H   0  0  0  0  0  0
  -22.0627   -2.7622   23.2789 H   0  0  0  0  0  0
  -22.4161  -11.9894   22.4794 H   0  0  0  0  0  0
  -21.1115  -13.1193   22.2581 H   0  0  0  0  0  0
  -24.6897  -15.8197   20.6436 H   0  0  0  0  0  0
  -26.3084  -15.6156   20.1904 H   0  0  0  0  0  0
  -26.7099  -32.5614   23.1101 H   0  0  0  0  0  0
  -25.0355  -33.9892   25.0670 H   0  0  0  0  0  0
  -22.6949  -31.3382   21.4254 H   0  0  0  0  0  0
  -23.3793  -35.9600   23.3322 H   0  0  0  0  0  0
  -24.3597  -36.8875   22.2012 H   0  0  0  0  0  0
  -23.7322  -37.6482   23.6646 H   0  0  0  0  0  0
  -26.0568  -31.6392   20.6160 H   0  0  0  0  0  0
  -26.7922  -30.8822   21.9999 H   0  0  0  0  0  0
  -28.1099  -29.1843   21.0919 H   0  0  0  0  0  0
  -26.0877  -25.9641   19.0859 H   0  0  0  0  0  0
  -23.9595  -27.2614   19.1163 H   0  0  0  0  0  0
  -23.7290  -30.6404   19.4378 H   0  0  0  0  0  0
  -22.7236  -29.2858   19.8513 H   0  0  0  0  0  0
  -25.1352  -36.1919   25.0816 H   0  0  0  0  0  0
  -20.9773  -28.3228   24.1626 H   0  0  0  0  0  0
  -20.6130  -26.2317   23.3209 H   0  0  0  0  0  0
  -21.6812  -26.8131   22.0934 H   0  0  0  0  0  0
  -19.7387  -25.7202   21.0319 H   0  0  0  0  0  0
  -19.6692  -27.4531   20.6878 H   0  0  0  0  0  0
  -17.4337  -26.6418   21.3978 H   0  0  0  0  0  0
  -18.1108  -25.9914   22.8569 H   0  0  0  0  0  0
  -19.7705  -30.7027   24.2872 H   0  0  0  0  0  0
  -17.4543  -31.5801   24.5793 H   0  0  0  0  0  0
  -15.5017  -30.2244   23.7785 H   0  0  0  0  0  0
  -15.8756  -28.0499   22.6924 H   0  0  0  0  0  0
  -24.5982  -30.7072   25.7689 H   0  0  0  0  0  0
  -24.9070  -32.2810   26.4961 H   0  0  0  0  0  0
  -25.8125  -30.8693   27.0169 H   0  0  0  0  0  0
  -26.2950  -29.6690   24.1268 H   0  0  0  0  0  0
  -27.4322  -29.7338   25.4593 H   0  0  0  0  0  0
  -27.8752  -30.4385   23.9187 H   0  0  0  0  0  0
  -27.2789  -33.3566   26.2203 H   0  0  0  0  0  0
  -28.3920  -32.6919   25.0326 H   0  0  0  0  0  0
  -28.0887  -31.8377   26.5373 H   0  0  0  0  0  0
  -28.2589  -38.0102   24.7504 H   0  0  0  0  0  0
  -28.1097  -36.2639   24.6363 H   0  0  0  0  0  0
  -27.2284  -37.1479   25.8869 H   0  0  0  0  0  0
  -20.8850  -30.0010   21.8377 H   0  0  0  0  0  0
  -26.0159  -38.2844   24.1439 H   0  0  0  0  0  0
  -28.3265  -20.8947   22.3769 H   0  0  0  0  0  0
  -24.8761  -21.1832   18.8956 H   0  0  0  0  0  0
  -24.6336  -18.8424   18.8076 H   0  0  0  0  0  0
  -25.2766  -17.7953   20.0307 H   0  0  0  0  0  0
  -26.2534  -18.1945   18.6003 H   0  0  0  0  0  0
  -27.3518  -19.1604   23.6955 H   0  0  0  0  0  0
  -28.9923  -18.6661   23.2819 H   0  0  0  0  0  0
  -27.7825  -17.4702   23.6578 H   0  0  0  0  0  0
  -28.2887  -23.3672   22.4280 H   0  0  0  0  0  0
  -26.7436  -24.0168   21.9760 H   0  0  0  0  0  0
  -27.5709  -24.4340   19.6545 H   0  0  0  0  0  0
  -29.1530  -23.9327   20.0961 H   0  0  0  0  0  0
  -29.1413  -18.4276   20.9788 H   0  0  0  0  0  0
  -28.0041  -16.7749   21.2064 H   0  0  0  0  0  0
  -29.8401  -16.5579   22.1473 H   0  0  0  0  0  0
  -30.7088  -17.2210   20.7905 H   0  0  0  0  0  0
  -27.8860  -26.0454   21.8817 H   0  0  0  0  0  0
  -29.5438  -25.8298   21.4431 H   0  0  0  0  0  0
  -26.5451  -17.8153   21.7125 H   0  0  0  0  0  0
  -28.7540  -14.9966   20.5505 H   0  0  0  0  0  0
  1 25  1  0  0  0
  1 30  2  0  0  0
  1 85  1  0  0  0
  2  3  1  0  0  0
  2 25  1  0  0  0
  2 86  1  0  0  0
  2 87  1  0  0  0
  3  4  1  0  0  0
  3 88  1  0  0  0
  3 89  1  0  0  0
  4  5  1  0  0  0
  4 90  1  0  0  0
  4 91  1  0  0  0
  5  6  1  0  0  0
  5 26  1  0  0  0
  5 92  1  0  0  0
  6 25  1  0  0  0
  6 93  1  0  0  0
  6 94  1  0  0  0
  7  8  2  0  0  0
  7 26  1  0  0  0
  7 29  1  0  0  0
  8  9  1  0  0  0
  8 22  1  0  0  0
  9 10  1  0  0  0
  9 27  2  0  0  0
 10 11  2  0  0  0
 10 15  1  0  0  0
 11 12  1  0  0  0
 11 95  1  0  0  0
 12 13  2  0  0  0
 12 96  1  0  0  0
 13 14  1  0  0  0
 13 31  1  0  0  0
 14 15  2  0  0  0
 14 97  1  0  0  0
 15 98  1  0  0  0
 16 17  2  0  0  0
 16 21  1  0  0  0
 16 31  1  0  0  0
 17 18  1  0  0  0
 17 99  1  0  0  0
 18 19  2  0  0  0
 18100  1  0  0  0
 19 20  1  0  0  0
 19 24  1  0  0  0
 20 21  2  0  0  0
 20101  1  0  0  0
 21 23  1  0  0  0
 22 28  1  0  0  0
 22 32  2  0  0  0
 26 27  1  0  0  0
 28102  1  0  0  0
 28103  1  0  0  0
 29104  1  0  0  0
 29105  1  0  0  0
 33 34  1  0  0  0
 33 66  1  0  0  0
 33 70  2  0  0  0
 34 36  1  0  0  0
 34 59  1  0  0  0
 34106  1  0  0  0
 35 44  2  0  0  0
 35 45  1  0  0  0
 35 68  1  0  0  0
 36 56  1  0  0  0
 36107  1  0  0  0
 37 39  1  0  0  0
 37 47  1  0  0  0
 37 66  1  0  0  0
 37108  1  0  0  0
 38 43  2  0  0  0
 38 46  1  0  0  0
 38 47  1  0  0  0
 39 64  1  0  0  0
 39 67  2  0  0  0
 40 52  1  0  0  0
 40 53  2  0  0  0
 40 58  1  0  0  0
 41109  1  0  0  0
 41110  1  0  0  0
 41111  1  0  0  0
 41 48  1  0  0  0
 42 43  1  0  0  0
 42 66  1  0  0  0
 42112  1  0  0  0
 42113  1  0  0  0
 43 44  1  0  0  0
 44114  1  0  0  0
 45 46  2  0  0  0
 45115  1  0  0  0
 46116  1  0  0  0
 47117  1  0  0  0
 47118  1  0  0  0
 48 56  1  0  0  0
 48 65  1  0  0  0
 48119  1  0  0  0
 49 50  1  0  0  0
 49 53  1  0  0  0
 49 64  1  0  0  0
 49120  1  0  0  0
 50 51  1  0  0  0
 50121  1  0  0  0
 50122  1  0  0  0
 51 52  1  0  0  0
 51123  1  0  0  0
 51124  1  0  0  0
 52125  1  0  0  0
 52126  1  0  0  0
 53 54  1  0  0  0
 54 55  2  0  0  0
 54127  1  0  0  0
 55 57  1  0  0  0
 55128  1  0  0  0
 56 69  2  0  0  0
 57 58  2  0  0  0
 57129  1  0  0  0
 58130  1  0  0  0
 59 60  1  0  0  0
 59 61  1  0  0  0
 59 62  1  0  0  0
 60131  1  0  0  0
 60132  1  0  0  0
 60133  1  0  0  0
 61134  1  0  0  0
 61135  1  0  0  0
 61136  1  0  0  0
 62137  1  0  0  0
 62138  1  0  0  0
 62139  1  0  0  0
 63 65  1  0  0  0
 63140  1  0  0  0
 63141  1  0  0  0
 63142  1  0  0  0
 64143  1  0  0  0
 65144  1  0  0  0
 68 82  1  0  0  0
 71 73  2  0  0  0
 71 75  1  0  0  0
 71145  1  0  0  0
 72 74  2  0  0  0
 72 84  1  0  0  0
 72146  1  0  0  0
 73 74  1  0  0  0
 73 83  1  0  0  0
 74 76  1  0  0  0
 75 78  1  0  0  0
 75 84  2  0  0  0
 76147  1  0  0  0
 76148  1  0  0  0
 76149  1  0  0  0
 77150  1  0  0  0
 77151  1  0  0  0
 77152  1  0  0  0
 77 83  1  0  0  0
 78 79  1  0  0  0
 78153  1  0  0  0
 78154  1  0  0  0
 79 82  1  0  0  0
 79155  1  0  0  0
 79156  1  0  0  0
 80 81  1  0  0  0
 80 83  1  0  0  0
 80157  1  0  0  0
 80158  1  0  0  0
 81 85  1  0  0  0
 81159  1  0  0  0
 81160  1  0  0  0
 82161  1  0  0  0
 82162  1  0  0  0
 83163  1  0  0  0
 85164  1  0  0  0
M  ISO  4   1 100  68 101  82 101  85 100
M  END
> <chiral flag>
0

> <version>
0

> <s_m_source_file>
/data/baiqing/PycharmProjects/Reinvent-master-3.2/result/LINK_invent/BTK/process_docking_weight1_custom_sum_contain_oxygen_bond_distance_aromatic_linkinvent_7_9_3/rearranged_h_0080.sdf

> <i_m_source_file_index>
66

> <r_mmod_Potential_Energy-OPLS-2005>
67.5888977050781

> <r_mmod_Stretch_Energy-OPLS-2005>
35.4696273803711

> <r_mmod_Bend_Energy-OPLS-2005>
326.88671875

> <r_mmod_Torsional_Energy-OPLS-2005>
268.844482421875

> <r_mmod_Improper_Torsional_Energy-OPLS-2005>
6.75374603271484

> <r_mmod_Van_der_Waal_Energy-OPLS-2005>
184.328079223633

> <r_mmod_Electrostatic_Energy-OPLS-2005>
-560.266784667969

> <r_mmod_Solvation_Energy-OPLS-2005>
-219.300964355469

> <b_mmod_Minimization_Converged-OPLS-2005>
0

> <r_mmod_RMS_Derivative-OPLS-2005>
14.9181509017944

$$$$
68
                    3D
 Structure written by MMmdl.
159167  0  0  1  0            999 V2000
  -30.6781  -14.5561   20.4392 C   0  0  0  0  0  0
  -30.4201  -12.3225   19.4528 C   0  0  0  0  0  0
  -29.5026  -12.4735   18.2217 C   0  0  0  0  0  0
  -28.0239  -12.3328   18.6324 C   0  0  0  0  0  0
  -27.6523  -13.2136   19.8558 C   0  0  2  0  0  0
  -28.6975  -13.0877   20.9880 C   0  0  0  0  0  0
  -25.2564  -13.8187   20.5686 C   0  0  0  0  0  0
  -24.1830  -13.0446   20.9208 C   0  0  0  0  0  0
  -24.6388  -11.6909   20.8758 C   0  0  0  0  0  0
  -23.9056  -10.4299   21.0425 C   0  0  0  0  0  0
  -24.3615   -9.4215   21.9191 C   0  0  0  0  0  0
  -23.6294   -8.2249   22.0751 C   0  0  0  0  0  0
  -22.4275   -8.0296   21.3549 C   0  0  0  0  0  0
  -21.9913   -9.0267   20.4653 C   0  0  0  0  0  0
  -22.7235  -10.2142   20.3069 C   0  0  0  0  0  0
  -21.6854   -6.0749   22.5282 C   0  0  0  0  0  0
  -21.4012   -6.5654   23.8217 C   0  0  0  0  0  0
  -21.3658   -5.6799   24.9178 C   0  0  0  0  0  0
  -21.6038   -4.3060   24.7230 C   0  0  0  0  0  0
  -21.8807   -3.8164   23.4346 C   0  0  0  0  0  0
  -21.9186   -4.6978   22.3406 C   0  0  0  0  0  0
  -22.7844  -13.5237   21.1868 C   0  0  0  0  0  0
  -22.1652   -4.2169   21.0983 F   0  0  0  0  0  0
  -21.5629   -3.4530   25.7739 F   0  0  0  0  0  0
  -30.0233  -13.3618   20.4149 N   0  0  0  0  0  0
  -26.2998  -12.9350   20.3302 N   0  0  0  0  0  0
  -25.9321  -11.6508   20.5753 N   0  0  0  0  0  0
  -22.0486  -12.8242   22.0437 N   0  0  0  0  0  0
  -25.4283  -15.1911   20.4131 N   0  0  0  0  0  0
  -31.8691  -14.6637   20.1429 O   0  0  0  0  0  0
  -21.6635   -6.8891   21.4248 O   0  0  0  0  0  0
  -22.3546  -14.5546   20.6715 O   0  0  0  0  0  0
  -24.6206  -31.8603   23.2028 C   0  0  0  0  0  0
  -25.9069  -32.4789   23.8334 C   0  0  1  0  0  0
  -27.2386  -27.3703   20.0992 C   0  0  0  0  0  0
  -25.5907  -33.8589   24.2267 N   0  0  0  0  0  0
  -23.4108  -30.4808   21.5453 C   0  0  2  0  0  0
  -24.8570  -28.9352   20.1121 C   0  0  0  0  0  0
  -22.7438  -29.4625   22.4975 C   0  0  0  0  0  0
  -18.0266  -28.1385   22.8493 C   0  0  0  0  0  0
  -24.1483  -36.7301   23.2636 C   0  0  0  0  0  0
  -25.9447  -30.8063   21.3618 C   0  0  0  0  0  0
  -26.0191  -29.4339   20.7115 C   0  0  0  0  0  0
  -27.2079  -28.6585   20.7018 C   0  0  0  0  0  0
  -26.0563  -26.9043   19.4842 C   0  0  0  0  0  0
  -24.8743  -27.6712   19.4939 C   0  0  0  0  0  0
  -23.6214  -29.8059   20.1628 C   0  0  0  0  0  0
  -25.4107  -36.3087   24.0322 C   0  0  1  0  0  0
  -20.5868  -28.3678   23.1311 C   0  0  2  0  0  0
  -20.6779  -26.9405   22.5412 C   0  0  0  0  0  0
  -19.5737  -26.6365   21.5231 C   0  0  0  0  0  0
  -18.1922  -26.7918   22.1651 C   0  0  0  0  0  0
  -19.1523  -28.8842   23.2889 C   0  0  0  0  0  0
  -18.9446  -30.1460   23.8884 C   0  0  0  0  0  0
  -17.6446  -30.6586   24.0558 C   0  0  0  0  0  0
  -25.9050  -34.9465   23.5098 C   0  0  0  0  0  0
  -16.5336  -29.9088   23.6324 C   0  0  0  0  0  0
  -16.7262  -28.6508   23.0345 C   0  0  0  0  0  0
  -26.4477  -31.6585   25.0683 C   0  0  0  0  0  0
  -25.3739  -31.3710   26.1424 C   0  0  0  0  0  0
  -27.0304  -30.3022   24.6086 C   0  0  0  0  0  0
  -27.6038  -32.4312   25.7464 C   0  0  0  0  0  0
  -27.5574  -37.1804   24.8470 C   0  0  0  0  0  0
  -21.4165  -29.3040   22.3719 N   0  0  0  0  0  0
  -26.4293  -37.3778   23.9412 N   0  0  0  0  0  0
  -24.6773  -31.0657   22.0942 N   0  0  0  0  0  0
  -23.4186  -28.8166   23.3045 O   0  0  0  0  0  0
  -28.4161  -26.6279   20.1422 O   0  0  0  0  0  0
  -26.5617  -34.8927   22.4662 O   0  0  0  0  0  0
  -23.5384  -32.1387   23.7395 O   0  0  0  0  0  0
  -27.6077  -18.9586   22.0364 C   0  0  0  0  0  0
  -28.3519  -17.8944   21.5013 C   0  0  0  0  0  0
  -27.8717  -20.2668   21.5966 C   0  0  0  0  0  0
  -29.3592  -18.1682   20.5574 C   0  0  0  0  0  0
  -28.8658  -20.4890   20.6290 C   0  0  0  0  0  0
  -30.1920  -17.0179   18.4478 C   0  0  0  0  0  0
  -26.7151  -23.6889   20.7478 C   0  0  0  0  0  0
  -28.5152  -25.2331   19.7105 C   0  0  0  0  0  0
  -29.1707  -22.9073   20.9564 C   0  0  0  0  0  0
  -30.2344  -17.0160   19.9922 C   0  0  2  0  0  0
  -28.1824  -24.1366   20.7913 C   0  0  2  0  0  0
  -29.6027  -19.4494   20.1314 N   0  0  0  0  0  0
  -29.8846  -15.6520   20.4793 N   0  0  0  0  0  0
  -29.0966  -21.7506   20.0738 O   0  0  0  0  0  0
  -31.4669  -12.4053   19.1557 H   0  0  0  0  0  0
  -30.3130  -11.3320   19.9000 H   0  0  0  0  0  0
  -29.7558  -11.7239   17.4710 H   0  0  0  0  0  0
  -29.6641  -13.4462   17.7541 H   0  0  0  0  0  0
  -27.8507  -11.2826   18.8691 H   0  0  0  0  0  0
  -27.3707  -12.5635   17.7888 H   0  0  0  0  0  0
  -27.6634  -14.2431   19.4994 H   0  0  0  0  0  0
  -28.6777  -12.0868   21.4257 H   0  0  0  0  0  0
  -28.4706  -13.7795   21.8025 H   0  0  0  0  0  0
  -25.2759   -9.5679   22.4756 H   0  0  0  0  0  0
  -24.0008   -7.4637   22.7465 H   0  0  0  0  0  0
  -21.0835   -8.8786   19.8957 H   0  0  0  0  0  0
  -22.3703  -10.9679   19.6182 H   0  0  0  0  0  0
  -21.2004   -7.6156   23.9732 H   0  0  0  0  0  0
  -21.1489   -6.0528   25.9080 H   0  0  0  0  0  0
  -22.0586   -2.7628   23.2835 H   0  0  0  0  0  0
  -22.4096  -11.9911   22.4829 H   0  0  0  0  0  0
  -21.1117  -13.1288   22.2654 H   0  0  0  0  0  0
  -24.6588  -15.8402   20.5384 H   0  0  0  0  0  0
  -26.2676  -15.6386   20.0721 H   0  0  0  0  0  0
  -26.7136  -32.5469   23.1086 H   0  0  0  0  0  0
  -25.0054  -33.9729   25.0407 H   0  0  0  0  0  0
  -22.7019  -31.2975   21.3995 H   0  0  0  0  0  0
  -23.3739  -35.9650   23.3330 H   0  0  0  0  0  0
  -24.3578  -36.8896   22.2053 H   0  0  0  0  0  0
  -23.7251  -37.6513   23.6642 H   0  0  0  0  0  0
  -26.0567  -31.5634   20.5848 H   0  0  0  0  0  0
  -26.8332  -30.8668   21.9795 H   0  0  0  0  0  0
  -28.1047  -29.0387   21.1723 H   0  0  0  0  0  0
  -26.0193  -25.9429   18.9960 H   0  0  0  0  0  0
  -23.9819  -27.2810   19.0269 H   0  0  0  0  0  0
  -23.7325  -30.5747   19.3974 H   0  0  0  0  0  0
  -22.7456  -29.2261   19.8682 H   0  0  0  0  0  0
  -25.1291  -36.1942   25.0817 H   0  0  0  0  0  0
  -20.9956  -28.3248   24.1431 H   0  0  0  0  0  0
  -20.5733  -26.2268   23.3602 H   0  0  0  0  0  0
  -21.6648  -26.7465   22.1181 H   0  0  0  0  0  0
  -19.6892  -25.6267   21.1275 H   0  0  0  0  0  0
  -19.6675  -27.3159   20.6750 H   0  0  0  0  0  0
  -17.4183  -26.6643   21.4067 H   0  0  0  0  0  0
  -18.0338  -26.0075   22.9063 H   0  0  0  0  0  0
  -19.7916  -30.7297   24.2238 H   0  0  0  0  0  0
  -17.4989  -31.6271   24.5157 H   0  0  0  0  0  0
  -15.5331  -30.2988   23.7642 H   0  0  0  0  0  0
  -15.8659  -28.0836   22.7053 H   0  0  0  0  0  0
  -24.5898  -30.7074   25.7755 H   0  0  0  0  0  0
  -24.8941  -32.2880   26.4860 H   0  0  0  0  0  0
  -25.8083  -30.8876   27.0182 H   0  0  0  0  0  0
  -26.2848  -29.6785   24.1136 H   0  0  0  0  0  0
  -27.4054  -29.7263   25.4553 H   0  0  0  0  0  0
  -27.8693  -30.4326   23.9247 H   0  0  0  0  0  0
  -27.2640  -33.3600   26.2062 H   0  0  0  0  0  0
  -28.3848  -32.6894   25.0302 H   0  0  0  0  0  0
  -28.0705  -31.8423   26.5371 H   0  0  0  0  0  0
  -28.2600  -38.0085   24.7486 H   0  0  0  0  0  0
  -28.1050  -36.2615   24.6330 H   0  0  0  0  0  0
  -27.2293  -37.1505   25.8871 H   0  0  0  0  0  0
  -20.9338  -29.8735   21.6913 H   0  0  0  0  0  0
  -26.0173  -38.2853   24.1413 H   0  0  0  0  0  0
  -26.8317  -18.7720   22.7646 H   0  0  0  0  0  0
  -28.1425  -16.8900   21.8354 H   0  0  0  0  0  0
  -27.2817  -21.0754   21.9915 H   0  0  0  0  0  0
  -30.5304  -17.9738   18.0493 H   0  0  0  0  0  0
  -29.1846  -16.8375   18.0718 H   0  0  0  0  0  0
  -30.8457  -16.2564   18.0227 H   0  0  0  0  0  0
  -26.0373  -24.5372   20.8156 H   0  0  0  0  0  0
  -26.4750  -23.0434   21.5902 H   0  0  0  0  0  0
  -26.4927  -23.1449   19.8305 H   0  0  0  0  0  0
  -27.9897  -25.0529   18.7735 H   0  0  0  0  0  0
  -29.5660  -25.1130   19.4460 H   0  0  0  0  0  0
  -29.1085  -22.5709   21.9926 H   0  0  0  0  0  0
  -30.1921  -23.2803   20.8714 H   0  0  0  0  0  0
  -31.2588  -17.2254   20.3056 H   0  0  0  0  0  0
  -28.3007  -24.6749   21.7330 H   0  0  0  0  0  0
  -28.9109  -15.4954   20.6770 H   0  0  0  0  0  0
  1 25  1  0  0  0
  1 30  2  0  0  0
  1 83  1  0  0  0
  2  3  1  0  0  0
  2 25  1  0  0  0
  2 85  1  0  0  0
  2 86  1  0  0  0
  3  4  1  0  0  0
  3 87  1  0  0  0
  3 88  1  0  0  0
  4  5  1  0  0  0
  4 89  1  0  0  0
  4 90  1  0  0  0
  5  6  1  0  0  0
  5 26  1  0  0  0
  5 91  1  0  0  0
  6 25  1  0  0  0
  6 92  1  0  0  0
  6 93  1  0  0  0
  7  8  2  0  0  0
  7 26  1  0  0  0
  7 29  1  0  0  0
  8  9  1  0  0  0
  8 22  1  0  0  0
  9 10  1  0  0  0
  9 27  2  0  0  0
 10 11  2  0  0  0
 10 15  1  0  0  0
 11 12  1  0  0  0
 11 94  1  0  0  0
 12 13  2  0  0  0
 12 95  1  0  0  0
 13 14  1  0  0  0
 13 31  1  0  0  0
 14 15  2  0  0  0
 14 96  1  0  0  0
 15 97  1  0  0  0
 16 17  2  0  0  0
 16 21  1  0  0  0
 16 31  1  0  0  0
 17 18  1  0  0  0
 17 98  1  0  0  0
 18 19  2  0  0  0
 18 99  1  0  0  0
 19 20  1  0  0  0
 19 24  1  0  0  0
 20 21  2  0  0  0
 20100  1  0  0  0
 21 23  1  0  0  0
 22 28  1  0  0  0
 22 32  2  0  0  0
 26 27  1  0  0  0
 28101  1  0  0  0
 28102  1  0  0  0
 29103  1  0  0  0
 29104  1  0  0  0
 33 34  1  0  0  0
 33 66  1  0  0  0
 33 70  2  0  0  0
 34 36  1  0  0  0
 34 59  1  0  0  0
 34105  1  0  0  0
 35 44  2  0  0  0
 35 45  1  0  0  0
 35 68  1  0  0  0
 36 56  1  0  0  0
 36106  1  0  0  0
 37 39  1  0  0  0
 37 47  1  0  0  0
 37 66  1  0  0  0
 37107  1  0  0  0
 38 43  2  0  0  0
 38 46  1  0  0  0
 38 47  1  0  0  0
 39 64  1  0  0  0
 39 67  2  0  0  0
 40 52  1  0  0  0
 40 53  2  0  0  0
 40 58  1  0  0  0
 41108  1  0  0  0
 41109  1  0  0  0
 41110  1  0  0  0
 41 48  1  0  0  0
 42 43  1  0  0  0
 42 66  1  0  0  0
 42111  1  0  0  0
 42112  1  0  0  0
 43 44  1  0  0  0
 44113  1  0  0  0
 45 46  2  0  0  0
 45114  1  0  0  0
 46115  1  0  0  0
 47116  1  0  0  0
 47117  1  0  0  0
 48 56  1  0  0  0
 48 65  1  0  0  0
 48118  1  0  0  0
 49 50  1  0  0  0
 49 53  1  0  0  0
 49 64  1  0  0  0
 49119  1  0  0  0
 50 51  1  0  0  0
 50120  1  0  0  0
 50121  1  0  0  0
 51 52  1  0  0  0
 51122  1  0  0  0
 51123  1  0  0  0
 52124  1  0  0  0
 52125  1  0  0  0
 53 54  1  0  0  0
 54 55  2  0  0  0
 54126  1  0  0  0
 55 57  1  0  0  0
 55127  1  0  0  0
 56 69  2  0  0  0
 57 58  2  0  0  0
 57128  1  0  0  0
 58129  1  0  0  0
 59 60  1  0  0  0
 59 61  1  0  0  0
 59 62  1  0  0  0
 60130  1  0  0  0
 60131  1  0  0  0
 60132  1  0  0  0
 61133  1  0  0  0
 61134  1  0  0  0
 61135  1  0  0  0
 62136  1  0  0  0
 62137  1  0  0  0
 62138  1  0  0  0
 63 65  1  0  0  0
 63139  1  0  0  0
 63140  1  0  0  0
 63141  1  0  0  0
 64142  1  0  0  0
 65143  1  0  0  0
 68 78  1  0  0  0
 71 72  2  0  0  0
 71 73  1  0  0  0
 71144  1  0  0  0
 72 74  1  0  0  0
 72145  1  0  0  0
 73 75  2  0  0  0
 73146  1  0  0  0
 74 80  1  0  0  0
 74 82  2  0  0  0
 75 82  1  0  0  0
 75 84  1  0  0  0
 76147  1  0  0  0
 76148  1  0  0  0
 76149  1  0  0  0
 76 80  1  0  0  0
 77150  1  0  0  0
 77151  1  0  0  0
 77152  1  0  0  0
 77 81  1  0  0  0
 78 81  1  0  0  0
 78153  1  0  0  0
 78154  1  0  0  0
 79 81  1  0  0  0
 79 84  1  0  0  0
 79155  1  0  0  0
 79156  1  0  0  0
 80 83  1  0  0  0
 80157  1  0  0  0
 81158  1  0  0  0
 83159  1  0  0  0
M  ISO  4   1 100  68 101  78 101  83 100
M  END
> <chiral flag>
0

> <version>
0

> <s_m_source_file>
/data/baiqing/PycharmProjects/Reinvent-master-3.2/result/LINK_invent/BTK/process_docking_weight1_custom_sum_contain_oxygen_bond_distance_aromatic_linkinvent_7_9_3/rearranged_h_0080.sdf

> <i_m_source_file_index>
67

> <r_mmod_Potential_Energy-OPLS-2005>
-276.174530029297

> <r_mmod_Stretch_Energy-OPLS-2005>
57.4029960632324

> <r_mmod_Bend_Energy-OPLS-2005>
136.865768432617

> <r_mmod_Torsional_Energy-OPLS-2005>
218.850997924805

> <r_mmod_Improper_Torsional_Energy-OPLS-2005>
8.97303104400635

> <r_mmod_Van_der_Waal_Energy-OPLS-2005>
146.478240966797

> <r_mmod_Electrostatic_Energy-OPLS-2005>
-660.22412109375

> <r_mmod_Solvation_Energy-OPLS-2005>
-215.891754150391

> <b_mmod_Minimization_Converged-OPLS-2005>
0

> <r_mmod_RMS_Derivative-OPLS-2005>
3.64189219474792

$$$$
69
                    3D
 Structure written by MMmdl.
163171  0  0  1  0            999 V2000
  -30.6170  -14.7570   20.4545 C   0  0  0  0  0  0
  -30.4294  -12.4780   19.4495 C   0  0  0  0  0  0
  -29.4973  -12.5401   18.2173 C   0  0  0  0  0  0
  -28.0243  -12.3582   18.6323 C   0  0  0  0  0  0
  -27.6331  -13.2430   19.8456 C   0  0  2  0  0  0
  -28.6828  -13.1633   20.9736 C   0  0  0  0  0  0
  -25.2452  -13.8218   20.5688 C   0  0  0  0  0  0
  -24.1745  -13.0457   20.9231 C   0  0  0  0  0  0
  -24.6319  -11.6948   20.8657 C   0  0  0  0  0  0
  -23.8984  -10.4317   21.0336 C   0  0  0  0  0  0
  -24.3558   -9.4254   21.9113 C   0  0  0  0  0  0
  -23.6263   -8.2269   22.0720 C   0  0  0  0  0  0
  -22.4246   -8.0262   21.3534 C   0  0  0  0  0  0
  -21.9854   -9.0210   20.4631 C   0  0  0  0  0  0
  -22.7144  -10.2105   20.3025 C   0  0  0  0  0  0
  -21.6902   -6.0675   22.5238 C   0  0  0  0  0  0
  -21.4021   -6.5590   23.8162 C   0  0  0  0  0  0
  -21.3658   -5.6758   24.9149 C   0  0  0  0  0  0
  -21.6076   -4.3016   24.7214 C   0  0  0  0  0  0
  -21.8835   -3.8091   23.4349 C   0  0  0  0  0  0
  -21.9216   -4.6899   22.3394 C   0  0  0  0  0  0
  -22.7766  -13.5216   21.1895 C   0  0  0  0  0  0
  -22.1710   -4.2093   21.0978 F   0  0  0  0  0  0
  -21.5641   -3.4498   25.7726 F   0  0  0  0  0  0
  -29.9828  -13.5368   20.3883 N   0  0  0  0  0  0
  -26.2889  -12.9421   20.3251 N   0  0  0  0  0  0
  -25.9272  -11.6548   20.5673 N   0  0  0  0  0  0
  -22.0440  -12.8152   22.0444 N   0  0  0  0  0  0
  -25.4104  -15.1956   20.4111 N   0  0  0  0  0  0
  -31.8127  -14.8409   20.1582 O   0  0  0  0  0  0
  -21.6701   -6.8809   21.4198 O   0  0  0  0  0  0
  -22.3420  -14.5483   20.6703 O   0  0  0  0  0  0
  -24.6303  -31.8577   23.2005 C   0  0  0  0  0  0
  -25.9100  -32.4786   23.8379 C   0  0  1  0  0  0
  -27.2529  -27.2775   20.1062 C   0  0  0  0  0  0
  -25.5913  -33.8600   24.2297 N   0  0  0  0  0  0
  -23.4330  -30.4736   21.5431 C   0  0  2  0  0  0
  -24.8952  -28.9342   20.1067 C   0  0  0  0  0  0
  -22.7528  -29.4551   22.4921 C   0  0  0  0  0  0
  -18.0285  -28.1400   22.8464 C   0  0  0  0  0  0
  -24.1523  -36.7305   23.2637 C   0  0  0  0  0  0
  -25.9805  -30.7692   21.3929 C   0  0  0  0  0  0
  -26.0601  -29.3911   20.7363 C   0  0  0  0  0  0
  -27.2326  -28.5642   20.7452 C   0  0  0  0  0  0
  -26.0723  -26.9225   19.4137 C   0  0  0  0  0  0
  -24.9067  -27.7070   19.4354 C   0  0  0  0  0  0
  -23.6628  -29.8128   20.1590 C   0  0  0  0  0  0
  -25.4124  -36.3097   24.0351 C   0  0  1  0  0  0
  -20.5906  -28.3686   23.1313 C   0  0  2  0  0  0
  -20.6811  -26.9406   22.5431 C   0  0  0  0  0  0
  -19.5779  -26.6381   21.5248 C   0  0  0  0  0  0
  -18.1946  -26.7934   22.1621 C   0  0  0  0  0  0
  -19.1540  -28.8853   23.2878 C   0  0  0  0  0  0
  -18.9447  -30.1480   23.8870 C   0  0  0  0  0  0
  -17.6438  -30.6587   24.0576 C   0  0  0  0  0  0
  -25.9030  -34.9463   23.5086 C   0  0  0  0  0  0
  -16.5329  -29.9087   23.6352 C   0  0  0  0  0  0
  -16.7264  -28.6539   23.0298 C   0  0  0  0  0  0
  -26.4512  -31.6564   25.0708 C   0  0  0  0  0  0
  -25.3731  -31.3663   26.1402 C   0  0  0  0  0  0
  -27.0391  -30.3001   24.6152 C   0  0  0  0  0  0
  -27.6123  -32.4256   25.7427 C   0  0  0  0  0  0
  -27.5590  -37.1795   24.8436 C   0  0  0  0  0  0
  -21.4227  -29.3019   22.3698 N   0  0  0  0  0  0
  -26.4303  -37.3773   23.9386 N   0  0  0  0  0  0
  -24.6985  -31.0521   22.1026 N   0  0  0  0  0  0
  -23.4204  -28.8088   23.3038 O   0  0  0  0  0  0
  -28.3502  -26.3738   20.1715 O   0  0  0  0  0  0
  -26.5592  -34.8933   22.4658 O   0  0  0  0  0  0
  -23.5431  -32.1395   23.7285 O   0  0  0  0  0  0
  -29.0303  -20.2808   18.1850 C   0  0  0  0  0  0
  -29.2604  -20.9753   19.3407 C   0  0  0  0  0  0
  -28.7065  -22.4146   17.6852 C   0  0  0  0  0  0
  -27.8235  -24.4444   14.4152 C   0  0  0  0  0  0
  -29.7147  -20.1947   20.6057 C   0  0  0  0  0  0
  -28.4102  -23.5669   16.7510 C   0  0  0  0  0  0
  -28.2134  -23.2164   15.2574 C   0  0  0  0  0  0
  -29.3057  -18.6105   20.7000 C   0  0  0  0  0  0
  -29.1755  -23.6981   19.8534 C   0  0  0  0  0  0
  -30.3133  -17.3740   20.3796 C   0  0  0  0  0  0
  -28.2559  -25.0110   19.5378 C   0  0  0  0  0  0
  -29.0232  -22.3728   19.0212 N   0  0  0  0  0  0
  -28.6969  -21.1630   17.2252 N   0  3  0  0  0  0
  -29.8686  -15.9165   20.6083 N   0  0  0  0  0  0
  -31.4613  -12.6240   19.1288 H   0  0  0  0  0  0
  -30.3897  -11.4939   19.9209 H   0  0  0  0  0  0
  -29.7717  -11.7716   17.4957 H   0  0  0  0  0  0
  -29.6174  -13.5012   17.7097 H   0  0  0  0  0  0
  -27.8810  -11.3077   18.8757 H   0  0  0  0  0  0
  -27.3653  -12.5786   17.7884 H   0  0  0  0  0  0
  -27.6169  -14.2700   19.4821 H   0  0  0  0  0  0
  -28.7240  -12.1574   21.3862 H   0  0  0  0  0  0
  -28.4072  -13.8194   21.8007 H   0  0  0  0  0  0
  -25.2708   -9.5799   22.4669 H   0  0  0  0  0  0
  -24.0045   -7.4675   22.7427 H   0  0  0  0  0  0
  -21.0800   -8.8628   19.8925 H   0  0  0  0  0  0
  -22.3504  -10.9604   19.6148 H   0  0  0  0  0  0
  -21.1978   -7.6092   23.9619 H   0  0  0  0  0  0
  -21.1510   -6.0512   25.9033 H   0  0  0  0  0  0
  -22.0614   -2.7561   23.2867 H   0  0  0  0  0  0
  -22.4119  -11.9878   22.4919 H   0  0  0  0  0  0
  -21.1017  -13.1122   22.2562 H   0  0  0  0  0  0
  -24.6446  -15.8513   20.5221 H   0  0  0  0  0  0
  -26.2461  -15.6316   20.0432 H   0  0  0  0  0  0
  -26.7167  -32.5520   23.1156 H   0  0  0  0  0  0
  -25.0160  -33.9782   25.0507 H   0  0  0  0  0  0
  -22.7259  -31.2918   21.3920 H   0  0  0  0  0  0
  -23.3805  -35.9610   23.3250 H   0  0  0  0  0  0
  -24.3627  -36.8960   22.2052 H   0  0  0  0  0  0
  -23.7267  -37.6490   23.6693 H   0  0  0  0  0  0
  -26.1061  -31.5330   20.6252 H   0  0  0  0  0  0
  -26.8621  -30.8332   22.0165 H   0  0  0  0  0  0
  -28.1156  -28.8921   21.2775 H   0  0  0  0  0  0
  -26.0028  -26.0239   18.8277 H   0  0  0  0  0  0
  -24.0336  -27.3605   18.9015 H   0  0  0  0  0  0
  -23.7950  -30.5940   19.4108 H   0  0  0  0  0  0
  -22.7892  -29.2424   19.8387 H   0  0  0  0  0  0
  -25.1328  -36.1952   25.0854 H   0  0  0  0  0  0
  -20.9969  -28.3266   24.1447 H   0  0  0  0  0  0
  -20.5820  -26.2244   23.3608 H   0  0  0  0  0  0
  -21.6669  -26.7509   22.1149 H   0  0  0  0  0  0
  -19.6943  -25.6305   21.1253 H   0  0  0  0  0  0
  -19.6749  -27.3248   20.6837 H   0  0  0  0  0  0
  -17.4229  -26.6685   21.4016 H   0  0  0  0  0  0
  -18.0302  -26.0108   22.9038 H   0  0  0  0  0  0
  -19.7916  -30.7345   24.2181 H   0  0  0  0  0  0
  -17.4973  -31.6260   24.5204 H   0  0  0  0  0  0
  -15.5331  -30.2959   23.7722 H   0  0  0  0  0  0
  -15.8662  -28.0919   22.6911 H   0  0  0  0  0  0
  -24.5922  -30.7026   25.7667 H   0  0  0  0  0  0
  -24.8915  -32.2811   26.4868 H   0  0  0  0  0  0
  -25.8045  -30.8762   27.0136 H   0  0  0  0  0  0
  -26.2981  -29.6650   24.1272 H   0  0  0  0  0  0
  -27.4219  -29.7359   25.4667 H   0  0  0  0  0  0
  -27.8806  -30.4318   23.9339 H   0  0  0  0  0  0
  -27.2832  -33.3605   26.1986 H   0  0  0  0  0  0
  -28.3931  -32.6674   25.0192 H   0  0  0  0  0  0
  -28.0775  -31.8318   26.5300 H   0  0  0  0  0  0
  -28.2572  -38.0129   24.7556 H   0  0  0  0  0  0
  -28.1140  -36.2664   24.6218 H   0  0  0  0  0  0
  -27.2304  -37.1390   25.8835 H   0  0  0  0  0  0
  -20.9384  -29.8720   21.6914 H   0  0  0  0  0  0
  -26.0193  -38.2850   24.1400 H   0  0  0  0  0  0
  -29.0958  -19.2252   17.9666 H   0  0  0  0  0  0
  -27.7139  -24.2042   13.3555 H   0  0  0  0  0  0
  -28.5629  -25.2445   14.4980 H   0  0  0  0  0  0
  -26.8605  -24.8380   14.7477 H   0  0  0  0  0  0
  -29.3009  -20.7209   21.4687 H   0  0  0  0  0  0
  -30.7976  -20.3008   20.7266 H   0  0  0  0  0  0
  -29.2535  -24.2520   16.8279 H   0  0  0  0  0  0
  -27.4998  -24.0431   17.1108 H   0  0  0  0  0  0
  -29.1292  -22.7757   14.8641 H   0  0  0  0  0  0
  -27.4241  -22.4718   15.1391 H   0  0  0  0  0  0
  -28.3704  -18.4563   20.1601 H   0  0  0  0  0  0
  -29.0106  -18.4853   21.7431 H   0  0  0  0  0  0
  -29.0364  -23.4232   20.9008 H   0  0  0  0  0  0
  -30.2170  -23.9974   19.7555 H   0  0  0  0  0  0
  -31.2152  -17.5261   20.9701 H   0  0  0  0  0  0
  -30.6435  -17.4685   19.3410 H   0  0  0  0  0  0
  -27.2402  -24.6264   19.6069 H   0  0  0  0  0  0
  -28.4388  -25.3016   18.5108 H   0  0  0  0  0  0
  -28.4972  -20.8959   16.2699 H   0  0  0  0  0  0
  -28.8895  -15.7672   20.7979 H   0  0  0  0  0  0
  1 25  1  0  0  0
  1 30  2  0  0  0
  1 84  1  0  0  0
  2  3  1  0  0  0
  2 25  1  0  0  0
  2 85  1  0  0  0
  2 86  1  0  0  0
  3  4  1  0  0  0
  3 87  1  0  0  0
  3 88  1  0  0  0
  4  5  1  0  0  0
  4 89  1  0  0  0
  4 90  1  0  0  0
  5  6  1  0  0  0
  5 26  1  0  0  0
  5 91  1  0  0  0
  6 25  1  0  0  0
  6 92  1  0  0  0
  6 93  1  0  0  0
  7  8  2  0  0  0
  7 26  1  0  0  0
  7 29  1  0  0  0
  8  9  1  0  0  0
  8 22  1  0  0  0
  9 10  1  0  0  0
  9 27  2  0  0  0
 10 11  2  0  0  0
 10 15  1  0  0  0
 11 12  1  0  0  0
 11 94  1  0  0  0
 12 13  2  0  0  0
 12 95  1  0  0  0
 13 14  1  0  0  0
 13 31  1  0  0  0
 14 15  2  0  0  0
 14 96  1  0  0  0
 15 97  1  0  0  0
 16 17  2  0  0  0
 16 21  1  0  0  0
 16 31  1  0  0  0
 17 18  1  0  0  0
 17 98  1  0  0  0
 18 19  2  0  0  0
 18 99  1  0  0  0
 19 20  1  0  0  0
 19 24  1  0  0  0
 20 21  2  0  0  0
 20100  1  0  0  0
 21 23  1  0  0  0
 22 28  1  0  0  0
 22 32  2  0  0  0
 26 27  1  0  0  0
 28101  1  0  0  0
 28102  1  0  0  0
 29103  1  0  0  0
 29104  1  0  0  0
 33 34  1  0  0  0
 33 66  1  0  0  0
 33 70  2  0  0  0
 34 36  1  0  0  0
 34 59  1  0  0  0
 34105  1  0  0  0
 35 44  2  0  0  0
 35 45  1  0  0  0
 35 68  1  0  0  0
 36 56  1  0  0  0
 36106  1  0  0  0
 37 39  1  0  0  0
 37 47  1  0  0  0
 37 66  1  0  0  0
 37107  1  0  0  0
 38 43  2  0  0  0
 38 46  1  0  0  0
 38 47  1  0  0  0
 39 64  1  0  0  0
 39 67  2  0  0  0
 40 52  1  0  0  0
 40 53  2  0  0  0
 40 58  1  0  0  0
 41108  1  0  0  0
 41109  1  0  0  0
 41110  1  0  0  0
 41 48  1  0  0  0
 42 43  1  0  0  0
 42 66  1  0  0  0
 42111  1  0  0  0
 42112  1  0  0  0
 43 44  1  0  0  0
 44113  1  0  0  0
 45 46  2  0  0  0
 45114  1  0  0  0
 46115  1  0  0  0
 47116  1  0  0  0
 47117  1  0  0  0
 48 56  1  0  0  0
 48 65  1  0  0  0
 48118  1  0  0  0
 49 50  1  0  0  0
 49 53  1  0  0  0
 49 64  1  0  0  0
 49119  1  0  0  0
 50 51  1  0  0  0
 50120  1  0  0  0
 50121  1  0  0  0
 51 52  1  0  0  0
 51122  1  0  0  0
 51123  1  0  0  0
 52124  1  0  0  0
 52125  1  0  0  0
 53 54  1  0  0  0
 54 55  2  0  0  0
 54126  1  0  0  0
 55 57  1  0  0  0
 55127  1  0  0  0
 56 69  2  0  0  0
 57 58  2  0  0  0
 57128  1  0  0  0
 58129  1  0  0  0
 59 60  1  0  0  0
 59 61  1  0  0  0
 59 62  1  0  0  0
 60130  1  0  0  0
 60131  1  0  0  0
 60132  1  0  0  0
 61133  1  0  0  0
 61134  1  0  0  0
 61135  1  0  0  0
 62136  1  0  0  0
 62137  1  0  0  0
 62138  1  0  0  0
 63 65  1  0  0  0
 63139  1  0  0  0
 63140  1  0  0  0
 63141  1  0  0  0
 64142  1  0  0  0
 65143  1  0  0  0
 68 81  1  0  0  0
 71 72  2  0  0  0
 71 83  1  0  0  0
 71144  1  0  0  0
 72 75  1  0  0  0
 72 82  1  0  0  0
 73 76  1  0  0  0
 73 82  1  0  0  0
 73 83  2  0  0  0
 74 77  1  0  0  0
 74145  1  0  0  0
 74146  1  0  0  0
 74147  1  0  0  0
 75 78  1  0  0  0
 75148  1  0  0  0
 75149  1  0  0  0
 76 77  1  0  0  0
 76150  1  0  0  0
 76151  1  0  0  0
 77152  1  0  0  0
 77153  1  0  0  0
 78 80  1  0  0  0
 78154  1  0  0  0
 78155  1  0  0  0
 79 81  1  0  0  0
 79 82  1  0  0  0
 79156  1  0  0  0
 79157  1  0  0  0
 80 84  1  0  0  0
 80158  1  0  0  0
 80159  1  0  0  0
 81160  1  0  0  0
 81161  1  0  0  0
 83162  1  0  0  0
 84163  1  0  0  0
M  CHG  1  83   1
M  ISO  4   1 100  68 101  81 101  84 100
M  END
> <chiral flag>
0

> <version>
0

> <s_m_source_file>
/data/baiqing/PycharmProjects/Reinvent-master-3.2/result/LINK_invent/BTK/process_docking_weight1_custom_sum_contain_oxygen_bond_distance_aromatic_linkinvent_7_9_3/rearranged_h_0080.sdf

> <i_m_source_file_index>
68

> <r_mmod_Potential_Energy-OPLS-2005>
174.730911254883

> <r_mmod_Stretch_Energy-OPLS-2005>
153.214492797852

> <r_mmod_Bend_Energy-OPLS-2005>
216.78483581543

> <r_mmod_Torsional_Energy-OPLS-2005>
226.193695068359

> <r_mmod_Improper_Torsional_Energy-OPLS-2005>
6.09436225891113

> <r_mmod_Van_der_Waal_Energy-OPLS-2005>
130.083602905273

> <r_mmod_Electrostatic_Energy-OPLS-2005>
-212.749359130859

> <r_mmod_Solvation_Energy-OPLS-2005>
-432.237274169922

> <b_mmod_Minimization_Converged-OPLS-2005>
0

> <r_mmod_RMS_Derivative-OPLS-2005>
7.170738697052

$$$$
70
                    3D
 Structure written by MMmdl.
167175  0  0  1  0            999 V2000
  -30.7041  -14.4352   20.6969 C   0  0  0  0  0  0
  -30.4451  -12.3397   19.3926 C   0  0  0  0  0  0
  -29.4889  -12.5034   18.1919 C   0  0  0  0  0  0
  -28.0193  -12.3341   18.6228 C   0  0  0  0  0  0
  -27.6650  -13.1832   19.8702 C   0  0  2  0  0  0
  -28.7015  -12.9309   20.9842 C   0  0  0  0  0  0
  -25.2674  -13.8114   20.5638 C   0  0  0  0  0  0
  -24.1890  -13.0435   20.9136 C   0  0  0  0  0  0
  -24.6393  -11.6878   20.8719 C   0  0  0  0  0  0
  -23.9049  -10.4292   21.0423 C   0  0  0  0  0  0
  -24.3608   -9.4215   21.9208 C   0  0  0  0  0  0
  -23.6292   -8.2246   22.0758 C   0  0  0  0  0  0
  -22.4288   -8.0286   21.3527 C   0  0  0  0  0  0
  -21.9911   -9.0264   20.4637 C   0  0  0  0  0  0
  -22.7229  -10.2153   20.3064 C   0  0  0  0  0  0
  -21.6860   -6.0742   22.5269 C   0  0  0  0  0  0
  -21.4014   -6.5642   23.8202 C   0  0  0  0  0  0
  -21.3651   -5.6799   24.9161 C   0  0  0  0  0  0
  -21.6038   -4.3057   24.7218 C   0  0  0  0  0  0
  -21.8832   -3.8149   23.4338 C   0  0  0  0  0  0
  -21.9205   -4.6965   22.3399 C   0  0  0  0  0  0
  -22.7924  -13.5257   21.1809 C   0  0  0  0  0  0
  -22.1674   -4.2139   21.0977 F   0  0  0  0  0  0
  -21.5627   -3.4543   25.7731 F   0  0  0  0  0  0
  -30.0324  -13.2800   20.4472 N   0  0  0  0  0  0
  -26.3041  -12.9210   20.3304 N   0  0  0  0  0  0
  -25.9311  -11.6388   20.5748 N   0  0  0  0  0  0
  -22.0553  -12.8255   22.0362 N   0  0  0  0  0  0
  -25.4526  -15.1819   20.4064 N   0  0  0  0  0  0
  -31.7767  -14.7268   20.1561 O   0  0  0  0  0  0
  -21.6638   -6.8887   21.4235 O   0  0  0  0  0  0
  -22.3609  -14.5573   20.6663 O   0  0  0  0  0  0
  -24.6128  -31.8685   23.2092 C   0  0  0  0  0  0
  -25.9021  -32.4828   23.8393 C   0  0  1  0  0  0
  -27.2300  -27.4219   20.1060 C   0  0  0  0  0  0
  -25.5876  -33.8635   24.2324 N   0  0  0  0  0  0
  -23.3987  -30.4943   21.5477 C   0  0  2  0  0  0
  -24.8455  -28.9591   20.1109 C   0  0  0  0  0  0
  -22.7379  -29.4692   22.4959 C   0  0  0  0  0  0
  -18.0291  -28.1340   22.8479 C   0  0  0  0  0  0
  -24.1494  -36.7348   23.2632 C   0  0  0  0  0  0
  -25.9274  -30.8347   21.3630 C   0  0  0  0  0  0
  -26.0031  -29.4664   20.7117 C   0  0  0  0  0  0
  -27.1940  -28.7057   20.7022 C   0  0  0  0  0  0
  -26.0490  -26.9260   19.5053 C   0  0  0  0  0  0
  -24.8659  -27.6912   19.5005 C   0  0  0  0  0  0
  -23.6078  -29.8263   20.1616 C   0  0  0  0  0  0
  -25.4113  -36.3135   24.0329 C   0  0  1  0  0  0
  -20.5866  -28.3699   23.1278 C   0  0  2  0  0  0
  -20.6789  -26.9419   22.5416 C   0  0  0  0  0  0
  -19.5777  -26.6362   21.5212 C   0  0  0  0  0  0
  -18.1948  -26.7889   22.1609 C   0  0  0  0  0  0
  -19.1521  -28.8838   23.2878 C   0  0  0  0  0  0
  -18.9424  -30.1421   23.8890 C   0  0  0  0  0  0
  -17.6414  -30.6574   24.0501 C   0  0  0  0  0  0
  -25.9031  -34.9489   23.5133 C   0  0  0  0  0  0
  -16.5330  -29.9035   23.6284 C   0  0  0  0  0  0
  -16.7271  -28.6427   23.0367 C   0  0  0  0  0  0
  -26.4485  -31.6620   25.0723 C   0  0  0  0  0  0
  -25.3752  -31.3723   26.1465 C   0  0  0  0  0  0
  -27.0322  -30.3048   24.6128 C   0  0  0  0  0  0
  -27.6082  -32.4355   25.7467 C   0  0  0  0  0  0
  -27.5602  -37.1829   24.8454 C   0  0  0  0  0  0
  -21.4116  -29.3049   22.3640 N   0  0  0  0  0  0
  -26.4308  -37.3811   23.9401 N   0  0  0  0  0  0
  -24.6633  -31.0801   22.0981 N   0  0  0  0  0  0
  -23.4139  -28.8237   23.3019 O   0  0  0  0  0  0
  -28.4193  -26.7172   20.1595 O   0  0  0  0  0  0
  -26.5588  -34.8930   22.4700 O   0  0  0  0  0  0
  -23.5318  -32.1436   23.7490 O   0  0  0  0  0  0
  -27.5273  -20.8707   22.2837 C   0  0  0  0  0  0
  -27.8154  -20.0659   23.3901 C   0  0  0  0  0  0
  -28.8439  -19.0930   23.2774 C   0  0  0  0  0  0
  -28.2276  -20.6759   21.0914 C   0  0  0  0  0  0
  -29.4431  -18.8645   22.0003 C   0  0  0  0  0  0
  -27.0045  -20.2718   24.6604 C   0  0  0  0  0  0
  -29.2928  -18.3807   24.5436 C   0  0  0  0  0  0
  -31.9302  -16.0857   23.0351 C   0  0  0  0  0  0
  -27.8951  -21.5608   19.8916 C   0  0  0  0  0  0
  -30.5260  -17.7885   21.6669 C   0  0  0  0  0  0
  -28.7104  -22.8746   19.7232 C   0  0  0  0  0  0
  -28.1439  -24.1875   20.3513 C   0  0  0  0  0  0
  -28.5699  -25.4379   19.5259 C   0  0  0  0  0  0
  -30.5590  -16.3887   22.3846 C   0  0  1  0  0  0
  -29.1460  -19.6825   20.9492 N   0  0  0  0  0  0
  -30.0943  -15.2321   21.5931 N   0  0  0  0  0  0
  -31.4762  -12.5089   19.0723 H   0  0  0  0  0  0
  -30.4119  -11.3189   19.7731 H   0  0  0  0  0  0
  -29.7278  -11.7704   17.4186 H   0  0  0  0  0  0
  -29.6288  -13.4843   17.7389 H   0  0  0  0  0  0
  -27.8747  -11.2786   18.8565 H   0  0  0  0  0  0
  -27.3418  -12.5558   17.7976 H   0  0  0  0  0  0
  -27.7238  -14.2308   19.5790 H   0  0  0  0  0  0
  -28.6956  -11.8801   21.2732 H   0  0  0  0  0  0
  -28.4300  -13.4654   21.8942 H   0  0  0  0  0  0
  -25.2759   -9.5686   22.4775 H   0  0  0  0  0  0
  -23.9985   -7.4644   22.7500 H   0  0  0  0  0  0
  -21.0822   -8.8801   19.8953 H   0  0  0  0  0  0
  -22.3701  -10.9694   19.6171 H   0  0  0  0  0  0
  -21.2007   -7.6152   23.9688 H   0  0  0  0  0  0
  -21.1447   -6.0533   25.9058 H   0  0  0  0  0  0
  -22.0623   -2.7599   23.2849 H   0  0  0  0  0  0
  -22.4133  -11.9868   22.4671 H   0  0  0  0  0  0
  -21.1190  -13.1292   22.2584 H   0  0  0  0  0  0
  -24.7082  -15.8594   20.5318 H   0  0  0  0  0  0
  -26.3234  -15.6021   20.1052 H   0  0  0  0  0  0
  -26.7080  -32.5542   23.1151 H   0  0  0  0  0  0
  -25.0016  -33.9821   25.0454 H   0  0  0  0  0  0
  -22.6882  -31.3107   21.4080 H   0  0  0  0  0  0
  -23.3749  -35.9693   23.3292 H   0  0  0  0  0  0
  -24.3577  -36.8971   22.2047 H   0  0  0  0  0  0
  -23.7260  -37.6556   23.6653 H   0  0  0  0  0  0
  -26.0395  -31.6054   20.5983 H   0  0  0  0  0  0
  -26.8138  -30.8869   21.9842 H   0  0  0  0  0  0
  -28.0871  -29.0978   21.1685 H   0  0  0  0  0  0
  -26.0179  -25.9468   19.0477 H   0  0  0  0  0  0
  -23.9721  -27.3019   19.0301 H   0  0  0  0  0  0
  -23.7081  -30.6005   19.4004 H   0  0  0  0  0  0
  -22.7322  -29.2441   19.8677 H   0  0  0  0  0  0
  -25.1296  -36.2011   25.0821 H   0  0  0  0  0  0
  -20.9970  -28.3284   24.1396 H   0  0  0  0  0  0
  -20.5719  -26.2297   23.3610 H   0  0  0  0  0  0
  -21.6649  -26.7489   22.1190 H   0  0  0  0  0  0
  -19.6956  -25.6281   21.1244 H   0  0  0  0  0  0
  -19.6676  -27.3154   20.6713 H   0  0  0  0  0  0
  -17.4229  -26.6649   21.3990 H   0  0  0  0  0  0
  -18.0359  -26.0021   22.9001 H   0  0  0  0  0  0
  -19.7884  -30.7259   24.2264 H   0  0  0  0  0  0
  -17.4949  -31.6271   24.5056 H   0  0  0  0  0  0
  -15.5316  -30.2947   23.7572 H   0  0  0  0  0  0
  -15.8669  -28.0716   22.7151 H   0  0  0  0  0  0
  -24.5907  -30.7103   25.7767 H   0  0  0  0  0  0
  -24.8958  -32.2876   26.4946 H   0  0  0  0  0  0
  -25.8078  -30.8837   27.0201 H   0  0  0  0  0  0
  -26.2846  -29.6770   24.1245 H   0  0  0  0  0  0
  -27.4131  -29.7341   25.4618 H   0  0  0  0  0  0
  -27.8681  -30.4348   23.9243 H   0  0  0  0  0  0
  -27.2700  -33.3618   26.2134 H   0  0  0  0  0  0
  -28.3821  -32.6983   25.0240 H   0  0  0  0  0  0
  -28.0840  -31.8434   26.5300 H   0  0  0  0  0  0
  -28.2611  -38.0135   24.7492 H   0  0  0  0  0  0
  -28.1102  -36.2660   24.6282 H   0  0  0  0  0  0
  -27.2308  -37.1483   25.8853 H   0  0  0  0  0  0
  -20.9278  -29.8632   21.6735 H   0  0  0  0  0  0
  -26.0204  -38.2897   24.1386 H   0  0  0  0  0  0
  -26.7780  -21.6515   22.3439 H   0  0  0  0  0  0
  -26.5921  -19.3264   25.0098 H   0  0  0  0  0  0
  -26.1554  -20.9347   24.4784 H   0  0  0  0  0  0
  -27.6125  -20.7079   25.4541 H   0  0  0  0  0  0
  -28.7108  -17.4729   24.7058 H   0  0  0  0  0  0
  -29.1780  -19.0161   25.4213 H   0  0  0  0  0  0
  -30.3518  -18.1397   24.4992 H   0  0  0  0  0  0
  -32.7485  -16.1393   22.3175 H   0  0  0  0  0  0
  -31.9561  -15.0880   23.4737 H   0  0  0  0  0  0
  -32.1577  -16.7912   23.8338 H   0  0  0  0  0  0
  -26.8317  -21.7936   19.8987 H   0  0  0  0  0  0
  -28.0427  -20.9506   18.9985 H   0  0  0  0  0  0
  -31.4805  -18.2835   21.8448 H   0  0  0  0  0  0
  -30.5090  -17.6122   20.5907 H   0  0  0  0  0  0
  -28.7380  -23.0524   18.6474 H   0  0  0  0  0  0
  -29.7504  -22.7203   20.0103 H   0  0  0  0  0  0
  -27.0555  -24.1544   20.4092 H   0  0  0  0  0  0
  -28.5011  -24.2706   21.3811 H   0  0  0  0  0  0
  -28.1096  -25.4317   18.5377 H   0  0  0  0  0  0
  -29.6404  -25.3513   19.3325 H   0  0  0  0  0  0
  -29.8448  -16.3790   23.1972 H   0  0  0  0  0  0
  -29.2025  -14.8613   21.8892 H   0  0  0  0  0  0
  1 25  1  0  0  0
  1 30  2  0  0  0
  1 86  1  0  0  0
  2  3  1  0  0  0
  2 25  1  0  0  0
  2 87  1  0  0  0
  2 88  1  0  0  0
  3  4  1  0  0  0
  3 89  1  0  0  0
  3 90  1  0  0  0
  4  5  1  0  0  0
  4 91  1  0  0  0
  4 92  1  0  0  0
  5  6  1  0  0  0
  5 26  1  0  0  0
  5 93  1  0  0  0
  6 25  1  0  0  0
  6 94  1  0  0  0
  6 95  1  0  0  0
  7  8  2  0  0  0
  7 26  1  0  0  0
  7 29  1  0  0  0
  8  9  1  0  0  0
  8 22  1  0  0  0
  9 10  1  0  0  0
  9 27  2  0  0  0
 10 11  2  0  0  0
 10 15  1  0  0  0
 11 12  1  0  0  0
 11 96  1  0  0  0
 12 13  2  0  0  0
 12 97  1  0  0  0
 13 14  1  0  0  0
 13 31  1  0  0  0
 14 15  2  0  0  0
 14 98  1  0  0  0
 15 99  1  0  0  0
 16 17  2  0  0  0
 16 21  1  0  0  0
 16 31  1  0  0  0
 17 18  1  0  0  0
 17100  1  0  0  0
 18 19  2  0  0  0
 18101  1  0  0  0
 19 20  1  0  0  0
 19 24  1  0  0  0
 20 21  2  0  0  0
 20102  1  0  0  0
 21 23  1  0  0  0
 22 28  1  0  0  0
 22 32  2  0  0  0
 26 27  1  0  0  0
 28103  1  0  0  0
 28104  1  0  0  0
 29105  1  0  0  0
 29106  1  0  0  0
 33 34  1  0  0  0
 33 66  1  0  0  0
 33 70  2  0  0  0
 34 36  1  0  0  0
 34 59  1  0  0  0
 34107  1  0  0  0
 35 44  2  0  0  0
 35 45  1  0  0  0
 35 68  1  0  0  0
 36 56  1  0  0  0
 36108  1  0  0  0
 37 39  1  0  0  0
 37 47  1  0  0  0
 37 66  1  0  0  0
 37109  1  0  0  0
 38 43  2  0  0  0
 38 46  1  0  0  0
 38 47  1  0  0  0
 39 64  1  0  0  0
 39 67  2  0  0  0
 40 52  1  0  0  0
 40 53  2  0  0  0
 40 58  1  0  0  0
 41110  1  0  0  0
 41111  1  0  0  0
 41112  1  0  0  0
 41 48  1  0  0  0
 42 43  1  0  0  0
 42 66  1  0  0  0
 42113  1  0  0  0
 42114  1  0  0  0
 43 44  1  0  0  0
 44115  1  0  0  0
 45 46  2  0  0  0
 45116  1  0  0  0
 46117  1  0  0  0
 47118  1  0  0  0
 47119  1  0  0  0
 48 56  1  0  0  0
 48 65  1  0  0  0
 48120  1  0  0  0
 49 50  1  0  0  0
 49 53  1  0  0  0
 49 64  1  0  0  0
 49121  1  0  0  0
 50 51  1  0  0  0
 50122  1  0  0  0
 50123  1  0  0  0
 51 52  1  0  0  0
 51124  1  0  0  0
 51125  1  0  0  0
 52126  1  0  0  0
 52127  1  0  0  0
 53 54  1  0  0  0
 54 55  2  0  0  0
 54128  1  0  0  0
 55 57  1  0  0  0
 55129  1  0  0  0
 56 69  2  0  0  0
 57 58  2  0  0  0
 57130  1  0  0  0
 58131  1  0  0  0
 59 60  1  0  0  0
 59 61  1  0  0  0
 59 62  1  0  0  0
 60132  1  0  0  0
 60133  1  0  0  0
 60134  1  0  0  0
 61135  1  0  0  0
 61136  1  0  0  0
 61137  1  0  0  0
 62138  1  0  0  0
 62139  1  0  0  0
 62140  1  0  0  0
 63 65  1  0  0  0
 63141  1  0  0  0
 63142  1  0  0  0
 63143  1  0  0  0
 64144  1  0  0  0
 65145  1  0  0  0
 68 83  1  0  0  0
 71 72  2  0  0  0
 71 74  1  0  0  0
 71146  1  0  0  0
 72 73  1  0  0  0
 72 76  1  0  0  0
 73 75  2  0  0  0
 73 77  1  0  0  0
 74 79  1  0  0  0
 74 85  2  0  0  0
 75 80  1  0  0  0
 75 85  1  0  0  0
 76147  1  0  0  0
 76148  1  0  0  0
 76149  1  0  0  0
 77150  1  0  0  0
 77151  1  0  0  0
 77152  1  0  0  0
 78153  1  0  0  0
 78154  1  0  0  0
 78155  1  0  0  0
 78 84  1  0  0  0
 79 81  1  0  0  0
 79156  1  0  0  0
 79157  1  0  0  0
 80 84  1  0  0  0
 80158  1  0  0  0
 80159  1  0  0  0
 81 82  1  0  0  0
 81160  1  0  0  0
 81161  1  0  0  0
 82 83  1  0  0  0
 82162  1  0  0  0
 82163  1  0  0  0
 83164  1  0  0  0
 83165  1  0  0  0
 84 86  1  0  0  0
 84166  1  0  0  0
 86167  1  0  0  0
M  ISO  4   1 100  68 101  83 101  86 100
M  END
> <chiral flag>
0

> <version>
0

> <s_m_source_file>
/data/baiqing/PycharmProjects/Reinvent-master-3.2/result/LINK_invent/BTK/process_docking_weight1_custom_sum_contain_oxygen_bond_distance_aromatic_linkinvent_7_9_3/rearranged_h_0080.sdf

> <i_m_source_file_index>
69

> <r_mmod_Potential_Energy-OPLS-2005>
-115.655410766602

> <r_mmod_Stretch_Energy-OPLS-2005>
47.1767311096191

> <r_mmod_Bend_Energy-OPLS-2005>
144.818771362305

> <r_mmod_Torsional_Energy-OPLS-2005>
204.4931640625

> <r_mmod_Improper_Torsional_Energy-OPLS-2005>
2.17161321640015

> <r_mmod_Van_der_Waal_Energy-OPLS-2005>
160.224594116211

> <r_mmod_Electrostatic_Energy-OPLS-2005>
-469.184417724609

> <r_mmod_Solvation_Energy-OPLS-2005>
-219.604904174805

> <b_mmod_Minimization_Converged-OPLS-2005>
0

> <r_mmod_RMS_Derivative-OPLS-2005>
4.61445283889771

$$$$
71
                    3D
 Structure written by MMmdl.
164172  0  0  1  0            999 V2000
  -30.6452  -14.5597   20.5115 C   0  0  0  0  0  0
  -30.4333  -12.3439   19.4370 C   0  0  0  0  0  0
  -29.5037  -12.5029   18.2139 C   0  0  0  0  0  0
  -28.0220  -12.3546   18.6211 C   0  0  0  0  0  0
  -27.6561  -13.2087   19.8648 C   0  0  2  0  0  0
  -28.7021  -13.0291   20.9896 C   0  0  0  0  0  0
  -25.2574  -13.8161   20.5681 C   0  0  0  0  0  0
  -24.1833  -13.0438   20.9182 C   0  0  0  0  0  0
  -24.6391  -11.6905   20.8735 C   0  0  0  0  0  0
  -23.9055  -10.4293   21.0400 C   0  0  0  0  0  0
  -24.3602   -9.4209   21.9179 C   0  0  0  0  0  0
  -23.6288   -8.2238   22.0743 C   0  0  0  0  0  0
  -22.4276   -8.0268   21.3534 C   0  0  0  0  0  0
  -21.9904   -9.0247   20.4648 C   0  0  0  0  0  0
  -22.7225  -10.2129   20.3057 C   0  0  0  0  0  0
  -21.6855   -6.0728   22.5289 C   0  0  0  0  0  0
  -21.4014   -6.5633   23.8220 C   0  0  0  0  0  0
  -21.3656   -5.6783   24.9178 C   0  0  0  0  0  0
  -21.6046   -4.3050   24.7226 C   0  0  0  0  0  0
  -21.8816   -3.8143   23.4349 C   0  0  0  0  0  0
  -21.9186   -4.6957   22.3406 C   0  0  0  0  0  0
  -22.7853  -13.5225   21.1851 C   0  0  0  0  0  0
  -22.1658   -4.2136   21.0985 F   0  0  0  0  0  0
  -21.5631   -3.4537   25.7739 F   0  0  0  0  0  0
  -30.0240  -13.3488   20.4299 N   0  0  0  0  0  0
  -26.3000  -12.9325   20.3316 N   0  0  0  0  0  0
  -25.9313  -11.6488   20.5752 N   0  0  0  0  0  0
  -22.0489  -12.8230   22.0414 N   0  0  0  0  0  0
  -25.4290  -15.1884   20.4089 N   0  0  0  0  0  0
  -31.8180  -14.7306   20.1719 O   0  0  0  0  0  0
  -21.6637   -6.8871   21.4248 O   0  0  0  0  0  0
  -22.3541  -14.5537   20.6703 O   0  0  0  0  0  0
  -24.6183  -31.8648   23.2060 C   0  0  0  0  0  0
  -25.9068  -32.4797   23.8386 C   0  0  1  0  0  0
  -27.2390  -27.3885   20.1242 C   0  0  0  0  0  0
  -25.5921  -33.8599   24.2310 N   0  0  0  0  0  0
  -23.4091  -30.4856   21.5450 C   0  0  2  0  0  0
  -24.8598  -28.9381   20.1193 C   0  0  0  0  0  0
  -22.7429  -29.4652   22.4963 C   0  0  0  0  0  0
  -18.0273  -28.1374   22.8493 C   0  0  0  0  0  0
  -24.1486  -36.7306   23.2645 C   0  0  0  0  0  0
  -25.9423  -30.8163   21.3666 C   0  0  0  0  0  0
  -26.0210  -29.4460   20.7153 C   0  0  0  0  0  0
  -27.2153  -28.6827   20.7049 C   0  0  0  0  0  0
  -26.0602  -26.8989   19.5248 C   0  0  0  0  0  0
  -24.8765  -27.6660   19.5181 C   0  0  0  0  0  0
  -23.6222  -29.8101   20.1632 C   0  0  0  0  0  0
  -25.4112  -36.3097   24.0332 C   0  0  1  0  0  0
  -20.5868  -28.3678   23.1297 C   0  0  2  0  0  0
  -20.6754  -26.9404   22.5417 C   0  0  0  0  0  0
  -19.5738  -26.6377   21.5207 C   0  0  0  0  0  0
  -18.1918  -26.7922   22.1616 C   0  0  0  0  0  0
  -19.1526  -28.8837   23.2895 C   0  0  0  0  0  0
  -18.9456  -30.1441   23.8907 C   0  0  0  0  0  0
  -17.6455  -30.6593   24.0549 C   0  0  0  0  0  0
  -25.9038  -34.9461   23.5113 C   0  0  0  0  0  0
  -16.5344  -29.9078   23.6331 C   0  0  0  0  0  0
  -16.7259  -28.6489   23.0363 C   0  0  0  0  0  0
  -26.4484  -31.6598   25.0741 C   0  0  0  0  0  0
  -25.3741  -31.3728   26.1489 C   0  0  0  0  0  0
  -27.0326  -30.3022   24.6174 C   0  0  0  0  0  0
  -27.6048  -32.4340   25.7502 C   0  0  0  0  0  0
  -27.5582  -37.1814   24.8464 C   0  0  0  0  0  0
  -21.4156  -29.3038   22.3700 N   0  0  0  0  0  0
  -26.4295  -37.3785   23.9403 N   0  0  0  0  0  0
  -24.6743  -31.0720   22.0961 N   0  0  0  0  0  0
  -23.4176  -28.8210   23.3037 O   0  0  0  0  0  0
  -28.4029  -26.6383   20.1063 O   0  0  0  0  0  0
  -26.5605  -34.8915   22.4678 O   0  0  0  0  0  0
  -23.5366  -32.1429   23.7417 O   0  0  0  0  0  0
  -30.3990  -22.7517   20.9504 C   0  0  0  0  0  0
  -28.8387  -21.5629   19.5674 C   0  0  0  0  0  0
  -29.2762  -22.8056   20.0986 C   0  0  0  0  0  0
  -31.0432  -21.5162   21.1767 C   0  0  0  0  0  0
  -29.5744  -20.3598   19.7936 C   0  0  0  0  0  0
  -32.2681  -21.4404   22.0628 C   0  0  0  0  0  0
  -29.4863  -19.5327   17.4469 C   0  0  0  0  0  0
  -29.7461  -16.6642   18.1010 C   0  0  0  0  0  0
  -28.6954  -24.1616   19.6054 C   0  0  0  0  0  0
  -30.0077  -17.0819   20.6349 C   0  0  0  0  0  0
  -28.3725  -25.2860   20.6464 C   0  0  0  0  0  0
  -29.2876  -19.0990   18.9251 C   0  0  1  0  0  0
  -30.0705  -17.7231   19.1923 C   0  0  2  0  0  0
  -30.6682  -20.3580   20.5856 N   0  0  0  0  0  0
  -29.8080  -15.6031   20.7420 N   0  0  0  0  0  0
  -31.4788  -12.4563   19.1445 H   0  0  0  0  0  0
  -30.3455  -11.3415   19.8577 H   0  0  0  0  0  0
  -29.7574  -11.7673   17.4489 H   0  0  0  0  0  0
  -29.6603  -13.4808   17.7566 H   0  0  0  0  0  0
  -27.8386  -11.3005   18.8303 H   0  0  0  0  0  0
  -27.3734  -12.6108   17.7823 H   0  0  0  0  0  0
  -27.6812  -14.2482   19.5375 H   0  0  0  0  0  0
  -28.6984  -12.0024   21.3587 H   0  0  0  0  0  0
  -28.4670  -13.6531   21.8534 H   0  0  0  0  0  0
  -25.2739   -9.5690   22.4752 H   0  0  0  0  0  0
  -23.9998   -7.4630   22.7463 H   0  0  0  0  0  0
  -21.0829   -8.8766   19.8961 H   0  0  0  0  0  0
  -22.3679  -10.9659   19.6169 H   0  0  0  0  0  0
  -21.2013   -7.6143   23.9718 H   0  0  0  0  0  0
  -21.1487   -6.0518   25.9079 H   0  0  0  0  0  0
  -22.0599   -2.7606   23.2856 H   0  0  0  0  0  0
  -22.4082  -11.9887   22.4816 H   0  0  0  0  0  0
  -21.1114  -13.1284   22.2616 H   0  0  0  0  0  0
  -24.6632  -15.8437   20.5213 H   0  0  0  0  0  0
  -26.2745  -15.6282   20.0697 H   0  0  0  0  0  0
  -26.7133  -32.5486   23.1148 H   0  0  0  0  0  0
  -25.0061  -33.9753   25.0448 H   0  0  0  0  0  0
  -22.6996  -31.3041   21.4004 H   0  0  0  0  0  0
  -23.3735  -35.9649   23.3302 H   0  0  0  0  0  0
  -24.3585  -36.8932   22.2062 H   0  0  0  0  0  0
  -23.7254  -37.6515   23.6659 H   0  0  0  0  0  0
  -26.0667  -31.5825   20.6004 H   0  0  0  0  0  0
  -26.8228  -30.8632   21.9953 H   0  0  0  0  0  0
  -28.1141  -29.0746   21.1613 H   0  0  0  0  0  0
  -26.0600  -25.9230   19.0598 H   0  0  0  0  0  0
  -23.9839  -27.2673   19.0555 H   0  0  0  0  0  0
  -23.7329  -30.5829   19.4018 H   0  0  0  0  0  0
  -22.7450  -29.2304   19.8689 H   0  0  0  0  0  0
  -25.1288  -36.1951   25.0822 H   0  0  0  0  0  0
  -20.9956  -28.3255   24.1417 H   0  0  0  0  0  0
  -20.5653  -26.2285   23.3614 H   0  0  0  0  0  0
  -21.6625  -26.7453   22.1209 H   0  0  0  0  0  0
  -19.6901  -25.6281   21.1242 H   0  0  0  0  0  0
  -19.6672  -27.3182   20.6727 H   0  0  0  0  0  0
  -17.4188  -26.6687   21.4009 H   0  0  0  0  0  0
  -18.0316  -26.0056   22.9001 H   0  0  0  0  0  0
  -19.7931  -30.7255   24.2281 H   0  0  0  0  0  0
  -17.5009  -31.6279   24.5151 H   0  0  0  0  0  0
  -15.5337  -30.2976   23.7662 H   0  0  0  0  0  0
  -15.8658  -28.0803   22.7079 H   0  0  0  0  0  0
  -24.5879  -30.7117   25.7831 H   0  0  0  0  0  0
  -24.8970  -32.2885   26.4982 H   0  0  0  0  0  0
  -25.8085  -30.8866   27.0233 H   0  0  0  0  0  0
  -26.2896  -29.6774   24.1199 H   0  0  0  0  0  0
  -27.4025  -29.7284   25.4688 H   0  0  0  0  0  0
  -27.8759  -30.4297   23.9381 H   0  0  0  0  0  0
  -27.2647  -33.3621   26.2106 H   0  0  0  0  0  0
  -28.3840  -32.6944   25.0326 H   0  0  0  0  0  0
  -28.0731  -31.8461   26.5408 H   0  0  0  0  0  0
  -28.2600  -38.0111   24.7502 H   0  0  0  0  0  0
  -28.1074  -36.2642   24.6278 H   0  0  0  0  0  0
  -27.2306  -37.1465   25.8872 H   0  0  0  0  0  0
  -20.9324  -29.8751   21.6908 H   0  0  0  0  0  0
  -26.0174  -38.2860   24.1390 H   0  0  0  0  0  0
  -30.8053  -23.6551   21.3852 H   0  0  0  0  0  0
  -28.0021  -21.5531   18.8812 H   0  0  0  0  0  0
  -32.2075  -22.1714   22.8698 H   0  0  0  0  0  0
  -33.1674  -21.6501   21.4839 H   0  0  0  0  0  0
  -32.3716  -20.4514   22.5114 H   0  0  0  0  0  0
  -29.0522  -20.5046   17.2243 H   0  0  0  0  0  0
  -29.0096  -18.8590   16.7392 H   0  0  0  0  0  0
  -30.5463  -19.6022   17.2012 H   0  0  0  0  0  0
  -30.4076  -15.8052   18.1646 H   0  0  0  0  0  0
  -29.9124  -17.0141   17.0863 H   0  0  0  0  0  0
  -28.7178  -16.3089   18.1740 H   0  0  0  0  0  0
  -27.8051  -23.9726   19.0052 H   0  0  0  0  0  0
  -29.4342  -24.5566   18.9084 H   0  0  0  0  0  0
  -29.1863  -17.5456   21.1824 H   0  0  0  0  0  0
  -30.9084  -17.3520   21.1884 H   0  0  0  0  0  0
  -27.4370  -25.0681   21.1642 H   0  0  0  0  0  0
  -29.1362  -25.2786   21.4232 H   0  0  0  0  0  0
  -28.2252  -18.8916   19.0644 H   0  0  0  0  0  0
  -31.1241  -17.9632   19.0383 H   0  0  0  0  0  0
  -28.8707  -15.3200   20.9855 H   0  0  0  0  0  0
  1 25  1  0  0  0
  1 30  2  0  0  0
  1 85  1  0  0  0
  2  3  1  0  0  0
  2 25  1  0  0  0
  2 86  1  0  0  0
  2 87  1  0  0  0
  3  4  1  0  0  0
  3 88  1  0  0  0
  3 89  1  0  0  0
  4  5  1  0  0  0
  4 90  1  0  0  0
  4 91  1  0  0  0
  5  6  1  0  0  0
  5 26  1  0  0  0
  5 92  1  0  0  0
  6 25  1  0  0  0
  6 93  1  0  0  0
  6 94  1  0  0  0
  7  8  2  0  0  0
  7 26  1  0  0  0
  7 29  1  0  0  0
  8  9  1  0  0  0
  8 22  1  0  0  0
  9 10  1  0  0  0
  9 27  2  0  0  0
 10 11  2  0  0  0
 10 15  1  0  0  0
 11 12  1  0  0  0
 11 95  1  0  0  0
 12 13  2  0  0  0
 12 96  1  0  0  0
 13 14  1  0  0  0
 13 31  1  0  0  0
 14 15  2  0  0  0
 14 97  1  0  0  0
 15 98  1  0  0  0
 16 17  2  0  0  0
 16 21  1  0  0  0
 16 31  1  0  0  0
 17 18  1  0  0  0
 17 99  1  0  0  0
 18 19  2  0  0  0
 18100  1  0  0  0
 19 20  1  0  0  0
 19 24  1  0  0  0
 20 21  2  0  0  0
 20101  1  0  0  0
 21 23  1  0  0  0
 22 28  1  0  0  0
 22 32  2  0  0  0
 26 27  1  0  0  0
 28102  1  0  0  0
 28103  1  0  0  0
 29104  1  0  0  0
 29105  1  0  0  0
 33 34  1  0  0  0
 33 66  1  0  0  0
 33 70  2  0  0  0
 34 36  1  0  0  0
 34 59  1  0  0  0
 34106  1  0  0  0
 35 44  2  0  0  0
 35 45  1  0  0  0
 35 68  1  0  0  0
 36 56  1  0  0  0
 36107  1  0  0  0
 37 39  1  0  0  0
 37 47  1  0  0  0
 37 66  1  0  0  0
 37108  1  0  0  0
 38 43  2  0  0  0
 38 46  1  0  0  0
 38 47  1  0  0  0
 39 64  1  0  0  0
 39 67  2  0  0  0
 40 52  1  0  0  0
 40 53  2  0  0  0
 40 58  1  0  0  0
 41109  1  0  0  0
 41110  1  0  0  0
 41111  1  0  0  0
 41 48  1  0  0  0
 42 43  1  0  0  0
 42 66  1  0  0  0
 42112  1  0  0  0
 42113  1  0  0  0
 43 44  1  0  0  0
 44114  1  0  0  0
 45 46  2  0  0  0
 45115  1  0  0  0
 46116  1  0  0  0
 47117  1  0  0  0
 47118  1  0  0  0
 48 56  1  0  0  0
 48 65  1  0  0  0
 48119  1  0  0  0
 49 50  1  0  0  0
 49 53  1  0  0  0
 49 64  1  0  0  0
 49120  1  0  0  0
 50 51  1  0  0  0
 50121  1  0  0  0
 50122  1  0  0  0
 51 52  1  0  0  0
 51123  1  0  0  0
 51124  1  0  0  0
 52125  1  0  0  0
 52126  1  0  0  0
 53 54  1  0  0  0
 54 55  2  0  0  0
 54127  1  0  0  0
 55 57  1  0  0  0
 55128  1  0  0  0
 56 69  2  0  0  0
 57 58  2  0  0  0
 57129  1  0  0  0
 58130  1  0  0  0
 59 60  1  0  0  0
 59 61  1  0  0  0
 59 62  1  0  0  0
 60131  1  0  0  0
 60132  1  0  0  0
 60133  1  0  0  0
 61134  1  0  0  0
 61135  1  0  0  0
 61136  1  0  0  0
 62137  1  0  0  0
 62138  1  0  0  0
 62139  1  0  0  0
 63 65  1  0  0  0
 63140  1  0  0  0
 63141  1  0  0  0
 63142  1  0  0  0
 64143  1  0  0  0
 65144  1  0  0  0
 68 81  1  0  0  0
 71 73  2  0  0  0
 71 74  1  0  0  0
 71145  1  0  0  0
 72 73  1  0  0  0
 72 75  2  0  0  0
 72146  1  0  0  0
 73 79  1  0  0  0
 74 76  1  0  0  0
 74 84  2  0  0  0
 75 82  1  0  0  0
 75 84  1  0  0  0
 76147  1  0  0  0
 76148  1  0  0  0
 76149  1  0  0  0
 77150  1  0  0  0
 77151  1  0  0  0
 77152  1  0  0  0
 77 82  1  0  0  0
 78153  1  0  0  0
 78154  1  0  0  0
 78155  1  0  0  0
 78 83  1  0  0  0
 79 81  1  0  0  0
 79156  1  0  0  0
 79157  1  0  0  0
 80 83  1  0  0  0
 80 85  1  0  0  0
 80158  1  0  0  0
 80159  1  0  0  0
 81160  1  0  0  0
 81161  1  0  0  0
 82 83  1  0  0  0
 82162  1  0  0  0
 83163  1  0  0  0
 85164  1  0  0  0
M  ISO  4   1 100  68 101  81 101  85 100
M  END
> <chiral flag>
0

> <version>
0

> <s_m_source_file>
/data/baiqing/PycharmProjects/Reinvent-master-3.2/result/LINK_invent/BTK/process_docking_weight1_custom_sum_contain_oxygen_bond_distance_aromatic_linkinvent_7_9_3/rearranged_h_0080.sdf

> <i_m_source_file_index>
70

> <r_mmod_Potential_Energy-OPLS-2005>
-113.733291625977

> <r_mmod_Stretch_Energy-OPLS-2005>
60.3771286010742

> <r_mmod_Bend_Energy-OPLS-2005>
132.95378112793

> <r_mmod_Torsional_Energy-OPLS-2005>
255.102203369141

> <r_mmod_Improper_Torsional_Energy-OPLS-2005>
8.56129455566406

> <r_mmod_Van_der_Waal_Energy-OPLS-2005>
153.704742431641

> <r_mmod_Electrostatic_Energy-OPLS-2005>
-533.532836914062

> <r_mmod_Solvation_Energy-OPLS-2005>
-216.083618164062

> <b_mmod_Minimization_Converged-OPLS-2005>
0

> <r_mmod_RMS_Derivative-OPLS-2005>
1.89450430870056

$$$$
73
                    3D
 Structure written by MMmdl.
172180  0  0  1  0            999 V2000
  -30.4589  -14.7257   20.5011 C   0  0  0  0  0  0
  -30.4416  -12.4590   19.4471 C   0  0  0  0  0  0
  -29.4942  -12.5241   18.2205 C   0  0  0  0  0  0
  -28.0148  -12.3509   18.6280 C   0  0  0  0  0  0
  -27.6386  -13.2019   19.8703 C   0  0  2  0  0  0
  -28.6775  -13.0194   20.9990 C   0  0  0  0  0  0
  -25.2472  -13.8137   20.5685 C   0  0  0  0  0  0
  -24.1746  -13.0421   20.9222 C   0  0  0  0  0  0
  -24.6290  -11.6887   20.8771 C   0  0  0  0  0  0
  -23.9001  -10.4276   21.0444 C   0  0  0  0  0  0
  -24.3578   -9.4185   21.9202 C   0  0  0  0  0  0
  -23.6271   -8.2219   22.0759 C   0  0  0  0  0  0
  -22.4257   -8.0255   21.3550 C   0  0  0  0  0  0
  -21.9887   -9.0220   20.4646 C   0  0  0  0  0  0
  -22.7189  -10.2108   20.3070 C   0  0  0  0  0  0
  -21.6851   -6.0713   22.5283 C   0  0  0  0  0  0
  -21.4006   -6.5623   23.8200 C   0  0  0  0  0  0
  -21.3665   -5.6788   24.9171 C   0  0  0  0  0  0
  -21.6039   -4.3050   24.7239 C   0  0  0  0  0  0
  -21.8814   -3.8129   23.4362 C   0  0  0  0  0  0
  -21.9186   -4.6946   22.3403 C   0  0  0  0  0  0
  -22.7767  -13.5232   21.1858 C   0  0  0  0  0  0
  -22.1641   -4.2119   21.0990 F   0  0  0  0  0  0
  -21.5651   -3.4542   25.7761 F   0  0  0  0  0  0
  -29.9733  -13.4400   20.4514 N   0  0  0  0  0  0
  -26.2864  -12.9260   20.3333 N   0  0  0  0  0  0
  -25.9207  -11.6435   20.5785 N   0  0  0  0  0  0
  -22.0394  -12.8260   22.0417 N   0  0  0  0  0  0
  -25.4212  -15.1859   20.4053 N   0  0  0  0  0  0
  -31.5708  -15.0120   20.0442 O   0  0  0  0  0  0
  -21.6626   -6.8853   21.4236 O   0  0  0  0  0  0
  -22.3486  -14.5534   20.6673 O   0  0  0  0  0  0
  -24.6411  -31.8529   23.1943 C   0  0  0  0  0  0
  -25.9167  -32.4813   23.8331 C   0  0  1  0  0  0
  -27.2127  -27.2006   20.1632 C   0  0  0  0  0  0
  -25.5985  -33.8624   24.2236 N   0  0  0  0  0  0
  -23.4412  -30.4675   21.5426 C   0  0  2  0  0  0
  -24.8807  -28.8834   20.1358 C   0  0  0  0  0  0
  -22.7543  -29.4586   22.4960 C   0  0  0  0  0  0
  -18.0291  -28.1440   22.8478 C   0  0  0  0  0  0
  -24.1460  -36.7320   23.2635 C   0  0  0  0  0  0
  -25.9853  -30.7504   21.3665 C   0  0  0  0  0  0
  -26.0571  -29.3577   20.7319 C   0  0  0  0  0  0
  -27.2330  -28.5300   20.7230 C   0  0  0  0  0  0
  -26.0070  -26.7892   19.5679 C   0  0  0  0  0  0
  -24.8607  -27.6115   19.5482 C   0  0  0  0  0  0
  -23.6579  -29.7814   20.1672 C   0  0  0  0  0  0
  -25.4095  -36.3108   24.0300 C   0  0  1  0  0  0
  -20.5893  -28.3730   23.1297 C   0  0  2  0  0  0
  -20.6804  -26.9434   22.5431 C   0  0  0  0  0  0
  -19.5756  -26.6351   21.5287 C   0  0  0  0  0  0
  -18.1912  -26.7976   22.1625 C   0  0  0  0  0  0
  -19.1551  -28.8895   23.2879 C   0  0  0  0  0  0
  -18.9456  -30.1495   23.8876 C   0  0  0  0  0  0
  -17.6446  -30.6620   24.0546 C   0  0  0  0  0  0
  -25.9018  -34.9488   23.5034 C   0  0  0  0  0  0
  -16.5336  -29.9088   23.6385 C   0  0  0  0  0  0
  -16.7279  -28.6541   23.0380 C   0  0  0  0  0  0
  -26.4454  -31.6769   25.0830 C   0  0  0  0  0  0
  -25.3585  -31.4085   26.1536 C   0  0  0  0  0  0
  -27.0354  -30.3220   24.6362 C   0  0  0  0  0  0
  -27.5945  -32.4592   25.7658 C   0  0  0  0  0  0
  -27.5560  -37.1826   24.8434 C   0  0  0  0  0  0
  -21.4237  -29.3108   22.3734 N   0  0  0  0  0  0
  -26.4265  -37.3824   23.9403 N   0  0  0  0  0  0
  -24.7105  -31.0436   22.0933 N   0  0  0  0  0  0
  -23.4216  -28.8052   23.3037 O   0  0  0  0  0  0
  -28.3301  -26.3366   20.0659 O   0  0  0  0  0  0
  -26.5503  -34.8946   22.4547 O   0  0  0  0  0  0
  -23.5547  -32.1324   23.7217 O   0  0  0  0  0  0
  -31.3504  -20.0510   20.2036 C   0  0  0  0  0  0
  -32.1675  -18.9433   20.1736 C   0  0  0  0  0  0
  -30.0649  -18.2430   20.4461 C   0  0  0  0  0  0
  -34.3611  -20.0108   19.5990 C   0  0  0  0  0  0
  -33.8413  -17.6682   18.8609 C   0  0  0  0  0  0
  -34.2139  -18.1428   21.3052 C   0  0  0  0  0  0
  -27.9679  -23.4953   18.6304 C   0  0  0  0  0  0
  -26.7423  -23.0394   20.7784 C   0  0  0  0  0  0
  -29.0659  -17.0698   20.5038 C   0  0  0  0  0  0
  -29.1479  -22.2557   20.5248 C   0  0  0  0  0  0
  -28.8519  -20.6481   20.3467 C   0  0  0  0  0  0
  -28.4473  -24.9736   20.7261 C   0  0  0  0  0  0
  -33.6429  -18.7063   19.9869 C   0  0  0  0  0  0
  -28.0929  -23.4592   20.1631 C   0  0  0  0  0  0
  -30.0360  -19.6399   20.3683 N   0  0  0  0  0  0
  -31.3393  -17.8859   20.3600 N   0  3  0  0  0  0
  -29.5545  -15.6778   20.9393 N   0  0  0  0  0  0
  -31.4669  -12.6643   19.1351 H   0  0  0  0  0  0
  -30.4477  -11.4540   19.8688 H   0  0  0  0  0  0
  -29.7705  -11.7582   17.4930 H   0  0  0  0  0  0
  -29.6149  -13.4799   17.7081 H   0  0  0  0  0  0
  -27.8472  -11.2941   18.8328 H   0  0  0  0  0  0
  -27.3603  -12.5968   17.7911 H   0  0  0  0  0  0
  -27.6577  -14.2432   19.5516 H   0  0  0  0  0  0
  -28.7154  -11.9727   21.3043 H   0  0  0  0  0  0
  -28.3947  -13.5741   21.8973 H   0  0  0  0  0  0
  -25.2729   -9.5670   22.4768 H   0  0  0  0  0  0
  -23.9981   -7.4614   22.7484 H   0  0  0  0  0  0
  -21.0826   -8.8709   19.8957 H   0  0  0  0  0  0
  -22.3636  -10.9635   19.6176 H   0  0  0  0  0  0
  -21.1969   -7.6132   23.9693 H   0  0  0  0  0  0
  -21.1513   -6.0530   25.9074 H   0  0  0  0  0  0
  -22.0598   -2.7599   23.2876 H   0  0  0  0  0  0
  -22.4004  -11.9951   22.4882 H   0  0  0  0  0  0
  -21.0982  -13.1259   22.2539 H   0  0  0  0  0  0
  -24.6579  -15.8435   20.5173 H   0  0  0  0  0  0
  -26.2525  -15.6104   20.0166 H   0  0  0  0  0  0
  -26.7234  -32.5421   23.1091 H   0  0  0  0  0  0
  -25.0574  -33.9807   25.0666 H   0  0  0  0  0  0
  -22.7500  -31.2957   21.3804 H   0  0  0  0  0  0
  -23.3733  -35.9644   23.3289 H   0  0  0  0  0  0
  -24.3542  -36.8979   22.2049 H   0  0  0  0  0  0
  -23.7171  -37.6512   23.6650 H   0  0  0  0  0  0
  -26.1034  -31.4878   20.5719 H   0  0  0  0  0  0
  -26.8740  -30.8263   21.9827 H   0  0  0  0  0  0
  -28.1450  -28.8914   21.1752 H   0  0  0  0  0  0
  -25.9367  -25.8038   19.1312 H   0  0  0  0  0  0
  -23.9504  -27.2369   19.1031 H   0  0  0  0  0  0
  -23.7919  -30.5401   19.3971 H   0  0  0  0  0  0
  -22.7719  -29.2170   19.8676 H   0  0  0  0  0  0
  -25.1279  -36.1984   25.0791 H   0  0  0  0  0  0
  -20.9979  -28.3276   24.1435 H   0  0  0  0  0  0
  -20.5864  -26.2298   23.3636 H   0  0  0  0  0  0
  -21.6630  -26.7563   22.1101 H   0  0  0  0  0  0
  -19.6901  -25.6249   21.1377 H   0  0  0  0  0  0
  -19.6723  -27.3110   20.6784 H   0  0  0  0  0  0
  -17.4232  -26.6846   21.3959 H   0  0  0  0  0  0
  -18.0147  -26.0150   22.9024 H   0  0  0  0  0  0
  -19.7922  -30.7352   24.2216 H   0  0  0  0  0  0
  -17.4992  -31.6303   24.5117 H   0  0  0  0  0  0
  -15.5328  -30.2950   23.7760 H   0  0  0  0  0  0
  -15.8690  -28.0829   22.7111 H   0  0  0  0  0  0
  -24.5661  -30.7550   25.7896 H   0  0  0  0  0  0
  -24.8870  -32.3351   26.4849 H   0  0  0  0  0  0
  -25.7768  -30.9348   27.0427 H   0  0  0  0  0  0
  -26.3014  -29.7029   24.1213 H   0  0  0  0  0  0
  -27.3896  -29.7500   25.4953 H   0  0  0  0  0  0
  -27.8897  -30.4633   23.9735 H   0  0  0  0  0  0
  -27.2484  -33.3909   26.2165 H   0  0  0  0  0  0
  -28.3794  -32.7210   25.0548 H   0  0  0  0  0  0
  -28.0550  -31.8820   26.5702 H   0  0  0  0  0  0
  -28.2550  -38.0160   24.7539 H   0  0  0  0  0  0
  -28.1075  -36.2697   24.6159 H   0  0  0  0  0  0
  -27.2278  -37.1355   25.8837 H   0  0  0  0  0  0
  -20.9428  -29.8988   21.7060 H   0  0  0  0  0  0
  -26.0148  -38.2902   24.1464 H   0  0  0  0  0  0
  -31.6214  -21.0912   20.0863 H   0  0  0  0  0  0
  -33.9693  -20.4255   18.6684 H   0  0  0  0  0  0
  -35.4277  -19.8396   19.4430 H   0  0  0  0  0  0
  -34.2633  -20.7760   20.3681 H   0  0  0  0  0  0
  -33.3377  -17.9721   17.9413 H   0  0  0  0  0  0
  -33.4412  -16.6910   19.1309 H   0  0  0  0  0  0
  -34.8964  -17.5196   18.6253 H   0  0  0  0  0  0
  -33.9861  -18.7981   22.1461 H   0  0  0  0  0  0
  -35.2963  -18.0184   21.2544 H   0  0  0  0  0  0
  -33.7958  -17.1631   21.5407 H   0  0  0  0  0  0
  -27.7860  -22.5033   18.2140 H   0  0  0  0  0  0
  -28.8765  -23.8793   18.1678 H   0  0  0  0  0  0
  -27.1383  -24.1218   18.3077 H   0  0  0  0  0  0
  -26.3712  -22.1017   20.3614 H   0  0  0  0  0  0
  -25.9653  -23.7887   20.6192 H   0  0  0  0  0  0
  -26.8398  -22.8942   21.8566 H   0  0  0  0  0  0
  -28.6061  -16.9908   19.5161 H   0  0  0  0  0  0
  -28.2721  -17.3780   21.1854 H   0  0  0  0  0  0
  -30.0262  -22.4861   19.9310 H   0  0  0  0  0  0
  -29.4652  -22.3872   21.5577 H   0  0  0  0  0  0
  -28.3254  -20.4820   19.4089 H   0  0  0  0  0  0
  -28.1575  -20.3353   21.1273 H   0  0  0  0  0  0
  -29.5193  -24.9221   20.9270 H   0  0  0  0  0  0
  -28.0145  -25.0747   21.7204 H   0  0  0  0  0  0
  -31.6255  -16.9087   20.3521 H   0  0  0  0  0  0
  -28.8307  -15.2188   21.4710 H   0  0  0  0  0  0
  1 25  1  0  0  0
  1 30  2  0  0  0
  1 87  1  0  0  0
  2  3  1  0  0  0
  2 25  1  0  0  0
  2 88  1  0  0  0
  2 89  1  0  0  0
  3  4  1  0  0  0
  3 90  1  0  0  0
  3 91  1  0  0  0
  4  5  1  0  0  0
  4 92  1  0  0  0
  4 93  1  0  0  0
  5  6  1  0  0  0
  5 26  1  0  0  0
  5 94  1  0  0  0
  6 25  1  0  0  0
  6 95  1  0  0  0
  6 96  1  0  0  0
  7  8  2  0  0  0
  7 26  1  0  0  0
  7 29  1  0  0  0
  8  9  1  0  0  0
  8 22  1  0  0  0
  9 10  1  0  0  0
  9 27  2  0  0  0
 10 11  2  0  0  0
 10 15  1  0  0  0
 11 12  1  0  0  0
 11 97  1  0  0  0
 12 13  2  0  0  0
 12 98  1  0  0  0
 13 14  1  0  0  0
 13 31  1  0  0  0
 14 15  2  0  0  0
 14 99  1  0  0  0
 15100  1  0  0  0
 16 17  2  0  0  0
 16 21  1  0  0  0
 16 31  1  0  0  0
 17 18  1  0  0  0
 17101  1  0  0  0
 18 19  2  0  0  0
 18102  1  0  0  0
 19 20  1  0  0  0
 19 24  1  0  0  0
 20 21  2  0  0  0
 20103  1  0  0  0
 21 23  1  0  0  0
 22 28  1  0  0  0
 22 32  2  0  0  0
 26 27  1  0  0  0
 28104  1  0  0  0
 28105  1  0  0  0
 29106  1  0  0  0
 29107  1  0  0  0
 33 34  1  0  0  0
 33 66  1  0  0  0
 33 70  2  0  0  0
 34 36  1  0  0  0
 34 59  1  0  0  0
 34108  1  0  0  0
 35 44  2  0  0  0
 35 45  1  0  0  0
 35 68  1  0  0  0
 36 56  1  0  0  0
 36109  1  0  0  0
 37 39  1  0  0  0
 37 47  1  0  0  0
 37 66  1  0  0  0
 37110  1  0  0  0
 38 43  2  0  0  0
 38 46  1  0  0  0
 38 47  1  0  0  0
 39 64  1  0  0  0
 39 67  2  0  0  0
 40 52  1  0  0  0
 40 53  2  0  0  0
 40 58  1  0  0  0
 41111  1  0  0  0
 41112  1  0  0  0
 41113  1  0  0  0
 41 48  1  0  0  0
 42 43  1  0  0  0
 42 66  1  0  0  0
 42114  1  0  0  0
 42115  1  0  0  0
 43 44  1  0  0  0
 44116  1  0  0  0
 45 46  2  0  0  0
 45117  1  0  0  0
 46118  1  0  0  0
 47119  1  0  0  0
 47120  1  0  0  0
 48 56  1  0  0  0
 48 65  1  0  0  0
 48121  1  0  0  0
 49 50  1  0  0  0
 49 53  1  0  0  0
 49 64  1  0  0  0
 49122  1  0  0  0
 50 51  1  0  0  0
 50123  1  0  0  0
 50124  1  0  0  0
 51 52  1  0  0  0
 51125  1  0  0  0
 51126  1  0  0  0
 52127  1  0  0  0
 52128  1  0  0  0
 53 54  1  0  0  0
 54 55  2  0  0  0
 54129  1  0  0  0
 55 57  1  0  0  0
 55130  1  0  0  0
 56 69  2  0  0  0
 57 58  2  0  0  0
 57131  1  0  0  0
 58132  1  0  0  0
 59 60  1  0  0  0
 59 61  1  0  0  0
 59 62  1  0  0  0
 60133  1  0  0  0
 60134  1  0  0  0
 60135  1  0  0  0
 61136  1  0  0  0
 61137  1  0  0  0
 61138  1  0  0  0
 62139  1  0  0  0
 62140  1  0  0  0
 62141  1  0  0  0
 63 65  1  0  0  0
 63142  1  0  0  0
 63143  1  0  0  0
 63144  1  0  0  0
 64145  1  0  0  0
 65146  1  0  0  0
 68 82  1  0  0  0
 71 72  2  0  0  0
 71 85  1  0  0  0
 71147  1  0  0  0
 72 83  1  0  0  0
 72 86  1  0  0  0
 73 79  1  0  0  0
 73 85  1  0  0  0
 73 86  2  0  0  0
 74148  1  0  0  0
 74149  1  0  0  0
 74150  1  0  0  0
 74 83  1  0  0  0
 75 83  1  0  0  0
 75151  1  0  0  0
 75152  1  0  0  0
 75153  1  0  0  0
 76 83  1  0  0  0
 76154  1  0  0  0
 76155  1  0  0  0
 76156  1  0  0  0
 77157  1  0  0  0
 77158  1  0  0  0
 77159  1  0  0  0
 77 84  1  0  0  0
 78 84  1  0  0  0
 78160  1  0  0  0
 78161  1  0  0  0
 78162  1  0  0  0
 79 87  1  0  0  0
 79163  1  0  0  0
 79164  1  0  0  0
 80 81  1  0  0  0
 80 84  1  0  0  0
 80165  1  0  0  0
 80166  1  0  0  0
 81 85  1  0  0  0
 81167  1  0  0  0
 81168  1  0  0  0
 82 84  1  0  0  0
 82169  1  0  0  0
 82170  1  0  0  0
 86171  1  0  0  0
 87172  1  0  0  0
M  CHG  1  86   1
M  ISO  4   1 100  68 101  82 101  87 100
M  END
> <chiral flag>
0

> <version>
0

> <s_m_source_file>
/data/baiqing/PycharmProjects/Reinvent-master-3.2/result/LINK_invent/BTK/process_docking_weight1_custom_sum_contain_oxygen_bond_distance_aromatic_linkinvent_7_9_3/rearranged_h_0080.sdf

> <i_m_source_file_index>
71

> <r_mmod_Potential_Energy-OPLS-2005>
147.150283813477

> <r_mmod_Stretch_Energy-OPLS-2005>
150.742584228516

> <r_mmod_Bend_Energy-OPLS-2005>
256.11962890625

> <r_mmod_Torsional_Energy-OPLS-2005>
274.942565917969

> <r_mmod_Improper_Torsional_Energy-OPLS-2005>
6.68852376937866

> <r_mmod_Van_der_Waal_Energy-OPLS-2005>
111.139961242676

> <r_mmod_Electrostatic_Energy-OPLS-2005>
-384.047546386719

> <r_mmod_Solvation_Energy-OPLS-2005>
-372.884735107422

> <b_mmod_Minimization_Converged-OPLS-2005>
0

> <r_mmod_RMS_Derivative-OPLS-2005>
5.78510093688965

$$$$
74
                    3D
 Structure written by MMmdl.
166174  0  0  1  0            999 V2000
  -30.6881  -14.4818   20.4606 C   0  0  0  0  0  0
  -30.4098  -12.2808   19.4393 C   0  0  0  0  0  0
  -29.4928  -12.4673   18.2124 C   0  0  0  0  0  0
  -28.0116  -12.3492   18.6236 C   0  0  0  0  0  0
  -27.6527  -13.2035   19.8724 C   0  0  2  0  0  0
  -28.6991  -13.0366   20.9977 C   0  0  0  0  0  0
  -25.2572  -13.8159   20.5712 C   0  0  0  0  0  0
  -24.1820  -13.0439   20.9195 C   0  0  0  0  0  0
  -24.6382  -11.6908   20.8770 C   0  0  0  0  0  0
  -23.9059  -10.4291   21.0425 C   0  0  0  0  0  0
  -24.3616   -9.4204   21.9196 C   0  0  0  0  0  0
  -23.6290   -8.2248   22.0759 C   0  0  0  0  0  0
  -22.4272   -8.0293   21.3548 C   0  0  0  0  0  0
  -21.9912   -9.0262   20.4649 C   0  0  0  0  0  0
  -22.7240  -10.2139   20.3064 C   0  0  0  0  0  0
  -21.6846   -6.0744   22.5286 C   0  0  0  0  0  0
  -21.4011   -6.5645   23.8220 C   0  0  0  0  0  0
  -21.3652   -5.6796   24.9180 C   0  0  0  0  0  0
  -21.6045   -4.3059   24.7223 C   0  0  0  0  0  0
  -21.8817   -3.8153   23.4342 C   0  0  0  0  0  0
  -21.9188   -4.6974   22.3404 C   0  0  0  0  0  0
  -22.7850  -13.5244   21.1852 C   0  0  0  0  0  0
  -22.1660   -4.2165   21.0978 F   0  0  0  0  0  0
  -21.5622   -3.4539   25.7733 F   0  0  0  0  0  0
  -30.0235  -13.3008   20.4237 N   0  0  0  0  0  0
  -26.2991  -12.9314   20.3390 N   0  0  0  0  0  0
  -25.9304  -11.6479   20.5811 N   0  0  0  0  0  0
  -22.0481  -12.8233   22.0399 N   0  0  0  0  0  0
  -25.4303  -15.1886   20.4152 N   0  0  0  0  0  0
  -31.8839  -14.5821   20.1742 O   0  0  0  0  0  0
  -21.6631   -6.8890   21.4251 O   0  0  0  0  0  0
  -22.3549  -14.5554   20.6707 O   0  0  0  0  0  0
  -24.6122  -31.8712   23.2103 C   0  0  0  0  0  0
  -25.9045  -32.4828   23.8392 C   0  0  1  0  0  0
  -27.2236  -27.4398   20.1047 C   0  0  0  0  0  0
  -25.5946  -33.8621   24.2353 N   0  0  0  0  0  0
  -23.3987  -30.4940   21.5507 C   0  0  2  0  0  0
  -24.8443  -28.9597   20.1155 C   0  0  0  0  0  0
  -22.7399  -29.4669   22.4989 C   0  0  0  0  0  0
  -18.0270  -28.1362   22.8453 C   0  0  0  0  0  0
  -24.1508  -36.7310   23.2634 C   0  0  0  0  0  0
  -25.9261  -30.8371   21.3623 C   0  0  0  0  0  0
  -26.0036  -29.4702   20.7149 C   0  0  0  0  0  0
  -27.1992  -28.7158   20.7088 C   0  0  0  0  0  0
  -26.0561  -26.9495   19.4876 C   0  0  0  0  0  0
  -24.8639  -27.6966   19.5010 C   0  0  0  0  0  0
  -23.6065  -29.8274   20.1635 C   0  0  0  0  0  0
  -25.4119  -36.3101   24.0333 C   0  0  1  0  0  0
  -20.5854  -28.3644   23.1308 C   0  0  2  0  0  0
  -20.6770  -26.9389   22.5404 C   0  0  0  0  0  0
  -19.5763  -26.6369   21.5194 C   0  0  0  0  0  0
  -18.1924  -26.7905   22.1593 C   0  0  0  0  0  0
  -19.1513  -28.8821   23.2868 C   0  0  0  0  0  0
  -18.9465  -30.1427   23.8887 C   0  0  0  0  0  0
  -17.6467  -30.6568   24.0554 C   0  0  0  0  0  0
  -25.9049  -34.9468   23.5130 C   0  0  0  0  0  0
  -16.5352  -29.9076   23.6311 C   0  0  0  0  0  0
  -16.7259  -28.6494   23.0319 C   0  0  0  0  0  0
  -26.4469  -31.6587   25.0707 C   0  0  0  0  0  0
  -25.3742  -31.3699   26.1466 C   0  0  0  0  0  0
  -27.0302  -30.3041   24.6049 C   0  0  0  0  0  0
  -27.6056  -32.4297   25.7469 C   0  0  0  0  0  0
  -27.5590  -37.1802   24.8459 C   0  0  0  0  0  0
  -21.4131  -29.3024   22.3730 N   0  0  0  0  0  0
  -26.4296  -37.3791   23.9401 N   0  0  0  0  0  0
  -24.6632  -31.0833   22.0992 N   0  0  0  0  0  0
  -23.4180  -28.8208   23.3016 O   0  0  0  0  0  0
  -28.3821  -26.7032   20.0682 O   0  0  0  0  0  0
  -26.5592  -34.8923   22.4674 O   0  0  0  0  0  0
  -23.5325  -32.1474   23.7524 O   0  0  0  0  0  0
  -30.0889  -19.3428   19.7758 C   0  0  0  0  0  0
  -29.5695  -18.0958   20.1907 C   0  0  0  0  0  0
  -28.1938  -20.4292   20.5268 C   0  0  0  0  0  0
  -27.6898  -19.1808   21.0172 C   0  0  0  0  0  0
  -26.3882  -18.1514   22.9714 C   0  0  0  0  0  0
  -28.8243  -16.4775   17.6514 C   0  0  0  0  0  0
  -27.4048  -21.7456   20.4500 C   0  0  0  0  0  0
  -26.3364  -19.0251   21.7069 C   0  0  0  0  0  0
  -30.2386  -16.6445   18.2321 C   0  0  0  0  0  0
  -28.1262  -22.9807   21.0501 C   0  0  0  0  0  0
  -27.6780  -24.3157   20.4100 C   0  0  0  0  0  0
  -28.4341  -25.5609   20.9349 C   0  0  0  0  0  0
  -30.3106  -16.8229   19.7756 C   0  0  2  0  0  0
  -29.4003  -20.4935   19.9166 N   0  0  0  0  0  0
  -28.3647  -18.0110   20.8105 N   0  0  0  0  0  0
  -29.9048  -15.5778   20.4550 N   0  0  0  0  0  0
  -31.4595  -12.3519   19.1449 H   0  0  0  0  0  0
  -30.2847  -11.2837   19.8640 H   0  0  0  0  0  0
  -29.7270  -11.7193   17.4539 H   0  0  0  0  0  0
  -29.6775  -13.4375   17.7494 H   0  0  0  0  0  0
  -27.8150  -11.2966   18.8294 H   0  0  0  0  0  0
  -27.3660  -12.6183   17.7863 H   0  0  0  0  0  0
  -27.6726  -14.2424   19.5579 H   0  0  0  0  0  0
  -28.6691  -12.0262   21.4078 H   0  0  0  0  0  0
  -28.4869  -13.7108   21.8302 H   0  0  0  0  0  0
  -25.2759   -9.5668   22.4772 H   0  0  0  0  0  0
  -23.9996   -7.4624   22.7471 H   0  0  0  0  0  0
  -21.0850   -8.8781   19.8945 H   0  0  0  0  0  0
  -22.3710  -10.9686   19.6173 H   0  0  0  0  0  0
  -21.2012   -7.6151   23.9728 H   0  0  0  0  0  0
  -21.1473   -6.0521   25.9079 H   0  0  0  0  0  0
  -22.0604   -2.7621   23.2834 H   0  0  0  0  0  0
  -22.4086  -11.9888   22.4782 H   0  0  0  0  0  0
  -21.1110  -13.1277   22.2603 H   0  0  0  0  0  0
  -24.6675  -15.8432   20.5465 H   0  0  0  0  0  0
  -26.2914  -15.6409   20.1350 H   0  0  0  0  0  0
  -26.7105  -32.5557   23.1156 H   0  0  0  0  0  0
  -25.0088  -33.9786   25.0496 H   0  0  0  0  0  0
  -22.6855  -31.3103   21.4120 H   0  0  0  0  0  0
  -23.3760  -35.9659   23.3303 H   0  0  0  0  0  0
  -24.3611  -36.8925   22.2050 H   0  0  0  0  0  0
  -23.7278  -37.6521   23.6655 H   0  0  0  0  0  0
  -26.0361  -31.6020   20.5918 H   0  0  0  0  0  0
  -26.8150  -30.8924   21.9783 H   0  0  0  0  0  0
  -28.0936  -29.1059   21.1735 H   0  0  0  0  0  0
  -26.0675  -25.9956   18.9805 H   0  0  0  0  0  0
  -23.9770  -27.3003   19.0256 H   0  0  0  0  0  0
  -23.7167  -30.6049   19.4053 H   0  0  0  0  0  0
  -22.7309  -29.2482   19.8654 H   0  0  0  0  0  0
  -25.1294  -36.1951   25.0825 H   0  0  0  0  0  0
  -20.9928  -28.3227   24.1444 H   0  0  0  0  0  0
  -20.5708  -26.2258   23.3587 H   0  0  0  0  0  0
  -21.6634  -26.7466   22.1201 H   0  0  0  0  0  0
  -19.6956  -25.6299   21.1209 H   0  0  0  0  0  0
  -19.6720  -27.3197   20.6735 H   0  0  0  0  0  0
  -17.4207  -26.6630   21.3988 H   0  0  0  0  0  0
  -18.0336  -26.0052   22.9005 H   0  0  0  0  0  0
  -19.7955  -30.7195   24.2291 H   0  0  0  0  0  0
  -17.5045  -31.6265   24.5142 H   0  0  0  0  0  0
  -15.5358  -30.2976   23.7659 H   0  0  0  0  0  0
  -15.8653  -28.0828   22.7021 H   0  0  0  0  0  0
  -24.5913  -30.7048   25.7809 H   0  0  0  0  0  0
  -24.8926  -32.2864   26.4898 H   0  0  0  0  0  0
  -25.8091  -30.8882   27.0228 H   0  0  0  0  0  0
  -26.2833  -29.6805   24.1123 H   0  0  0  0  0  0
  -27.4132  -29.7271   25.4471 H   0  0  0  0  0  0
  -27.8646  -30.4390   23.9152 H   0  0  0  0  0  0
  -27.2684  -33.3586   26.2069 H   0  0  0  0  0  0
  -28.3848  -32.6867   25.0288 H   0  0  0  0  0  0
  -28.0731  -31.8398   26.5365 H   0  0  0  0  0  0
  -28.2577  -38.0122   24.7504 H   0  0  0  0  0  0
  -28.1103  -36.2648   24.6266 H   0  0  0  0  0  0
  -27.2296  -37.1405   25.8857 H   0  0  0  0  0  0
  -20.9306  -29.8759   21.6955 H   0  0  0  0  0  0
  -26.0183  -38.2871   24.1413 H   0  0  0  0  0  0
  -31.0336  -19.4080   19.2571 H   0  0  0  0  0  0
  -25.4111  -18.1093   23.4515 H   0  0  0  0  0  0
  -27.0999  -18.5472   23.6967 H   0  0  0  0  0  0
  -26.6776  -17.1256   22.7402 H   0  0  0  0  0  0
  -28.8560  -16.4623   16.5619 H   0  0  0  0  0  0
  -28.1626  -17.2936   17.9430 H   0  0  0  0  0  0
  -28.3669  -15.5448   17.9708 H   0  0  0  0  0  0
  -26.4110  -21.6689   20.8819 H   0  0  0  0  0  0
  -27.2223  -21.9193   19.3887 H   0  0  0  0  0  0
  -25.6178  -18.6194   20.9944 H   0  0  0  0  0  0
  -25.9517  -19.9935   22.0193 H   0  0  0  0  0  0
  -30.7006  -17.5070   17.7537 H   0  0  0  0  0  0
  -30.8494  -15.7972   17.9192 H   0  0  0  0  0  0
  -29.1987  -22.8949   20.8798 H   0  0  0  0  0  0
  -27.9929  -22.9958   22.1315 H   0  0  0  0  0  0
  -26.6062  -24.4434   20.5652 H   0  0  0  0  0  0
  -27.8317  -24.2483   19.3321 H   0  0  0  0  0  0
  -29.4922  -25.3150   21.0379 H   0  0  0  0  0  0
  -28.0893  -25.8216   21.9358 H   0  0  0  0  0  0
  -31.3527  -17.0173   20.0360 H   0  0  0  0  0  0
  -28.9264  -15.4825   20.6741 H   0  0  0  0  0  0
  1 25  1  0  0  0
  1 30  2  0  0  0
  1 86  1  0  0  0
  2  3  1  0  0  0
  2 25  1  0  0  0
  2 87  1  0  0  0
  2 88  1  0  0  0
  3  4  1  0  0  0
  3 89  1  0  0  0
  3 90  1  0  0  0
  4  5  1  0  0  0
  4 91  1  0  0  0
  4 92  1  0  0  0
  5  6  1  0  0  0
  5 26  1  0  0  0
  5 93  1  0  0  0
  6 25  1  0  0  0
  6 94  1  0  0  0
  6 95  1  0  0  0
  7  8  2  0  0  0
  7 26  1  0  0  0
  7 29  1  0  0  0
  8  9  1  0  0  0
  8 22  1  0  0  0
  9 10  1  0  0  0
  9 27  2  0  0  0
 10 11  2  0  0  0
 10 15  1  0  0  0
 11 12  1  0  0  0
 11 96  1  0  0  0
 12 13  2  0  0  0
 12 97  1  0  0  0
 13 14  1  0  0  0
 13 31  1  0  0  0
 14 15  2  0  0  0
 14 98  1  0  0  0
 15 99  1  0  0  0
 16 17  2  0  0  0
 16 21  1  0  0  0
 16 31  1  0  0  0
 17 18  1  0  0  0
 17100  1  0  0  0
 18 19  2  0  0  0
 18101  1  0  0  0
 19 20  1  0  0  0
 19 24  1  0  0  0
 20 21  2  0  0  0
 20102  1  0  0  0
 21 23  1  0  0  0
 22 28  1  0  0  0
 22 32  2  0  0  0
 26 27  1  0  0  0
 28103  1  0  0  0
 28104  1  0  0  0
 29105  1  0  0  0
 29106  1  0  0  0
 33 34  1  0  0  0
 33 66  1  0  0  0
 33 70  2  0  0  0
 34 36  1  0  0  0
 34 59  1  0  0  0
 34107  1  0  0  0
 35 44  2  0  0  0
 35 45  1  0  0  0
 35 68  1  0  0  0
 36 56  1  0  0  0
 36108  1  0  0  0
 37 39  1  0  0  0
 37 47  1  0  0  0
 37 66  1  0  0  0
 37109  1  0  0  0
 38 43  2  0  0  0
 38 46  1  0  0  0
 38 47  1  0  0  0
 39 64  1  0  0  0
 39 67  2  0  0  0
 40 52  1  0  0  0
 40 53  2  0  0  0
 40 58  1  0  0  0
 41110  1  0  0  0
 41111  1  0  0  0
 41112  1  0  0  0
 41 48  1  0  0  0
 42 43  1  0  0  0
 42 66  1  0  0  0
 42113  1  0  0  0
 42114  1  0  0  0
 43 44  1  0  0  0
 44115  1  0  0  0
 45 46  2  0  0  0
 45116  1  0  0  0
 46117  1  0  0  0
 47118  1  0  0  0
 47119  1  0  0  0
 48 56  1  0  0  0
 48 65  1  0  0  0
 48120  1  0  0  0
 49 50  1  0  0  0
 49 53  1  0  0  0
 49 64  1  0  0  0
 49121  1  0  0  0
 50 51  1  0  0  0
 50122  1  0  0  0
 50123  1  0  0  0
 51 52  1  0  0  0
 51124  1  0  0  0
 51125  1  0  0  0
 52126  1  0  0  0
 52127  1  0  0  0
 53 54  1  0  0  0
 54 55  2  0  0  0
 54128  1  0  0  0
 55 57  1  0  0  0
 55129  1  0  0  0
 56 69  2  0  0  0
 57 58  2  0  0  0
 57130  1  0  0  0
 58131  1  0  0  0
 59 60  1  0  0  0
 59 61  1  0  0  0
 59 62  1  0  0  0
 60132  1  0  0  0
 60133  1  0  0  0
 60134  1  0  0  0
 61135  1  0  0  0
 61136  1  0  0  0
 61137  1  0  0  0
 62138  1  0  0  0
 62139  1  0  0  0
 62140  1  0  0  0
 63 65  1  0  0  0
 63141  1  0  0  0
 63142  1  0  0  0
 63143  1  0  0  0
 64144  1  0  0  0
 65145  1  0  0  0
 68 82  1  0  0  0
 71 72  2  0  0  0
 71 84  1  0  0  0
 71146  1  0  0  0
 72 83  1  0  0  0
 72 85  1  0  0  0
 73 74  1  0  0  0
 73 77  1  0  0  0
 73 84  2  0  0  0
 74 78  1  0  0  0
 74 85  2  0  0  0
 75 78  1  0  0  0
 75147  1  0  0  0
 75148  1  0  0  0
 75149  1  0  0  0
 76 79  1  0  0  0
 76150  1  0  0  0
 76151  1  0  0  0
 76152  1  0  0  0
 77 80  1  0  0  0
 77153  1  0  0  0
 77154  1  0  0  0
 78155  1  0  0  0
 78156  1  0  0  0
 79157  1  0  0  0
 79158  1  0  0  0
 79 83  1  0  0  0
 80 81  1  0  0  0
 80159  1  0  0  0
 80160  1  0  0  0
 81 82  1  0  0  0
 81161  1  0  0  0
 81162  1  0  0  0
 82163  1  0  0  0
 82164  1  0  0  0
 83 86  1  0  0  0
 83165  1  0  0  0
 86166  1  0  0  0
M  ISO  4   1 100  68 101  82 101  86 100
M  END
> <chiral flag>
0

> <version>
0

> <s_m_source_file>
/data/baiqing/PycharmProjects/Reinvent-master-3.2/result/LINK_invent/BTK/process_docking_weight1_custom_sum_contain_oxygen_bond_distance_aromatic_linkinvent_7_9_3/rearranged_h_0080.sdf

> <i_m_source_file_index>
72

> <r_mmod_Potential_Energy-OPLS-2005>
-18.0000534057617

> <r_mmod_Stretch_Energy-OPLS-2005>
39.6221008300781

> <r_mmod_Bend_Energy-OPLS-2005>
103.394905090332

> <r_mmod_Torsional_Energy-OPLS-2005>
234.874389648438

> <r_mmod_Improper_Torsional_Energy-OPLS-2005>
12.195481300354

> <r_mmod_Van_der_Waal_Energy-OPLS-2005>
150.744064331055

> <r_mmod_Electrostatic_Energy-OPLS-2005>
-378.62939453125

> <r_mmod_Solvation_Energy-OPLS-2005>
-199.64338684082

> <b_mmod_Minimization_Converged-OPLS-2005>
0

> <r_mmod_RMS_Derivative-OPLS-2005>
2.58775806427002

$$$$
75
                    3D
 Structure written by MMmdl.
165173  0  0  1  0            999 V2000
  -30.6683  -14.7032   20.3773 C   0  0  0  0  0  0
  -30.4144  -12.4146   19.4558 C   0  0  0  0  0  0
  -29.4897  -12.4437   18.2197 C   0  0  0  0  0  0
  -28.0095  -12.3314   18.6315 C   0  0  0  0  0  0
  -27.6280  -13.2289   19.8408 C   0  0  2  0  0  0
  -28.6871  -13.1811   20.9573 C   0  0  0  0  0  0
  -25.2470  -13.8150   20.5746 C   0  0  0  0  0  0
  -24.1780  -13.0390   20.9223 C   0  0  0  0  0  0
  -24.6391  -11.6884   20.8775 C   0  0  0  0  0  0
  -23.9076  -10.4273   21.0406 C   0  0  0  0  0  0
  -24.3627   -9.4194   21.9186 C   0  0  0  0  0  0
  -23.6297   -8.2247   22.0774 C   0  0  0  0  0  0
  -22.4267   -8.0292   21.3557 C   0  0  0  0  0  0
  -21.9910   -9.0256   20.4639 C   0  0  0  0  0  0
  -22.7254  -10.2120   20.3059 C   0  0  0  0  0  0
  -21.6876   -6.0729   22.5287 C   0  0  0  0  0  0
  -21.4015   -6.5618   23.8213 C   0  0  0  0  0  0
  -21.3673   -5.6769   24.9182 C   0  0  0  0  0  0
  -21.6068   -4.3038   24.7240 C   0  0  0  0  0  0
  -21.8837   -3.8127   23.4358 C   0  0  0  0  0  0
  -21.9202   -4.6948   22.3414 C   0  0  0  0  0  0
  -22.7789  -13.5176   21.1836 C   0  0  0  0  0  0
  -22.1669   -4.2129   21.0988 F   0  0  0  0  0  0
  -21.5632   -3.4531   25.7752 F   0  0  0  0  0  0
  -29.9852  -13.5092   20.3582 N   0  0  0  0  0  0
  -26.2901  -12.9380   20.3350 N   0  0  0  0  0  0
  -25.9318  -11.6490   20.5816 N   0  0  0  0  0  0
  -22.0433  -12.8190   22.0398 N   0  0  0  0  0  0
  -25.3960  -15.1898   20.4167 N   0  0  0  0  0  0
  -31.8958  -14.6609   20.2792 O   0  0  0  0  0  0
  -21.6664   -6.8863   21.4239 O   0  0  0  0  0  0
  -22.3479  -14.5475   20.6646 O   0  0  0  0  0  0
  -24.6270  -31.8571   23.2019 C   0  0  0  0  0  0
  -25.9126  -32.4746   23.8331 C   0  0  1  0  0  0
  -27.2012  -27.2836   20.1363 C   0  0  0  0  0  0
  -25.5938  -33.8549   24.2265 N   0  0  0  0  0  0
  -23.4194  -30.4809   21.5462 C   0  0  2  0  0  0
  -24.8648  -28.9436   20.1045 C   0  0  0  0  0  0
  -22.7456  -29.4599   22.4945 C   0  0  0  0  0  0
  -18.0283  -28.1358   22.8476 C   0  0  0  0  0  0
  -24.1495  -36.7289   23.2631 C   0  0  0  0  0  0
  -25.9639  -30.7779   21.3806 C   0  0  0  0  0  0
  -26.0348  -29.4060   20.7198 C   0  0  0  0  0  0
  -27.2070  -28.5874   20.7283 C   0  0  0  0  0  0
  -26.0170  -26.9018   19.4602 C   0  0  0  0  0  0
  -24.8616  -27.7005   19.4596 C   0  0  0  0  0  0
  -23.6312  -29.8183   20.1611 C   0  0  0  0  0  0
  -25.4124  -36.3071   24.0320 C   0  0  1  0  0  0
  -20.5874  -28.3665   23.1263 C   0  0  2  0  0  0
  -20.6768  -26.9391   22.5380 C   0  0  0  0  0  0
  -19.5747  -26.6375   21.5174 C   0  0  0  0  0  0
  -18.1926  -26.7904   22.1598 C   0  0  0  0  0  0
  -19.1532  -28.8841   23.2860 C   0  0  0  0  0  0
  -18.9457  -30.1455   23.8859 C   0  0  0  0  0  0
  -17.6459  -30.6568   24.0549 C   0  0  0  0  0  0
  -25.9064  -34.9429   23.5102 C   0  0  0  0  0  0
  -16.5354  -29.9047   23.6347 C   0  0  0  0  0  0
  -16.7269  -28.6467   23.0359 C   0  0  0  0  0  0
  -26.4524  -31.6537   25.0684 C   0  0  0  0  0  0
  -25.3769  -31.3619   26.1400 C   0  0  0  0  0  0
  -27.0395  -30.2966   24.6148 C   0  0  0  0  0  0
  -27.6080  -32.4255   25.7485 C   0  0  0  0  0  0
  -27.5594  -37.1798   24.8462 C   0  0  0  0  0  0
  -21.4176  -29.3033   22.3678 N   0  0  0  0  0  0
  -26.4304  -37.3766   23.9408 N   0  0  0  0  0  0
  -24.6895  -31.0545   22.0998 N   0  0  0  0  0  0
  -23.4176  -28.8146   23.3027 O   0  0  0  0  0  0
  -28.2695  -26.3654   20.2441 O   0  0  0  0  0  0
  -26.5618  -34.8905   22.4663 O   0  0  0  0  0  0
  -23.5435  -32.1386   23.7346 O   0  0  0  0  0  0
  -26.9393  -19.6437   19.7717 C   0  0  0  0  0  0
  -28.3174  -18.1824   20.3887 C   0  0  0  0  0  0
  -28.6289  -17.5503   23.4363 C   0  0  0  0  0  0
  -28.8832  -16.5709   22.2806 C   0  0  0  0  0  0
  -28.1863  -22.2320   20.4279 C   0  0  0  0  0  0
  -28.8224  -23.6898   20.6579 C   0  0  0  0  0  0
  -28.8968  -20.8230   20.8052 C   0  0  0  0  0  0
  -29.5832  -16.2127   18.4728 C   0  0  0  0  0  0
  -27.9027  -24.9140   20.1796 C   0  0  0  0  0  0
  -29.4104  -17.2378   20.9848 C   0  0  1  0  0  0
  -30.0534  -16.1427   19.9659 C   0  0  1  0  0  0
  -26.3667  -18.4902   19.4474 N   0  0  0  0  0  0
  -27.2605  -17.5449   19.8553 N   0  0  0  0  0  0
  -28.1524  -19.5775   20.3628 N   0  0  0  0  0  0
  -30.5652  -15.7260   17.4764 N   0  3  0  0  0  0
  -31.4548  -12.5110   19.1386 H   0  0  0  0  0  0
  -30.3452  -11.4513   19.9613 H   0  0  0  0  0  0
  -29.7424  -11.6352   17.5321 H   0  0  0  0  0  0
  -29.6319  -13.3557   17.6496 H   0  0  0  0  0  0
  -27.8173  -11.2823   18.8595 H   0  0  0  0  0  0
  -27.3707  -12.5670   17.7788 H   0  0  0  0  0  0
  -27.5955  -14.2473   19.4687 H   0  0  0  0  0  0
  -28.7236  -12.1901   21.4099 H   0  0  0  0  0  0
  -28.4376  -13.8707   21.7624 H   0  0  0  0  0  0
  -25.2778   -9.5671   22.4734 H   0  0  0  0  0  0
  -24.0021   -7.4641   22.7489 H   0  0  0  0  0  0
  -21.0860   -8.8751   19.8914 H   0  0  0  0  0  0
  -22.3746  -10.9640   19.6134 H   0  0  0  0  0  0
  -21.1995   -7.6120   23.9707 H   0  0  0  0  0  0
  -21.1472   -6.0499   25.9069 H   0  0  0  0  0  0
  -22.0603   -2.7592   23.2879 H   0  0  0  0  0  0
  -22.4027  -11.9883   22.4850 H   0  0  0  0  0  0
  -21.1019  -13.1159   22.2529 H   0  0  0  0  0  0
  -24.6020  -15.8141   20.5113 H   0  0  0  0  0  0
  -26.2289  -15.6909   20.1215 H   0  0  0  0  0  0
  -26.7168  -32.5414   23.1051 H   0  0  0  0  0  0
  -25.0097  -33.9675   25.0418 H   0  0  0  0  0  0
  -22.7170  -31.3059   21.4054 H   0  0  0  0  0  0
  -23.3763  -35.9614   23.3258 H   0  0  0  0  0  0
  -24.3586  -36.8956   22.2055 H   0  0  0  0  0  0
  -23.7247  -37.6477   23.6683 H   0  0  0  0  0  0
  -26.0980  -31.5431   20.6166 H   0  0  0  0  0  0
  -26.8412  -30.8221   22.0141 H   0  0  0  0  0  0
  -28.0968  -28.9255   21.2411 H   0  0  0  0  0  0
  -25.9375  -25.9579   18.9411 H   0  0  0  0  0  0
  -23.9700  -27.3474   18.9592 H   0  0  0  0  0  0
  -23.7374  -30.5928   19.4010 H   0  0  0  0  0  0
  -22.7546  -29.2397   19.8642 H   0  0  0  0  0  0
  -25.1315  -36.1914   25.0812 H   0  0  0  0  0  0
  -20.9948  -28.3219   24.1390 H   0  0  0  0  0  0
  -20.5640  -26.2275   23.3568 H   0  0  0  0  0  0
  -21.6641  -26.7410   22.1197 H   0  0  0  0  0  0
  -19.6915  -25.6283   21.1207 H   0  0  0  0  0  0
  -19.6683  -27.3189   20.6694 H   0  0  0  0  0  0
  -17.4191  -26.6644   21.4003 H   0  0  0  0  0  0
  -18.0349  -26.0028   22.8979 H   0  0  0  0  0  0
  -19.7941  -30.7288   24.2178 H   0  0  0  0  0  0
  -17.5009  -31.6247   24.5146 H   0  0  0  0  0  0
  -15.5344  -30.2939   23.7692 H   0  0  0  0  0  0
  -15.8662  -28.0778   22.7092 H   0  0  0  0  0  0
  -24.5980  -30.6937   25.7698 H   0  0  0  0  0  0
  -24.8917  -32.2751   26.4849 H   0  0  0  0  0  0
  -25.8104  -30.8773   27.0158 H   0  0  0  0  0  0
  -26.2967  -29.6670   24.1228 H   0  0  0  0  0  0
  -27.4162  -29.7255   25.4646 H   0  0  0  0  0  0
  -27.8811  -30.4253   23.9334 H   0  0  0  0  0  0
  -27.2703  -33.3567   26.2049 H   0  0  0  0  0  0
  -28.3927  -32.6776   25.0336 H   0  0  0  0  0  0
  -28.0701  -31.8362   26.5420 H   0  0  0  0  0  0
  -28.2578  -38.0125   24.7557 H   0  0  0  0  0  0
  -28.1132  -36.2661   24.6252 H   0  0  0  0  0  0
  -27.2294  -37.1397   25.8853 H   0  0  0  0  0  0
  -20.9340  -29.8791   21.6933 H   0  0  0  0  0  0
  -26.0183  -38.2846   24.1394 H   0  0  0  0  0  0
  -26.4180  -20.5678   19.5659 H   0  0  0  0  0  0
  -28.2166  -17.0214   24.2985 H   0  0  0  0  0  0
  -27.9172  -18.3314   23.1642 H   0  0  0  0  0  0
  -29.5585  -18.0265   23.7534 H   0  0  0  0  0  0
  -27.9544  -16.0441   22.0604 H   0  0  0  0  0  0
  -29.5814  -15.8163   22.6441 H   0  0  0  0  0  0
  -27.9551  -22.1943   19.3636 H   0  0  0  0  0  0
  -27.2212  -22.2498   20.9378 H   0  0  0  0  0  0
  -29.7773  -23.7384   20.1358 H   0  0  0  0  0  0
  -29.0522  -23.8166   21.7167 H   0  0  0  0  0  0
  -29.0195  -20.7610   21.8878 H   0  0  0  0  0  0
  -29.8997  -20.7799   20.3786 H   0  0  0  0  0  0
  -29.3957  -17.2477   18.1817 H   0  0  0  0  0  0
  -28.6368  -15.6957   18.3267 H   0  0  0  0  0  0
  -26.9739  -24.8016   20.7421 H   0  0  0  0  0  0
  -27.6580  -24.6995   19.1397 H   0  0  0  0  0  0
  -30.2248  -17.8989   21.2898 H   0  0  0  0  0  0
  -30.9936  -16.6810   19.8314 H   0  0  0  0  0  0
  -31.3993  -16.2878   17.4837 H   0  0  0  0  0  0
  -30.1669  -15.7841   16.5549 H   0  0  0  0  0  0
  -30.8325  -14.7707   17.6332 H   0  0  0  0  0  0
  1 25  1  0  0  0
  1 30  2  0  0  0
  1 81  1  0  0  0
  2  3  1  0  0  0
  2 25  1  0  0  0
  2 86  1  0  0  0
  2 87  1  0  0  0
  3  4  1  0  0  0
  3 88  1  0  0  0
  3 89  1  0  0  0
  4  5  1  0  0  0
  4 90  1  0  0  0
  4 91  1  0  0  0
  5  6  1  0  0  0
  5 26  1  0  0  0
  5 92  1  0  0  0
  6 25  1  0  0  0
  6 93  1  0  0  0
  6 94  1  0  0  0
  7  8  2  0  0  0
  7 26  1  0  0  0
  7 29  1  0  0  0
  8  9  1  0  0  0
  8 22  1  0  0  0
  9 10  1  0  0  0
  9 27  2  0  0  0
 10 11  2  0  0  0
 10 15  1  0  0  0
 11 12  1  0  0  0
 11 95  1  0  0  0
 12 13  2  0  0  0
 12 96  1  0  0  0
 13 14  1  0  0  0
 13 31  1  0  0  0
 14 15  2  0  0  0
 14 97  1  0  0  0
 15 98  1  0  0  0
 16 17  2  0  0  0
 16 21  1  0  0  0
 16 31  1  0  0  0
 17 18  1  0  0  0
 17 99  1  0  0  0
 18 19  2  0  0  0
 18100  1  0  0  0
 19 20  1  0  0  0
 19 24  1  0  0  0
 20 21  2  0  0  0
 20101  1  0  0  0
 21 23  1  0  0  0
 22 28  1  0  0  0
 22 32  2  0  0  0
 26 27  1  0  0  0
 28102  1  0  0  0
 28103  1  0  0  0
 29104  1  0  0  0
 29105  1  0  0  0
 33 34  1  0  0  0
 33 66  1  0  0  0
 33 70  2  0  0  0
 34 36  1  0  0  0
 34 59  1  0  0  0
 34106  1  0  0  0
 35 44  2  0  0  0
 35 45  1  0  0  0
 35 68  1  0  0  0
 36 56  1  0  0  0
 36107  1  0  0  0
 37 39  1  0  0  0
 37 47  1  0  0  0
 37 66  1  0  0  0
 37108  1  0  0  0
 38 43  2  0  0  0
 38 46  1  0  0  0
 38 47  1  0  0  0
 39 64  1  0  0  0
 39 67  2  0  0  0
 40 52  1  0  0  0
 40 53  2  0  0  0
 40 58  1  0  0  0
 41109  1  0  0  0
 41110  1  0  0  0
 41111  1  0  0  0
 41 48  1  0  0  0
 42 43  1  0  0  0
 42 66  1  0  0  0
 42112  1  0  0  0
 42113  1  0  0  0
 43 44  1  0  0  0
 44114  1  0  0  0
 45 46  2  0  0  0
 45115  1  0  0  0
 46116  1  0  0  0
 47117  1  0  0  0
 47118  1  0  0  0
 48 56  1  0  0  0
 48 65  1  0  0  0
 48119  1  0  0  0
 49 50  1  0  0  0
 49 53  1  0  0  0
 49 64  1  0  0  0
 49120  1  0  0  0
 50 51  1  0  0  0
 50121  1  0  0  0
 50122  1  0  0  0
 51 52  1  0  0  0
 51123  1  0  0  0
 51124  1  0  0  0
 52125  1  0  0  0
 52126  1  0  0  0
 53 54  1  0  0  0
 54 55  2  0  0  0
 54127  1  0  0  0
 55 57  1  0  0  0
 55128  1  0  0  0
 56 69  2  0  0  0
 57 58  2  0  0  0
 57129  1  0  0  0
 58130  1  0  0  0
 59 60  1  0  0  0
 59 61  1  0  0  0
 59 62  1  0  0  0
 60131  1  0  0  0
 60132  1  0  0  0
 60133  1  0  0  0
 61134  1  0  0  0
 61135  1  0  0  0
 61136  1  0  0  0
 62137  1  0  0  0
 62138  1  0  0  0
 62139  1  0  0  0
 63 65  1  0  0  0
 63140  1  0  0  0
 63141  1  0  0  0
 63142  1  0  0  0
 64143  1  0  0  0
 65144  1  0  0  0
 68 79  1  0  0  0
 71 82  2  0  0  0
 71 84  1  0  0  0
 71145  1  0  0  0
 72 80  1  0  0  0
 72 83  2  0  0  0
 72 84  1  0  0  0
 73 74  1  0  0  0
 73146  1  0  0  0
 73147  1  0  0  0
 73148  1  0  0  0
 74149  1  0  0  0
 74150  1  0  0  0
 74 80  1  0  0  0
 75 76  1  0  0  0
 75 77  1  0  0  0
 75151  1  0  0  0
 75152  1  0  0  0
 76 79  1  0  0  0
 76153  1  0  0  0
 76154  1  0  0  0
 77 84  1  0  0  0
 77155  1  0  0  0
 77156  1  0  0  0
 78 85  1  0  0  0
 78157  1  0  0  0
 78158  1  0  0  0
 78 81  1  0  0  0
 79159  1  0  0  0
 79160  1  0  0  0
 80 81  1  0  0  0
 80161  1  0  0  0
 81162  1  0  0  0
 82 83  1  0  0  0
 85163  1  0  0  0
 85164  1  0  0  0
 85165  1  0  0  0
M  CHG  1  85   1
M  ISO  4   1 100  68 101  79 101  81 100
M  END
> <chiral flag>
0

> <version>
0

> <s_m_source_file>
/data/baiqing/PycharmProjects/Reinvent-master-3.2/result/LINK_invent/BTK/process_docking_weight1_custom_sum_contain_oxygen_bond_distance_aromatic_linkinvent_7_9_3/rearranged_h_0080.sdf

> <i_m_source_file_index>
73

> <r_mmod_Potential_Energy-OPLS-2005>
38.1466979980469

> <r_mmod_Stretch_Energy-OPLS-2005>
122.333381652832

> <r_mmod_Bend_Energy-OPLS-2005>
244.351013183594

> <r_mmod_Torsional_Energy-OPLS-2005>
218.64030456543

> <r_mmod_Improper_Torsional_Energy-OPLS-2005>
15.8377523422241

> <r_mmod_Van_der_Waal_Energy-OPLS-2005>
127.568481445312

> <r_mmod_Electrostatic_Energy-OPLS-2005>
-305.408050537109

> <r_mmod_Solvation_Energy-OPLS-2005>
-472.955474853516

> <b_mmod_Minimization_Converged-OPLS-2005>
0

> <r_mmod_RMS_Derivative-OPLS-2005>
4.69455766677856

$$$$
76
                    3D
 Structure written by MMmdl.
166174  0  0  1  0            999 V2000
  -30.5456  -14.9679   20.4293 C   0  0  0  0  0  0
  -30.4472  -12.6001   19.5093 C   0  0  0  0  0  0
  -29.5261  -12.5297   18.2675 C   0  0  0  0  0  0
  -28.0611  -12.3111   18.6892 C   0  0  0  0  0  0
  -27.6364  -13.2484   19.8478 C   0  0  2  0  0  0
  -28.6793  -13.2879   20.9868 C   0  0  0  0  0  0
  -25.2501  -13.8254   20.5784 C   0  0  0  0  0  0
  -24.1802  -13.0466   20.9278 C   0  0  0  0  0  0
  -24.6417  -11.6957   20.8792 C   0  0  0  0  0  0
  -23.9102  -10.4316   21.0426 C   0  0  0  0  0  0
  -24.3649   -9.4224   21.9194 C   0  0  0  0  0  0
  -23.6325   -8.2260   22.0745 C   0  0  0  0  0  0
  -22.4299   -8.0313   21.3542 C   0  0  0  0  0  0
  -21.9951   -9.0286   20.4635 C   0  0  0  0  0  0
  -22.7285  -10.2164   20.3060 C   0  0  0  0  0  0
  -21.6843   -6.0761   22.5287 C   0  0  0  0  0  0
  -21.4006   -6.5658   23.8227 C   0  0  0  0  0  0
  -21.3662   -5.6801   24.9190 C   0  0  0  0  0  0
  -21.6044   -4.3060   24.7225 C   0  0  0  0  0  0
  -21.8816   -3.8166   23.4338 C   0  0  0  0  0  0
  -21.9199   -4.6994   22.3406 C   0  0  0  0  0  0
  -22.7821  -13.5234   21.1923 C   0  0  0  0  0  0
  -22.1663   -4.2184   21.0977 F   0  0  0  0  0  0
  -21.5639   -3.4545   25.7733 F   0  0  0  0  0  0
  -29.9560  -13.7021   20.3912 N   0  0  0  0  0  0
  -26.2924  -12.9473   20.3319 N   0  0  0  0  0  0
  -25.9351  -11.6590   20.5793 N   0  0  0  0  0  0
  -22.0459  -12.8195   22.0444 N   0  0  0  0  0  0
  -25.4199  -15.1985   20.4248 N   0  0  0  0  0  0
  -31.7420  -15.0327   20.1307 O   0  0  0  0  0  0
  -21.6645   -6.8916   21.4247 O   0  0  0  0  0  0
  -22.3508  -14.5539   20.6784 O   0  0  0  0  0  0
  -24.6527  -31.8456   23.1913 C   0  0  0  0  0  0
  -25.9310  -32.4665   23.8288 C   0  0  1  0  0  0
  -27.2083  -27.0811   20.1559 C   0  0  0  0  0  0
  -25.6072  -33.8483   24.2248 N   0  0  0  0  0  0
  -23.4524  -30.4682   21.5428 C   0  0  2  0  0  0
  -24.8988  -28.8912   20.1243 C   0  0  0  0  0  0
  -22.7549  -29.4610   22.4919 C   0  0  0  0  0  0
  -18.0279  -28.1486   22.8464 C   0  0  0  0  0  0
  -24.1474  -36.7177   23.2632 C   0  0  0  0  0  0
  -26.0180  -30.6925   21.4076 C   0  0  0  0  0  0
  -26.0791  -29.3017   20.7514 C   0  0  0  0  0  0
  -27.2274  -28.4095   20.7625 C   0  0  0  0  0  0
  -26.0242  -26.8428   19.4199 C   0  0  0  0  0  0
  -24.8873  -27.6707   19.4455 C   0  0  0  0  0  0
  -23.6751  -29.7917   20.1668 C   0  0  0  0  0  0
  -25.4125  -36.3007   24.0306 C   0  0  1  0  0  0
  -20.5889  -28.3810   23.1214 C   0  0  2  0  0  0
  -20.6785  -26.9525   22.5394 C   0  0  0  0  0  0
  -19.5764  -26.6475   21.5193 C   0  0  0  0  0  0
  -18.1945  -26.8016   22.1602 C   0  0  0  0  0  0
  -19.1536  -28.8959   23.2828 C   0  0  0  0  0  0
  -18.9459  -30.1552   23.8866 C   0  0  0  0  0  0
  -17.6462  -30.6657   24.0590 C   0  0  0  0  0  0
  -25.9100  -34.9397   23.5071 C   0  0  0  0  0  0
  -16.5352  -29.9157   23.6369 C   0  0  0  0  0  0
  -16.7264  -28.6589   23.0358 C   0  0  0  0  0  0
  -26.4619  -31.6487   25.0694 C   0  0  0  0  0  0
  -25.3777  -31.3648   26.1330 C   0  0  0  0  0  0
  -27.0476  -30.2847   24.6352 C   0  0  0  0  0  0
  -27.6179  -32.4231   25.7443 C   0  0  0  0  0  0
  -27.5574  -37.1741   24.8489 C   0  0  0  0  0  0
  -21.4252  -29.3099   22.3559 N   0  0  0  0  0  0
  -26.4298  -37.3726   23.9403 N   0  0  0  0  0  0
  -24.7285  -31.0255   22.0989 N   0  0  0  0  0  0
  -23.4150  -28.8184   23.3123 O   0  0  0  0  0  0
  -28.2442  -26.0497   20.2206 O   0  0  0  0  0  0
  -26.5640  -34.8886   22.4611 O   0  0  0  0  0  0
  -23.5638  -32.1390   23.7107 O   0  0  0  0  0  0
  -28.2718  -20.5761   22.2391 C   0  0  0  0  0  0
  -28.0493  -19.4147   22.9266 C   0  0  0  0  0  0
  -29.2458  -18.8799   21.0852 C   0  0  0  0  0  0
  -26.5479  -20.3772   24.6909 C   0  0  0  0  0  0
  -28.2895  -18.6344   25.2746 C   0  0  0  0  0  0
  -29.7170  -17.8947   18.7403 C   0  0  0  0  0  0
  -27.1570  -23.9400   19.1249 C   0  0  0  0  0  0
  -29.1463  -23.2376   20.6175 C   0  0  0  0  0  0
  -29.2240  -21.5685   20.1580 C   0  0  0  0  0  0
  -27.3135  -19.1361   24.2043 C   0  0  0  0  0  0
  -29.9917  -17.6954   20.2371 C   0  0  2  0  0  0
  -28.0031  -24.4681   20.2954 C   0  0  1  0  0  0
  -28.9893  -20.3050   21.1008 N   0  0  0  0  0  0
  -28.6658  -18.4326   22.2068 N   0  3  0  0  0  0
  -29.7591  -16.1517   20.5884 N   0  0  0  0  0  0
  -31.4770  -12.7623   19.1879 H   0  0  0  0  0  0
  -30.4505  -11.6499   20.0450 H   0  0  0  0  0  0
  -29.8470  -11.7282   17.6001 H   0  0  0  0  0  0
  -29.6087  -13.4567   17.6974 H   0  0  0  0  0  0
  -27.9652  -11.2737   19.0071 H   0  0  0  0  0  0
  -27.3951  -12.4322   17.8351 H   0  0  0  0  0  0
  -27.6008  -14.2483   19.4146 H   0  0  0  0  0  0
  -28.7716  -12.3181   21.4786 H   0  0  0  0  0  0
  -28.3763  -13.9953   21.7606 H   0  0  0  0  0  0
  -25.2786   -9.5698   22.4787 H   0  0  0  0  0  0
  -24.0043   -7.4629   22.7432 H   0  0  0  0  0  0
  -21.0908   -8.8812   19.8908 H   0  0  0  0  0  0
  -22.3756  -10.9724   19.6185 H   0  0  0  0  0  0
  -21.1968   -7.6162   23.9750 H   0  0  0  0  0  0
  -21.1489   -6.0518   25.9095 H   0  0  0  0  0  0
  -22.0585   -2.7633   23.2825 H   0  0  0  0  0  0
  -22.4058  -11.9844   22.4818 H   0  0  0  0  0  0
  -21.1060  -13.1183   22.2625 H   0  0  0  0  0  0
  -24.6529  -15.8513   20.5506 H   0  0  0  0  0  0
  -26.2526  -15.6370   20.0571 H   0  0  0  0  0  0
  -26.7346  -32.5214   23.0977 H   0  0  0  0  0  0
  -25.0217  -33.9591   25.0401 H   0  0  0  0  0  0
  -22.7601  -31.2975   21.3889 H   0  0  0  0  0  0
  -23.3756  -35.9489   23.3312 H   0  0  0  0  0  0
  -24.3542  -36.8786   22.2040 H   0  0  0  0  0  0
  -23.7203  -37.6374   23.6644 H   0  0  0  0  0  0
  -26.1970  -31.4420   20.6378 H   0  0  0  0  0  0
  -26.8815  -30.7283   22.0599 H   0  0  0  0  0  0
  -28.1171  -28.7172   21.2938 H   0  0  0  0  0  0
  -25.9323  -26.0105   18.7566 H   0  0  0  0  0  0
  -24.0008  -27.3740   18.9022 H   0  0  0  0  0  0
  -23.8030  -30.5581   19.4027 H   0  0  0  0  0  0
  -22.7851  -29.2311   19.8685 H   0  0  0  0  0  0
  -25.1313  -36.1847   25.0808 H   0  0  0  0  0  0
  -20.9979  -28.3440   24.1326 H   0  0  0  0  0  0
  -20.5715  -26.2451   23.3638 H   0  0  0  0  0  0
  -21.6658  -26.7578   22.1183 H   0  0  0  0  0  0
  -19.6974  -25.6390   21.1238 H   0  0  0  0  0  0
  -19.6706  -27.3250   20.6694 H   0  0  0  0  0  0
  -17.4235  -26.6728   21.4019 H   0  0  0  0  0  0
  -18.0398  -26.0176   22.9004 H   0  0  0  0  0  0
  -19.7916  -30.7381   24.2244 H   0  0  0  0  0  0
  -17.4999  -31.6300   24.5242 H   0  0  0  0  0  0
  -15.5363  -30.3065   23.7741 H   0  0  0  0  0  0
  -15.8636  -28.0924   22.7115 H   0  0  0  0  0  0
  -24.6072  -30.6866   25.7609 H   0  0  0  0  0  0
  -24.8816  -32.2783   26.4621 H   0  0  0  0  0  0
  -25.8044  -30.8926   27.0171 H   0  0  0  0  0  0
  -26.3115  -29.6514   24.1362 H   0  0  0  0  0  0
  -27.3998  -29.7218   25.5004 H   0  0  0  0  0  0
  -27.9079  -30.3954   23.9739 H   0  0  0  0  0  0
  -27.2862  -33.3608   26.1888 H   0  0  0  0  0  0
  -28.4039  -32.6644   25.0281 H   0  0  0  0  0  0
  -28.0746  -31.8403   26.5461 H   0  0  0  0  0  0
  -28.2638  -38.0003   24.7567 H   0  0  0  0  0  0
  -28.1051  -36.2548   24.6333 H   0  0  0  0  0  0
  -27.2268  -37.1387   25.8890 H   0  0  0  0  0  0
  -20.9567  -29.8663   21.6554 H   0  0  0  0  0  0
  -26.0155  -38.2794   24.1407 H   0  0  0  0  0  0
  -27.9496  -21.5794   22.4806 H   0  0  0  0  0  0
  -25.8161  -20.7036   23.9510 H   0  0  0  0  0  0
  -27.2247  -21.2097   24.8896 H   0  0  0  0  0  0
  -26.0023  -20.1683   25.6132 H   0  0  0  0  0  0
  -28.7819  -17.7130   24.9648 H   0  0  0  0  0  0
  -27.7744  -18.4298   26.2134 H   0  0  0  0  0  0
  -29.0578  -19.3810   25.4700 H   0  0  0  0  0  0
  -30.0042  -18.8960   18.4117 H   0  0  0  0  0  0
  -28.6580  -17.7639   18.5169 H   0  0  0  0  0  0
  -30.2738  -17.1799   18.1349 H   0  0  0  0  0  0
  -26.0996  -24.1340   19.2867 H   0  0  0  0  0  0
  -27.1672  -22.8587   19.0370 H   0  0  0  0  0  0
  -27.4874  -24.3514   18.1721 H   0  0  0  0  0  0
  -30.0398  -23.6549   20.1541 H   0  0  0  0  0  0
  -29.3980  -23.2969   21.6761 H   0  0  0  0  0  0
  -30.2353  -21.4143   19.7812 H   0  0  0  0  0  0
  -28.6071  -21.3828   19.2839 H   0  0  0  0  0  0
  -26.5860  -18.3498   24.0029 H   0  0  0  0  0  0
  -31.0531  -17.8826   20.4082 H   0  0  0  0  0  0
  -27.3477  -24.3950   21.1664 H   0  0  0  0  0  0
  -28.6901  -17.4599   22.4816 H   0  0  0  0  0  0
  -28.7949  -15.9296   20.7768 H   0  0  0  0  0  0
  1 25  1  0  0  0
  1 30  2  0  0  0
  1 85  1  0  0  0
  2  3  1  0  0  0
  2 25  1  0  0  0
  2 86  1  0  0  0
  2 87  1  0  0  0
  3  4  1  0  0  0
  3 88  1  0  0  0
  3 89  1  0  0  0
  4  5  1  0  0  0
  4 90  1  0  0  0
  4 91  1  0  0  0
  5  6  1  0  0  0
  5 26  1  0  0  0
  5 92  1  0  0  0
  6 25  1  0  0  0
  6 93  1  0  0  0
  6 94  1  0  0  0
  7  8  2  0  0  0
  7 26  1  0  0  0
  7 29  1  0  0  0
  8  9  1  0  0  0
  8 22  1  0  0  0
  9 10  1  0  0  0
  9 27  2  0  0  0
 10 11  2  0  0  0
 10 15  1  0  0  0
 11 12  1  0  0  0
 11 95  1  0  0  0
 12 13  2  0  0  0
 12 96  1  0  0  0
 13 14  1  0  0  0
 13 31  1  0  0  0
 14 15  2  0  0  0
 14 97  1  0  0  0
 15 98  1  0  0  0
 16 17  2  0  0  0
 16 21  1  0  0  0
 16 31  1  0  0  0
 17 18  1  0  0  0
 17 99  1  0  0  0
 18 19  2  0  0  0
 18100  1  0  0  0
 19 20  1  0  0  0
 19 24  1  0  0  0
 20 21  2  0  0  0
 20101  1  0  0  0
 21 23  1  0  0  0
 22 28  1  0  0  0
 22 32  2  0  0  0
 26 27  1  0  0  0
 28102  1  0  0  0
 28103  1  0  0  0
 29104  1  0  0  0
 29105  1  0  0  0
 33 34  1  0  0  0
 33 66  1  0  0  0
 33 70  2  0  0  0
 34 36  1  0  0  0
 34 59  1  0  0  0
 34106  1  0  0  0
 35 44  2  0  0  0
 35 45  1  0  0  0
 35 68  1  0  0  0
 36 56  1  0  0  0
 36107  1  0  0  0
 37 39  1  0  0  0
 37 47  1  0  0  0
 37 66  1  0  0  0
 37108  1  0  0  0
 38 43  2  0  0  0
 38 46  1  0  0  0
 38 47  1  0  0  0
 39 64  1  0  0  0
 39 67  2  0  0  0
 40 52  1  0  0  0
 40 53  2  0  0  0
 40 58  1  0  0  0
 41109  1  0  0  0
 41110  1  0  0  0
 41111  1  0  0  0
 41 48  1  0  0  0
 42 43  1  0  0  0
 42 66  1  0  0  0
 42112  1  0  0  0
 42113  1  0  0  0
 43 44  1  0  0  0
 44114  1  0  0  0
 45 46  2  0  0  0
 45115  1  0  0  0
 46116  1  0  0  0
 47117  1  0  0  0
 47118  1  0  0  0
 48 56  1  0  0  0
 48 65  1  0  0  0
 48119  1  0  0  0
 49 50  1  0  0  0
 49 53  1  0  0  0
 49 64  1  0  0  0
 49120  1  0  0  0
 50 51  1  0  0  0
 50121  1  0  0  0
 50122  1  0  0  0
 51 52  1  0  0  0
 51123  1  0  0  0
 51124  1  0  0  0
 52125  1  0  0  0
 52126  1  0  0  0
 53 54  1  0  0  0
 54 55  2  0  0  0
 54127  1  0  0  0
 55 57  1  0  0  0
 55128  1  0  0  0
 56 69  2  0  0  0
 57 58  2  0  0  0
 57129  1  0  0  0
 58130  1  0  0  0
 59 60  1  0  0  0
 59 61  1  0  0  0
 59 62  1  0  0  0
 60131  1  0  0  0
 60132  1  0  0  0
 60133  1  0  0  0
 61134  1  0  0  0
 61135  1  0  0  0
 61136  1  0  0  0
 62137  1  0  0  0
 62138  1  0  0  0
 62139  1  0  0  0
 63 65  1  0  0  0
 63140  1  0  0  0
 63141  1  0  0  0
 63142  1  0  0  0
 64143  1  0  0  0
 65144  1  0  0  0
 68 82  1  0  0  0
 71 72  2  0  0  0
 71 83  1  0  0  0
 71145  1  0  0  0
 72 80  1  0  0  0
 72 84  1  0  0  0
 73 81  1  0  0  0
 73 83  1  0  0  0
 73 84  2  0  0  0
 74146  1  0  0  0
 74147  1  0  0  0
 74148  1  0  0  0
 74 80  1  0  0  0
 75 80  1  0  0  0
 75149  1  0  0  0
 75150  1  0  0  0
 75151  1  0  0  0
 76152  1  0  0  0
 76153  1  0  0  0
 76154  1  0  0  0
 76 81  1  0  0  0
 77155  1  0  0  0
 77156  1  0  0  0
 77157  1  0  0  0
 77 82  1  0  0  0
 78 79  1  0  0  0
 78 82  1  0  0  0
 78158  1  0  0  0
 78159  1  0  0  0
 79 83  1  0  0  0
 79160  1  0  0  0
 79161  1  0  0  0
 80162  1  0  0  0
 81 85  1  0  0  0
 81163  1  0  0  0
 82164  1  0  0  0
 84165  1  0  0  0
 85166  1  0  0  0
M  CHG  1  84   1
M  ISO  4   1 100  68 101  82 101  85 100
M  END
> <chiral flag>
0

> <version>
0

> <s_m_source_file>
/data/baiqing/PycharmProjects/Reinvent-master-3.2/result/LINK_invent/BTK/process_docking_weight1_custom_sum_contain_oxygen_bond_distance_aromatic_linkinvent_7_9_3/rearranged_h_0080.sdf

> <i_m_source_file_index>
74

> <r_mmod_Potential_Energy-OPLS-2005>
580.491821289062

> <r_mmod_Stretch_Energy-OPLS-2005>
334.224822998047

> <r_mmod_Bend_Energy-OPLS-2005>
350.650299072266

> <r_mmod_Torsional_Energy-OPLS-2005>
254.574859619141

> <r_mmod_Improper_Torsional_Energy-OPLS-2005>
5.43874168395996

> <r_mmod_Van_der_Waal_Energy-OPLS-2005>
118.030693054199

> <r_mmod_Electrostatic_Energy-OPLS-2005>
-279.338592529297

> <r_mmod_Solvation_Energy-OPLS-2005>
-426.379028320312

> <b_mmod_Minimization_Converged-OPLS-2005>
0

> <r_mmod_RMS_Derivative-OPLS-2005>
4.37651443481445

$$$$
77
                    3D
 Structure written by MMmdl.
160168  0  0  1  0            999 V2000
  -30.5784  -14.7638   20.4642 C   0  0  0  0  0  0
  -30.4447  -12.4724   19.4555 C   0  0  0  0  0  0
  -29.5103  -12.5050   18.2257 C   0  0  0  0  0  0
  -28.0363  -12.3249   18.6447 C   0  0  0  0  0  0
  -27.6410  -13.2241   19.8465 C   0  0  2  0  0  0
  -28.6913  -13.1488   20.9754 C   0  0  0  0  0  0
  -25.2520  -13.8175   20.5697 C   0  0  0  0  0  0
  -24.1807  -13.0428   20.9222 C   0  0  0  0  0  0
  -24.6387  -11.6903   20.8750 C   0  0  0  0  0  0
  -23.9074  -10.4276   21.0404 C   0  0  0  0  0  0
  -24.3624   -9.4198   21.9188 C   0  0  0  0  0  0
  -23.6297   -8.2238   22.0757 C   0  0  0  0  0  0
  -22.4281   -8.0277   21.3550 C   0  0  0  0  0  0
  -21.9918   -9.0253   20.4653 C   0  0  0  0  0  0
  -22.7241  -10.2132   20.3056 C   0  0  0  0  0  0
  -21.6849   -6.0733   22.5280 C   0  0  0  0  0  0
  -21.4011   -6.5637   23.8210 C   0  0  0  0  0  0
  -21.3659   -5.6789   24.9172 C   0  0  0  0  0  0
  -21.6044   -4.3053   24.7225 C   0  0  0  0  0  0
  -21.8819   -3.8147   23.4342 C   0  0  0  0  0  0
  -21.9196   -4.6962   22.3399 C   0  0  0  0  0  0
  -22.7828  -13.5218   21.1873 C   0  0  0  0  0  0
  -22.1654   -4.2148   21.0974 F   0  0  0  0  0  0
  -21.5639   -3.4532   25.7734 F   0  0  0  0  0  0
  -29.9841  -13.5235   20.3869 N   0  0  0  0  0  0
  -26.2933  -12.9365   20.3280 N   0  0  0  0  0  0
  -25.9317  -11.6516   20.5754 N   0  0  0  0  0  0
  -22.0473  -12.8209   22.0429 N   0  0  0  0  0  0
  -25.4204  -15.1908   20.4085 N   0  0  0  0  0  0
  -31.7793  -14.8958   20.2128 O   0  0  0  0  0  0
  -21.6642   -6.8875   21.4240 O   0  0  0  0  0  0
  -22.3509  -14.5522   20.6713 O   0  0  0  0  0  0
  -24.6322  -31.8540   23.1956 C   0  0  0  0  0  0
  -25.9137  -32.4751   23.8325 C   0  0  1  0  0  0
  -27.2296  -27.2588   20.1394 C   0  0  0  0  0  0
  -25.5930  -33.8551   24.2258 N   0  0  0  0  0  0
  -23.4312  -30.4731   21.5382 C   0  0  2  0  0  0
  -24.8807  -28.9098   20.1177 C   0  0  0  0  0  0
  -22.7510  -29.4600   22.4907 C   0  0  0  0  0  0
  -18.0293  -28.1388   22.8481 C   0  0  0  0  0  0
  -24.1483  -36.7284   23.2646 C   0  0  0  0  0  0
  -25.9761  -30.7646   21.3753 C   0  0  0  0  0  0
  -26.0518  -29.3828   20.7257 C   0  0  0  0  0  0
  -27.2315  -28.5710   20.7214 C   0  0  0  0  0  0
  -26.0385  -26.8446   19.5131 C   0  0  0  0  0  0
  -24.8787  -27.6466   19.5014 C   0  0  0  0  0  0
  -23.6516  -29.7988   20.1578 C   0  0  0  0  0  0
  -25.4107  -36.3068   24.0332 C   0  0  1  0  0  0
  -20.5902  -28.3696   23.1264 C   0  0  2  0  0  0
  -20.6774  -26.9410   22.5410 C   0  0  0  0  0  0
  -19.5756  -26.6378   21.5218 C   0  0  0  0  0  0
  -18.1933  -26.7930   22.1615 C   0  0  0  0  0  0
  -19.1547  -28.8860   23.2870 C   0  0  0  0  0  0
  -18.9467  -30.1462   23.8889 C   0  0  0  0  0  0
  -17.6464  -30.6586   24.0567 C   0  0  0  0  0  0
  -25.9052  -34.9439   23.5099 C   0  0  0  0  0  0
  -16.5357  -29.9080   23.6335 C   0  0  0  0  0  0
  -16.7278  -28.6499   23.0351 C   0  0  0  0  0  0
  -26.4494  -31.6581   25.0716 C   0  0  0  0  0  0
  -25.3712  -31.3737   26.1438 C   0  0  0  0  0  0
  -27.0354  -30.3008   24.6202 C   0  0  0  0  0  0
  -27.6052  -32.4326   25.7478 C   0  0  0  0  0  0
  -27.5572  -37.1797   24.8462 C   0  0  0  0  0  0
  -21.4214  -29.3058   22.3663 N   0  0  0  0  0  0
  -26.4279  -37.3772   23.9416 N   0  0  0  0  0  0
  -24.6992  -31.0496   22.0931 N   0  0  0  0  0  0
  -23.4206  -28.8154   23.3019 O   0  0  0  0  0  0
  -28.3277  -26.3718   20.1067 O   0  0  0  0  0  0
  -26.5628  -34.8920   22.4674 O   0  0  0  0  0  0
  -23.5468  -32.1359   23.7245 O   0  0  0  0  0  0
  -29.7314  -20.5303   22.3832 C   0  0  0  0  0  0
  -29.3032  -20.9871   21.1670 C   0  0  0  0  0  0
  -29.0997  -22.6301   22.7003 C   0  0  0  0  0  0
  -28.7764  -23.8060   23.5735 C   0  0  0  0  0  0
  -27.5095  -23.1102   19.3968 C   0  0  0  0  0  0
  -29.1632  -20.0066   19.9659 C   0  0  0  0  0  0
  -29.8731  -18.5197   19.8829 C   0  0  0  0  0  0
  -29.9120  -17.3386   20.9916 C   0  0  0  0  0  0
  -28.2649  -25.0853   20.8809 C   0  0  0  0  0  0
  -28.6247  -23.5655   20.3506 C   0  0  1  0  0  0
  -28.9867  -22.3981   21.3555 N   0  0  0  0  0  0
  -29.5872  -21.5327   23.2752 N   0  3  0  0  0  0
  -29.7357  -15.8547   20.6310 N   0  0  0  0  0  0
  -31.4776  -12.6322   19.1439 H   0  0  0  0  0  0
  -30.4179  -11.4934   19.9382 H   0  0  0  0  0  0
  -29.7971  -11.7289   17.5139 H   0  0  0  0  0  0
  -29.6272  -13.4556   17.7030 H   0  0  0  0  0  0
  -27.8967  -11.2755   18.9080 H   0  0  0  0  0  0
  -27.3776  -12.5150   17.7959 H   0  0  0  0  0  0
  -27.6336  -14.2458   19.4670 H   0  0  0  0  0  0
  -28.7403  -12.1420   21.3942 H   0  0  0  0  0  0
  -28.4274  -13.8109   21.8026 H   0  0  0  0  0  0
  -25.2769   -9.5681   22.4769 H   0  0  0  0  0  0
  -24.0011   -7.4622   22.7461 H   0  0  0  0  0  0
  -21.0863   -8.8764   19.8943 H   0  0  0  0  0  0
  -22.3698  -10.9679   19.6167 H   0  0  0  0  0  0
  -21.1987   -7.6139   23.9717 H   0  0  0  0  0  0
  -21.1488   -6.0514   25.9078 H   0  0  0  0  0  0
  -22.0604   -2.7611   23.2841 H   0  0  0  0  0  0
  -22.4089  -11.9864   22.4813 H   0  0  0  0  0  0
  -21.1086  -13.1225   22.2603 H   0  0  0  0  0  0
  -24.6511  -15.8418   20.5240 H   0  0  0  0  0  0
  -26.2565  -15.6323   20.0493 H   0  0  0  0  0  0
  -26.7206  -32.5396   23.1072 H   0  0  0  0  0  0
  -25.0081  -33.9689   25.0403 H   0  0  0  0  0  0
  -22.7301  -31.2961   21.3855 H   0  0  0  0  0  0
  -23.3749  -35.9611   23.3296 H   0  0  0  0  0  0
  -24.3584  -36.8915   22.2066 H   0  0  0  0  0  0
  -23.7228  -37.6478   23.6674 H   0  0  0  0  0  0
  -26.1129  -31.5188   20.5995 H   0  0  0  0  0  0
  -26.8561  -30.8205   22.0051 H   0  0  0  0  0  0
  -28.1330  -28.9347   21.1935 H   0  0  0  0  0  0
  -26.0048  -25.8760   19.0353 H   0  0  0  0  0  0
  -23.9840  -27.2764   19.0209 H   0  0  0  0  0  0
  -23.7820  -30.5705   19.3983 H   0  0  0  0  0  0
  -22.7695  -29.2321   19.8527 H   0  0  0  0  0  0
  -25.1294  -36.1908   25.0823 H   0  0  0  0  0  0
  -20.9999  -28.3260   24.1384 H   0  0  0  0  0  0
  -20.5657  -26.2326   23.3624 H   0  0  0  0  0  0
  -21.6642  -26.7420   22.1224 H   0  0  0  0  0  0
  -19.6912  -25.6291   21.1248 H   0  0  0  0  0  0
  -19.6674  -27.3189   20.6752 H   0  0  0  0  0  0
  -17.4208  -26.6696   21.3999 H   0  0  0  0  0  0
  -18.0295  -26.0070   22.9003 H   0  0  0  0  0  0
  -19.7944  -30.7284   24.2244 H   0  0  0  0  0  0
  -17.5016  -31.6259   24.5177 H   0  0  0  0  0  0
  -15.5362  -30.2981   23.7661 H   0  0  0  0  0  0
  -15.8677  -28.0821   22.7069 H   0  0  0  0  0  0
  -24.5907  -30.7053   25.7781 H   0  0  0  0  0  0
  -24.8872  -32.2902   26.4818 H   0  0  0  0  0  0
  -25.8027  -30.8960   27.0243 H   0  0  0  0  0  0
  -26.2947  -29.6742   24.1221 H   0  0  0  0  0  0
  -27.4055  -29.7277   25.4717 H   0  0  0  0  0  0
  -27.8804  -30.4313   23.9439 H   0  0  0  0  0  0
  -27.2675  -33.3644   26.2026 H   0  0  0  0  0  0
  -28.3862  -32.6861   25.0294 H   0  0  0  0  0  0
  -28.0718  -31.8469   26.5407 H   0  0  0  0  0  0
  -28.2595  -38.0096   24.7527 H   0  0  0  0  0  0
  -28.1067  -36.2632   24.6256 H   0  0  0  0  0  0
  -27.2310  -37.1420   25.8873 H   0  0  0  0  0  0
  -20.9397  -29.8791   21.6877 H   0  0  0  0  0  0
  -26.0151  -38.2842   24.1419 H   0  0  0  0  0  0
  -30.0753  -19.5537   22.6910 H   0  0  0  0  0  0
  -27.8042  -24.2163   23.3142 H   0  0  0  0  0  0
  -29.5811  -24.5378   23.5155 H   0  0  0  0  0  0
  -28.7086  -23.4640   24.6059 H   0  0  0  0  0  0
  -27.3550  -23.8454   18.6069 H   0  0  0  0  0  0
  -26.5656  -22.9865   19.9281 H   0  0  0  0  0  0
  -27.7432  -22.1672   18.9072 H   0  0  0  0  0  0
  -29.4707  -20.5561   19.0763 H   0  0  0  0  0  0
  -28.0921  -19.8484   19.8371 H   0  0  0  0  0  0
  -30.9187  -18.7103   19.6366 H   0  0  0  0  0  0
  -29.4783  -18.0645   18.9743 H   0  0  0  0  0  0
  -29.1175  -17.5472   21.7085 H   0  0  0  0  0  0
  -30.8380  -17.4286   21.5624 H   0  0  0  0  0  0
  -29.0120  -25.3275   21.6260 H   0  0  0  0  0  0
  -27.3005  -25.0507   21.3897 H   0  0  0  0  0  0
  -29.5301  -23.6734   19.7523 H   0  0  0  0  0  0
  -29.7928  -21.4450   24.2636 H   0  0  0  0  0  0
  -28.7726  -15.5599   20.6846 H   0  0  0  0  0  0
  1 25  1  0  0  0
  1 30  2  0  0  0
  1 83  1  0  0  0
  2  3  1  0  0  0
  2 25  1  0  0  0
  2 84  1  0  0  0
  2 85  1  0  0  0
  3  4  1  0  0  0
  3 86  1  0  0  0
  3 87  1  0  0  0
  4  5  1  0  0  0
  4 88  1  0  0  0
  4 89  1  0  0  0
  5  6  1  0  0  0
  5 26  1  0  0  0
  5 90  1  0  0  0
  6 25  1  0  0  0
  6 91  1  0  0  0
  6 92  1  0  0  0
  7  8  2  0  0  0
  7 26  1  0  0  0
  7 29  1  0  0  0
  8  9  1  0  0  0
  8 22  1  0  0  0
  9 10  1  0  0  0
  9 27  2  0  0  0
 10 11  2  0  0  0
 10 15  1  0  0  0
 11 12  1  0  0  0
 11 93  1  0  0  0
 12 13  2  0  0  0
 12 94  1  0  0  0
 13 14  1  0  0  0
 13 31  1  0  0  0
 14 15  2  0  0  0
 14 95  1  0  0  0
 15 96  1  0  0  0
 16 17  2  0  0  0
 16 21  1  0  0  0
 16 31  1  0  0  0
 17 18  1  0  0  0
 17 97  1  0  0  0
 18 19  2  0  0  0
 18 98  1  0  0  0
 19 20  1  0  0  0
 19 24  1  0  0  0
 20 21  2  0  0  0
 20 99  1  0  0  0
 21 23  1  0  0  0
 22 28  1  0  0  0
 22 32  2  0  0  0
 26 27  1  0  0  0
 28100  1  0  0  0
 28101  1  0  0  0
 29102  1  0  0  0
 29103  1  0  0  0
 33 34  1  0  0  0
 33 66  1  0  0  0
 33 70  2  0  0  0
 34 36  1  0  0  0
 34 59  1  0  0  0
 34104  1  0  0  0
 35 44  2  0  0  0
 35 45  1  0  0  0
 35 68  1  0  0  0
 36 56  1  0  0  0
 36105  1  0  0  0
 37 39  1  0  0  0
 37 47  1  0  0  0
 37 66  1  0  0  0
 37106  1  0  0  0
 38 43  2  0  0  0
 38 46  1  0  0  0
 38 47  1  0  0  0
 39 64  1  0  0  0
 39 67  2  0  0  0
 40 52  1  0  0  0
 40 53  2  0  0  0
 40 58  1  0  0  0
 41107  1  0  0  0
 41108  1  0  0  0
 41109  1  0  0  0
 41 48  1  0  0  0
 42 43  1  0  0  0
 42 66  1  0  0  0
 42110  1  0  0  0
 42111  1  0  0  0
 43 44  1  0  0  0
 44112  1  0  0  0
 45 46  2  0  0  0
 45113  1  0  0  0
 46114  1  0  0  0
 47115  1  0  0  0
 47116  1  0  0  0
 48 56  1  0  0  0
 48 65  1  0  0  0
 48117  1  0  0  0
 49 50  1  0  0  0
 49 53  1  0  0  0
 49 64  1  0  0  0
 49118  1  0  0  0
 50 51  1  0  0  0
 50119  1  0  0  0
 50120  1  0  0  0
 51 52  1  0  0  0
 51121  1  0  0  0
 51122  1  0  0  0
 52123  1  0  0  0
 52124  1  0  0  0
 53 54  1  0  0  0
 54 55  2  0  0  0
 54125  1  0  0  0
 55 57  1  0  0  0
 55126  1  0  0  0
 56 69  2  0  0  0
 57 58  2  0  0  0
 57127  1  0  0  0
 58128  1  0  0  0
 59 60  1  0  0  0
 59 61  1  0  0  0
 59 62  1  0  0  0
 60129  1  0  0  0
 60130  1  0  0  0
 60131  1  0  0  0
 61132  1  0  0  0
 61133  1  0  0  0
 61134  1  0  0  0
 62135  1  0  0  0
 62136  1  0  0  0
 62137  1  0  0  0
 63 65  1  0  0  0
 63138  1  0  0  0
 63139  1  0  0  0
 63140  1  0  0  0
 64141  1  0  0  0
 65142  1  0  0  0
 68 79  1  0  0  0
 71 72  2  0  0  0
 71 82  1  0  0  0
 71143  1  0  0  0
 72 76  1  0  0  0
 72 81  1  0  0  0
 73 74  1  0  0  0
 73 81  1  0  0  0
 73 82  2  0  0  0
 74144  1  0  0  0
 74145  1  0  0  0
 74146  1  0  0  0
 75147  1  0  0  0
 75148  1  0  0  0
 75149  1  0  0  0
 75 80  1  0  0  0
 76 77  1  0  0  0
 76150  1  0  0  0
 76151  1  0  0  0
 77 78  1  0  0  0
 77152  1  0  0  0
 77153  1  0  0  0
 78 83  1  0  0  0
 78154  1  0  0  0
 78155  1  0  0  0
 79 80  1  0  0  0
 79156  1  0  0  0
 79157  1  0  0  0
 80 81  1  0  0  0
 80158  1  0  0  0
 82159  1  0  0  0
 83160  1  0  0  0
M  CHG  1  82   1
M  ISO  4   1 100  68 101  79 101  83 100
M  END
> <chiral flag>
0

> <version>
0

> <s_m_source_file>
/data/baiqing/PycharmProjects/Reinvent-master-3.2/result/LINK_invent/BTK/process_docking_weight1_custom_sum_contain_oxygen_bond_distance_aromatic_linkinvent_7_9_3/rearranged_h_0080.sdf

> <i_m_source_file_index>
75

> <r_mmod_Potential_Energy-OPLS-2005>
246.379318237305

> <r_mmod_Stretch_Energy-OPLS-2005>
156.710800170898

> <r_mmod_Bend_Energy-OPLS-2005>
252.083709716797

> <r_mmod_Torsional_Energy-OPLS-2005>
274.114532470703

> <r_mmod_Improper_Torsional_Energy-OPLS-2005>
4.99991607666016

> <r_mmod_Van_der_Waal_Energy-OPLS-2005>
116.518814086914

> <r_mmod_Electrostatic_Energy-OPLS-2005>
-219.149429321289

> <r_mmod_Solvation_Energy-OPLS-2005>
-429.452880859375

> <b_mmod_Minimization_Converged-OPLS-2005>
0

> <r_mmod_RMS_Derivative-OPLS-2005>
1.89343571662903

$$$$
78
                    3D
 Structure written by MMmdl.
165173  0  0  1  0            999 V2000
  -30.6814  -14.5376   20.4764 C   0  0  0  0  0  0
  -30.4034  -12.3231   19.4194 C   0  0  0  0  0  0
  -29.4787  -12.4862   18.1949 C   0  0  0  0  0  0
  -28.0020  -12.3565   18.6126 C   0  0  0  0  0  0
  -27.6468  -13.2188   19.8550 C   0  0  2  0  0  0
  -28.6967  -13.0577   20.9773 C   0  0  0  0  0  0
  -25.2541  -13.8197   20.5666 C   0  0  0  0  0  0
  -24.1816  -13.0440   20.9208 C   0  0  0  0  0  0
  -24.6392  -11.6931   20.8754 C   0  0  0  0  0  0
  -23.9074  -10.4299   21.0421 C   0  0  0  0  0  0
  -24.3634   -9.4213   21.9182 C   0  0  0  0  0  0
  -23.6311   -8.2243   22.0748 C   0  0  0  0  0  0
  -22.4290   -8.0287   21.3543 C   0  0  0  0  0  0
  -21.9929   -9.0262   20.4648 C   0  0  0  0  0  0
  -22.7255  -10.2145   20.3059 C   0  0  0  0  0  0
  -21.6851   -6.0746   22.5281 C   0  0  0  0  0  0
  -21.4010   -6.5645   23.8216 C   0  0  0  0  0  0
  -21.3658   -5.6802   24.9180 C   0  0  0  0  0  0
  -21.6037   -4.3064   24.7230 C   0  0  0  0  0  0
  -21.8822   -3.8156   23.4352 C   0  0  0  0  0  0
  -21.9190   -4.6972   22.3404 C   0  0  0  0  0  0
  -22.7835  -13.5214   21.1861 C   0  0  0  0  0  0
  -22.1661   -4.2165   21.0985 F   0  0  0  0  0  0
  -21.5625   -3.4546   25.7744 F   0  0  0  0  0  0
  -30.0122  -13.3526   20.3966 N   0  0  0  0  0  0
  -26.2957  -12.9372   20.3303 N   0  0  0  0  0  0
  -25.9314  -11.6520   20.5771 N   0  0  0  0  0  0
  -22.0500  -12.8195   22.0436 N   0  0  0  0  0  0
  -25.4228  -15.1900   20.4046 N   0  0  0  0  0  0
  -31.8559  -14.6456   20.1161 O   0  0  0  0  0  0
  -21.6638   -6.8897   21.4246 O   0  0  0  0  0  0
  -22.3515  -14.5523   20.6733 O   0  0  0  0  0  0
  -24.6205  -31.8658   23.2091 C   0  0  0  0  0  0
  -25.9062  -32.4804   23.8416 C   0  0  1  0  0  0
  -27.2180  -27.3682   20.0774 C   0  0  0  0  0  0
  -25.5904  -33.8610   24.2341 N   0  0  0  0  0  0
  -23.4126  -30.4883   21.5568 C   0  0  2  0  0  0
  -24.8529  -28.9547   20.1090 C   0  0  0  0  0  0
  -22.7454  -29.4640   22.5031 C   0  0  0  0  0  0
  -18.0262  -28.1350   22.8469 C   0  0  0  0  0  0
  -24.1487  -36.7316   23.2646 C   0  0  0  0  0  0
  -25.9485  -30.8054   21.3743 C   0  0  0  0  0  0
  -26.0241  -29.4395   20.7079 C   0  0  0  0  0  0
  -27.2131  -28.6592   20.6797 C   0  0  0  0  0  0
  -26.0340  -26.9340   19.4421 C   0  0  0  0  0  0
  -24.8592  -27.7068   19.4659 C   0  0  0  0  0  0
  -23.6183  -29.8288   20.1697 C   0  0  0  0  0  0
  -25.4106  -36.3117   24.0348 C   0  0  1  0  0  0
  -20.5858  -28.3666   23.1294 C   0  0  2  0  0  0
  -20.6761  -26.9405   22.5407 C   0  0  0  0  0  0
  -19.5753  -26.6366   21.5195 C   0  0  0  0  0  0
  -18.1924  -26.7882   22.1599 C   0  0  0  0  0  0
  -19.1514  -28.8822   23.2850 C   0  0  0  0  0  0
  -18.9449  -30.1408   23.8899 C   0  0  0  0  0  0
  -17.6470  -30.6573   24.0546 C   0  0  0  0  0  0
  -25.9041  -34.9477   23.5150 C   0  0  0  0  0  0
  -16.5351  -29.9084   23.6329 C   0  0  0  0  0  0
  -16.7252  -28.6474   23.0379 C   0  0  0  0  0  0
  -26.4447  -31.6590   25.0758 C   0  0  0  0  0  0
  -25.3741  -31.3759   26.1567 C   0  0  0  0  0  0
  -27.0204  -30.3002   24.6159 C   0  0  0  0  0  0
  -27.6132  -32.4244   25.7435 C   0  0  0  0  0  0
  -27.5596  -37.1791   24.8458 C   0  0  0  0  0  0
  -21.4179  -29.3023   22.3718 N   0  0  0  0  0  0
  -26.4293  -37.3806   23.9404 N   0  0  0  0  0  0
  -24.6804  -31.0681   22.1045 N   0  0  0  0  0  0
  -23.4192  -28.8181   23.3090 O   0  0  0  0  0  0
  -28.3374  -26.5375   20.0915 O   0  0  0  0  0  0
  -26.5640  -34.8942   22.4745 O   0  0  0  0  0  0
  -23.5372  -32.1431   23.7428 O   0  0  0  0  0  0
  -28.7041  -20.6605   21.3341 C   0  0  0  0  0  0
  -28.8207  -20.0894   18.9353 C   0  0  0  0  0  0
  -29.5737  -19.4100   21.6699 C   0  0  0  0  0  0
  -29.6600  -18.8180   19.2421 C   0  0  0  0  0  0
  -29.0013  -21.2703   19.9348 C   0  0  1  0  0  0
  -29.4758  -18.2180   20.6637 C   0  0  1  0  0  0
  -26.6703  -22.4510   19.9629 C   0  0  0  0  0  0
  -31.2297  -17.0960   22.2894 C   0  0  0  0  0  0
  -28.7394  -24.0168   19.5300 C   0  0  0  0  0  0
  -28.1145  -25.1314   20.4607 C   0  0  0  0  0  0
  -28.1363  -22.5383   19.4994 C   0  0  1  0  0  0
  -30.5006  -17.0224   20.9332 C   0  0  1  0  0  0
  -29.9543  -15.6417   20.7938 N   0  0  0  0  0  0
  -31.4492  -12.4026   19.1172 H   0  0  0  0  0  0
  -30.2912  -11.3277   19.8520 H   0  0  0  0  0  0
  -29.7151  -11.7373   17.4373 H   0  0  0  0  0  0
  -29.6441  -13.4567   17.7259 H   0  0  0  0  0  0
  -27.8105  -11.3047   18.8221 H   0  0  0  0  0  0
  -27.3513  -12.6204   17.7777 H   0  0  0  0  0  0
  -27.6714  -14.2554   19.5223 H   0  0  0  0  0  0
  -28.6848  -12.0426   21.3761 H   0  0  0  0  0  0
  -28.4735  -13.7176   21.8171 H   0  0  0  0  0  0
  -25.2780   -9.5673   22.4757 H   0  0  0  0  0  0
  -24.0022   -7.4627   22.7456 H   0  0  0  0  0  0
  -21.0855   -8.8785   19.8951 H   0  0  0  0  0  0
  -22.3712  -10.9688   19.6175 H   0  0  0  0  0  0
  -21.2008   -7.6159   23.9729 H   0  0  0  0  0  0
  -21.1465   -6.0530   25.9087 H   0  0  0  0  0  0
  -22.0600   -2.7621   23.2849 H   0  0  0  0  0  0
  -22.4157  -11.9865   22.4805 H   0  0  0  0  0  0
  -21.1109  -13.1181   22.2658 H   0  0  0  0  0  0
  -24.6516  -15.8423   20.5063 H   0  0  0  0  0  0
  -26.2680  -15.6299   20.0635 H   0  0  0  0  0  0
  -26.7131  -32.5491   23.1176 H   0  0  0  0  0  0
  -24.9969  -33.9741   25.0419 H   0  0  0  0  0  0
  -22.7021  -31.3067   21.4256 H   0  0  0  0  0  0
  -23.3785  -35.9614   23.3231 H   0  0  0  0  0  0
  -24.3575  -36.9028   22.2079 H   0  0  0  0  0  0
  -23.7165  -37.6455   23.6723 H   0  0  0  0  0  0
  -26.0660  -31.5754   20.6095 H   0  0  0  0  0  0
  -26.8322  -30.8549   21.9991 H   0  0  0  0  0  0
  -28.1190  -29.0275   21.1435 H   0  0  0  0  0  0
  -26.0158  -25.9907   18.9146 H   0  0  0  0  0  0
  -23.9679  -27.3410   18.9726 H   0  0  0  0  0  0
  -23.7255  -30.6138   19.4197 H   0  0  0  0  0  0
  -22.7343  -29.2583   19.8754 H   0  0  0  0  0  0
  -25.1260  -36.2027   25.0841 H   0  0  0  0  0  0
  -20.9870  -28.3261   24.1448 H   0  0  0  0  0  0
  -20.5654  -26.2297   23.3598 H   0  0  0  0  0  0
  -21.6646  -26.7460   22.1231 H   0  0  0  0  0  0
  -19.6953  -25.6271   21.1248 H   0  0  0  0  0  0
  -19.6700  -27.3164   20.6722 H   0  0  0  0  0  0
  -17.4190  -26.6581   21.4012 H   0  0  0  0  0  0
  -18.0340  -26.0003   22.8980 H   0  0  0  0  0  0
  -19.7940  -30.7154   24.2326 H   0  0  0  0  0  0
  -17.5065  -31.6279   24.5112 H   0  0  0  0  0  0
  -15.5359  -30.3020   23.7648 H   0  0  0  0  0  0
  -15.8625  -28.0799   22.7169 H   0  0  0  0  0  0
  -24.5712  -30.7364   25.7873 H   0  0  0  0  0  0
  -24.9176  -32.2949   26.5271 H   0  0  0  0  0  0
  -25.8051  -30.8641   27.0185 H   0  0  0  0  0  0
  -26.2699  -29.6764   24.1285 H   0  0  0  0  0  0
  -27.3971  -29.7255   25.4613 H   0  0  0  0  0  0
  -27.8578  -30.4217   23.9288 H   0  0  0  0  0  0
  -27.2967  -33.3708   26.1834 H   0  0  0  0  0  0
  -28.4018  -32.6480   25.0237 H   0  0  0  0  0  0
  -28.0679  -31.8411   26.5439 H   0  0  0  0  0  0
  -28.2614  -38.0093   24.7564 H   0  0  0  0  0  0
  -28.1091  -36.2623   24.6234 H   0  0  0  0  0  0
  -27.2320  -37.1448   25.8865 H   0  0  0  0  0  0
  -20.9376  -29.8731   21.6906 H   0  0  0  0  0  0
  -26.0205  -38.2897   24.1425 H   0  0  0  0  0  0
  -28.8404  -21.4198   22.1035 H   0  0  0  0  0  0
  -27.6583  -20.3587   21.3985 H   0  0  0  0  0  0
  -27.7656  -19.8132   18.8917 H   0  0  0  0  0  0
  -29.0887  -20.4210   17.9320 H   0  0  0  0  0  0
  -29.2887  -19.0479   22.6586 H   0  0  0  0  0  0
  -30.6093  -19.7382   21.7532 H   0  0  0  0  0  0
  -30.7108  -19.0698   19.0891 H   0  0  0  0  0  0
  -29.4277  -18.0545   18.4957 H   0  0  0  0  0  0
  -30.0536  -21.5615   19.9070 H   0  0  0  0  0  0
  -28.4602  -17.8232   20.7357 H   0  0  0  0  0  0
  -26.2633  -21.4488   19.8297 H   0  0  0  0  0  0
  -26.0388  -23.1287   19.3868 H   0  0  0  0  0  0
  -26.5717  -22.7046   21.0169 H   0  0  0  0  0  0
  -31.7752  -18.0305   22.4129 H   0  0  0  0  0  0
  -31.9807  -16.3091   22.3717 H   0  0  0  0  0  0
  -30.5358  -16.9811   23.1220 H   0  0  0  0  0  0
  -29.8191  -23.9754   19.6831 H   0  0  0  0  0  0
  -28.6353  -24.4039   18.5144 H   0  0  0  0  0  0
  -28.5321  -25.0021   21.4573 H   0  0  0  0  0  0
  -27.0545  -24.9379   20.5996 H   0  0  0  0  0  0
  -28.0635  -22.3851   18.4210 H   0  0  0  0  0  0
  -31.2857  -17.1264   20.1812 H   0  0  0  0  0  0
  -28.9774  -15.5006   20.9987 H   0  0  0  0  0  0
  1 25  1  0  0  0
  1 30  2  0  0  0
  1 83  1  0  0  0
  2  3  1  0  0  0
  2 25  1  0  0  0
  2 84  1  0  0  0
  2 85  1  0  0  0
  3  4  1  0  0  0
  3 86  1  0  0  0
  3 87  1  0  0  0
  4  5  1  0  0  0
  4 88  1  0  0  0
  4 89  1  0  0  0
  5  6  1  0  0  0
  5 26  1  0  0  0
  5 90  1  0  0  0
  6 25  1  0  0  0
  6 91  1  0  0  0
  6 92  1  0  0  0
  7  8  2  0  0  0
  7 26  1  0  0  0
  7 29  1  0  0  0
  8  9  1  0  0  0
  8 22  1  0  0  0
  9 10  1  0  0  0
  9 27  2  0  0  0
 10 11  2  0  0  0
 10 15  1  0  0  0
 11 12  1  0  0  0
 11 93  1  0  0  0
 12 13  2  0  0  0
 12 94  1  0  0  0
 13 14  1  0  0  0
 13 31  1  0  0  0
 14 15  2  0  0  0
 14 95  1  0  0  0
 15 96  1  0  0  0
 16 17  2  0  0  0
 16 21  1  0  0  0
 16 31  1  0  0  0
 17 18  1  0  0  0
 17 97  1  0  0  0
 18 19  2  0  0  0
 18 98  1  0  0  0
 19 20  1  0  0  0
 19 24  1  0  0  0
 20 21  2  0  0  0
 20 99  1  0  0  0
 21 23  1  0  0  0
 22 28  1  0  0  0
 22 32  2  0  0  0
 26 27  1  0  0  0
 28100  1  0  0  0
 28101  1  0  0  0
 29102  1  0  0  0
 29103  1  0  0  0
 33 34  1  0  0  0
 33 66  1  0  0  0
 33 70  2  0  0  0
 34 36  1  0  0  0
 34 59  1  0  0  0
 34104  1  0  0  0
 35 44  2  0  0  0
 35 45  1  0  0  0
 35 68  1  0  0  0
 36 56  1  0  0  0
 36105  1  0  0  0
 37 39  1  0  0  0
 37 47  1  0  0  0
 37 66  1  0  0  0
 37106  1  0  0  0
 38 43  2  0  0  0
 38 46  1  0  0  0
 38 47  1  0  0  0
 39 64  1  0  0  0
 39 67  2  0  0  0
 40 52  1  0  0  0
 40 53  2  0  0  0
 40 58  1  0  0  0
 41107  1  0  0  0
 41108  1  0  0  0
 41109  1  0  0  0
 41 48  1  0  0  0
 42 43  1  0  0  0
 42 66  1  0  0  0
 42110  1  0  0  0
 42111  1  0  0  0
 43 44  1  0  0  0
 44112  1  0  0  0
 45 46  2  0  0  0
 45113  1  0  0  0
 46114  1  0  0  0
 47115  1  0  0  0
 47116  1  0  0  0
 48 56  1  0  0  0
 48 65  1  0  0  0
 48117  1  0  0  0
 49 50  1  0  0  0
 49 53  1  0  0  0
 49 64  1  0  0  0
 49118  1  0  0  0
 50 51  1  0  0  0
 50119  1  0  0  0
 50120  1  0  0  0
 51 52  1  0  0  0
 51121  1  0  0  0
 51122  1  0  0  0
 52123  1  0  0  0
 52124  1  0  0  0
 53 54  1  0  0  0
 54 55  2  0  0  0
 54125  1  0  0  0
 55 57  1  0  0  0
 55126  1  0  0  0
 56 69  2  0  0  0
 57 58  2  0  0  0
 57127  1  0  0  0
 58128  1  0  0  0
 59 60  1  0  0  0
 59 61  1  0  0  0
 59 62  1  0  0  0
 60129  1  0  0  0
 60130  1  0  0  0
 60131  1  0  0  0
 61132  1  0  0  0
 61133  1  0  0  0
 61134  1  0  0  0
 62135  1  0  0  0
 62136  1  0  0  0
 62137  1  0  0  0
 63 65  1  0  0  0
 63138  1  0  0  0
 63139  1  0  0  0
 63140  1  0  0  0
 64141  1  0  0  0
 65142  1  0  0  0
 68 80  1  0  0  0
 71 73  1  0  0  0
 71143  1  0  0  0
 71144  1  0  0  0
 71 75  1  0  0  0
 72 74  1  0  0  0
 72 75  1  0  0  0
 72145  1  0  0  0
 72146  1  0  0  0
 73147  1  0  0  0
 73148  1  0  0  0
 73 76  1  0  0  0
 74 76  1  0  0  0
 74149  1  0  0  0
 74150  1  0  0  0
 75 81  1  0  0  0
 75151  1  0  0  0
 76 82  1  0  0  0
 76152  1  0  0  0
 77153  1  0  0  0
 77154  1  0  0  0
 77155  1  0  0  0
 77 81  1  0  0  0
 78156  1  0  0  0
 78157  1  0  0  0
 78158  1  0  0  0
 78 82  1  0  0  0
 79 80  1  0  0  0
 79 81  1  0  0  0
 79159  1  0  0  0
 79160  1  0  0  0
 80161  1  0  0  0
 80162  1  0  0  0
 81163  1  0  0  0
 82 83  1  0  0  0
 82164  1  0  0  0
 83165  1  0  0  0
M  ISO  4   1 100  68 101  80 101  83 100
M  END
> <chiral flag>
0

> <version>
0

> <s_m_source_file>
/data/baiqing/PycharmProjects/Reinvent-master-3.2/result/LINK_invent/BTK/process_docking_weight1_custom_sum_contain_oxygen_bond_distance_aromatic_linkinvent_7_9_3/rearranged_h_0080.sdf

> <i_m_source_file_index>
76

> <r_mmod_Potential_Energy-OPLS-2005>
110.098098754883

> <r_mmod_Stretch_Energy-OPLS-2005>
65.4254913330078

> <r_mmod_Bend_Energy-OPLS-2005>
143.212051391602

> <r_mmod_Torsional_Energy-OPLS-2005>
288.628875732422

> <r_mmod_Improper_Torsional_Energy-OPLS-2005>
4.03751134872437

> <r_mmod_Van_der_Waal_Energy-OPLS-2005>
143.423446655273

> <r_mmod_Electrostatic_Energy-OPLS-2005>
-376.436676025391

> <r_mmod_Solvation_Energy-OPLS-2005>
-188.545867919922

> <b_mmod_Minimization_Converged-OPLS-2005>
0

> <r_mmod_RMS_Derivative-OPLS-2005>
4.19019556045532

$$$$
79
                    3D
 Structure written by MMmdl.
173181  0  0  1  0            999 V2000
  -30.7446  -14.4002   20.5810 C   0  0  0  0  0  0
  -30.3959  -12.2667   19.4137 C   0  0  0  0  0  0
  -29.4807  -12.4964   18.1974 C   0  0  0  0  0  0
  -28.0036  -12.3656   18.6079 C   0  0  0  0  0  0
  -27.6554  -13.2084   19.8660 C   0  0  2  0  0  0
  -28.6916  -12.9856   20.9895 C   0  0  0  0  0  0
  -25.2562  -13.8175   20.5630 C   0  0  0  0  0  0
  -24.1820  -13.0441   20.9166 C   0  0  0  0  0  0
  -24.6383  -11.6910   20.8722 C   0  0  0  0  0  0
  -23.9073  -10.4283   21.0402 C   0  0  0  0  0  0
  -24.3629   -9.4199   21.9173 C   0  0  0  0  0  0
  -23.6315   -8.2228   22.0737 C   0  0  0  0  0  0
  -22.4289   -8.0277   21.3546 C   0  0  0  0  0  0
  -21.9934   -9.0242   20.4640 C   0  0  0  0  0  0
  -22.7256  -10.2125   20.3047 C   0  0  0  0  0  0
  -21.6870   -6.0741   22.5289 C   0  0  0  0  0  0
  -21.4001   -6.5636   23.8218 C   0  0  0  0  0  0
  -21.3656   -5.6788   24.9176 C   0  0  0  0  0  0
  -21.6060   -4.3053   24.7232 C   0  0  0  0  0  0
  -21.8820   -3.8150   23.4346 C   0  0  0  0  0  0
  -21.9196   -4.6970   22.3406 C   0  0  0  0  0  0
  -22.7855  -13.5231   21.1879 C   0  0  0  0  0  0
  -22.1663   -4.2153   21.0991 F   0  0  0  0  0  0
  -21.5638   -3.4534   25.7739 F   0  0  0  0  0  0
  -30.0321  -13.2527   20.4413 N   0  0  0  0  0  0
  -26.2979  -12.9348   20.3301 N   0  0  0  0  0  0
  -25.9301  -11.6507   20.5716 N   0  0  0  0  0  0
  -22.0536  -12.8172   22.0439 N   0  0  0  0  0  0
  -25.4347  -15.1875   20.4031 N   0  0  0  0  0  0
  -31.8565  -14.5636   20.0722 O   0  0  0  0  0  0
  -21.6658   -6.8876   21.4242 O   0  0  0  0  0  0
  -22.3512  -14.5532   20.6756 O   0  0  0  0  0  0
  -24.6161  -31.8676   23.2121 C   0  0  0  0  0  0
  -25.9054  -32.4842   23.8413 C   0  0  1  0  0  0
  -27.2334  -27.4487   20.0925 C   0  0  0  0  0  0
  -25.5917  -33.8633   24.2337 N   0  0  0  0  0  0
  -23.4014  -30.4931   21.5544 C   0  0  2  0  0  0
  -24.8466  -28.9636   20.1195 C   0  0  0  0  0  0
  -22.7412  -29.4651   22.5018 C   0  0  0  0  0  0
  -18.0257  -28.1342   22.8493 C   0  0  0  0  0  0
  -24.1472  -36.7323   23.2640 C   0  0  0  0  0  0
  -25.9309  -30.8449   21.3578 C   0  0  0  0  0  0
  -26.0104  -29.4824   20.7000 C   0  0  0  0  0  0
  -27.2108  -28.7367   20.6705 C   0  0  0  0  0  0
  -26.0420  -26.9347   19.5278 C   0  0  0  0  0  0
  -24.8579  -27.6897   19.5304 C   0  0  0  0  0  0
  -23.6096  -29.8282   20.1688 C   0  0  0  0  0  0
  -25.4097  -36.3129   24.0338 C   0  0  1  0  0  0
  -20.5849  -28.3625   23.1330 C   0  0  2  0  0  0
  -20.6742  -26.9364   22.5405 C   0  0  0  0  0  0
  -19.5725  -26.6360   21.5196 C   0  0  0  0  0  0
  -18.1904  -26.7893   22.1606 C   0  0  0  0  0  0
  -19.1504  -28.8796   23.2912 C   0  0  0  0  0  0
  -18.9438  -30.1401   23.8917 C   0  0  0  0  0  0
  -17.6439  -30.6555   24.0550 C   0  0  0  0  0  0
  -25.9021  -34.9492   23.5118 C   0  0  0  0  0  0
  -16.5337  -29.9046   23.6318 C   0  0  0  0  0  0
  -16.7246  -28.6465   23.0350 C   0  0  0  0  0  0
  -26.4474  -31.6627   25.0734 C   0  0  0  0  0  0
  -25.3763  -31.3727   26.1498 C   0  0  0  0  0  0
  -27.0278  -30.3068   24.6104 C   0  0  0  0  0  0
  -27.6027  -32.4369   25.7511 C   0  0  0  0  0  0
  -27.5574  -37.1809   24.8467 C   0  0  0  0  0  0
  -21.4133  -29.3023   22.3770 N   0  0  0  0  0  0
  -26.4282  -37.3815   23.9416 N   0  0  0  0  0  0
  -24.6678  -31.0822   22.1004 N   0  0  0  0  0  0
  -23.4190  -28.8165   23.3025 O   0  0  0  0  0  0
  -28.4110  -26.7311   20.0913 O   0  0  0  0  0  0
  -26.5552  -34.8940   22.4667 O   0  0  0  0  0  0
  -23.5353  -32.1393   23.7547 O   0  0  0  0  0  0
  -28.1373  -21.3983   17.6243 C   0  0  0  0  0  0
  -28.5816  -21.2619   19.9990 C   0  0  0  0  0  0
  -28.0104  -21.9518   18.9115 C   0  0  0  0  0  0
  -28.8038  -20.1708   17.4814 C   0  0  0  0  0  0
  -29.2498  -20.0448   19.7589 C   0  0  0  0  0  0
  -28.9635  -19.5271   16.1237 C   0  0  0  0  0  0
  -26.8175  -19.2219   23.7091 C   0  0  0  0  0  0
  -31.5288  -19.4830   20.5924 C   0  0  0  0  0  0
  -27.2897  -23.2691   19.1180 C   0  0  0  0  0  0
  -28.2511  -18.6593   23.6142 C   0  0  0  0  0  0
  -28.2214  -24.4970   19.0227 C   0  0  0  0  0  0
  -28.5255  -17.7352   22.3800 C   0  0  0  0  0  0
  -30.6339  -16.7916   21.1564 C   0  0  0  0  0  0
  -28.3015  -25.3230   20.3243 C   0  0  0  0  0  0
  -30.0209  -19.3319   20.8738 C   0  0  2  0  0  0
  -29.5040  -17.8662   21.1562 C   0  0  2  0  0  0
  -29.3461  -19.5072   18.5217 N   0  0  0  0  0  0
  -30.1223  -15.4164   21.1902 N   0  0  0  0  0  0
  -31.4452  -12.3226   19.1173 H   0  0  0  0  0  0
  -30.2525  -11.2582   19.8053 H   0  0  0  0  0  0
  -29.7144  -11.7760   17.4118 H   0  0  0  0  0  0
  -29.6623  -13.4867   17.7748 H   0  0  0  0  0  0
  -27.8055  -11.3087   18.7931 H   0  0  0  0  0  0
  -27.3556  -12.6457   17.7760 H   0  0  0  0  0  0
  -27.7038  -14.2569   19.5739 H   0  0  0  0  0  0
  -28.6404  -11.9529   21.3344 H   0  0  0  0  0  0
  -28.4581  -13.5997   21.8618 H   0  0  0  0  0  0
  -25.2773   -9.5665   22.4741 H   0  0  0  0  0  0
  -24.0056   -7.4596   22.7413 H   0  0  0  0  0  0
  -21.0889   -8.8737   19.8918 H   0  0  0  0  0  0
  -22.3723  -10.9652   19.6138 H   0  0  0  0  0  0
  -21.1967   -7.6146   23.9720 H   0  0  0  0  0  0
  -21.1494   -6.0522   25.9086 H   0  0  0  0  0  0
  -22.0610   -2.7619   23.2855 H   0  0  0  0  0  0
  -22.4201  -11.9837   22.4789 H   0  0  0  0  0  0
  -21.1127  -13.1092   22.2636 H   0  0  0  0  0  0
  -24.6785  -15.8549   20.5150 H   0  0  0  0  0  0
  -26.3060  -15.6222   20.1229 H   0  0  0  0  0  0
  -26.7140  -32.5569   23.1195 H   0  0  0  0  0  0
  -25.0168  -33.9812   25.0549 H   0  0  0  0  0  0
  -22.6915  -31.3110   21.4178 H   0  0  0  0  0  0
  -23.3728  -35.9661   23.3299 H   0  0  0  0  0  0
  -24.3584  -36.8919   22.2058 H   0  0  0  0  0  0
  -23.7204  -37.6525   23.6639 H   0  0  0  0  0  0
  -26.0471  -31.6169   20.5947 H   0  0  0  0  0  0
  -26.8165  -30.8916   21.9796 H   0  0  0  0  0  0
  -28.1166  -29.1417   21.1014 H   0  0  0  0  0  0
  -26.0079  -25.9548   19.0786 H   0  0  0  0  0  0
  -23.9603  -27.2810   19.0886 H   0  0  0  0  0  0
  -23.7223  -30.6034   19.4111 H   0  0  0  0  0  0
  -22.7335  -29.2503   19.8694 H   0  0  0  0  0  0
  -25.1266  -36.2004   25.0827 H   0  0  0  0  0  0
  -20.9935  -28.3154   24.1455 H   0  0  0  0  0  0
  -20.5622  -26.2224   23.3577 H   0  0  0  0  0  0
  -21.6615  -26.7390   22.1211 H   0  0  0  0  0  0
  -19.6883  -25.6275   21.1208 H   0  0  0  0  0  0
  -19.6665  -27.3181   20.6737 H   0  0  0  0  0  0
  -17.4176  -26.6646   21.4010 H   0  0  0  0  0  0
  -18.0305  -26.0020   22.8984 H   0  0  0  0  0  0
  -19.7913  -30.7195   24.2322 H   0  0  0  0  0  0
  -17.4993  -31.6247   24.5120 H   0  0  0  0  0  0
  -15.5330  -30.2945   23.7629 H   0  0  0  0  0  0
  -15.8651  -28.0770   22.7068 H   0  0  0  0  0  0
  -24.5929  -30.7078   25.7839 H   0  0  0  0  0  0
  -24.8985  -32.2885   26.4995 H   0  0  0  0  0  0
  -25.8152  -30.8871   27.0223 H   0  0  0  0  0  0
  -26.2781  -29.6870   24.1174 H   0  0  0  0  0  0
  -27.4024  -29.7296   25.4564 H   0  0  0  0  0  0
  -27.8643  -30.4337   23.9227 H   0  0  0  0  0  0
  -27.2586  -33.3645   26.2105 H   0  0  0  0  0  0
  -28.3833  -32.6982   25.0356 H   0  0  0  0  0  0
  -28.0694  -31.8504   26.5436 H   0  0  0  0  0  0
  -28.2593  -38.0106   24.7534 H   0  0  0  0  0  0
  -28.1048  -36.2642   24.6241 H   0  0  0  0  0  0
  -27.2305  -37.1405   25.8871 H   0  0  0  0  0  0
  -20.9277  -29.8831   21.7082 H   0  0  0  0  0  0
  -26.0173  -38.2892   24.1421 H   0  0  0  0  0  0
  -27.7351  -21.9046   16.7568 H   0  0  0  0  0  0
  -28.5351  -21.6702   21.0000 H   0  0  0  0  0  0
  -29.1872  -20.2775   15.3644 H   0  0  0  0  0  0
  -28.0429  -19.0148   15.8421 H   0  0  0  0  0  0
  -29.7764  -18.7992   16.1303 H   0  0  0  0  0  0
  -26.6289  -19.6764   24.6837 H   0  0  0  0  0  0
  -26.0747  -18.4385   23.5639 H   0  0  0  0  0  0
  -26.6427  -19.9947   22.9598 H   0  0  0  0  0  0
  -31.7861  -20.5368   20.4840 H   0  0  0  0  0  0
  -31.8091  -18.9896   19.6612 H   0  0  0  0  0  0
  -32.1452  -19.0810   21.3952 H   0  0  0  0  0  0
  -26.7605  -23.2310   20.0710 H   0  0  0  0  0  0
  -26.5100  -23.3545   18.3617 H   0  0  0  0  0  0
  -28.4171  -18.0851   24.5316 H   0  0  0  0  0  0
  -28.9542  -19.4940   23.6809 H   0  0  0  0  0  0
  -27.8655  -25.1227   18.2037 H   0  0  0  0  0  0
  -29.2238  -24.1913   18.7191 H   0  0  0  0  0  0
  -29.4730  -17.6865   22.9150 H   0  0  0  0  0  0
  -27.9802  -18.5043   21.8332 H   0  0  0  0  0  0
  -31.2229  -16.9184   20.2455 H   0  0  0  0  0  0
  -31.3268  -16.9339   21.9879 H   0  0  0  0  0  0
  -29.1804  -25.0098   20.8881 H   0  0  0  0  0  0
  -27.4598  -25.1220   20.9898 H   0  0  0  0  0  0
  -29.8617  -19.9215   21.7723 H   0  0  0  0  0  0
  -28.9187  -17.5832   20.2781 H   0  0  0  0  0  0
  -29.2149  -15.2497   21.5994 H   0  0  0  0  0  0
  1 25  1  0  0  0
  1 30  2  0  0  0
  1 88  1  0  0  0
  2  3  1  0  0  0
  2 25  1  0  0  0
  2 89  1  0  0  0
  2 90  1  0  0  0
  3  4  1  0  0  0
  3 91  1  0  0  0
  3 92  1  0  0  0
  4  5  1  0  0  0
  4 93  1  0  0  0
  4 94  1  0  0  0
  5  6  1  0  0  0
  5 26  1  0  0  0
  5 95  1  0  0  0
  6 25  1  0  0  0
  6 96  1  0  0  0
  6 97  1  0  0  0
  7  8  2  0  0  0
  7 26  1  0  0  0
  7 29  1  0  0  0
  8  9  1  0  0  0
  8 22  1  0  0  0
  9 10  1  0  0  0
  9 27  2  0  0  0
 10 11  2  0  0  0
 10 15  1  0  0  0
 11 12  1  0  0  0
 11 98  1  0  0  0
 12 13  2  0  0  0
 12 99  1  0  0  0
 13 14  1  0  0  0
 13 31  1  0  0  0
 14 15  2  0  0  0
 14100  1  0  0  0
 15101  1  0  0  0
 16 17  2  0  0  0
 16 21  1  0  0  0
 16 31  1  0  0  0
 17 18  1  0  0  0
 17102  1  0  0  0
 18 19  2  0  0  0
 18103  1  0  0  0
 19 20  1  0  0  0
 19 24  1  0  0  0
 20 21  2  0  0  0
 20104  1  0  0  0
 21 23  1  0  0  0
 22 28  1  0  0  0
 22 32  2  0  0  0
 26 27  1  0  0  0
 28105  1  0  0  0
 28106  1  0  0  0
 29107  1  0  0  0
 29108  1  0  0  0
 33 34  1  0  0  0
 33 66  1  0  0  0
 33 70  2  0  0  0
 34 36  1  0  0  0
 34 59  1  0  0  0
 34109  1  0  0  0
 35 44  2  0  0  0
 35 45  1  0  0  0
 35 68  1  0  0  0
 36 56  1  0  0  0
 36110  1  0  0  0
 37 39  1  0  0  0
 37 47  1  0  0  0
 37 66  1  0  0  0
 37111  1  0  0  0
 38 43  2  0  0  0
 38 46  1  0  0  0
 38 47  1  0  0  0
 39 64  1  0  0  0
 39 67  2  0  0  0
 40 52  1  0  0  0
 40 53  2  0  0  0
 40 58  1  0  0  0
 41112  1  0  0  0
 41113  1  0  0  0
 41114  1  0  0  0
 41 48  1  0  0  0
 42 43  1  0  0  0
 42 66  1  0  0  0
 42115  1  0  0  0
 42116  1  0  0  0
 43 44  1  0  0  0
 44117  1  0  0  0
 45 46  2  0  0  0
 45118  1  0  0  0
 46119  1  0  0  0
 47120  1  0  0  0
 47121  1  0  0  0
 48 56  1  0  0  0
 48 65  1  0  0  0
 48122  1  0  0  0
 49 50  1  0  0  0
 49 53  1  0  0  0
 49 64  1  0  0  0
 49123  1  0  0  0
 50 51  1  0  0  0
 50124  1  0  0  0
 50125  1  0  0  0
 51 52  1  0  0  0
 51126  1  0  0  0
 51127  1  0  0  0
 52128  1  0  0  0
 52129  1  0  0  0
 53 54  1  0  0  0
 54 55  2  0  0  0
 54130  1  0  0  0
 55 57  1  0  0  0
 55131  1  0  0  0
 56 69  2  0  0  0
 57 58  2  0  0  0
 57132  1  0  0  0
 58133  1  0  0  0
 59 60  1  0  0  0
 59 61  1  0  0  0
 59 62  1  0  0  0
 60134  1  0  0  0
 60135  1  0  0  0
 60136  1  0  0  0
 61137  1  0  0  0
 61138  1  0  0  0
 61139  1  0  0  0
 62140  1  0  0  0
 62141  1  0  0  0
 62142  1  0  0  0
 63 65  1  0  0  0
 63143  1  0  0  0
 63144  1  0  0  0
 63145  1  0  0  0
 64146  1  0  0  0
 65147  1  0  0  0
 68 84  1  0  0  0
 71 73  2  0  0  0
 71 74  1  0  0  0
 71148  1  0  0  0
 72 73  1  0  0  0
 72 75  2  0  0  0
 72149  1  0  0  0
 73 79  1  0  0  0
 74 76  1  0  0  0
 74 87  2  0  0  0
 75 85  1  0  0  0
 75 87  1  0  0  0
 76150  1  0  0  0
 76151  1  0  0  0
 76152  1  0  0  0
 77 80  1  0  0  0
 77153  1  0  0  0
 77154  1  0  0  0
 77155  1  0  0  0
 78156  1  0  0  0
 78157  1  0  0  0
 78158  1  0  0  0
 78 85  1  0  0  0
 79 81  1  0  0  0
 79159  1  0  0  0
 79160  1  0  0  0
 80 82  1  0  0  0
 80161  1  0  0  0
 80162  1  0  0  0
 81 84  1  0  0  0
 81163  1  0  0  0
 81164  1  0  0  0
 82165  1  0  0  0
 82166  1  0  0  0
 82 86  1  0  0  0
 83 86  1  0  0  0
 83 88  1  0  0  0
 83167  1  0  0  0
 83168  1  0  0  0
 84169  1  0  0  0
 84170  1  0  0  0
 85 86  1  0  0  0
 85171  1  0  0  0
 86172  1  0  0  0
 88173  1  0  0  0
M  ISO  4   1 100  68 101  84 101  88 100
M  END
> <chiral flag>
0

> <version>
0

> <s_m_source_file>
/data/baiqing/PycharmProjects/Reinvent-master-3.2/result/LINK_invent/BTK/process_docking_weight1_custom_sum_contain_oxygen_bond_distance_aromatic_linkinvent_7_9_3/rearranged_h_0080.sdf

> <i_m_source_file_index>
77

> <r_mmod_Potential_Energy-OPLS-2005>
46.1468353271484

> <r_mmod_Stretch_Energy-OPLS-2005>
40.0768241882324

> <r_mmod_Bend_Energy-OPLS-2005>
329.961273193359

> <r_mmod_Torsional_Energy-OPLS-2005>
243.540802001953

> <r_mmod_Improper_Torsional_Energy-OPLS-2005>
3.36042523384094

> <r_mmod_Van_der_Waal_Energy-OPLS-2005>
186.405197143555

> <r_mmod_Electrostatic_Energy-OPLS-2005>
-563.770446777344

> <r_mmod_Solvation_Energy-OPLS-2005>
-204.441284179688

> <b_mmod_Minimization_Converged-OPLS-2005>
0

> <r_mmod_RMS_Derivative-OPLS-2005>
3.40273284912109

$$$$
80
                    3D
 Structure written by MMmdl.
165173  0  0  1  0            999 V2000
  -30.7054  -14.3951   20.6734 C   0  0  0  0  0  0
  -30.4474  -12.3027   19.3955 C   0  0  0  0  0  0
  -29.4995  -12.5281   18.1993 C   0  0  0  0  0  0
  -28.0213  -12.3854   18.6171 C   0  0  0  0  0  0
  -27.6764  -13.1967   19.8947 C   0  0  2  0  0  0
  -28.7153  -12.8910   20.9953 C   0  0  0  0  0  0
  -25.2623  -13.8126   20.5696 C   0  0  0  0  0  0
  -24.1857  -13.0413   20.9153 C   0  0  0  0  0  0
  -24.6409  -11.6878   20.8722 C   0  0  0  0  0  0
  -23.9075  -10.4278   21.0421 C   0  0  0  0  0  0
  -24.3613   -9.4182   21.9212 C   0  0  0  0  0  0
  -23.6268   -8.2235   22.0784 C   0  0  0  0  0  0
  -22.4265   -8.0273   21.3557 C   0  0  0  0  0  0
  -21.9897   -9.0262   20.4676 C   0  0  0  0  0  0
  -22.7242  -10.2128   20.3073 C   0  0  0  0  0  0
  -21.6842   -6.0732   22.5284 C   0  0  0  0  0  0
  -21.4012   -6.5639   23.8213 C   0  0  0  0  0  0
  -21.3662   -5.6799   24.9182 C   0  0  0  0  0  0
  -21.6029   -4.3058   24.7235 C   0  0  0  0  0  0
  -21.8820   -3.8142   23.4360 C   0  0  0  0  0  0
  -21.9196   -4.6963   22.3415 C   0  0  0  0  0  0
  -22.7873  -13.5208   21.1815 C   0  0  0  0  0  0
  -22.1664   -4.2137   21.0994 F   0  0  0  0  0  0
  -21.5632   -3.4546   25.7754 F   0  0  0  0  0  0
  -30.0534  -13.2232   20.4683 N   0  0  0  0  0  0
  -26.3095  -12.9309   20.3442 N   0  0  0  0  0  0
  -25.9343  -11.6468   20.5787 N   0  0  0  0  0  0
  -22.0519  -12.8221   22.0371 N   0  0  0  0  0  0
  -25.4258  -15.1867   20.4169 N   0  0  0  0  0  0
  -31.7589  -14.7031   20.1071 O   0  0  0  0  0  0
  -21.6617   -6.8875   21.4246 O   0  0  0  0  0  0
  -22.3557  -14.5536   20.6684 O   0  0  0  0  0  0
  -24.6159  -31.8683   23.2171 C   0  0  0  0  0  0
  -25.9059  -32.4813   23.8464 C   0  0  1  0  0  0
  -27.2159  -27.4596   20.0675 C   0  0  0  0  0  0
  -25.5915  -33.8613   24.2388 N   0  0  0  0  0  0
  -23.3989  -30.4966   21.5590 C   0  0  2  0  0  0
  -24.8379  -28.9823   20.1075 C   0  0  0  0  0  0
  -22.7435  -29.4639   22.5050 C   0  0  0  0  0  0
  -18.0268  -28.1343   22.8515 C   0  0  0  0  0  0
  -24.1462  -36.7315   23.2650 C   0  0  0  0  0  0
  -25.9287  -30.8418   21.3667 C   0  0  0  0  0  0
  -26.0003  -29.4843   20.7035 C   0  0  0  0  0  0
  -27.1937  -28.7309   20.6801 C   0  0  0  0  0  0
  -26.0368  -26.9818   19.4464 C   0  0  0  0  0  0
  -24.8530  -27.7315   19.4748 C   0  0  0  0  0  0
  -23.5961  -29.8374   20.1692 C   0  0  0  0  0  0
  -25.4073  -36.3115   24.0375 C   0  0  1  0  0  0
  -20.5870  -28.3600   23.1358 C   0  0  2  0  0  0
  -20.6745  -26.9364   22.5377 C   0  0  0  0  0  0
  -19.5706  -26.6351   21.5191 C   0  0  0  0  0  0
  -18.1892  -26.7899   22.1613 C   0  0  0  0  0  0
  -19.1521  -28.8788   23.2941 C   0  0  0  0  0  0
  -18.9440  -30.1402   23.8954 C   0  0  0  0  0  0
  -17.6440  -30.6549   24.0577 C   0  0  0  0  0  0
  -25.9012  -34.9468   23.5175 C   0  0  0  0  0  0
  -16.5339  -29.9049   23.6331 C   0  0  0  0  0  0
  -16.7255  -28.6459   23.0368 C   0  0  0  0  0  0
  -26.4489  -31.6626   25.0811 C   0  0  0  0  0  0
  -25.3779  -31.3732   26.1596 C   0  0  0  0  0  0
  -27.0351  -30.3068   24.6210 C   0  0  0  0  0  0
  -27.6048  -32.4380   25.7560 C   0  0  0  0  0  0
  -27.5580  -37.1808   24.8487 C   0  0  0  0  0  0
  -21.4162  -29.3019   22.3828 N   0  0  0  0  0  0
  -26.4274  -37.3790   23.9453 N   0  0  0  0  0  0
  -24.6654  -31.0835   22.1036 N   0  0  0  0  0  0
  -23.4245  -28.8126   23.3013 O   0  0  0  0  0  0
  -28.3777  -26.7197   20.1111 O   0  0  0  0  0  0
  -26.5548  -34.8916   22.4723 O   0  0  0  0  0  0
  -23.5358  -32.1389   23.7600 O   0  0  0  0  0  0
  -29.0989  -19.7690   21.0076 C   0  0  0  0  0  0
  -27.0892  -19.3817   20.2731 C   0  0  0  0  0  0
  -29.0519  -18.5225   20.4326 C   0  0  0  0  0  0
  -25.3585  -23.7601   22.2782 C   0  0  0  0  0  0
  -31.4613  -16.9596   22.5526 C   0  0  0  0  0  0
  -30.1365  -17.4861   20.3836 C   0  0  0  0  0  0
  -26.6583  -22.4629   20.4935 C   0  0  0  0  0  0
  -27.5007  -24.7662   21.3404 C   0  0  0  0  0  0
  -27.3876  -21.5555   21.4973 C   0  0  0  0  0  0
  -28.2401  -25.2937   20.0857 C   0  0  0  0  0  0
  -26.2838  -23.8536   21.0508 C   0  0  2  0  0  0
  -30.2168  -16.6655   21.7003 C   0  0  1  0  0  0
  -27.7622  -18.2778   19.9559 N   0  0  0  0  0  0
  -27.8220  -20.3014   20.9192 N   0  0  0  0  0  0
  -30.0460  -15.2300   21.4875 N   0  0  0  0  0  0
  -31.4833  -12.4523   19.0854 H   0  0  0  0  0  0
  -30.3951  -11.2735   19.7533 H   0  0  0  0  0  0
  -29.7311  -11.8213   17.4014 H   0  0  0  0  0  0
  -29.6672  -13.5247   17.7881 H   0  0  0  0  0  0
  -27.8241  -11.3262   18.7899 H   0  0  0  0  0  0
  -27.3722  -12.6896   17.7970 H   0  0  0  0  0  0
  -27.7429  -14.2562   19.6465 H   0  0  0  0  0  0
  -28.6878  -11.8292   21.2446 H   0  0  0  0  0  0
  -28.4630  -13.3972   21.9285 H   0  0  0  0  0  0
  -25.2769   -9.5627   22.4769 H   0  0  0  0  0  0
  -23.9959   -7.4617   22.7501 H   0  0  0  0  0  0
  -21.0835   -8.8800   19.8971 H   0  0  0  0  0  0
  -22.3744  -10.9669   19.6158 H   0  0  0  0  0  0
  -21.1997   -7.6142   23.9709 H   0  0  0  0  0  0
  -21.1480   -6.0538   25.9083 H   0  0  0  0  0  0
  -22.0599   -2.7599   23.2879 H   0  0  0  0  0  0
  -22.4109  -11.9854   22.4729 H   0  0  0  0  0  0
  -21.1152  -13.1271   22.2625 H   0  0  0  0  0  0
  -24.6502  -15.8265   20.5452 H   0  0  0  0  0  0
  -26.2793  -15.6574   20.1372 H   0  0  0  0  0  0
  -26.7149  -32.5506   23.1254 H   0  0  0  0  0  0
  -25.0107  -33.9762   25.0560 H   0  0  0  0  0  0
  -22.6852  -31.3116   21.4306 H   0  0  0  0  0  0
  -23.3727  -35.9649   23.3313 H   0  0  0  0  0  0
  -24.3555  -36.8909   22.2066 H   0  0  0  0  0  0
  -23.7207  -37.6525   23.6637 H   0  0  0  0  0  0
  -26.0512  -31.6148   20.6062 H   0  0  0  0  0  0
  -26.8164  -30.8806   21.9864 H   0  0  0  0  0  0
  -28.0933  -29.1106   21.1433 H   0  0  0  0  0  0
  -25.9943  -26.0423   18.9182 H   0  0  0  0  0  0
  -23.9623  -27.3486   18.9994 H   0  0  0  0  0  0
  -23.6833  -30.6120   19.4061 H   0  0  0  0  0  0
  -22.7226  -29.2457   19.8866 H   0  0  0  0  0  0
  -25.1224  -36.1995   25.0863 H   0  0  0  0  0  0
  -20.9957  -28.3059   24.1486 H   0  0  0  0  0  0
  -20.5622  -26.2203   23.3529 H   0  0  0  0  0  0
  -21.6601  -26.7374   22.1161 H   0  0  0  0  0  0
  -19.6819  -25.6251   21.1245 H   0  0  0  0  0  0
  -19.6636  -27.3133   20.6692 H   0  0  0  0  0  0
  -17.4169  -26.6718   21.3997 H   0  0  0  0  0  0
  -18.0269  -25.9996   22.8959 H   0  0  0  0  0  0
  -19.7905  -30.7215   24.2368 H   0  0  0  0  0  0
  -17.4958  -31.6233   24.5159 H   0  0  0  0  0  0
  -15.5328  -30.2935   23.7623 H   0  0  0  0  0  0
  -15.8657  -28.0774   22.7086 H   0  0  0  0  0  0
  -24.5932  -30.7067   25.8000 H   0  0  0  0  0  0
  -24.8984  -32.2882   26.5084 H   0  0  0  0  0  0
  -25.8171  -30.8915   27.0345 H   0  0  0  0  0  0
  -26.2922  -29.6807   24.1233 H   0  0  0  0  0  0
  -27.4110  -29.7332   25.4708 H   0  0  0  0  0  0
  -27.8761  -30.4421   23.9390 H   0  0  0  0  0  0
  -27.2645  -33.3676   26.2144 H   0  0  0  0  0  0
  -28.3838  -32.6965   25.0375 H   0  0  0  0  0  0
  -28.0740  -31.8519   26.5481 H   0  0  0  0  0  0
  -28.2596  -38.0099   24.7501 H   0  0  0  0  0  0
  -28.1074  -36.2638   24.6314 H   0  0  0  0  0  0
  -27.2316  -37.1452   25.8892 H   0  0  0  0  0  0
  -20.9320  -29.8858   21.7172 H   0  0  0  0  0  0
  -26.0189  -38.2885   24.1419 H   0  0  0  0  0  0
  -29.9082  -20.2904   21.5012 H   0  0  0  0  0  0
  -26.0381  -19.5132   20.0531 H   0  0  0  0  0  0
  -24.4769  -23.1528   22.0680 H   0  0  0  0  0  0
  -25.0107  -24.7512   22.5746 H   0  0  0  0  0  0
  -25.8654  -23.3253   23.1406 H   0  0  0  0  0  0
  -31.5137  -18.0185   22.8127 H   0  0  0  0  0  0
  -32.3849  -16.6870   22.0418 H   0  0  0  0  0  0
  -31.4218  -16.4048   23.4902 H   0  0  0  0  0  0
  -31.0949  -17.9688   20.1903 H   0  0  0  0  0  0
  -29.9665  -16.8430   19.5199 H   0  0  0  0  0  0
  -25.7464  -21.9652   20.1618 H   0  0  0  0  0  0
  -27.2686  -22.5754   19.5972 H   0  0  0  0  0  0
  -27.1514  -25.6219   21.9197 H   0  0  0  0  0  0
  -28.2093  -24.2703   22.0034 H   0  0  0  0  0  0
  -26.7520  -21.3208   22.3530 H   0  0  0  0  0  0
  -28.2714  -22.0649   21.8808 H   0  0  0  0  0  0
  -27.7659  -24.9611   19.1625 H   0  0  0  0  0  0
  -29.2373  -24.8562   20.0510 H   0  0  0  0  0  0
  -25.6853  -24.3322   20.2770 H   0  0  0  0  0  0
  -29.3559  -16.9443   22.3115 H   0  0  0  0  0  0
  -29.2191  -14.8329   21.9069 H   0  0  0  0  0  0
  1 25  1  0  0  0
  1 30  2  0  0  0
  1 85  1  0  0  0
  2  3  1  0  0  0
  2 25  1  0  0  0
  2 86  1  0  0  0
  2 87  1  0  0  0
  3  4  1  0  0  0
  3 88  1  0  0  0
  3 89  1  0  0  0
  4  5  1  0  0  0
  4 90  1  0  0  0
  4 91  1  0  0  0
  5  6  1  0  0  0
  5 26  1  0  0  0
  5 92  1  0  0  0
  6 25  1  0  0  0
  6 93  1  0  0  0
  6 94  1  0  0  0
  7  8  2  0  0  0
  7 26  1  0  0  0
  7 29  1  0  0  0
  8  9  1  0  0  0
  8 22  1  0  0  0
  9 10  1  0  0  0
  9 27  2  0  0  0
 10 11  2  0  0  0
 10 15  1  0  0  0
 11 12  1  0  0  0
 11 95  1  0  0  0
 12 13  2  0  0  0
 12 96  1  0  0  0
 13 14  1  0  0  0
 13 31  1  0  0  0
 14 15  2  0  0  0
 14 97  1  0  0  0
 15 98  1  0  0  0
 16 17  2  0  0  0
 16 21  1  0  0  0
 16 31  1  0  0  0
 17 18  1  0  0  0
 17 99  1  0  0  0
 18 19  2  0  0  0
 18100  1  0  0  0
 19 20  1  0  0  0
 19 24  1  0  0  0
 20 21  2  0  0  0
 20101  1  0  0  0
 21 23  1  0  0  0
 22 28  1  0  0  0
 22 32  2  0  0  0
 26 27  1  0  0  0
 28102  1  0  0  0
 28103  1  0  0  0
 29104  1  0  0  0
 29105  1  0  0  0
 33 34  1  0  0  0
 33 66  1  0  0  0
 33 70  2  0  0  0
 34 36  1  0  0  0
 34 59  1  0  0  0
 34106  1  0  0  0
 35 44  2  0  0  0
 35 45  1  0  0  0
 35 68  1  0  0  0
 36 56  1  0  0  0
 36107  1  0  0  0
 37 39  1  0  0  0
 37 47  1  0  0  0
 37 66  1  0  0  0
 37108  1  0  0  0
 38 43  2  0  0  0
 38 46  1  0  0  0
 38 47  1  0  0  0
 39 64  1  0  0  0
 39 67  2  0  0  0
 40 52  1  0  0  0
 40 53  2  0  0  0
 40 58  1  0  0  0
 41109  1  0  0  0
 41110  1  0  0  0
 41111  1  0  0  0
 41 48  1  0  0  0
 42 43  1  0  0  0
 42 66  1  0  0  0
 42112  1  0  0  0
 42113  1  0  0  0
 43 44  1  0  0  0
 44114  1  0  0  0
 45 46  2  0  0  0
 45115  1  0  0  0
 46116  1  0  0  0
 47117  1  0  0  0
 47118  1  0  0  0
 48 56  1  0  0  0
 48 65  1  0  0  0
 48119  1  0  0  0
 49 50  1  0  0  0
 49 53  1  0  0  0
 49 64  1  0  0  0
 49120  1  0  0  0
 50 51  1  0  0  0
 50121  1  0  0  0
 50122  1  0  0  0
 51 52  1  0  0  0
 51123  1  0  0  0
 51124  1  0  0  0
 52125  1  0  0  0
 52126  1  0  0  0
 53 54  1  0  0  0
 54 55  2  0  0  0
 54127  1  0  0  0
 55 57  1  0  0  0
 55128  1  0  0  0
 56 69  2  0  0  0
 57 58  2  0  0  0
 57129  1  0  0  0
 58130  1  0  0  0
 59 60  1  0  0  0
 59 61  1  0  0  0
 59 62  1  0  0  0
 60131  1  0  0  0
 60132  1  0  0  0
 60133  1  0  0  0
 61134  1  0  0  0
 61135  1  0  0  0
 61136  1  0  0  0
 62137  1  0  0  0
 62138  1  0  0  0
 62139  1  0  0  0
 63 65  1  0  0  0
 63140  1  0  0  0
 63141  1  0  0  0
 63142  1  0  0  0
 64143  1  0  0  0
 65144  1  0  0  0
 68 80  1  0  0  0
 71 73  2  0  0  0
 71 84  1  0  0  0
 71145  1  0  0  0
 72 83  2  0  0  0
 72 84  1  0  0  0
 72146  1  0  0  0
 73 76  1  0  0  0
 73 83  1  0  0  0
 74147  1  0  0  0
 74148  1  0  0  0
 74149  1  0  0  0
 74 81  1  0  0  0
 75150  1  0  0  0
 75151  1  0  0  0
 75152  1  0  0  0
 75 82  1  0  0  0
 76 82  1  0  0  0
 76153  1  0  0  0
 76154  1  0  0  0
 77 79  1  0  0  0
 77 81  1  0  0  0
 77155  1  0  0  0
 77156  1  0  0  0
 78 80  1  0  0  0
 78 81  1  0  0  0
 78157  1  0  0  0
 78158  1  0  0  0
 79 84  1  0  0  0
 79159  1  0  0  0
 79160  1  0  0  0
 80161  1  0  0  0
 80162  1  0  0  0
 81163  1  0  0  0
 82 85  1  0  0  0
 82164  1  0  0  0
 85165  1  0  0  0
M  ISO  4   1 100  68 101  80 101  85 100
M  END
> <chiral flag>
0

> <version>
0

> <s_m_source_file>
/data/baiqing/PycharmProjects/Reinvent-master-3.2/result/LINK_invent/BTK/process_docking_weight1_custom_sum_contain_oxygen_bond_distance_aromatic_linkinvent_7_9_3/rearranged_h_0080.sdf

> <i_m_source_file_index>
78

> <r_mmod_Potential_Energy-OPLS-2005>
-25.4635772705078

> <r_mmod_Stretch_Energy-OPLS-2005>
32.4178085327148

> <r_mmod_Bend_Energy-OPLS-2005>
108.57048034668

> <r_mmod_Torsional_Energy-OPLS-2005>
228.073776245117

> <r_mmod_Improper_Torsional_Energy-OPLS-2005>
3.01540970802307

> <r_mmod_Van_der_Waal_Energy-OPLS-2005>
134.293182373047

> <r_mmod_Electrostatic_Energy-OPLS-2005>
-335.581329345703

> <r_mmod_Solvation_Energy-OPLS-2005>
-207.206604003906

> <b_mmod_Minimization_Converged-OPLS-2005>
0

> <r_mmod_RMS_Derivative-OPLS-2005>
3.88207697868347

$$$$
81
                    3D
 Structure written by MMmdl.
177185  0  0  1  0            999 V2000
  -30.7479  -14.4175   20.5686 C   0  0  0  0  0  0
  -30.4082  -12.2697   19.4173 C   0  0  0  0  0  0
  -29.4880  -12.4907   18.2021 C   0  0  0  0  0  0
  -28.0098  -12.3690   18.6176 C   0  0  0  0  0  0
  -27.6634  -13.2096   19.8759 C   0  0  2  0  0  0
  -28.7068  -12.9913   20.9962 C   0  0  0  0  0  0
  -25.2590  -13.8193   20.5691 C   0  0  0  0  0  0
  -24.1861  -13.0443   20.9208 C   0  0  0  0  0  0
  -24.6432  -11.6915   20.8782 C   0  0  0  0  0  0
  -23.9111  -10.4304   21.0435 C   0  0  0  0  0  0
  -24.3653   -9.4197   21.9218 C   0  0  0  0  0  0
  -23.6299   -8.2245   22.0776 C   0  0  0  0  0  0
  -22.4280   -8.0312   21.3568 C   0  0  0  0  0  0
  -21.9938   -9.0293   20.4660 C   0  0  0  0  0  0
  -22.7282  -10.2163   20.3063 C   0  0  0  0  0  0
  -21.6838   -6.0756   22.5304 C   0  0  0  0  0  0
  -21.4003   -6.5661   23.8243 C   0  0  0  0  0  0
  -21.3640   -5.6807   24.9210 C   0  0  0  0  0  0
  -21.6029   -4.3073   24.7246 C   0  0  0  0  0  0
  -21.8806   -3.8166   23.4369 C   0  0  0  0  0  0
  -21.9181   -4.6981   22.3427 C   0  0  0  0  0  0
  -22.7877  -13.5223   21.1852 C   0  0  0  0  0  0
  -22.1640   -4.2170   21.0995 F   0  0  0  0  0  0
  -21.5627   -3.4539   25.7751 F   0  0  0  0  0  0
  -30.0432  -13.2624   20.4406 N   0  0  0  0  0  0
  -26.3047  -12.9358   20.3397 N   0  0  0  0  0  0
  -25.9349  -11.6512   20.5791 N   0  0  0  0  0  0
  -22.0496  -12.8238   22.0409 N   0  0  0  0  0  0
  -25.4347  -15.1909   20.4043 N   0  0  0  0  0  0
  -31.8547  -14.5866   20.0509 O   0  0  0  0  0  0
  -21.6634   -6.8900   21.4264 O   0  0  0  0  0  0
  -22.3561  -14.5520   20.6668 O   0  0  0  0  0  0
  -24.6107  -31.8702   23.2102 C   0  0  0  0  0  0
  -25.9025  -32.4827   23.8389 C   0  0  1  0  0  0
  -27.2402  -27.4620   20.0661 C   0  0  0  0  0  0
  -25.5907  -33.8632   24.2332 N   0  0  0  0  0  0
  -23.3963  -30.4937   21.5517 C   0  0  2  0  0  0
  -24.8374  -28.9604   20.1143 C   0  0  0  0  0  0
  -22.7398  -29.4667   22.5012 C   0  0  0  0  0  0
  -18.0273  -28.1396   22.8497 C   0  0  0  0  0  0
  -24.1496  -36.7293   23.2644 C   0  0  0  0  0  0
  -25.9201  -30.8397   21.3595 C   0  0  0  0  0  0
  -25.9937  -29.4739   20.7107 C   0  0  0  0  0  0
  -27.1883  -28.7262   20.6939 C   0  0  0  0  0  0
  -26.0582  -26.9556   19.4732 C   0  0  0  0  0  0
  -24.8631  -27.6972   19.5011 C   0  0  0  0  0  0
  -23.5999  -29.8255   20.1652 C   0  0  0  0  0  0
  -25.4123  -36.3112   24.0338 C   0  0  1  0  0  0
  -20.5866  -28.3672   23.1335 C   0  0  2  0  0  0
  -20.6764  -26.9415   22.5429 C   0  0  0  0  0  0
  -19.5753  -26.6404   21.5215 C   0  0  0  0  0  0
  -18.1923  -26.7954   22.1610 C   0  0  0  0  0  0
  -19.1521  -28.8845   23.2914 C   0  0  0  0  0  0
  -18.9455  -30.1452   23.8931 C   0  0  0  0  0  0
  -17.6460  -30.6598   24.0583 C   0  0  0  0  0  0
  -25.9050  -34.9485   23.5127 C   0  0  0  0  0  0
  -16.5351  -29.9110   23.6324 C   0  0  0  0  0  0
  -16.7260  -28.6527   23.0343 C   0  0  0  0  0  0
  -26.4452  -31.6607   25.0719 C   0  0  0  0  0  0
  -25.3715  -31.3703   26.1474 C   0  0  0  0  0  0
  -27.0292  -30.3072   24.6055 C   0  0  0  0  0  0
  -27.6062  -32.4302   25.7465 C   0  0  0  0  0  0
  -27.5588  -37.1804   24.8473 C   0  0  0  0  0  0
  -21.4132  -29.3037   22.3750 N   0  0  0  0  0  0
  -26.4297  -37.3802   23.9416 N   0  0  0  0  0  0
  -24.6609  -31.0831   22.0994 N   0  0  0  0  0  0
  -23.4184  -28.8219   23.3049 O   0  0  0  0  0  0
  -28.4658  -26.8283   20.0818 O   0  0  0  0  0  0
  -26.5600  -34.8929   22.4688 O   0  0  0  0  0  0
  -23.5317  -32.1456   23.7505 O   0  0  0  0  0  0
  -27.5398  -20.1657   21.4231 C   0  0  0  0  0  0
  -28.5256  -21.7674   20.0728 C   0  0  0  0  0  0
  -29.7576  -21.0607   20.1611 C   0  0  0  0  0  0
  -28.7751  -19.4650   21.5338 C   0  0  0  0  0  0
  -32.4498  -20.8397   17.3806 C   0  0  0  0  0  0
  -28.4126  -24.2632   21.5559 C   0  0  0  0  0  0
  -28.5874  -25.7691   17.8679 C   0  0  0  0  0  0
  -30.3268  -25.5806   19.6321 C   0  0  0  0  0  0
  -27.7694  -17.5849   22.8125 C   0  0  0  0  0  0
  -28.3510  -23.0442   19.2489 C   0  0  0  0  0  0
  -31.0294  -21.4571   19.4246 C   0  0  0  0  0  0
  -31.0345  -21.0197   17.9456 C   0  0  0  0  0  0
  -30.5753  -16.8223   21.0961 C   0  0  0  0  0  0
  -30.2495  -17.6240   22.3686 C   0  0  0  0  0  0
  -28.1098  -24.3647   20.0419 C   0  0  2  0  0  0
  -28.8017  -25.6154   19.3941 C   0  0  0  0  0  0
  -27.4119  -21.3018   20.6910 N   0  0  0  0  0  0
  -29.8687  -19.9266   20.8855 N   0  0  0  0  0  0
  -30.1158  -15.4345   21.1699 N   0  0  0  0  0  0
  -28.9420  -18.2861   22.3011 N   0  0  0  0  0  0
  -31.4554  -12.3303   19.1146 H   0  0  0  0  0  0
  -30.2741  -11.2636   19.8098 H   0  0  0  0  0  0
  -29.7160  -11.7596   17.4232 H   0  0  0  0  0  0
  -29.6758  -13.4701   17.7618 H   0  0  0  0  0  0
  -27.8124  -11.3148   18.8152 H   0  0  0  0  0  0
  -27.3579  -12.6499   17.7903 H   0  0  0  0  0  0
  -27.7058  -14.2571   19.5757 H   0  0  0  0  0  0
  -28.6672  -11.9642   21.3577 H   0  0  0  0  0  0
  -28.4804  -13.6124   21.8617 H   0  0  0  0  0  0
  -25.2801   -9.5662   22.4806 H   0  0  0  0  0  0
  -23.9990   -7.4626   22.7489 H   0  0  0  0  0  0
  -21.0876   -8.8831   19.8964 H   0  0  0  0  0  0
  -22.3774  -10.9718   19.6173 H   0  0  0  0  0  0
  -21.2013   -7.6178   23.9752 H   0  0  0  0  0  0
  -21.1452   -6.0557   25.9109 H   0  0  0  0  0  0
  -22.0601   -2.7629   23.2885 H   0  0  0  0  0  0
  -22.4007  -11.9850   22.4782 H   0  0  0  0  0  0
  -21.1141  -13.1325   22.2567 H   0  0  0  0  0  0
  -24.6691  -15.8513   20.4870 H   0  0  0  0  0  0
  -26.2811  -15.6148   20.0457 H   0  0  0  0  0  0
  -26.7104  -32.5551   23.1167 H   0  0  0  0  0  0
  -25.0105  -33.9819   25.0513 H   0  0  0  0  0  0
  -22.6838  -31.3101   21.4153 H   0  0  0  0  0  0
  -23.3763  -35.9617   23.3316 H   0  0  0  0  0  0
  -24.3597  -36.8884   22.2048 H   0  0  0  0  0  0
  -23.7216  -37.6496   23.6646 H   0  0  0  0  0  0
  -26.0313  -31.6003   20.5847 H   0  0  0  0  0  0
  -26.8099  -30.8938   21.9750 H   0  0  0  0  0  0
  -28.0847  -29.1227   21.1518 H   0  0  0  0  0  0
  -26.0233  -26.0028   18.9744 H   0  0  0  0  0  0
  -23.9741  -27.2938   19.0368 H   0  0  0  0  0  0
  -23.7098  -30.6012   19.4057 H   0  0  0  0  0  0
  -22.7215  -29.2473   19.8699 H   0  0  0  0  0  0
  -25.1292  -36.1976   25.0826 H   0  0  0  0  0  0
  -20.9958  -28.3222   24.1452 H   0  0  0  0  0  0
  -20.5679  -26.2267   23.3615 H   0  0  0  0  0  0
  -21.6636  -26.7474   22.1216 H   0  0  0  0  0  0
  -19.6923  -25.6318   21.1232 H   0  0  0  0  0  0
  -19.6709  -27.3228   20.6771 H   0  0  0  0  0  0
  -17.4211  -26.6728   21.3991 H   0  0  0  0  0  0
  -18.0297  -26.0081   22.8994 H   0  0  0  0  0  0
  -19.7934  -30.7252   24.2318 H   0  0  0  0  0  0
  -17.5024  -31.6285   24.5179 H   0  0  0  0  0  0
  -15.5353  -30.3030   23.7640 H   0  0  0  0  0  0
  -15.8662  -28.0862   22.7046 H   0  0  0  0  0  0
  -24.5926  -30.6998   25.7807 H   0  0  0  0  0  0
  -24.8851  -32.2844   26.4890 H   0  0  0  0  0  0
  -25.8058  -30.8912   27.0257 H   0  0  0  0  0  0
  -26.2828  -29.6829   24.1118 H   0  0  0  0  0  0
  -27.4121  -29.7297   25.4476 H   0  0  0  0  0  0
  -27.8630  -30.4444   23.9166 H   0  0  0  0  0  0
  -27.2746  -33.3634   26.2038 H   0  0  0  0  0  0
  -28.3868  -32.6789   25.0260 H   0  0  0  0  0  0
  -28.0736  -31.8413   26.5372 H   0  0  0  0  0  0
  -28.2611  -38.0102   24.7522 H   0  0  0  0  0  0
  -28.1068  -36.2622   24.6284 H   0  0  0  0  0  0
  -27.2311  -37.1433   25.8883 H   0  0  0  0  0  0
  -20.9293  -29.8748   21.6970 H   0  0  0  0  0  0
  -26.0178  -38.2873   24.1432 H   0  0  0  0  0  0
  -26.6419  -19.8361   21.9207 H   0  0  0  0  0  0
  -32.4195  -20.6286   16.3118 H   0  0  0  0  0  0
  -32.9617  -20.0067   17.8614 H   0  0  0  0  0  0
  -33.0569  -21.7346   17.5258 H   0  0  0  0  0  0
  -27.6934  -23.6185   22.0581 H   0  0  0  0  0  0
  -28.3489  -25.2341   22.0450 H   0  0  0  0  0  0
  -29.4097  -23.8640   21.7411 H   0  0  0  0  0  0
  -29.1206  -25.0037   17.3016 H   0  0  0  0  0  0
  -28.9788  -26.7281   17.5257 H   0  0  0  0  0  0
  -27.5476  -25.7145   17.5602 H   0  0  0  0  0  0
  -30.7879  -24.6851   19.2241 H   0  0  0  0  0  0
  -30.5782  -25.6237   20.6912 H   0  0  0  0  0  0
  -30.8182  -26.4330   19.1628 H   0  0  0  0  0  0
  -27.0879  -18.2627   23.3268 H   0  0  0  0  0  0
  -28.0556  -16.8201   23.5367 H   0  0  0  0  0  0
  -27.2293  -17.0959   22.0017 H   0  0  0  0  0  0
  -27.5251  -22.8950   18.5514 H   0  0  0  0  0  0
  -29.2180  -23.1595   18.6081 H   0  0  0  0  0  0
  -31.8709  -20.9798   19.9308 H   0  0  0  0  0  0
  -31.2110  -22.5234   19.5261 H   0  0  0  0  0  0
  -30.5021  -20.0724   17.8427 H   0  0  0  0  0  0
  -30.4845  -21.7404   17.3406 H   0  0  0  0  0  0
  -31.6608  -16.8505   20.9692 H   0  0  0  0  0  0
  -30.1699  -17.2967   20.2010 H   0  0  0  0  0  0
  -31.0207  -18.3859   22.5168 H   0  0  0  0  0  0
  -30.3229  -16.9880   23.2527 H   0  0  0  0  0  0
  -27.0329  -24.5020   20.0108 H   0  0  0  0  0  0
  -29.1973  -15.2616   21.5471 H   0  0  0  0  0  0
  1 25  1  0  0  0
  1 30  2  0  0  0
  1 89  1  0  0  0
  2  3  1  0  0  0
  2 25  1  0  0  0
  2 91  1  0  0  0
  2 92  1  0  0  0
  3  4  1  0  0  0
  3 93  1  0  0  0
  3 94  1  0  0  0
  4  5  1  0  0  0
  4 95  1  0  0  0
  4 96  1  0  0  0
  5  6  1  0  0  0
  5 26  1  0  0  0
  5 97  1  0  0  0
  6 25  1  0  0  0
  6 98  1  0  0  0
  6 99  1  0  0  0
  7  8  2  0  0  0
  7 26  1  0  0  0
  7 29  1  0  0  0
  8  9  1  0  0  0
  8 22  1  0  0  0
  9 10  1  0  0  0
  9 27  2  0  0  0
 10 11  2  0  0  0
 10 15  1  0  0  0
 11 12  1  0  0  0
 11100  1  0  0  0
 12 13  2  0  0  0
 12101  1  0  0  0
 13 14  1  0  0  0
 13 31  1  0  0  0
 14 15  2  0  0  0
 14102  1  0  0  0
 15103  1  0  0  0
 16 17  2  0  0  0
 16 21  1  0  0  0
 16 31  1  0  0  0
 17 18  1  0  0  0
 17104  1  0  0  0
 18 19  2  0  0  0
 18105  1  0  0  0
 19 20  1  0  0  0
 19 24  1  0  0  0
 20 21  2  0  0  0
 20106  1  0  0  0
 21 23  1  0  0  0
 22 28  1  0  0  0
 22 32  2  0  0  0
 26 27  1  0  0  0
 28107  1  0  0  0
 28108  1  0  0  0
 29109  1  0  0  0
 29110  1  0  0  0
 33 34  1  0  0  0
 33 66  1  0  0  0
 33 70  2  0  0  0
 34 36  1  0  0  0
 34 59  1  0  0  0
 34111  1  0  0  0
 35 44  2  0  0  0
 35 45  1  0  0  0
 35 68  1  0  0  0
 36 56  1  0  0  0
 36112  1  0  0  0
 37 39  1  0  0  0
 37 47  1  0  0  0
 37 66  1  0  0  0
 37113  1  0  0  0
 38 43  2  0  0  0
 38 46  1  0  0  0
 38 47  1  0  0  0
 39 64  1  0  0  0
 39 67  2  0  0  0
 40 52  1  0  0  0
 40 53  2  0  0  0
 40 58  1  0  0  0
 41114  1  0  0  0
 41115  1  0  0  0
 41116  1  0  0  0
 41 48  1  0  0  0
 42 43  1  0  0  0
 42 66  1  0  0  0
 42117  1  0  0  0
 42118  1  0  0  0
 43 44  1  0  0  0
 44119  1  0  0  0
 45 46  2  0  0  0
 45120  1  0  0  0
 46121  1  0  0  0
 47122  1  0  0  0
 47123  1  0  0  0
 48 56  1  0  0  0
 48 65  1  0  0  0
 48124  1  0  0  0
 49 50  1  0  0  0
 49 53  1  0  0  0
 49 64  1  0  0  0
 49125  1  0  0  0
 50 51  1  0  0  0
 50126  1  0  0  0
 50127  1  0  0  0
 51 52  1  0  0  0
 51128  1  0  0  0
 51129  1  0  0  0
 52130  1  0  0  0
 52131  1  0  0  0
 53 54  1  0  0  0
 54 55  2  0  0  0
 54132  1  0  0  0
 55 57  1  0  0  0
 55133  1  0  0  0
 56 69  2  0  0  0
 57 58  2  0  0  0
 57134  1  0  0  0
 58135  1  0  0  0
 59 60  1  0  0  0
 59 61  1  0  0  0
 59 62  1  0  0  0
 60136  1  0  0  0
 60137  1  0  0  0
 60138  1  0  0  0
 61139  1  0  0  0
 61140  1  0  0  0
 61141  1  0  0  0
 62142  1  0  0  0
 62143  1  0  0  0
 62144  1  0  0  0
 63 65  1  0  0  0
 63145  1  0  0  0
 63146  1  0  0  0
 63147  1  0  0  0
 64148  1  0  0  0
 65149  1  0  0  0
 68 86  1  0  0  0
 71 74  2  0  0  0
 71 87  1  0  0  0
 71150  1  0  0  0
 72 73  1  0  0  0
 72 80  1  0  0  0
 72 87  2  0  0  0
 73 81  1  0  0  0
 73 88  2  0  0  0
 74 88  1  0  0  0
 74 90  1  0  0  0
 75 82  1  0  0  0
 75151  1  0  0  0
 75152  1  0  0  0
 75153  1  0  0  0
 76154  1  0  0  0
 76155  1  0  0  0
 76156  1  0  0  0
 76 85  1  0  0  0
 77157  1  0  0  0
 77158  1  0  0  0
 77159  1  0  0  0
 77 86  1  0  0  0
 78 86  1  0  0  0
 78160  1  0  0  0
 78161  1  0  0  0
 78162  1  0  0  0
 79 90  1  0  0  0
 79163  1  0  0  0
 79164  1  0  0  0
 79165  1  0  0  0
 80 85  1  0  0  0
 80166  1  0  0  0
 80167  1  0  0  0
 81 82  1  0  0  0
 81168  1  0  0  0
 81169  1  0  0  0
 82170  1  0  0  0
 82171  1  0  0  0
 83 84  1  0  0  0
 83 89  1  0  0  0
 83172  1  0  0  0
 83173  1  0  0  0
 84 90  1  0  0  0
 84174  1  0  0  0
 84175  1  0  0  0
 85 86  1  0  0  0
 85176  1  0  0  0
 89177  1  0  0  0
M  ISO  4   1 100  68 101  86 101  89 100
M  END
> <chiral flag>
0

> <version>
0

> <s_m_source_file>
/data/baiqing/PycharmProjects/Reinvent-master-3.2/result/LINK_invent/BTK/process_docking_weight1_custom_sum_contain_oxygen_bond_distance_aromatic_linkinvent_7_9_3/rearranged_h_0080.sdf

> <i_m_source_file_index>
79

> <r_mmod_Potential_Energy-OPLS-2005>
-39.356803894043

> <r_mmod_Stretch_Energy-OPLS-2005>
41.4989166259766

> <r_mmod_Bend_Energy-OPLS-2005>
148.959945678711

> <r_mmod_Torsional_Energy-OPLS-2005>
192.620544433594

> <r_mmod_Improper_Torsional_Energy-OPLS-2005>
4.12742900848389

> <r_mmod_Van_der_Waal_Energy-OPLS-2005>
174.883712768555

> <r_mmod_Electrostatic_Energy-OPLS-2005>
-393.692474365234

> <r_mmod_Solvation_Energy-OPLS-2005>
-219.670639038086

> <b_mmod_Minimization_Converged-OPLS-2005>
0

> <r_mmod_RMS_Derivative-OPLS-2005>
3.55542826652527

$$$$
82
                    3D
 Structure written by MMmdl.
160168  0  0  1  0            999 V2000
  -30.7431  -14.4488   20.6282 C   0  0  0  0  0  0
  -30.4175  -12.3202   19.4178 C   0  0  0  0  0  0
  -29.4886  -12.5170   18.2032 C   0  0  0  0  0  0
  -28.0111  -12.3632   18.6125 C   0  0  0  0  0  0
  -27.6599  -13.1940   19.8724 C   0  0  2  0  0  0
  -28.7026  -12.9488   20.9881 C   0  0  0  0  0  0
  -25.2593  -13.8141   20.5671 C   0  0  0  0  0  0
  -24.1835  -13.0442   20.9169 C   0  0  0  0  0  0
  -24.6362  -11.6900   20.8722 C   0  0  0  0  0  0
  -23.9023  -10.4298   21.0397 C   0  0  0  0  0  0
  -24.3591   -9.4220   21.9175 C   0  0  0  0  0  0
  -23.6279   -8.2251   22.0752 C   0  0  0  0  0  0
  -22.4258   -8.0277   21.3546 C   0  0  0  0  0  0
  -21.9883   -9.0246   20.4648 C   0  0  0  0  0  0
  -22.7200  -10.2131   20.3047 C   0  0  0  0  0  0
  -21.6857   -6.0720   22.5270 C   0  0  0  0  0  0
  -21.4025   -6.5628   23.8206 C   0  0  0  0  0  0
  -21.3660   -5.6778   24.9165 C   0  0  0  0  0  0
  -21.6041   -4.3040   24.7222 C   0  0  0  0  0  0
  -21.8821   -3.8132   23.4345 C   0  0  0  0  0  0
  -21.9202   -4.6949   22.3399 C   0  0  0  0  0  0
  -22.7864  -13.5251   21.1844 C   0  0  0  0  0  0
  -22.1670   -4.2128   21.0978 F   0  0  0  0  0  0
  -21.5624   -3.4527   25.7742 F   0  0  0  0  0  0
  -30.0295  -13.2953   20.4562 N   0  0  0  0  0  0
  -26.3002  -12.9278   20.3335 N   0  0  0  0  0  0
  -25.9277  -11.6455   20.5738 N   0  0  0  0  0  0
  -22.0502  -12.8256   22.0399 N   0  0  0  0  0  0
  -25.4353  -15.1855   20.4085 N   0  0  0  0  0  0
  -31.8221  -14.6361   20.0643 O   0  0  0  0  0  0
  -21.6643   -6.8862   21.4234 O   0  0  0  0  0  0
  -22.3561  -14.5563   20.6692 O   0  0  0  0  0  0
  -24.6123  -31.8690   23.2109 C   0  0  0  0  0  0
  -25.9027  -32.4819   23.8388 C   0  0  1  0  0  0
  -27.2395  -27.4578   20.0938 C   0  0  0  0  0  0
  -25.5894  -33.8617   24.2327 N   0  0  0  0  0  0
  -23.3990  -30.4921   21.5500 C   0  0  2  0  0  0
  -24.8480  -28.9556   20.1165 C   0  0  0  0  0  0
  -22.7394  -29.4671   22.4998 C   0  0  0  0  0  0
  -18.0268  -28.1359   22.8485 C   0  0  0  0  0  0
  -24.1489  -36.7318   23.2635 C   0  0  0  0  0  0
  -25.9233  -30.8408   21.3602 C   0  0  0  0  0  0
  -26.0043  -29.4737   20.7143 C   0  0  0  0  0  0
  -27.2046  -28.7302   20.7046 C   0  0  0  0  0  0
  -26.0722  -26.9467   19.4927 C   0  0  0  0  0  0
  -24.8746  -27.6882   19.5051 C   0  0  0  0  0  0
  -23.6075  -29.8191   20.1657 C   0  0  0  0  0  0
  -25.4102  -36.3110   24.0341 C   0  0  1  0  0  0
  -20.5854  -28.3653   23.1318 C   0  0  2  0  0  0
  -20.6766  -26.9391   22.5415 C   0  0  0  0  0  0
  -19.5752  -26.6372   21.5203 C   0  0  0  0  0  0
  -18.1930  -26.7907   22.1614 C   0  0  0  0  0  0
  -19.1515  -28.8819   23.2903 C   0  0  0  0  0  0
  -18.9442  -30.1423   23.8919 C   0  0  0  0  0  0
  -17.6449  -30.6569   24.0559 C   0  0  0  0  0  0
  -25.9023  -34.9473   23.5126 C   0  0  0  0  0  0
  -16.5339  -29.9072   23.6311 C   0  0  0  0  0  0
  -16.7259  -28.6484   23.0340 C   0  0  0  0  0  0
  -26.4470  -31.6584   25.0697 C   0  0  0  0  0  0
  -25.3757  -31.3691   26.1462 C   0  0  0  0  0  0
  -27.0286  -30.3030   24.6039 C   0  0  0  0  0  0
  -27.6049  -32.4294   25.7462 C   0  0  0  0  0  0
  -27.5579  -37.1810   24.8465 C   0  0  0  0  0  0
  -21.4119  -29.3042   22.3743 N   0  0  0  0  0  0
  -26.4288  -37.3788   23.9414 N   0  0  0  0  0  0
  -24.6630  -31.0816   22.0993 N   0  0  0  0  0  0
  -23.4177  -28.8204   23.3026 O   0  0  0  0  0  0
  -28.4050  -26.7331   20.0439 O   0  0  0  0  0  0
  -26.5588  -34.8928   22.4689 O   0  0  0  0  0  0
  -23.5330  -32.1433   23.7529 O   0  0  0  0  0  0
  -28.6521  -20.8686   21.2319 C   0  0  0  0  0  0
  -27.7773  -21.9462   21.5092 C   0  0  0  0  0  0
  -28.0838  -19.5891   21.0386 C   0  0  0  0  0  0
  -26.3923  -21.6509   21.5617 C   0  0  0  0  0  0
  -25.3489  -22.6820   21.9552 C   0  0  0  0  0  0
  -28.3182  -23.3397   21.8210 C   0  0  0  0  0  0
  -28.9282  -18.3338   20.8307 C   0  0  0  0  0  0
  -28.2316  -24.3425   20.6497 C   0  0  0  0  0  0
  -28.9659  -17.4351   22.0932 C   0  0  0  0  0  0
  -29.0125  -15.9101   21.8419 C   0  0  0  0  0  0
  -28.5631  -25.7818   21.0970 C   0  0  0  0  0  0
  -26.7420  -19.3935   21.0617 N   0  0  0  0  0  0
  -25.9116  -20.4068   21.3221 N   0  0  0  0  0  0
  -30.3425  -15.3917   21.5061 N   0  0  0  0  0  0
  -31.4609  -12.4152   19.1122 H   0  0  0  0  0  0
  -30.3256  -11.3045   19.8046 H   0  0  0  0  0  0
  -29.7339  -11.7982   17.4198 H   0  0  0  0  0  0
  -29.6505  -13.5073   17.7733 H   0  0  0  0  0  0
  -27.8235  -11.3060   18.8043 H   0  0  0  0  0  0
  -27.3590  -12.6408   17.7838 H   0  0  0  0  0  0
  -27.7048  -14.2360   19.5621 H   0  0  0  0  0  0
  -28.6958  -11.8950   21.2691 H   0  0  0  0  0  0
  -28.4502  -13.4599   21.9105 H   0  0  0  0  0  0
  -25.2735   -9.5706   22.4743 H   0  0  0  0  0  0
  -23.9989   -7.4646   22.7469 H   0  0  0  0  0  0
  -21.0811   -8.8754   19.8959 H   0  0  0  0  0  0
  -22.3646  -10.9665   19.6151 H   0  0  0  0  0  0
  -21.2023   -7.6137   23.9700 H   0  0  0  0  0  0
  -21.1480   -6.0512   25.9066 H   0  0  0  0  0  0
  -22.0604   -2.7593   23.2850 H   0  0  0  0  0  0
  -22.4113  -11.9903   22.4769 H   0  0  0  0  0  0
  -21.1128  -13.1302   22.2611 H   0  0  0  0  0  0
  -24.6762  -15.8469   20.5290 H   0  0  0  0  0  0
  -26.2887  -15.6219   20.0872 H   0  0  0  0  0  0
  -26.7093  -32.5558   23.1151 H   0  0  0  0  0  0
  -25.0063  -33.9771   25.0488 H   0  0  0  0  0  0
  -22.6874  -31.3084   21.4095 H   0  0  0  0  0  0
  -23.3738  -35.9664   23.3309 H   0  0  0  0  0  0
  -24.3587  -36.8918   22.2047 H   0  0  0  0  0  0
  -23.7257  -37.6533   23.6637 H   0  0  0  0  0  0
  -26.0267  -31.6050   20.5891 H   0  0  0  0  0  0
  -26.8136  -30.9001   21.9740 H   0  0  0  0  0  0
  -28.1010  -29.1310   21.1580 H   0  0  0  0  0  0
  -26.0952  -25.9824   19.0062 H   0  0  0  0  0  0
  -23.9884  -27.2839   19.0349 H   0  0  0  0  0  0
  -23.7092  -30.5903   19.4010 H   0  0  0  0  0  0
  -22.7324  -29.2354   19.8750 H   0  0  0  0  0  0
  -25.1279  -36.1970   25.0833 H   0  0  0  0  0  0
  -20.9950  -28.3218   24.1439 H   0  0  0  0  0  0
  -20.5662  -26.2267   23.3600 H   0  0  0  0  0  0
  -21.6644  -26.7440   22.1218 H   0  0  0  0  0  0
  -19.6921  -25.6281   21.1239 H   0  0  0  0  0  0
  -19.6686  -27.3174   20.6735 H   0  0  0  0  0  0
  -17.4198  -26.6645   21.4020 H   0  0  0  0  0  0
  -18.0330  -26.0035   22.9001 H   0  0  0  0  0  0
  -19.7919  -30.7221   24.2318 H   0  0  0  0  0  0
  -17.5002  -31.6251   24.5151 H   0  0  0  0  0  0
  -15.5338  -30.2981   23.7614 H   0  0  0  0  0  0
  -15.8663  -28.0805   22.7050 H   0  0  0  0  0  0
  -24.5907  -30.7058   25.7812 H   0  0  0  0  0  0
  -24.8977  -32.2852   26.4944 H   0  0  0  0  0  0
  -25.8132  -30.8835   27.0193 H   0  0  0  0  0  0
  -26.2806  -29.6798   24.1120 H   0  0  0  0  0  0
  -27.4097  -29.7256   25.4473 H   0  0  0  0  0  0
  -27.8628  -30.4352   23.9143 H   0  0  0  0  0  0
  -27.2659  -33.3570   26.2087 H   0  0  0  0  0  0
  -28.3839  -32.6890   25.0279 H   0  0  0  0  0  0
  -28.0732  -31.8382   26.5342 H   0  0  0  0  0  0
  -28.2604  -38.0100   24.7498 H   0  0  0  0  0  0
  -28.1068  -36.2632   24.6301 H   0  0  0  0  0  0
  -27.2300  -37.1474   25.8868 H   0  0  0  0  0  0
  -20.9266  -29.8798   21.7000 H   0  0  0  0  0  0
  -26.0185  -38.2872   24.1398 H   0  0  0  0  0  0
  -29.7230  -21.0089   21.2044 H   0  0  0  0  0  0
  -25.4040  -22.8708   23.0274 H   0  0  0  0  0  0
  -24.3402  -22.3345   21.7313 H   0  0  0  0  0  0
  -25.4901  -23.6274   21.4357 H   0  0  0  0  0  0
  -29.3535  -23.2596   22.1558 H   0  0  0  0  0  0
  -27.7661  -23.7292   22.6764 H   0  0  0  0  0  0
  -29.9399  -18.6066   20.5283 H   0  0  0  0  0  0
  -28.5031  -17.7873   19.9878 H   0  0  0  0  0  0
  -27.2310  -24.3284   20.2226 H   0  0  0  0  0  0
  -28.9041  -24.0344   19.8491 H   0  0  0  0  0  0
  -28.0393  -17.6034   22.6441 H   0  0  0  0  0  0
  -29.7537  -17.7590   22.7735 H   0  0  0  0  0  0
  -28.2791  -15.6623   21.0802 H   0  0  0  0  0  0
  -28.6960  -15.4217   22.7641 H   0  0  0  0  0  0
  -29.6008  -25.8233   21.4295 H   0  0  0  0  0  0
  -27.9574  -26.0550   21.9640 H   0  0  0  0  0  0
  -31.0842  -16.0499   21.6941 H   0  0  0  0  0  0
  1 25  1  0  0  0
  1 30  2  0  0  0
  1 84  1  0  0  0
  2  3  1  0  0  0
  2 25  1  0  0  0
  2 85  1  0  0  0
  2 86  1  0  0  0
  3  4  1  0  0  0
  3 87  1  0  0  0
  3 88  1  0  0  0
  4  5  1  0  0  0
  4 89  1  0  0  0
  4 90  1  0  0  0
  5  6  1  0  0  0
  5 26  1  0  0  0
  5 91  1  0  0  0
  6 25  1  0  0  0
  6 92  1  0  0  0
  6 93  1  0  0  0
  7  8  2  0  0  0
  7 26  1  0  0  0
  7 29  1  0  0  0
  8  9  1  0  0  0
  8 22  1  0  0  0
  9 10  1  0  0  0
  9 27  2  0  0  0
 10 11  2  0  0  0
 10 15  1  0  0  0
 11 12  1  0  0  0
 11 94  1  0  0  0
 12 13  2  0  0  0
 12 95  1  0  0  0
 13 14  1  0  0  0
 13 31  1  0  0  0
 14 15  2  0  0  0
 14 96  1  0  0  0
 15 97  1  0  0  0
 16 17  2  0  0  0
 16 21  1  0  0  0
 16 31  1  0  0  0
 17 18  1  0  0  0
 17 98  1  0  0  0
 18 19  2  0  0  0
 18 99  1  0  0  0
 19 20  1  0  0  0
 19 24  1  0  0  0
 20 21  2  0  0  0
 20100  1  0  0  0
 21 23  1  0  0  0
 22 28  1  0  0  0
 22 32  2  0  0  0
 26 27  1  0  0  0
 28101  1  0  0  0
 28102  1  0  0  0
 29103  1  0  0  0
 29104  1  0  0  0
 33 34  1  0  0  0
 33 66  1  0  0  0
 33 70  2  0  0  0
 34 36  1  0  0  0
 34 59  1  0  0  0
 34105  1  0  0  0
 35 44  2  0  0  0
 35 45  1  0  0  0
 35 68  1  0  0  0
 36 56  1  0  0  0
 36106  1  0  0  0
 37 39  1  0  0  0
 37 47  1  0  0  0
 37 66  1  0  0  0
 37107  1  0  0  0
 38 43  2  0  0  0
 38 46  1  0  0  0
 38 47  1  0  0  0
 39 64  1  0  0  0
 39 67  2  0  0  0
 40 52  1  0  0  0
 40 53  2  0  0  0
 40 58  1  0  0  0
 41108  1  0  0  0
 41109  1  0  0  0
 41110  1  0  0  0
 41 48  1  0  0  0
 42 43  1  0  0  0
 42 66  1  0  0  0
 42111  1  0  0  0
 42112  1  0  0  0
 43 44  1  0  0  0
 44113  1  0  0  0
 45 46  2  0  0  0
 45114  1  0  0  0
 46115  1  0  0  0
 47116  1  0  0  0
 47117  1  0  0  0
 48 56  1  0  0  0
 48 65  1  0  0  0
 48118  1  0  0  0
 49 50  1  0  0  0
 49 53  1  0  0  0
 49 64  1  0  0  0
 49119  1  0  0  0
 50 51  1  0  0  0
 50120  1  0  0  0
 50121  1  0  0  0
 51 52  1  0  0  0
 51122  1  0  0  0
 51123  1  0  0  0
 52124  1  0  0  0
 52125  1  0  0  0
 53 54  1  0  0  0
 54 55  2  0  0  0
 54126  1  0  0  0
 55 57  1  0  0  0
 55127  1  0  0  0
 56 69  2  0  0  0
 57 58  2  0  0  0
 57128  1  0  0  0
 58129  1  0  0  0
 59 60  1  0  0  0
 59 61  1  0  0  0
 59 62  1  0  0  0
 60130  1  0  0  0
 60131  1  0  0  0
 60132  1  0  0  0
 61133  1  0  0  0
 61134  1  0  0  0
 61135  1  0  0  0
 62136  1  0  0  0
 62137  1  0  0  0
 62138  1  0  0  0
 63 65  1  0  0  0
 63139  1  0  0  0
 63140  1  0  0  0
 63141  1  0  0  0
 64142  1  0  0  0
 65143  1  0  0  0
 68 81  1  0  0  0
 71 72  2  0  0  0
 71 73  1  0  0  0
 71144  1  0  0  0
 72 74  1  0  0  0
 72 76  1  0  0  0
 73 77  1  0  0  0
 73 82  2  0  0  0
 74 75  1  0  0  0
 74 83  2  0  0  0
 75145  1  0  0  0
 75146  1  0  0  0
 75147  1  0  0  0
 76 78  1  0  0  0
 76148  1  0  0  0
 76149  1  0  0  0
 77 79  1  0  0  0
 77150  1  0  0  0
 77151  1  0  0  0
 78 81  1  0  0  0
 78152  1  0  0  0
 78153  1  0  0  0
 79 80  1  0  0  0
 79154  1  0  0  0
 79155  1  0  0  0
 80 84  1  0  0  0
 80156  1  0  0  0
 80157  1  0  0  0
 81158  1  0  0  0
 81159  1  0  0  0
 82 83  1  0  0  0
 84160  1  0  0  0
M  ISO  4   1 100  68 101  81 101  84 100
M  END
> <chiral flag>
0

> <version>
0

> <s_m_source_file>
/data/baiqing/PycharmProjects/Reinvent-master-3.2/result/LINK_invent/BTK/process_docking_weight1_custom_sum_contain_oxygen_bond_distance_aromatic_linkinvent_7_9_3/rearranged_h_0080.sdf

> <i_m_source_file_index>
80

> <r_mmod_Potential_Energy-OPLS-2005>
-31.1718597412109

> <r_mmod_Stretch_Energy-OPLS-2005>
35.9801788330078

> <r_mmod_Bend_Energy-OPLS-2005>
120.267204284668

> <r_mmod_Torsional_Energy-OPLS-2005>
266.899627685547

> <r_mmod_Improper_Torsional_Energy-OPLS-2005>
4.07568740844727

> <r_mmod_Van_der_Waal_Energy-OPLS-2005>
148.459426879883

> <r_mmod_Electrostatic_Energy-OPLS-2005>
-390.406524658203

> <r_mmod_Solvation_Energy-OPLS-2005>
-225.549499511719

> <b_mmod_Minimization_Converged-OPLS-2005>
0

> <r_mmod_RMS_Derivative-OPLS-2005>
1.67938458919525

$$$$
83
                    3D
 Structure written by MMmdl.
157165  0  0  1  0            999 V2000
  -30.6144  -14.7344   20.4598 C   0  0  0  0  0  0
  -30.4298  -12.4472   19.4782 C   0  0  0  0  0  0
  -29.5110  -12.5035   18.2388 C   0  0  0  0  0  0
  -28.0354  -12.3330   18.6495 C   0  0  0  0  0  0
  -27.6418  -13.2318   19.8525 C   0  0  2  0  0  0
  -28.6844  -13.1634   20.9894 C   0  0  0  0  0  0
  -25.2510  -13.8200   20.5702 C   0  0  0  0  0  0
  -24.1798  -13.0445   20.9212 C   0  0  0  0  0  0
  -24.6385  -11.6924   20.8747 C   0  0  0  0  0  0
  -23.9061  -10.4299   21.0405 C   0  0  0  0  0  0
  -24.3614   -9.4210   21.9180 C   0  0  0  0  0  0
  -23.6294   -8.2242   22.0745 C   0  0  0  0  0  0
  -22.4278   -8.0277   21.3535 C   0  0  0  0  0  0
  -21.9911   -9.0251   20.4637 C   0  0  0  0  0  0
  -22.7234  -10.2135   20.3050 C   0  0  0  0  0  0
  -21.6856   -6.0733   22.5274 C   0  0  0  0  0  0
  -21.4018   -6.5635   23.8209 C   0  0  0  0  0  0
  -21.3664   -5.6786   24.9170 C   0  0  0  0  0  0
  -21.6044   -4.3048   24.7217 C   0  0  0  0  0  0
  -21.8821   -3.8143   23.4337 C   0  0  0  0  0  0
  -21.9196   -4.6961   22.3397 C   0  0  0  0  0  0
  -22.7819  -13.5227   21.1873 C   0  0  0  0  0  0
  -22.1663   -4.2147   21.0973 F   0  0  0  0  0  0
  -21.5629   -3.4534   25.7731 F   0  0  0  0  0  0
  -29.9860  -13.5112   20.4081 N   0  0  0  0  0  0
  -26.2932  -12.9406   20.3281 N   0  0  0  0  0  0
  -25.9314  -11.6547   20.5748 N   0  0  0  0  0  0
  -22.0467  -12.8213   22.0427 N   0  0  0  0  0  0
  -25.4206  -15.1926   20.4124 N   0  0  0  0  0  0
  -31.8017  -14.8272   20.1384 O   0  0  0  0  0  0
  -21.6640   -6.8876   21.4235 O   0  0  0  0  0  0
  -22.3503  -14.5533   20.6723 O   0  0  0  0  0  0
  -24.6323  -31.8561   23.1993 C   0  0  0  0  0  0
  -25.9147  -32.4761   23.8341 C   0  0  1  0  0  0
  -27.2144  -27.2575   20.1274 C   0  0  0  0  0  0
  -25.5945  -33.8563   24.2265 N   0  0  0  0  0  0
  -23.4285  -30.4814   21.5421 C   0  0  2  0  0  0
  -24.8743  -28.9293   20.1102 C   0  0  0  0  0  0
  -22.7506  -29.4619   22.4897 C   0  0  0  0  0  0
  -18.0296  -28.1393   22.8479 C   0  0  0  0  0  0
  -24.1491  -36.7283   23.2641 C   0  0  0  0  0  0
  -25.9762  -30.7679   21.3802 C   0  0  0  0  0  0
  -26.0477  -29.3911   20.7198 C   0  0  0  0  0  0
  -27.2215  -28.5689   20.7156 C   0  0  0  0  0  0
  -26.0154  -26.8664   19.4887 C   0  0  0  0  0  0
  -24.8636  -27.6752   19.4842 C   0  0  0  0  0  0
  -23.6478  -29.8197   20.1570 C   0  0  0  0  0  0
  -25.4118  -36.3073   24.0327 C   0  0  1  0  0  0
  -20.5902  -28.3711   23.1255 C   0  0  2  0  0  0
  -20.6788  -26.9428   22.5402 C   0  0  0  0  0  0
  -19.5763  -26.6385   21.5210 C   0  0  0  0  0  0
  -18.1943  -26.7934   22.1620 C   0  0  0  0  0  0
  -19.1551  -28.8866   23.2866 C   0  0  0  0  0  0
  -18.9472  -30.1462   23.8893 C   0  0  0  0  0  0
  -17.6472  -30.6592   24.0562 C   0  0  0  0  0  0
  -25.9058  -34.9442   23.5098 C   0  0  0  0  0  0
  -16.5361  -29.9091   23.6327 C   0  0  0  0  0  0
  -16.7285  -28.6508   23.0349 C   0  0  0  0  0  0
  -26.4506  -31.6585   25.0732 C   0  0  0  0  0  0
  -25.3721  -31.3736   26.1445 C   0  0  0  0  0  0
  -27.0362  -30.3005   24.6222 C   0  0  0  0  0  0
  -27.6063  -32.4323   25.7510 C   0  0  0  0  0  0
  -27.5579  -37.1801   24.8464 C   0  0  0  0  0  0
  -21.4214  -29.3060   22.3639 N   0  0  0  0  0  0
  -26.4291  -37.3772   23.9409 N   0  0  0  0  0  0
  -24.6982  -31.0528   22.0968 N   0  0  0  0  0  0
  -23.4208  -28.8153   23.2992 O   0  0  0  0  0  0
  -28.3038  -26.3530   20.1863 O   0  0  0  0  0  0
  -26.5624  -34.8917   22.4663 O   0  0  0  0  0  0
  -23.5470  -32.1386   23.7285 O   0  0  0  0  0  0
  -29.1830  -20.6289   17.3695 C   0  0  0  0  0  0
  -29.0772  -21.6629   18.2394 C   0  0  0  0  0  0
  -29.2256  -19.4215   18.1091 C   0  0  0  0  0  0
  -29.2411  -19.7273   19.4564 C   0  0  0  0  0  0
  -29.2110  -18.0604   17.4536 C   0  0  0  0  0  0
  -29.2821  -18.6042   20.5634 C   0  0  0  0  0  0
  -29.1609  -23.7665   20.4385 C   0  0  0  0  0  0
  -28.8428  -22.1732   20.6558 C   0  0  0  0  0  0
  -30.2924  -17.3285   20.4037 C   0  0  0  0  0  0
  -28.0307  -24.8712   20.0992 C   0  0  0  0  0  0
  -29.0772  -21.1801   19.5368 N   0  0  0  0  0  0
  -29.8539  -15.8798   20.6484 N   0  0  0  0  0  0
  -31.4722  -12.5656   19.1779 H   0  0  0  0  0  0
  -30.3682  -11.4710   19.9611 H   0  0  0  0  0  0
  -29.7927  -11.7279   17.5253 H   0  0  0  0  0  0
  -29.6431  -13.4568   17.7248 H   0  0  0  0  0  0
  -27.8864  -11.2849   18.9105 H   0  0  0  0  0  0
  -27.3812  -12.5286   17.7997 H   0  0  0  0  0  0
  -27.6383  -14.2543   19.4742 H   0  0  0  0  0  0
  -28.7156  -12.1663   21.4319 H   0  0  0  0  0  0
  -28.4211  -13.8492   21.7966 H   0  0  0  0  0  0
  -25.2759   -9.5696   22.4749 H   0  0  0  0  0  0
  -24.0006   -7.4639   22.7465 H   0  0  0  0  0  0
  -21.0840   -8.8769   19.8944 H   0  0  0  0  0  0
  -22.3688  -10.9672   19.6156 H   0  0  0  0  0  0
  -21.2011   -7.6145   23.9715 H   0  0  0  0  0  0
  -21.1486   -6.0511   25.9074 H   0  0  0  0  0  0
  -22.0600   -2.7603   23.2835 H   0  0  0  0  0  0
  -22.4086  -11.9873   22.4812 H   0  0  0  0  0  0
  -21.1081  -13.1229   22.2631 H   0  0  0  0  0  0
  -24.6522  -15.8450   20.5230 H   0  0  0  0  0  0
  -26.2611  -15.6299   20.0578 H   0  0  0  0  0  0
  -26.7214  -32.5407   23.1083 H   0  0  0  0  0  0
  -25.0096  -33.9700   25.0414 H   0  0  0  0  0  0
  -22.7257  -31.3046   21.3978 H   0  0  0  0  0  0
  -23.3757  -35.9610   23.3297 H   0  0  0  0  0  0
  -24.3584  -36.8911   22.2056 H   0  0  0  0  0  0
  -23.7237  -37.6480   23.6667 H   0  0  0  0  0  0
  -26.1174  -31.5294   20.6120 H   0  0  0  0  0  0
  -26.8528  -30.8147   22.0146 H   0  0  0  0  0  0
  -28.1179  -28.9162   21.2100 H   0  0  0  0  0  0
  -25.9323  -25.9095   18.9968 H   0  0  0  0  0  0
  -23.9645  -27.3164   19.0020 H   0  0  0  0  0  0
  -23.7803  -30.5997   19.4059 H   0  0  0  0  0  0
  -22.7638  -29.2605   19.8453 H   0  0  0  0  0  0
  -25.1299  -36.1924   25.0820 H   0  0  0  0  0  0
  -21.0001  -28.3301   24.1374 H   0  0  0  0  0  0
  -20.5691  -26.2328   23.3613 H   0  0  0  0  0  0
  -21.6655  -26.7454   22.1196 H   0  0  0  0  0  0
  -19.6927  -25.6291   21.1253 H   0  0  0  0  0  0
  -19.6701  -27.3182   20.6730 H   0  0  0  0  0  0
  -17.4213  -26.6676   21.4025 H   0  0  0  0  0  0
  -18.0351  -26.0082   22.9024 H   0  0  0  0  0  0
  -19.7949  -30.7274   24.2272 H   0  0  0  0  0  0
  -17.5028  -31.6272   24.5165 H   0  0  0  0  0  0
  -15.5364  -30.2995   23.7649 H   0  0  0  0  0  0
  -15.8686  -28.0824   22.7068 H   0  0  0  0  0  0
  -24.5898  -30.7088   25.7763 H   0  0  0  0  0  0
  -24.8905  -32.2904   26.4857 H   0  0  0  0  0  0
  -25.8023  -30.8916   27.0231 H   0  0  0  0  0  0
  -26.2952  -29.6747   24.1231 H   0  0  0  0  0  0
  -27.4033  -29.7276   25.4747 H   0  0  0  0  0  0
  -27.8835  -30.4291   23.9483 H   0  0  0  0  0  0
  -27.2679  -33.3633   26.2073 H   0  0  0  0  0  0
  -28.3883  -32.6865   25.0341 H   0  0  0  0  0  0
  -28.0720  -31.8452   26.5436 H   0  0  0  0  0  0
  -28.2592  -38.0102   24.7513 H   0  0  0  0  0  0
  -28.1079  -36.2632   24.6288 H   0  0  0  0  0  0
  -27.2296  -37.1449   25.8866 H   0  0  0  0  0  0
  -20.9399  -29.8796   21.6852 H   0  0  0  0  0  0
  -26.0170  -38.2847   24.1407 H   0  0  0  0  0  0
  -29.1740  -20.7281   16.2921 H   0  0  0  0  0  0
  -28.9658  -22.7179   18.0277 H   0  0  0  0  0  0
  -30.2219  -17.7373   17.2057 H   0  0  0  0  0  0
  -28.6385  -18.0956   16.5265 H   0  0  0  0  0  0
  -28.7431  -17.3088   18.0899 H   0  0  0  0  0  0
  -28.2700  -18.2107   20.6587 H   0  0  0  0  0  0
  -29.4784  -19.0738   21.5279 H   0  0  0  0  0  0
  -29.9871  -23.8781   19.7370 H   0  0  0  0  0  0
  -29.5854  -24.0971   21.3867 H   0  0  0  0  0  0
  -27.8115  -22.0597   20.9913 H   0  0  0  0  0  0
  -29.4529  -21.8284   21.4912 H   0  0  0  0  0  0
  -31.1408  -17.5112   21.0639 H   0  0  0  0  0  0
  -30.7471  -17.3508   19.4164 H   0  0  0  0  0  0
  -27.1862  -24.6651   20.7578 H   0  0  0  0  0  0
  -27.6856  -24.6515   19.0890 H   0  0  0  0  0  0
  -28.8812  -15.7323   20.8722 H   0  0  0  0  0  0
  1 25  1  0  0  0
  1 30  2  0  0  0
  1 82  1  0  0  0
  2  3  1  0  0  0
  2 25  1  0  0  0
  2 83  1  0  0  0
  2 84  1  0  0  0
  3  4  1  0  0  0
  3 85  1  0  0  0
  3 86  1  0  0  0
  4  5  1  0  0  0
  4 87  1  0  0  0
  4 88  1  0  0  0
  5  6  1  0  0  0
  5 26  1  0  0  0
  5 89  1  0  0  0
  6 25  1  0  0  0
  6 90  1  0  0  0
  6 91  1  0  0  0
  7  8  2  0  0  0
  7 26  1  0  0  0
  7 29  1  0  0  0
  8  9  1  0  0  0
  8 22  1  0  0  0
  9 10  1  0  0  0
  9 27  2  0  0  0
 10 11  2  0  0  0
 10 15  1  0  0  0
 11 12  1  0  0  0
 11 92  1  0  0  0
 12 13  2  0  0  0
 12 93  1  0  0  0
 13 14  1  0  0  0
 13 31  1  0  0  0
 14 15  2  0  0  0
 14 94  1  0  0  0
 15 95  1  0  0  0
 16 17  2  0  0  0
 16 21  1  0  0  0
 16 31  1  0  0  0
 17 18  1  0  0  0
 17 96  1  0  0  0
 18 19  2  0  0  0
 18 97  1  0  0  0
 19 20  1  0  0  0
 19 24  1  0  0  0
 20 21  2  0  0  0
 20 98  1  0  0  0
 21 23  1  0  0  0
 22 28  1  0  0  0
 22 32  2  0  0  0
 26 27  1  0  0  0
 28 99  1  0  0  0
 28100  1  0  0  0
 29101  1  0  0  0
 29102  1  0  0  0
 33 34  1  0  0  0
 33 66  1  0  0  0
 33 70  2  0  0  0
 34 36  1  0  0  0
 34 59  1  0  0  0
 34103  1  0  0  0
 35 44  2  0  0  0
 35 45  1  0  0  0
 35 68  1  0  0  0
 36 56  1  0  0  0
 36104  1  0  0  0
 37 39  1  0  0  0
 37 47  1  0  0  0
 37 66  1  0  0  0
 37105  1  0  0  0
 38 43  2  0  0  0
 38 46  1  0  0  0
 38 47  1  0  0  0
 39 64  1  0  0  0
 39 67  2  0  0  0
 40 52  1  0  0  0
 40 53  2  0  0  0
 40 58  1  0  0  0
 41106  1  0  0  0
 41107  1  0  0  0
 41108  1  0  0  0
 41 48  1  0  0  0
 42 43  1  0  0  0
 42 66  1  0  0  0
 42109  1  0  0  0
 42110  1  0  0  0
 43 44  1  0  0  0
 44111  1  0  0  0
 45 46  2  0  0  0
 45112  1  0  0  0
 46113  1  0  0  0
 47114  1  0  0  0
 47115  1  0  0  0
 48 56  1  0  0  0
 48 65  1  0  0  0
 48116  1  0  0  0
 49 50  1  0  0  0
 49 53  1  0  0  0
 49 64  1  0  0  0
 49117  1  0  0  0
 50 51  1  0  0  0
 50118  1  0  0  0
 50119  1  0  0  0
 51 52  1  0  0  0
 51120  1  0  0  0
 51121  1  0  0  0
 52122  1  0  0  0
 52123  1  0  0  0
 53 54  1  0  0  0
 54 55  2  0  0  0
 54124  1  0  0  0
 55 57  1  0  0  0
 55125  1  0  0  0
 56 69  2  0  0  0
 57 58  2  0  0  0
 57126  1  0  0  0
 58127  1  0  0  0
 59 60  1  0  0  0
 59 61  1  0  0  0
 59 62  1  0  0  0
 60128  1  0  0  0
 60129  1  0  0  0
 60130  1  0  0  0
 61131  1  0  0  0
 61132  1  0  0  0
 61133  1  0  0  0
 62134  1  0  0  0
 62135  1  0  0  0
 62136  1  0  0  0
 63 65  1  0  0  0
 63137  1  0  0  0
 63138  1  0  0  0
 63139  1  0  0  0
 64140  1  0  0  0
 65141  1  0  0  0
 68 80  1  0  0  0
 71 72  2  0  0  0
 71 73  1  0  0  0
 71142  1  0  0  0
 72 81  1  0  0  0
 72143  1  0  0  0
 73 74  2  0  0  0
 73 75  1  0  0  0
 74 76  1  0  0  0
 74 81  1  0  0  0
 75144  1  0  0  0
 75145  1  0  0  0
 75146  1  0  0  0
 76 79  1  0  0  0
 76147  1  0  0  0
 76148  1  0  0  0
 77 78  1  0  0  0
 77 80  1  0  0  0
 77149  1  0  0  0
 77150  1  0  0  0
 78 81  1  0  0  0
 78151  1  0  0  0
 78152  1  0  0  0
 79 82  1  0  0  0
 79153  1  0  0  0
 79154  1  0  0  0
 80155  1  0  0  0
 80156  1  0  0  0
 82157  1  0  0  0
M  ISO  4   1 100  68 101  80 101  82 100
M  END
> <chiral flag>
0

> <version>
0

> <s_m_source_file>
/data/baiqing/PycharmProjects/Reinvent-master-3.2/result/LINK_invent/BTK/process_docking_weight1_custom_sum_contain_oxygen_bond_distance_aromatic_linkinvent_7_9_3/rearranged_h_0080.sdf

> <i_m_source_file_index>
81

> <r_mmod_Potential_Energy-OPLS-2005>
161.321151733398

> <r_mmod_Stretch_Energy-OPLS-2005>
136.751312255859

> <r_mmod_Bend_Energy-OPLS-2005>
191.698989868164

> <r_mmod_Torsional_Energy-OPLS-2005>
242.338638305664

> <r_mmod_Improper_Torsional_Energy-OPLS-2005>
5.92174386978149

> <r_mmod_Van_der_Waal_Energy-OPLS-2005>
120.263893127441

> <r_mmod_Electrostatic_Energy-OPLS-2005>
-401.798858642578

> <r_mmod_Solvation_Energy-OPLS-2005>
-218.933868408203

> <b_mmod_Minimization_Converged-OPLS-2005>
0

> <r_mmod_RMS_Derivative-OPLS-2005>
0.876628339290619

$$$$
84
                    3D
 Structure written by MMmdl.
157165  0  0  1  0            999 V2000
  -30.6591  -14.6279   20.4632 C   0  0  0  0  0  0
  -30.4182  -12.3768   19.4688 C   0  0  0  0  0  0
  -29.5033  -12.4932   18.2310 C   0  0  0  0  0  0
  -28.0259  -12.3402   18.6405 C   0  0  0  0  0  0
  -27.6459  -13.2268   19.8571 C   0  0  2  0  0  0
  -28.6880  -13.1230   20.9937 C   0  0  0  0  0  0
  -25.2521  -13.8203   20.5694 C   0  0  0  0  0  0
  -24.1808  -13.0449   20.9193 C   0  0  0  0  0  0
  -24.6388  -11.6922   20.8740 C   0  0  0  0  0  0
  -23.9071  -10.4299   21.0399 C   0  0  0  0  0  0
  -24.3619   -9.4213   21.9178 C   0  0  0  0  0  0
  -23.6294   -8.2249   22.0750 C   0  0  0  0  0  0
  -22.4274   -8.0287   21.3546 C   0  0  0  0  0  0
  -21.9914   -9.0256   20.4642 C   0  0  0  0  0  0
  -22.7242  -10.2136   20.3048 C   0  0  0  0  0  0
  -21.6857   -6.0741   22.5280 C   0  0  0  0  0  0
  -21.4016   -6.5642   23.8215 C   0  0  0  0  0  0
  -21.3659   -5.6791   24.9175 C   0  0  0  0  0  0
  -21.6042   -4.3051   24.7225 C   0  0  0  0  0  0
  -21.8823   -3.8147   23.4344 C   0  0  0  0  0  0
  -21.9194   -4.6967   22.3400 C   0  0  0  0  0  0
  -22.7829  -13.5226   21.1860 C   0  0  0  0  0  0
  -22.1663   -4.2152   21.0977 F   0  0  0  0  0  0
  -21.5624   -3.4532   25.7736 F   0  0  0  0  0  0
  -30.0035  -13.4276   20.4210 N   0  0  0  0  0  0
  -26.2950  -12.9402   20.3303 N   0  0  0  0  0  0
  -25.9319  -11.6547   20.5754 N   0  0  0  0  0  0
  -22.0483  -12.8212   22.0414 N   0  0  0  0  0  0
  -25.4212  -15.1935   20.4116 N   0  0  0  0  0  0
  -31.8460  -14.7052   20.1383 O   0  0  0  0  0  0
  -21.6641   -6.8883   21.4240 O   0  0  0  0  0  0
  -22.3510  -14.5535   20.6717 O   0  0  0  0  0  0
  -24.6238  -31.8604   23.2029 C   0  0  0  0  0  0
  -25.9100  -32.4781   23.8347 C   0  0  1  0  0  0
  -27.2212  -27.3344   20.1302 C   0  0  0  0  0  0
  -25.5906  -33.8580   24.2271 N   0  0  0  0  0  0
  -23.4176  -30.4823   21.5454 C   0  0  2  0  0  0
  -24.8657  -28.9361   20.1128 C   0  0  0  0  0  0
  -22.7466  -29.4612   22.4946 C   0  0  0  0  0  0
  -18.0279  -28.1358   22.8483 C   0  0  0  0  0  0
  -24.1487  -36.7301   23.2637 C   0  0  0  0  0  0
  -25.9559  -30.7970   21.3713 C   0  0  0  0  0  0
  -26.0325  -29.4244   20.7162 C   0  0  0  0  0  0
  -27.2189  -28.6358   20.7122 C   0  0  0  0  0  0
  -26.0392  -26.8891   19.5049 C   0  0  0  0  0  0
  -24.8696  -27.6731   19.4966 C   0  0  0  0  0  0
  -23.6322  -29.8149   20.1610 C   0  0  0  0  0  0
  -25.4112  -36.3088   24.0327 C   0  0  1  0  0  0
  -20.5880  -28.3664   23.1280 C   0  0  2  0  0  0
  -20.6774  -26.9389   22.5408 C   0  0  0  0  0  0
  -19.5756  -26.6365   21.5202 C   0  0  0  0  0  0
  -18.1934  -26.7904   22.1607 C   0  0  0  0  0  0
  -19.1530  -28.8826   23.2880 C   0  0  0  0  0  0
  -18.9460  -30.1427   23.8900 C   0  0  0  0  0  0
  -17.6468  -30.6576   24.0548 C   0  0  0  0  0  0
  -25.9046  -34.9456   23.5106 C   0  0  0  0  0  0
  -16.5356  -29.9073   23.6323 C   0  0  0  0  0  0
  -16.7270  -28.6482   23.0354 C   0  0  0  0  0  0
  -26.4488  -31.6588   25.0713 C   0  0  0  0  0  0
  -25.3727  -31.3720   26.1445 C   0  0  0  0  0  0
  -27.0334  -30.3017   24.6155 C   0  0  0  0  0  0
  -27.6047  -32.4322   25.7485 C   0  0  0  0  0  0
  -27.5594  -37.1792   24.8449 C   0  0  0  0  0  0
  -21.4182  -29.3029   22.3689 N   0  0  0  0  0  0
  -26.4289  -37.3790   23.9423 N   0  0  0  0  0  0
  -24.6843  -31.0619   22.0980 N   0  0  0  0  0  0
  -23.4199  -28.8160   23.3025 O   0  0  0  0  0  0
  -28.3247  -26.4802   20.1500 O   0  0  0  0  0  0
  -26.5623  -34.8920   22.4681 O   0  0  0  0  0  0
  -23.5402  -32.1396   23.7368 O   0  0  0  0  0  0
  -30.6554  -19.5841   20.3976 C   0  0  0  0  0  0
  -29.7734  -18.4638   20.3752 C   0  0  0  0  0  0
  -28.0231  -19.9790   20.7443 C   0  0  0  0  0  0
  -28.9146  -21.1046   20.7609 C   0  0  0  0  0  0
  -26.5317  -20.1403   20.9715 C   0  0  0  0  0  0
  -29.9398  -16.9351   18.3839 C   0  0  0  0  0  0
  -28.4862  -22.5600   21.1861 C   0  0  0  0  0  0
  -28.6254  -23.8157   20.2185 C   0  0  0  0  0  0
  -28.1416  -25.1952   20.8541 C   0  0  0  0  0  0
  -30.2842  -17.0628   19.8811 C   0  0  2  0  0  0
  -30.2440  -20.8735   20.5977 N   0  0  0  0  0  0
  -28.4418  -18.6841   20.5513 N   0  0  0  0  0  0
  -29.9070  -15.7716   20.5623 N   0  0  0  0  0  0
  -31.4650  -12.4662   19.1725 H   0  0  0  0  0  0
  -30.3223  -11.3920   19.9291 H   0  0  0  0  0  0
  -29.7665  -11.7343   17.4931 H   0  0  0  0  0  0
  -29.6548  -13.4583   17.7455 H   0  0  0  0  0  0
  -27.8611  -11.2895   18.8833 H   0  0  0  0  0  0
  -27.3740  -12.5605   17.7944 H   0  0  0  0  0  0
  -27.6537  -14.2550   19.4961 H   0  0  0  0  0  0
  -28.6891  -12.1224   21.4286 H   0  0  0  0  0  0
  -28.4457  -13.8090   21.8067 H   0  0  0  0  0  0
  -25.2766   -9.5691   22.4751 H   0  0  0  0  0  0
  -24.0002   -7.4644   22.7472 H   0  0  0  0  0  0
  -21.0848   -8.8781   19.8948 H   0  0  0  0  0  0
  -22.3706  -10.9674   19.6155 H   0  0  0  0  0  0
  -21.2015   -7.6151   23.9724 H   0  0  0  0  0  0
  -21.1475   -6.0516   25.9082 H   0  0  0  0  0  0
  -22.0602   -2.7609   23.2843 H   0  0  0  0  0  0
  -22.4094  -11.9859   22.4783 H   0  0  0  0  0  0
  -21.1104  -13.1239   22.2630 H   0  0  0  0  0  0
  -24.6527  -15.8456   20.5254 H   0  0  0  0  0  0
  -26.2714  -15.6404   20.0920 H   0  0  0  0  0  0
  -26.7185  -32.5457   23.1104 H   0  0  0  0  0  0
  -25.0042  -33.9721   25.0410 H   0  0  0  0  0  0
  -22.7099  -31.3021   21.4042 H   0  0  0  0  0  0
  -23.3752  -35.9626   23.3270 H   0  0  0  0  0  0
  -24.3588  -36.8946   22.2058 H   0  0  0  0  0  0
  -23.7226  -37.6487   23.6680 H   0  0  0  0  0  0
  -26.0813  -31.5611   20.6027 H   0  0  0  0  0  0
  -26.8378  -30.8480   21.9987 H   0  0  0  0  0  0
  -28.1179  -29.0059   21.1845 H   0  0  0  0  0  0
  -26.0163  -25.9155   19.0348 H   0  0  0  0  0  0
  -23.9761  -27.2918   19.0224 H   0  0  0  0  0  0
  -23.7511  -30.5905   19.4040 H   0  0  0  0  0  0
  -22.7536  -29.2421   19.8589 H   0  0  0  0  0  0
  -25.1286  -36.1938   25.0816 H   0  0  0  0  0  0
  -20.9971  -28.3237   24.1402 H   0  0  0  0  0  0
  -20.5653  -26.2276   23.3603 H   0  0  0  0  0  0
  -21.6649  -26.7419   22.1217 H   0  0  0  0  0  0
  -19.6913  -25.6276   21.1219 H   0  0  0  0  0  0
  -19.6688  -27.3173   20.6732 H   0  0  0  0  0  0
  -17.4207  -26.6644   21.4005 H   0  0  0  0  0  0
  -18.0343  -26.0030   22.8983 H   0  0  0  0  0  0
  -19.7944  -30.7232   24.2268 H   0  0  0  0  0  0
  -17.5031  -31.6253   24.5148 H   0  0  0  0  0  0
  -15.5357  -30.2980   23.7644 H   0  0  0  0  0  0
  -15.8667  -28.0799   22.7082 H   0  0  0  0  0  0
  -24.5898  -30.7073   25.7774 H   0  0  0  0  0  0
  -24.8926  -32.2887   26.4885 H   0  0  0  0  0  0
  -25.8059  -30.8888   27.0215 H   0  0  0  0  0  0
  -26.2900  -29.6761   24.1202 H   0  0  0  0  0  0
  -27.4065  -29.7278   25.4646 H   0  0  0  0  0  0
  -27.8751  -30.4305   23.9348 H   0  0  0  0  0  0
  -27.2663  -33.3627   26.2062 H   0  0  0  0  0  0
  -28.3869  -32.6874   25.0322 H   0  0  0  0  0  0
  -28.0707  -31.8444   26.5402 H   0  0  0  0  0  0
  -28.2559  -38.0142   24.7589 H   0  0  0  0  0  0
  -28.1141  -36.2681   24.6160 H   0  0  0  0  0  0
  -27.2325  -37.1302   25.8848 H   0  0  0  0  0  0
  -20.9352  -29.8766   21.6921 H   0  0  0  0  0  0
  -26.0157  -38.2847   24.1478 H   0  0  0  0  0  0
  -31.7096  -19.4509   20.2022 H   0  0  0  0  0  0
  -26.3347  -20.4390   22.0013 H   0  0  0  0  0  0
  -25.9933  -19.2098   20.7854 H   0  0  0  0  0  0
  -26.1221  -20.8994   20.3043 H   0  0  0  0  0  0
  -30.3240  -17.7869   17.8224 H   0  0  0  0  0  0
  -28.8610  -16.9015   18.2302 H   0  0  0  0  0  0
  -30.3672  -16.0373   17.9377 H   0  0  0  0  0  0
  -29.0589  -22.7790   22.0879 H   0  0  0  0  0  0
  -27.4535  -22.5309   21.5313 H   0  0  0  0  0  0
  -28.0583  -23.6281   19.3067 H   0  0  0  0  0  0
  -29.6682  -23.9067   19.9159 H   0  0  0  0  0  0
  -28.6762  -25.3171   21.7963 H   0  0  0  0  0  0
  -27.0993  -25.0727   21.1525 H   0  0  0  0  0  0
  -31.3712  -17.1388   19.9475 H   0  0  0  0  0  0
  -28.9464  -15.6793   20.8534 H   0  0  0  0  0  0
  1 25  1  0  0  0
  1 30  2  0  0  0
  1 83  1  0  0  0
  2  3  1  0  0  0
  2 25  1  0  0  0
  2 84  1  0  0  0
  2 85  1  0  0  0
  3  4  1  0  0  0
  3 86  1  0  0  0
  3 87  1  0  0  0
  4  5  1  0  0  0
  4 88  1  0  0  0
  4 89  1  0  0  0
  5  6  1  0  0  0
  5 26  1  0  0  0
  5 90  1  0  0  0
  6 25  1  0  0  0
  6 91  1  0  0  0
  6 92  1  0  0  0
  7  8  2  0  0  0
  7 26  1  0  0  0
  7 29  1  0  0  0
  8  9  1  0  0  0
  8 22  1  0  0  0
  9 10  1  0  0  0
  9 27  2  0  0  0
 10 11  2  0  0  0
 10 15  1  0  0  0
 11 12  1  0  0  0
 11 93  1  0  0  0
 12 13  2  0  0  0
 12 94  1  0  0  0
 13 14  1  0  0  0
 13 31  1  0  0  0
 14 15  2  0  0  0
 14 95  1  0  0  0
 15 96  1  0  0  0
 16 17  2  0  0  0
 16 21  1  0  0  0
 16 31  1  0  0  0
 17 18  1  0  0  0
 17 97  1  0  0  0
 18 19  2  0  0  0
 18 98  1  0  0  0
 19 20  1  0  0  0
 19 24  1  0  0  0
 20 21  2  0  0  0
 20 99  1  0  0  0
 21 23  1  0  0  0
 22 28  1  0  0  0
 22 32  2  0  0  0
 26 27  1  0  0  0
 28100  1  0  0  0
 28101  1  0  0  0
 29102  1  0  0  0
 29103  1  0  0  0
 33 34  1  0  0  0
 33 66  1  0  0  0
 33 70  2  0  0  0
 34 36  1  0  0  0
 34 59  1  0  0  0
 34104  1  0  0  0
 35 44  2  0  0  0
 35 45  1  0  0  0
 35 68  1  0  0  0
 36 56  1  0  0  0
 36105  1  0  0  0
 37 39  1  0  0  0
 37 47  1  0  0  0
 37 66  1  0  0  0
 37106  1  0  0  0
 38 43  2  0  0  0
 38 46  1  0  0  0
 38 47  1  0  0  0
 39 64  1  0  0  0
 39 67  2  0  0  0
 40 52  1  0  0  0
 40 53  2  0  0  0
 40 58  1  0  0  0
 41107  1  0  0  0
 41108  1  0  0  0
 41109  1  0  0  0
 41 48  1  0  0  0
 42 43  1  0  0  0
 42 66  1  0  0  0
 42110  1  0  0  0
 42111  1  0  0  0
 43 44  1  0  0  0
 44112  1  0  0  0
 45 46  2  0  0  0
 45113  1  0  0  0
 46114  1  0  0  0
 47115  1  0  0  0
 47116  1  0  0  0
 48 56  1  0  0  0
 48 65  1  0  0  0
 48117  1  0  0  0
 49 50  1  0  0  0
 49 53  1  0  0  0
 49 64  1  0  0  0
 49118  1  0  0  0
 50 51  1  0  0  0
 50119  1  0  0  0
 50120  1  0  0  0
 51 52  1  0  0  0
 51121  1  0  0  0
 51122  1  0  0  0
 52123  1  0  0  0
 52124  1  0  0  0
 53 54  1  0  0  0
 54 55  2  0  0  0
 54125  1  0  0  0
 55 57  1  0  0  0
 55126  1  0  0  0
 56 69  2  0  0  0
 57 58  2  0  0  0
 57127  1  0  0  0
 58128  1  0  0  0
 59 60  1  0  0  0
 59 61  1  0  0  0
 59 62  1  0  0  0
 60129  1  0  0  0
 60130  1  0  0  0
 60131  1  0  0  0
 61132  1  0  0  0
 61133  1  0  0  0
 61134  1  0  0  0
 62135  1  0  0  0
 62136  1  0  0  0
 62137  1  0  0  0
 63 65  1  0  0  0
 63138  1  0  0  0
 63139  1  0  0  0
 63140  1  0  0  0
 64141  1  0  0  0
 65142  1  0  0  0
 68 79  1  0  0  0
 71 72  2  0  0  0
 71 81  1  0  0  0
 71143  1  0  0  0
 72 80  1  0  0  0
 72 82  1  0  0  0
 73 74  1  0  0  0
 73 75  1  0  0  0
 73 82  2  0  0  0
 74 77  1  0  0  0
 74 81  2  0  0  0
 75144  1  0  0  0
 75145  1  0  0  0
 75146  1  0  0  0
 76147  1  0  0  0
 76148  1  0  0  0
 76149  1  0  0  0
 76 80  1  0  0  0
 77 78  1  0  0  0
 77150  1  0  0  0
 77151  1  0  0  0
 78 79  1  0  0  0
 78152  1  0  0  0
 78153  1  0  0  0
 79154  1  0  0  0
 79155  1  0  0  0
 80 83  1  0  0  0
 80156  1  0  0  0
 83157  1  0  0  0
M  ISO  4   1 100  68 101  79 101  83 100
M  END
> <chiral flag>
0

> <version>
0

> <s_m_source_file>
/data/baiqing/PycharmProjects/Reinvent-master-3.2/result/LINK_invent/BTK/process_docking_weight1_custom_sum_contain_oxygen_bond_distance_aromatic_linkinvent_7_9_3/rearranged_h_0080.sdf

> <i_m_source_file_index>
82

> <r_mmod_Potential_Energy-OPLS-2005>
37.2776985168457

> <r_mmod_Stretch_Energy-OPLS-2005>
78.3655853271484

> <r_mmod_Bend_Energy-OPLS-2005>
138.091171264648

> <r_mmod_Torsional_Energy-OPLS-2005>
220.105102539062

> <r_mmod_Improper_Torsional_Energy-OPLS-2005>
11.030722618103

> <r_mmod_Van_der_Waal_Energy-OPLS-2005>
143.364288330078

> <r_mmod_Electrostatic_Energy-OPLS-2005>
-386.503356933594

> <r_mmod_Solvation_Energy-OPLS-2005>
-214.624404907227

> <b_mmod_Minimization_Converged-OPLS-2005>
0

> <r_mmod_RMS_Derivative-OPLS-2005>
1.36495637893677

$$$$
85
                    3D
 Structure written by MMmdl.
163171  0  0  1  0            999 V2000
  -30.7520  -14.4056   20.6465 C   0  0  0  0  0  0
  -30.4188  -12.2976   19.4069 C   0  0  0  0  0  0
  -29.4895  -12.5183   18.1985 C   0  0  0  0  0  0
  -28.0136  -12.3715   18.6146 C   0  0  0  0  0  0
  -27.6660  -13.2037   19.8773 C   0  0  2  0  0  0
  -28.7058  -12.9673   20.9957 C   0  0  0  0  0  0
  -25.2596  -13.8147   20.5656 C   0  0  0  0  0  0
  -24.1840  -13.0444   20.9139 C   0  0  0  0  0  0
  -24.6392  -11.6910   20.8703 C   0  0  0  0  0  0
  -23.9043  -10.4303   21.0378 C   0  0  0  0  0  0
  -24.3594   -9.4222   21.9168 C   0  0  0  0  0  0
  -23.6268   -8.2252   22.0738 C   0  0  0  0  0  0
  -22.4251   -8.0288   21.3529 C   0  0  0  0  0  0
  -21.9888   -9.0261   20.4626 C   0  0  0  0  0  0
  -22.7203  -10.2141   20.3030 C   0  0  0  0  0  0
  -21.6858   -6.0729   22.5273 C   0  0  0  0  0  0
  -21.4023   -6.5627   23.8210 C   0  0  0  0  0  0
  -21.3649   -5.6774   24.9171 C   0  0  0  0  0  0
  -21.6045   -4.3040   24.7218 C   0  0  0  0  0  0
  -21.8817   -3.8135   23.4338 C   0  0  0  0  0  0
  -21.9194   -4.6954   22.3399 C   0  0  0  0  0  0
  -22.7860  -13.5244   21.1823 C   0  0  0  0  0  0
  -22.1658   -4.2139   21.0973 F   0  0  0  0  0  0
  -21.5626   -3.4518   25.7728 F   0  0  0  0  0  0
  -30.0443  -13.2617   20.4526 N   0  0  0  0  0  0
  -26.3047  -12.9320   20.3369 N   0  0  0  0  0  0
  -25.9324  -11.6483   20.5758 N   0  0  0  0  0  0
  -22.0498  -12.8233   22.0367 N   0  0  0  0  0  0
  -25.4343  -15.1869   20.4078 N   0  0  0  0  0  0
  -31.8029  -14.6643   20.0535 O   0  0  0  0  0  0
  -21.6637   -6.8868   21.4228 O   0  0  0  0  0  0
  -22.3548  -14.5571   20.6702 O   0  0  0  0  0  0
  -24.6175  -31.8697   23.2103 C   0  0  0  0  0  0
  -25.9087  -32.4830   23.8384 C   0  0  1  0  0  0
  -27.2363  -27.4392   20.0858 C   0  0  0  0  0  0
  -25.5963  -33.8614   24.2338 N   0  0  0  0  0  0
  -23.4052  -30.4935   21.5477 C   0  0  2  0  0  0
  -24.8515  -28.9582   20.1130 C   0  0  0  0  0  0
  -22.7428  -29.4672   22.4951 C   0  0  0  0  0  0
  -18.0292  -28.1402   22.8508 C   0  0  0  0  0  0
  -24.1482  -36.7262   23.2633 C   0  0  0  0  0  0
  -25.9341  -30.8356   21.3604 C   0  0  0  0  0  0
  -26.0131  -29.4712   20.7041 C   0  0  0  0  0  0
  -27.2107  -28.7200   20.6834 C   0  0  0  0  0  0
  -26.0589  -26.9404   19.4879 C   0  0  0  0  0  0
  -24.8682  -27.6918   19.5035 C   0  0  0  0  0  0
  -23.6146  -29.8261   20.1620 C   0  0  0  0  0  0
  -25.4113  -36.3086   24.0340 C   0  0  1  0  0  0
  -20.5888  -28.3685   23.1314 C   0  0  2  0  0  0
  -20.6770  -26.9411   22.5416 C   0  0  0  0  0  0
  -19.5729  -26.6400   21.5227 C   0  0  0  0  0  0
  -18.1920  -26.7951   22.1645 C   0  0  0  0  0  0
  -19.1539  -28.8858   23.2920 C   0  0  0  0  0  0
  -18.9460  -30.1471   23.8922 C   0  0  0  0  0  0
  -17.6461  -30.6602   24.0582 C   0  0  0  0  0  0
  -25.9050  -34.9470   23.5125 C   0  0  0  0  0  0
  -16.5358  -29.9108   23.6334 C   0  0  0  0  0  0
  -16.7284  -28.6528   23.0353 C   0  0  0  0  0  0
  -26.4508  -31.6615   25.0723 C   0  0  0  0  0  0
  -25.3751  -31.3726   26.1450 C   0  0  0  0  0  0
  -27.0356  -30.3068   24.6116 C   0  0  0  0  0  0
  -27.6109  -32.4313   25.7495 C   0  0  0  0  0  0
  -27.5568  -37.1788   24.8475 C   0  0  0  0  0  0
  -21.4146  -29.3049   22.3691 N   0  0  0  0  0  0
  -26.4288  -37.3778   23.9418 N   0  0  0  0  0  0
  -24.6705  -31.0805   22.0995 N   0  0  0  0  0  0
  -23.4191  -28.8197   23.2992 O   0  0  0  0  0  0
  -28.3929  -26.6882   20.0856 O   0  0  0  0  0  0
  -26.5568  -34.8936   22.4662 O   0  0  0  0  0  0
  -23.5382  -32.1454   23.7519 O   0  0  0  0  0  0
  -30.2807  -18.9753   21.4859 C   0  0  0  0  0  0
  -30.7146  -17.7018   21.1959 C   0  0  0  0  0  0
  -30.9537  -18.9851   19.3744 C   0  0  0  0  0  0
  -31.3086  -19.4065   17.9835 C   0  0  0  0  0  0
  -30.3838  -16.7166   23.4884 C   0  0  0  0  0  0
  -28.2004  -22.8549   20.2718 C   0  0  0  0  0  0
  -28.8186  -21.5638   19.6797 C   0  0  0  0  0  0
  -28.6925  -24.2146   19.7163 C   0  0  0  0  0  0
  -30.2101  -21.2036   20.2516 C   0  0  0  0  0  0
  -28.2632  -25.3729   20.6496 C   0  0  0  0  0  0
  -30.8784  -16.4675   22.0549 C   0  0  2  0  0  0
  -30.4595  -19.7483   20.3627 N   0  0  0  0  0  0
  -31.1026  -17.7523   19.8803 N   0  3  0  0  0  0
  -30.2267  -15.2699   21.5231 N   0  0  0  0  0  0
  -31.4639  -12.3918   19.1059 H   0  0  0  0  0  0
  -30.3137  -11.2798   19.7883 H   0  0  0  0  0  0
  -29.7262  -11.8107   17.4034 H   0  0  0  0  0  0
  -29.6561  -13.5130   17.7833 H   0  0  0  0  0  0
  -27.8273  -11.3122   18.8029 H   0  0  0  0  0  0
  -27.3595  -12.6510   17.7867 H   0  0  0  0  0  0
  -27.7193  -14.2545   19.5893 H   0  0  0  0  0  0
  -28.6746  -11.9289   21.3270 H   0  0  0  0  0  0
  -28.4548  -13.5558   21.8784 H   0  0  0  0  0  0
  -25.2737   -9.5686   22.4743 H   0  0  0  0  0  0
  -23.9970   -7.4628   22.7445 H   0  0  0  0  0  0
  -21.0826   -8.8751   19.8931 H   0  0  0  0  0  0
  -22.3641  -10.9670   19.6128 H   0  0  0  0  0  0
  -21.2021   -7.6133   23.9707 H   0  0  0  0  0  0
  -21.1475   -6.0511   25.9072 H   0  0  0  0  0  0
  -22.0608   -2.7598   23.2847 H   0  0  0  0  0  0
  -22.4121  -11.9903   22.4768 H   0  0  0  0  0  0
  -21.1124  -13.1267   22.2599 H   0  0  0  0  0  0
  -24.6686  -15.8452   20.5046 H   0  0  0  0  0  0
  -26.3002  -15.6274   20.1218 H   0  0  0  0  0  0
  -26.7161  -32.5537   23.1137 H   0  0  0  0  0  0
  -25.0179  -33.9767   25.0529 H   0  0  0  0  0  0
  -22.6952  -31.3118   21.4069 H   0  0  0  0  0  0
  -23.3766  -35.9570   23.3324 H   0  0  0  0  0  0
  -24.3521  -36.8849   22.2032 H   0  0  0  0  0  0
  -23.7236  -37.6482   23.6618 H   0  0  0  0  0  0
  -26.0513  -31.6033   20.5940 H   0  0  0  0  0  0
  -26.8207  -30.8867   21.9817 H   0  0  0  0  0  0
  -28.1086  -29.1117   21.1382 H   0  0  0  0  0  0
  -26.0614  -25.9708   19.0108 H   0  0  0  0  0  0
  -23.9725  -27.2924   19.0476 H   0  0  0  0  0  0
  -23.7288  -30.6024   19.4039 H   0  0  0  0  0  0
  -22.7399  -29.2482   19.8598 H   0  0  0  0  0  0
  -25.1300  -36.1927   25.0834 H   0  0  0  0  0  0
  -21.0018  -28.3252   24.1425 H   0  0  0  0  0  0
  -20.5673  -26.2287   23.3601 H   0  0  0  0  0  0
  -21.6631  -26.7431   22.1197 H   0  0  0  0  0  0
  -19.6856  -25.6317   21.1229 H   0  0  0  0  0  0
  -19.6677  -27.3227   20.6772 H   0  0  0  0  0  0
  -17.4195  -26.6755   21.4043 H   0  0  0  0  0  0
  -18.0300  -26.0093   22.9034 H   0  0  0  0  0  0
  -19.7936  -30.7308   24.2275 H   0  0  0  0  0  0
  -17.5019  -31.6276   24.5191 H   0  0  0  0  0  0
  -15.5357  -30.3021   23.7648 H   0  0  0  0  0  0
  -15.8690  -28.0864   22.7038 H   0  0  0  0  0  0
  -24.5917  -30.7107   25.7745 H   0  0  0  0  0  0
  -24.8947  -32.2893   26.4890 H   0  0  0  0  0  0
  -25.8063  -30.8863   27.0207 H   0  0  0  0  0  0
  -26.2912  -29.6802   24.1202 H   0  0  0  0  0  0
  -27.4178  -29.7348   25.4581 H   0  0  0  0  0  0
  -27.8716  -30.4414   23.9249 H   0  0  0  0  0  0
  -27.2761  -33.3597   26.2128 H   0  0  0  0  0  0
  -28.3901  -32.6888   25.0303 H   0  0  0  0  0  0
  -28.0806  -31.8389   26.5359 H   0  0  0  0  0  0
  -28.2625  -38.0050   24.7505 H   0  0  0  0  0  0
  -28.1020  -36.2582   24.6333 H   0  0  0  0  0  0
  -27.2248  -37.1505   25.8868 H   0  0  0  0  0  0
  -20.9306  -29.8753   21.6892 H   0  0  0  0  0  0
  -26.0165  -38.2842   24.1457 H   0  0  0  0  0  0
  -29.9036  -19.3887   22.4110 H   0  0  0  0  0  0
  -30.5135  -20.0375   17.5859 H   0  0  0  0  0  0
  -31.4238  -18.5195   17.3615 H   0  0  0  0  0  0
  -32.2455  -19.9606   18.0144 H   0  0  0  0  0  0
  -30.5245  -15.8388   24.1204 H   0  0  0  0  0  0
  -29.3241  -16.9704   23.5048 H   0  0  0  0  0  0
  -30.9330  -17.5381   23.9508 H   0  0  0  0  0  0
  -27.1200  -22.8112   20.1217 H   0  0  0  0  0  0
  -28.3319  -22.8414   21.3547 H   0  0  0  0  0  0
  -28.8517  -21.6122   18.5905 H   0  0  0  0  0  0
  -28.1341  -20.7477   19.9143 H   0  0  0  0  0  0
  -28.2789  -24.3638   18.7179 H   0  0  0  0  0  0
  -29.7786  -24.2177   19.6093 H   0  0  0  0  0  0
  -30.3225  -21.6128   21.2574 H   0  0  0  0  0  0
  -31.0060  -21.6530   19.6571 H   0  0  0  0  0  0
  -28.8901  -25.3442   21.5402 H   0  0  0  0  0  0
  -27.2511  -25.1838   21.0140 H   0  0  0  0  0  0
  -31.9501  -16.2689   22.1234 H   0  0  0  0  0  0
  -31.4864  -16.9646   19.3685 H   0  0  0  0  0  0
  -29.3576  -14.9969   21.9519 H   0  0  0  0  0  0
  1 25  1  0  0  0
  1 30  2  0  0  0
  1 84  1  0  0  0
  2  3  1  0  0  0
  2 25  1  0  0  0
  2 85  1  0  0  0
  2 86  1  0  0  0
  3  4  1  0  0  0
  3 87  1  0  0  0
  3 88  1  0  0  0
  4  5  1  0  0  0
  4 89  1  0  0  0
  4 90  1  0  0  0
  5  6  1  0  0  0
  5 26  1  0  0  0
  5 91  1  0  0  0
  6 25  1  0  0  0
  6 92  1  0  0  0
  6 93  1  0  0  0
  7  8  2  0  0  0
  7 26  1  0  0  0
  7 29  1  0  0  0
  8  9  1  0  0  0
  8 22  1  0  0  0
  9 10  1  0  0  0
  9 27  2  0  0  0
 10 11  2  0  0  0
 10 15  1  0  0  0
 11 12  1  0  0  0
 11 94  1  0  0  0
 12 13  2  0  0  0
 12 95  1  0  0  0
 13 14  1  0  0  0
 13 31  1  0  0  0
 14 15  2  0  0  0
 14 96  1  0  0  0
 15 97  1  0  0  0
 16 17  2  0  0  0
 16 21  1  0  0  0
 16 31  1  0  0  0
 17 18  1  0  0  0
 17 98  1  0  0  0
 18 19  2  0  0  0
 18 99  1  0  0  0
 19 20  1  0  0  0
 19 24  1  0  0  0
 20 21  2  0  0  0
 20100  1  0  0  0
 21 23  1  0  0  0
 22 28  1  0  0  0
 22 32  2  0  0  0
 26 27  1  0  0  0
 28101  1  0  0  0
 28102  1  0  0  0
 29103  1  0  0  0
 29104  1  0  0  0
 33 34  1  0  0  0
 33 66  1  0  0  0
 33 70  2  0  0  0
 34 36  1  0  0  0
 34 59  1  0  0  0
 34105  1  0  0  0
 35 44  2  0  0  0
 35 45  1  0  0  0
 35 68  1  0  0  0
 36 56  1  0  0  0
 36106  1  0  0  0
 37 39  1  0  0  0
 37 47  1  0  0  0
 37 66  1  0  0  0
 37107  1  0  0  0
 38 43  2  0  0  0
 38 46  1  0  0  0
 38 47  1  0  0  0
 39 64  1  0  0  0
 39 67  2  0  0  0
 40 52  1  0  0  0
 40 53  2  0  0  0
 40 58  1  0  0  0
 41108  1  0  0  0
 41109  1  0  0  0
 41110  1  0  0  0
 41 48  1  0  0  0
 42 43  1  0  0  0
 42 66  1  0  0  0
 42111  1  0  0  0
 42112  1  0  0  0
 43 44  1  0  0  0
 44113  1  0  0  0
 45 46  2  0  0  0
 45114  1  0  0  0
 46115  1  0  0  0
 47116  1  0  0  0
 47117  1  0  0  0
 48 56  1  0  0  0
 48 65  1  0  0  0
 48118  1  0  0  0
 49 50  1  0  0  0
 49 53  1  0  0  0
 49 64  1  0  0  0
 49119  1  0  0  0
 50 51  1  0  0  0
 50120  1  0  0  0
 50121  1  0  0  0
 51 52  1  0  0  0
 51122  1  0  0  0
 51123  1  0  0  0
 52124  1  0  0  0
 52125  1  0  0  0
 53 54  1  0  0  0
 54 55  2  0  0  0
 54126  1  0  0  0
 55 57  1  0  0  0
 55127  1  0  0  0
 56 69  2  0  0  0
 57 58  2  0  0  0
 57128  1  0  0  0
 58129  1  0  0  0
 59 60  1  0  0  0
 59 61  1  0  0  0
 59 62  1  0  0  0
 60130  1  0  0  0
 60131  1  0  0  0
 60132  1  0  0  0
 61133  1  0  0  0
 61134  1  0  0  0
 61135  1  0  0  0
 62136  1  0  0  0
 62137  1  0  0  0
 62138  1  0  0  0
 63 65  1  0  0  0
 63139  1  0  0  0
 63140  1  0  0  0
 63141  1  0  0  0
 64142  1  0  0  0
 65143  1  0  0  0
 68 80  1  0  0  0
 71 72  2  0  0  0
 71 82  1  0  0  0
 71144  1  0  0  0
 72 81  1  0  0  0
 72 83  1  0  0  0
 73 74  1  0  0  0
 73 82  1  0  0  0
 73 83  2  0  0  0
 74145  1  0  0  0
 74146  1  0  0  0
 74147  1  0  0  0
 75148  1  0  0  0
 75149  1  0  0  0
 75150  1  0  0  0
 75 81  1  0  0  0
 76 77  1  0  0  0
 76 78  1  0  0  0
 76151  1  0  0  0
 76152  1  0  0  0
 77 79  1  0  0  0
 77153  1  0  0  0
 77154  1  0  0  0
 78 80  1  0  0  0
 78155  1  0  0  0
 78156  1  0  0  0
 79 82  1  0  0  0
 79157  1  0  0  0
 79158  1  0  0  0
 80159  1  0  0  0
 80160  1  0  0  0
 81 84  1  0  0  0
 81161  1  0  0  0
 83162  1  0  0  0
 84163  1  0  0  0
M  CHG  1  83   1
M  ISO  4   1 100  68 101  80 101  84 100
M  END
> <chiral flag>
0

> <version>
0

> <s_m_source_file>
/data/baiqing/PycharmProjects/Reinvent-master-3.2/result/LINK_invent/BTK/process_docking_weight1_custom_sum_contain_oxygen_bond_distance_aromatic_linkinvent_7_9_3/rearranged_h_0080.sdf

> <i_m_source_file_index>
83

> <r_mmod_Potential_Energy-OPLS-2005>
-218.85334777832

> <r_mmod_Stretch_Energy-OPLS-2005>
34.7789840698242

> <r_mmod_Bend_Energy-OPLS-2005>
95.0760955810547

> <r_mmod_Torsional_Energy-OPLS-2005>
231.796081542969

> <r_mmod_Improper_Torsional_Energy-OPLS-2005>
2.16822528839111

> <r_mmod_Van_der_Waal_Energy-OPLS-2005>
126.683685302734

> <r_mmod_Electrostatic_Energy-OPLS-2005>
-332.655944824219

> <r_mmod_Solvation_Energy-OPLS-2005>
-385.750823974609

> <b_mmod_Minimization_Converged-OPLS-2005>
0

> <r_mmod_RMS_Derivative-OPLS-2005>
3.15240669250488

$$$$
86
                    3D
 Structure written by MMmdl.
157165  0  0  1  0            999 V2000
  -30.6195  -14.7249   20.4651 C   0  0  0  0  0  0
  -30.4322  -12.4438   19.4670 C   0  0  0  0  0  0
  -29.5080  -12.5071   18.2310 C   0  0  0  0  0  0
  -28.0345  -12.3316   18.6461 C   0  0  0  0  0  0
  -27.6433  -13.2278   19.8514 C   0  0  2  0  0  0
  -28.6889  -13.1531   20.9856 C   0  0  0  0  0  0
  -25.2527  -13.8191   20.5697 C   0  0  0  0  0  0
  -24.1810  -13.0439   20.9201 C   0  0  0  0  0  0
  -24.6391  -11.6916   20.8736 C   0  0  0  0  0  0
  -23.9064  -10.4296   21.0396 C   0  0  0  0  0  0
  -24.3622   -9.4216   21.9175 C   0  0  0  0  0  0
  -23.6301   -8.2250   22.0749 C   0  0  0  0  0  0
  -22.4282   -8.0284   21.3541 C   0  0  0  0  0  0
  -21.9915   -9.0253   20.4642 C   0  0  0  0  0  0
  -22.7237  -10.2135   20.3047 C   0  0  0  0  0  0
  -21.6861   -6.0736   22.5276 C   0  0  0  0  0  0
  -21.4022   -6.5638   23.8210 C   0  0  0  0  0  0
  -21.3660   -5.6788   24.9169 C   0  0  0  0  0  0
  -21.6042   -4.3050   24.7219 C   0  0  0  0  0  0
  -21.8824   -3.8146   23.4342 C   0  0  0  0  0  0
  -21.9200   -4.6965   22.3399 C   0  0  0  0  0  0
  -22.7838  -13.5231   21.1857 C   0  0  0  0  0  0
  -22.1671   -4.2152   21.0978 F   0  0  0  0  0  0
  -21.5624   -3.4534   25.7732 F   0  0  0  0  0  0
  -29.9910  -13.5023   20.4034 N   0  0  0  0  0  0
  -26.2949  -12.9386   20.3287 N   0  0  0  0  0  0
  -25.9321  -11.6531   20.5744 N   0  0  0  0  0  0
  -22.0493  -12.8211   22.0414 N   0  0  0  0  0  0
  -25.4216  -15.1916   20.4118 N   0  0  0  0  0  0
  -31.8063  -14.8277   20.1474 O   0  0  0  0  0  0
  -21.6650   -6.8882   21.4238 O   0  0  0  0  0  0
  -22.3524  -14.5531   20.6697 O   0  0  0  0  0  0
  -24.6335  -31.8555   23.2002 C   0  0  0  0  0  0
  -25.9163  -32.4747   23.8341 C   0  0  1  0  0  0
  -27.2091  -27.2544   20.1148 C   0  0  0  0  0  0
  -25.5957  -33.8551   24.2260 N   0  0  0  0  0  0
  -23.4284  -30.4815   21.5461 C   0  0  2  0  0  0
  -24.8707  -28.9332   20.1092 C   0  0  0  0  0  0
  -22.7515  -29.4608   22.4927 C   0  0  0  0  0  0
  -18.0295  -28.1377   22.8486 C   0  0  0  0  0  0
  -24.1493  -36.7276   23.2639 C   0  0  0  0  0  0
  -25.9789  -30.7639   21.3840 C   0  0  0  0  0  0
  -26.0472  -29.3899   20.7175 C   0  0  0  0  0  0
  -27.2204  -28.5654   20.7056 C   0  0  0  0  0  0
  -26.0036  -26.8733   19.4788 C   0  0  0  0  0  0
  -24.8554  -27.6836   19.4781 C   0  0  0  0  0  0
  -23.6440  -29.8219   20.1606 C   0  0  0  0  0  0
  -25.4120  -36.3063   24.0326 C   0  0  1  0  0  0
  -20.5902  -28.3694   23.1268 C   0  0  2  0  0  0
  -20.6786  -26.9412   22.5404 C   0  0  0  0  0  0
  -19.5756  -26.6380   21.5213 C   0  0  0  0  0  0
  -18.1937  -26.7920   22.1625 C   0  0  0  0  0  0
  -19.1549  -28.8854   23.2869 C   0  0  0  0  0  0
  -18.9466  -30.1458   23.8881 C   0  0  0  0  0  0
  -17.6460  -30.6579   24.0555 C   0  0  0  0  0  0
  -25.9064  -34.9435   23.5093 C   0  0  0  0  0  0
  -16.5354  -29.9069   23.6332 C   0  0  0  0  0  0
  -16.7279  -28.6486   23.0355 C   0  0  0  0  0  0
  -26.4517  -31.6575   25.0737 C   0  0  0  0  0  0
  -25.3736  -31.3726   26.1455 C   0  0  0  0  0  0
  -27.0373  -30.2985   24.6257 C   0  0  0  0  0  0
  -27.6058  -32.4336   25.7508 C   0  0  0  0  0  0
  -27.5580  -37.1793   24.8466 C   0  0  0  0  0  0
  -21.4222  -29.3039   22.3661 N   0  0  0  0  0  0
  -26.4291  -37.3764   23.9410 N   0  0  0  0  0  0
  -24.6996  -31.0518   22.0986 N   0  0  0  0  0  0
  -23.4213  -28.8149   23.3028 O   0  0  0  0  0  0
  -28.2949  -26.3420   20.1651 O   0  0  0  0  0  0
  -26.5631  -34.8910   22.4661 O   0  0  0  0  0  0
  -23.5485  -32.1392   23.7290 O   0  0  0  0  0  0
  -29.1288  -20.5341   18.2014 C   0  0  0  0  0  0
  -29.2023  -21.0249   19.4824 C   0  0  0  0  0  0
  -29.1209  -22.7382   18.0086 C   0  0  0  0  0  0
  -29.2174  -24.0593   17.3025 C   0  0  0  0  0  0
  -29.4352  -20.0804   20.7031 C   0  0  0  0  0  0
  -29.1203  -18.4807   20.5535 C   0  0  0  0  0  0
  -29.0822  -23.6705   20.3023 C   0  0  0  0  0  0
  -30.2605  -17.3305   20.5736 C   0  0  0  0  0  0
  -27.9930  -24.8640   20.0912 C   0  0  0  0  0  0
  -29.0897  -22.4604   19.3370 N   0  0  0  0  0  0
  -29.0857  -21.5856   17.3458 N   0  3  0  0  0  0
  -29.8497  -15.8579   20.6714 N   0  0  0  0  0  0
  -31.4731  -12.5669   19.1649 H   0  0  0  0  0  0
  -30.3721  -11.4642   19.9438 H   0  0  0  0  0  0
  -29.7862  -11.7371   17.5105 H   0  0  0  0  0  0
  -29.6351  -13.4647   17.7223 H   0  0  0  0  0  0
  -27.8911  -11.2821   18.9053 H   0  0  0  0  0  0
  -27.3764  -12.5286   17.7985 H   0  0  0  0  0  0
  -27.6398  -14.2505   19.4745 H   0  0  0  0  0  0
  -28.7213  -12.1527   21.4189 H   0  0  0  0  0  0
  -28.4258  -13.8308   21.7996 H   0  0  0  0  0  0
  -25.2773   -9.5700   22.4740 H   0  0  0  0  0  0
  -24.0020   -7.4644   22.7465 H   0  0  0  0  0  0
  -21.0850   -8.8762   19.8948 H   0  0  0  0  0  0
  -22.3688  -10.9670   19.6155 H   0  0  0  0  0  0
  -21.2013   -7.6149   23.9711 H   0  0  0  0  0  0
  -21.1478   -6.0520   25.9070 H   0  0  0  0  0  0
  -22.0602   -2.7612   23.2838 H   0  0  0  0  0  0
  -22.4135  -11.9884   22.4814 H   0  0  0  0  0  0
  -21.1099  -13.1212   22.2599 H   0  0  0  0  0  0
  -24.6505  -15.8416   20.5168 H   0  0  0  0  0  0
  -26.2626  -15.6327   20.0628 H   0  0  0  0  0  0
  -26.7224  -32.5377   23.1072 H   0  0  0  0  0  0
  -25.0105  -33.9684   25.0408 H   0  0  0  0  0  0
  -22.7242  -31.3044   21.4048 H   0  0  0  0  0  0
  -23.3758  -35.9605   23.3300 H   0  0  0  0  0  0
  -24.3580  -36.8901   22.2052 H   0  0  0  0  0  0
  -23.7242  -37.6475   23.6666 H   0  0  0  0  0  0
  -26.1304  -31.5290   20.6209 H   0  0  0  0  0  0
  -26.8521  -30.7993   22.0244 H   0  0  0  0  0  0
  -28.1214  -28.9112   21.1921 H   0  0  0  0  0  0
  -25.8972  -25.9262   18.9766 H   0  0  0  0  0  0
  -23.9564  -27.3297   18.9916 H   0  0  0  0  0  0
  -23.7677  -30.6026   19.4092 H   0  0  0  0  0  0
  -22.7602  -29.2595   19.8532 H   0  0  0  0  0  0
  -25.1299  -36.1905   25.0817 H   0  0  0  0  0  0
  -20.9987  -28.3268   24.1391 H   0  0  0  0  0  0
  -20.5703  -26.2299   23.3607 H   0  0  0  0  0  0
  -21.6650  -26.7445   22.1183 H   0  0  0  0  0  0
  -19.6920  -25.6293   21.1236 H   0  0  0  0  0  0
  -19.6686  -27.3194   20.6746 H   0  0  0  0  0  0
  -17.4210  -26.6675   21.4024 H   0  0  0  0  0  0
  -18.0334  -26.0058   22.9016 H   0  0  0  0  0  0
  -19.7939  -30.7286   24.2237 H   0  0  0  0  0  0
  -17.5009  -31.6256   24.5161 H   0  0  0  0  0  0
  -15.5351  -30.2957   23.7666 H   0  0  0  0  0  0
  -15.8684  -28.0795   22.7078 H   0  0  0  0  0  0
  -24.5905  -30.7082   25.7787 H   0  0  0  0  0  0
  -24.8934  -32.2890   26.4891 H   0  0  0  0  0  0
  -25.8049  -30.8893   27.0229 H   0  0  0  0  0  0
  -26.2968  -29.6719   24.1269 H   0  0  0  0  0  0
  -27.4020  -29.7262   25.4799 H   0  0  0  0  0  0
  -27.8864  -30.4247   23.9537 H   0  0  0  0  0  0
  -27.2647  -33.3636   26.2071 H   0  0  0  0  0  0
  -28.3863  -32.6907   25.0332 H   0  0  0  0  0  0
  -28.0738  -31.8483   26.5433 H   0  0  0  0  0  0
  -28.2593  -38.0094   24.7519 H   0  0  0  0  0  0
  -28.1079  -36.2625   24.6285 H   0  0  0  0  0  0
  -27.2299  -37.1432   25.8869 H   0  0  0  0  0  0
  -20.9418  -29.8739   21.6842 H   0  0  0  0  0  0
  -26.0169  -38.2839   24.1402 H   0  0  0  0  0  0
  -29.1604  -19.5180   17.8339 H   0  0  0  0  0  0
  -28.2146  -24.4096   17.0587 H   0  0  0  0  0  0
  -29.7760  -23.9197   16.3775 H   0  0  0  0  0  0
  -29.7472  -24.7797   17.9237 H   0  0  0  0  0  0
  -28.8307  -20.4719   21.5220 H   0  0  0  0  0  0
  -30.4672  -20.2042   21.0309 H   0  0  0  0  0  0
  -28.4663  -18.3148   19.6979 H   0  0  0  0  0  0
  -28.4769  -18.2450   21.4021 H   0  0  0  0  0  0
  -28.9874  -23.2747   21.3130 H   0  0  0  0  0  0
  -30.0824  -24.1010   20.2539 H   0  0  0  0  0  0
  -30.9335  -17.5271   21.4095 H   0  0  0  0  0  0
  -30.8738  -17.4420   19.6778 H   0  0  0  0  0  0
  -27.2088  -24.6816   20.8278 H   0  0  0  0  0  0
  -27.5040  -24.6677   19.1440 H   0  0  0  0  0  0
  -29.0785  -21.5010   16.3359 H   0  0  0  0  0  0
  -28.8813  -15.6796   20.8903 H   0  0  0  0  0  0
  1 25  1  0  0  0
  1 30  2  0  0  0
  1 82  1  0  0  0
  2  3  1  0  0  0
  2 25  1  0  0  0
  2 83  1  0  0  0
  2 84  1  0  0  0
  3  4  1  0  0  0
  3 85  1  0  0  0
  3 86  1  0  0  0
  4  5  1  0  0  0
  4 87  1  0  0  0
  4 88  1  0  0  0
  5  6  1  0  0  0
  5 26  1  0  0  0
  5 89  1  0  0  0
  6 25  1  0  0  0
  6 90  1  0  0  0
  6 91  1  0  0  0
  7  8  2  0  0  0
  7 26  1  0  0  0
  7 29  1  0  0  0
  8  9  1  0  0  0
  8 22  1  0  0  0
  9 10  1  0  0  0
  9 27  2  0  0  0
 10 11  2  0  0  0
 10 15  1  0  0  0
 11 12  1  0  0  0
 11 92  1  0  0  0
 12 13  2  0  0  0
 12 93  1  0  0  0
 13 14  1  0  0  0
 13 31  1  0  0  0
 14 15  2  0  0  0
 14 94  1  0  0  0
 15 95  1  0  0  0
 16 17  2  0  0  0
 16 21  1  0  0  0
 16 31  1  0  0  0
 17 18  1  0  0  0
 17 96  1  0  0  0
 18 19  2  0  0  0
 18 97  1  0  0  0
 19 20  1  0  0  0
 19 24  1  0  0  0
 20 21  2  0  0  0
 20 98  1  0  0  0
 21 23  1  0  0  0
 22 28  1  0  0  0
 22 32  2  0  0  0
 26 27  1  0  0  0
 28 99  1  0  0  0
 28100  1  0  0  0
 29101  1  0  0  0
 29102  1  0  0  0
 33 34  1  0  0  0
 33 66  1  0  0  0
 33 70  2  0  0  0
 34 36  1  0  0  0
 34 59  1  0  0  0
 34103  1  0  0  0
 35 44  2  0  0  0
 35 45  1  0  0  0
 35 68  1  0  0  0
 36 56  1  0  0  0
 36104  1  0  0  0
 37 39  1  0  0  0
 37 47  1  0  0  0
 37 66  1  0  0  0
 37105  1  0  0  0
 38 43  2  0  0  0
 38 46  1  0  0  0
 38 47  1  0  0  0
 39 64  1  0  0  0
 39 67  2  0  0  0
 40 52  1  0  0  0
 40 53  2  0  0  0
 40 58  1  0  0  0
 41106  1  0  0  0
 41107  1  0  0  0
 41108  1  0  0  0
 41 48  1  0  0  0
 42 43  1  0  0  0
 42 66  1  0  0  0
 42109  1  0  0  0
 42110  1  0  0  0
 43 44  1  0  0  0
 44111  1  0  0  0
 45 46  2  0  0  0
 45112  1  0  0  0
 46113  1  0  0  0
 47114  1  0  0  0
 47115  1  0  0  0
 48 56  1  0  0  0
 48 65  1  0  0  0
 48116  1  0  0  0
 49 50  1  0  0  0
 49 53  1  0  0  0
 49 64  1  0  0  0
 49117  1  0  0  0
 50 51  1  0  0  0
 50118  1  0  0  0
 50119  1  0  0  0
 51 52  1  0  0  0
 51120  1  0  0  0
 51121  1  0  0  0
 52122  1  0  0  0
 52123  1  0  0  0
 53 54  1  0  0  0
 54 55  2  0  0  0
 54124  1  0  0  0
 55 57  1  0  0  0
 55125  1  0  0  0
 56 69  2  0  0  0
 57 58  2  0  0  0
 57126  1  0  0  0
 58127  1  0  0  0
 59 60  1  0  0  0
 59 61  1  0  0  0
 59 62  1  0  0  0
 60128  1  0  0  0
 60129  1  0  0  0
 60130  1  0  0  0
 61131  1  0  0  0
 61132  1  0  0  0
 61133  1  0  0  0
 62134  1  0  0  0
 62135  1  0  0  0
 62136  1  0  0  0
 63 65  1  0  0  0
 63137  1  0  0  0
 63138  1  0  0  0
 63139  1  0  0  0
 64140  1  0  0  0
 65141  1  0  0  0
 68 79  1  0  0  0
 71 72  2  0  0  0
 71 81  1  0  0  0
 71142  1  0  0  0
 72 75  1  0  0  0
 72 80  1  0  0  0
 73 74  1  0  0  0
 73 80  1  0  0  0
 73 81  2  0  0  0
 74143  1  0  0  0
 74144  1  0  0  0
 74145  1  0  0  0
 75 76  1  0  0  0
 75146  1  0  0  0
 75147  1  0  0  0
 76 78  1  0  0  0
 76148  1  0  0  0
 76149  1  0  0  0
 77 79  1  0  0  0
 77 80  1  0  0  0
 77150  1  0  0  0
 77151  1  0  0  0
 78 82  1  0  0  0
 78152  1  0  0  0
 78153  1  0  0  0
 79154  1  0  0  0
 79155  1  0  0  0
 81156  1  0  0  0
 82157  1  0  0  0
M  CHG  1  81   1
M  ISO  4   1 100  68 101  79 101  82 100
M  END
> <chiral flag>
0

> <version>
0

> <s_m_source_file>
/data/baiqing/PycharmProjects/Reinvent-master-3.2/result/LINK_invent/BTK/process_docking_weight1_custom_sum_contain_oxygen_bond_distance_aromatic_linkinvent_7_9_3/rearranged_h_0080.sdf

> <i_m_source_file_index>
84

> <r_mmod_Potential_Energy-OPLS-2005>
104.042640686035

> <r_mmod_Stretch_Energy-OPLS-2005>
136.112655639648

> <r_mmod_Bend_Energy-OPLS-2005>
186.080215454102

> <r_mmod_Torsional_Energy-OPLS-2005>
236.284210205078

> <r_mmod_Improper_Torsional_Energy-OPLS-2005>
5.55051851272583

> <r_mmod_Van_der_Waal_Energy-OPLS-2005>
126.127517700195

> <r_mmod_Electrostatic_Energy-OPLS-2005>
-236.329010009766

> <r_mmod_Solvation_Energy-OPLS-2005>
-433.5625

> <b_mmod_Minimization_Converged-OPLS-2005>
0

> <r_mmod_RMS_Derivative-OPLS-2005>
1.19071710109711

$$$$
87
                    3D
 Structure written by MMmdl.
155163  0  0  1  0            999 V2000
  -30.6789  -14.5524   20.5198 C   0  0  0  0  0  0
  -30.4265  -12.3366   19.4572 C   0  0  0  0  0  0
  -29.5057  -12.4962   18.2281 C   0  0  0  0  0  0
  -28.0248  -12.3595   18.6338 C   0  0  0  0  0  0
  -27.6587  -13.2176   19.8749 C   0  0  2  0  0  0
  -28.7018  -13.0497   21.0054 C   0  0  0  0  0  0
  -25.2567  -13.8187   20.5708 C   0  0  0  0  0  0
  -24.1834  -13.0457   20.9194 C   0  0  0  0  0  0
  -24.6401  -11.6922   20.8744 C   0  0  0  0  0  0
  -23.9070  -10.4307   21.0415 C   0  0  0  0  0  0
  -24.3615   -9.4216   21.9192 C   0  0  0  0  0  0
  -23.6284   -8.2255   22.0758 C   0  0  0  0  0  0
  -22.4269   -8.0291   21.3548 C   0  0  0  0  0  0
  -21.9909   -9.0274   20.4655 C   0  0  0  0  0  0
  -22.7244  -10.2150   20.3067 C   0  0  0  0  0  0
  -21.6855   -6.0735   22.5276 C   0  0  0  0  0  0
  -21.4023   -6.5634   23.8211 C   0  0  0  0  0  0
  -21.3660   -5.6786   24.9171 C   0  0  0  0  0  0
  -21.6044   -4.3048   24.7226 C   0  0  0  0  0  0
  -21.8817   -3.8144   23.4345 C   0  0  0  0  0  0
  -21.9196   -4.6961   22.3399 C   0  0  0  0  0  0
  -22.7849  -13.5246   21.1840 C   0  0  0  0  0  0
  -22.1663   -4.2144   21.0978 F   0  0  0  0  0  0
  -21.5625   -3.4535   25.7741 F   0  0  0  0  0  0
  -30.0276  -13.3549   20.4466 N   0  0  0  0  0  0
  -26.3013  -12.9379   20.3386 N   0  0  0  0  0  0
  -25.9336  -11.6530   20.5797 N   0  0  0  0  0  0
  -22.0478  -12.8260   22.0396 N   0  0  0  0  0  0
  -25.4264  -15.1909   20.4096 N   0  0  0  0  0  0
  -31.8269  -14.6974   20.0928 O   0  0  0  0  0  0
  -21.6632   -6.8884   21.4240 O   0  0  0  0  0  0
  -22.3540  -14.5552   20.6668 O   0  0  0  0  0  0
  -24.6204  -31.8669   23.2112 C   0  0  0  0  0  0
  -25.9086  -32.4809   23.8407 C   0  0  1  0  0  0
  -27.2097  -27.3577   20.1266 C   0  0  0  0  0  0
  -25.5943  -33.8611   24.2341 N   0  0  0  0  0  0
  -23.4114  -30.4930   21.5519 C   0  0  2  0  0  0
  -24.8570  -28.9606   20.1133 C   0  0  0  0  0  0
  -22.7446  -29.4653   22.4961 C   0  0  0  0  0  0
  -18.0290  -28.1384   22.8495 C   0  0  0  0  0  0
  -24.1490  -36.7305   23.2634 C   0  0  0  0  0  0
  -25.9487  -30.8061   21.3824 C   0  0  0  0  0  0
  -26.0205  -29.4349   20.7328 C   0  0  0  0  0  0
  -27.1995  -28.6393   20.7438 C   0  0  0  0  0  0
  -26.0481  -26.9616   19.4299 C   0  0  0  0  0  0
  -24.8691  -27.7236   19.4546 C   0  0  0  0  0  0
  -23.6251  -29.8368   20.1634 C   0  0  0  0  0  0
  -25.4113  -36.3101   24.0333 C   0  0  1  0  0  0
  -20.5883  -28.3692   23.1294 C   0  0  2  0  0  0
  -20.6790  -26.9426   22.5413 C   0  0  0  0  0  0
  -19.5748  -26.6372   21.5234 C   0  0  0  0  0  0
  -18.1928  -26.7927   22.1645 C   0  0  0  0  0  0
  -19.1534  -28.8855   23.2892 C   0  0  0  0  0  0
  -18.9448  -30.1458   23.8907 C   0  0  0  0  0  0
  -17.6447  -30.6589   24.0569 C   0  0  0  0  0  0
  -25.9043  -34.9464   23.5128 C   0  0  0  0  0  0
  -16.5348  -29.9083   23.6326 C   0  0  0  0  0  0
  -16.7275  -28.6504   23.0341 C   0  0  0  0  0  0
  -26.4495  -31.6593   25.0742 C   0  0  0  0  0  0
  -25.3747  -31.3712   26.1478 C   0  0  0  0  0  0
  -27.0329  -30.3023   24.6152 C   0  0  0  0  0  0
  -27.6071  -32.4323   25.7503 C   0  0  0  0  0  0
  -27.5582  -37.1813   24.8467 C   0  0  0  0  0  0
  -21.4161  -29.3060   22.3700 N   0  0  0  0  0  0
  -26.4297  -37.3788   23.9405 N   0  0  0  0  0  0
  -24.6781  -31.0712   22.1053 N   0  0  0  0  0  0
  -23.4198  -28.8175   23.3004 O   0  0  0  0  0  0
  -28.3268  -26.5240   20.1325 O   0  0  0  0  0  0
  -26.5582  -34.8920   22.4674 O   0  0  0  0  0  0
  -23.5382  -32.1448   23.7469 O   0  0  0  0  0  0
  -29.1495  -21.8854   21.3660 C   0  0  0  0  0  0
  -29.2762  -20.6932   20.6829 C   0  0  0  0  0  0
  -26.9879  -24.3461   20.4996 C   0  0  0  0  0  0
  -28.8254  -19.2729   21.0508 C   0  0  0  0  0  0
  -29.8905  -18.1831   21.4361 C   0  0  0  0  0  0
  -29.5696  -24.3704   20.5701 C   0  0  0  0  0  0
  -30.1705  -17.0340   20.4028 C   0  0  0  0  0  0
  -28.2456  -25.2009   20.7879 C   0  0  1  0  0  0
  -29.7619  -21.0078   19.4142 N   0  0  0  0  0  0
  -29.8941  -22.2994   19.2917 N   0  0  0  0  0  0
  -29.4950  -22.8835   20.4507 N   0  0  0  0  0  0
  -29.9283  -15.6329   20.8589 N   0  0  0  0  0  0
  -31.4733  -12.4271   19.1617 H   0  0  0  0  0  0
  -30.3278  -11.3387   19.8871 H   0  0  0  0  0  0
  -29.7540  -11.7480   17.4740 H   0  0  0  0  0  0
  -29.6740  -13.4681   17.7612 H   0  0  0  0  0  0
  -27.8376  -11.3059   18.8459 H   0  0  0  0  0  0
  -27.3806  -12.6202   17.7932 H   0  0  0  0  0  0
  -27.6885  -14.2583   19.5510 H   0  0  0  0  0  0
  -28.6894  -12.0302   21.3925 H   0  0  0  0  0  0
  -28.4635  -13.6916   21.8547 H   0  0  0  0  0  0
  -25.2766   -9.5686   22.4756 H   0  0  0  0  0  0
  -23.9999   -7.4646   22.7470 H   0  0  0  0  0  0
  -21.0844   -8.8802   19.8950 H   0  0  0  0  0  0
  -22.3720  -10.9688   19.6167 H   0  0  0  0  0  0
  -21.2018   -7.6143   23.9720 H   0  0  0  0  0  0
  -21.1480   -6.0509   25.9075 H   0  0  0  0  0  0
  -22.0594   -2.7604   23.2842 H   0  0  0  0  0  0
  -22.4083  -11.9938   22.4827 H   0  0  0  0  0  0
  -21.1090  -13.1296   22.2577 H   0  0  0  0  0  0
  -24.6575  -15.8433   20.5171 H   0  0  0  0  0  0
  -26.2736  -15.6302   20.0746 H   0  0  0  0  0  0
  -26.7159  -32.5494   23.1168 H   0  0  0  0  0  0
  -25.0150  -33.9783   25.0525 H   0  0  0  0  0  0
  -22.7037  -31.3127   21.4168 H   0  0  0  0  0  0
  -23.3742  -35.9645   23.3299 H   0  0  0  0  0  0
  -24.3596  -36.8911   22.2048 H   0  0  0  0  0  0
  -23.7244  -37.6519   23.6638 H   0  0  0  0  0  0
  -26.0761  -31.5671   20.6120 H   0  0  0  0  0  0
  -26.8326  -30.8590   22.0051 H   0  0  0  0  0  0
  -28.0879  -28.9918   21.2478 H   0  0  0  0  0  0
  -26.0364  -26.0482   18.8580 H   0  0  0  0  0  0
  -23.9876  -27.3681   18.9383 H   0  0  0  0  0  0
  -23.7455  -30.6195   19.4134 H   0  0  0  0  0  0
  -22.7468  -29.2675   19.8538 H   0  0  0  0  0  0
  -25.1284  -36.1971   25.0823 H   0  0  0  0  0  0
  -20.9980  -28.3252   24.1414 H   0  0  0  0  0  0
  -20.5749  -26.2299   23.3611 H   0  0  0  0  0  0
  -21.6650  -26.7482   22.1177 H   0  0  0  0  0  0
  -19.6907  -25.6275   21.1289 H   0  0  0  0  0  0
  -19.6663  -27.3151   20.6730 H   0  0  0  0  0  0
  -17.4203  -26.6668   21.4051 H   0  0  0  0  0  0
  -18.0308  -26.0071   22.9037 H   0  0  0  0  0  0
  -19.7918  -30.7282   24.2284 H   0  0  0  0  0  0
  -17.4992  -31.6261   24.5182 H   0  0  0  0  0  0
  -15.5347  -30.2982   23.7638 H   0  0  0  0  0  0
  -15.8678  -28.0830   22.7040 H   0  0  0  0  0  0
  -24.5923  -30.7058   25.7809 H   0  0  0  0  0  0
  -24.8930  -32.2869   26.4918 H   0  0  0  0  0  0
  -25.8086  -30.8885   27.0242 H   0  0  0  0  0  0
  -26.2880  -29.6794   24.1181 H   0  0  0  0  0  0
  -27.4057  -29.7259   25.4632 H   0  0  0  0  0  0
  -27.8744  -30.4335   23.9342 H   0  0  0  0  0  0
  -27.2686  -33.3618   26.2099 H   0  0  0  0  0  0
  -28.3858  -32.6901   25.0311 H   0  0  0  0  0  0
  -28.0755  -31.8432   26.5401 H   0  0  0  0  0  0
  -28.2605  -38.0107   24.7505 H   0  0  0  0  0  0
  -28.1071  -36.2636   24.6295 H   0  0  0  0  0  0
  -27.2300  -37.1463   25.8873 H   0  0  0  0  0  0
  -20.9324  -29.8786   21.6922 H   0  0  0  0  0  0
  -26.0177  -38.2863   24.1406 H   0  0  0  0  0  0
  -28.8007  -22.1035   22.3679 H   0  0  0  0  0  0
  -27.0019  -23.4102   21.0542 H   0  0  0  0  0  0
  -26.8991  -24.0939   19.4437 H   0  0  0  0  0  0
  -26.0732  -24.8310   20.8335 H   0  0  0  0  0  0
  -28.1932  -18.8802   20.2539 H   0  0  0  0  0  0
  -28.1451  -19.3588   21.8986 H   0  0  0  0  0  0
  -29.5566  -17.7179   22.3646 H   0  0  0  0  0  0
  -30.8260  -18.6788   21.6971 H   0  0  0  0  0  0
  -30.2761  -24.6039   21.3659 H   0  0  0  0  0  0
  -30.0430  -24.7416   19.6591 H   0  0  0  0  0  0
  -31.2014  -17.1416   20.0595 H   0  0  0  0  0  0
  -29.5639  -17.1828   19.5091 H   0  0  0  0  0  0
  -28.2007  -25.4192   21.8560 H   0  0  0  0  0  0
  -29.0023  -15.4271   21.2031 H   0  0  0  0  0  0
  1 25  1  0  0  0
  1 30  2  0  0  0
  1 82  1  0  0  0
  2  3  1  0  0  0
  2 25  1  0  0  0
  2 83  1  0  0  0
  2 84  1  0  0  0
  3  4  1  0  0  0
  3 85  1  0  0  0
  3 86  1  0  0  0
  4  5  1  0  0  0
  4 87  1  0  0  0
  4 88  1  0  0  0
  5  6  1  0  0  0
  5 26  1  0  0  0
  5 89  1  0  0  0
  6 25  1  0  0  0
  6 90  1  0  0  0
  6 91  1  0  0  0
  7  8  2  0  0  0
  7 26  1  0  0  0
  7 29  1  0  0  0
  8  9  1  0  0  0
  8 22  1  0  0  0
  9 10  1  0  0  0
  9 27  2  0  0  0
 10 11  2  0  0  0
 10 15  1  0  0  0
 11 12  1  0  0  0
 11 92  1  0  0  0
 12 13  2  0  0  0
 12 93  1  0  0  0
 13 14  1  0  0  0
 13 31  1  0  0  0
 14 15  2  0  0  0
 14 94  1  0  0  0
 15 95  1  0  0  0
 16 17  2  0  0  0
 16 21  1  0  0  0
 16 31  1  0  0  0
 17 18  1  0  0  0
 17 96  1  0  0  0
 18 19  2  0  0  0
 18 97  1  0  0  0
 19 20  1  0  0  0
 19 24  1  0  0  0
 20 21  2  0  0  0
 20 98  1  0  0  0
 21 23  1  0  0  0
 22 28  1  0  0  0
 22 32  2  0  0  0
 26 27  1  0  0  0
 28 99  1  0  0  0
 28100  1  0  0  0
 29101  1  0  0  0
 29102  1  0  0  0
 33 34  1  0  0  0
 33 66  1  0  0  0
 33 70  2  0  0  0
 34 36  1  0  0  0
 34 59  1  0  0  0
 34103  1  0  0  0
 35 44  2  0  0  0
 35 45  1  0  0  0
 35 68  1  0  0  0
 36 56  1  0  0  0
 36104  1  0  0  0
 37 39  1  0  0  0
 37 47  1  0  0  0
 37 66  1  0  0  0
 37105  1  0  0  0
 38 43  2  0  0  0
 38 46  1  0  0  0
 38 47  1  0  0  0
 39 64  1  0  0  0
 39 67  2  0  0  0
 40 52  1  0  0  0
 40 53  2  0  0  0
 40 58  1  0  0  0
 41106  1  0  0  0
 41107  1  0  0  0
 41108  1  0  0  0
 41 48  1  0  0  0
 42 43  1  0  0  0
 42 66  1  0  0  0
 42109  1  0  0  0
 42110  1  0  0  0
 43 44  1  0  0  0
 44111  1  0  0  0
 45 46  2  0  0  0
 45112  1  0  0  0
 46113  1  0  0  0
 47114  1  0  0  0
 47115  1  0  0  0
 48 56  1  0  0  0
 48 65  1  0  0  0
 48116  1  0  0  0
 49 50  1  0  0  0
 49 53  1  0  0  0
 49 64  1  0  0  0
 49117  1  0  0  0
 50 51  1  0  0  0
 50118  1  0  0  0
 50119  1  0  0  0
 51 52  1  0  0  0
 51120  1  0  0  0
 51121  1  0  0  0
 52122  1  0  0  0
 52123  1  0  0  0
 53 54  1  0  0  0
 54 55  2  0  0  0
 54124  1  0  0  0
 55 57  1  0  0  0
 55125  1  0  0  0
 56 69  2  0  0  0
 57 58  2  0  0  0
 57126  1  0  0  0
 58127  1  0  0  0
 59 60  1  0  0  0
 59 61  1  0  0  0
 59 62  1  0  0  0
 60128  1  0  0  0
 60129  1  0  0  0
 60130  1  0  0  0
 61131  1  0  0  0
 61132  1  0  0  0
 61133  1  0  0  0
 62134  1  0  0  0
 62135  1  0  0  0
 62136  1  0  0  0
 63 65  1  0  0  0
 63137  1  0  0  0
 63138  1  0  0  0
 63139  1  0  0  0
 64140  1  0  0  0
 65141  1  0  0  0
 68 78  1  0  0  0
 71 72  2  0  0  0
 71 81  1  0  0  0
 71142  1  0  0  0
 72 74  1  0  0  0
 72 79  1  0  0  0
 73143  1  0  0  0
 73144  1  0  0  0
 73145  1  0  0  0
 73 78  1  0  0  0
 74 75  1  0  0  0
 74146  1  0  0  0
 74147  1  0  0  0
 75 77  1  0  0  0
 75148  1  0  0  0
 75149  1  0  0  0
 76 78  1  0  0  0
 76 81  1  0  0  0
 76150  1  0  0  0
 76151  1  0  0  0
 77 82  1  0  0  0
 77152  1  0  0  0
 77153  1  0  0  0
 78154  1  0  0  0
 79 80  2  0  0  0
 80 81  1  0  0  0
 82155  1  0  0  0
M  ISO  4   1 100  68 101  78 101  82 100
M  END
> <chiral flag>
0

> <version>
0

> <s_m_source_file>
/data/baiqing/PycharmProjects/Reinvent-master-3.2/result/LINK_invent/BTK/process_docking_weight1_custom_sum_contain_oxygen_bond_distance_aromatic_linkinvent_7_9_3/rearranged_h_0080.sdf

> <i_m_source_file_index>
85

> <r_mmod_Potential_Energy-OPLS-2005>
-7.12874364852905

> <r_mmod_Stretch_Energy-OPLS-2005>
56.8035774230957

> <r_mmod_Bend_Energy-OPLS-2005>
126.873161315918

> <r_mmod_Torsional_Energy-OPLS-2005>
255.760620117188

> <r_mmod_Improper_Torsional_Energy-OPLS-2005>
7.21132373809814

> <r_mmod_Van_der_Waal_Energy-OPLS-2005>
134.689697265625

> <r_mmod_Electrostatic_Energy-OPLS-2005>
-391.25390625

> <r_mmod_Solvation_Energy-OPLS-2005>
-228.012893676758

> <b_mmod_Minimization_Converged-OPLS-2005>
0

> <r_mmod_RMS_Derivative-OPLS-2005>
1.77254772186279

$$$$
88
                    3D
 Structure written by MMmdl.
167175  0  0  1  0            999 V2000
  -30.5809  -14.7555   20.4057 C   0  0  0  0  0  0
  -30.4325  -12.4446   19.4620 C   0  0  0  0  0  0
  -29.5121  -12.4918   18.2247 C   0  0  0  0  0  0
  -28.0337  -12.3246   18.6376 C   0  0  0  0  0  0
  -27.6358  -13.2281   19.8372 C   0  0  2  0  0  0
  -28.6868  -13.1718   20.9657 C   0  0  0  0  0  0
  -25.2487  -13.8187   20.5694 C   0  0  0  0  0  0
  -24.1809  -13.0434   20.9225 C   0  0  0  0  0  0
  -24.6409  -11.6894   20.8762 C   0  0  0  0  0  0
  -23.9089  -10.4287   21.0404 C   0  0  0  0  0  0
  -24.3624   -9.4198   21.9198 C   0  0  0  0  0  0
  -23.6301   -8.2229   22.0754 C   0  0  0  0  0  0
  -22.4279   -8.0279   21.3547 C   0  0  0  0  0  0
  -21.9925   -9.0251   20.4635 C   0  0  0  0  0  0
  -22.7248  -10.2133   20.3053 C   0  0  0  0  0  0
  -21.6855   -6.0738   22.5280 C   0  0  0  0  0  0
  -21.4019   -6.5644   23.8213 C   0  0  0  0  0  0
  -21.3658   -5.6785   24.9180 C   0  0  0  0  0  0
  -21.6043   -4.3052   24.7220 C   0  0  0  0  0  0
  -21.8810   -3.8148   23.4344 C   0  0  0  0  0  0
  -21.9188   -4.6972   22.3400 C   0  0  0  0  0  0
  -22.7824  -13.5204   21.1903 C   0  0  0  0  0  0
  -22.1652   -4.2159   21.0981 F   0  0  0  0  0  0
  -21.5626   -3.4533   25.7736 F   0  0  0  0  0  0
  -29.9814  -13.5197   20.3664 N   0  0  0  0  0  0
  -26.2912  -12.9385   20.3229 N   0  0  0  0  0  0
  -25.9331  -11.6542   20.5735 N   0  0  0  0  0  0
  -22.0457  -12.8174   22.0426 N   0  0  0  0  0  0
  -25.4128  -15.1914   20.4066 N   0  0  0  0  0  0
  -31.7939  -14.8701   20.2155 O   0  0  0  0  0  0
  -21.6621   -6.8886   21.4244 O   0  0  0  0  0  0
  -22.3492  -14.5514   20.6746 O   0  0  0  0  0  0
  -24.6289  -31.8570   23.1907 C   0  0  0  0  0  0
  -25.9084  -32.4776   23.8311 C   0  0  1  0  0  0
  -27.2204  -27.2516   20.1550 C   0  0  0  0  0  0
  -25.5881  -33.8563   24.2270 N   0  0  0  0  0  0
  -23.4333  -30.4714   21.5325 C   0  0  2  0  0  0
  -24.8787  -28.9055   20.1193 C   0  0  0  0  0  0
  -22.7530  -29.4572   22.4868 C   0  0  0  0  0  0
  -18.0317  -28.1384   22.8517 C   0  0  0  0  0  0
  -24.1465  -36.7290   23.2661 C   0  0  0  0  0  0
  -25.9761  -30.7675   21.3658 C   0  0  0  0  0  0
  -26.0506  -29.3818   20.7247 C   0  0  0  0  0  0
  -27.2311  -28.5709   20.7190 C   0  0  0  0  0  0
  -26.0295  -26.8313   19.5398 C   0  0  0  0  0  0
  -24.8726  -27.6373   19.5168 C   0  0  0  0  0  0
  -23.6505  -29.7944   20.1521 C   0  0  0  0  0  0
  -25.4089  -36.3120   24.0376 C   0  0  1  0  0  0
  -20.5943  -28.3690   23.1271 C   0  0  2  0  0  0
  -20.6793  -26.9402   22.5379 C   0  0  0  0  0  0
  -19.5735  -26.6416   21.5201 C   0  0  0  0  0  0
  -18.1935  -26.7938   22.1648 C   0  0  0  0  0  0
  -19.1586  -28.8851   23.2901 C   0  0  0  0  0  0
  -18.9479  -30.1459   23.8914 C   0  0  0  0  0  0
  -17.6475  -30.6593   24.0564 C   0  0  0  0  0  0
  -25.9039  -34.9482   23.5154 C   0  0  0  0  0  0
  -16.5377  -29.9068   23.6312 C   0  0  0  0  0  0
  -16.7307  -28.6479   23.0355 C   0  0  0  0  0  0
  -26.4435  -31.6590   25.0698 C   0  0  0  0  0  0
  -25.3640  -31.3731   26.1428 C   0  0  0  0  0  0
  -27.0227  -30.3015   24.6101 C   0  0  0  0  0  0
  -27.6048  -32.4276   25.7426 C   0  0  0  0  0  0
  -27.5573  -37.1799   24.8488 C   0  0  0  0  0  0
  -21.4229  -29.3049   22.3657 N   0  0  0  0  0  0
  -26.4285  -37.3799   23.9453 N   0  0  0  0  0  0
  -24.7002  -31.0539   22.0883 N   0  0  0  0  0  0
  -23.4238  -28.8138   23.2944 O   0  0  0  0  0  0
  -28.3209  -26.3747   20.0862 O   0  0  0  0  0  0
  -26.5636  -34.8957   22.4723 O   0  0  0  0  0  0
  -23.5430  -32.1373   23.7210 O   0  0  0  0  0  0
  -30.2625  -23.0139   22.1149 C   0  0  0  0  0  0
  -31.3989  -22.3439   22.5810 C   0  0  0  0  0  0
  -29.4724  -22.4928   21.0571 C   0  0  0  0  0  0
  -31.7353  -21.1064   22.0253 C   0  0  0  0  0  0
  -29.7651  -21.0769   20.7183 C   0  0  0  0  0  0
  -35.5996  -20.5154   22.6510 C   0  0  0  0  0  0
  -27.5649  -19.7480   20.8947 C   0  0  0  0  0  0
  -28.4680  -23.5559   20.3820 C   0  0  0  0  0  0
  -33.0293  -20.3908   22.4228 C   0  0  0  0  0  0
  -34.3409  -21.0745   21.9503 C   0  0  0  0  0  0
  -29.4231  -18.4828   19.6393 C   0  0  0  0  0  0
  -29.9828  -17.3611   20.6645 C   0  0  0  0  0  0
  -28.3961  -25.1244   20.9154 C   0  0  0  0  0  0
  -28.8446  -19.9638   20.0631 C   0  0  2  0  0  0
  -30.9009  -20.4815   21.1723 N   0  0  0  0  0  0
  -29.7453  -15.8620   20.4312 N   0  0  0  0  0  0
  -31.4791  -12.5594   19.1759 H   0  0  0  0  0  0
  -30.3577  -11.4755   19.9607 H   0  0  0  0  0  0
  -29.7877  -11.7101   17.5164 H   0  0  0  0  0  0
  -29.6396  -13.4393   17.6990 H   0  0  0  0  0  0
  -27.8848  -11.2766   18.9072 H   0  0  0  0  0  0
  -27.3749  -12.5130   17.7883 H   0  0  0  0  0  0
  -27.6222  -14.2465   19.4469 H   0  0  0  0  0  0
  -28.7261  -12.1759   21.4125 H   0  0  0  0  0  0
  -28.4341  -13.8601   21.7749 H   0  0  0  0  0  0
  -25.2778   -9.5656   22.4771 H   0  0  0  0  0  0
  -23.9998   -7.4610   22.7470 H   0  0  0  0  0  0
  -21.0855   -8.8774   19.8932 H   0  0  0  0  0  0
  -22.3731  -10.9670   19.6148 H   0  0  0  0  0  0
  -21.2018   -7.6152   23.9734 H   0  0  0  0  0  0
  -21.1487   -6.0517   25.9088 H   0  0  0  0  0  0
  -22.0595   -2.7613   23.2835 H   0  0  0  0  0  0
  -22.4069  -11.9830   22.4801 H   0  0  0  0  0  0
  -21.1076  -13.1176   22.2626 H   0  0  0  0  0  0
  -24.6375  -15.8359   20.5220 H   0  0  0  0  0  0
  -26.2343  -15.6328   20.0168 H   0  0  0  0  0  0
  -26.7161  -32.5426   23.1076 H   0  0  0  0  0  0
  -24.9979  -33.9696   25.0395 H   0  0  0  0  0  0
  -22.7327  -31.2922   21.3726 H   0  0  0  0  0  0
  -23.3768  -35.9576   23.3337 H   0  0  0  0  0  0
  -24.3559  -36.8879   22.2067 H   0  0  0  0  0  0
  -23.7171  -37.6486   23.6640 H   0  0  0  0  0  0
  -26.1146  -31.5146   20.5828 H   0  0  0  0  0  0
  -26.8594  -30.8325   21.9850 H   0  0  0  0  0  0
  -28.1446  -28.9412   21.1606 H   0  0  0  0  0  0
  -25.9944  -25.8536   19.0764 H   0  0  0  0  0  0
  -23.9703  -27.2566   19.0519 H   0  0  0  0  0  0
  -23.7872  -30.5609   19.3901 H   0  0  0  0  0  0
  -22.7734  -29.2196   19.8460 H   0  0  0  0  0  0
  -25.1254  -36.2000   25.0866 H   0  0  0  0  0  0
  -21.0059  -28.3223   24.1387 H   0  0  0  0  0  0
  -20.5682  -26.2260   23.3583 H   0  0  0  0  0  0
  -21.6633  -26.7397   22.1151 H   0  0  0  0  0  0
  -19.6869  -25.6345   21.1174 H   0  0  0  0  0  0
  -19.6645  -27.3270   20.6780 H   0  0  0  0  0  0
  -17.4184  -26.6746   21.4053 H   0  0  0  0  0  0
  -18.0313  -26.0070   22.9022 H   0  0  0  0  0  0
  -19.7948  -30.7286   24.2257 H   0  0  0  0  0  0
  -17.5018  -31.6259   24.5180 H   0  0  0  0  0  0
  -15.5367  -30.2966   23.7624 H   0  0  0  0  0  0
  -15.8726  -28.0804   22.7045 H   0  0  0  0  0  0
  -24.5901  -30.6983   25.7803 H   0  0  0  0  0  0
  -24.8701  -32.2845   26.4765 H   0  0  0  0  0  0
  -25.7960  -30.9028   27.0257 H   0  0  0  0  0  0
  -26.2748  -29.6836   24.1117 H   0  0  0  0  0  0
  -27.3955  -29.7225   25.4560 H   0  0  0  0  0  0
  -27.8613  -30.4383   23.9286 H   0  0  0  0  0  0
  -27.2780  -33.3642   26.1922 H   0  0  0  0  0  0
  -28.3847  -32.6665   25.0212 H   0  0  0  0  0  0
  -28.0672  -31.8390   26.5363 H   0  0  0  0  0  0
  -28.2612  -38.0082   24.7548 H   0  0  0  0  0  0
  -28.1062  -36.2619   24.6303 H   0  0  0  0  0  0
  -27.2311  -37.1447   25.8902 H   0  0  0  0  0  0
  -20.9422  -29.8799   21.6882 H   0  0  0  0  0  0
  -26.0206  -38.2891   24.1426 H   0  0  0  0  0  0
  -30.0509  -23.9553   22.5980 H   0  0  0  0  0  0
  -32.0221  -22.7988   23.3404 H   0  0  0  0  0  0
  -36.5005  -21.0592   22.3532 H   0  0  0  0  0  0
  -35.7655  -19.4646   22.4114 H   0  0  0  0  0  0
  -35.5339  -20.6014   23.7356 H   0  0  0  0  0  0
  -26.9042  -20.6128   20.8357 H   0  0  0  0  0  0
  -27.8107  -19.5717   21.9388 H   0  0  0  0  0  0
  -26.9962  -18.8854   20.5399 H   0  0  0  0  0  0
  -28.6973  -23.5834   19.3168 H   0  0  0  0  0  0
  -27.4569  -23.1464   20.4449 H   0  0  0  0  0  0
  -33.0196  -19.3741   22.0270 H   0  0  0  0  0  0
  -33.0275  -20.3025   23.5083 H   0  0  0  0  0  0
  -34.4490  -20.9613   20.8716 H   0  0  0  0  0  0
  -34.2929  -22.1470   22.1403 H   0  0  0  0  0  0
  -28.6144  -17.9945   19.0939 H   0  0  0  0  0  0
  -30.1827  -18.6339   18.8705 H   0  0  0  0  0  0
  -29.5326  -17.5766   21.6331 H   0  0  0  0  0  0
  -31.0518  -17.5310   20.8051 H   0  0  0  0  0  0
  -29.3432  -25.3624   21.3895 H   0  0  0  0  0  0
  -27.6644  -25.1770   21.7230 H   0  0  0  0  0  0
  -28.5163  -20.4089   19.1196 H   0  0  0  0  0  0
  -28.7729  -15.6006   20.4106 H   0  0  0  0  0  0
  1 25  1  0  0  0
  1 30  2  0  0  0
  1 86  1  0  0  0
  2  3  1  0  0  0
  2 25  1  0  0  0
  2 87  1  0  0  0
  2 88  1  0  0  0
  3  4  1  0  0  0
  3 89  1  0  0  0
  3 90  1  0  0  0
  4  5  1  0  0  0
  4 91  1  0  0  0
  4 92  1  0  0  0
  5  6  1  0  0  0
  5 26  1  0  0  0
  5 93  1  0  0  0
  6 25  1  0  0  0
  6 94  1  0  0  0
  6 95  1  0  0  0
  7  8  2  0  0  0
  7 26  1  0  0  0
  7 29  1  0  0  0
  8  9  1  0  0  0
  8 22  1  0  0  0
  9 10  1  0  0  0
  9 27  2  0  0  0
 10 11  2  0  0  0
 10 15  1  0  0  0
 11 12  1  0  0  0
 11 96  1  0  0  0
 12 13  2  0  0  0
 12 97  1  0  0  0
 13 14  1  0  0  0
 13 31  1  0  0  0
 14 15  2  0  0  0
 14 98  1  0  0  0
 15 99  1  0  0  0
 16 17  2  0  0  0
 16 21  1  0  0  0
 16 31  1  0  0  0
 17 18  1  0  0  0
 17100  1  0  0  0
 18 19  2  0  0  0
 18101  1  0  0  0
 19 20  1  0  0  0
 19 24  1  0  0  0
 20 21  2  0  0  0
 20102  1  0  0  0
 21 23  1  0  0  0
 22 28  1  0  0  0
 22 32  2  0  0  0
 26 27  1  0  0  0
 28103  1  0  0  0
 28104  1  0  0  0
 29105  1  0  0  0
 29106  1  0  0  0
 33 34  1  0  0  0
 33 66  1  0  0  0
 33 70  2  0  0  0
 34 36  1  0  0  0
 34 59  1  0  0  0
 34107  1  0  0  0
 35 44  2  0  0  0
 35 45  1  0  0  0
 35 68  1  0  0  0
 36 56  1  0  0  0
 36108  1  0  0  0
 37 39  1  0  0  0
 37 47  1  0  0  0
 37 66  1  0  0  0
 37109  1  0  0  0
 38 43  2  0  0  0
 38 46  1  0  0  0
 38 47  1  0  0  0
 39 64  1  0  0  0
 39 67  2  0  0  0
 40 52  1  0  0  0
 40 53  2  0  0  0
 40 58  1  0  0  0
 41110  1  0  0  0
 41111  1  0  0  0
 41112  1  0  0  0
 41 48  1  0  0  0
 42 43  1  0  0  0
 42 66  1  0  0  0
 42113  1  0  0  0
 42114  1  0  0  0
 43 44  1  0  0  0
 44115  1  0  0  0
 45 46  2  0  0  0
 45116  1  0  0  0
 46117  1  0  0  0
 47118  1  0  0  0
 47119  1  0  0  0
 48 56  1  0  0  0
 48 65  1  0  0  0
 48120  1  0  0  0
 49 50  1  0  0  0
 49 53  1  0  0  0
 49 64  1  0  0  0
 49121  1  0  0  0
 50 51  1  0  0  0
 50122  1  0  0  0
 50123  1  0  0  0
 51 52  1  0  0  0
 51124  1  0  0  0
 51125  1  0  0  0
 52126  1  0  0  0
 52127  1  0  0  0
 53 54  1  0  0  0
 54 55  2  0  0  0
 54128  1  0  0  0
 55 57  1  0  0  0
 55129  1  0  0  0
 56 69  2  0  0  0
 57 58  2  0  0  0
 57130  1  0  0  0
 58131  1  0  0  0
 59 60  1  0  0  0
 59 61  1  0  0  0
 59 62  1  0  0  0
 60132  1  0  0  0
 60133  1  0  0  0
 60134  1  0  0  0
 61135  1  0  0  0
 61136  1  0  0  0
 61137  1  0  0  0
 62138  1  0  0  0
 62139  1  0  0  0
 62140  1  0  0  0
 63 65  1  0  0  0
 63141  1  0  0  0
 63142  1  0  0  0
 63143  1  0  0  0
 64144  1  0  0  0
 65145  1  0  0  0
 68 83  1  0  0  0
 71 72  2  0  0  0
 71 73  1  0  0  0
 71146  1  0  0  0
 72 74  1  0  0  0
 72147  1  0  0  0
 73 75  2  0  0  0
 73 78  1  0  0  0
 74 79  1  0  0  0
 74 85  2  0  0  0
 75 84  1  0  0  0
 75 85  1  0  0  0
 76 80  1  0  0  0
 76148  1  0  0  0
 76149  1  0  0  0
 76150  1  0  0  0
 77151  1  0  0  0
 77152  1  0  0  0
 77153  1  0  0  0
 77 84  1  0  0  0
 78 83  1  0  0  0
 78154  1  0  0  0
 78155  1  0  0  0
 79 80  1  0  0  0
 79156  1  0  0  0
 79157  1  0  0  0
 80158  1  0  0  0
 80159  1  0  0  0
 81 82  1  0  0  0
 81 84  1  0  0  0
 81160  1  0  0  0
 81161  1  0  0  0
 82 86  1  0  0  0
 82162  1  0  0  0
 82163  1  0  0  0
 83164  1  0  0  0
 83165  1  0  0  0
 84166  1  0  0  0
 86167  1  0  0  0
M  ISO  4   1 100  68 101  83 101  86 100
M  END
> <chiral flag>
0

> <version>
0

> <s_m_source_file>
/data/baiqing/PycharmProjects/Reinvent-master-3.2/result/LINK_invent/BTK/process_docking_weight1_custom_sum_contain_oxygen_bond_distance_aromatic_linkinvent_7_9_3/rearranged_h_0080.sdf

> <i_m_source_file_index>
86

> <r_mmod_Potential_Energy-OPLS-2005>
154.61540222168

> <r_mmod_Stretch_Energy-OPLS-2005>
151.033889770508

> <r_mmod_Bend_Energy-OPLS-2005>
234.384857177734

> <r_mmod_Torsional_Energy-OPLS-2005>
289.634857177734

> <r_mmod_Improper_Torsional_Energy-OPLS-2005>
6.57916927337646

> <r_mmod_Van_der_Waal_Energy-OPLS-2005>
130.759429931641

> <r_mmod_Electrostatic_Energy-OPLS-2005>
-533.490417480469

> <r_mmod_Solvation_Energy-OPLS-2005>
-216.779571533203

> <b_mmod_Minimization_Converged-OPLS-2005>
0

> <r_mmod_RMS_Derivative-OPLS-2005>
7.70652484893799

$$$$
89
                    3D
 Structure written by MMmdl.
166174  0  0  1  0            999 V2000
  -30.7491  -14.5057   20.5808 C   0  0  0  0  0  0
  -30.3920  -12.3316   19.4633 C   0  0  0  0  0  0
  -29.4995  -12.5358   18.2225 C   0  0  0  0  0  0
  -28.0130  -12.3951   18.6038 C   0  0  0  0  0  0
  -27.6511  -13.2168   19.8751 C   0  0  2  0  0  0
  -28.6900  -12.9965   21.0008 C   0  0  0  0  0  0
  -25.2525  -13.8160   20.5651 C   0  0  0  0  0  0
  -24.1817  -13.0423   20.9115 C   0  0  0  0  0  0
  -24.6385  -11.6871   20.8679 C   0  0  0  0  0  0
  -23.9051  -10.4262   21.0347 C   0  0  0  0  0  0
  -24.3611   -9.4199   21.9143 C   0  0  0  0  0  0
  -23.6276   -8.2239   22.0747 C   0  0  0  0  0  0
  -22.4249   -8.0272   21.3545 C   0  0  0  0  0  0
  -21.9892   -9.0227   20.4624 C   0  0  0  0  0  0
  -22.7224  -10.2098   20.3011 C   0  0  0  0  0  0
  -21.6834   -6.0714   22.5300 C   0  0  0  0  0  0
  -21.3987   -6.5611   23.8232 C   0  0  0  0  0  0
  -21.3702   -5.6780   24.9209 C   0  0  0  0  0  0
  -21.6073   -4.3038   24.7265 C   0  0  0  0  0  0
  -21.8792   -3.8120   23.4380 C   0  0  0  0  0  0
  -21.9168   -4.6937   22.3430 C   0  0  0  0  0  0
  -22.7858  -13.5221   21.1810 C   0  0  0  0  0  0
  -22.1632   -4.2121   21.1007 F   0  0  0  0  0  0
  -21.5690   -3.4527   25.7776 F   0  0  0  0  0  0
  -30.0094  -13.3510   20.4704 N   0  0  0  0  0  0
  -26.2958  -12.9350   20.3329 N   0  0  0  0  0  0
  -25.9301  -11.6495   20.5686 N   0  0  0  0  0  0
  -22.0498  -12.8195   22.0355 N   0  0  0  0  0  0
  -25.4203  -15.1902   20.4094 N   0  0  0  0  0  0
  -31.8359  -14.5624   19.9834 O   0  0  0  0  0  0
  -21.6629   -6.8865   21.4256 O   0  0  0  0  0  0
  -22.3558  -14.5572   20.6730 O   0  0  0  0  0  0
  -24.6130  -31.8724   23.2153 C   0  0  0  0  0  0
  -25.9027  -32.4846   23.8421 C   0  0  1  0  0  0
  -27.2133  -27.4496   20.1171 C   0  0  0  0  0  0
  -25.5883  -33.8656   24.2355 N   0  0  0  0  0  0
  -23.3895  -30.4977   21.5652 C   0  0  2  0  0  0
  -24.8321  -28.9622   20.1102 C   0  0  0  0  0  0
  -22.7393  -29.4671   22.5163 C   0  0  0  0  0  0
  -18.0344  -28.1288   22.8370 C   0  0  0  0  0  0
  -24.1445  -36.7354   23.2651 C   0  0  0  0  0  0
  -25.9146  -30.8458   21.3532 C   0  0  0  0  0  0
  -25.9861  -29.4797   20.7082 C   0  0  0  0  0  0
  -27.1819  -28.7365   20.6951 C   0  0  0  0  0  0
  -26.0467  -26.9373   19.5061 C   0  0  0  0  0  0
  -24.8605  -27.6969   19.4925 C   0  0  0  0  0  0
  -23.5845  -29.8210   20.1805 C   0  0  0  0  0  0
  -25.4069  -36.3198   24.0378 C   0  0  1  0  0  0
  -20.5881  -28.3536   23.1256 C   0  0  2  0  0  0
  -20.6996  -26.9398   22.5028 C   0  0  0  0  0  0
  -19.5779  -26.5970   21.5096 C   0  0  0  0  0  0
  -18.2009  -26.7898   22.1313 C   0  0  0  0  0  0
  -19.1551  -28.8684   23.2869 C   0  0  0  0  0  0
  -18.9567  -30.1302   23.8912 C   0  0  0  0  0  0
  -17.6583  -30.6397   24.0566 C   0  0  0  0  0  0
  -25.9023  -34.9492   23.5183 C   0  0  0  0  0  0
  -16.5452  -29.8982   23.6251 C   0  0  0  0  0  0
  -16.7331  -28.6387   23.0171 C   0  0  0  0  0  0
  -26.4421  -31.6645   25.0757 C   0  0  0  0  0  0
  -25.3708  -31.3705   26.1522 C   0  0  0  0  0  0
  -27.0196  -30.3105   24.6053 C   0  0  0  0  0  0
  -27.6025  -32.4342   25.7517 C   0  0  0  0  0  0
  -27.5584  -37.1825   24.8468 C   0  0  0  0  0  0
  -21.4136  -29.3116   22.3904 N   0  0  0  0  0  0
  -26.4295  -37.3868   23.9408 N   0  0  0  0  0  0
  -24.6581  -31.0818   22.1039 N   0  0  0  0  0  0
  -23.4190  -28.8095   23.3084 O   0  0  0  0  0  0
  -28.4006  -26.7606   20.1691 O   0  0  0  0  0  0
  -26.5633  -34.8997   22.4734 O   0  0  0  0  0  0
  -23.5364  -32.1472   23.7634 O   0  0  0  0  0  0
  -28.2231  -19.0784   22.7071 C   0  0  0  0  0  0
  -27.9956  -18.6217   21.3829 C   0  0  0  0  0  0
  -26.8042  -20.5821   20.9693 C   0  0  0  0  0  0
  -27.1649  -21.0854   22.2536 C   0  0  0  0  0  0
  -25.9746  -21.3797   19.9753 C   0  0  0  0  0  0
  -31.3876  -17.7529   22.5474 C   0  0  0  0  0  0
  -28.6953  -17.3841   20.7730 C   0  0  0  0  0  0
  -26.9305  -22.5405   22.6844 C   0  0  0  0  0  0
  -28.0335  -23.4873   22.1480 C   0  0  0  0  0  0
  -27.5134  -24.8071   21.5287 C   0  0  0  0  0  0
  -31.5535  -16.5360   21.6100 C   0  0  0  0  0  0
  -29.0802  -16.1866   21.6990 C   0  0  0  0  0  0
  -28.4019  -25.3467   20.3768 C   0  0  0  0  0  0
  -27.8423  -20.3051   23.1360 N   0  0  0  0  0  0
  -27.2453  -19.3696   20.5321 N   0  0  0  0  0  0
  -30.4127  -15.5848   21.3835 N   0  0  0  0  0  0
  -31.4446  -12.3633   19.1855 H   0  0  0  0  0  0
  -30.2572  -11.3211   19.8625 H   0  0  0  0  0  0
  -29.7588  -11.8145   17.4463 H   0  0  0  0  0  0
  -29.6868  -13.5229   17.8007 H   0  0  0  0  0  0
  -27.8033  -11.3359   18.7733 H   0  0  0  0  0  0
  -27.3863  -12.7066   17.7666 H   0  0  0  0  0  0
  -27.6944  -14.2701   19.5986 H   0  0  0  0  0  0
  -28.6799  -11.9467   21.2928 H   0  0  0  0  0  0
  -28.4476  -13.5013   21.9268 H   0  0  0  0  0  0
  -25.2749   -9.5705   22.4723 H   0  0  0  0  0  0
  -23.9992   -7.4635   22.7444 H   0  0  0  0  0  0
  -21.0838   -8.8725   19.8902 H   0  0  0  0  0  0
  -22.3659  -10.9639   19.6137 H   0  0  0  0  0  0
  -21.1922   -7.6108   23.9745 H   0  0  0  0  0  0
  -21.1573   -6.0500   25.9127 H   0  0  0  0  0  0
  -22.0516   -2.7574   23.2893 H   0  0  0  0  0  0
  -22.4112  -11.9897   22.4836 H   0  0  0  0  0  0
  -21.1117  -13.1234   22.2485 H   0  0  0  0  0  0
  -24.6409  -15.8287   20.5020 H   0  0  0  0  0  0
  -26.2716  -15.6461   20.1150 H   0  0  0  0  0  0
  -26.7157  -32.5543   23.1273 H   0  0  0  0  0  0
  -24.9936  -33.9749   25.0465 H   0  0  0  0  0  0
  -22.6799  -31.3220   21.4406 H   0  0  0  0  0  0
  -23.3740  -35.9659   23.3343 H   0  0  0  0  0  0
  -24.3568  -36.8909   22.2070 H   0  0  0  0  0  0
  -23.7151  -37.6553   23.6623 H   0  0  0  0  0  0
  -26.0093  -31.5936   20.5660 H   0  0  0  0  0  0
  -26.8132  -30.9143   21.9583 H   0  0  0  0  0  0
  -28.0747  -29.1329   21.1613 H   0  0  0  0  0  0
  -26.0552  -25.9613   19.0323 H   0  0  0  0  0  0
  -23.9734  -27.2927   19.0258 H   0  0  0  0  0  0
  -23.6590  -30.5921   19.4120 H   0  0  0  0  0  0
  -22.7054  -29.2328   19.9088 H   0  0  0  0  0  0
  -25.1243  -36.2126   25.0893 H   0  0  0  0  0  0
  -20.9937  -28.2760   24.1405 H   0  0  0  0  0  0
  -20.6761  -26.2021   23.3066 H   0  0  0  0  0  0
  -21.6625  -26.8050   22.0182 H   0  0  0  0  0  0
  -19.6661  -27.2080   20.6174 H   0  0  0  0  0  0
  -19.6975  -25.5693   21.1583 H   0  0  0  0  0  0
  -17.4417  -26.6850   21.3574 H   0  0  0  0  0  0
  -18.0054  -26.0062   22.8633 H   0  0  0  0  0  0
  -19.8023  -30.7055   24.2408 H   0  0  0  0  0  0
  -17.5110  -31.5975   24.5407 H   0  0  0  0  0  0
  -15.5461  -30.2948   23.7512 H   0  0  0  0  0  0
  -15.8762  -28.0641   22.6829 H   0  0  0  0  0  0
  -24.5908  -30.7021   25.7876 H   0  0  0  0  0  0
  -24.8861  -32.2804   26.5064 H   0  0  0  0  0  0
  -25.8097  -30.8845   27.0240 H   0  0  0  0  0  0
  -26.2660  -29.6978   24.1080 H   0  0  0  0  0  0
  -27.3949  -29.7294   25.4488 H   0  0  0  0  0  0
  -27.8544  -30.4494   23.9181 H   0  0  0  0  0  0
  -27.2661  -33.3614   26.2185 H   0  0  0  0  0  0
  -28.3777  -32.6911   25.0293 H   0  0  0  0  0  0
  -28.0745  -31.8384   26.5352 H   0  0  0  0  0  0
  -28.2651  -38.0093   24.7523 H   0  0  0  0  0  0
  -28.1040  -36.2611   24.6289 H   0  0  0  0  0  0
  -27.2307  -37.1513   25.8888 H   0  0  0  0  0  0
  -20.9391  -29.9136   21.7309 H   0  0  0  0  0  0
  -26.0227  -38.2965   24.1394 H   0  0  0  0  0  0
  -28.7907  -18.4994   23.4156 H   0  0  0  0  0  0
  -26.6373  -21.8401   19.2436 H   0  0  0  0  0  0
  -25.3969  -22.1660   20.4680 H   0  0  0  0  0  0
  -25.2453  -20.7429   19.4600 H   0  0  0  0  0  0
  -32.3360  -18.2818   22.6221 H   0  0  0  0  0  0
  -30.7174  -18.4944   22.1345 H   0  0  0  0  0  0
  -31.0690  -17.5013   23.5604 H   0  0  0  0  0  0
  -29.5897  -17.7394   20.2800 H   0  0  0  0  0  0
  -28.0836  -17.0067   19.9549 H   0  0  0  0  0  0
  -26.9079  -22.6035   23.7719 H   0  0  0  0  0  0
  -25.9315  -22.8680   22.4024 H   0  0  0  0  0  0
  -28.6268  -22.9413   21.4055 H   0  0  0  0  0  0
  -28.7281  -23.7199   22.9556 H   0  0  0  0  0  0
  -27.4213  -25.5464   22.3238 H   0  0  0  0  0  0
  -26.5016  -24.6632   21.1300 H   0  0  0  0  0  0
  -31.8284  -16.9527   20.6385 H   0  0  0  0  0  0
  -32.4333  -15.9920   21.9522 H   0  0  0  0  0  0
  -28.2556  -15.4904   21.6394 H   0  0  0  0  0  0
  -29.0967  -16.4774   22.7427 H   0  0  0  0  0  0
  -28.1790  -24.8234   19.4473 H   0  0  0  0  0  0
  -29.4480  -25.1311   20.5941 H   0  0  0  0  0  0
  1 25  1  0  0  0
  1 30  2  0  0  0
  1 86  1  0  0  0
  2  3  1  0  0  0
  2 25  1  0  0  0
  2 87  1  0  0  0
  2 88  1  0  0  0
  3  4  1  0  0  0
  3 89  1  0  0  0
  3 90  1  0  0  0
  4  5  1  0  0  0
  4 91  1  0  0  0
  4 92  1  0  0  0
  5  6  1  0  0  0
  5 26  1  0  0  0
  5 93  1  0  0  0
  6 25  1  0  0  0
  6 94  1  0  0  0
  6 95  1  0  0  0
  7  8  2  0  0  0
  7 26  1  0  0  0
  7 29  1  0  0  0
  8  9  1  0  0  0
  8 22  1  0  0  0
  9 10  1  0  0  0
  9 27  2  0  0  0
 10 11  2  0  0  0
 10 15  1  0  0  0
 11 12  1  0  0  0
 11 96  1  0  0  0
 12 13  2  0  0  0
 12 97  1  0  0  0
 13 14  1  0  0  0
 13 31  1  0  0  0
 14 15  2  0  0  0
 14 98  1  0  0  0
 15 99  1  0  0  0
 16 17  2  0  0  0
 16 21  1  0  0  0
 16 31  1  0  0  0
 17 18  1  0  0  0
 17100  1  0  0  0
 18 19  2  0  0  0
 18101  1  0  0  0
 19 20  1  0  0  0
 19 24  1  0  0  0
 20 21  2  0  0  0
 20102  1  0  0  0
 21 23  1  0  0  0
 22 28  1  0  0  0
 22 32  2  0  0  0
 26 27  1  0  0  0
 28103  1  0  0  0
 28104  1  0  0  0
 29105  1  0  0  0
 29106  1  0  0  0
 33 34  1  0  0  0
 33 66  1  0  0  0
 33 70  2  0  0  0
 34 36  1  0  0  0
 34 59  1  0  0  0
 34107  1  0  0  0
 35 44  2  0  0  0
 35 45  1  0  0  0
 35 68  1  0  0  0
 36 56  1  0  0  0
 36108  1  0  0  0
 37 39  1  0  0  0
 37 47  1  0  0  0
 37 66  1  0  0  0
 37109  1  0  0  0
 38 43  2  0  0  0
 38 46  1  0  0  0
 38 47  1  0  0  0
 39 64  1  0  0  0
 39 67  2  0  0  0
 40 52  1  0  0  0
 40 53  2  0  0  0
 40 58  1  0  0  0
 41110  1  0  0  0
 41111  1  0  0  0
 41112  1  0  0  0
 41 48  1  0  0  0
 42 43  1  0  0  0
 42 66  1  0  0  0
 42113  1  0  0  0
 42114  1  0  0  0
 43 44  1  0  0  0
 44115  1  0  0  0
 45 46  2  0  0  0
 45116  1  0  0  0
 46117  1  0  0  0
 47118  1  0  0  0
 47119  1  0  0  0
 48 56  1  0  0  0
 48 65  1  0  0  0
 48120  1  0  0  0
 49 50  1  0  0  0
 49 53  1  0  0  0
 49 64  1  0  0  0
 49121  1  0  0  0
 50 51  1  0  0  0
 50122  1  0  0  0
 50123  1  0  0  0
 51 52  1  0  0  0
 51124  1  0  0  0
 51125  1  0  0  0
 52126  1  0  0  0
 52127  1  0  0  0
 53 54  1  0  0  0
 54 55  2  0  0  0
 54128  1  0  0  0
 55 57  1  0  0  0
 55129  1  0  0  0
 56 69  2  0  0  0
 57 58  2  0  0  0
 57130  1  0  0  0
 58131  1  0  0  0
 59 60  1  0  0  0
 59 61  1  0  0  0
 59 62  1  0  0  0
 60132  1  0  0  0
 60133  1  0  0  0
 60134  1  0  0  0
 61135  1  0  0  0
 61136  1  0  0  0
 61137  1  0  0  0
 62138  1  0  0  0
 62139  1  0  0  0
 62140  1  0  0  0
 63 65  1  0  0  0
 63141  1  0  0  0
 63142  1  0  0  0
 63143  1  0  0  0
 64144  1  0  0  0
 65145  1  0  0  0
 68 83  1  0  0  0
 71 72  2  0  0  0
 71 84  1  0  0  0
 71146  1  0  0  0
 72 77  1  0  0  0
 72 85  1  0  0  0
 73 74  1  0  0  0
 73 75  1  0  0  0
 73 85  2  0  0  0
 74 78  1  0  0  0
 74 84  2  0  0  0
 75147  1  0  0  0
 75148  1  0  0  0
 75149  1  0  0  0
 76 81  1  0  0  0
 76150  1  0  0  0
 76151  1  0  0  0
 76152  1  0  0  0
 77 82  1  0  0  0
 77153  1  0  0  0
 77154  1  0  0  0
 78 79  1  0  0  0
 78155  1  0  0  0
 78156  1  0  0  0
 79 80  1  0  0  0
 79157  1  0  0  0
 79158  1  0  0  0
 80 83  1  0  0  0
 80159  1  0  0  0
 80160  1  0  0  0
 81 86  1  0  0  0
 81161  1  0  0  0
 81162  1  0  0  0
 82 86  1  0  0  0
 82163  1  0  0  0
 82164  1  0  0  0
 83165  1  0  0  0
 83166  1  0  0  0
M  ISO  4   1 100  68 101  83 101  86 100
M  END
> <chiral flag>
0

> <version>
0

> <s_m_source_file>
/data/baiqing/PycharmProjects/Reinvent-master-3.2/result/LINK_invent/BTK/process_docking_weight1_custom_sum_contain_oxygen_bond_distance_aromatic_linkinvent_7_9_3/rearranged_h_0080.sdf

> <i_m_source_file_index>
87

> <r_mmod_Potential_Energy-OPLS-2005>
284.597106933594

> <r_mmod_Stretch_Energy-OPLS-2005>
57.2316741943359

> <r_mmod_Bend_Energy-OPLS-2005>
170.313629150391

> <r_mmod_Torsional_Energy-OPLS-2005>
304.988616943359

> <r_mmod_Improper_Torsional_Energy-OPLS-2005>
4.3724536895752

> <r_mmod_Van_der_Waal_Energy-OPLS-2005>
176.300857543945

> <r_mmod_Electrostatic_Energy-OPLS-2005>
-240.913955688477

> <r_mmod_Solvation_Energy-OPLS-2005>
-206.758285522461

> <b_mmod_Minimization_Converged-OPLS-2005>
0

> <r_mmod_RMS_Derivative-OPLS-2005>
11.7752027511597

$$$$
90
                    3D
 Structure written by MMmdl.
160168  0  0  1  0            999 V2000
  -30.6923  -14.4768   20.5776 C   0  0  0  0  0  0
  -30.4266  -12.3134   19.4199 C   0  0  0  0  0  0
  -29.4952  -12.5146   18.2065 C   0  0  0  0  0  0
  -28.0165  -12.3696   18.6157 C   0  0  0  0  0  0
  -27.6622  -13.2043   19.8763 C   0  0  2  0  0  0
  -28.7045  -12.9810   20.9963 C   0  0  0  0  0  0
  -25.2600  -13.8152   20.5667 C   0  0  0  0  0  0
  -24.1847  -13.0436   20.9166 C   0  0  0  0  0  0
  -24.6389  -11.6905   20.8714 C   0  0  0  0  0  0
  -23.9047  -10.4299   21.0391 C   0  0  0  0  0  0
  -24.3604   -9.4223   21.9172 C   0  0  0  0  0  0
  -23.6292   -8.2253   22.0750 C   0  0  0  0  0  0
  -22.4272   -8.0281   21.3544 C   0  0  0  0  0  0
  -21.9902   -9.0244   20.4643 C   0  0  0  0  0  0
  -22.7217  -10.2130   20.3050 C   0  0  0  0  0  0
  -21.6861   -6.0734   22.5285 C   0  0  0  0  0  0
  -21.4012   -6.5639   23.8218 C   0  0  0  0  0  0
  -21.3664   -5.6790   24.9177 C   0  0  0  0  0  0
  -21.6046   -4.3053   24.7232 C   0  0  0  0  0  0
  -21.8817   -3.8149   23.4350 C   0  0  0  0  0  0
  -21.9198   -4.6965   22.3406 C   0  0  0  0  0  0
  -22.7879  -13.5245   21.1844 C   0  0  0  0  0  0
  -22.1668   -4.2157   21.0980 F   0  0  0  0  0  0
  -21.5637   -3.4531   25.7739 F   0  0  0  0  0  0
  -30.0348  -13.2931   20.4455 N   0  0  0  0  0  0
  -26.3029  -12.9312   20.3363 N   0  0  0  0  0  0
  -25.9318  -11.6473   20.5742 N   0  0  0  0  0  0
  -22.0515  -12.8228   22.0393 N   0  0  0  0  0  0
  -25.4337  -15.1870   20.4073 N   0  0  0  0  0  0
  -31.8178  -14.6763   20.1123 O   0  0  0  0  0  0
  -21.6648   -6.8875   21.4243 O   0  0  0  0  0  0
  -22.3567  -14.5555   20.6698 O   0  0  0  0  0  0
  -24.6171  -31.8686   23.2105 C   0  0  0  0  0  0
  -25.9059  -32.4826   23.8398 C   0  0  1  0  0  0
  -27.2236  -27.4210   20.0899 C   0  0  0  0  0  0
  -25.5910  -33.8624   24.2333 N   0  0  0  0  0  0
  -23.4039  -30.4944   21.5532 C   0  0  2  0  0  0
  -24.8467  -28.9651   20.1112 C   0  0  0  0  0  0
  -22.7424  -29.4664   22.4997 C   0  0  0  0  0  0
  -18.0274  -28.1373   22.8490 C   0  0  0  0  0  0
  -24.1486  -36.7312   23.2638 C   0  0  0  0  0  0
  -25.9363  -30.8303   21.3652 C   0  0  0  0  0  0
  -26.0119  -29.4667   20.7063 C   0  0  0  0  0  0
  -27.2063  -28.7050   20.6878 C   0  0  0  0  0  0
  -26.0401  -26.9469   19.4777 C   0  0  0  0  0  0
  -24.8579  -27.7065   19.4909 C   0  0  0  0  0  0
  -23.6102  -29.8335   20.1658 C   0  0  0  0  0  0
  -25.4109  -36.3113   24.0340 C   0  0  1  0  0  0
  -20.5867  -28.3661   23.1315 C   0  0  2  0  0  0
  -20.6765  -26.9398   22.5410 C   0  0  0  0  0  0
  -19.5743  -26.6380   21.5209 C   0  0  0  0  0  0
  -18.1924  -26.7917   22.1625 C   0  0  0  0  0  0
  -19.1525  -28.8833   23.2899 C   0  0  0  0  0  0
  -18.9452  -30.1441   23.8905 C   0  0  0  0  0  0
  -17.6455  -30.6580   24.0561 C   0  0  0  0  0  0
  -25.9040  -34.9482   23.5135 C   0  0  0  0  0  0
  -16.5346  -29.9082   23.6325 C   0  0  0  0  0  0
  -16.7264  -28.6499   23.0348 C   0  0  0  0  0  0
  -26.4474  -31.6604   25.0730 C   0  0  0  0  0  0
  -25.3727  -31.3708   26.1469 C   0  0  0  0  0  0
  -27.0302  -30.3050   24.6098 C   0  0  0  0  0  0
  -27.6052  -32.4316   25.7489 C   0  0  0  0  0  0
  -27.5583  -37.1811   24.8467 C   0  0  0  0  0  0
  -21.4151  -29.3032   22.3729 N   0  0  0  0  0  0
  -26.4298  -37.3797   23.9410 N   0  0  0  0  0  0
  -24.6710  -31.0780   22.1011 N   0  0  0  0  0  0
  -23.4199  -28.8205   23.3034 O   0  0  0  0  0  0
  -28.3657  -26.6393   20.1176 O   0  0  0  0  0  0
  -26.5601  -34.8932   22.4694 O   0  0  0  0  0  0
  -23.5361  -32.1445   23.7495 O   0  0  0  0  0  0
  -28.4929  -20.0916   20.1029 C   0  0  0  0  0  0
  -29.6487  -19.2704   20.1597 C   0  0  0  0  0  0
  -30.9614  -21.1793   20.0138 C   0  0  0  0  0  0
  -29.7989  -21.9955   19.9052 C   0  0  0  0  0  0
  -32.3628  -21.7555   19.9639 C   0  0  0  0  0  0
  -29.9094  -17.2864   18.6303 C   0  0  0  0  0  0
  -29.8463  -23.5035   19.6022 C   0  0  0  0  0  0
  -29.4032  -24.4269   20.7682 C   0  0  0  0  0  0
  -30.2965  -16.9194   21.1387 C   0  0  0  0  0  0
  -28.1300  -25.2673   20.5047 C   0  0  0  0  0  0
  -29.5343  -17.7368   20.0523 C   0  0  1  0  0  0
  -28.5624  -21.4420   19.9720 N   0  0  0  0  0  0
  -30.8876  -19.8259   20.1312 N   0  0  0  0  0  0
  -29.9651  -15.4775   21.1093 N   0  0  0  0  0  0
  -31.4693  -12.4214   19.1160 H   0  0  0  0  0  0
  -30.3354  -11.2997   19.8126 H   0  0  0  0  0  0
  -29.7362  -11.7982   17.4198 H   0  0  0  0  0  0
  -29.6615  -13.5043   17.7780 H   0  0  0  0  0  0
  -27.8240  -11.3118   18.8015 H   0  0  0  0  0  0
  -27.3690  -12.6549   17.7860 H   0  0  0  0  0  0
  -27.7065  -14.2530   19.5820 H   0  0  0  0  0  0
  -28.6845  -11.9433   21.3332 H   0  0  0  0  0  0
  -28.4626  -13.5755   21.8780 H   0  0  0  0  0  0
  -25.2748   -9.5717   22.4736 H   0  0  0  0  0  0
  -24.0021   -7.4649   22.7459 H   0  0  0  0  0  0
  -21.0845   -8.8740   19.8937 H   0  0  0  0  0  0
  -22.3666  -10.9656   19.6157 H   0  0  0  0  0  0
  -21.1992   -7.6148   23.9720 H   0  0  0  0  0  0
  -21.1490   -6.0522   25.9080 H   0  0  0  0  0  0
  -22.0593   -2.7616   23.2846 H   0  0  0  0  0  0
  -22.4132  -11.9876   22.4755 H   0  0  0  0  0  0
  -21.1133  -13.1260   22.2596 H   0  0  0  0  0  0
  -24.6652  -15.8408   20.5063 H   0  0  0  0  0  0
  -26.2842  -15.6242   20.0766 H   0  0  0  0  0  0
  -26.7134  -32.5529   23.1164 H   0  0  0  0  0  0
  -25.0055  -33.9783   25.0473 H   0  0  0  0  0  0
  -22.6930  -31.3124   21.4189 H   0  0  0  0  0  0
  -23.3751  -35.9643   23.3311 H   0  0  0  0  0  0
  -24.3579  -36.8915   22.2050 H   0  0  0  0  0  0
  -23.7235  -37.6521   23.6641 H   0  0  0  0  0  0
  -26.0538  -31.5990   20.6002 H   0  0  0  0  0  0
  -26.8227  -30.8783   21.9861 H   0  0  0  0  0  0
  -28.1043  -29.0869   21.1532 H   0  0  0  0  0  0
  -26.0115  -25.9909   18.9771 H   0  0  0  0  0  0
  -23.9651  -27.3198   19.0193 H   0  0  0  0  0  0
  -23.7181  -30.6124   19.4097 H   0  0  0  0  0  0
  -22.7320  -29.2568   19.8690 H   0  0  0  0  0  0
  -25.1285  -36.1984   25.0833 H   0  0  0  0  0  0
  -20.9955  -28.3218   24.1438 H   0  0  0  0  0  0
  -20.5671  -26.2268   23.3596 H   0  0  0  0  0  0
  -21.6639  -26.7440   22.1206 H   0  0  0  0  0  0
  -19.6906  -25.6294   21.1233 H   0  0  0  0  0  0
  -19.6684  -27.3195   20.6744 H   0  0  0  0  0  0
  -17.4194  -26.6665   21.4026 H   0  0  0  0  0  0
  -18.0330  -26.0055   22.9016 H   0  0  0  0  0  0
  -19.7930  -30.7252   24.2285 H   0  0  0  0  0  0
  -17.5011  -31.6262   24.5156 H   0  0  0  0  0  0
  -15.5349  -30.2988   23.7635 H   0  0  0  0  0  0
  -15.8667  -28.0819   22.7060 H   0  0  0  0  0  0
  -24.5894  -30.7069   25.7792 H   0  0  0  0  0  0
  -24.8921  -32.2862   26.4934 H   0  0  0  0  0  0
  -25.8067  -30.8854   27.0220 H   0  0  0  0  0  0
  -26.2846  -29.6822   24.1139 H   0  0  0  0  0  0
  -27.4068  -29.7277   25.4551 H   0  0  0  0  0  0
  -27.8684  -30.4385   23.9255 H   0  0  0  0  0  0
  -27.2680  -33.3604   26.2108 H   0  0  0  0  0  0
  -28.3839  -32.6899   25.0297 H   0  0  0  0  0  0
  -28.0748  -31.8411   26.5370 H   0  0  0  0  0  0
  -28.2611  -38.0100   24.7519 H   0  0  0  0  0  0
  -28.1072  -36.2634   24.6290 H   0  0  0  0  0  0
  -27.2301  -37.1460   25.8871 H   0  0  0  0  0  0
  -20.9314  -29.8764   21.6959 H   0  0  0  0  0  0
  -26.0193  -38.2881   24.1397 H   0  0  0  0  0  0
  -27.5018  -19.6618   20.0887 H   0  0  0  0  0  0
  -32.4503  -22.6095   20.6350 H   0  0  0  0  0  0
  -32.6006  -22.0825   18.9519 H   0  0  0  0  0  0
  -33.1075  -21.0192   20.2660 H   0  0  0  0  0  0
  -29.3539  -17.8530   17.8830 H   0  0  0  0  0  0
  -29.6927  -16.2316   18.4651 H   0  0  0  0  0  0
  -30.9709  -17.4429   18.4402 H   0  0  0  0  0  0
  -29.2356  -23.6870   18.7173 H   0  0  0  0  0  0
  -30.8512  -23.7878   19.2922 H   0  0  0  0  0  0
  -30.2211  -25.0853   21.0588 H   0  0  0  0  0  0
  -29.2188  -23.8027   21.6426 H   0  0  0  0  0  0
  -30.0322  -17.2957   22.1278 H   0  0  0  0  0  0
  -31.3727  -17.0700   21.0367 H   0  0  0  0  0  0
  -27.5534  -25.2906   21.4315 H   0  0  0  0  0  0
  -27.5103  -24.7367   19.7832 H   0  0  0  0  0  0
  -28.4751  -17.5109   20.1862 H   0  0  0  0  0  0
  -29.0521  -15.2187   21.4530 H   0  0  0  0  0  0
  1 25  1  0  0  0
  1 30  2  0  0  0
  1 84  1  0  0  0
  2  3  1  0  0  0
  2 25  1  0  0  0
  2 85  1  0  0  0
  2 86  1  0  0  0
  3  4  1  0  0  0
  3 87  1  0  0  0
  3 88  1  0  0  0
  4  5  1  0  0  0
  4 89  1  0  0  0
  4 90  1  0  0  0
  5  6  1  0  0  0
  5 26  1  0  0  0
  5 91  1  0  0  0
  6 25  1  0  0  0
  6 92  1  0  0  0
  6 93  1  0  0  0
  7  8  2  0  0  0
  7 26  1  0  0  0
  7 29  1  0  0  0
  8  9  1  0  0  0
  8 22  1  0  0  0
  9 10  1  0  0  0
  9 27  2  0  0  0
 10 11  2  0  0  0
 10 15  1  0  0  0
 11 12  1  0  0  0
 11 94  1  0  0  0
 12 13  2  0  0  0
 12 95  1  0  0  0
 13 14  1  0  0  0
 13 31  1  0  0  0
 14 15  2  0  0  0
 14 96  1  0  0  0
 15 97  1  0  0  0
 16 17  2  0  0  0
 16 21  1  0  0  0
 16 31  1  0  0  0
 17 18  1  0  0  0
 17 98  1  0  0  0
 18 19  2  0  0  0
 18 99  1  0  0  0
 19 20  1  0  0  0
 19 24  1  0  0  0
 20 21  2  0  0  0
 20100  1  0  0  0
 21 23  1  0  0  0
 22 28  1  0  0  0
 22 32  2  0  0  0
 26 27  1  0  0  0
 28101  1  0  0  0
 28102  1  0  0  0
 29103  1  0  0  0
 29104  1  0  0  0
 33 34  1  0  0  0
 33 66  1  0  0  0
 33 70  2  0  0  0
 34 36  1  0  0  0
 34 59  1  0  0  0
 34105  1  0  0  0
 35 44  2  0  0  0
 35 45  1  0  0  0
 35 68  1  0  0  0
 36 56  1  0  0  0
 36106  1  0  0  0
 37 39  1  0  0  0
 37 47  1  0  0  0
 37 66  1  0  0  0
 37107  1  0  0  0
 38 43  2  0  0  0
 38 46  1  0  0  0
 38 47  1  0  0  0
 39 64  1  0  0  0
 39 67  2  0  0  0
 40 52  1  0  0  0
 40 53  2  0  0  0
 40 58  1  0  0  0
 41108  1  0  0  0
 41109  1  0  0  0
 41110  1  0  0  0
 41 48  1  0  0  0
 42 43  1  0  0  0
 42 66  1  0  0  0
 42111  1  0  0  0
 42112  1  0  0  0
 43 44  1  0  0  0
 44113  1  0  0  0
 45 46  2  0  0  0
 45114  1  0  0  0
 46115  1  0  0  0
 47116  1  0  0  0
 47117  1  0  0  0
 48 56  1  0  0  0
 48 65  1  0  0  0
 48118  1  0  0  0
 49 50  1  0  0  0
 49 53  1  0  0  0
 49 64  1  0  0  0
 49119  1  0  0  0
 50 51  1  0  0  0
 50120  1  0  0  0
 50121  1  0  0  0
 51 52  1  0  0  0
 51122  1  0  0  0
 51123  1  0  0  0
 52124  1  0  0  0
 52125  1  0  0  0
 53 54  1  0  0  0
 54 55  2  0  0  0
 54126  1  0  0  0
 55 57  1  0  0  0
 55127  1  0  0  0
 56 69  2  0  0  0
 57 58  2  0  0  0
 57128  1  0  0  0
 58129  1  0  0  0
 59 60  1  0  0  0
 59 61  1  0  0  0
 59 62  1  0  0  0
 60130  1  0  0  0
 60131  1  0  0  0
 60132  1  0  0  0
 61133  1  0  0  0
 61134  1  0  0  0
 61135  1  0  0  0
 62136  1  0  0  0
 62137  1  0  0  0
 62138  1  0  0  0
 63 65  1  0  0  0
 63139  1  0  0  0
 63140  1  0  0  0
 63141  1  0  0  0
 64142  1  0  0  0
 65143  1  0  0  0
 68 80  1  0  0  0
 71 72  2  0  0  0
 71 82  1  0  0  0
 71144  1  0  0  0
 72 81  1  0  0  0
 72 83  1  0  0  0
 73 74  1  0  0  0
 73 75  1  0  0  0
 73 83  2  0  0  0
 74 77  1  0  0  0
 74 82  2  0  0  0
 75145  1  0  0  0
 75146  1  0  0  0
 75147  1  0  0  0
 76148  1  0  0  0
 76149  1  0  0  0
 76150  1  0  0  0
 76 81  1  0  0  0
 77 78  1  0  0  0
 77151  1  0  0  0
 77152  1  0  0  0
 78 80  1  0  0  0
 78153  1  0  0  0
 78154  1  0  0  0
 79 81  1  0  0  0
 79 84  1  0  0  0
 79155  1  0  0  0
 79156  1  0  0  0
 80157  1  0  0  0
 80158  1  0  0  0
 81159  1  0  0  0
 84160  1  0  0  0
M  ISO  4   1 100  68 101  80 101  84 100
M  END
> <chiral flag>
0

> <version>
0

> <s_m_source_file>
/data/baiqing/PycharmProjects/Reinvent-master-3.2/result/LINK_invent/BTK/process_docking_weight1_custom_sum_contain_oxygen_bond_distance_aromatic_linkinvent_7_9_3/rearranged_h_0080.sdf

> <i_m_source_file_index>
88

> <r_mmod_Potential_Energy-OPLS-2005>
-55.2536506652832

> <r_mmod_Stretch_Energy-OPLS-2005>
42.9332542419434

> <r_mmod_Bend_Energy-OPLS-2005>
97.3668594360352

> <r_mmod_Torsional_Energy-OPLS-2005>
215.832962036133

> <r_mmod_Improper_Torsional_Energy-OPLS-2005>
4.68249988555908

> <r_mmod_Van_der_Waal_Energy-OPLS-2005>
156.325393676758

> <r_mmod_Electrostatic_Energy-OPLS-2005>
-363.590698242188

> <r_mmod_Solvation_Energy-OPLS-2005>
-223.583190917969

> <b_mmod_Minimization_Converged-OPLS-2005>
0

> <r_mmod_RMS_Derivative-OPLS-2005>
1.55681371688843

$$$$
91
                    3D
 Structure written by MMmdl.
168176  0  0  1  0            999 V2000
  -30.6059  -14.7320   20.4827 C   0  0  0  0  0  0
  -30.4331  -12.4513   19.4689 C   0  0  0  0  0  0
  -29.5085  -12.5115   18.2327 C   0  0  0  0  0  0
  -28.0337  -12.3384   18.6468 C   0  0  0  0  0  0
  -27.6422  -13.2303   19.8548 C   0  0  2  0  0  0
  -28.6870  -13.1459   20.9886 C   0  0  0  0  0  0
  -25.2475  -13.8173   20.5692 C   0  0  0  0  0  0
  -24.1787  -13.0418   20.9227 C   0  0  0  0  0  0
  -24.6395  -11.6900   20.8772 C   0  0  0  0  0  0
  -23.9079  -10.4276   21.0420 C   0  0  0  0  0  0
  -24.3629   -9.4189   21.9201 C   0  0  0  0  0  0
  -23.6298   -8.2225   22.0763 C   0  0  0  0  0  0
  -22.4279   -8.0273   21.3549 C   0  0  0  0  0  0
  -21.9927   -9.0251   20.4648 C   0  0  0  0  0  0
  -22.7252  -10.2128   20.3061 C   0  0  0  0  0  0
  -21.6846   -6.0741   22.5282 C   0  0  0  0  0  0
  -21.4010   -6.5644   23.8216 C   0  0  0  0  0  0
  -21.3662   -5.6795   24.9180 C   0  0  0  0  0  0
  -21.6039   -4.3057   24.7228 C   0  0  0  0  0  0
  -21.8817   -3.8151   23.4346 C   0  0  0  0  0  0
  -21.9186   -4.6969   22.3402 C   0  0  0  0  0  0
  -22.7804  -13.5188   21.1884 C   0  0  0  0  0  0
  -22.1648   -4.2152   21.0978 F   0  0  0  0  0  0
  -21.5637   -3.4539   25.7743 F   0  0  0  0  0  0
  -29.9876  -13.5047   20.4091 N   0  0  0  0  0  0
  -26.2926  -12.9398   20.3298 N   0  0  0  0  0  0
  -25.9326  -11.6538   20.5779 N   0  0  0  0  0  0
  -22.0461  -12.8176   22.0444 N   0  0  0  0  0  0
  -25.4087  -15.1892   20.4030 N   0  0  0  0  0  0
  -31.7924  -14.8485   20.1626 O   0  0  0  0  0  0
  -21.6630   -6.8882   21.4241 O   0  0  0  0  0  0
  -22.3479  -14.5497   20.6735 O   0  0  0  0  0  0
  -24.6293  -31.8551   23.1969 C   0  0  0  0  0  0
  -25.9120  -32.4748   23.8324 C   0  0  1  0  0  0
  -27.2282  -27.2738   20.1510 C   0  0  0  0  0  0
  -25.5920  -33.8553   24.2245 N   0  0  0  0  0  0
  -23.4265  -30.4726   21.5402 C   0  0  2  0  0  0
  -24.8772  -28.9116   20.1178 C   0  0  0  0  0  0
  -22.7493  -29.4580   22.4928 C   0  0  0  0  0  0
  -18.0286  -28.1380   22.8486 C   0  0  0  0  0  0
  -24.1492  -36.7283   23.2641 C   0  0  0  0  0  0
  -25.9682  -30.7746   21.3721 C   0  0  0  0  0  0
  -26.0454  -29.3927   20.7244 C   0  0  0  0  0  0
  -27.2267  -28.5879   20.7246 C   0  0  0  0  0  0
  -26.0419  -26.8453   19.5249 C   0  0  0  0  0  0
  -24.8790  -27.6448   19.5079 C   0  0  0  0  0  0
  -23.6464  -29.7985   20.1589 C   0  0  0  0  0  0
  -25.4117  -36.3061   24.0323 C   0  0  1  0  0  0
  -20.5890  -28.3684   23.1281 C   0  0  2  0  0  0
  -20.6772  -26.9403   22.5413 C   0  0  0  0  0  0
  -19.5748  -26.6381   21.5212 C   0  0  0  0  0  0
  -18.1930  -26.7924   22.1622 C   0  0  0  0  0  0
  -19.1542  -28.8851   23.2877 C   0  0  0  0  0  0
  -18.9462  -30.1456   23.8890 C   0  0  0  0  0  0
  -17.6462  -30.6580   24.0561 C   0  0  0  0  0  0
  -25.9058  -34.9433   23.5088 C   0  0  0  0  0  0
  -16.5353  -29.9079   23.6332 C   0  0  0  0  0  0
  -16.7276  -28.6498   23.0350 C   0  0  0  0  0  0
  -26.4502  -31.6560   25.0698 C   0  0  0  0  0  0
  -25.3723  -31.3700   26.1410 C   0  0  0  0  0  0
  -27.0346  -30.2981   24.6152 C   0  0  0  0  0  0
  -27.6052  -32.4307   25.7475 C   0  0  0  0  0  0
  -27.5578  -37.1789   24.8465 C   0  0  0  0  0  0
  -21.4202  -29.3030   22.3672 N   0  0  0  0  0  0
  -26.4290  -37.3758   23.9408 N   0  0  0  0  0  0
  -24.6934  -31.0523   22.0936 N   0  0  0  0  0  0
  -23.4193  -28.8141   23.3043 O   0  0  0  0  0  0
  -28.3491  -26.4181   20.1269 O   0  0  0  0  0  0
  -26.5638  -34.8913   22.4663 O   0  0  0  0  0  0
  -23.5443  -32.1381   23.7255 O   0  0  0  0  0  0
  -27.0329  -22.4698   22.2998 C   0  0  0  0  0  0
  -27.1471  -21.2933   23.0669 C   0  0  0  0  0  0
  -28.0067  -22.4146   21.3325 C   0  0  0  0  0  0
  -26.3808  -20.8990   24.2957 C   0  0  0  0  0  0
  -31.0142  -25.3185   20.2676 C   0  0  0  0  0  0
  -27.7204  -18.0156   21.0470 C   0  0  0  0  0  0
  -27.6828  -25.4603   22.2765 C   0  0  0  0  0  0
  -28.2888  -23.6545   20.3862 C   0  0  0  0  0  0
  -29.9800  -25.3073   21.4103 C   0  0  0  0  0  0
  -29.4106  -20.0909   20.6346 C   0  0  0  0  0  0
  -30.1957  -17.3366   20.7849 C   0  0  0  0  0  0
  -29.0743  -18.4741   20.4735 C   0  0  1  0  0  0
  -28.4909  -25.1859   20.9857 C   0  0  1  0  0  0
  -28.0482  -20.4876   22.5634 N   0  0  0  0  0  0
  -28.4853  -21.0339   21.4008 N   0  0  0  0  0  0
  -29.8231  -15.8492   20.7259 N   0  0  0  0  0  0
  -31.4744  -12.5798   19.1694 H   0  0  0  0  0  0
  -30.3781  -11.4707   19.9427 H   0  0  0  0  0  0
  -29.7896  -11.7416   17.5125 H   0  0  0  0  0  0
  -29.6368  -13.4666   17.7222 H   0  0  0  0  0  0
  -27.8843  -11.2889   18.9023 H   0  0  0  0  0  0
  -27.3779  -12.5412   17.7998 H   0  0  0  0  0  0
  -27.6411  -14.2556   19.4845 H   0  0  0  0  0  0
  -28.7214  -12.1403   21.4103 H   0  0  0  0  0  0
  -28.4244  -13.8137   21.8106 H   0  0  0  0  0  0
  -25.2782   -9.5656   22.4768 H   0  0  0  0  0  0
  -24.0006   -7.4612   22.7483 H   0  0  0  0  0  0
  -21.0861   -8.8769   19.8949 H   0  0  0  0  0  0
  -22.3726  -10.9671   19.6160 H   0  0  0  0  0  0
  -21.1998   -7.6154   23.9722 H   0  0  0  0  0  0
  -21.1489   -6.0529   25.9084 H   0  0  0  0  0  0
  -22.0599   -2.7613   23.2849 H   0  0  0  0  0  0
  -22.4076  -11.9827   22.4813 H   0  0  0  0  0  0
  -21.1076  -13.1189   22.2657 H   0  0  0  0  0  0
  -24.6341  -15.8355   20.5066 H   0  0  0  0  0  0
  -26.2363  -15.6260   20.0214 H   0  0  0  0  0  0
  -26.7185  -32.5415   23.1071 H   0  0  0  0  0  0
  -25.0044  -33.9700   25.0372 H   0  0  0  0  0  0
  -22.7216  -31.2924   21.3894 H   0  0  0  0  0  0
  -23.3751  -35.9617   23.3305 H   0  0  0  0  0  0
  -24.3586  -36.8914   22.2057 H   0  0  0  0  0  0
  -23.7260  -37.6487   23.6677 H   0  0  0  0  0  0
  -26.0965  -31.5303   20.5958 H   0  0  0  0  0  0
  -26.8493  -30.8322   21.9998 H   0  0  0  0  0  0
  -28.1285  -28.9551   21.1948 H   0  0  0  0  0  0
  -26.0160  -25.8713   19.0571 H   0  0  0  0  0  0
  -23.9845  -27.2692   19.0319 H   0  0  0  0  0  0
  -23.7685  -30.5716   19.3990 H   0  0  0  0  0  0
  -22.7663  -29.2278   19.8578 H   0  0  0  0  0  0
  -25.1300  -36.1902   25.0814 H   0  0  0  0  0  0
  -20.9976  -28.3256   24.1403 H   0  0  0  0  0  0
  -20.5674  -26.2287   23.3612 H   0  0  0  0  0  0
  -21.6641  -26.7424   22.1208 H   0  0  0  0  0  0
  -19.6915  -25.6295   21.1238 H   0  0  0  0  0  0
  -19.6694  -27.3195   20.6748 H   0  0  0  0  0  0
  -17.4200  -26.6676   21.4024 H   0  0  0  0  0  0
  -18.0325  -26.0061   22.9014 H   0  0  0  0  0  0
  -19.7942  -30.7270   24.2253 H   0  0  0  0  0  0
  -17.5018  -31.6260   24.5160 H   0  0  0  0  0  0
  -15.5357  -30.2974   23.7661 H   0  0  0  0  0  0
  -15.8676  -28.0817   22.7063 H   0  0  0  0  0  0
  -24.5908  -30.7041   25.7734 H   0  0  0  0  0  0
  -24.8895  -32.2860   26.4822 H   0  0  0  0  0  0
  -25.8032  -30.8887   27.0196 H   0  0  0  0  0  0
  -26.2916  -29.6723   24.1187 H   0  0  0  0  0  0
  -27.4065  -29.7244   25.4653 H   0  0  0  0  0  0
  -27.8777  -30.4277   23.9360 H   0  0  0  0  0  0
  -27.2660  -33.3619   26.2031 H   0  0  0  0  0  0
  -28.3870  -32.6851   25.0302 H   0  0  0  0  0  0
  -28.0708  -31.8441   26.5406 H   0  0  0  0  0  0
  -28.2579  -38.0098   24.7506 H   0  0  0  0  0  0
  -28.1084  -36.2624   24.6287 H   0  0  0  0  0  0
  -27.2295  -37.1437   25.8867 H   0  0  0  0  0  0
  -20.9383  -29.8739   21.6870 H   0  0  0  0  0  0
  -26.0165  -38.2828   24.1410 H   0  0  0  0  0  0
  -26.3436  -23.2750   22.4939 H   0  0  0  0  0  0
  -26.1182  -21.7725   24.8927 H   0  0  0  0  0  0
  -26.9583  -20.2290   24.9337 H   0  0  0  0  0  0
  -25.4537  -20.3901   24.0316 H   0  0  0  0  0  0
  -32.0146  -25.5003   20.6615 H   0  0  0  0  0  0
  -30.8071  -26.1062   19.5422 H   0  0  0  0  0  0
  -31.0585  -24.3726   19.7318 H   0  0  0  0  0  0
  -27.7658  -17.8920   22.1294 H   0  0  0  0  0  0
  -27.4187  -17.0587   20.6266 H   0  0  0  0  0  0
  -26.9250  -18.7245   20.8156 H   0  0  0  0  0  0
  -27.9511  -24.7769   23.0814 H   0  0  0  0  0  0
  -26.6081  -25.4001   22.1026 H   0  0  0  0  0  0
  -27.8807  -26.4585   22.6671 H   0  0  0  0  0  0
  -27.4285  -23.7159   19.7204 H   0  0  0  0  0  0
  -29.1048  -23.3959   19.7154 H   0  0  0  0  0  0
  -30.1185  -26.2287   21.9778 H   0  0  0  0  0  0
  -30.2284  -24.5008   22.1029 H   0  0  0  0  0  0
  -29.5274  -20.5150   19.6361 H   0  0  0  0  0  0
  -30.3965  -20.1893   21.0903 H   0  0  0  0  0  0
  -31.0469  -17.5003   20.1217 H   0  0  0  0  0  0
  -30.5797  -17.5120   21.7906 H   0  0  0  0  0  0
  -28.9215  -18.3812   19.3978 H   0  0  0  0  0  0
  -28.8559  -15.6436   20.9232 H   0  0  0  0  0  0
  1 25  1  0  0  0
  1 30  2  0  0  0
  1 86  1  0  0  0
  2  3  1  0  0  0
  2 25  1  0  0  0
  2 87  1  0  0  0
  2 88  1  0  0  0
  3  4  1  0  0  0
  3 89  1  0  0  0
  3 90  1  0  0  0
  4  5  1  0  0  0
  4 91  1  0  0  0
  4 92  1  0  0  0
  5  6  1  0  0  0
  5 26  1  0  0  0
  5 93  1  0  0  0
  6 25  1  0  0  0
  6 94  1  0  0  0
  6 95  1  0  0  0
  7  8  2  0  0  0
  7 26  1  0  0  0
  7 29  1  0  0  0
  8  9  1  0  0  0
  8 22  1  0  0  0
  9 10  1  0  0  0
  9 27  2  0  0  0
 10 11  2  0  0  0
 10 15  1  0  0  0
 11 12  1  0  0  0
 11 96  1  0  0  0
 12 13  2  0  0  0
 12 97  1  0  0  0
 13 14  1  0  0  0
 13 31  1  0  0  0
 14 15  2  0  0  0
 14 98  1  0  0  0
 15 99  1  0  0  0
 16 17  2  0  0  0
 16 21  1  0  0  0
 16 31  1  0  0  0
 17 18  1  0  0  0
 17100  1  0  0  0
 18 19  2  0  0  0
 18101  1  0  0  0
 19 20  1  0  0  0
 19 24  1  0  0  0
 20 21  2  0  0  0
 20102  1  0  0  0
 21 23  1  0  0  0
 22 28  1  0  0  0
 22 32  2  0  0  0
 26 27  1  0  0  0
 28103  1  0  0  0
 28104  1  0  0  0
 29105  1  0  0  0
 29106  1  0  0  0
 33 34  1  0  0  0
 33 66  1  0  0  0
 33 70  2  0  0  0
 34 36  1  0  0  0
 34 59  1  0  0  0
 34107  1  0  0  0
 35 44  2  0  0  0
 35 45  1  0  0  0
 35 68  1  0  0  0
 36 56  1  0  0  0
 36108  1  0  0  0
 37 39  1  0  0  0
 37 47  1  0  0  0
 37 66  1  0  0  0
 37109  1  0  0  0
 38 43  2  0  0  0
 38 46  1  0  0  0
 38 47  1  0  0  0
 39 64  1  0  0  0
 39 67  2  0  0  0
 40 52  1  0  0  0
 40 53  2  0  0  0
 40 58  1  0  0  0
 41110  1  0  0  0
 41111  1  0  0  0
 41112  1  0  0  0
 41 48  1  0  0  0
 42 43  1  0  0  0
 42 66  1  0  0  0
 42113  1  0  0  0
 42114  1  0  0  0
 43 44  1  0  0  0
 44115  1  0  0  0
 45 46  2  0  0  0
 45116  1  0  0  0
 46117  1  0  0  0
 47118  1  0  0  0
 47119  1  0  0  0
 48 56  1  0  0  0
 48 65  1  0  0  0
 48120  1  0  0  0
 49 50  1  0  0  0
 49 53  1  0  0  0
 49 64  1  0  0  0
 49121  1  0  0  0
 50 51  1  0  0  0
 50122  1  0  0  0
 50123  1  0  0  0
 51 52  1  0  0  0
 51124  1  0  0  0
 51125  1  0  0  0
 52126  1  0  0  0
 52127  1  0  0  0
 53 54  1  0  0  0
 54 55  2  0  0  0
 54128  1  0  0  0
 55 57  1  0  0  0
 55129  1  0  0  0
 56 69  2  0  0  0
 57 58  2  0  0  0
 57130  1  0  0  0
 58131  1  0  0  0
 59 60  1  0  0  0
 59 61  1  0  0  0
 59 62  1  0  0  0
 60132  1  0  0  0
 60133  1  0  0  0
 60134  1  0  0  0
 61135  1  0  0  0
 61136  1  0  0  0
 61137  1  0  0  0
 62138  1  0  0  0
 62139  1  0  0  0
 62140  1  0  0  0
 63 65  1  0  0  0
 63141  1  0  0  0
 63142  1  0  0  0
 63143  1  0  0  0
 64144  1  0  0  0
 65145  1  0  0  0
 68 83  1  0  0  0
 71 72  1  0  0  0
 71 73  2  0  0  0
 71146  1  0  0  0
 72 74  1  0  0  0
 72 84  2  0  0  0
 73 78  1  0  0  0
 73 85  1  0  0  0
 74147  1  0  0  0
 74148  1  0  0  0
 74149  1  0  0  0
 75 79  1  0  0  0
 75150  1  0  0  0
 75151  1  0  0  0
 75152  1  0  0  0
 76153  1  0  0  0
 76154  1  0  0  0
 76155  1  0  0  0
 76 82  1  0  0  0
 77156  1  0  0  0
 77157  1  0  0  0
 77158  1  0  0  0
 77 83  1  0  0  0
 78 83  1  0  0  0
 78159  1  0  0  0
 78160  1  0  0  0
 79 83  1  0  0  0
 79161  1  0  0  0
 79162  1  0  0  0
 80 82  1  0  0  0
 80 85  1  0  0  0
 80163  1  0  0  0
 80164  1  0  0  0
 81 82  1  0  0  0
 81 86  1  0  0  0
 81165  1  0  0  0
 81166  1  0  0  0
 82167  1  0  0  0
 84 85  1  0  0  0
 86168  1  0  0  0
M  ISO  4   1 100  68 101  83 101  86 100
M  END
> <chiral flag>
0

> <version>
0

> <s_m_source_file>
/data/baiqing/PycharmProjects/Reinvent-master-3.2/result/LINK_invent/BTK/process_docking_weight1_custom_sum_contain_oxygen_bond_distance_aromatic_linkinvent_7_9_3/rearranged_h_0080.sdf

> <i_m_source_file_index>
89

> <r_mmod_Potential_Energy-OPLS-2005>
211.749206542969

> <r_mmod_Stretch_Energy-OPLS-2005>
152.66796875

> <r_mmod_Bend_Energy-OPLS-2005>
226.637786865234

> <r_mmod_Torsional_Energy-OPLS-2005>
260.012603759766

> <r_mmod_Improper_Torsional_Energy-OPLS-2005>
5.08251619338989

> <r_mmod_Van_der_Waal_Energy-OPLS-2005>
121.61971282959

> <r_mmod_Electrostatic_Energy-OPLS-2005>
-426.619537353516

> <r_mmod_Solvation_Energy-OPLS-2005>
-202.957092285156

> <b_mmod_Minimization_Converged-OPLS-2005>
0

> <r_mmod_RMS_Derivative-OPLS-2005>
1.5143061876297

$$$$
92
                    3D
 Structure written by MMmdl.
159166  0  0  1  0            999 V2000
  -30.6522  -14.6919   20.5484 C   0  0  0  0  0  0
  -30.4401  -12.4486   19.4534 C   0  0  0  0  0  0
  -29.5073  -12.5253   18.2232 C   0  0  0  0  0  0
  -28.0296  -12.3577   18.6325 C   0  0  0  0  0  0
  -27.6518  -13.2231   19.8636 C   0  0  2  0  0  0
  -28.6991  -13.0558   20.9810 C   0  0  0  0  0  0
  -25.2560  -13.8187   20.5700 C   0  0  0  0  0  0
  -24.1825  -13.0436   20.9202 C   0  0  0  0  0  0
  -24.6412  -11.6913   20.8746 C   0  0  0  0  0  0
  -23.9085  -10.4290   21.0416 C   0  0  0  0  0  0
  -24.3628   -9.4200   21.9195 C   0  0  0  0  0  0
  -23.6297   -8.2240   22.0758 C   0  0  0  0  0  0
  -22.4279   -8.0288   21.3545 C   0  0  0  0  0  0
  -21.9922   -9.0269   20.4649 C   0  0  0  0  0  0
  -22.7261  -10.2143   20.3063 C   0  0  0  0  0  0
  -21.6850   -6.0747   22.5283 C   0  0  0  0  0  0
  -21.4013   -6.5649   23.8218 C   0  0  0  0  0  0
  -21.3655   -5.6794   24.9175 C   0  0  0  0  0  0
  -21.6040   -4.3061   24.7221 C   0  0  0  0  0  0
  -21.8819   -3.8158   23.4342 C   0  0  0  0  0  0
  -21.9189   -4.6975   22.3398 C   0  0  0  0  0  0
  -22.7849  -13.5228   21.1854 C   0  0  0  0  0  0
  -22.1660   -4.2158   21.0977 F   0  0  0  0  0  0
  -21.5621   -3.4544   25.7736 F   0  0  0  0  0  0
  -29.9973  -13.4779   20.4279 N   0  0  0  0  0  0
  -26.2989  -12.9370   20.3336 N   0  0  0  0  0  0
  -25.9341  -11.6521   20.5763 N   0  0  0  0  0  0
  -22.0485  -12.8219   22.0408 N   0  0  0  0  0  0
  -25.4260  -15.1907   20.4132 N   0  0  0  0  0  0
  -31.8026  -14.7881   20.1044 O   0  0  0  0  0  0
  -21.6637   -6.8893   21.4245 O   0  0  0  0  0  0
  -22.3524  -14.5524   20.6695 O   0  0  0  0  0  0
  -24.6260  -31.8567   23.1990 C   0  0  0  0  0  0
  -25.9104  -32.4758   23.8316 C   0  0  1  0  0  0
  -27.2322  -27.3146   20.1181 C   0  0  0  0  0  0
  -25.5922  -33.8559   24.2252 N   0  0  0  0  0  0
  -23.4213  -30.4765   21.5415 C   0  0  2  0  0  0
  -24.8678  -28.9195   20.1201 C   0  0  0  0  0  0
  -22.7471  -29.4607   22.4937 C   0  0  0  0  0  0
  -18.0288  -28.1381   22.8472 C   0  0  0  0  0  0
  -24.1488  -36.7301   23.2637 C   0  0  0  0  0  0
  -25.9592  -30.7877   21.3659 C   0  0  0  0  0  0
  -26.0372  -29.4095   20.7167 C   0  0  0  0  0  0
  -27.2251  -28.6198   20.6996 C   0  0  0  0  0  0
  -26.0414  -26.8672   19.5111 C   0  0  0  0  0  0
  -24.8702  -27.6529   19.5118 C   0  0  0  0  0  0
  -23.6364  -29.8018   20.1605 C   0  0  0  0  0  0
  -25.4111  -36.3069   24.0314 C   0  0  1  0  0  0
  -20.5884  -28.3690   23.1283 C   0  0  2  0  0  0
  -20.6775  -26.9411   22.5413 C   0  0  0  0  0  0
  -19.5754  -26.6383   21.5208 C   0  0  0  0  0  0
  -18.1933  -26.7925   22.1613 C   0  0  0  0  0  0
  -19.1540  -28.8851   23.2873 C   0  0  0  0  0  0
  -18.9464  -30.1453   23.8882 C   0  0  0  0  0  0
  -17.6466  -30.6579   24.0566 C   0  0  0  0  0  0
  -25.9044  -34.9439   23.5085 C   0  0  0  0  0  0
  -16.5358  -29.9081   23.6322 C   0  0  0  0  0  0
  -16.7279  -28.6511   23.0320 C   0  0  0  0  0  0
  -26.4497  -31.6566   25.0687 C   0  0  0  0  0  0
  -25.3742  -31.3706   26.1428 C   0  0  0  0  0  0
  -27.0337  -30.2989   24.6120 C   0  0  0  0  0  0
  -27.6041  -32.4310   25.7471 C   0  0  0  0  0  0
  -27.5574  -37.1804   24.8461 C   0  0  0  0  0  0
  -21.4183  -29.3038   22.3674 N   0  0  0  0  0  0
  -26.4288  -37.3763   23.9401 N   0  0  0  0  0  0
  -24.6882  -31.0564   22.0942 N   0  0  0  0  0  0
  -23.4182  -28.8159   23.3036 O   0  0  0  0  0  0
  -28.3651  -26.4910   20.0878 O   0  0  0  0  0  0
  -26.5614  -34.8914   22.4654 O   0  0  0  0  0  0
  -23.5421  -32.1382   23.7312 O   0  0  0  0  0  0
  -29.2774  -21.2478   19.9278 C   0  0  0  0  0  0
  -29.3687  -22.5500   20.4074 C   0  0  0  0  0  0
  -28.5000  -20.9291   18.6615 C   0  0  0  0  0  0
  -30.1890  -22.8615   21.6513 C   0  0  0  0  0  0
  -29.2140  -15.9083   22.1699 C   0  0  0  0  0  0
  -30.0021  -19.9697   20.5330 C   0  0  0  0  0  0
  -28.7521  -23.8595   19.7437 C   0  0  0  0  0  0
  -29.4276  -18.4761   20.3710 C   0  0  0  0  0  0
  -30.4661  -17.2628   20.5881 C   0  0  0  0  0  0
  -28.2792  -25.1122   20.6312 C   0  0  0  0  0  0
  -29.9650  -15.8573   20.9086 N   0  0  0  0  0  0
  -31.4757  -12.5845   19.1376 H   0  0  0  0  0  0
  -30.4065  -11.4542   19.9018 H   0  0  0  0  0  0
  -29.7816  -11.7619   17.4937 H   0  0  0  0  0  0
  -29.6407  -13.4856   17.7221 H   0  0  0  0  0  0
  -27.8697  -11.3033   18.8625 H   0  0  0  0  0  0
  -27.3740  -12.5882   17.7919 H   0  0  0  0  0  0
  -27.6736  -14.2635   19.5385 H   0  0  0  0  0  0
  -28.7463  -12.0104   21.2887 H   0  0  0  0  0  0
  -28.4058  -13.5783   21.8828 H   0  0  0  0  0  0
  -25.2771   -9.5665   22.4779 H   0  0  0  0  0  0
  -23.9995   -7.4626   22.7478 H   0  0  0  0  0  0
  -21.0851   -8.8805   19.8961 H   0  0  0  0  0  0
  -22.3732  -10.9688   19.6176 H   0  0  0  0  0  0
  -21.2017   -7.6159   23.9720 H   0  0  0  0  0  0
  -21.1473   -6.0531   25.9075 H   0  0  0  0  0  0
  -22.0604   -2.7623   23.2841 H   0  0  0  0  0  0
  -22.4090  -11.9881   22.4797 H   0  0  0  0  0  0
  -21.1114  -13.1263   22.2615 H   0  0  0  0  0  0
  -24.6650  -15.8501   20.5328 H   0  0  0  0  0  0
  -26.2865  -15.6307   20.1106 H   0  0  0  0  0  0
  -26.7173  -32.5436   23.1062 H   0  0  0  0  0  0
  -25.0054  -33.9689   25.0389 H   0  0  0  0  0  0
  -22.7166  -31.2966   21.3940 H   0  0  0  0  0  0
  -23.3729  -35.9658   23.3315 H   0  0  0  0  0  0
  -24.3568  -36.8919   22.2050 H   0  0  0  0  0  0
  -23.7284  -37.6519   23.6665 H   0  0  0  0  0  0
  -26.0770  -31.5439   20.5888 H   0  0  0  0  0  0
  -26.8444  -30.8496   21.9873 H   0  0  0  0  0  0
  -28.1310  -28.9957   21.1541 H   0  0  0  0  0  0
  -26.0174  -25.8985   19.0319 H   0  0  0  0  0  0
  -23.9716  -27.2708   19.0476 H   0  0  0  0  0  0
  -23.7606  -30.5729   19.3992 H   0  0  0  0  0  0
  -22.7567  -29.2290   19.8600 H   0  0  0  0  0  0
  -25.1297  -36.1913   25.0804 H   0  0  0  0  0  0
  -20.9965  -28.3276   24.1409 H   0  0  0  0  0  0
  -20.5673  -26.2296   23.3612 H   0  0  0  0  0  0
  -21.6643  -26.7429   22.1216 H   0  0  0  0  0  0
  -19.6911  -25.6293   21.1232 H   0  0  0  0  0  0
  -19.6695  -27.3189   20.6737 H   0  0  0  0  0  0
  -17.4201  -26.6658   21.4018 H   0  0  0  0  0  0
  -18.0345  -26.0063   22.9008 H   0  0  0  0  0  0
  -19.7944  -30.7271   24.2230 H   0  0  0  0  0  0
  -17.5026  -31.6248   24.5187 H   0  0  0  0  0  0
  -15.5358  -30.2979   23.7654 H   0  0  0  0  0  0
  -15.8683  -28.0847   22.6997 H   0  0  0  0  0  0
  -24.5915  -30.7044   25.7782 H   0  0  0  0  0  0
  -24.8924  -32.2872   26.4838 H   0  0  0  0  0  0
  -25.8081  -30.8911   27.0210 H   0  0  0  0  0  0
  -26.2895  -29.6737   24.1166 H   0  0  0  0  0  0
  -27.4078  -29.7241   25.4602 H   0  0  0  0  0  0
  -27.8746  -30.4278   23.9302 H   0  0  0  0  0  0
  -27.2628  -33.3609   26.2030 H   0  0  0  0  0  0
  -28.3867  -32.6870   25.0323 H   0  0  0  0  0  0
  -28.0688  -31.8450   26.5408 H   0  0  0  0  0  0
  -28.2593  -38.0096   24.7483 H   0  0  0  0  0  0
  -28.1065  -36.2621   24.6318 H   0  0  0  0  0  0
  -27.2280  -37.1501   25.8861 H   0  0  0  0  0  0
  -20.9364  -29.8786   21.6903 H   0  0  0  0  0  0
  -26.0163  -38.2832   24.1401 H   0  0  0  0  0  0
  -28.3889  -21.7900   18.0054 H   0  0  0  0  0  0
  -27.5077  -20.5479   18.9052 H   0  0  0  0  0  0
  -29.0238  -20.1746   18.0751 H   0  0  0  0  0  0
  -30.9589  -22.1198   21.8541 H   0  0  0  0  0  0
  -29.5399  -22.9332   22.5253 H   0  0  0  0  0  0
  -30.7173  -23.8084   21.5384 H   0  0  0  0  0  0
  -28.1465  -15.7795   21.9875 H   0  0  0  0  0  0
  -29.3285  -16.8611   22.6882 H   0  0  0  0  0  0
  -29.5563  -15.1540   22.8800 H   0  0  0  0  0  0
  -30.1810  -20.1250   21.5974 H   0  0  0  0  0  0
  -30.9912  -19.9769   20.0726 H   0  0  0  0  0  0
  -27.9217  -23.5924   19.0918 H   0  0  0  0  0  0
  -29.5330  -24.2221   19.0750 H   0  0  0  0  0  0
  -28.9980  -18.3482   19.3782 H   0  0  0  0  0  0
  -28.5855  -18.3767   21.0562 H   0  0  0  0  0  0
  -31.1540  -17.5378   21.3894 H   0  0  0  0  0  0
  -31.0923  -17.2169   19.6950 H   0  0  0  0  0  0
  -27.2768  -24.9145   21.0123 H   0  0  0  0  0  0
  -28.8981  -25.1617   21.5233 H   0  0  0  0  0  0
  1 25  1  0  0  0
  1 30  2  0  0  0
  1 81  1  0  0  0
  2  3  1  0  0  0
  2 25  1  0  0  0
  2 82  1  0  0  0
  2 83  1  0  0  0
  3  4  1  0  0  0
  3 84  1  0  0  0
  3 85  1  0  0  0
  4  5  1  0  0  0
  4 86  1  0  0  0
  4 87  1  0  0  0
  5  6  1  0  0  0
  5 26  1  0  0  0
  5 88  1  0  0  0
  6 25  1  0  0  0
  6 89  1  0  0  0
  6 90  1  0  0  0
  7  8  2  0  0  0
  7 26  1  0  0  0
  7 29  1  0  0  0
  8  9  1  0  0  0
  8 22  1  0  0  0
  9 10  1  0  0  0
  9 27  2  0  0  0
 10 11  2  0  0  0
 10 15  1  0  0  0
 11 12  1  0  0  0
 11 91  1  0  0  0
 12 13  2  0  0  0
 12 92  1  0  0  0
 13 14  1  0  0  0
 13 31  1  0  0  0
 14 15  2  0  0  0
 14 93  1  0  0  0
 15 94  1  0  0  0
 16 17  2  0  0  0
 16 21  1  0  0  0
 16 31  1  0  0  0
 17 18  1  0  0  0
 17 95  1  0  0  0
 18 19  2  0  0  0
 18 96  1  0  0  0
 19 20  1  0  0  0
 19 24  1  0  0  0
 20 21  2  0  0  0
 20 97  1  0  0  0
 21 23  1  0  0  0
 22 28  1  0  0  0
 22 32  2  0  0  0
 26 27  1  0  0  0
 28 98  1  0  0  0
 28 99  1  0  0  0
 29100  1  0  0  0
 29101  1  0  0  0
 33 34  1  0  0  0
 33 66  1  0  0  0
 33 70  2  0  0  0
 34 36  1  0  0  0
 34 59  1  0  0  0
 34102  1  0  0  0
 35 44  2  0  0  0
 35 45  1  0  0  0
 35 68  1  0  0  0
 36 56  1  0  0  0
 36103  1  0  0  0
 37 39  1  0  0  0
 37 47  1  0  0  0
 37 66  1  0  0  0
 37104  1  0  0  0
 38 43  2  0  0  0
 38 46  1  0  0  0
 38 47  1  0  0  0
 39 64  1  0  0  0
 39 67  2  0  0  0
 40 52  1  0  0  0
 40 53  2  0  0  0
 40 58  1  0  0  0
 41105  1  0  0  0
 41106  1  0  0  0
 41107  1  0  0  0
 41 48  1  0  0  0
 42 43  1  0  0  0
 42 66  1  0  0  0
 42108  1  0  0  0
 42109  1  0  0  0
 43 44  1  0  0  0
 44110  1  0  0  0
 45 46  2  0  0  0
 45111  1  0  0  0
 46112  1  0  0  0
 47113  1  0  0  0
 47114  1  0  0  0
 48 56  1  0  0  0
 48 65  1  0  0  0
 48115  1  0  0  0
 49 50  1  0  0  0
 49 53  1  0  0  0
 49 64  1  0  0  0
 49116  1  0  0  0
 50 51  1  0  0  0
 50117  1  0  0  0
 50118  1  0  0  0
 51 52  1  0  0  0
 51119  1  0  0  0
 51120  1  0  0  0
 52121  1  0  0  0
 52122  1  0  0  0
 53 54  1  0  0  0
 54 55  2  0  0  0
 54123  1  0  0  0
 55 57  1  0  0  0
 55124  1  0  0  0
 56 69  2  0  0  0
 57 58  2  0  0  0
 57125  1  0  0  0
 58126  1  0  0  0
 59 60  1  0  0  0
 59 61  1  0  0  0
 59 62  1  0  0  0
 60127  1  0  0  0
 60128  1  0  0  0
 60129  1  0  0  0
 61130  1  0  0  0
 61131  1  0  0  0
 61132  1  0  0  0
 62133  1  0  0  0
 62134  1  0  0  0
 62135  1  0  0  0
 63 65  1  0  0  0
 63136  1  0  0  0
 63137  1  0  0  0
 63138  1  0  0  0
 64139  1  0  0  0
 65140  1  0  0  0
 68 80  1  0  0  0
 71 72  2  0  0  0
 71 73  1  0  0  0
 71 76  1  0  0  0
 72 74  1  0  0  0
 72 77  1  0  0  0
 73141  1  0  0  0
 73142  1  0  0  0
 73143  1  0  0  0
 74144  1  0  0  0
 74145  1  0  0  0
 74146  1  0  0  0
 75 81  1  0  0  0
 75147  1  0  0  0
 75148  1  0  0  0
 75149  1  0  0  0
 76 78  1  0  0  0
 76150  1  0  0  0
 76151  1  0  0  0
 77 80  1  0  0  0
 77152  1  0  0  0
 77153  1  0  0  0
 78 79  1  0  0  0
 78154  1  0  0  0
 78155  1  0  0  0
 79 81  1  0  0  0
 79156  1  0  0  0
 79157  1  0  0  0
 80158  1  0  0  0
 80159  1  0  0  0
M  ISO  4   1 100  68 101  80 101  81 100
M  END
> <chiral flag>
0

> <version>
0

> <s_m_source_file>
/data/baiqing/PycharmProjects/Reinvent-master-3.2/result/LINK_invent/BTK/process_docking_weight1_custom_sum_contain_oxygen_bond_distance_aromatic_linkinvent_7_9_3/rearranged_h_0080.sdf

> <i_m_source_file_index>
90

> <r_mmod_Potential_Energy-OPLS-2005>
297.351928710938

> <r_mmod_Stretch_Energy-OPLS-2005>
110.330528259277

> <r_mmod_Bend_Energy-OPLS-2005>
170.684829711914

> <r_mmod_Torsional_Energy-OPLS-2005>
297.435577392578

> <r_mmod_Improper_Torsional_Energy-OPLS-2005>
9.57655429840088

> <r_mmod_Van_der_Waal_Energy-OPLS-2005>
140.048736572266

> <r_mmod_Electrostatic_Energy-OPLS-2005>
-300.682098388672

> <r_mmod_Solvation_Energy-OPLS-2005>
-181.814437866211

> <b_mmod_Minimization_Converged-OPLS-2005>
0

> <r_mmod_RMS_Derivative-OPLS-2005>
1.96943080425262

$$$$
93
                    3D
 Structure written by MMmdl.
169177  0  0  1  0            999 V2000
  -30.6716  -14.5338   20.5399 C   0  0  0  0  0  0
  -30.4256  -12.3370   19.4288 C   0  0  0  0  0  0
  -29.4956  -12.5085   18.2090 C   0  0  0  0  0  0
  -28.0170  -12.3651   18.6223 C   0  0  0  0  0  0
  -27.6577  -13.2116   19.8731 C   0  0  2  0  0  0
  -28.7039  -13.0168   20.9926 C   0  0  0  0  0  0
  -25.2563  -13.8157   20.5695 C   0  0  0  0  0  0
  -24.1827  -13.0429   20.9185 C   0  0  0  0  0  0
  -24.6391  -11.6897   20.8737 C   0  0  0  0  0  0
  -23.9058  -10.4282   21.0400 C   0  0  0  0  0  0
  -24.3610   -9.4199   21.9182 C   0  0  0  0  0  0
  -23.6290   -8.2231   22.0757 C   0  0  0  0  0  0
  -22.4270   -8.0269   21.3548 C   0  0  0  0  0  0
  -21.9900   -9.0240   20.4651 C   0  0  0  0  0  0
  -22.7225  -10.2119   20.3058 C   0  0  0  0  0  0
  -21.6850   -6.0722   22.5274 C   0  0  0  0  0  0
  -21.4013   -6.5634   23.8205 C   0  0  0  0  0  0
  -21.3669   -5.6790   24.9172 C   0  0  0  0  0  0
  -21.6050   -4.3052   24.7227 C   0  0  0  0  0  0
  -21.8824   -3.8141   23.4352 C   0  0  0  0  0  0
  -21.9191   -4.6951   22.3400 C   0  0  0  0  0  0
  -22.7849  -13.5217   21.1848 C   0  0  0  0  0  0
  -22.1661   -4.2134   21.0980 F   0  0  0  0  0  0
  -21.5633   -3.4542   25.7742 F   0  0  0  0  0  0
  -30.0247  -13.3381   20.4304 N   0  0  0  0  0  0
  -26.3007  -12.9343   20.3376 N   0  0  0  0  0  0
  -25.9325  -11.6498   20.5776 N   0  0  0  0  0  0
  -22.0513  -12.8206   22.0414 N   0  0  0  0  0  0
  -25.4283  -15.1877   20.4090 N   0  0  0  0  0  0
  -31.8211  -14.7060   20.1269 O   0  0  0  0  0  0
  -21.6638   -6.8865   21.4238 O   0  0  0  0  0  0
  -22.3535  -14.5533   20.6711 O   0  0  0  0  0  0
  -24.6184  -31.8663   23.2086 C   0  0  0  0  0  0
  -25.9069  -32.4806   23.8390 C   0  0  1  0  0  0
  -27.2259  -27.3925   20.1062 C   0  0  0  0  0  0
  -25.5916  -33.8607   24.2318 N   0  0  0  0  0  0
  -23.4075  -30.4907   21.5499 C   0  0  2  0  0  0
  -24.8535  -28.9543   20.1132 C   0  0  0  0  0  0
  -22.7422  -29.4658   22.4972 C   0  0  0  0  0  0
  -18.0276  -28.1370   22.8490 C   0  0  0  0  0  0
  -24.1489  -36.7305   23.2641 C   0  0  0  0  0  0
  -25.9426  -30.8167   21.3719 C   0  0  0  0  0  0
  -26.0175  -29.4504   20.7148 C   0  0  0  0  0  0
  -27.2084  -28.6794   20.7048 C   0  0  0  0  0  0
  -26.0465  -26.9340   19.4772 C   0  0  0  0  0  0
  -24.8661  -27.6976   19.4878 C   0  0  0  0  0  0
  -23.6178  -29.8265   20.1641 C   0  0  0  0  0  0
  -25.4111  -36.3098   24.0336 C   0  0  1  0  0  0
  -20.5867  -28.3667   23.1300 C   0  0  2  0  0  0
  -20.6769  -26.9399   22.5410 C   0  0  0  0  0  0
  -19.5746  -26.6379   21.5210 C   0  0  0  0  0  0
  -18.1923  -26.7918   22.1620 C   0  0  0  0  0  0
  -19.1523  -28.8835   23.2895 C   0  0  0  0  0  0
  -18.9454  -30.1438   23.8907 C   0  0  0  0  0  0
  -17.6458  -30.6578   24.0561 C   0  0  0  0  0  0
  -25.9045  -34.9463   23.5121 C   0  0  0  0  0  0
  -16.5349  -29.9075   23.6328 C   0  0  0  0  0  0
  -16.7266  -28.6489   23.0354 C   0  0  0  0  0  0
  -26.4485  -31.6593   25.0731 C   0  0  0  0  0  0
  -25.3746  -31.3707   26.1475 C   0  0  0  0  0  0
  -27.0332  -30.3026   24.6153 C   0  0  0  0  0  0
  -27.6046  -32.4327   25.7500 C   0  0  0  0  0  0
  -27.5582  -37.1809   24.8462 C   0  0  0  0  0  0
  -21.4147  -29.3034   22.3703 N   0  0  0  0  0  0
  -26.4295  -37.3783   23.9406 N   0  0  0  0  0  0
  -24.6741  -31.0732   22.1005 N   0  0  0  0  0  0
  -23.4183  -28.8206   23.3026 O   0  0  0  0  0  0
  -28.3677  -26.6030   20.1154 O   0  0  0  0  0  0
  -26.5600  -34.8919   22.4679 O   0  0  0  0  0  0
  -23.5370  -32.1431   23.7464 O   0  0  0  0  0  0
  -27.6769  -22.1863   18.7547 C   0  0  0  0  0  0
  -27.2832  -21.0541   18.0918 C   0  0  0  0  0  0
  -28.7414  -20.4674   19.6966 C   0  0  0  0  0  0
  -27.2429  -20.6188   15.6640 C   0  0  0  0  0  0
  -25.5046  -22.1040   16.6908 C   0  0  0  0  0  0
  -25.4558  -19.6370   17.1561 C   0  0  0  0  0  0
  -29.6026  -19.5322   20.5441 C   0  0  0  0  0  0
  -29.3872  -17.9914   20.2902 C   0  0  0  0  0  0
  -29.3640  -24.2681   20.1760 C   0  0  0  0  0  0
  -29.2548  -22.7697   20.6547 C   0  0  0  0  0  0
  -30.2963  -17.0055   21.0970 C   0  0  0  0  0  0
  -28.1904  -25.2244   20.5488 C   0  0  0  0  0  0
  -26.3728  -20.8505   16.9106 C   0  0  0  0  0  0
  -28.5860  -21.8224   19.7195 N   0  0  0  0  0  0
  -27.9670  -20.0322   18.6945 N   0  3  0  0  0  0
  -29.9162  -15.5733   20.9694 N   0  0  0  0  0  0
  -31.4700  -12.4416   19.1300 H   0  0  0  0  0  0
  -30.3355  -11.3323   19.8443 H   0  0  0  0  0  0
  -29.7421  -11.7749   17.4401 H   0  0  0  0  0  0
  -29.6553  -13.4899   17.7598 H   0  0  0  0  0  0
  -27.8331  -11.3094   18.8239 H   0  0  0  0  0  0
  -27.3653  -12.6350   17.7907 H   0  0  0  0  0  0
  -27.6923  -14.2558   19.5607 H   0  0  0  0  0  0
  -28.6950  -11.9844   21.3449 H   0  0  0  0  0  0
  -28.4682  -13.6251   21.8670 H   0  0  0  0  0  0
  -25.2756   -9.5671   22.4759 H   0  0  0  0  0  0
  -24.0003   -7.4614   22.7472 H   0  0  0  0  0  0
  -21.0835   -8.8744   19.8950 H   0  0  0  0  0  0
  -22.3676  -10.9652   19.6167 H   0  0  0  0  0  0
  -21.2010   -7.6140   23.9699 H   0  0  0  0  0  0
  -21.1489   -6.0526   25.9070 H   0  0  0  0  0  0
  -22.0600   -2.7601   23.2853 H   0  0  0  0  0  0
  -22.4137  -11.9856   22.4773 H   0  0  0  0  0  0
  -21.1125  -13.1219   22.2634 H   0  0  0  0  0  0
  -24.6650  -15.8463   20.5194 H   0  0  0  0  0  0
  -26.2808  -15.6197   20.0787 H   0  0  0  0  0  0
  -26.7138  -32.5493   23.1148 H   0  0  0  0  0  0
  -25.0082  -33.9772   25.0475 H   0  0  0  0  0  0
  -22.6977  -31.3087   21.4112 H   0  0  0  0  0  0
  -23.3749  -35.9639   23.3305 H   0  0  0  0  0  0
  -24.3591  -36.8922   22.2056 H   0  0  0  0  0  0
  -23.7246  -37.6510   23.6658 H   0  0  0  0  0  0
  -26.0718  -31.5852   20.6088 H   0  0  0  0  0  0
  -26.8238  -30.8591   22.0005 H   0  0  0  0  0  0
  -28.1041  -29.0578   21.1772 H   0  0  0  0  0  0
  -26.0270  -25.9856   18.9617 H   0  0  0  0  0  0
  -23.9761  -27.3165   19.0062 H   0  0  0  0  0  0
  -23.7281  -30.6033   19.4062 H   0  0  0  0  0  0
  -22.7402  -29.2508   19.8659 H   0  0  0  0  0  0
  -25.1292  -36.1962   25.0828 H   0  0  0  0  0  0
  -20.9967  -28.3239   24.1418 H   0  0  0  0  0  0
  -20.5671  -26.2277   23.3600 H   0  0  0  0  0  0
  -21.6640  -26.7435   22.1206 H   0  0  0  0  0  0
  -19.6910  -25.6294   21.1231 H   0  0  0  0  0  0
  -19.6686  -27.3195   20.6741 H   0  0  0  0  0  0
  -17.4197  -26.6668   21.4019 H   0  0  0  0  0  0
  -18.0319  -26.0052   22.9004 H   0  0  0  0  0  0
  -19.7930  -30.7248   24.2285 H   0  0  0  0  0  0
  -17.5011  -31.6262   24.5152 H   0  0  0  0  0  0
  -15.5347  -30.2982   23.7644 H   0  0  0  0  0  0
  -15.8665  -28.0811   22.7072 H   0  0  0  0  0  0
  -24.5891  -30.7094   25.7800 H   0  0  0  0  0  0
  -24.8980  -32.2870   26.4963 H   0  0  0  0  0  0
  -25.8092  -30.8829   27.0209 H   0  0  0  0  0  0
  -26.2898  -29.6772   24.1195 H   0  0  0  0  0  0
  -27.4066  -29.7281   25.4642 H   0  0  0  0  0  0
  -27.8750  -30.4329   23.9346 H   0  0  0  0  0  0
  -27.2644  -33.3605   26.2112 H   0  0  0  0  0  0
  -28.3837  -32.6929   25.0323 H   0  0  0  0  0  0
  -28.0735  -31.8438   26.5393 H   0  0  0  0  0  0
  -28.2594  -38.0110   24.7512 H   0  0  0  0  0  0
  -28.1085  -36.2644   24.6283 H   0  0  0  0  0  0
  -27.2303  -37.1451   25.8865 H   0  0  0  0  0  0
  -20.9309  -29.8759   21.6927 H   0  0  0  0  0  0
  -26.0182  -38.2862   24.1394 H   0  0  0  0  0  0
  -27.3850  -23.2102   18.5796 H   0  0  0  0  0  0
  -27.8957  -21.4731   15.4795 H   0  0  0  0  0  0
  -26.6322  -20.4775   14.7720 H   0  0  0  0  0  0
  -27.8781  -19.7388   15.7669 H   0  0  0  0  0  0
  -26.1134  -22.9860   16.4910 H   0  0  0  0  0  0
  -24.8820  -22.3193   17.5598 H   0  0  0  0  0  0
  -24.8376  -21.9788   15.8374 H   0  0  0  0  0  0
  -26.0201  -18.7119   17.2733 H   0  0  0  0  0  0
  -24.7698  -19.4848   16.3228 H   0  0  0  0  0  0
  -24.8529  -19.7714   18.0546 H   0  0  0  0  0  0
  -29.3944  -19.7784   21.5854 H   0  0  0  0  0  0
  -30.6382  -19.8055   20.3443 H   0  0  0  0  0  0
  -29.5437  -17.7856   19.2302 H   0  0  0  0  0  0
  -28.3438  -17.7510   20.4970 H   0  0  0  0  0  0
  -29.5372  -24.2992   19.1006 H   0  0  0  0  0  0
  -30.2667  -24.6875   20.6217 H   0  0  0  0  0  0
  -28.7432  -22.7088   21.6156 H   0  0  0  0  0  0
  -30.2612  -22.3836   20.8175 H   0  0  0  0  0  0
  -30.2397  -17.2582   22.1561 H   0  0  0  0  0  0
  -31.3390  -17.1501   20.8092 H   0  0  0  0  0  0
  -28.0881  -25.2420   21.6337 H   0  0  0  0  0  0
  -27.2660  -24.7863   20.1813 H   0  0  0  0  0  0
  -27.8950  -19.0614   18.4193 H   0  0  0  0  0  0
  -28.9778  -15.3322   21.2502 H   0  0  0  0  0  0
  1 25  1  0  0  0
  1 30  2  0  0  0
  1 86  1  0  0  0
  2  3  1  0  0  0
  2 25  1  0  0  0
  2 87  1  0  0  0
  2 88  1  0  0  0
  3  4  1  0  0  0
  3 89  1  0  0  0
  3 90  1  0  0  0
  4  5  1  0  0  0
  4 91  1  0  0  0
  4 92  1  0  0  0
  5  6  1  0  0  0
  5 26  1  0  0  0
  5 93  1  0  0  0
  6 25  1  0  0  0
  6 94  1  0  0  0
  6 95  1  0  0  0
  7  8  2  0  0  0
  7 26  1  0  0  0
  7 29  1  0  0  0
  8  9  1  0  0  0
  8 22  1  0  0  0
  9 10  1  0  0  0
  9 27  2  0  0  0
 10 11  2  0  0  0
 10 15  1  0  0  0
 11 12  1  0  0  0
 11 96  1  0  0  0
 12 13  2  0  0  0
 12 97  1  0  0  0
 13 14  1  0  0  0
 13 31  1  0  0  0
 14 15  2  0  0  0
 14 98  1  0  0  0
 15 99  1  0  0  0
 16 17  2  0  0  0
 16 21  1  0  0  0
 16 31  1  0  0  0
 17 18  1  0  0  0
 17100  1  0  0  0
 18 19  2  0  0  0
 18101  1  0  0  0
 19 20  1  0  0  0
 19 24  1  0  0  0
 20 21  2  0  0  0
 20102  1  0  0  0
 21 23  1  0  0  0
 22 28  1  0  0  0
 22 32  2  0  0  0
 26 27  1  0  0  0
 28103  1  0  0  0
 28104  1  0  0  0
 29105  1  0  0  0
 29106  1  0  0  0
 33 34  1  0  0  0
 33 66  1  0  0  0
 33 70  2  0  0  0
 34 36  1  0  0  0
 34 59  1  0  0  0
 34107  1  0  0  0
 35 44  2  0  0  0
 35 45  1  0  0  0
 35 68  1  0  0  0
 36 56  1  0  0  0
 36108  1  0  0  0
 37 39  1  0  0  0
 37 47  1  0  0  0
 37 66  1  0  0  0
 37109  1  0  0  0
 38 43  2  0  0  0
 38 46  1  0  0  0
 38 47  1  0  0  0
 39 64  1  0  0  0
 39 67  2  0  0  0
 40 52  1  0  0  0
 40 53  2  0  0  0
 40 58  1  0  0  0
 41110  1  0  0  0
 41111  1  0  0  0
 41112  1  0  0  0
 41 48  1  0  0  0
 42 43  1  0  0  0
 42 66  1  0  0  0
 42113  1  0  0  0
 42114  1  0  0  0
 43 44  1  0  0  0
 44115  1  0  0  0
 45 46  2  0  0  0
 45116  1  0  0  0
 46117  1  0  0  0
 47118  1  0  0  0
 47119  1  0  0  0
 48 56  1  0  0  0
 48 65  1  0  0  0
 48120  1  0  0  0
 49 50  1  0  0  0
 49 53  1  0  0  0
 49 64  1  0  0  0
 49121  1  0  0  0
 50 51  1  0  0  0
 50122  1  0  0  0
 50123  1  0  0  0
 51 52  1  0  0  0
 51124  1  0  0  0
 51125  1  0  0  0
 52126  1  0  0  0
 52127  1  0  0  0
 53 54  1  0  0  0
 54 55  2  0  0  0
 54128  1  0  0  0
 55 57  1  0  0  0
 55129  1  0  0  0
 56 69  2  0  0  0
 57 58  2  0  0  0
 57130  1  0  0  0
 58131  1  0  0  0
 59 60  1  0  0  0
 59 61  1  0  0  0
 59 62  1  0  0  0
 60132  1  0  0  0
 60133  1  0  0  0
 60134  1  0  0  0
 61135  1  0  0  0
 61136  1  0  0  0
 61137  1  0  0  0
 62138  1  0  0  0
 62139  1  0  0  0
 62140  1  0  0  0
 63 65  1  0  0  0
 63141  1  0  0  0
 63142  1  0  0  0
 63143  1  0  0  0
 64144  1  0  0  0
 65145  1  0  0  0
 68 82  1  0  0  0
 71 72  2  0  0  0
 71 84  1  0  0  0
 71146  1  0  0  0
 72 83  1  0  0  0
 72 85  1  0  0  0
 73 77  1  0  0  0
 73 84  1  0  0  0
 73 85  2  0  0  0
 74147  1  0  0  0
 74148  1  0  0  0
 74149  1  0  0  0
 74 83  1  0  0  0
 75 83  1  0  0  0
 75150  1  0  0  0
 75151  1  0  0  0
 75152  1  0  0  0
 76 83  1  0  0  0
 76153  1  0  0  0
 76154  1  0  0  0
 76155  1  0  0  0
 77 78  1  0  0  0
 77156  1  0  0  0
 77157  1  0  0  0
 78 81  1  0  0  0
 78158  1  0  0  0
 78159  1  0  0  0
 79 80  1  0  0  0
 79 82  1  0  0  0
 79160  1  0  0  0
 79161  1  0  0  0
 80 84  1  0  0  0
 80162  1  0  0  0
 80163  1  0  0  0
 81 86  1  0  0  0
 81164  1  0  0  0
 81165  1  0  0  0
 82166  1  0  0  0
 82167  1  0  0  0
 85168  1  0  0  0
 86169  1  0  0  0
M  CHG  1  85   1
M  ISO  4   1 100  68 101  82 101  86 100
M  END
> <chiral flag>
0

> <version>
0

> <s_m_source_file>
/data/baiqing/PycharmProjects/Reinvent-master-3.2/result/LINK_invent/BTK/process_docking_weight1_custom_sum_contain_oxygen_bond_distance_aromatic_linkinvent_7_9_3/rearranged_h_0080.sdf

> <i_m_source_file_index>
91

> <r_mmod_Potential_Energy-OPLS-2005>
-131.889663696289

> <r_mmod_Stretch_Energy-OPLS-2005>
50.2937316894531

> <r_mmod_Bend_Energy-OPLS-2005>
109.890739440918

> <r_mmod_Torsional_Energy-OPLS-2005>
238.521392822266

> <r_mmod_Improper_Torsional_Energy-OPLS-2005>
3.86314225196838

> <r_mmod_Van_der_Waal_Energy-OPLS-2005>
125.443748474121

> <r_mmod_Electrostatic_Energy-OPLS-2005>
-267.264007568359

> <r_mmod_Solvation_Energy-OPLS-2005>
-414.426849365234

> <b_mmod_Minimization_Converged-OPLS-2005>
0

> <r_mmod_RMS_Derivative-OPLS-2005>
1.7083386182785

$$$$
94
                    3D
 Structure written by MMmdl.
157165  0  0  1  0            999 V2000
  -30.6431  -14.5545   20.5094 C   0  0  0  0  0  0
  -30.4364  -12.3418   19.4208 C   0  0  0  0  0  0
  -29.4969  -12.4935   18.2037 C   0  0  0  0  0  0
  -28.0198  -12.3429   18.6239 C   0  0  0  0  0  0
  -27.6570  -13.2028   19.8631 C   0  0  2  0  0  0
  -28.7063  -13.0140   20.9823 C   0  0  0  0  0  0
  -25.2593  -13.8141   20.5693 C   0  0  0  0  0  0
  -24.1843  -13.0429   20.9199 C   0  0  0  0  0  0
  -24.6388  -11.6895   20.8734 C   0  0  0  0  0  0
  -23.9052  -10.4288   21.0413 C   0  0  0  0  0  0
  -24.3608   -9.4204   21.9187 C   0  0  0  0  0  0
  -23.6290   -8.2237   22.0751 C   0  0  0  0  0  0
  -22.4271   -8.0272   21.3541 C   0  0  0  0  0  0
  -21.9910   -9.0245   20.4633 C   0  0  0  0  0  0
  -22.7237  -10.2128   20.3050 C   0  0  0  0  0  0
  -21.6845   -6.0733   22.5285 C   0  0  0  0  0  0
  -21.4009   -6.5639   23.8215 C   0  0  0  0  0  0
  -21.3654   -5.6792   24.9178 C   0  0  0  0  0  0
  -21.6044   -4.3058   24.7236 C   0  0  0  0  0  0
  -21.8816   -3.8149   23.4354 C   0  0  0  0  0  0
  -21.9193   -4.6961   22.3412 C   0  0  0  0  0  0
  -22.7862  -13.5223   21.1868 C   0  0  0  0  0  0
  -22.1659   -4.2150   21.0985 F   0  0  0  0  0  0
  -21.5632   -3.4540   25.7747 F   0  0  0  0  0  0
  -30.0252  -13.3426   20.4171 N   0  0  0  0  0  0
  -26.3009  -12.9301   20.3324 N   0  0  0  0  0  0
  -25.9315  -11.6469   20.5763 N   0  0  0  0  0  0
  -22.0496  -12.8190   22.0400 N   0  0  0  0  0  0
  -25.4318  -15.1864   20.4106 N   0  0  0  0  0  0
  -31.8079  -14.7402   20.1502 O   0  0  0  0  0  0
  -21.6626   -6.8875   21.4243 O   0  0  0  0  0  0
  -22.3549  -14.5539   20.6736 O   0  0  0  0  0  0
  -24.6187  -31.8645   23.2045 C   0  0  0  0  0  0
  -25.9066  -32.4793   23.8352 C   0  0  1  0  0  0
  -27.2384  -27.3978   20.1073 C   0  0  0  0  0  0
  -25.5908  -33.8591   24.2285 N   0  0  0  0  0  0
  -23.4083  -30.4849   21.5465 C   0  0  2  0  0  0
  -24.8563  -28.9382   20.1199 C   0  0  0  0  0  0
  -22.7420  -29.4658   22.4979 C   0  0  0  0  0  0
  -18.0275  -28.1376   22.8499 C   0  0  0  0  0  0
  -24.1487  -36.7305   23.2633 C   0  0  0  0  0  0
  -25.9374  -30.8199   21.3566 C   0  0  0  0  0  0
  -26.0188  -29.4467   20.7136 C   0  0  0  0  0  0
  -27.2152  -28.6866   20.6999 C   0  0  0  0  0  0
  -26.0572  -26.9042   19.5179 C   0  0  0  0  0  0
  -24.8705  -27.6652   19.5205 C   0  0  0  0  0  0
  -23.6180  -29.8083   20.1653 C   0  0  0  0  0  0
  -25.4106  -36.3087   24.0325 C   0  0  1  0  0  0
  -20.5867  -28.3683   23.1309 C   0  0  2  0  0  0
  -20.6777  -26.9422   22.5419 C   0  0  0  0  0  0
  -19.5748  -26.6399   21.5218 C   0  0  0  0  0  0
  -18.1913  -26.7927   22.1618 C   0  0  0  0  0  0
  -19.1528  -28.8843   23.2897 C   0  0  0  0  0  0
  -18.9455  -30.1440   23.8923 C   0  0  0  0  0  0
  -17.6465  -30.6591   24.0569 C   0  0  0  0  0  0
  -25.9048  -34.9458   23.5103 C   0  0  0  0  0  0
  -16.5349  -29.9097   23.6328 C   0  0  0  0  0  0
  -16.7270  -28.6503   23.0362 C   0  0  0  0  0  0
  -26.4480  -31.6581   25.0684 C   0  0  0  0  0  0
  -25.3731  -31.3677   26.1417 C   0  0  0  0  0  0
  -27.0328  -30.3033   24.6053 C   0  0  0  0  0  0
  -27.6054  -32.4302   25.7460 C   0  0  0  0  0  0
  -27.5579  -37.1784   24.8451 C   0  0  0  0  0  0
  -21.4147  -29.3044   22.3714 N   0  0  0  0  0  0
  -26.4276  -37.3785   23.9422 N   0  0  0  0  0  0
  -24.6733  -31.0715   22.0947 N   0  0  0  0  0  0
  -23.4170  -28.8228   23.3064 O   0  0  0  0  0  0
  -28.3972  -26.6435   20.0597 O   0  0  0  0  0  0
  -26.5622  -34.8917   22.4673 O   0  0  0  0  0  0
  -23.5377  -32.1424   23.7424 O   0  0  0  0  0  0
  -28.0049  -19.6760   19.3143 C   0  0  0  0  0  0
  -27.7598  -20.9899   19.6145 C   0  0  0  0  0  0
  -29.7583  -20.4371   20.4487 C   0  0  0  0  0  0
  -29.2750  -19.2926   19.8420 C   0  0  0  0  0  0
  -31.2463  -17.9984   18.9324 C   0  0  0  0  0  0
  -28.5232  -24.0690   20.0146 C   0  0  0  0  0  0
  -28.9385  -22.8455   20.9065 C   0  0  0  0  0  0
  -30.0409  -17.0366   20.9831 C   0  0  0  0  0  0
  -28.4197  -25.4093   20.8192 C   0  0  0  0  0  0
  -29.9057  -17.8888   19.6753 C   0  0  1  0  0  0
  -28.8415  -21.4903   20.3120 N   0  0  0  0  0  0
  -29.8179  -15.5739   20.8420 N   0  0  0  0  0  0
  -31.4778  -12.4631   19.1163 H   0  0  0  0  0  0
  -30.3612  -11.3379   19.8424 H   0  0  0  0  0  0
  -29.7429  -11.7506   17.4437 H   0  0  0  0  0  0
  -29.6462  -13.4692   17.7376 H   0  0  0  0  0  0
  -27.8478  -11.2888   18.8465 H   0  0  0  0  0  0
  -27.3610  -12.5855   17.7895 H   0  0  0  0  0  0
  -27.6857  -14.2420   19.5360 H   0  0  0  0  0  0
  -28.7043  -11.9822   21.3359 H   0  0  0  0  0  0
  -28.4706  -13.6240   21.8555 H   0  0  0  0  0  0
  -25.2754   -9.5672   22.4771 H   0  0  0  0  0  0
  -23.9992   -7.4620   22.7470 H   0  0  0  0  0  0
  -21.0849   -8.8766   19.8935 H   0  0  0  0  0  0
  -22.3705  -10.9668   19.6158 H   0  0  0  0  0  0
  -21.1991   -7.6146   23.9723 H   0  0  0  0  0  0
  -21.1480   -6.0521   25.9079 H   0  0  0  0  0  0
  -22.0602   -2.7616   23.2860 H   0  0  0  0  0  0
  -22.4110  -11.9825   22.4745 H   0  0  0  0  0  0
  -21.1118  -13.1204   22.2628 H   0  0  0  0  0  0
  -24.6675  -15.8422   20.5271 H   0  0  0  0  0  0
  -26.2806  -15.6262   20.0794 H   0  0  0  0  0  0
  -26.7143  -32.5511   23.1120 H   0  0  0  0  0  0
  -25.0050  -33.9740   25.0418 H   0  0  0  0  0  0
  -22.6993  -31.3028   21.4005 H   0  0  0  0  0  0
  -23.3743  -35.9638   23.3271 H   0  0  0  0  0  0
  -24.3587  -36.8962   22.2053 H   0  0  0  0  0  0
  -23.7247  -37.6495   23.6695 H   0  0  0  0  0  0
  -26.0386  -31.5750   20.5755 H   0  0  0  0  0  0
  -26.8291  -30.8863   21.9690 H   0  0  0  0  0  0
  -28.1150  -29.0792   21.1520 H   0  0  0  0  0  0
  -26.0578  -25.9301   19.0494 H   0  0  0  0  0  0
  -23.9769  -27.2646   19.0609 H   0  0  0  0  0  0
  -23.7243  -30.5771   19.3987 H   0  0  0  0  0  0
  -22.7415  -29.2264   19.8775 H   0  0  0  0  0  0
  -25.1276  -36.1925   25.0815 H   0  0  0  0  0  0
  -20.9946  -28.3273   24.1438 H   0  0  0  0  0  0
  -20.5694  -26.2293   23.3611 H   0  0  0  0  0  0
  -21.6636  -26.7492   22.1189 H   0  0  0  0  0  0
  -19.6918  -25.6317   21.1229 H   0  0  0  0  0  0
  -19.6681  -27.3215   20.6751 H   0  0  0  0  0  0
  -17.4195  -26.6693   21.4004 H   0  0  0  0  0  0
  -18.0303  -26.0056   22.8997 H   0  0  0  0  0  0
  -19.7937  -30.7233   24.2316 H   0  0  0  0  0  0
  -17.5026  -31.6277   24.5160 H   0  0  0  0  0  0
  -15.5345  -30.3007   23.7652 H   0  0  0  0  0  0
  -15.8663  -28.0838   22.7079 H   0  0  0  0  0  0
  -24.5965  -30.6957   25.7759 H   0  0  0  0  0  0
  -24.8827  -32.2796   26.4821 H   0  0  0  0  0  0
  -25.8051  -30.8907   27.0220 H   0  0  0  0  0  0
  -26.2886  -29.6764   24.1145 H   0  0  0  0  0  0
  -27.4160  -29.7300   25.4509 H   0  0  0  0  0  0
  -27.8671  -30.4369   23.9163 H   0  0  0  0  0  0
  -27.2722  -33.3663   26.1964 H   0  0  0  0  0  0
  -28.3909  -32.6757   25.0302 H   0  0  0  0  0  0
  -28.0653  -31.8446   26.5433 H   0  0  0  0  0  0
  -28.2548  -38.0133   24.7582 H   0  0  0  0  0  0
  -28.1118  -36.2666   24.6175 H   0  0  0  0  0  0
  -27.2300  -37.1316   25.8849 H   0  0  0  0  0  0
  -20.9323  -29.8759   21.6916 H   0  0  0  0  0  0
  -26.0144  -38.2844   24.1468 H   0  0  0  0  0  0
  -27.3249  -19.0410   18.7622 H   0  0  0  0  0  0
  -26.8988  -21.6083   19.3980 H   0  0  0  0  0  0
  -30.6903  -20.5979   20.9758 H   0  0  0  0  0  0
  -31.1249  -18.4984   17.9709 H   0  0  0  0  0  0
  -31.6737  -17.0159   18.7342 H   0  0  0  0  0  0
  -31.9765  -18.5667   19.5092 H   0  0  0  0  0  0
  -27.5656  -23.8792   19.5311 H   0  0  0  0  0  0
  -29.2518  -24.1803   19.2116 H   0  0  0  0  0  0
  -28.3176  -22.8419   21.8027 H   0  0  0  0  0  0
  -29.9604  -22.9933   21.2596 H   0  0  0  0  0  0
  -29.2639  -17.3655   21.6737 H   0  0  0  0  0  0
  -30.9873  -17.2354   21.4879 H   0  0  0  0  0  0
  -29.2960  -25.4825   21.4626 H   0  0  0  0  0  0
  -27.5710  -25.3530   21.5032 H   0  0  0  0  0  0
  -29.2238  -17.3500   19.0153 H   0  0  0  0  0  0
  -28.8805  -15.2731   21.0605 H   0  0  0  0  0  0
  1 25  1  0  0  0
  1 30  2  0  0  0
  1 82  1  0  0  0
  2  3  1  0  0  0
  2 25  1  0  0  0
  2 83  1  0  0  0
  2 84  1  0  0  0
  3  4  1  0  0  0
  3 85  1  0  0  0
  3 86  1  0  0  0
  4  5  1  0  0  0
  4 87  1  0  0  0
  4 88  1  0  0  0
  5  6  1  0  0  0
  5 26  1  0  0  0
  5 89  1  0  0  0
  6 25  1  0  0  0
  6 90  1  0  0  0
  6 91  1  0  0  0
  7  8  2  0  0  0
  7 26  1  0  0  0
  7 29  1  0  0  0
  8  9  1  0  0  0
  8 22  1  0  0  0
  9 10  1  0  0  0
  9 27  2  0  0  0
 10 11  2  0  0  0
 10 15  1  0  0  0
 11 12  1  0  0  0
 11 92  1  0  0  0
 12 13  2  0  0  0
 12 93  1  0  0  0
 13 14  1  0  0  0
 13 31  1  0  0  0
 14 15  2  0  0  0
 14 94  1  0  0  0
 15 95  1  0  0  0
 16 17  2  0  0  0
 16 21  1  0  0  0
 16 31  1  0  0  0
 17 18  1  0  0  0
 17 96  1  0  0  0
 18 19  2  0  0  0
 18 97  1  0  0  0
 19 20  1  0  0  0
 19 24  1  0  0  0
 20 21  2  0  0  0
 20 98  1  0  0  0
 21 23  1  0  0  0
 22 28  1  0  0  0
 22 32  2  0  0  0
 26 27  1  0  0  0
 28 99  1  0  0  0
 28100  1  0  0  0
 29101  1  0  0  0
 29102  1  0  0  0
 33 34  1  0  0  0
 33 66  1  0  0  0
 33 70  2  0  0  0
 34 36  1  0  0  0
 34 59  1  0  0  0
 34103  1  0  0  0
 35 44  2  0  0  0
 35 45  1  0  0  0
 35 68  1  0  0  0
 36 56  1  0  0  0
 36104  1  0  0  0
 37 39  1  0  0  0
 37 47  1  0  0  0
 37 66  1  0  0  0
 37105  1  0  0  0
 38 43  2  0  0  0
 38 46  1  0  0  0
 38 47  1  0  0  0
 39 64  1  0  0  0
 39 67  2  0  0  0
 40 52  1  0  0  0
 40 53  2  0  0  0
 40 58  1  0  0  0
 41106  1  0  0  0
 41107  1  0  0  0
 41108  1  0  0  0
 41 48  1  0  0  0
 42 43  1  0  0  0
 42 66  1  0  0  0
 42109  1  0  0  0
 42110  1  0  0  0
 43 44  1  0  0  0
 44111  1  0  0  0
 45 46  2  0  0  0
 45112  1  0  0  0
 46113  1  0  0  0
 47114  1  0  0  0
 47115  1  0  0  0
 48 56  1  0  0  0
 48 65  1  0  0  0
 48116  1  0  0  0
 49 50  1  0  0  0
 49 53  1  0  0  0
 49 64  1  0  0  0
 49117  1  0  0  0
 50 51  1  0  0  0
 50118  1  0  0  0
 50119  1  0  0  0
 51 52  1  0  0  0
 51120  1  0  0  0
 51121  1  0  0  0
 52122  1  0  0  0
 52123  1  0  0  0
 53 54  1  0  0  0
 54 55  2  0  0  0
 54124  1  0  0  0
 55 57  1  0  0  0
 55125  1  0  0  0
 56 69  2  0  0  0
 57 58  2  0  0  0
 57126  1  0  0  0
 58127  1  0  0  0
 59 60  1  0  0  0
 59 61  1  0  0  0
 59 62  1  0  0  0
 60128  1  0  0  0
 60129  1  0  0  0
 60130  1  0  0  0
 61131  1  0  0  0
 61132  1  0  0  0
 61133  1  0  0  0
 62134  1  0  0  0
 62135  1  0  0  0
 62136  1  0  0  0
 63 65  1  0  0  0
 63137  1  0  0  0
 63138  1  0  0  0
 63139  1  0  0  0
 64140  1  0  0  0
 65141  1  0  0  0
 68 79  1  0  0  0
 71 72  2  0  0  0
 71 74  1  0  0  0
 71142  1  0  0  0
 72 81  1  0  0  0
 72143  1  0  0  0
 73 74  2  0  0  0
 73 81  1  0  0  0
 73144  1  0  0  0
 74 80  1  0  0  0
 75145  1  0  0  0
 75146  1  0  0  0
 75147  1  0  0  0
 75 80  1  0  0  0
 76 77  1  0  0  0
 76 79  1  0  0  0
 76148  1  0  0  0
 76149  1  0  0  0
 77 81  1  0  0  0
 77150  1  0  0  0
 77151  1  0  0  0
 78 80  1  0  0  0
 78 82  1  0  0  0
 78152  1  0  0  0
 78153  1  0  0  0
 79154  1  0  0  0
 79155  1  0  0  0
 80156  1  0  0  0
 82157  1  0  0  0
M  ISO  4   1 100  68 101  79 101  82 100
M  END
> <chiral flag>
0

> <version>
0

> <s_m_source_file>
/data/baiqing/PycharmProjects/Reinvent-master-3.2/result/LINK_invent/BTK/process_docking_weight1_custom_sum_contain_oxygen_bond_distance_aromatic_linkinvent_7_9_3/rearranged_h_0080.sdf

> <i_m_source_file_index>
92

> <r_mmod_Potential_Energy-OPLS-2005>
-68.7864685058594

> <r_mmod_Stretch_Energy-OPLS-2005>
46.8601112365723

> <r_mmod_Bend_Energy-OPLS-2005>
115.320297241211

> <r_mmod_Torsional_Energy-OPLS-2005>
247.634719848633

> <r_mmod_Improper_Torsional_Energy-OPLS-2005>
4.69462776184082

> <r_mmod_Van_der_Waal_Energy-OPLS-2005>
114.588249206543

> <r_mmod_Electrostatic_Energy-OPLS-2005>
-411.769622802734

> <r_mmod_Solvation_Energy-OPLS-2005>
-209.201919555664

> <b_mmod_Minimization_Converged-OPLS-2005>
0

> <r_mmod_RMS_Derivative-OPLS-2005>
2.28524780273438

$$$$
95
                    3D
 Structure written by MMmdl.
163171  0  0  1  0            999 V2000
  -30.6700  -14.5079   20.5752 C   0  0  0  0  0  0
  -30.4301  -12.3291   19.4212 C   0  0  0  0  0  0
  -29.4959  -12.5060   18.2049 C   0  0  0  0  0  0
  -28.0181  -12.3555   18.6187 C   0  0  0  0  0  0
  -27.6592  -13.2032   19.8686 C   0  0  2  0  0  0
  -28.7003  -12.9855   20.9893 C   0  0  0  0  0  0
  -25.2581  -13.8144   20.5660 C   0  0  0  0  0  0
  -24.1828  -13.0434   20.9168 C   0  0  0  0  0  0
  -24.6375  -11.6904   20.8720 C   0  0  0  0  0  0
  -23.9041  -10.4292   21.0397 C   0  0  0  0  0  0
  -24.3600   -9.4213   21.9180 C   0  0  0  0  0  0
  -23.6283   -8.2247   22.0754 C   0  0  0  0  0  0
  -22.4267   -8.0273   21.3545 C   0  0  0  0  0  0
  -21.9896   -9.0239   20.4644 C   0  0  0  0  0  0
  -22.7217  -10.2124   20.3048 C   0  0  0  0  0  0
  -21.6849   -6.0732   22.5285 C   0  0  0  0  0  0
  -21.4011   -6.5639   23.8216 C   0  0  0  0  0  0
  -21.3656   -5.6796   24.9178 C   0  0  0  0  0  0
  -21.6045   -4.3060   24.7231 C   0  0  0  0  0  0
  -21.8816   -3.8147   23.4355 C   0  0  0  0  0  0
  -21.9191   -4.6961   22.3409 C   0  0  0  0  0  0
  -22.7852  -13.5240   21.1837 C   0  0  0  0  0  0
  -22.1660   -4.2148   21.0988 F   0  0  0  0  0  0
  -21.5625   -3.4543   25.7741 F   0  0  0  0  0  0
  -30.0285  -13.3123   20.4408 N   0  0  0  0  0  0
  -26.3004  -12.9312   20.3316 N   0  0  0  0  0  0
  -25.9301  -11.6475   20.5737 N   0  0  0  0  0  0
  -22.0485  -12.8230   22.0387 N   0  0  0  0  0  0
  -25.4313  -15.1860   20.4082 N   0  0  0  0  0  0
  -31.7890  -14.7112   20.0965 O   0  0  0  0  0  0
  -21.6636   -6.8871   21.4245 O   0  0  0  0  0  0
  -22.3543  -14.5552   20.6692 O   0  0  0  0  0  0
  -24.6188  -31.8649   23.2059 C   0  0  0  0  0  0
  -25.9073  -32.4798   23.8353 C   0  0  1  0  0  0
  -27.2354  -27.4073   20.0912 C   0  0  0  0  0  0
  -25.5917  -33.8592   24.2302 N   0  0  0  0  0  0
  -23.4066  -30.4895   21.5459 C   0  0  2  0  0  0
  -24.8503  -28.9498   20.1106 C   0  0  0  0  0  0
  -22.7431  -29.4649   22.4948 C   0  0  0  0  0  0
  -18.0278  -28.1398   22.8467 C   0  0  0  0  0  0
  -24.1498  -36.7314   23.2644 C   0  0  0  0  0  0
  -25.9382  -30.8233   21.3595 C   0  0  0  0  0  0
  -26.0112  -29.4550   20.7076 C   0  0  0  0  0  0
  -27.2018  -28.6898   20.6944 C   0  0  0  0  0  0
  -26.0483  -26.9138   19.5041 C   0  0  0  0  0  0
  -24.8642  -27.6792   19.5082 C   0  0  0  0  0  0
  -23.6153  -29.8233   20.1590 C   0  0  0  0  0  0
  -25.4115  -36.3097   24.0345 C   0  0  1  0  0  0
  -20.5876  -28.3689   23.1302 C   0  0  2  0  0  0
  -20.6780  -26.9414   22.5422 C   0  0  0  0  0  0
  -19.5767  -26.6394   21.5211 C   0  0  0  0  0  0
  -18.1930  -26.7941   22.1601 C   0  0  0  0  0  0
  -19.1526  -28.8854   23.2881 C   0  0  0  0  0  0
  -18.9463  -30.1449   23.8910 C   0  0  0  0  0  0
  -17.6468  -30.6592   24.0568 C   0  0  0  0  0  0
  -25.9052  -34.9465   23.5123 C   0  0  0  0  0  0
  -16.5358  -29.9104   23.6326 C   0  0  0  0  0  0
  -16.7266  -28.6528   23.0325 C   0  0  0  0  0  0
  -26.4477  -31.6577   25.0681 C   0  0  0  0  0  0
  -25.3743  -31.3694   26.1432 C   0  0  0  0  0  0
  -27.0312  -30.3023   24.6060 C   0  0  0  0  0  0
  -27.6063  -32.4287   25.7445 C   0  0  0  0  0  0
  -27.5593  -37.1809   24.8468 C   0  0  0  0  0  0
  -21.4158  -29.3038   22.3695 N   0  0  0  0  0  0
  -26.4305  -37.3784   23.9412 N   0  0  0  0  0  0
  -24.6735  -31.0730   22.0959 N   0  0  0  0  0  0
  -23.4186  -28.8176   23.2997 O   0  0  0  0  0  0
  -28.4264  -26.6996   20.1145 O   0  0  0  0  0  0
  -26.5616  -34.8928   22.4684 O   0  0  0  0  0  0
  -23.5377  -32.1404   23.7450 O   0  0  0  0  0  0
  -29.2823  -20.3839   20.0270 C   0  0  0  0  0  0
  -28.4527  -21.5246   20.1414 C   0  0  0  0  0  0
  -28.7627  -19.1376   20.4492 C   0  0  0  0  0  0
  -26.8291  -20.2092   21.0810 C   0  0  0  0  0  0
  -25.4670  -20.1075   21.7308 C   0  0  0  0  0  0
  -29.4224  -17.2589   22.7171 C   0  0  0  0  0  0
  -31.5886  -17.3432   21.5137 C   0  0  0  0  0  0
  -28.8020  -22.8732   19.4911 C   0  0  0  0  0  0
  -29.4611  -17.7779   20.1760 C   0  0  0  0  0  0
  -28.3534  -24.1694   20.2374 C   0  0  0  0  0  0
  -28.5893  -25.4577   19.3992 C   0  0  0  0  0  0
  -30.1000  -16.9524   21.3650 C   0  0  0  0  0  0
  -27.2194  -21.4105   20.6681 N   0  0  0  0  0  0
  -27.5222  -19.0817   20.9740 N   0  0  0  0  0  0
  -29.9255  -15.4816   21.1536 N   0  0  0  0  0  0
  -31.4731  -12.4435   19.1193 H   0  0  0  0  0  0
  -30.3464  -11.3186   19.8244 H   0  0  0  0  0  0
  -29.7420  -11.7764   17.4322 H   0  0  0  0  0  0
  -29.6525  -13.4886   17.7570 H   0  0  0  0  0  0
  -27.8407  -11.2989   18.8258 H   0  0  0  0  0  0
  -27.3643  -12.6113   17.7841 H   0  0  0  0  0  0
  -27.7005  -14.2495   19.5652 H   0  0  0  0  0  0
  -28.6860  -11.9443   21.3154 H   0  0  0  0  0  0
  -28.4510  -13.5671   21.8776 H   0  0  0  0  0  0
  -25.2745   -9.5694   22.4753 H   0  0  0  0  0  0
  -23.9993   -7.4640   22.7477 H   0  0  0  0  0  0
  -21.0830   -8.8750   19.8949 H   0  0  0  0  0  0
  -22.3673  -10.9655   19.6150 H   0  0  0  0  0  0
  -21.2006   -7.6143   23.9717 H   0  0  0  0  0  0
  -21.1478   -6.0526   25.9079 H   0  0  0  0  0  0
  -22.0598   -2.7609   23.2857 H   0  0  0  0  0  0
  -22.4090  -11.9892   22.4784 H   0  0  0  0  0  0
  -21.1094  -13.1246   22.2577 H   0  0  0  0  0  0
  -24.6678  -15.8430   20.5256 H   0  0  0  0  0  0
  -26.2884  -15.6294   20.1035 H   0  0  0  0  0  0
  -26.7133  -32.5494   23.1112 H   0  0  0  0  0  0
  -25.0061  -33.9737   25.0445 H   0  0  0  0  0  0
  -22.6972  -31.3074   21.4055 H   0  0  0  0  0  0
  -23.3751  -35.9659   23.3311 H   0  0  0  0  0  0
  -24.3585  -36.8924   22.2054 H   0  0  0  0  0  0
  -23.7261  -37.6531   23.6646 H   0  0  0  0  0  0
  -26.0547  -31.5894   20.5905 H   0  0  0  0  0  0
  -26.8256  -30.8745   21.9790 H   0  0  0  0  0  0
  -28.1002  -29.0806   21.1511 H   0  0  0  0  0  0
  -26.0081  -25.9341   19.0515 H   0  0  0  0  0  0
  -23.9675  -27.2816   19.0508 H   0  0  0  0  0  0
  -23.7300  -30.6010   19.4029 H   0  0  0  0  0  0
  -22.7378  -29.2497   19.8562 H   0  0  0  0  0  0
  -25.1280  -36.1965   25.0839 H   0  0  0  0  0  0
  -20.9954  -28.3274   24.1429 H   0  0  0  0  0  0
  -20.5713  -26.2288   23.3612 H   0  0  0  0  0  0
  -21.6644  -26.7488   22.1191 H   0  0  0  0  0  0
  -19.6959  -25.6314   21.1232 H   0  0  0  0  0  0
  -19.6733  -27.3213   20.6744 H   0  0  0  0  0  0
  -17.4211  -26.6693   21.3981 H   0  0  0  0  0  0
  -18.0316  -26.0088   22.8998 H   0  0  0  0  0  0
  -19.7947  -30.7237   24.2296 H   0  0  0  0  0  0
  -17.5038  -31.6271   24.5172 H   0  0  0  0  0  0
  -15.5359  -30.3013   23.7656 H   0  0  0  0  0  0
  -15.8663  -28.0865   22.7023 H   0  0  0  0  0  0
  -24.5931  -30.7021   25.7770 H   0  0  0  0  0  0
  -24.8912  -32.2854   26.4841 H   0  0  0  0  0  0
  -25.8089  -30.8890   27.0209 H   0  0  0  0  0  0
  -26.2846  -29.6765   24.1161 H   0  0  0  0  0  0
  -27.4152  -29.7258   25.4485 H   0  0  0  0  0  0
  -27.8643  -30.4334   23.9153 H   0  0  0  0  0  0
  -27.2694  -33.3585   26.2032 H   0  0  0  0  0  0
  -28.3861  -32.6848   25.0262 H   0  0  0  0  0  0
  -28.0744  -31.8401   26.5348 H   0  0  0  0  0  0
  -28.2600  -38.0110   24.7482 H   0  0  0  0  0  0
  -28.1091  -36.2638   24.6308 H   0  0  0  0  0  0
  -27.2311  -37.1470   25.8872 H   0  0  0  0  0  0
  -20.9335  -29.8780   21.6925 H   0  0  0  0  0  0
  -26.0201  -38.2874   24.1393 H   0  0  0  0  0  0
  -30.2547  -20.4503   19.5561 H   0  0  0  0  0  0
  -24.8938  -21.0284   21.6167 H   0  0  0  0  0  0
  -25.5826  -19.9078   22.7960 H   0  0  0  0  0  0
  -24.8906  -19.2945   21.2892 H   0  0  0  0  0  0
  -29.5056  -18.3141   22.9828 H   0  0  0  0  0  0
  -29.8784  -16.6917   23.5290 H   0  0  0  0  0  0
  -28.3599  -17.0092   22.7009 H   0  0  0  0  0  0
  -31.6944  -18.3972   21.7770 H   0  0  0  0  0  0
  -32.1501  -17.1969   20.5907 H   0  0  0  0  0  0
  -32.0803  -16.7652   22.2971 H   0  0  0  0  0  0
  -28.3715  -22.8669   18.4889 H   0  0  0  0  0  0
  -29.8821  -22.9111   19.3488 H   0  0  0  0  0  0
  -30.2012  -17.9265   19.3888 H   0  0  0  0  0  0
  -28.6975  -17.1587   19.7029 H   0  0  0  0  0  0
  -28.8867  -24.2362   21.1851 H   0  0  0  0  0  0
  -27.2944  -24.1067   20.4858 H   0  0  0  0  0  0
  -28.0126  -25.4366   18.4738 H   0  0  0  0  0  0
  -29.6285  -25.4500   19.0697 H   0  0  0  0  0  0
  -29.0311  -15.1325   21.4658 H   0  0  0  0  0  0
  1 25  1  0  0  0
  1 30  2  0  0  0
  1 85  1  0  0  0
  2  3  1  0  0  0
  2 25  1  0  0  0
  2 86  1  0  0  0
  2 87  1  0  0  0
  3  4  1  0  0  0
  3 88  1  0  0  0
  3 89  1  0  0  0
  4  5  1  0  0  0
  4 90  1  0  0  0
  4 91  1  0  0  0
  5  6  1  0  0  0
  5 26  1  0  0  0
  5 92  1  0  0  0
  6 25  1  0  0  0
  6 93  1  0  0  0
  6 94  1  0  0  0
  7  8  2  0  0  0
  7 26  1  0  0  0
  7 29  1  0  0  0
  8  9  1  0  0  0
  8 22  1  0  0  0
  9 10  1  0  0  0
  9 27  2  0  0  0
 10 11  2  0  0  0
 10 15  1  0  0  0
 11 12  1  0  0  0
 11 95  1  0  0  0
 12 13  2  0  0  0
 12 96  1  0  0  0
 13 14  1  0  0  0
 13 31  1  0  0  0
 14 15  2  0  0  0
 14 97  1  0  0  0
 15 98  1  0  0  0
 16 17  2  0  0  0
 16 21  1  0  0  0
 16 31  1  0  0  0
 17 18  1  0  0  0
 17 99  1  0  0  0
 18 19  2  0  0  0
 18100  1  0  0  0
 19 20  1  0  0  0
 19 24  1  0  0  0
 20 21  2  0  0  0
 20101  1  0  0  0
 21 23  1  0  0  0
 22 28  1  0  0  0
 22 32  2  0  0  0
 26 27  1  0  0  0
 28102  1  0  0  0
 28103  1  0  0  0
 29104  1  0  0  0
 29105  1  0  0  0
 33 34  1  0  0  0
 33 66  1  0  0  0
 33 70  2  0  0  0
 34 36  1  0  0  0
 34 59  1  0  0  0
 34106  1  0  0  0
 35 44  2  0  0  0
 35 45  1  0  0  0
 35 68  1  0  0  0
 36 56  1  0  0  0
 36107  1  0  0  0
 37 39  1  0  0  0
 37 47  1  0  0  0
 37 66  1  0  0  0
 37108  1  0  0  0
 38 43  2  0  0  0
 38 46  1  0  0  0
 38 47  1  0  0  0
 39 64  1  0  0  0
 39 67  2  0  0  0
 40 52  1  0  0  0
 40 53  2  0  0  0
 40 58  1  0  0  0
 41109  1  0  0  0
 41110  1  0  0  0
 41111  1  0  0  0
 41 48  1  0  0  0
 42 43  1  0  0  0
 42 66  1  0  0  0
 42112  1  0  0  0
 42113  1  0  0  0
 43 44  1  0  0  0
 44114  1  0  0  0
 45 46  2  0  0  0
 45115  1  0  0  0
 46116  1  0  0  0
 47117  1  0  0  0
 47118  1  0  0  0
 48 56  1  0  0  0
 48 65  1  0  0  0
 48119  1  0  0  0
 49 50  1  0  0  0
 49 53  1  0  0  0
 49 64  1  0  0  0
 49120  1  0  0  0
 50 51  1  0  0  0
 50121  1  0  0  0
 50122  1  0  0  0
 51 52  1  0  0  0
 51123  1  0  0  0
 51124  1  0  0  0
 52125  1  0  0  0
 52126  1  0  0  0
 53 54  1  0  0  0
 54 55  2  0  0  0
 54127  1  0  0  0
 55 57  1  0  0  0
 55128  1  0  0  0
 56 69  2  0  0  0
 57 58  2  0  0  0
 57129  1  0  0  0
 58130  1  0  0  0
 59 60  1  0  0  0
 59 61  1  0  0  0
 59 62  1  0  0  0
 60131  1  0  0  0
 60132  1  0  0  0
 60133  1  0  0  0
 61134  1  0  0  0
 61135  1  0  0  0
 61136  1  0  0  0
 62137  1  0  0  0
 62138  1  0  0  0
 62139  1  0  0  0
 63 65  1  0  0  0
 63140  1  0  0  0
 63141  1  0  0  0
 63142  1  0  0  0
 64143  1  0  0  0
 65144  1  0  0  0
 68 81  1  0  0  0
 71 72  2  0  0  0
 71 73  1  0  0  0
 71145  1  0  0  0
 72 78  1  0  0  0
 72 83  1  0  0  0
 73 79  1  0  0  0
 73 84  2  0  0  0
 74 75  1  0  0  0
 74 83  2  0  0  0
 74 84  1  0  0  0
 75146  1  0  0  0
 75147  1  0  0  0
 75148  1  0  0  0
 76149  1  0  0  0
 76150  1  0  0  0
 76151  1  0  0  0
 76 82  1  0  0  0
 77 82  1  0  0  0
 77152  1  0  0  0
 77153  1  0  0  0
 77154  1  0  0  0
 78 80  1  0  0  0
 78155  1  0  0  0
 78156  1  0  0  0
 79 82  1  0  0  0
 79157  1  0  0  0
 79158  1  0  0  0
 80 81  1  0  0  0
 80159  1  0  0  0
 80160  1  0  0  0
 81161  1  0  0  0
 81162  1  0  0  0
 82 85  1  0  0  0
 85163  1  0  0  0
M  ISO  4   1 100  68 101  81 101  85 100
M  END
> <chiral flag>
0

> <version>
0

> <s_m_source_file>
/data/baiqing/PycharmProjects/Reinvent-master-3.2/result/LINK_invent/BTK/process_docking_weight1_custom_sum_contain_oxygen_bond_distance_aromatic_linkinvent_7_9_3/rearranged_h_0080.sdf

> <i_m_source_file_index>
93

> <r_mmod_Potential_Energy-OPLS-2005>
-393.963623046875

> <r_mmod_Stretch_Energy-OPLS-2005>
47.0439414978027

> <r_mmod_Bend_Energy-OPLS-2005>
132.6142578125

> <r_mmod_Torsional_Energy-OPLS-2005>
179.638641357422

> <r_mmod_Improper_Torsional_Energy-OPLS-2005>
4.52612781524658

> <r_mmod_Van_der_Waal_Energy-OPLS-2005>
155.983856201172

> <r_mmod_Electrostatic_Energy-OPLS-2005>
-712.413940429688

> <r_mmod_Solvation_Energy-OPLS-2005>
-217.786193847656

> <b_mmod_Minimization_Converged-OPLS-2005>
0

> <r_mmod_RMS_Derivative-OPLS-2005>
1.85561525821686

$$$$
96
                    3D
 Structure written by MMmdl.
168176  0  0  1  0            999 V2000
  -30.7272  -14.3990   20.6045 C   0  0  0  0  0  0
  -30.4169  -12.2610   19.4216 C   0  0  0  0  0  0
  -29.4986  -12.4957   18.2045 C   0  0  0  0  0  0
  -28.0182  -12.3516   18.6136 C   0  0  0  0  0  0
  -27.6633  -13.1925   19.8707 C   0  0  2  0  0  0
  -28.6999  -12.9455   20.9946 C   0  0  0  0  0  0
  -25.2524  -13.8078   20.5516 C   0  0  0  0  0  0
  -24.1798  -13.0391   20.9130 C   0  0  0  0  0  0
  -24.6378  -11.6869   20.8715 C   0  0  0  0  0  0
  -23.9067  -10.4266   21.0398 C   0  0  0  0  0  0
  -24.3644   -9.4174   21.9165 C   0  0  0  0  0  0
  -23.6293   -8.2235   22.0767 C   0  0  0  0  0  0
  -22.4272   -8.0298   21.3556 C   0  0  0  0  0  0
  -21.9894   -9.0271   20.4656 C   0  0  0  0  0  0
  -22.7254  -10.2121   20.3035 C   0  0  0  0  0  0
  -21.6851   -6.0735   22.5284 C   0  0  0  0  0  0
  -21.3998   -6.5625   23.8221 C   0  0  0  0  0  0
  -21.3664   -5.6781   24.9180 C   0  0  0  0  0  0
  -21.6044   -4.3048   24.7240 C   0  0  0  0  0  0
  -21.8825   -3.8139   23.4361 C   0  0  0  0  0  0
  -21.9198   -4.6959   22.3410 C   0  0  0  0  0  0
  -22.7831  -13.5244   21.1824 C   0  0  0  0  0  0
  -22.1667   -4.2129   21.0993 F   0  0  0  0  0  0
  -21.5633   -3.4546   25.7759 F   0  0  0  0  0  0
  -30.0459  -13.2318   20.4595 N   0  0  0  0  0  0
  -26.2992  -12.9264   20.3265 N   0  0  0  0  0  0
  -25.9280  -11.6438   20.5673 N   0  0  0  0  0  0
  -22.0510  -12.8240   22.0424 N   0  0  0  0  0  0
  -25.4111  -15.1754   20.3735 N   0  0  0  0  0  0
  -31.8046  -14.6343   20.0538 O   0  0  0  0  0  0
  -21.6639   -6.8882   21.4253 O   0  0  0  0  0  0
  -22.3508  -14.5574   20.6740 O   0  0  0  0  0  0
  -24.6154  -31.8689   23.2148 C   0  0  0  0  0  0
  -25.9036  -32.4830   23.8443 C   0  0  1  0  0  0
  -27.2425  -27.4636   20.0812 C   0  0  0  0  0  0
  -25.5899  -33.8629   24.2345 N   0  0  0  0  0  0
  -23.4024  -30.4976   21.5511 C   0  0  2  0  0  0
  -24.8469  -28.9606   20.1199 C   0  0  0  0  0  0
  -22.7407  -29.4711   22.4987 C   0  0  0  0  0  0
  -18.0293  -28.1386   22.8493 C   0  0  0  0  0  0
  -24.1478  -36.7313   23.2643 C   0  0  0  0  0  0
  -25.9335  -30.8352   21.3750 C   0  0  0  0  0  0
  -26.0044  -29.4727   20.7206 C   0  0  0  0  0  0
  -27.1992  -28.7241   20.7114 C   0  0  0  0  0  0
  -26.0647  -26.9519   19.4940 C   0  0  0  0  0  0
  -24.8673  -27.6919   19.5126 C   0  0  0  0  0  0
  -23.6102  -29.8273   20.1669 C   0  0  0  0  0  0
  -25.4104  -36.3114   24.0338 C   0  0  1  0  0  0
  -20.5889  -28.3702   23.1318 C   0  0  2  0  0  0
  -20.6823  -26.9463   22.5375 C   0  0  0  0  0  0
  -19.5816  -26.6497   21.5148 C   0  0  0  0  0  0
  -18.1967  -26.8007   22.1512 C   0  0  0  0  0  0
  -19.1532  -28.8840   23.2935 C   0  0  0  0  0  0
  -18.9447  -30.1442   23.8972 C   0  0  0  0  0  0
  -17.6449  -30.6586   24.0582 C   0  0  0  0  0  0
  -25.9045  -34.9477   23.5135 C   0  0  0  0  0  0
  -16.5353  -29.9081   23.6311 C   0  0  0  0  0  0
  -16.7278  -28.6506   23.0332 C   0  0  0  0  0  0
  -26.4465  -31.6646   25.0791 C   0  0  0  0  0  0
  -25.3714  -31.3791   26.1542 C   0  0  0  0  0  0
  -27.0334  -30.3084   24.6223 C   0  0  0  0  0  0
  -27.6044  -32.4393   25.7525 C   0  0  0  0  0  0
  -27.5581  -37.1819   24.8462 C   0  0  0  0  0  0
  -21.4142  -29.3090   22.3730 N   0  0  0  0  0  0
  -26.4297  -37.3780   23.9408 N   0  0  0  0  0  0
  -24.6678  -31.0827   22.1038 N   0  0  0  0  0  0
  -23.4172  -28.8232   23.3016 O   0  0  0  0  0  0
  -28.4247  -26.7637   20.0759 O   0  0  0  0  0  0
  -26.5590  -34.8919   22.4702 O   0  0  0  0  0  0
  -23.5340  -32.1438   23.7549 O   0  0  0  0  0  0
  -29.2533  -20.9833   19.0158 C   0  0  0  0  0  0
  -28.1782  -21.6034   18.4322 C   0  0  0  0  0  0
  -27.0571  -20.9833   19.0518 C   0  0  0  0  0  0
  -25.5939  -21.1975   18.7754 C   0  0  0  0  0  0
  -29.1483  -17.1741   19.0969 C   0  0  0  0  0  0
  -27.8552  -17.2525   21.2578 C   0  0  0  0  0  0
  -28.1547  -22.6508   17.3465 C   0  0  0  0  0  0
  -27.7933  -24.0597   17.8494 C   0  0  0  0  0  0
  -28.8180  -24.6666   18.8276 C   0  0  0  0  0  0
  -29.5292  -19.1085   20.7372 C   0  0  0  0  0  0
  -30.3352  -16.7767   21.3069 C   0  0  0  0  0  0
  -28.8414  -26.2100   18.8304 C   0  0  0  0  0  0
  -29.2102  -17.5846   20.5898 C   0  0  0  0  0  0
  -27.4153  -20.0796   19.9484 N   0  0  0  0  0  0
  -28.7652  -20.0347   19.8945 N   0  0  0  0  0  0
  -30.0788  -15.3325   21.3103 N   0  0  0  0  0  0
  -31.4660  -12.3304   19.1367 H   0  0  0  0  0  0
  -30.2880  -11.2458   19.8014 H   0  0  0  0  0  0
  -29.7388  -11.7873   17.4101 H   0  0  0  0  0  0
  -29.6725  -13.4879   17.7853 H   0  0  0  0  0  0
  -27.8352  -11.2928   18.8133 H   0  0  0  0  0  0
  -27.3625  -12.6196   17.7834 H   0  0  0  0  0  0
  -27.7183  -14.2405   19.5831 H   0  0  0  0  0  0
  -28.6504  -11.9071   21.3246 H   0  0  0  0  0  0
  -28.4493  -13.5320   21.8792 H   0  0  0  0  0  0
  -25.2817   -9.5629   22.4716 H   0  0  0  0  0  0
  -24.0005   -7.4629   22.7493 H   0  0  0  0  0  0
  -21.0831   -8.8830   19.8955 H   0  0  0  0  0  0
  -22.3786  -10.9677   19.6133 H   0  0  0  0  0  0
  -21.1972   -7.6130   23.9719 H   0  0  0  0  0  0
  -21.1465   -6.0497   25.9073 H   0  0  0  0  0  0
  -22.0584   -2.7602   23.2874 H   0  0  0  0  0  0
  -22.4197  -11.9922   22.4761 H   0  0  0  0  0  0
  -21.1134  -13.1220   22.2726 H   0  0  0  0  0  0
  -24.6349  -15.8212   20.4616 H   0  0  0  0  0  0
  -26.2576  -15.6095   20.0298 H   0  0  0  0  0  0
  -26.7126  -32.5495   23.1232 H   0  0  0  0  0  0
  -25.0114  -33.9792   25.0524 H   0  0  0  0  0  0
  -22.6927  -31.3159   21.4086 H   0  0  0  0  0  0
  -23.3733  -35.9655   23.3335 H   0  0  0  0  0  0
  -24.3589  -36.8888   22.2056 H   0  0  0  0  0  0
  -23.7220  -37.6523   23.6639 H   0  0  0  0  0  0
  -26.0645  -31.6053   20.6128 H   0  0  0  0  0  0
  -26.8132  -30.8694   22.0078 H   0  0  0  0  0  0
  -28.0962  -29.1147   21.1705 H   0  0  0  0  0  0
  -26.0602  -25.9786   19.0297 H   0  0  0  0  0  0
  -23.9726  -27.2801   19.0625 H   0  0  0  0  0  0
  -23.7228  -30.5959   19.4020 H   0  0  0  0  0  0
  -22.7324  -29.2496   19.8705 H   0  0  0  0  0  0
  -25.1281  -36.2024   25.0824 H   0  0  0  0  0  0
  -21.0001  -28.3250   24.1429 H   0  0  0  0  0  0
  -20.5711  -26.2310   23.3527 H   0  0  0  0  0  0
  -21.6708  -26.7510   22.1177 H   0  0  0  0  0  0
  -19.7017  -25.6445   21.1100 H   0  0  0  0  0  0
  -19.6777  -27.3381   20.6729 H   0  0  0  0  0  0
  -17.4321  -26.6915   21.3809 H   0  0  0  0  0  0
  -18.0254  -26.0036   22.8758 H   0  0  0  0  0  0
  -19.7904  -30.7251   24.2387 H   0  0  0  0  0  0
  -17.4967  -31.6259   24.5201 H   0  0  0  0  0  0
  -15.5346  -30.2983   23.7600 H   0  0  0  0  0  0
  -15.8669  -28.0842   22.7034 H   0  0  0  0  0  0
  -24.5843  -30.7192   25.7887 H   0  0  0  0  0  0
  -24.8965  -32.2962   26.5029 H   0  0  0  0  0  0
  -25.8037  -30.8927   27.0291 H   0  0  0  0  0  0
  -26.2932  -29.6841   24.1212 H   0  0  0  0  0  0
  -27.4016  -29.7348   25.4740 H   0  0  0  0  0  0
  -27.8792  -30.4416   23.9477 H   0  0  0  0  0  0
  -27.2664  -33.3674   26.2160 H   0  0  0  0  0  0
  -28.3805  -32.7003   25.0312 H   0  0  0  0  0  0
  -28.0786  -31.8505   26.5391 H   0  0  0  0  0  0
  -28.2621  -38.0095   24.7504 H   0  0  0  0  0  0
  -28.1055  -36.2632   24.6307 H   0  0  0  0  0  0
  -27.2317  -37.1502   25.8867 H   0  0  0  0  0  0
  -20.9300  -29.8840   21.6976 H   0  0  0  0  0  0
  -26.0207  -38.2868   24.1383 H   0  0  0  0  0  0
  -30.3163  -21.1158   18.8644 H   0  0  0  0  0  0
  -25.2596  -20.5809   17.9422 H   0  0  0  0  0  0
  -25.3719  -22.2319   18.5186 H   0  0  0  0  0  0
  -24.9848  -20.9459   19.6418 H   0  0  0  0  0  0
  -28.4235  -17.7644   18.5384 H   0  0  0  0  0  0
  -28.8503  -16.1342   18.9794 H   0  0  0  0  0  0
  -30.1154  -17.2913   18.6116 H   0  0  0  0  0  0
  -27.0118  -17.6693   20.7133 H   0  0  0  0  0  0
  -27.7982  -17.6431   22.2740 H   0  0  0  0  0  0
  -27.6756  -16.1809   21.3210 H   0  0  0  0  0  0
  -27.4288  -22.3718   16.5825 H   0  0  0  0  0  0
  -29.1113  -22.6953   16.8220 H   0  0  0  0  0  0
  -26.8042  -24.0514   18.3095 H   0  0  0  0  0  0
  -27.7075  -24.7003   16.9702 H   0  0  0  0  0  0
  -29.8139  -24.3300   18.5342 H   0  0  0  0  0  0
  -28.6615  -24.2782   19.8360 H   0  0  0  0  0  0
  -30.5842  -19.2672   20.5027 H   0  0  0  0  0  0
  -29.4042  -19.4185   21.7765 H   0  0  0  0  0  0
  -31.2981  -16.9999   20.8465 H   0  0  0  0  0  0
  -30.4177  -17.1027   22.3435 H   0  0  0  0  0  0
  -29.8734  -26.5337   18.6896 H   0  0  0  0  0  0
  -28.3004  -26.6343   17.9828 H   0  0  0  0  0  0
  -29.2250  -15.0317   21.7539 H   0  0  0  0  0  0
  1 25  1  0  0  0
  1 30  2  0  0  0
  1 86  1  0  0  0
  2  3  1  0  0  0
  2 25  1  0  0  0
  2 87  1  0  0  0
  2 88  1  0  0  0
  3  4  1  0  0  0
  3 89  1  0  0  0
  3 90  1  0  0  0
  4  5  1  0  0  0
  4 91  1  0  0  0
  4 92  1  0  0  0
  5  6  1  0  0  0
  5 26  1  0  0  0
  5 93  1  0  0  0
  6 25  1  0  0  0
  6 94  1  0  0  0
  6 95  1  0  0  0
  7  8  2  0  0  0
  7 26  1  0  0  0
  7 29  1  0  0  0
  8  9  1  0  0  0
  8 22  1  0  0  0
  9 10  1  0  0  0
  9 27  2  0  0  0
 10 11  2  0  0  0
 10 15  1  0  0  0
 11 12  1  0  0  0
 11 96  1  0  0  0
 12 13  2  0  0  0
 12 97  1  0  0  0
 13 14  1  0  0  0
 13 31  1  0  0  0
 14 15  2  0  0  0
 14 98  1  0  0  0
 15 99  1  0  0  0
 16 17  2  0  0  0
 16 21  1  0  0  0
 16 31  1  0  0  0
 17 18  1  0  0  0
 17100  1  0  0  0
 18 19  2  0  0  0
 18101  1  0  0  0
 19 20  1  0  0  0
 19 24  1  0  0  0
 20 21  2  0  0  0
 20102  1  0  0  0
 21 23  1  0  0  0
 22 28  1  0  0  0
 22 32  2  0  0  0
 26 27  1  0  0  0
 28103  1  0  0  0
 28104  1  0  0  0
 29105  1  0  0  0
 29106  1  0  0  0
 33 34  1  0  0  0
 33 66  1  0  0  0
 33 70  2  0  0  0
 34 36  1  0  0  0
 34 59  1  0  0  0
 34107  1  0  0  0
 35 44  2  0  0  0
 35 45  1  0  0  0
 35 68  1  0  0  0
 36 56  1  0  0  0
 36108  1  0  0  0
 37 39  1  0  0  0
 37 47  1  0  0  0
 37 66  1  0  0  0
 37109  1  0  0  0
 38 43  2  0  0  0
 38 46  1  0  0  0
 38 47  1  0  0  0
 39 64  1  0  0  0
 39 67  2  0  0  0
 40 52  1  0  0  0
 40 53  2  0  0  0
 40 58  1  0  0  0
 41110  1  0  0  0
 41111  1  0  0  0
 41112  1  0  0  0
 41 48  1  0  0  0
 42 43  1  0  0  0
 42 66  1  0  0  0
 42113  1  0  0  0
 42114  1  0  0  0
 43 44  1  0  0  0
 44115  1  0  0  0
 45 46  2  0  0  0
 45116  1  0  0  0
 46117  1  0  0  0
 47118  1  0  0  0
 47119  1  0  0  0
 48 56  1  0  0  0
 48 65  1  0  0  0
 48120  1  0  0  0
 49 50  1  0  0  0
 49 53  1  0  0  0
 49 64  1  0  0  0
 49121  1  0  0  0
 50 51  1  0  0  0
 50122  1  0  0  0
 50123  1  0  0  0
 51 52  1  0  0  0
 51124  1  0  0  0
 51125  1  0  0  0
 52126  1  0  0  0
 52127  1  0  0  0
 53 54  1  0  0  0
 54 55  2  0  0  0
 54128  1  0  0  0
 55 57  1  0  0  0
 55129  1  0  0  0
 56 69  2  0  0  0
 57 58  2  0  0  0
 57130  1  0  0  0
 58131  1  0  0  0
 59 60  1  0  0  0
 59 61  1  0  0  0
 59 62  1  0  0  0
 60132  1  0  0  0
 60133  1  0  0  0
 60134  1  0  0  0
 61135  1  0  0  0
 61136  1  0  0  0
 61137  1  0  0  0
 62138  1  0  0  0
 62139  1  0  0  0
 62140  1  0  0  0
 63 65  1  0  0  0
 63141  1  0  0  0
 63142  1  0  0  0
 63143  1  0  0  0
 64144  1  0  0  0
 65145  1  0  0  0
 68 82  1  0  0  0
 71 72  2  0  0  0
 71 85  1  0  0  0
 71146  1  0  0  0
 72 73  1  0  0  0
 72 77  1  0  0  0
 73 74  1  0  0  0
 73 84  2  0  0  0
 74147  1  0  0  0
 74148  1  0  0  0
 74149  1  0  0  0
 75150  1  0  0  0
 75151  1  0  0  0
 75152  1  0  0  0
 75 83  1  0  0  0
 76 83  1  0  0  0
 76153  1  0  0  0
 76154  1  0  0  0
 76155  1  0  0  0
 77 78  1  0  0  0
 77156  1  0  0  0
 77157  1  0  0  0
 78 79  1  0  0  0
 78158  1  0  0  0
 78159  1  0  0  0
 79 82  1  0  0  0
 79160  1  0  0  0
 79161  1  0  0  0
 80 83  1  0  0  0
 80 85  1  0  0  0
 80162  1  0  0  0
 80163  1  0  0  0
 81 83  1  0  0  0
 81 86  1  0  0  0
 81164  1  0  0  0
 81165  1  0  0  0
 82166  1  0  0  0
 82167  1  0  0  0
 84 85  1  0  0  0
 86168  1  0  0  0
M  ISO  4   1 100  68 101  82 101  86 100
M  END
> <chiral flag>
0

> <version>
0

> <s_m_source_file>
/data/baiqing/PycharmProjects/Reinvent-master-3.2/result/LINK_invent/BTK/process_docking_weight1_custom_sum_contain_oxygen_bond_distance_aromatic_linkinvent_7_9_3/rearranged_h_0080.sdf

> <i_m_source_file_index>
94

> <r_mmod_Potential_Energy-OPLS-2005>
-121.208320617676

> <r_mmod_Stretch_Energy-OPLS-2005>
34.2420272827148

> <r_mmod_Bend_Energy-OPLS-2005>
100.322776794434

> <r_mmod_Torsional_Energy-OPLS-2005>
244.706314086914

> <r_mmod_Improper_Torsional_Energy-OPLS-2005>
3.51841902732849

> <r_mmod_Van_der_Waal_Energy-OPLS-2005>
126.410995483398

> <r_mmod_Electrostatic_Energy-OPLS-2005>
-430.610778808594

> <r_mmod_Solvation_Energy-OPLS-2005>
-208.801116943359

> <b_mmod_Minimization_Converged-OPLS-2005>
0

> <r_mmod_RMS_Derivative-OPLS-2005>
4.74133491516113

$$$$
97
                    3D
 Structure written by MMmdl.
163171  0  0  1  0            999 V2000
  -30.7380  -14.3981   20.6514 C   0  0  0  0  0  0
  -30.4275  -12.3062   19.3905 C   0  0  0  0  0  0
  -29.4891  -12.5346   18.1884 C   0  0  0  0  0  0
  -28.0090  -12.4078   18.6075 C   0  0  0  0  0  0
  -27.6696  -13.2176   19.8884 C   0  0  2  0  0  0
  -28.7113  -12.9400   20.9957 C   0  0  0  0  0  0
  -25.2572  -13.8216   20.5649 C   0  0  0  0  0  0
  -24.1857  -13.0485   20.9172 C   0  0  0  0  0  0
  -24.6432  -11.6941   20.8761 C   0  0  0  0  0  0
  -23.9106  -10.4322   21.0417 C   0  0  0  0  0  0
  -24.3626   -9.4201   21.9210 C   0  0  0  0  0  0
  -23.6280   -8.2234   22.0757 C   0  0  0  0  0  0
  -22.4261   -8.0290   21.3556 C   0  0  0  0  0  0
  -21.9915   -9.0276   20.4653 C   0  0  0  0  0  0
  -22.7263  -10.2152   20.3062 C   0  0  0  0  0  0
  -21.6849   -6.0729   22.5276 C   0  0  0  0  0  0
  -21.3992   -6.5626   23.8209 C   0  0  0  0  0  0
  -21.3673   -5.6776   24.9176 C   0  0  0  0  0  0
  -21.6012   -4.3038   24.7227 C   0  0  0  0  0  0
  -21.8842   -3.8136   23.4362 C   0  0  0  0  0  0
  -21.9177   -4.6939   22.3407 C   0  0  0  0  0  0
  -22.7840  -13.5247   21.1833 C   0  0  0  0  0  0
  -22.1648   -4.2105   21.0985 F   0  0  0  0  0  0
  -21.5632   -3.4534   25.7758 F   0  0  0  0  0  0
  -30.0552  -13.2396   20.4638 N   0  0  0  0  0  0
  -26.3065  -12.9422   20.3441 N   0  0  0  0  0  0
  -25.9360  -11.6570   20.5802 N   0  0  0  0  0  0
  -22.0448  -12.8262   22.0360 N   0  0  0  0  0  0
  -25.4274  -15.1965   20.3994 N   0  0  0  0  0  0
  -31.7600  -14.6993   20.0290 O   0  0  0  0  0  0
  -21.6636   -6.8880   21.4244 O   0  0  0  0  0  0
  -22.3528  -14.5548   20.6618 O   0  0  0  0  0  0
  -24.6133  -31.8662   23.2044 C   0  0  0  0  0  0
  -25.9035  -32.4824   23.8330 C   0  0  1  0  0  0
  -27.2417  -27.4262   20.1119 C   0  0  0  0  0  0
  -25.5878  -33.8620   24.2253 N   0  0  0  0  0  0
  -23.4024  -30.4890   21.5412 C   0  0  2  0  0  0
  -24.8566  -28.9573   20.1046 C   0  0  0  0  0  0
  -22.7367  -29.4660   22.4915 C   0  0  0  0  0  0
  -18.0245  -28.1316   22.8499 C   0  0  0  0  0  0
  -24.1479  -36.7316   23.2651 C   0  0  0  0  0  0
  -25.9321  -30.8342   21.3548 C   0  0  0  0  0  0
  -26.0154  -29.4677   20.7072 C   0  0  0  0  0  0
  -27.2086  -28.7083   20.7085 C   0  0  0  0  0  0
  -26.0676  -26.9414   19.4875 C   0  0  0  0  0  0
  -24.8774  -27.6935   19.4855 C   0  0  0  0  0  0
  -23.6084  -29.8110   20.1582 C   0  0  0  0  0  0
  -25.4098  -36.3123   24.0346 C   0  0  1  0  0  0
  -20.5839  -28.3617   23.1253 C   0  0  2  0  0  0
  -20.6729  -26.9376   22.5427 C   0  0  0  0  0  0
  -19.5724  -26.6336   21.5187 C   0  0  0  0  0  0
  -18.1904  -26.7868   22.1599 C   0  0  0  0  0  0
  -19.1503  -28.8802   23.2917 C   0  0  0  0  0  0
  -18.9406  -30.1408   23.8912 C   0  0  0  0  0  0
  -17.6385  -30.6511   24.0539 C   0  0  0  0  0  0
  -25.9026  -34.9500   23.5102 C   0  0  0  0  0  0
  -16.5308  -29.9006   23.6264 C   0  0  0  0  0  0
  -16.7231  -28.6418   23.0278 C   0  0  0  0  0  0
  -26.4461  -31.6625   25.0690 C   0  0  0  0  0  0
  -25.3693  -31.3735   26.1407 C   0  0  0  0  0  0
  -27.0287  -30.3074   24.6060 C   0  0  0  0  0  0
  -27.6043  -32.4311   25.7495 C   0  0  0  0  0  0
  -27.5566  -37.1823   24.8484 C   0  0  0  0  0  0
  -21.4094  -29.2939   22.3593 N   0  0  0  0  0  0
  -26.4278  -37.3797   23.9441 N   0  0  0  0  0  0
  -24.6672  -31.0763   22.0932 N   0  0  0  0  0  0
  -23.4130  -28.8336   23.3070 O   0  0  0  0  0  0
  -28.3978  -26.6670   20.1646 O   0  0  0  0  0  0
  -26.5620  -34.8945   22.4671 O   0  0  0  0  0  0
  -23.5322  -32.1400   23.7435 O   0  0  0  0  0  0
  -27.1632  -18.9282   21.5830 C   0  0  0  0  0  0
  -29.2556  -19.7027   21.5020 C   0  0  0  0  0  0
  -27.1002  -20.2116   21.1122 C   0  0  0  0  0  0
  -28.4387  -20.7066   21.0321 C   0  0  0  0  0  0
  -25.8391  -20.9441   20.7153 C   0  0  0  0  0  0
  -29.6204  -17.3419   23.6410 C   0  0  0  0  0  0
  -28.8475  -22.0650   20.4908 C   0  0  0  0  0  0
  -29.0691  -23.1362   21.5771 C   0  0  0  0  0  0
  -29.3899  -24.5529   21.0281 C   0  0  0  0  0  0
  -29.8557  -16.6230   21.1819 C   0  0  0  0  0  0
  -28.2088  -25.2504   20.3150 C   0  0  0  0  0  0
  -28.9602  -17.2829   22.2555 C   0  0  2  0  0  0
  -28.4844  -18.5954   21.8108 N   0  0  0  0  0  0
  -30.1942  -15.2437   21.5270 N   0  0  0  0  0  0
  -31.4659  -12.4369   19.0718 H   0  0  0  0  0  0
  -30.3568  -11.2785   19.7472 H   0  0  0  0  0  0
  -29.7202  -11.8098   17.4064 H   0  0  0  0  0  0
  -29.6652  -13.5196   17.7554 H   0  0  0  0  0  0
  -27.8047  -11.3495   18.7707 H   0  0  0  0  0  0
  -27.3635  -12.7216   17.7853 H   0  0  0  0  0  0
  -27.7368  -14.2770   19.6364 H   0  0  0  0  0  0
  -28.6705  -11.8898   21.2831 H   0  0  0  0  0  0
  -28.4652  -13.4919   21.9040 H   0  0  0  0  0  0
  -25.2795   -9.5612   22.4790 H   0  0  0  0  0  0
  -23.9981   -7.4601   22.7459 H   0  0  0  0  0  0
  -21.0853   -8.8824   19.8939 H   0  0  0  0  0  0
  -22.3792  -10.9692   19.6139 H   0  0  0  0  0  0
  -21.1975   -7.6130   23.9712 H   0  0  0  0  0  0
  -21.1476   -6.0504   25.9085 H   0  0  0  0  0  0
  -22.0610   -2.7593   23.2879 H   0  0  0  0  0  0
  -22.4025  -11.9974   22.4902 H   0  0  0  0  0  0
  -21.1012  -13.1226   22.2483 H   0  0  0  0  0  0
  -24.6567  -15.8527   20.4560 H   0  0  0  0  0  0
  -26.2929  -15.6250   20.0966 H   0  0  0  0  0  0
  -26.7137  -32.5556   23.1111 H   0  0  0  0  0  0
  -25.0002  -33.9754   25.0378 H   0  0  0  0  0  0
  -22.7017  -31.3084   21.3885 H   0  0  0  0  0  0
  -23.3715  -35.9667   23.3330 H   0  0  0  0  0  0
  -24.3618  -36.8935   22.2074 H   0  0  0  0  0  0
  -23.7252  -37.6538   23.6641 H   0  0  0  0  0  0
  -26.0287  -31.5931   20.5755 H   0  0  0  0  0  0
  -26.8244  -30.9060   21.9657 H   0  0  0  0  0  0
  -28.0978  -29.0889   21.1835 H   0  0  0  0  0  0
  -26.0684  -25.9815   18.9962 H   0  0  0  0  0  0
  -23.9947  -27.2967   18.9969 H   0  0  0  0  0  0
  -23.6884  -30.5699   19.3821 H   0  0  0  0  0  0
  -22.7422  -29.2018   19.8770 H   0  0  0  0  0  0
  -25.1256  -36.1975   25.0837 H   0  0  0  0  0  0
  -21.0000  -28.3151   24.1332 H   0  0  0  0  0  0
  -20.5624  -26.2307   23.3691 H   0  0  0  0  0  0
  -21.6614  -26.7424   22.1288 H   0  0  0  0  0  0
  -19.6932  -25.6260   21.1231 H   0  0  0  0  0  0
  -19.6610  -27.3185   20.6710 H   0  0  0  0  0  0
  -17.4190  -26.6531   21.3991 H   0  0  0  0  0  0
  -18.0345  -26.0045   22.9002 H   0  0  0  0  0  0
  -19.7837  -30.7302   24.2255 H   0  0  0  0  0  0
  -17.4931  -31.6190   24.5128 H   0  0  0  0  0  0
  -15.5355  -30.2998   23.7420 H   0  0  0  0  0  0
  -15.8657  -28.0773   22.6791 H   0  0  0  0  0  0
  -24.5856  -30.7115   25.7689 H   0  0  0  0  0  0
  -24.8842  -32.2882   26.4807 H   0  0  0  0  0  0
  -25.7994  -30.8916   27.0192 H   0  0  0  0  0  0
  -26.2832  -29.6882   24.1057 H   0  0  0  0  0  0
  -27.4008  -29.7281   25.4519 H   0  0  0  0  0  0
  -27.8662  -30.4397   23.9217 H   0  0  0  0  0  0
  -27.2669  -33.3578   26.2096 H   0  0  0  0  0  0
  -28.3855  -32.6914   25.0359 H   0  0  0  0  0  0
  -28.0655  -31.8411   26.5415 H   0  0  0  0  0  0
  -28.2588  -38.0102   24.7463 H   0  0  0  0  0  0
  -28.1034  -36.2646   24.6317 H   0  0  0  0  0  0
  -27.2312  -37.1479   25.8891 H   0  0  0  0  0  0
  -20.9242  -29.8463   21.6640 H   0  0  0  0  0  0
  -26.0174  -38.2889   24.1376 H   0  0  0  0  0  0
  -26.3750  -18.2075   21.7646 H   0  0  0  0  0  0
  -30.3323  -19.6511   21.6284 H   0  0  0  0  0  0
  -25.5757  -21.7058   21.4485 H   0  0  0  0  0  0
  -25.0041  -20.2474   20.6360 H   0  0  0  0  0  0
  -25.9553  -21.4177   19.7399 H   0  0  0  0  0  0
  -29.8435  -16.3418   24.0151 H   0  0  0  0  0  0
  -28.9603  -17.8109   24.3660 H   0  0  0  0  0  0
  -30.5526  -17.9078   23.6193 H   0  0  0  0  0  0
  -28.0790  -22.4074   19.8023 H   0  0  0  0  0  0
  -29.7401  -21.9455   19.8814 H   0  0  0  0  0  0
  -28.1942  -23.1903   22.2247 H   0  0  0  0  0  0
  -29.8971  -22.8096   22.2129 H   0  0  0  0  0  0
  -30.2538  -24.4939   20.3669 H   0  0  0  0  0  0
  -29.6914  -25.1714   21.8733 H   0  0  0  0  0  0
  -30.7687  -17.1998   21.0257 H   0  0  0  0  0  0
  -29.3117  -16.6198   20.2339 H   0  0  0  0  0  0
  -27.3090  -25.0607   20.9040 H   0  0  0  0  0  0
  -28.0459  -24.7956   19.3382 H   0  0  0  0  0  0
  -28.0754  -16.6550   22.3634 H   0  0  0  0  0  0
  -30.4739  -15.0793   22.4862 H   0  0  0  0  0  0
  1 25  1  0  0  0
  1 30  2  0  0  0
  1 84  1  0  0  0
  2  3  1  0  0  0
  2 25  1  0  0  0
  2 85  1  0  0  0
  2 86  1  0  0  0
  3  4  1  0  0  0
  3 87  1  0  0  0
  3 88  1  0  0  0
  4  5  1  0  0  0
  4 89  1  0  0  0
  4 90  1  0  0  0
  5  6  1  0  0  0
  5 26  1  0  0  0
  5 91  1  0  0  0
  6 25  1  0  0  0
  6 92  1  0  0  0
  6 93  1  0  0  0
  7  8  2  0  0  0
  7 26  1  0  0  0
  7 29  1  0  0  0
  8  9  1  0  0  0
  8 22  1  0  0  0
  9 10  1  0  0  0
  9 27  2  0  0  0
 10 11  2  0  0  0
 10 15  1  0  0  0
 11 12  1  0  0  0
 11 94  1  0  0  0
 12 13  2  0  0  0
 12 95  1  0  0  0
 13 14  1  0  0  0
 13 31  1  0  0  0
 14 15  2  0  0  0
 14 96  1  0  0  0
 15 97  1  0  0  0
 16 17  2  0  0  0
 16 21  1  0  0  0
 16 31  1  0  0  0
 17 18  1  0  0  0
 17 98  1  0  0  0
 18 19  2  0  0  0
 18 99  1  0  0  0
 19 20  1  0  0  0
 19 24  1  0  0  0
 20 21  2  0  0  0
 20100  1  0  0  0
 21 23  1  0  0  0
 22 28  1  0  0  0
 22 32  2  0  0  0
 26 27  1  0  0  0
 28101  1  0  0  0
 28102  1  0  0  0
 29103  1  0  0  0
 29104  1  0  0  0
 33 34  1  0  0  0
 33 66  1  0  0  0
 33 70  2  0  0  0
 34 36  1  0  0  0
 34 59  1  0  0  0
 34105  1  0  0  0
 35 44  2  0  0  0
 35 45  1  0  0  0
 35 68  1  0  0  0
 36 56  1  0  0  0
 36106  1  0  0  0
 37 39  1  0  0  0
 37 47  1  0  0  0
 37 66  1  0  0  0
 37107  1  0  0  0
 38 43  2  0  0  0
 38 46  1  0  0  0
 38 47  1  0  0  0
 39 64  1  0  0  0
 39 67  2  0  0  0
 40 52  1  0  0  0
 40 53  2  0  0  0
 40 58  1  0  0  0
 41108  1  0  0  0
 41109  1  0  0  0
 41110  1  0  0  0
 41 48  1  0  0  0
 42 43  1  0  0  0
 42 66  1  0  0  0
 42111  1  0  0  0
 42112  1  0  0  0
 43 44  1  0  0  0
 44113  1  0  0  0
 45 46  2  0  0  0
 45114  1  0  0  0
 46115  1  0  0  0
 47116  1  0  0  0
 47117  1  0  0  0
 48 56  1  0  0  0
 48 65  1  0  0  0
 48118  1  0  0  0
 49 50  1  0  0  0
 49 53  1  0  0  0
 49 64  1  0  0  0
 49119  1  0  0  0
 50 51  1  0  0  0
 50120  1  0  0  0
 50121  1  0  0  0
 51 52  1  0  0  0
 51122  1  0  0  0
 51123  1  0  0  0
 52124  1  0  0  0
 52125  1  0  0  0
 53 54  1  0  0  0
 54 55  2  0  0  0
 54126  1  0  0  0
 55 57  1  0  0  0
 55127  1  0  0  0
 56 69  2  0  0  0
 57 58  2  0  0  0
 57128  1  0  0  0
 58129  1  0  0  0
 59 60  1  0  0  0
 59 61  1  0  0  0
 59 62  1  0  0  0
 60130  1  0  0  0
 60131  1  0  0  0
 60132  1  0  0  0
 61133  1  0  0  0
 61134  1  0  0  0
 61135  1  0  0  0
 62136  1  0  0  0
 62137  1  0  0  0
 62138  1  0  0  0
 63 65  1  0  0  0
 63139  1  0  0  0
 63140  1  0  0  0
 63141  1  0  0  0
 64142  1  0  0  0
 65143  1  0  0  0
 68 81  1  0  0  0
 71 73  2  0  0  0
 71 83  1  0  0  0
 71144  1  0  0  0
 72 74  2  0  0  0
 72 83  1  0  0  0
 72145  1  0  0  0
 73 74  1  0  0  0
 73 75  1  0  0  0
 74 77  1  0  0  0
 75146  1  0  0  0
 75147  1  0  0  0
 75148  1  0  0  0
 76149  1  0  0  0
 76150  1  0  0  0
 76151  1  0  0  0
 76 82  1  0  0  0
 77 78  1  0  0  0
 77152  1  0  0  0
 77153  1  0  0  0
 78 79  1  0  0  0
 78154  1  0  0  0
 78155  1  0  0  0
 79 81  1  0  0  0
 79156  1  0  0  0
 79157  1  0  0  0
 80 82  1  0  0  0
 80 84  1  0  0  0
 80158  1  0  0  0
 80159  1  0  0  0
 81160  1  0  0  0
 81161  1  0  0  0
 82 83  1  0  0  0
 82162  1  0  0  0
 84163  1  0  0  0
M  ISO  4   1 100  68 101  81 101  84 100
M  END
> <chiral flag>
0

> <version>
0

> <s_m_source_file>
/data/baiqing/PycharmProjects/Reinvent-master-3.2/result/LINK_invent/BTK/process_docking_weight1_custom_sum_contain_oxygen_bond_distance_aromatic_linkinvent_7_9_3/rearranged_h_0080.sdf

> <i_m_source_file_index>
95

> <r_mmod_Potential_Energy-OPLS-2005>
-71.2489852905273

> <r_mmod_Stretch_Energy-OPLS-2005>
36.0710334777832

> <r_mmod_Bend_Energy-OPLS-2005>
92.8631057739258

> <r_mmod_Torsional_Energy-OPLS-2005>
301.843994140625

> <r_mmod_Improper_Torsional_Energy-OPLS-2005>
4.65091753005981

> <r_mmod_Van_der_Waal_Energy-OPLS-2005>
120.89624786377

> <r_mmod_Electrostatic_Energy-OPLS-2005>
-433.129913330078

> <r_mmod_Solvation_Energy-OPLS-2005>
-205.436676025391

> <b_mmod_Minimization_Converged-OPLS-2005>
0

> <r_mmod_RMS_Derivative-OPLS-2005>
7.52077054977417

$$$$
