0
                    3D
 Structure written by MMmdl.
168176  0  0  1  0            999 V2000
  -30.6329  -14.6437   20.5559 C   0  0  0  0  0  0
  -30.4413  -12.4192   19.4364 C   0  0  0  0  0  0
  -29.5036  -12.5238   18.2135 C   0  0  0  0  0  0
  -28.0272  -12.3435   18.6233 C   0  0  0  0  0  0
  -27.6538  -13.1956   19.8651 C   0  0  2  0  0  0
  -28.7048  -12.9823   20.9806 C   0  0  0  0  0  0
  -25.2537  -13.8116   20.5595 C   0  0  0  0  0  0
  -24.1808  -13.0395   20.9181 C   0  0  0  0  0  0
  -24.6372  -11.6875   20.8769 C   0  0  0  0  0  0
  -23.9042  -10.4262   21.0435 C   0  0  0  0  0  0
  -24.3596   -9.4172   21.9206 C   0  0  0  0  0  0
  -23.6264   -8.2216   22.0767 C   0  0  0  0  0  0
  -22.4252   -8.0269   21.3544 C   0  0  0  0  0  0
  -21.9887   -9.0247   20.4649 C   0  0  0  0  0  0
  -22.7225  -10.2122   20.3069 C   0  0  0  0  0  0
  -21.6828   -6.0730   22.5284 C   0  0  0  0  0  0
  -21.3992   -6.5637   23.8213 C   0  0  0  0  0  0
  -21.3658   -5.6791   24.9177 C   0  0  0  0  0  0
  -21.6049   -4.3058   24.7227 C   0  0  0  0  0  0
  -21.8815   -3.8148   23.4344 C   0  0  0  0  0  0
  -21.9177   -4.6961   22.3402 C   0  0  0  0  0  0
  -22.7836  -13.5221   21.1836 C   0  0  0  0  0  0
  -22.1650   -4.2147   21.0978 F   0  0  0  0  0  0
  -21.5630   -3.4544   25.7739 F   0  0  0  0  0  0
  -29.9961  -13.4245   20.4319 N   0  0  0  0  0  0
  -26.2972  -12.9263   20.3312 N   0  0  0  0  0  0
  -25.9281  -11.6440   20.5755 N   0  0  0  0  0  0
  -22.0454  -12.8245   22.0403 N   0  0  0  0  0  0
  -25.4143  -15.1816   20.3848 N   0  0  0  0  0  0
  -31.7959  -14.7438   20.1444 O   0  0  0  0  0  0
  -21.6618   -6.8865   21.4239 O   0  0  0  0  0  0
  -22.3523  -14.5506   20.6648 O   0  0  0  0  0  0
  -24.6182  -31.8626   23.2025 C   0  0  0  0  0  0
  -25.9065  -32.4774   23.8332 C   0  0  1  0  0  0
  -27.2335  -27.3739   20.1097 C   0  0  0  0  0  0
  -25.5921  -33.8565   24.2276 N   0  0  0  0  0  0
  -23.4090  -30.4800   21.5455 C   0  0  2  0  0  0
  -24.8579  -28.9332   20.1145 C   0  0  0  0  0  0
  -22.7438  -29.4595   22.4980 C   0  0  0  0  0  0
  -18.0269  -28.1355   22.8430 C   0  0  0  0  0  0
  -24.1528  -36.7296   23.2633 C   0  0  0  0  0  0
  -25.9425  -30.8092   21.3664 C   0  0  0  0  0  0
  -26.0203  -29.4375   20.7137 C   0  0  0  0  0  0
  -27.2117  -28.6648   20.7041 C   0  0  0  0  0  0
  -26.0586  -26.9013   19.4927 C   0  0  0  0  0  0
  -24.8749  -27.6678   19.4986 C   0  0  0  0  0  0
  -23.6203  -29.8047   20.1623 C   0  0  0  0  0  0
  -25.4137  -36.3070   24.0323 C   0  0  1  0  0  0
  -20.5856  -28.3628   23.1314 C   0  0  2  0  0  0
  -20.6774  -26.9374   22.5398 C   0  0  0  0  0  0
  -19.5768  -26.6351   21.5180 C   0  0  0  0  0  0
  -18.1931  -26.7900   22.1580 C   0  0  0  0  0  0
  -19.1511  -28.8816   23.2862 C   0  0  0  0  0  0
  -18.9455  -30.1433   23.8843 C   0  0  0  0  0  0
  -17.6468  -30.6557   24.0536 C   0  0  0  0  0  0
  -25.9060  -34.9438   23.5110 C   0  0  0  0  0  0
  -16.5351  -29.9054   23.6330 C   0  0  0  0  0  0
  -16.7254  -28.6491   23.0291 C   0  0  0  0  0  0
  -26.4478  -31.6565   25.0673 C   0  0  0  0  0  0
  -25.3727  -31.3699   26.1414 C   0  0  0  0  0  0
  -27.0326  -30.3010   24.6061 C   0  0  0  0  0  0
  -27.6037  -32.4298   25.7444 C   0  0  0  0  0  0
  -27.5616  -37.1789   24.8448 C   0  0  0  0  0  0
  -21.4153  -29.3002   22.3751 N   0  0  0  0  0  0
  -26.4309  -37.3768   23.9416 N   0  0  0  0  0  0
  -24.6740  -31.0671   22.0960 N   0  0  0  0  0  0
  -23.4201  -28.8128   23.3039 O   0  0  0  0  0  0
  -28.4000  -26.6171   20.0587 O   0  0  0  0  0  0
  -26.5616  -34.8906   22.4676 O   0  0  0  0  0  0
  -23.5372  -32.1413   23.7422 O   0  0  0  0  0  0
  -29.6662  -19.1905   18.8213 C   0  0  0  0  0  0
  -29.5825  -19.5575   21.3205 C   0  0  0  0  0  0
  -29.3485  -17.7308   19.2699 C   0  0  0  0  0  0
  -30.4931  -18.2885   21.4751 C   0  0  0  0  0  0
  -29.7549  -20.2721   19.9506 C   0  0  2  0  0  0
  -30.3081  -17.1889   20.3631 C   0  0  1  0  0  0
  -27.4800  -25.1510   21.8757 C   0  0  0  0  0  0
  -29.9209  -25.5520   21.4267 C   0  0  0  0  0  0
  -28.7816  -15.8944   21.7847 C   0  0  0  0  0  0
  -28.8196  -21.5271   19.6695 C   0  0  0  0  0  0
  -28.5739  -24.0785   19.8219 C   0  0  0  0  0  0
  -28.5438  -25.3422   20.7729 C   0  0  0  0  0  0
  -29.9049  -15.8043   20.8332 N   0  0  0  0  0  0
  -29.1047  -22.7943   20.4299 N   0  3  0  0  0  0
  -31.4764  -12.5598   19.1219 H   0  0  0  0  0  0
  -30.4061  -11.4145   19.8600 H   0  0  0  0  0  0
  -29.7774  -11.7786   17.4646 H   0  0  0  0  0  0
  -29.6309  -13.4976   17.7384 H   0  0  0  0  0  0
  -27.8762  -11.2859   18.8438 H   0  0  0  0  0  0
  -27.3689  -12.5728   17.7844 H   0  0  0  0  0  0
  -27.6834  -14.2353   19.5393 H   0  0  0  0  0  0
  -28.7472  -11.9236   21.2382 H   0  0  0  0  0  0
  -28.4483  -13.4423   21.9291 H   0  0  0  0  0  0
  -25.2738   -9.5638   22.4782 H   0  0  0  0  0  0
  -23.9971   -7.4600   22.7480 H   0  0  0  0  0  0
  -21.0821   -8.8759   19.8950 H   0  0  0  0  0  0
  -22.3691  -10.9661   19.6176 H   0  0  0  0  0  0
  -21.1978   -7.6145   23.9706 H   0  0  0  0  0  0
  -21.1485   -6.0531   25.9075 H   0  0  0  0  0  0
  -22.0592   -2.7611   23.2848 H   0  0  0  0  0  0
  -22.4064  -11.9957   22.4889 H   0  0  0  0  0  0
  -21.1047  -13.1261   22.2517 H   0  0  0  0  0  0
  -24.6315  -15.8224   20.4532 H   0  0  0  0  0  0
  -26.2533  -15.6172   20.0242 H   0  0  0  0  0  0
  -26.7134  -32.5460   23.1081 H   0  0  0  0  0  0
  -25.0050  -33.9725   25.0405 H   0  0  0  0  0  0
  -22.6974  -31.2959   21.4003 H   0  0  0  0  0  0
  -23.3777  -35.9652   23.3259 H   0  0  0  0  0  0
  -24.3624  -36.8951   22.2060 H   0  0  0  0  0  0
  -23.7304  -37.6489   23.6682 H   0  0  0  0  0  0
  -26.0632  -31.5767   20.6002 H   0  0  0  0  0  0
  -26.8258  -30.8600   21.9914 H   0  0  0  0  0  0
  -28.1124  -29.0484   21.1607 H   0  0  0  0  0  0
  -26.0567  -25.9382   19.0025 H   0  0  0  0  0  0
  -23.9831  -27.2785   19.0244 H   0  0  0  0  0  0
  -23.7291  -30.5754   19.3988 H   0  0  0  0  0  0
  -22.7443  -29.2220   19.8693 H   0  0  0  0  0  0
  -25.1321  -36.1920   25.0810 H   0  0  0  0  0  0
  -20.9903  -28.3198   24.1447 H   0  0  0  0  0  0
  -20.5712  -26.2223   23.3585 H   0  0  0  0  0  0
  -21.6653  -26.7451   22.1196 H   0  0  0  0  0  0
  -19.6971  -25.6267   21.1209 H   0  0  0  0  0  0
  -19.6739  -27.3167   20.6729 H   0  0  0  0  0  0
  -17.4216  -26.6597   21.3968 H   0  0  0  0  0  0
  -18.0352  -26.0055   22.8991 H   0  0  0  0  0  0
  -19.7959  -30.7238   24.2177 H   0  0  0  0  0  0
  -17.5033  -31.6236   24.5151 H   0  0  0  0  0  0
  -15.5350  -30.2930   23.7713 H   0  0  0  0  0  0
  -15.8653  -28.0839   22.6977 H   0  0  0  0  0  0
  -24.5881  -30.7061   25.7750 H   0  0  0  0  0  0
  -24.8923  -32.2873   26.4817 H   0  0  0  0  0  0
  -25.8058  -30.8884   27.0192 H   0  0  0  0  0  0
  -26.2888  -29.6738   24.1135 H   0  0  0  0  0  0
  -27.4119  -29.7266   25.4520 H   0  0  0  0  0  0
  -27.8706  -30.4309   23.9207 H   0  0  0  0  0  0
  -27.2628  -33.3589   26.2012 H   0  0  0  0  0  0
  -28.3845  -32.6857   25.0262 H   0  0  0  0  0  0
  -28.0693  -31.8411   26.5355 H   0  0  0  0  0  0
  -28.2544  -38.0172   24.7557 H   0  0  0  0  0  0
  -28.1194  -36.2690   24.6180 H   0  0  0  0  0  0
  -27.2322  -37.1296   25.8841 H   0  0  0  0  0  0
  -20.9338  -29.8713   21.6941 H   0  0  0  0  0  0
  -26.0183  -38.2829   24.1454 H   0  0  0  0  0  0
  -28.9272  -19.4865   18.0759 H   0  0  0  0  0  0
  -30.6158  -19.1791   18.2835 H   0  0  0  0  0  0
  -29.7974  -20.2549   22.1308 H   0  0  0  0  0  0
  -28.5359  -19.2739   21.4465 H   0  0  0  0  0  0
  -29.3710  -17.0680   18.4034 H   0  0  0  0  0  0
  -28.3190  -17.6915   19.6308 H   0  0  0  0  0  0
  -30.3655  -17.8728   22.4759 H   0  0  0  0  0  0
  -31.5343  -18.6175   21.4611 H   0  0  0  0  0  0
  -30.7787  -20.6494   19.9185 H   0  0  0  0  0  0
  -31.2850  -17.1171   19.8832 H   0  0  0  0  0  0
  -27.7101  -24.2860   22.4973 H   0  0  0  0  0  0
  -26.4858  -24.9932   21.4577 H   0  0  0  0  0  0
  -27.4307  -26.0172   22.5353 H   0  0  0  0  0  0
  -29.9214  -26.4505   22.0429 H   0  0  0  0  0  0
  -30.6943  -25.6824   20.6680 H   0  0  0  0  0  0
  -30.2135  -24.7255   22.0731 H   0  0  0  0  0  0
  -28.4177  -16.9090   21.9398 H   0  0  0  0  0  0
  -29.0660  -15.5029   22.7611 H   0  0  0  0  0  0
  -27.8905  -15.3918   21.4278 H   0  0  0  0  0  0
  -27.7741  -21.2537   19.8210 H   0  0  0  0  0  0
  -28.9081  -21.7780   18.6109 H   0  0  0  0  0  0
  -27.5682  -23.9079   19.4325 H   0  0  0  0  0  0
  -29.1906  -24.3058   18.9522 H   0  0  0  0  0  0
  -30.1043  -22.8863   20.5254 H   0  0  0  0  0  0
  -28.7244  -22.6853   21.3562 H   0  0  0  0  0  0
  1 25  1  0  0  0
  1 30  2  0  0  0
  1 83  1  0  0  0
  2  3  1  0  0  0
  2 25  1  0  0  0
  2 85  1  0  0  0
  2 86  1  0  0  0
  3  4  1  0  0  0
  3 87  1  0  0  0
  3 88  1  0  0  0
  4  5  1  0  0  0
  4 89  1  0  0  0
  4 90  1  0  0  0
  5  6  1  0  0  0
  5 26  1  0  0  0
  5 91  1  0  0  0
  6 25  1  0  0  0
  6 92  1  0  0  0
  6 93  1  0  0  0
  7  8  2  0  0  0
  7 26  1  0  0  0
  7 29  1  0  0  0
  8  9  1  0  0  0
  8 22  1  0  0  0
  9 10  1  0  0  0
  9 27  2  0  0  0
 10 11  2  0  0  0
 10 15  1  0  0  0
 11 12  1  0  0  0
 11 94  1  0  0  0
 12 13  2  0  0  0
 12 95  1  0  0  0
 13 14  1  0  0  0
 13 31  1  0  0  0
 14 15  2  0  0  0
 14 96  1  0  0  0
 15 97  1  0  0  0
 16 17  2  0  0  0
 16 21  1  0  0  0
 16 31  1  0  0  0
 17 18  1  0  0  0
 17 98  1  0  0  0
 18 19  2  0  0  0
 18 99  1  0  0  0
 19 20  1  0  0  0
 19 24  1  0  0  0
 20 21  2  0  0  0
 20100  1  0  0  0
 21 23  1  0  0  0
 22 28  1  0  0  0
 22 32  2  0  0  0
 26 27  1  0  0  0
 28101  1  0  0  0
 28102  1  0  0  0
 29103  1  0  0  0
 29104  1  0  0  0
 33 34  1  0  0  0
 33 66  1  0  0  0
 33 70  2  0  0  0
 34 36  1  0  0  0
 34 59  1  0  0  0
 34105  1  0  0  0
 35 44  2  0  0  0
 35 45  1  0  0  0
 35 68  1  0  0  0
 36 56  1  0  0  0
 36106  1  0  0  0
 37 39  1  0  0  0
 37 47  1  0  0  0
 37 66  1  0  0  0
 37107  1  0  0  0
 38 43  2  0  0  0
 38 46  1  0  0  0
 38 47  1  0  0  0
 39 64  1  0  0  0
 39 67  2  0  0  0
 40 52  1  0  0  0
 40 53  2  0  0  0
 40 58  1  0  0  0
 41108  1  0  0  0
 41109  1  0  0  0
 41110  1  0  0  0
 41 48  1  0  0  0
 42 43  1  0  0  0
 42 66  1  0  0  0
 42111  1  0  0  0
 42112  1  0  0  0
 43 44  1  0  0  0
 44113  1  0  0  0
 45 46  2  0  0  0
 45114  1  0  0  0
 46115  1  0  0  0
 47116  1  0  0  0
 47117  1  0  0  0
 48 56  1  0  0  0
 48 65  1  0  0  0
 48118  1  0  0  0
 49 50  1  0  0  0
 49 53  1  0  0  0
 49 64  1  0  0  0
 49119  1  0  0  0
 50 51  1  0  0  0
 50120  1  0  0  0
 50121  1  0  0  0
 51 52  1  0  0  0
 51122  1  0  0  0
 51123  1  0  0  0
 52124  1  0  0  0
 52125  1  0  0  0
 53 54  1  0  0  0
 54 55  2  0  0  0
 54126  1  0  0  0
 55 57  1  0  0  0
 55127  1  0  0  0
 56 69  2  0  0  0
 57 58  2  0  0  0
 57128  1  0  0  0
 58129  1  0  0  0
 59 60  1  0  0  0
 59 61  1  0  0  0
 59 62  1  0  0  0
 60130  1  0  0  0
 60131  1  0  0  0
 60132  1  0  0  0
 61133  1  0  0  0
 61134  1  0  0  0
 61135  1  0  0  0
 62136  1  0  0  0
 62137  1  0  0  0
 62138  1  0  0  0
 63 65  1  0  0  0
 63139  1  0  0  0
 63140  1  0  0  0
 63141  1  0  0  0
 64142  1  0  0  0
 65143  1  0  0  0
 68 82  1  0  0  0
 71 73  1  0  0  0
 71 75  1  0  0  0
 71144  1  0  0  0
 71145  1  0  0  0
 72 74  1  0  0  0
 72 75  1  0  0  0
 72146  1  0  0  0
 72147  1  0  0  0
 73 76  1  0  0  0
 73148  1  0  0  0
 73149  1  0  0  0
 74 76  1  0  0  0
 74150  1  0  0  0
 74151  1  0  0  0
 75 80  1  0  0  0
 75152  1  0  0  0
 76 83  1  0  0  0
 76153  1  0  0  0
 77154  1  0  0  0
 77155  1  0  0  0
 77156  1  0  0  0
 77 82  1  0  0  0
 78 82  1  0  0  0
 78157  1  0  0  0
 78158  1  0  0  0
 78159  1  0  0  0
 79 83  1  0  0  0
 79160  1  0  0  0
 79161  1  0  0  0
 79162  1  0  0  0
 80 84  1  0  0  0
 80163  1  0  0  0
 80164  1  0  0  0
 81 82  1  0  0  0
 81 84  1  0  0  0
 81165  1  0  0  0
 81166  1  0  0  0
 84167  1  0  0  0
 84168  1  0  0  0
M  CHG  1  84   1
M  ISO  4   1 100  68 101  82 101  83 100
M  END
> <chiral flag>
0

> <version>
0

> <s_m_source_file>
/data/baiqing/PycharmProjects/Reinvent-master-3.2/result/LINK_invent/BTK/process_docking_weight1_custom_sum_contain_oxygen_bond_distance_aromatic_linkinvent_7_9_3/rearranged_h_0114.sdf

> <i_m_source_file_index>
1

> <r_mmod_Potential_Energy-OPLS-2005>
149.186996459961

> <r_mmod_Stretch_Energy-OPLS-2005>
77.0906066894531

> <r_mmod_Bend_Energy-OPLS-2005>
156.385711669922

> <r_mmod_Torsional_Energy-OPLS-2005>
356.545989990234

> <r_mmod_Improper_Torsional_Energy-OPLS-2005>
8.3284158706665

> <r_mmod_Van_der_Waal_Energy-OPLS-2005>
149.710220336914

> <r_mmod_Electrostatic_Energy-OPLS-2005>
-211.512710571289

> <r_mmod_Solvation_Energy-OPLS-2005>
-420.912017822266

> <b_mmod_Minimization_Converged-OPLS-2005>
0

> <r_mmod_RMS_Derivative-OPLS-2005>
3.19431352615356

$$$$
1
                    3D
 Structure written by MMmdl.
151159  0  0  1  0            999 V2000
  -30.5899  -14.7123   20.4800 C   0  0  0  0  0  0
  -30.4333  -12.4258   19.4971 C   0  0  0  0  0  0
  -29.5214  -12.5111   18.2510 C   0  0  0  0  0  0
  -28.0429  -12.3390   18.6502 C   0  0  0  0  0  0
  -27.6473  -13.2267   19.8604 C   0  0  2  0  0  0
  -28.6803  -13.1290   21.0055 C   0  0  0  0  0  0
  -25.2525  -13.8202   20.5682 C   0  0  0  0  0  0
  -24.1808  -13.0455   20.9193 C   0  0  0  0  0  0
  -24.6386  -11.6932   20.8734 C   0  0  0  0  0  0
  -23.9068  -10.4303   21.0412 C   0  0  0  0  0  0
  -24.3626   -9.4219   21.9189 C   0  0  0  0  0  0
  -23.6304   -8.2248   22.0753 C   0  0  0  0  0  0
  -22.4280   -8.0279   21.3543 C   0  0  0  0  0  0
  -21.9916   -9.0253   20.4652 C   0  0  0  0  0  0
  -22.7240  -10.2140   20.3063 C   0  0  0  0  0  0
  -21.6854   -6.0748   22.5288 C   0  0  0  0  0  0
  -21.4013   -6.5652   23.8220 C   0  0  0  0  0  0
  -21.3658   -5.6803   24.9181 C   0  0  0  0  0  0
  -21.6041   -4.3059   24.7227 C   0  0  0  0  0  0
  -21.8820   -3.8155   23.4343 C   0  0  0  0  0  0
  -21.9195   -4.6980   22.3403 C   0  0  0  0  0  0
  -22.7838  -13.5250   21.1880 C   0  0  0  0  0  0
  -22.1665   -4.2171   21.0980 F   0  0  0  0  0  0
  -21.5625   -3.4537   25.7733 F   0  0  0  0  0  0
  -29.9941  -13.4730   20.4496 N   0  0  0  0  0  0
  -26.2940  -12.9394   20.3258 N   0  0  0  0  0  0
  -25.9313  -11.6542   20.5742 N   0  0  0  0  0  0
  -22.0478  -12.8227   22.0426 N   0  0  0  0  0  0
  -25.4259  -15.1926   20.4157 N   0  0  0  0  0  0
  -31.7505  -14.8436   20.0715 O   0  0  0  0  0  0
  -21.6634   -6.8884   21.4241 O   0  0  0  0  0  0
  -22.3519  -14.5561   20.6758 O   0  0  0  0  0  0
  -24.6315  -31.8566   23.1993 C   0  0  0  0  0  0
  -25.9146  -32.4755   23.8327 C   0  0  1  0  0  0
  -27.1992  -27.2610   20.1266 C   0  0  0  0  0  0
  -25.5948  -33.8555   24.2251 N   0  0  0  0  0  0
  -23.4237  -30.4853   21.5419 C   0  0  2  0  0  0
  -24.8670  -28.9384   20.1011 C   0  0  0  0  0  0
  -22.7485  -29.4630   22.4892 C   0  0  0  0  0  0
  -18.0301  -28.1392   22.8485 C   0  0  0  0  0  0
  -24.1495  -36.7290   23.2635 C   0  0  0  0  0  0
  -25.9696  -30.7671   21.3808 C   0  0  0  0  0  0
  -26.0375  -29.3912   20.7224 C   0  0  0  0  0  0
  -27.2051  -28.5625   20.7314 C   0  0  0  0  0  0
  -26.0158  -26.8971   19.4421 C   0  0  0  0  0  0
  -24.8606  -27.6982   19.4490 C   0  0  0  0  0  0
  -23.6398  -29.8268   20.1540 C   0  0  0  0  0  0
  -25.4102  -36.3052   24.0327 C   0  0  1  0  0  0
  -20.5895  -28.3714   23.1276 C   0  0  2  0  0  0
  -20.6793  -26.9432   22.5390 C   0  0  0  0  0  0
  -19.5772  -26.6405   21.5187 C   0  0  0  0  0  0
  -18.1948  -26.7948   22.1597 C   0  0  0  0  0  0
  -19.1546  -28.8876   23.2884 C   0  0  0  0  0  0
  -18.9450  -30.1464   23.8913 C   0  0  0  0  0  0
  -17.6437  -30.6566   24.0583 C   0  0  0  0  0  0
  -25.9045  -34.9433   23.5083 C   0  0  0  0  0  0
  -16.5336  -29.9054   23.6339 C   0  0  0  0  0  0
  -16.7287  -28.6500   23.0331 C   0  0  0  0  0  0
  -26.4511  -31.6571   25.0700 C   0  0  0  0  0  0
  -25.3749  -31.3721   26.1432 C   0  0  0  0  0  0
  -27.0355  -30.2987   24.6190 C   0  0  0  0  0  0
  -27.6062  -32.4294   25.7486 C   0  0  0  0  0  0
  -27.5567  -37.1796   24.8461 C   0  0  0  0  0  0
  -21.4195  -29.3082   22.3671 N   0  0  0  0  0  0
  -26.4282  -37.3754   23.9405 N   0  0  0  0  0  0
  -24.6939  -31.0542   22.0972 N   0  0  0  0  0  0
  -23.4201  -28.8144   23.2957 O   0  0  0  0  0  0
  -28.2695  -26.3409   20.2267 O   0  0  0  0  0  0
  -26.5610  -34.8916   22.4645 O   0  0  0  0  0  0
  -23.5471  -32.1406   23.7292 O   0  0  0  0  0  0
  -29.5514  -17.1942   18.8221 C   0  0  0  0  0  0
  -29.5294  -18.4116   20.8992 C   0  0  0  0  0  0
  -29.3085  -18.4261   18.1859 C   0  0  0  0  0  0
  -29.6884  -17.1332   20.2233 C   0  0  0  0  0  0
  -29.2970  -19.6462   20.1727 C   0  0  0  0  0  0
  -28.8367  -23.6719   20.6297 C   0  0  0  0  0  0
  -28.6813  -22.1886   19.9984 C   0  0  0  0  0  0
  -28.0119  -24.8829   19.9525 C   0  0  0  0  0  0
  -29.1917  -19.6085   18.8316 N   0  0  0  0  0  0
  -29.8297  -15.8052   20.8652 N   0  0  0  0  0  0
  -29.1761  -20.9658   20.7497 N   0  0  0  0  0  0
  -31.4810  -12.5383   19.2122 H   0  0  0  0  0  0
  -30.3591  -11.4422   19.9619 H   0  0  0  0  0  0
  -29.8066  -11.7517   17.5220 H   0  0  0  0  0  0
  -29.6624  -13.4775   17.7622 H   0  0  0  0  0  0
  -27.8881  -11.2889   18.9000 H   0  0  0  0  0  0
  -27.3960  -12.5474   17.7973 H   0  0  0  0  0  0
  -27.6556  -14.2530   19.4951 H   0  0  0  0  0  0
  -28.6970  -12.1237   21.4291 H   0  0  0  0  0  0
  -28.4060  -13.7929   21.8260 H   0  0  0  0  0  0
  -25.2778   -9.5698   22.4756 H   0  0  0  0  0  0
  -24.0024   -7.4647   22.7483 H   0  0  0  0  0  0
  -21.0838   -8.8789   19.8967 H   0  0  0  0  0  0
  -22.3706  -10.9683   19.6168 H   0  0  0  0  0  0
  -21.1994   -7.6162   23.9736 H   0  0  0  0  0  0
  -21.1476   -6.0525   25.9091 H   0  0  0  0  0  0
  -22.0592   -2.7615   23.2845 H   0  0  0  0  0  0
  -22.4091  -11.9883   22.4806 H   0  0  0  0  0  0
  -21.1114  -13.1290   22.2669 H   0  0  0  0  0  0
  -24.6634  -15.8506   20.5371 H   0  0  0  0  0  0
  -26.2793  -15.6310   20.0926 H   0  0  0  0  0  0
  -26.7202  -32.5411   23.1060 H   0  0  0  0  0  0
  -25.0116  -33.9675   25.0417 H   0  0  0  0  0  0
  -22.7217  -31.3100   21.3992 H   0  0  0  0  0  0
  -23.3736  -35.9643   23.3288 H   0  0  0  0  0  0
  -24.3616  -36.8920   22.2056 H   0  0  0  0  0  0
  -23.7283  -37.6503   23.6669 H   0  0  0  0  0  0
  -26.1133  -31.5239   20.6087 H   0  0  0  0  0  0
  -26.8488  -30.8149   22.0114 H   0  0  0  0  0  0
  -28.0942  -28.8935   21.2496 H   0  0  0  0  0  0
  -25.9429  -25.9677   18.8981 H   0  0  0  0  0  0
  -23.9708  -27.3524   18.9394 H   0  0  0  0  0  0
  -23.7627  -30.6064   19.4003 H   0  0  0  0  0  0
  -22.7583  -29.2611   19.8492 H   0  0  0  0  0  0
  -25.1293  -36.1890   25.0822 H   0  0  0  0  0  0
  -21.0014  -28.3313   24.1386 H   0  0  0  0  0  0
  -20.5722  -26.2297   23.3578 H   0  0  0  0  0  0
  -21.6647  -26.7475   22.1152 H   0  0  0  0  0  0
  -19.6921  -25.6337   21.1158 H   0  0  0  0  0  0
  -19.6705  -27.3246   20.6734 H   0  0  0  0  0  0
  -18.0358  -26.0082   22.8985 H   0  0  0  0  0  0
  -17.4210  -26.6707   21.4000 H   0  0  0  0  0  0
  -19.7915  -30.7293   24.2274 H   0  0  0  0  0  0
  -17.4987  -31.6258   24.5153 H   0  0  0  0  0  0
  -15.5318  -30.2928   23.7654 H   0  0  0  0  0  0
  -15.8699  -28.0819   22.7004 H   0  0  0  0  0  0
  -24.5918  -30.7074   25.7778 H   0  0  0  0  0  0
  -24.8947  -32.2888   26.4857 H   0  0  0  0  0  0
  -25.8080  -30.8905   27.0209 H   0  0  0  0  0  0
  -26.2941  -29.6724   24.1211 H   0  0  0  0  0  0
  -27.4048  -29.7255   25.4706 H   0  0  0  0  0  0
  -27.8824  -30.4257   23.9436 H   0  0  0  0  0  0
  -27.2667  -33.3582   26.2085 H   0  0  0  0  0  0
  -28.3878  -32.6868   25.0325 H   0  0  0  0  0  0
  -28.0728  -31.8402   26.5392 H   0  0  0  0  0  0
  -28.2572  -38.0095   24.7482 H   0  0  0  0  0  0
  -28.1071  -36.2632   24.6302 H   0  0  0  0  0  0
  -27.2308  -37.1467   25.8870 H   0  0  0  0  0  0
  -20.9350  -29.8841   21.6918 H   0  0  0  0  0  0
  -26.0153  -38.2834   24.1371 H   0  0  0  0  0  0
  -29.6005  -16.3004   18.2158 H   0  0  0  0  0  0
  -29.5896  -18.4396   21.9792 H   0  0  0  0  0  0
  -29.1923  -18.4654   17.1139 H   0  0  0  0  0  0
  -28.5467  -23.6389   21.6804 H   0  0  0  0  0  0
  -29.8936  -23.9348   20.6262 H   0  0  0  0  0  0
  -29.1793  -22.2055   19.0279 H   0  0  0  0  0  0
  -27.6269  -22.0166   19.7783 H   0  0  0  0  0  0
  -26.9812  -24.6560   20.2263 H   0  0  0  0  0  0
  -28.0649  -24.7573   18.8723 H   0  0  0  0  0  0
  -29.0533  -15.5599   21.4615 H   0  0  0  0  0  0
  -29.2085  -21.0288   21.7631 H   0  0  0  0  0  0
  1 25  1  0  0  0
  1 30  2  0  0  0
  1 80  1  0  0  0
  2  3  1  0  0  0
  2 25  1  0  0  0
  2 82  1  0  0  0
  2 83  1  0  0  0
  3  4  1  0  0  0
  3 84  1  0  0  0
  3 85  1  0  0  0
  4  5  1  0  0  0
  4 86  1  0  0  0
  4 87  1  0  0  0
  5  6  1  0  0  0
  5 26  1  0  0  0
  5 88  1  0  0  0
  6 25  1  0  0  0
  6 89  1  0  0  0
  6 90  1  0  0  0
  7  8  2  0  0  0
  7 26  1  0  0  0
  7 29  1  0  0  0
  8  9  1  0  0  0
  8 22  1  0  0  0
  9 10  1  0  0  0
  9 27  2  0  0  0
 10 11  2  0  0  0
 10 15  1  0  0  0
 11 12  1  0  0  0
 11 91  1  0  0  0
 12 13  2  0  0  0
 12 92  1  0  0  0
 13 14  1  0  0  0
 13 31  1  0  0  0
 14 15  2  0  0  0
 14 93  1  0  0  0
 15 94  1  0  0  0
 16 17  2  0  0  0
 16 21  1  0  0  0
 16 31  1  0  0  0
 17 18  1  0  0  0
 17 95  1  0  0  0
 18 19  2  0  0  0
 18 96  1  0  0  0
 19 20  1  0  0  0
 19 24  1  0  0  0
 20 21  2  0  0  0
 20 97  1  0  0  0
 21 23  1  0  0  0
 22 28  1  0  0  0
 22 32  2  0  0  0
 26 27  1  0  0  0
 28 98  1  0  0  0
 28 99  1  0  0  0
 29100  1  0  0  0
 29101  1  0  0  0
 33 34  1  0  0  0
 33 66  1  0  0  0
 33 70  2  0  0  0
 34 36  1  0  0  0
 34 59  1  0  0  0
 34102  1  0  0  0
 35 44  2  0  0  0
 35 45  1  0  0  0
 35 68  1  0  0  0
 36 56  1  0  0  0
 36103  1  0  0  0
 37 39  1  0  0  0
 37 47  1  0  0  0
 37 66  1  0  0  0
 37104  1  0  0  0
 38 43  2  0  0  0
 38 46  1  0  0  0
 38 47  1  0  0  0
 39 64  1  0  0  0
 39 67  2  0  0  0
 40 52  1  0  0  0
 40 53  2  0  0  0
 40 58  1  0  0  0
 41105  1  0  0  0
 41106  1  0  0  0
 41107  1  0  0  0
 41 48  1  0  0  0
 42 43  1  0  0  0
 42 66  1  0  0  0
 42108  1  0  0  0
 42109  1  0  0  0
 43 44  1  0  0  0
 44110  1  0  0  0
 45 46  2  0  0  0
 45111  1  0  0  0
 46112  1  0  0  0
 47113  1  0  0  0
 47114  1  0  0  0
 48 56  1  0  0  0
 48 65  1  0  0  0
 48115  1  0  0  0
 49 50  1  0  0  0
 49 53  1  0  0  0
 49 64  1  0  0  0
 49116  1  0  0  0
 50 51  1  0  0  0
 50117  1  0  0  0
 50118  1  0  0  0
 51 52  1  0  0  0
 51119  1  0  0  0
 51120  1  0  0  0
 52121  1  0  0  0
 52122  1  0  0  0
 53 54  1  0  0  0
 54 55  2  0  0  0
 54123  1  0  0  0
 55 57  1  0  0  0
 55124  1  0  0  0
 56 69  2  0  0  0
 57 58  2  0  0  0
 57125  1  0  0  0
 58126  1  0  0  0
 59 60  1  0  0  0
 59 61  1  0  0  0
 59 62  1  0  0  0
 60127  1  0  0  0
 60128  1  0  0  0
 60129  1  0  0  0
 61130  1  0  0  0
 61131  1  0  0  0
 61132  1  0  0  0
 62133  1  0  0  0
 62134  1  0  0  0
 62135  1  0  0  0
 63 65  1  0  0  0
 63136  1  0  0  0
 63137  1  0  0  0
 63138  1  0  0  0
 64139  1  0  0  0
 65140  1  0  0  0
 68 78  1  0  0  0
 71 73  2  0  0  0
 71 74  1  0  0  0
 71141  1  0  0  0
 72 74  2  0  0  0
 72 75  1  0  0  0
 72142  1  0  0  0
 73 79  1  0  0  0
 73143  1  0  0  0
 74 80  1  0  0  0
 75 79  2  0  0  0
 75 81  1  0  0  0
 76 77  1  0  0  0
 76 78  1  0  0  0
 76144  1  0  0  0
 76145  1  0  0  0
 77 81  1  0  0  0
 77146  1  0  0  0
 77147  1  0  0  0
 78148  1  0  0  0
 78149  1  0  0  0
 80150  1  0  0  0
 81151  1  0  0  0
M  ISO  4   1 100  68 101  78 101  80 100
M  END
> <chiral flag>
0

> <version>
0

> <s_m_source_file>
/data/baiqing/PycharmProjects/Reinvent-master-3.2/result/LINK_invent/BTK/process_docking_weight1_custom_sum_contain_oxygen_bond_distance_aromatic_linkinvent_7_9_3/rearranged_h_0114.sdf

> <i_m_source_file_index>
2

> <r_mmod_Potential_Energy-OPLS-2005>
-14.8916463851929

> <r_mmod_Stretch_Energy-OPLS-2005>
111.181343078613

> <r_mmod_Bend_Energy-OPLS-2005>
162.919036865234

> <r_mmod_Torsional_Energy-OPLS-2005>
233.28076171875

> <r_mmod_Improper_Torsional_Energy-OPLS-2005>
5.24818754196167

> <r_mmod_Van_der_Waal_Energy-OPLS-2005>
147.241134643555

> <r_mmod_Electrostatic_Energy-OPLS-2005>
-511.973907470703

> <r_mmod_Solvation_Energy-OPLS-2005>
-245.328247070312

> <b_mmod_Minimization_Converged-OPLS-2005>
0

> <r_mmod_RMS_Derivative-OPLS-2005>
2.91585755348206

$$$$
2
                    3D
 Structure written by MMmdl.
179188  0  0  1  0            999 V2000
  -30.8068  -14.5012   20.4900 C   0  0  0  0  0  0
  -30.4015  -12.3220   19.4240 C   0  0  0  0  0  0
  -29.4700  -12.4519   18.2060 C   0  0  0  0  0  0
  -28.0117  -12.2633   18.6565 C   0  0  0  0  0  0
  -27.6419  -13.1834   19.8429 C   0  0  2  0  0  0
  -28.7054  -13.1114   20.9729 C   0  0  0  0  0  0
  -25.2523  -13.8079   20.5636 C   0  0  0  0  0  0
  -24.1787  -13.0389   20.9206 C   0  0  0  0  0  0
  -24.6361  -11.6870   20.8792 C   0  0  0  0  0  0
  -23.9036  -10.4280   21.0431 C   0  0  0  0  0  0
  -24.3614   -9.4189   21.9155 C   0  0  0  0  0  0
  -23.6332   -8.2225   22.0723 C   0  0  0  0  0  0
  -22.4318   -8.0269   21.3513 C   0  0  0  0  0  0
  -21.9960   -9.0214   20.4617 C   0  0  0  0  0  0
  -22.7261  -10.2097   20.3052 C   0  0  0  0  0  0
  -21.6866   -6.0749   22.5289 C   0  0  0  0  0  0
  -21.4023   -6.5629   23.8221 C   0  0  0  0  0  0
  -21.3662   -5.6752   24.9167 C   0  0  0  0  0  0
  -21.6060   -4.3038   24.7222 C   0  0  0  0  0  0
  -21.8840   -3.8146   23.4344 C   0  0  0  0  0  0
  -21.9211   -4.6975   22.3405 C   0  0  0  0  0  0
  -22.7806  -13.5149   21.1890 C   0  0  0  0  0  0
  -22.1667   -4.2173   21.0987 F   0  0  0  0  0  0
  -21.5643   -3.4539   25.7747 F   0  0  0  0  0  0
  -30.0271  -13.3810   20.3858 N   0  0  0  0  0  0
  -26.2938  -12.9188   20.3344 N   0  0  0  0  0  0
  -25.9261  -11.6414   20.5872 N   0  0  0  0  0  0
  -22.0433  -12.8141   22.0458 N   0  0  0  0  0  0
  -25.4132  -15.1791   20.3908 N   0  0  0  0  0  0
  -31.9908  -14.4595   20.1470 O   0  0  0  0  0  0
  -21.6638   -6.8894   21.4258 O   0  0  0  0  0  0
  -22.3456  -14.5432   20.6722 O   0  0  0  0  0  0
  -24.6130  -31.8688   23.2079 C   0  0  0  0  0  0
  -25.9026  -32.4830   23.8385 C   0  0  1  0  0  0
  -27.2478  -27.4699   20.0829 C   0  0  0  0  0  0
  -25.5888  -33.8615   24.2347 N   0  0  0  0  0  0
  -23.4030  -30.4902   21.5472 C   0  0  2  0  0  0
  -24.8511  -28.9596   20.1120 C   0  0  0  0  0  0
  -22.7426  -29.4642   22.4969 C   0  0  0  0  0  0
  -18.0270  -28.1377   22.8480 C   0  0  0  0  0  0
  -24.1485  -36.7356   23.2637 C   0  0  0  0  0  0
  -25.9245  -30.8521   21.3421 C   0  0  0  0  0  0
  -26.0095  -29.4841   20.7003 C   0  0  0  0  0  0
  -27.2169  -28.7461   20.6854 C   0  0  0  0  0  0
  -26.0669  -26.9389   19.5314 C   0  0  0  0  0  0
  -24.8735  -27.6837   19.5232 C   0  0  0  0  0  0
  -23.6090  -29.8209   20.1612 C   0  0  0  0  0  0
  -25.4091  -36.3127   24.0337 C   0  0  1  0  0  0
  -20.5866  -28.3661   23.1310 C   0  0  2  0  0  0
  -20.6768  -26.9396   22.5411 C   0  0  0  0  0  0
  -19.5750  -26.6398   21.5201 C   0  0  0  0  0  0
  -18.1929  -26.7927   22.1617 C   0  0  0  0  0  0
  -19.1533  -28.8823   23.2902 C   0  0  0  0  0  0
  -18.9455  -30.1426   23.8926 C   0  0  0  0  0  0
  -17.6467  -30.6581   24.0554 C   0  0  0  0  0  0
  -25.9014  -34.9487   23.5154 C   0  0  0  0  0  0
  -16.5349  -29.9090   23.6310 C   0  0  0  0  0  0
  -16.7262  -28.6503   23.0328 C   0  0  0  0  0  0
  -26.4464  -31.6550   25.0669 C   0  0  0  0  0  0
  -25.3753  -31.3595   26.1424 C   0  0  0  0  0  0
  -27.0223  -30.3007   24.5912 C   0  0  0  0  0  0
  -27.6054  -32.4212   25.7465 C   0  0  0  0  0  0
  -27.5570  -37.1835   24.8462 C   0  0  0  0  0  0
  -21.4151  -29.3042   22.3719 N   0  0  0  0  0  0
  -26.4277  -37.3817   23.9415 N   0  0  0  0  0  0
  -24.6665  -31.0833   22.0936 N   0  0  0  0  0  0
  -23.4208  -28.8151   23.2978 O   0  0  0  0  0  0
  -28.3709  -26.6815   20.0799 O   0  0  0  0  0  0
  -26.5620  -34.8940   22.4735 O   0  0  0  0  0  0
  -23.5325  -32.1365   23.7508 O   0  0  0  0  0  0
  -27.8703  -24.3547   17.5481 C   0  0  0  0  0  0
  -29.1193  -24.9771   17.8153 C   0  0  0  0  0  0
  -28.0195  -22.9992   17.5563 C   0  0  0  0  0  0
  -30.0148  -23.9527   18.0111 C   0  0  0  0  0  0
  -28.7357  -17.6924   20.1771 C   0  0  0  0  0  0
  -30.8404  -18.2330   21.2736 C   0  0  0  0  0  0
  -29.0212  -16.1785   20.2292 C   0  0  0  0  0  0
  -31.2650  -16.7485   21.3143 C   0  0  0  0  0  0
  -29.9654  -18.5887   20.0680 C   0  0  0  0  0  0
  -31.4870  -24.0265   18.2939 C   0  0  0  0  0  0
  -28.4174  -27.2405   16.8998 C   0  0  0  0  0  0
  -26.9621  -21.9779   17.2412 C   0  0  0  0  0  0
  -29.9981  -21.4000   17.9783 C   0  0  0  0  0  0
  -30.4458  -20.9920   19.4096 C   0  0  0  0  0  0
  -29.4527  -27.0916   19.2493 C   0  0  0  0  0  0
  -29.3873  -26.4797   17.8262 C   0  0  1  0  0  0
  -29.3518  -22.7262   17.8753 N   0  0  0  0  0  0
  -30.2801  -15.7138   20.8612 N   0  0  0  0  0  0
  -26.6398  -21.9862   15.8085 N   0  3  0  0  0  0
  -29.5558  -20.0191   20.0885 N   0  3  0  0  0  0
  -31.4376  -12.3851   19.0864 H   0  0  0  0  0  0
  -30.3004  -11.3400   19.8877 H   0  0  0  0  0  0
  -29.7217  -11.7050   17.4510 H   0  0  0  0  0  0
  -29.5996  -13.4229   17.7307 H   0  0  0  0  0  0
  -27.9003  -11.2225   18.9541 H   0  0  0  0  0  0
  -27.3221  -12.4126   17.8244 H   0  0  0  0  0  0
  -27.6109  -14.1730   19.4033 H   0  0  0  0  0  0
  -28.6971  -12.1181   21.4305 H   0  0  0  0  0  0
  -28.4749  -13.8087   21.7769 H   0  0  0  0  0  0
  -25.2759   -9.5688   22.4706 H   0  0  0  0  0  0
  -24.0055   -7.4628   22.7431 H   0  0  0  0  0  0
  -21.0898   -8.8770   19.8896 H   0  0  0  0  0  0
  -22.3745  -10.9642   19.6168 H   0  0  0  0  0  0
  -21.1984   -7.6122   23.9777 H   0  0  0  0  0  0
  -21.1454   -6.0443   25.9079 H   0  0  0  0  0  0
  -22.0619   -2.7618   23.2841 H   0  0  0  0  0  0
  -22.4064  -11.9826   22.4872 H   0  0  0  0  0  0
  -21.1021  -13.1110   22.2602 H   0  0  0  0  0  0
  -24.6283  -15.8144   20.4969 H   0  0  0  0  0  0
  -26.2591  -15.6466   20.0951 H   0  0  0  0  0  0
  -26.7123  -32.5571   23.1185 H   0  0  0  0  0  0
  -24.9951  -33.9774   25.0431 H   0  0  0  0  0  0
  -22.6890  -31.3034   21.4080 H   0  0  0  0  0  0
  -23.3727  -35.9716   23.3291 H   0  0  0  0  0  0
  -24.3583  -36.8979   22.2057 H   0  0  0  0  0  0
  -23.7249  -37.6567   23.6645 H   0  0  0  0  0  0
  -26.0056  -31.6076   20.5591 H   0  0  0  0  0  0
  -26.8253  -30.9356   21.9366 H   0  0  0  0  0  0
  -28.1098  -29.1468   21.1464 H   0  0  0  0  0  0
  -26.0790  -25.9522   19.0969 H   0  0  0  0  0  0
  -23.9839  -27.2652   19.0749 H   0  0  0  0  0  0
  -23.7087  -30.5951   19.3996 H   0  0  0  0  0  0
  -22.7361  -29.2337   19.8698 H   0  0  0  0  0  0
  -25.1251  -36.2029   25.0825 H   0  0  0  0  0  0
  -20.9969  -28.3249   24.1431 H   0  0  0  0  0  0
  -20.5671  -26.2274   23.3601 H   0  0  0  0  0  0
  -21.6635  -26.7429   22.1215 H   0  0  0  0  0  0
  -19.6923  -25.6327   21.1190 H   0  0  0  0  0  0
  -19.6691  -27.3253   20.6766 H   0  0  0  0  0  0
  -17.4196  -26.6654   21.4026 H   0  0  0  0  0  0
  -18.0337  -26.0062   22.9007 H   0  0  0  0  0  0
  -19.7913  -30.7230   24.2332 H   0  0  0  0  0  0
  -17.4999  -31.6248   24.5162 H   0  0  0  0  0  0
  -15.5356  -30.3000   23.7586 H   0  0  0  0  0  0
  -15.8664  -28.0834   22.7017 H   0  0  0  0  0  0
  -24.6032  -30.6813   25.7789 H   0  0  0  0  0  0
  -24.8807  -32.2691   26.4827 H   0  0  0  0  0  0
  -25.8160  -30.8854   27.0203 H   0  0  0  0  0  0
  -26.2689  -29.6846   24.0995 H   0  0  0  0  0  0
  -27.4067  -29.7143   25.4266 H   0  0  0  0  0  0
  -27.8498  -30.4346   23.8941 H   0  0  0  0  0  0
  -27.2723  -33.3524   26.2058 H   0  0  0  0  0  0
  -28.3908  -32.6729   25.0325 H   0  0  0  0  0  0
  -28.0672  -31.8285   26.5378 H   0  0  0  0  0  0
  -28.2598  -38.0128   24.7501 H   0  0  0  0  0  0
  -28.1060  -36.2658   24.6293 H   0  0  0  0  0  0
  -27.2287  -37.1490   25.8867 H   0  0  0  0  0  0
  -20.9310  -29.8825   21.6995 H   0  0  0  0  0  0
  -26.0175  -38.2899   24.1429 H   0  0  0  0  0  0
  -26.9415  -24.8602   17.3255 H   0  0  0  0  0  0
  -28.1890  -17.9635   21.0775 H   0  0  0  0  0  0
  -28.0536  -17.8848   19.3465 H   0  0  0  0  0  0
  -31.7401  -18.8519   21.2653 H   0  0  0  0  0  0
  -30.3213  -18.4743   22.2037 H   0  0  0  0  0  0
  -29.0073  -15.8226   19.1967 H   0  0  0  0  0  0
  -28.1714  -15.7373   20.7481 H   0  0  0  0  0  0
  -31.5933  -16.5001   22.3270 H   0  0  0  0  0  0
  -32.1710  -16.7135   20.7045 H   0  0  0  0  0  0
  -30.4826  -18.3634   19.1323 H   0  0  0  0  0  0
  -31.7162  -23.6706   19.2979 H   0  0  0  0  0  0
  -31.8524  -25.0500   18.2187 H   0  0  0  0  0  0
  -32.0539  -23.4338   17.5764 H   0  0  0  0  0  0
  -28.4380  -26.8279   15.8914 H   0  0  0  0  0  0
  -28.6830  -28.2941   16.8285 H   0  0  0  0  0  0
  -27.3893  -27.1864   17.2499 H   0  0  0  0  0  0
  -26.0583  -22.2138   17.8014 H   0  0  0  0  0  0
  -27.2537  -20.9750   17.5465 H   0  0  0  0  0  0
  -29.3961  -20.6310   17.5007 H   0  0  0  0  0  0
  -30.8954  -21.4459   17.3602 H   0  0  0  0  0  0
  -30.4713  -21.8784   20.0419 H   0  0  0  0  0  0
  -31.4686  -20.6124   19.3845 H   0  0  0  0  0  0
  -29.5442  -28.1761   19.2115 H   0  0  0  0  0  0
  -30.3605  -26.7320   19.7369 H   0  0  0  0  0  0
  -30.3723  -26.6209   17.3773 H   0  0  0  0  0  0
  -26.2514  -22.8790   15.5658 H   0  0  0  0  0  0
  -25.9693  -21.2739   15.5843 H   0  0  0  0  0  0
  -27.4677  -21.8335   15.2638 H   0  0  0  0  0  0
  -29.4849  -20.2964   21.0562 H   0  0  0  0  0  0
  -28.6355  -20.1115   19.6957 H   0  0  0  0  0  0
  1 25  1  0  0  0
  1 30  2  0  0  0
  1 88  1  0  0  0
  2  3  1  0  0  0
  2 25  1  0  0  0
  2 91  1  0  0  0
  2 92  1  0  0  0
  3  4  1  0  0  0
  3 93  1  0  0  0
  3 94  1  0  0  0
  4  5  1  0  0  0
  4 95  1  0  0  0
  4 96  1  0  0  0
  5  6  1  0  0  0
  5 26  1  0  0  0
  5 97  1  0  0  0
  6 25  1  0  0  0
  6 98  1  0  0  0
  6 99  1  0  0  0
  7  8  2  0  0  0
  7 26  1  0  0  0
  7 29  1  0  0  0
  8  9  1  0  0  0
  8 22  1  0  0  0
  9 10  1  0  0  0
  9 27  2  0  0  0
 10 11  2  0  0  0
 10 15  1  0  0  0
 11 12  1  0  0  0
 11100  1  0  0  0
 12 13  2  0  0  0
 12101  1  0  0  0
 13 14  1  0  0  0
 13 31  1  0  0  0
 14 15  2  0  0  0
 14102  1  0  0  0
 15103  1  0  0  0
 16 17  2  0  0  0
 16 21  1  0  0  0
 16 31  1  0  0  0
 17 18  1  0  0  0
 17104  1  0  0  0
 18 19  2  0  0  0
 18105  1  0  0  0
 19 20  1  0  0  0
 19 24  1  0  0  0
 20 21  2  0  0  0
 20106  1  0  0  0
 21 23  1  0  0  0
 22 28  1  0  0  0
 22 32  2  0  0  0
 26 27  1  0  0  0
 28107  1  0  0  0
 28108  1  0  0  0
 29109  1  0  0  0
 29110  1  0  0  0
 33 34  1  0  0  0
 33 66  1  0  0  0
 33 70  2  0  0  0
 34 36  1  0  0  0
 34 59  1  0  0  0
 34111  1  0  0  0
 35 44  2  0  0  0
 35 45  1  0  0  0
 35 68  1  0  0  0
 36 56  1  0  0  0
 36112  1  0  0  0
 37 39  1  0  0  0
 37 47  1  0  0  0
 37 66  1  0  0  0
 37113  1  0  0  0
 38 43  2  0  0  0
 38 46  1  0  0  0
 38 47  1  0  0  0
 39 64  1  0  0  0
 39 67  2  0  0  0
 40 52  1  0  0  0
 40 53  2  0  0  0
 40 58  1  0  0  0
 41114  1  0  0  0
 41115  1  0  0  0
 41116  1  0  0  0
 41 48  1  0  0  0
 42 43  1  0  0  0
 42 66  1  0  0  0
 42117  1  0  0  0
 42118  1  0  0  0
 43 44  1  0  0  0
 44119  1  0  0  0
 45 46  2  0  0  0
 45120  1  0  0  0
 46121  1  0  0  0
 47122  1  0  0  0
 47123  1  0  0  0
 48 56  1  0  0  0
 48 65  1  0  0  0
 48124  1  0  0  0
 49 50  1  0  0  0
 49 53  1  0  0  0
 49 64  1  0  0  0
 49125  1  0  0  0
 50 51  1  0  0  0
 50126  1  0  0  0
 50127  1  0  0  0
 51 52  1  0  0  0
 51128  1  0  0  0
 51129  1  0  0  0
 52130  1  0  0  0
 52131  1  0  0  0
 53 54  1  0  0  0
 54 55  2  0  0  0
 54132  1  0  0  0
 55 57  1  0  0  0
 55133  1  0  0  0
 56 69  2  0  0  0
 57 58  2  0  0  0
 57134  1  0  0  0
 58135  1  0  0  0
 59 60  1  0  0  0
 59 61  1  0  0  0
 59 62  1  0  0  0
 60136  1  0  0  0
 60137  1  0  0  0
 60138  1  0  0  0
 61139  1  0  0  0
 61140  1  0  0  0
 61141  1  0  0  0
 62142  1  0  0  0
 62143  1  0  0  0
 62144  1  0  0  0
 63 65  1  0  0  0
 63145  1  0  0  0
 63146  1  0  0  0
 63147  1  0  0  0
 64148  1  0  0  0
 65149  1  0  0  0
 68 85  1  0  0  0
 71 72  1  0  0  0
 71 73  2  0  0  0
 71150  1  0  0  0
 72 74  2  0  0  0
 72 86  1  0  0  0
 73 82  1  0  0  0
 73 87  1  0  0  0
 74 80  1  0  0  0
 74 87  1  0  0  0
 75 77  1  0  0  0
 75 79  1  0  0  0
 75151  1  0  0  0
 75152  1  0  0  0
 76 78  1  0  0  0
 76 79  1  0  0  0
 76153  1  0  0  0
 76154  1  0  0  0
 77 88  1  0  0  0
 77155  1  0  0  0
 77156  1  0  0  0
 78 88  1  0  0  0
 78157  1  0  0  0
 78158  1  0  0  0
 79 90  1  0  0  0
 79159  1  0  0  0
 80160  1  0  0  0
 80161  1  0  0  0
 80162  1  0  0  0
 81163  1  0  0  0
 81164  1  0  0  0
 81165  1  0  0  0
 81 86  1  0  0  0
 82 89  1  0  0  0
 82166  1  0  0  0
 82167  1  0  0  0
 83 84  1  0  0  0
 83 87  1  0  0  0
 83168  1  0  0  0
 83169  1  0  0  0
 84 90  1  0  0  0
 84170  1  0  0  0
 84171  1  0  0  0
 85 86  1  0  0  0
 85172  1  0  0  0
 85173  1  0  0  0
 86174  1  0  0  0
 89175  1  0  0  0
 89176  1  0  0  0
 89177  1  0  0  0
 90178  1  0  0  0
 90179  1  0  0  0
M  CHG  2  89   1  90   1
M  ISO  4   1 100  68 101  85 101  88 100
M  END
> <chiral flag>
0

> <version>
0

> <s_m_source_file>
/data/baiqing/PycharmProjects/Reinvent-master-3.2/result/LINK_invent/BTK/process_docking_weight1_custom_sum_contain_oxygen_bond_distance_aromatic_linkinvent_7_9_3/rearranged_h_0114.sdf

> <i_m_source_file_index>
3

> <r_mmod_Potential_Energy-OPLS-2005>
-225.005737304688

> <r_mmod_Stretch_Energy-OPLS-2005>
45.3899993896484

> <r_mmod_Bend_Energy-OPLS-2005>
147.492599487305

> <r_mmod_Torsional_Energy-OPLS-2005>
362.706909179688

> <r_mmod_Improper_Torsional_Energy-OPLS-2005>
4.72773361206055

> <r_mmod_Van_der_Waal_Energy-OPLS-2005>
138.062957763672

> <r_mmod_Electrostatic_Energy-OPLS-2005>
42.3047485351562

> <r_mmod_Solvation_Energy-OPLS-2005>
-997.394226074219

> <b_mmod_Minimization_Converged-OPLS-2005>
0

> <r_mmod_RMS_Derivative-OPLS-2005>
5.90419769287109

$$$$
3
                    3D
 Structure written by MMmdl.
152160  0  0  1  0            999 V2000
  -30.5052  -14.9762   20.4195 C   0  0  0  0  0  0
  -30.4405  -12.6035   19.5098 C   0  0  0  0  0  0
  -29.5263  -12.5447   18.2625 C   0  0  0  0  0  0
  -28.0567  -12.3280   18.6713 C   0  0  0  0  0  0
  -27.6280  -13.2512   19.8442 C   0  0  2  0  0  0
  -28.6680  -13.2706   20.9853 C   0  0  0  0  0  0
  -25.2430  -13.8205   20.5701 C   0  0  0  0  0  0
  -24.1749  -13.0415   20.9228 C   0  0  0  0  0  0
  -24.6370  -11.6911   20.8745 C   0  0  0  0  0  0
  -23.9047  -10.4283   21.0399 C   0  0  0  0  0  0
  -24.3597   -9.4204   21.9184 C   0  0  0  0  0  0
  -23.6284   -8.2228   22.0746 C   0  0  0  0  0  0
  -22.4270   -8.0262   21.3535 C   0  0  0  0  0  0
  -21.9894   -9.0232   20.4643 C   0  0  0  0  0  0
  -22.7210  -10.2120   20.3059 C   0  0  0  0  0  0
  -21.6862   -6.0707   22.5262 C   0  0  0  0  0  0
  -21.4017   -6.5615   23.8193 C   0  0  0  0  0  0
  -21.3669   -5.6776   24.9162 C   0  0  0  0  0  0
  -21.6054   -4.3040   24.7219 C   0  0  0  0  0  0
  -21.8826   -3.8122   23.4343 C   0  0  0  0  0  0
  -21.9190   -4.6933   22.3392 C   0  0  0  0  0  0
  -22.7772  -13.5193   21.1877 C   0  0  0  0  0  0
  -22.1666   -4.2116   21.0973 F   0  0  0  0  0  0
  -21.5627   -3.4528   25.7734 F   0  0  0  0  0  0
  -29.9413  -13.6993   20.3940 N   0  0  0  0  0  0
  -26.2862  -12.9447   20.3252 N   0  0  0  0  0  0
  -25.9309  -11.6570   20.5727 N   0  0  0  0  0  0
  -22.0416  -12.8211   22.0462 N   0  0  0  0  0  0
  -25.4068  -15.1925   20.4101 N   0  0  0  0  0  0
  -31.6989  -15.0632   20.1104 O   0  0  0  0  0  0
  -21.6649   -6.8852   21.4224 O   0  0  0  0  0  0
  -22.3456  -14.5480   20.6700 O   0  0  0  0  0  0
  -24.6455  -31.8404   23.1815 C   0  0  0  0  0  0
  -25.9216  -32.4678   23.8228 C   0  0  1  0  0  0
  -27.2256  -27.1086   20.1574 C   0  0  0  0  0  0
  -25.5949  -33.8481   24.2147 N   0  0  0  0  0  0
  -23.4507  -30.4565   21.5269 C   0  0  2  0  0  0
  -24.9033  -28.8751   20.1059 C   0  0  0  0  0  0
  -22.7573  -29.4531   22.4834 C   0  0  0  0  0  0
  -18.0308  -28.1415   22.8469 C   0  0  0  0  0  0
  -24.1485  -36.7256   23.2641 C   0  0  0  0  0  0
  -26.0058  -30.7081   21.3805 C   0  0  0  0  0  0
  -26.0781  -29.3140   20.7269 C   0  0  0  0  0  0
  -27.2339  -28.4451   20.7372 C   0  0  0  0  0  0
  -26.0253  -26.7755   19.4912 C   0  0  0  0  0  0
  -24.8922  -27.6222   19.4717 C   0  0  0  0  0  0
  -23.6792  -29.7791   20.1480 C   0  0  0  0  0  0
  -25.4119  -36.3014   24.0303 C   0  0  1  0  0  0
  -20.5914  -28.3722   23.1237 C   0  0  2  0  0  0
  -20.6770  -26.9422   22.5401 C   0  0  0  0  0  0
  -19.5750  -26.6386   21.5202 C   0  0  0  0  0  0
  -18.1941  -26.7952   22.1627 C   0  0  0  0  0  0
  -19.1561  -28.8892   23.2850 C   0  0  0  0  0  0
  -18.9479  -30.1492   23.8867 C   0  0  0  0  0  0
  -17.6467  -30.6598   24.0564 C   0  0  0  0  0  0
  -25.9068  -34.9399   23.5033 C   0  0  0  0  0  0
  -16.5361  -29.9089   23.6340 C   0  0  0  0  0  0
  -16.7291  -28.6523   23.0342 C   0  0  0  0  0  0
  -26.4531  -31.6562   25.0686 C   0  0  0  0  0  0
  -25.3714  -31.3751   26.1378 C   0  0  0  0  0  0
  -27.0380  -30.2957   24.6264 C   0  0  0  0  0  0
  -27.6059  -32.4324   25.7484 C   0  0  0  0  0  0
  -27.5567  -37.1780   24.8465 C   0  0  0  0  0  0
  -21.4258  -29.3047   22.3598 N   0  0  0  0  0  0
  -26.4278  -37.3733   23.9406 N   0  0  0  0  0  0
  -24.7211  -31.0231   22.0861 N   0  0  0  0  0  0
  -23.4208  -28.8091   23.3006 O   0  0  0  0  0  0
  -28.2948  -26.1412   20.2835 O   0  0  0  0  0  0
  -26.5656  -34.8901   22.4613 O   0  0  0  0  0  0
  -23.5566  -32.1305   23.7006 O   0  0  0  0  0  0
  -27.8743  -19.4364   22.9958 C   0  0  0  0  0  0
  -28.5297  -18.3942   22.3102 C   0  0  0  0  0  0
  -28.0105  -20.5643   22.2569 C   0  0  0  0  0  0
  -29.0636  -18.8460   21.1303 C   0  0  0  0  0  0
  -29.8429  -17.6952   20.2655 C   0  0  0  0  0  0
  -28.8625  -21.6211   20.1564 C   0  0  0  0  0  0
  -28.3577  -24.6500   19.7887 C   0  0  0  0  0  0
  -28.5469  -23.2297   20.7014 C   0  0  2  0  0  0
  -28.7269  -20.3315   21.0834 N   0  0  0  0  0  0
  -29.6909  -16.1377   20.5842 N   0  0  0  0  0  0
  -29.6065  -23.5325   21.5954 O   0  0  0  0  0  0
  -31.4765  -12.7635   19.2086 H   0  0  0  0  0  0
  -30.4321  -11.6472   20.0344 H   0  0  0  0  0  0
  -29.8488  -11.7497   17.5890 H   0  0  0  0  0  0
  -29.6174  -13.4758   17.7013 H   0  0  0  0  0  0
  -27.9476  -11.2842   18.9644 H   0  0  0  0  0  0
  -27.3990  -12.4750   17.8141 H   0  0  0  0  0  0
  -27.5920  -14.2570   19.4254 H   0  0  0  0  0  0
  -28.7615  -12.2871   21.4484 H   0  0  0  0  0  0
  -28.3661  -13.9564   21.7777 H   0  0  0  0  0  0
  -25.2733   -9.5687   22.4773 H   0  0  0  0  0  0
  -23.9992   -7.4617   22.7467 H   0  0  0  0  0  0
  -21.0818   -8.8731   19.8964 H   0  0  0  0  0  0
  -22.3637  -10.9649   19.6179 H   0  0  0  0  0  0
  -21.2026   -7.6128   23.9684 H   0  0  0  0  0  0
  -21.1500   -6.0512   25.9060 H   0  0  0  0  0  0
  -22.0610   -2.7583   23.2847 H   0  0  0  0  0  0
  -22.4047  -11.9903   22.4894 H   0  0  0  0  0  0
  -21.1026  -13.1237   22.2638 H   0  0  0  0  0  0
  -24.6293  -15.8371   20.5047 H   0  0  0  0  0  0
  -26.2397  -15.6341   20.0417 H   0  0  0  0  0  0
  -26.7280  -32.5280   23.0953 H   0  0  0  0  0  0
  -25.0048  -33.9579   25.0261 H   0  0  0  0  0  0
  -22.7563  -31.2827   21.3646 H   0  0  0  0  0  0
  -23.3740  -35.9594   23.3289 H   0  0  0  0  0  0
  -24.3566  -36.8908   22.2057 H   0  0  0  0  0  0
  -23.7256  -37.6449   23.6699 H   0  0  0  0  0  0
  -26.1502  -31.4563   20.5999 H   0  0  0  0  0  0
  -26.8798  -30.7710   22.0168 H   0  0  0  0  0  0
  -28.1288  -28.7748   21.2470 H   0  0  0  0  0  0
  -25.9165  -25.8159   19.0111 H   0  0  0  0  0  0
  -23.9945  -27.2797   18.9761 H   0  0  0  0  0  0
  -23.8145  -30.5484   19.3868 H   0  0  0  0  0  0
  -22.7947  -29.2167   19.8418 H   0  0  0  0  0  0
  -25.1309  -36.1819   25.0793 H   0  0  0  0  0  0
  -21.0015  -28.3294   24.1357 H   0  0  0  0  0  0
  -20.5621  -26.2334   23.3615 H   0  0  0  0  0  0
  -21.6643  -26.7392   22.1227 H   0  0  0  0  0  0
  -19.6891  -25.6283   21.1266 H   0  0  0  0  0  0
  -19.6702  -27.3165   20.6708 H   0  0  0  0  0  0
  -17.4195  -26.6681   21.4048 H   0  0  0  0  0  0
  -18.0367  -26.0114   22.9052 H   0  0  0  0  0  0
  -19.7948  -30.7330   24.2211 H   0  0  0  0  0  0
  -17.5015  -31.6275   24.5174 H   0  0  0  0  0  0
  -15.5362  -30.2977   23.7677 H   0  0  0  0  0  0
  -15.8699  -28.0835   22.7047 H   0  0  0  0  0  0
  -24.5909  -30.7086   25.7696 H   0  0  0  0  0  0
  -24.8890  -32.2922   26.4753 H   0  0  0  0  0  0
  -25.8000  -30.8961   27.0189 H   0  0  0  0  0  0
  -26.2979  -29.6692   24.1277 H   0  0  0  0  0  0
  -27.3987  -29.7255   25.4832 H   0  0  0  0  0  0
  -27.8890  -30.4182   23.9568 H   0  0  0  0  0  0
  -27.2661  -33.3651   26.1997 H   0  0  0  0  0  0
  -28.3918  -32.6841   25.0353 H   0  0  0  0  0  0
  -28.0679  -31.8494   26.5457 H   0  0  0  0  0  0
  -28.2565  -38.0090   24.7490 H   0  0  0  0  0  0
  -28.1073  -36.2612   24.6308 H   0  0  0  0  0  0
  -27.2280  -37.1447   25.8867 H   0  0  0  0  0  0
  -20.9454  -29.8797   21.6817 H   0  0  0  0  0  0
  -26.0130  -38.2789   24.1427 H   0  0  0  0  0  0
  -27.3540  -19.3734   23.9436 H   0  0  0  0  0  0
  -28.6024  -17.3759   22.6668 H   0  0  0  0  0  0
  -27.6291  -21.5417   22.5080 H   0  0  0  0  0  0
  -29.5622  -17.8154   19.2185 H   0  0  0  0  0  0
  -30.9102  -17.9149   20.2916 H   0  0  0  0  0  0
  -29.8606  -21.5896   19.7203 H   0  0  0  0  0  0
  -28.1873  -21.4471   19.3197 H   0  0  0  0  0  0
  -29.2171  -24.6584   19.1184 H   0  0  0  0  0  0
  -27.5235  -24.4678   19.1150 H   0  0  0  0  0  0
  -27.6234  -23.2006   21.2757 H   0  0  0  0  0  0
  -28.7471  -15.8989   20.8445 H   0  0  0  0  0  0
  -29.4684  -24.4271   21.8949 H   0  0  0  0  0  0
  1 25  1  0  0  0
  1 30  2  0  0  0
  1 80  1  0  0  0
  2  3  1  0  0  0
  2 25  1  0  0  0
  2 82  1  0  0  0
  2 83  1  0  0  0
  3  4  1  0  0  0
  3 84  1  0  0  0
  3 85  1  0  0  0
  4  5  1  0  0  0
  4 86  1  0  0  0
  4 87  1  0  0  0
  5  6  1  0  0  0
  5 26  1  0  0  0
  5 88  1  0  0  0
  6 25  1  0  0  0
  6 89  1  0  0  0
  6 90  1  0  0  0
  7  8  2  0  0  0
  7 26  1  0  0  0
  7 29  1  0  0  0
  8  9  1  0  0  0
  8 22  1  0  0  0
  9 10  1  0  0  0
  9 27  2  0  0  0
 10 11  2  0  0  0
 10 15  1  0  0  0
 11 12  1  0  0  0
 11 91  1  0  0  0
 12 13  2  0  0  0
 12 92  1  0  0  0
 13 14  1  0  0  0
 13 31  1  0  0  0
 14 15  2  0  0  0
 14 93  1  0  0  0
 15 94  1  0  0  0
 16 17  2  0  0  0
 16 21  1  0  0  0
 16 31  1  0  0  0
 17 18  1  0  0  0
 17 95  1  0  0  0
 18 19  2  0  0  0
 18 96  1  0  0  0
 19 20  1  0  0  0
 19 24  1  0  0  0
 20 21  2  0  0  0
 20 97  1  0  0  0
 21 23  1  0  0  0
 22 28  1  0  0  0
 22 32  2  0  0  0
 26 27  1  0  0  0
 28 98  1  0  0  0
 28 99  1  0  0  0
 29100  1  0  0  0
 29101  1  0  0  0
 33 34  1  0  0  0
 33 66  1  0  0  0
 33 70  2  0  0  0
 34 36  1  0  0  0
 34 59  1  0  0  0
 34102  1  0  0  0
 35 44  2  0  0  0
 35 45  1  0  0  0
 35 68  1  0  0  0
 36 56  1  0  0  0
 36103  1  0  0  0
 37 39  1  0  0  0
 37 47  1  0  0  0
 37 66  1  0  0  0
 37104  1  0  0  0
 38 43  2  0  0  0
 38 46  1  0  0  0
 38 47  1  0  0  0
 39 64  1  0  0  0
 39 67  2  0  0  0
 40 52  1  0  0  0
 40 53  2  0  0  0
 40 58  1  0  0  0
 41105  1  0  0  0
 41106  1  0  0  0
 41107  1  0  0  0
 41 48  1  0  0  0
 42 43  1  0  0  0
 42 66  1  0  0  0
 42108  1  0  0  0
 42109  1  0  0  0
 43 44  1  0  0  0
 44110  1  0  0  0
 45 46  2  0  0  0
 45111  1  0  0  0
 46112  1  0  0  0
 47113  1  0  0  0
 47114  1  0  0  0
 48 56  1  0  0  0
 48 65  1  0  0  0
 48115  1  0  0  0
 49 50  1  0  0  0
 49 53  1  0  0  0
 49 64  1  0  0  0
 49116  1  0  0  0
 50 51  1  0  0  0
 50117  1  0  0  0
 50118  1  0  0  0
 51 52  1  0  0  0
 51119  1  0  0  0
 51120  1  0  0  0
 52121  1  0  0  0
 52122  1  0  0  0
 53 54  1  0  0  0
 54 55  2  0  0  0
 54123  1  0  0  0
 55 57  1  0  0  0
 55124  1  0  0  0
 56 69  2  0  0  0
 57 58  2  0  0  0
 57125  1  0  0  0
 58126  1  0  0  0
 59 60  1  0  0  0
 59 61  1  0  0  0
 59 62  1  0  0  0
 60127  1  0  0  0
 60128  1  0  0  0
 60129  1  0  0  0
 61130  1  0  0  0
 61131  1  0  0  0
 61132  1  0  0  0
 62133  1  0  0  0
 62134  1  0  0  0
 62135  1  0  0  0
 63 65  1  0  0  0
 63136  1  0  0  0
 63137  1  0  0  0
 63138  1  0  0  0
 64139  1  0  0  0
 65140  1  0  0  0
 68 77  1  0  0  0
 71 72  1  0  0  0
 71 73  2  0  0  0
 71141  1  0  0  0
 72 74  2  0  0  0
 72142  1  0  0  0
 73 79  1  0  0  0
 73143  1  0  0  0
 74 75  1  0  0  0
 74 79  1  0  0  0
 75 80  1  0  0  0
 75144  1  0  0  0
 75145  1  0  0  0
 76 78  1  0  0  0
 76 79  1  0  0  0
 76146  1  0  0  0
 76147  1  0  0  0
 77 78  1  0  0  0
 77148  1  0  0  0
 77149  1  0  0  0
 78 81  1  0  0  0
 78150  1  0  0  0
 80151  1  0  0  0
 81152  1  0  0  0
M  ISO  4   1 100  68 101  77 101  80 100
M  END
> <chiral flag>
0

> <version>
0

> <s_m_source_file>
/data/baiqing/PycharmProjects/Reinvent-master-3.2/result/LINK_invent/BTK/process_docking_weight1_custom_sum_contain_oxygen_bond_distance_aromatic_linkinvent_7_9_3/rearranged_h_0114.sdf

> <i_m_source_file_index>
4

> <r_mmod_Potential_Energy-OPLS-2005>
596.311706542969

> <r_mmod_Stretch_Energy-OPLS-2005>
321.472076416016

> <r_mmod_Bend_Energy-OPLS-2005>
332.933380126953

> <r_mmod_Torsional_Energy-OPLS-2005>
222.58464050293

> <r_mmod_Improper_Torsional_Energy-OPLS-2005>
5.18376493453979

> <r_mmod_Van_der_Waal_Energy-OPLS-2005>
112.247009277344

> <r_mmod_Electrostatic_Energy-OPLS-2005>
-372.804565429688

> <r_mmod_Solvation_Energy-OPLS-2005>
-238.843460083008

> <b_mmod_Minimization_Converged-OPLS-2005>
0

> <r_mmod_RMS_Derivative-OPLS-2005>
1.84865713119507

$$$$
4
                    3D
 Structure written by MMmdl.
156165  0  0  1  0            999 V2000
  -30.3963  -15.3767   20.3788 C   0  0  0  0  0  0
  -30.4269  -12.8924   19.5388 C   0  0  0  0  0  0
  -29.5377  -12.6016   18.3012 C   0  0  0  0  0  0
  -28.0885  -12.3081   18.7236 C   0  0  0  0  0  0
  -27.6001  -13.2872   19.8196 C   0  0  2  0  0  0
  -28.6271  -13.5094   20.9521 C   0  0  0  0  0  0
  -25.2331  -13.8259   20.5782 C   0  0  0  0  0  0
  -24.1697  -13.0444   20.9288 C   0  0  0  0  0  0
  -24.6357  -11.6941   20.8761 C   0  0  0  0  0  0
  -23.9062  -10.4291   21.0376 C   0  0  0  0  0  0
  -24.3614   -9.4216   21.9164 C   0  0  0  0  0  0
  -23.6326   -8.2224   22.0719 C   0  0  0  0  0  0
  -22.4315   -8.0248   21.3511 C   0  0  0  0  0  0
  -21.9934   -9.0205   20.4607 C   0  0  0  0  0  0
  -22.7231  -10.2106   20.3036 C   0  0  0  0  0  0
  -21.6871   -6.0715   22.5273 C   0  0  0  0  0  0
  -21.4026   -6.5612   23.8210 C   0  0  0  0  0  0
  -21.3671   -5.6765   24.9182 C   0  0  0  0  0  0
  -21.6061   -4.3026   24.7239 C   0  0  0  0  0  0
  -21.8831   -3.8120   23.4356 C   0  0  0  0  0  0
  -21.9217   -4.6941   22.3411 C   0  0  0  0  0  0
  -22.7716  -13.5191   21.1944 C   0  0  0  0  0  0
  -22.1675   -4.2115   21.0994 F   0  0  0  0  0  0
  -21.5640   -3.4513   25.7753 F   0  0  0  0  0  0
  -29.8426  -14.0528   20.3211 N   0  0  0  0  0  0
  -26.2752  -12.9561   20.3227 N   0  0  0  0  0  0
  -25.9298  -11.6650   20.5720 N   0  0  0  0  0  0
  -22.0365  -12.8173   22.0484 N   0  0  0  0  0  0
  -25.3923  -15.1993   20.4249 N   0  0  0  0  0  0
  -31.6213  -15.3558   20.1874 O   0  0  0  0  0  0
  -21.6674   -6.8852   21.4230 O   0  0  0  0  0  0
  -22.3416  -14.5498   20.6811 O   0  0  0  0  0  0
  -24.6686  -31.8179   23.1688 C   0  0  0  0  0  0
  -25.9352  -32.4567   23.8169 C   0  0  1  0  0  0
  -27.2170  -26.8436   20.2261 C   0  0  0  0  0  0
  -25.5972  -33.8382   24.2062 N   0  0  0  0  0  0
  -23.4889  -30.4250   21.5227 C   0  0  2  0  0  0
  -24.9412  -28.7884   20.1373 C   0  0  0  0  0  0
  -22.7691  -29.4419   22.4835 C   0  0  0  0  0  0
  -18.0296  -28.1420   22.8466 C   0  0  0  0  0  0
  -24.1489  -36.7192   23.2646 C   0  0  0  0  0  0
  -26.0628  -30.5960   21.4145 C   0  0  0  0  0  0
  -26.1279  -29.1705   20.7790 C   0  0  0  0  0  0
  -27.2608  -28.2234   20.7941 C   0  0  0  0  0  0
  -26.0114  -26.6506   19.5162 C   0  0  0  0  0  0
  -24.9089  -27.5464   19.4883 C   0  0  0  0  0  0
  -23.7330  -29.7292   20.1558 C   0  0  0  0  0  0
  -25.4143  -36.2973   24.0289 C   0  0  1  0  0  0
  -20.5933  -28.3766   23.1188 C   0  0  2  0  0  0
  -20.6790  -26.9449   22.5419 C   0  0  0  0  0  0
  -19.5778  -26.6392   21.5232 C   0  0  0  0  0  0
  -18.1943  -26.7936   22.1623 C   0  0  0  0  0  0
  -19.1563  -28.8913   23.2797 C   0  0  0  0  0  0
  -18.9463  -30.1482   23.8857 C   0  0  0  0  0  0
  -17.6472  -30.6601   24.0553 C   0  0  0  0  0  0
  -25.9118  -34.9342   23.5007 C   0  0  0  0  0  0
  -16.5365  -29.9094   23.6351 C   0  0  0  0  0  0
  -16.7276  -28.6511   23.0376 C   0  0  0  0  0  0
  -26.4582  -31.6514   25.0699 C   0  0  0  0  0  0
  -25.3676  -31.3787   26.1326 C   0  0  0  0  0  0
  -27.0464  -30.2846   24.6478 C   0  0  0  0  0  0
  -27.6080  -32.4324   25.7500 C   0  0  0  0  0  0
  -27.5575  -37.1763   24.8467 C   0  0  0  0  0  0
  -21.4372  -29.3017   22.3535 N   0  0  0  0  0  0
  -26.4300  -37.3706   23.9393 N   0  0  0  0  0  0
  -24.7609  -30.9755   22.0879 N   0  0  0  0  0  0
  -23.4185  -28.8004   23.3129 O   0  0  0  0  0  0
  -28.2507  -25.7526   20.0793 O   0  0  0  0  0  0
  -26.5773  -34.8879   22.4626 O   0  0  0  0  0  0
  -23.5744  -32.1195   23.6729 O   0  0  0  0  0  0
  -27.5271  -19.6114   20.2606 C   0  0  0  0  0  0
  -26.6268  -20.7032   20.2283 C   0  0  0  0  0  0
  -27.0065  -22.0582   20.2834 C   0  0  0  0  0  0
  -28.9126  -19.8265   20.3854 C   0  0  0  0  0  0
  -28.3442  -22.4988   20.3634 C   0  0  0  0  0  0
  -25.1241  -20.5638   20.1944 C   0  0  0  0  0  0
  -25.7884  -22.9464   20.3454 C   0  0  0  0  0  0
  -24.6170  -22.0077   20.0002 C   0  0  0  0  0  0
  -30.1426  -24.3875   20.7019 C   0  0  0  0  0  0
  -29.9180  -18.3567   20.4561 C   0  0  0  0  0  0
  -28.6161  -24.2328   20.7213 C   0  0  1  0  0  0
  -29.2463  -21.2947   20.4507 N   0  0  0  0  0  0
  -29.6354  -16.6758   20.4612 N   0  0  0  0  0  0
  -31.4388  -13.1188   19.2020 H   0  0  0  0  0  0
  -30.5188  -12.0007   20.1643 H   0  0  0  0  0  0
  -29.9460  -11.7682   17.7294 H   0  0  0  0  0  0
  -29.5507  -13.4677   17.6356 H   0  0  0  0  0  0
  -28.0550  -11.2873   19.1034 H   0  0  0  0  0  0
  -27.4246  -12.3336   17.8584 H   0  0  0  0  0  0
  -27.5014  -14.2431   19.3042 H   0  0  0  0  0  0
  -28.8224  -12.5916   21.5095 H   0  0  0  0  0  0
  -28.2428  -14.2314   21.6754 H   0  0  0  0  0  0
  -25.2731   -9.5735   22.4790 H   0  0  0  0  0  0
  -24.0032   -7.4631   22.7445 H   0  0  0  0  0  0
  -21.0856   -8.8715   19.8931 H   0  0  0  0  0  0
  -22.3624  -10.9654   19.6182 H   0  0  0  0  0  0
  -21.1987   -7.6110   23.9715 H   0  0  0  0  0  0
  -21.1494   -6.0482   25.9080 H   0  0  0  0  0  0
  -22.0605   -2.7577   23.2872 H   0  0  0  0  0  0
  -22.4014  -11.9867   22.4890 H   0  0  0  0  0  0
  -21.0960  -13.1133   22.2649 H   0  0  0  0  0  0
  -24.6142  -15.8412   20.5347 H   0  0  0  0  0  0
  -26.2263  -15.6433   20.0638 H   0  0  0  0  0  0
  -26.7408  -32.5080   23.0888 H   0  0  0  0  0  0
  -24.9990  -33.9464   25.0111 H   0  0  0  0  0  0
  -22.8059  -31.2578   21.3432 H   0  0  0  0  0  0
  -23.3776  -35.9499   23.3311 H   0  0  0  0  0  0
  -24.3569  -36.8847   22.2063 H   0  0  0  0  0  0
  -23.7209  -37.6359   23.6703 H   0  0  0  0  0  0
  -26.2480  -31.3281   20.6276 H   0  0  0  0  0  0
  -26.9234  -30.6672   22.0675 H   0  0  0  0  0  0
  -28.1711  -28.5344   21.2863 H   0  0  0  0  0  0
  -25.9028  -25.7403   18.9508 H   0  0  0  0  0  0
  -24.0185  -27.2520   18.9518 H   0  0  0  0  0  0
  -23.8937  -30.4913   19.3912 H   0  0  0  0  0  0
  -22.8436  -29.1820   19.8397 H   0  0  0  0  0  0
  -25.1351  -36.1807   25.0785 H   0  0  0  0  0  0
  -20.9974  -28.3375   24.1331 H   0  0  0  0  0  0
  -20.5688  -26.2399   23.3657 H   0  0  0  0  0  0
  -21.6653  -26.7442   22.1234 H   0  0  0  0  0  0
  -19.6967  -25.6300   21.1271 H   0  0  0  0  0  0
  -19.6711  -27.3196   20.6759 H   0  0  0  0  0  0
  -17.4221  -26.6653   21.4018 H   0  0  0  0  0  0
  -18.0324  -26.0099   22.9041 H   0  0  0  0  0  0
  -19.7936  -30.7286   24.2247 H   0  0  0  0  0  0
  -17.5018  -31.6289   24.5144 H   0  0  0  0  0  0
  -15.5355  -30.2992   23.7697 H   0  0  0  0  0  0
  -15.8662  -28.0805   22.7162 H   0  0  0  0  0  0
  -24.5915  -30.7084   25.7617 H   0  0  0  0  0  0
  -24.8791  -32.2979   26.4547 H   0  0  0  0  0  0
  -25.7866  -30.9093   27.0230 H   0  0  0  0  0  0
  -26.3128  -29.6530   24.1446 H   0  0  0  0  0  0
  -27.3897  -29.7214   25.5170 H   0  0  0  0  0  0
  -27.9135  -30.3981   23.9972 H   0  0  0  0  0  0
  -27.2662  -33.3682   26.1935 H   0  0  0  0  0  0
  -28.3961  -32.6786   25.0373 H   0  0  0  0  0  0
  -28.0665  -31.8531   26.5527 H   0  0  0  0  0  0
  -28.2608  -38.0050   24.7525 H   0  0  0  0  0  0
  -28.1075  -36.2581   24.6324 H   0  0  0  0  0  0
  -27.2295  -37.1437   25.8874 H   0  0  0  0  0  0
  -20.9667  -29.8622   21.6560 H   0  0  0  0  0  0
  -26.0168  -38.2780   24.1372 H   0  0  0  0  0  0
  -27.1433  -18.6002   20.2189 H   0  0  0  0  0  0
  -24.7767  -20.1590   21.1434 H   0  0  0  0  0  0
  -24.7946  -19.8972   19.3953 H   0  0  0  0  0  0
  -25.8658  -23.7662   19.6400 H   0  0  0  0  0  0
  -25.6739  -23.3551   21.3505 H   0  0  0  0  0  0
  -23.7027  -22.2328   20.5543 H   0  0  0  0  0  0
  -24.3925  -22.1315   18.9418 H   0  0  0  0  0  0
  -30.6291  -23.6376   21.3282 H   0  0  0  0  0  0
  -30.4508  -25.3697   21.0614 H   0  0  0  0  0  0
  -30.5221  -24.2719   19.6852 H   0  0  0  0  0  0
  -30.6443  -18.4996   19.6572 H   0  0  0  0  0  0
  -30.5039  -18.5042   21.3641 H   0  0  0  0  0  0
  -28.2909  -24.3216   21.7588 H   0  0  0  0  0  0
  -28.6473  -16.4961   20.5530 H   0  0  0  0  0  0
  1 25  1  0  0  0
  1 30  2  0  0  0
  1 83  1  0  0  0
  2  3  1  0  0  0
  2 25  1  0  0  0
  2 84  1  0  0  0
  2 85  1  0  0  0
  3  4  1  0  0  0
  3 86  1  0  0  0
  3 87  1  0  0  0
  4  5  1  0  0  0
  4 88  1  0  0  0
  4 89  1  0  0  0
  5  6  1  0  0  0
  5 26  1  0  0  0
  5 90  1  0  0  0
  6 25  1  0  0  0
  6 91  1  0  0  0
  6 92  1  0  0  0
  7  8  2  0  0  0
  7 26  1  0  0  0
  7 29  1  0  0  0
  8  9  1  0  0  0
  8 22  1  0  0  0
  9 10  1  0  0  0
  9 27  2  0  0  0
 10 11  2  0  0  0
 10 15  1  0  0  0
 11 12  1  0  0  0
 11 93  1  0  0  0
 12 13  2  0  0  0
 12 94  1  0  0  0
 13 14  1  0  0  0
 13 31  1  0  0  0
 14 15  2  0  0  0
 14 95  1  0  0  0
 15 96  1  0  0  0
 16 17  2  0  0  0
 16 21  1  0  0  0
 16 31  1  0  0  0
 17 18  1  0  0  0
 17 97  1  0  0  0
 18 19  2  0  0  0
 18 98  1  0  0  0
 19 20  1  0  0  0
 19 24  1  0  0  0
 20 21  2  0  0  0
 20 99  1  0  0  0
 21 23  1  0  0  0
 22 28  1  0  0  0
 22 32  2  0  0  0
 26 27  1  0  0  0
 28100  1  0  0  0
 28101  1  0  0  0
 29102  1  0  0  0
 29103  1  0  0  0
 33 34  1  0  0  0
 33 66  1  0  0  0
 33 70  2  0  0  0
 34 36  1  0  0  0
 34 59  1  0  0  0
 34104  1  0  0  0
 35 44  2  0  0  0
 35 45  1  0  0  0
 35 68  1  0  0  0
 36 56  1  0  0  0
 36105  1  0  0  0
 37 39  1  0  0  0
 37 47  1  0  0  0
 37 66  1  0  0  0
 37106  1  0  0  0
 38 43  2  0  0  0
 38 46  1  0  0  0
 38 47  1  0  0  0
 39 64  1  0  0  0
 39 67  2  0  0  0
 40 52  1  0  0  0
 40 53  2  0  0  0
 40 58  1  0  0  0
 41107  1  0  0  0
 41108  1  0  0  0
 41109  1  0  0  0
 41 48  1  0  0  0
 42 43  1  0  0  0
 42 66  1  0  0  0
 42110  1  0  0  0
 42111  1  0  0  0
 43 44  1  0  0  0
 44112  1  0  0  0
 45 46  2  0  0  0
 45113  1  0  0  0
 46114  1  0  0  0
 47115  1  0  0  0
 47116  1  0  0  0
 48 56  1  0  0  0
 48 65  1  0  0  0
 48117  1  0  0  0
 49 50  1  0  0  0
 49 53  1  0  0  0
 49 64  1  0  0  0
 49118  1  0  0  0
 50 51  1  0  0  0
 50119  1  0  0  0
 50120  1  0  0  0
 51 52  1  0  0  0
 51121  1  0  0  0
 51122  1  0  0  0
 52123  1  0  0  0
 52124  1  0  0  0
 53 54  1  0  0  0
 54 55  2  0  0  0
 54125  1  0  0  0
 55 57  1  0  0  0
 55126  1  0  0  0
 56 69  2  0  0  0
 57 58  2  0  0  0
 57127  1  0  0  0
 58128  1  0  0  0
 59 60  1  0  0  0
 59 61  1  0  0  0
 59 62  1  0  0  0
 60129  1  0  0  0
 60130  1  0  0  0
 60131  1  0  0  0
 61132  1  0  0  0
 61133  1  0  0  0
 61134  1  0  0  0
 62135  1  0  0  0
 62136  1  0  0  0
 62137  1  0  0  0
 63 65  1  0  0  0
 63138  1  0  0  0
 63139  1  0  0  0
 63140  1  0  0  0
 64141  1  0  0  0
 65142  1  0  0  0
 68 81  1  0  0  0
 71 72  2  0  0  0
 71 74  1  0  0  0
 71143  1  0  0  0
 72 73  1  0  0  0
 72 76  1  0  0  0
 73 75  2  0  0  0
 73 77  1  0  0  0
 74 80  1  0  0  0
 74 82  2  0  0  0
 75 81  1  0  0  0
 75 82  1  0  0  0
 76 78  1  0  0  0
 76144  1  0  0  0
 76145  1  0  0  0
 77 78  1  0  0  0
 77146  1  0  0  0
 77147  1  0  0  0
 78148  1  0  0  0
 78149  1  0  0  0
 79150  1  0  0  0
 79151  1  0  0  0
 79152  1  0  0  0
 79 81  1  0  0  0
 80 83  1  0  0  0
 80153  1  0  0  0
 80154  1  0  0  0
 81155  1  0  0  0
 83156  1  0  0  0
M  ISO  4   1 100  68 101  81 101  83 100
M  END
> <chiral flag>
0

> <version>
0

> <s_m_source_file>
/data/baiqing/PycharmProjects/Reinvent-master-3.2/result/LINK_invent/BTK/process_docking_weight1_custom_sum_contain_oxygen_bond_distance_aromatic_linkinvent_7_9_3/rearranged_h_0114.sdf

> <i_m_source_file_index>
5

> <r_mmod_Potential_Energy-OPLS-2005>
1415.93334960938

> <r_mmod_Stretch_Energy-OPLS-2005>
711.544921875

> <r_mmod_Bend_Energy-OPLS-2005>
584.965270996094

> <r_mmod_Torsional_Energy-OPLS-2005>
257.307403564453

> <r_mmod_Improper_Torsional_Energy-OPLS-2005>
7.93698024749756

> <r_mmod_Van_der_Waal_Energy-OPLS-2005>
116.058250427246

> <r_mmod_Electrostatic_Energy-OPLS-2005>
-590.527282714844

> <r_mmod_Solvation_Energy-OPLS-2005>
-238.521240234375

> <b_mmod_Minimization_Converged-OPLS-2005>
0

> <r_mmod_RMS_Derivative-OPLS-2005>
4.55862617492676

$$$$
5
                    3D
 Structure written by MMmdl.
168176  0  0  1  0            999 V2000
  -29.0265  -16.0745   20.9827 C   0  0  0  0  0  0
  -30.1259  -13.6338   19.8398 C   0  0  0  0  0  0
  -29.5257  -12.9070   18.5581 C   0  0  0  0  0  0
  -28.1401  -12.3114   18.8544 C   0  0  0  0  0  0
  -27.4567  -13.2550   19.8527 C   0  0  2  0  0  0
  -28.2438  -13.5436   21.1270 C   0  0  0  0  0  0
  -25.1526  -13.8002   20.5524 C   0  0  0  0  0  0
  -24.1050  -13.0210   20.9168 C   0  0  0  0  0  0
  -24.5760  -11.6717   20.8693 C   0  0  0  0  0  0
  -23.8668  -10.4135   21.0467 C   0  0  0  0  0  0
  -24.3405   -9.4134   21.9217 C   0  0  0  0  0  0
  -23.6181   -8.2132   22.0774 C   0  0  0  0  0  0
  -22.4172   -8.0129   21.3544 C   0  0  0  0  0  0
  -21.9698   -9.0040   20.4644 C   0  0  0  0  0  0
  -22.6912  -10.1949   20.3074 C   0  0  0  0  0  0
  -21.6810   -6.0640   22.5289 C   0  0  0  0  0  0
  -21.3978   -6.5593   23.8201 C   0  0  0  0  0  0
  -21.3655   -5.6772   24.9177 C   0  0  0  0  0  0
  -21.6047   -4.3033   24.7251 C   0  0  0  0  0  0
  -21.8820   -3.8094   23.4384 C   0  0  0  0  0  0
  -21.9180   -4.6883   22.3424 C   0  0  0  0  0  0
  -22.7222  -13.5072   21.1958 C   0  0  0  0  0  0
  -22.1652   -4.2067   21.1004 F   0  0  0  0  0  0
  -21.5633   -3.4533   25.7777 F   0  0  0  0  0  0
  -29.1241  -14.5809   20.6720 N   0  0  0  0  0  0
  -26.1554  -12.9054   20.2621 N   0  0  0  0  0  0
  -25.8519  -11.6223   20.5329 N   0  0  0  0  0  0
  -21.9989  -12.8086   22.0598 N   0  0  0  0  0  0
  -25.3363  -15.1774   20.4292 N   0  0  0  0  0  0
  -30.2745  -16.2766   20.7179 O   0  0  0  0  0  0
  -21.6586   -6.8717   21.4226 O   0  0  0  0  0  0
  -22.2999  -14.5446   20.6858 O   0  0  0  0  0  0
  -24.7108  -31.9573   23.1985 C   0  0  0  0  0  0
  -25.9820  -32.5239   23.8636 C   0  0  1  0  0  0
  -27.0685  -27.3656   20.2579 C   0  0  0  0  0  0
  -25.6536  -33.8925   24.2614 N   0  0  0  0  0  0
  -23.5520  -30.7048   21.4854 C   0  0  2  0  0  0
  -24.8880  -29.0676   20.0589 C   0  0  0  0  0  0
  -22.9406  -29.7338   22.4559 C   0  0  0  0  0  0
  -18.3129  -26.3692   22.9085 C   0  0  0  0  0  0
  -24.1518  -36.7387   23.2585 C   0  0  0  0  0  0
  -26.0488  -30.8956   21.3457 C   0  0  0  0  0  0
  -26.0564  -29.5225   20.6907 C   0  0  0  0  0  0
  -27.1756  -28.6793   20.7613 C   0  0  0  0  0  0
  -25.9526  -26.9598   19.5151 C   0  0  0  0  0  0
  -24.8422  -27.8085   19.4315 C   0  0  0  0  0  0
  -23.7268  -30.0198   20.0960 C   0  0  0  0  0  0
  -25.4145  -36.3261   24.0307 C   0  0  1  0  0  0
  -21.4754  -28.2369   21.9299 C   0  0  2  0  0  0
  -20.8971  -27.8121   20.0932 C   0  0  0  0  0  0
  -19.1285  -26.7367   19.6400 C   0  0  0  0  0  0
  -17.8841  -26.0443   21.1297 C   0  0  0  0  0  0
  -20.5551  -27.8349   23.2978 C   0  0  0  0  0  0
  -20.1456  -29.0805   24.4903 C   0  0  0  0  0  0
  -18.6087  -29.2717   25.1559 C   0  0  0  0  0  0
  -25.9186  -34.9680   23.5136 C   0  0  0  0  0  0
  -17.2451  -28.3697   24.8847 C   0  0  0  0  0  0
  -17.0588  -27.0316   23.8976 C   0  0  0  0  0  0
  -26.4743  -31.6714   25.0901 C   0  0  0  0  0  0
  -25.3790  -31.3890   26.1451 C   0  0  0  0  0  0
  -27.0369  -30.3116   24.6118 C   0  0  0  0  0  0
  -27.6324  -32.4200   25.7892 C   0  0  0  0  0  0
  -27.5606  -37.1911   24.8448 C   0  0  0  0  0  0
  -21.6945  -29.5760   22.1419 N   0  0  0  0  0  0
  -26.4293  -37.3963   23.9438 N   0  0  0  0  0  0
  -24.7962  -31.2135   22.0650 N   0  0  0  0  0  0
  -23.5725  -29.0458   23.2765 O   0  0  0  0  0  0
  -27.7735  -26.3615   20.8285 O   0  0  0  0  0  0
  -26.5532  -34.9079   22.4567 O   0  0  0  0  0  0
  -23.6169  -32.2295   23.7306 O   0  0  0  0  0  0
  -19.0958  -28.0338   21.5820 C   0  0  0  0  0  0
  -18.5500  -28.5101   22.9197 C   0  0  0  0  0  0
  -20.1978  -26.2499   21.6399 C   0  0  0  0  0  0
  -19.4003  -26.7535   24.7457 C   0  0  0  0  0  0
  -20.6834  -25.3011   22.6194 C   0  0  0  0  0  0
  -20.6731  -25.3792   24.0520 C   0  0  0  0  0  0
  -23.8150  -22.1530   23.4259 C   0  0  0  0  0  0
  -26.7313  -18.9423   22.0780 C   0  0  0  0  0  0
  -25.9071  -24.9149   22.3277 C   0  0  0  0  0  0
  -23.7210  -24.9929   23.9397 C   0  0  0  0  0  0
  -27.0927  -26.0082   22.1322 C   0  0  0  0  0  0
  -22.4364  -23.9922   24.0110 C   0  0  1  0  0  0
  -24.8877  -20.3300   22.4219 C   0  0  1  0  0  0
  -27.7505  -17.2287   21.4233 N   0  0  0  0  0  0
  -23.8246  -19.3106   22.4911 N   0  3  0  0  0  0
  -24.4255  -25.2794   22.5972 N   0  3  0  0  0  0
  -30.9684  -14.2330   19.4973 H   0  0  0  0  0  0
  -30.5839  -12.8921   20.4967 H   0  0  0  0  0  0
  -30.2057  -12.1340   18.1928 H   0  0  0  0  0  0
  -29.4338  -13.6450   17.7570 H   0  0  0  0  0  0
  -28.2590  -11.3206   19.2980 H   0  0  0  0  0  0
  -27.5541  -12.2007   17.9423 H   0  0  0  0  0  0
  -27.3223  -14.1714   19.2712 H   0  0  0  0  0  0
  -28.7117  -12.6601   21.5710 H   0  0  0  0  0  0
  -27.6177  -13.9840   21.9075 H   0  0  0  0  0  0
  -25.2531   -9.5700   22.4782 H   0  0  0  0  0  0
  -23.9925   -7.4532   22.7485 H   0  0  0  0  0  0
  -21.0640   -8.8476   19.8961 H   0  0  0  0  0  0
  -22.3318  -10.9482   19.6211 H   0  0  0  0  0  0
  -21.1964   -7.6103   23.9676 H   0  0  0  0  0  0
  -21.1487   -6.0517   25.9073 H   0  0  0  0  0  0
  -22.0622   -2.7558   23.2912 H   0  0  0  0  0  0
  -22.3628  -11.9695   22.4846 H   0  0  0  0  0  0
  -21.0661  -13.1128   22.2999 H   0  0  0  0  0  0
  -24.5789  -15.8299   20.5849 H   0  0  0  0  0  0
  -26.2011  -15.6397   20.1802 H   0  0  0  0  0  0
  -26.8104  -32.5890   23.1604 H   0  0  0  0  0  0
  -25.0851  -34.0053   25.0871 H   0  0  0  0  0  0
  -22.8752  -31.5521   21.3473 H   0  0  0  0  0  0
  -23.3814  -35.9678   23.3234 H   0  0  0  0  0  0
  -24.3616  -36.9016   22.2001 H   0  0  0  0  0  0
  -23.7208  -37.6566   23.6599 H   0  0  0  0  0  0
  -26.1980  -31.6514   20.5733 H   0  0  0  0  0  0
  -26.9357  -30.9309   21.9688 H   0  0  0  0  0  0
  -28.0390  -28.9666   21.3456 H   0  0  0  0  0  0
  -25.8776  -25.9465   19.1453 H   0  0  0  0  0  0
  -23.9528  -27.4761   18.9133 H   0  0  0  0  0  0
  -23.9348  -30.7937   19.3566 H   0  0  0  0  0  0
  -22.8255  -29.5329   19.7418 H   0  0  0  0  0  0
  -25.1285  -36.2125   25.0784 H   0  0  0  0  0  0
  -22.3324  -27.5541   22.0262 H   0  0  0  0  0  0
  -21.7272  -27.2911   19.6100 H   0  0  0  0  0  0
  -20.8367  -28.7441   19.5319 H   0  0  0  0  0  0
  -19.4066  -25.8899   19.0095 H   0  0  0  0  0  0
  -18.5277  -27.3434   18.9631 H   0  0  0  0  0  0
  -16.8814  -26.4425   20.9607 H   0  0  0  0  0  0
  -17.7791  -24.9661   21.0125 H   0  0  0  0  0  0
  -20.8712  -29.8531   24.6973 H   0  0  0  0  0  0
  -18.4898  -30.1125   25.8257 H   0  0  0  0  0  0
  -16.3529  -28.6974   25.3986 H   0  0  0  0  0  0
  -16.0573  -26.6549   23.7542 H   0  0  0  0  0  0
  -24.5780  -30.7618   25.7532 H   0  0  0  0  0  0
  -24.9251  -32.3109   26.5107 H   0  0  0  0  0  0
  -25.7883  -30.8712   27.0135 H   0  0  0  0  0  0
  -26.2897  -29.7215   24.0799 H   0  0  0  0  0  0
  -27.3757  -29.7045   25.4523 H   0  0  0  0  0  0
  -27.8970  -30.4379   23.9531 H   0  0  0  0  0  0
  -27.3100  -33.3615   26.2366 H   0  0  0  0  0  0
  -28.4399  -32.6529   25.0933 H   0  0  0  0  0  0
  -28.0673  -31.8274   26.5962 H   0  0  0  0  0  0
  -28.2569  -38.0277   24.7626 H   0  0  0  0  0  0
  -28.1183  -36.2816   24.6128 H   0  0  0  0  0  0
  -27.2342  -37.1365   25.8854 H   0  0  0  0  0  0
  -21.2544  -30.2314   21.5111 H   0  0  0  0  0  0
  -26.0173  -38.3009   24.1558 H   0  0  0  0  0  0
  -18.8214  -28.7016   20.7672 H   0  0  0  0  0  0
  -17.9695  -29.4327   22.9207 H   0  0  0  0  0  0
  -20.6375  -25.6995   20.8062 H   0  0  0  0  0  0
  -19.2801  -26.8958   25.8097 H   0  0  0  0  0  0
  -21.2458  -24.4881   22.1794 H   0  0  0  0  0  0
  -23.6777  -21.6442   24.3795 H   0  0  0  0  0  0
  -24.7609  -22.6751   23.5517 H   0  0  0  0  0  0
  -27.1984  -19.0211   23.0581 H   0  0  0  0  0  0
  -27.2996  -19.6442   21.4656 H   0  0  0  0  0  0
  -26.2276  -24.2940   23.1649 H   0  0  0  0  0  0
  -25.9314  -24.2307   21.4788 H   0  0  0  0  0  0
  -24.4683  -24.6418   24.6505 H   0  0  0  0  0  0
  -23.4147  -25.9537   24.3508 H   0  0  0  0  0  0
  -27.9237  -25.6119   22.7213 H   0  0  0  0  0  0
  -26.8235  -26.9094   22.6908 H   0  0  0  0  0  0
  -22.3213  -23.7247   25.0628 H   0  0  0  0  0  0
  -24.8391  -20.7105   21.3972 H   0  0  0  0  0  0
  -28.4152  -17.8735   21.0106 H   0  0  0  0  0  0
  -23.7612  -18.9495   23.4286 H   0  0  0  0  0  0
  -24.0300  -18.5431   21.8738 H   0  0  0  0  0  0
  -22.9291  -19.6812   22.2277 H   0  0  0  0  0  0
  -23.8972  -24.7569   21.9164 H   0  0  0  0  0  0
  -24.2827  -26.2535   22.3780 H   0  0  0  0  0  0
  1 25  1  0  0  0
  1 30  2  0  0  0
  1 84  1  0  0  0
  2  3  1  0  0  0
  2 25  1  0  0  0
  2 87  1  0  0  0
  2 88  1  0  0  0
  3  4  1  0  0  0
  3 89  1  0  0  0
  3 90  1  0  0  0
  4  5  1  0  0  0
  4 91  1  0  0  0
  4 92  1  0  0  0
  5  6  1  0  0  0
  5 26  1  0  0  0
  5 93  1  0  0  0
  6 25  1  0  0  0
  6 94  1  0  0  0
  6 95  1  0  0  0
  7  8  2  0  0  0
  7 26  1  0  0  0
  7 29  1  0  0  0
  8  9  1  0  0  0
  8 22  1  0  0  0
  9 10  1  0  0  0
  9 27  2  0  0  0
 10 11  2  0  0  0
 10 15  1  0  0  0
 11 12  1  0  0  0
 11 96  1  0  0  0
 12 13  2  0  0  0
 12 97  1  0  0  0
 13 14  1  0  0  0
 13 31  1  0  0  0
 14 15  2  0  0  0
 14 98  1  0  0  0
 15 99  1  0  0  0
 16 17  2  0  0  0
 16 21  1  0  0  0
 16 31  1  0  0  0
 17 18  1  0  0  0
 17100  1  0  0  0
 18 19  2  0  0  0
 18101  1  0  0  0
 19 20  1  0  0  0
 19 24  1  0  0  0
 20 21  2  0  0  0
 20102  1  0  0  0
 21 23  1  0  0  0
 22 28  1  0  0  0
 22 32  2  0  0  0
 26 27  1  0  0  0
 28103  1  0  0  0
 28104  1  0  0  0
 29105  1  0  0  0
 29106  1  0  0  0
 33 34  1  0  0  0
 33 66  1  0  0  0
 33 70  2  0  0  0
 34 36  1  0  0  0
 34 59  1  0  0  0
 34107  1  0  0  0
 35 44  2  0  0  0
 35 45  1  0  0  0
 35 68  1  0  0  0
 36 56  1  0  0  0
 36108  1  0  0  0
 37 39  1  0  0  0
 37 47  1  0  0  0
 37 66  1  0  0  0
 37109  1  0  0  0
 38 43  2  0  0  0
 38 46  1  0  0  0
 38 47  1  0  0  0
 39 64  1  0  0  0
 39 67  2  0  0  0
 40 52  1  0  0  0
 40 53  2  0  0  0
 40 58  1  0  0  0
 41110  1  0  0  0
 41111  1  0  0  0
 41112  1  0  0  0
 41 48  1  0  0  0
 42 43  1  0  0  0
 42 66  1  0  0  0
 42113  1  0  0  0
 42114  1  0  0  0
 43 44  1  0  0  0
 44115  1  0  0  0
 45 46  2  0  0  0
 45116  1  0  0  0
 46117  1  0  0  0
 47118  1  0  0  0
 47119  1  0  0  0
 48 56  1  0  0  0
 48 65  1  0  0  0
 48120  1  0  0  0
 49 50  1  0  0  0
 49 53  1  0  0  0
 49 64  1  0  0  0
 49121  1  0  0  0
 50 51  1  0  0  0
 50122  1  0  0  0
 50123  1  0  0  0
 51 52  1  0  0  0
 51124  1  0  0  0
 51125  1  0  0  0
 52126  1  0  0  0
 52127  1  0  0  0
 53 54  1  0  0  0
 54 55  2  0  0  0
 54128  1  0  0  0
 55 57  1  0  0  0
 55129  1  0  0  0
 56 69  2  0  0  0
 57 58  2  0  0  0
 57130  1  0  0  0
 58131  1  0  0  0
 59 60  1  0  0  0
 59 61  1  0  0  0
 59 62  1  0  0  0
 60132  1  0  0  0
 60133  1  0  0  0
 60134  1  0  0  0
 61135  1  0  0  0
 61136  1  0  0  0
 61137  1  0  0  0
 62138  1  0  0  0
 62139  1  0  0  0
 62140  1  0  0  0
 63 65  1  0  0  0
 63141  1  0  0  0
 63142  1  0  0  0
 63143  1  0  0  0
 64144  1  0  0  0
 65145  1  0  0  0
 68 81  1  0  0  0
 71 72  2  0  0  0
 71 73  1  0  0  0
 71146  1  0  0  0
 72 74  1  0  0  0
 72147  1  0  0  0
 73 75  2  0  0  0
 73148  1  0  0  0
 74 76  2  0  0  0
 74149  1  0  0  0
 75 76  1  0  0  0
 75150  1  0  0  0
 76 82  1  0  0  0
 77 83  1  0  0  0
 77151  1  0  0  0
 77152  1  0  0  0
 77 82  1  0  0  0
 78 83  1  0  0  0
 78 84  1  0  0  0
 78153  1  0  0  0
 78154  1  0  0  0
 79 81  1  0  0  0
 79 86  1  0  0  0
 79155  1  0  0  0
 79156  1  0  0  0
 80 82  1  0  0  0
 80 86  1  0  0  0
 80157  1  0  0  0
 80158  1  0  0  0
 81159  1  0  0  0
 81160  1  0  0  0
 82161  1  0  0  0
 83 85  1  0  0  0
 83162  1  0  0  0
 84163  1  0  0  0
 85164  1  0  0  0
 85165  1  0  0  0
 85166  1  0  0  0
 86167  1  0  0  0
 86168  1  0  0  0
M  CHG  2  85   1  86   1
M  ISO  4   1 100  68 101  81 101  84 100
M  END
> <chiral flag>
0

> <version>
0

> <s_m_source_file>
/data/baiqing/PycharmProjects/Reinvent-master-3.2/result/LINK_invent/BTK/process_docking_weight1_custom_sum_contain_oxygen_bond_distance_aromatic_linkinvent_7_9_3/rearranged_h_0114.sdf

> <i_m_source_file_index>
6

> <r_mmod_Potential_Energy-OPLS-2005>
26548.560546875

> <r_mmod_Stretch_Energy-OPLS-2005>
14455.88671875

> <r_mmod_Bend_Energy-OPLS-2005>
2018.46606445312

> <r_mmod_Torsional_Energy-OPLS-2005>
558.996643066406

> <r_mmod_Improper_Torsional_Energy-OPLS-2005>
57.5403938293457

> <r_mmod_Van_der_Waal_Energy-OPLS-2005>
4956.44140625

> <r_mmod_Electrostatic_Energy-OPLS-2005>
-24.4200115203857

> <r_mmod_Solvation_Energy-OPLS-2005>
-985.546508789062

> <b_mmod_Minimization_Converged-OPLS-2005>
0

> <r_mmod_RMS_Derivative-OPLS-2005>
13.3886499404907

$$$$
6
                    3D
 Structure written by MMmdl.
177185  0  0  1  0            999 V2000
  -30.6786  -14.4406   20.4972 C   0  0  0  0  0  0
  -30.4195  -12.2635   19.4137 C   0  0  0  0  0  0
  -29.4925  -12.4844   18.1987 C   0  0  0  0  0  0
  -28.0079  -12.3578   18.6058 C   0  0  0  0  0  0
  -27.6596  -13.1820   19.8732 C   0  0  2  0  0  0
  -28.7080  -12.9667   20.9908 C   0  0  0  0  0  0
  -25.2643  -13.8033   20.5681 C   0  0  0  0  0  0
  -24.1858  -13.0381   20.9204 C   0  0  0  0  0  0
  -24.6383  -11.6851   20.8776 C   0  0  0  0  0  0
  -23.9042  -10.4265   21.0425 C   0  0  0  0  0  0
  -24.3603   -9.4183   21.9191 C   0  0  0  0  0  0
  -23.6273   -8.2234   22.0741 C   0  0  0  0  0  0
  -22.4246   -8.0289   21.3542 C   0  0  0  0  0  0
  -21.9899   -9.0266   20.4627 C   0  0  0  0  0  0
  -22.7242  -10.2127   20.3036 C   0  0  0  0  0  0
  -21.6847   -6.0754   22.5278 C   0  0  0  0  0  0
  -21.3995   -6.5644   23.8202 C   0  0  0  0  0  0
  -21.3636   -5.6790   24.9159 C   0  0  0  0  0  0
  -21.6024   -4.3061   24.7206 C   0  0  0  0  0  0
  -21.8849   -3.8160   23.4330 C   0  0  0  0  0  0
  -21.9200   -4.6985   22.3397 C   0  0  0  0  0  0
  -22.7884  -13.5244   21.1852 C   0  0  0  0  0  0
  -22.1666   -4.2175   21.0980 F   0  0  0  0  0  0
  -21.5610   -3.4537   25.7714 F   0  0  0  0  0  0
  -30.0385  -13.2504   20.4265 N   0  0  0  0  0  0
  -26.3025  -12.9154   20.3380 N   0  0  0  0  0  0
  -25.9301  -11.6350   20.5804 N   0  0  0  0  0  0
  -22.0447  -12.8212   22.0285 N   0  0  0  0  0  0
  -25.4448  -15.1674   20.4061 N   0  0  0  0  0  0
  -31.8621  -14.6018   20.1991 O   0  0  0  0  0  0
  -21.6615   -6.8888   21.4226 O   0  0  0  0  0  0
  -22.3646  -14.5625   20.6747 O   0  0  0  0  0  0
  -24.6080  -31.8711   23.2136 C   0  0  0  0  0  0
  -25.9001  -32.4839   23.8416 C   0  0  1  0  0  0
  -27.2687  -27.5003   20.0985 C   0  0  0  0  0  0
  -25.5873  -33.8627   24.2352 N   0  0  0  0  0  0
  -23.3950  -30.4911   21.5507 C   0  0  2  0  0  0
  -24.8484  -28.9597   20.1222 C   0  0  0  0  0  0
  -22.7381  -29.4670   22.5020 C   0  0  0  0  0  0
  -18.0263  -28.1411   22.8488 C   0  0  0  0  0  0
  -24.1481  -36.7309   23.2643 C   0  0  0  0  0  0
  -25.9146  -30.8623   21.3545 C   0  0  0  0  0  0
  -25.9988  -29.4983   20.7081 C   0  0  0  0  0  0
  -27.2093  -28.7844   20.6890 C   0  0  0  0  0  0
  -26.0997  -26.9632   19.5194 C   0  0  0  0  0  0
  -24.8890  -27.6856   19.5270 C   0  0  0  0  0  0
  -23.6046  -29.8169   20.1666 C   0  0  0  0  0  0
  -25.4097  -36.3111   24.0356 C   0  0  1  0  0  0
  -20.5846  -28.3674   23.1346 C   0  0  2  0  0  0
  -20.6749  -26.9414   22.5445 C   0  0  0  0  0  0
  -19.5728  -26.6398   21.5240 C   0  0  0  0  0  0
  -18.1900  -26.7966   22.1618 C   0  0  0  0  0  0
  -19.1513  -28.8858   23.2919 C   0  0  0  0  0  0
  -18.9446  -30.1462   23.8946 C   0  0  0  0  0  0
  -17.6453  -30.6611   24.0590 C   0  0  0  0  0  0
  -25.9021  -34.9471   23.5150 C   0  0  0  0  0  0
  -16.5340  -29.9135   23.6326 C   0  0  0  0  0  0
  -16.7256  -28.6553   23.0343 C   0  0  0  0  0  0
  -26.4466  -31.6614   25.0725 C   0  0  0  0  0  0
  -25.3751  -31.3697   26.1477 C   0  0  0  0  0  0
  -27.0298  -30.3072   24.6056 C   0  0  0  0  0  0
  -27.6050  -32.4325   25.7476 C   0  0  0  0  0  0
  -27.5592  -37.1790   24.8453 C   0  0  0  0  0  0
  -21.4118  -29.3041   22.3764 N   0  0  0  0  0  0
  -26.4282  -37.3802   23.9432 N   0  0  0  0  0  0
  -24.6561  -31.0878   22.0988 N   0  0  0  0  0  0
  -23.4193  -28.8199   23.3018 O   0  0  0  0  0  0
  -28.4150  -26.7390   20.0448 O   0  0  0  0  0  0
  -26.5581  -34.8921   22.4716 O   0  0  0  0  0  0
  -23.5289  -32.1414   23.7575 O   0  0  0  0  0  0
  -26.0991  -19.2024   22.5951 C   0  0  0  0  0  0
  -26.4356  -18.3840   21.3443 C   0  0  0  0  0  0
  -27.4076  -19.3108   23.3883 C   0  0  0  0  0  0
  -27.8797  -17.8689   21.5263 C   0  0  2  0  0  0
  -28.5334  -18.9703   22.3930 C   0  0  1  0  0  0
  -30.1410  -22.5521   20.0403 C   0  0  0  0  0  0
  -30.8326  -17.2075   19.0735 C   0  0  0  0  0  0
  -30.3085  -25.8470   21.2220 C   0  0  0  0  0  0
  -29.4457  -24.8734   22.0386 C   0  0  0  0  0  0
  -29.7354  -21.1838   22.1980 C   0  0  0  0  0  0
  -29.5189  -27.1123   20.8749 C   0  0  0  0  0  0
  -28.6066  -17.5424   20.1967 C   0  0  1  0  0  0
  -29.5455  -22.5283   21.4618 C   0  0  1  0  0  0
  -30.0131  -16.8992   20.3473 C   0  0  1  0  0  0
  -29.8338  -15.4709   20.6317 N   0  0  0  0  0  0
  -30.1319  -23.6037   22.2581 N   0  0  0  0  0  0
  -28.8937  -20.1519   21.5672 N   0  3  0  0  0  0
  -27.7943  -16.6754   19.4231 O   0  0  0  0  0  0
  -31.4670  -12.3529   19.1206 H   0  0  0  0  0  0
  -30.3039  -11.2543   19.8109 H   0  0  0  0  0  0
  -29.7241  -11.7676   17.4094 H   0  0  0  0  0  0
  -29.6696  -13.4733   17.7741 H   0  0  0  0  0  0
  -27.7869  -11.3024   18.7764 H   0  0  0  0  0  0
  -27.3682  -12.6733   17.7793 H   0  0  0  0  0  0
  -27.6947  -14.2197   19.5658 H   0  0  0  0  0  0
  -28.6770  -11.9356   21.3459 H   0  0  0  0  0  0
  -28.4984  -13.5926   21.8603 H   0  0  0  0  0  0
  -25.2746   -9.5676   22.4763 H   0  0  0  0  0  0
  -23.9978   -7.4619   22.7457 H   0  0  0  0  0  0
  -21.0836   -8.8813   19.8933 H   0  0  0  0  0  0
  -22.3736  -10.9679   19.6132 H   0  0  0  0  0  0
  -21.1986   -7.6145   23.9716 H   0  0  0  0  0  0
  -21.1395   -6.0501   25.9057 H   0  0  0  0  0  0
  -22.0658   -2.7635   23.2818 H   0  0  0  0  0  0
  -22.3970  -11.9780   22.4580 H   0  0  0  0  0  0
  -21.1032  -13.1208   22.2425 H   0  0  0  0  0  0
  -24.7104  -15.8374   20.5979 H   0  0  0  0  0  0
  -26.3075  -15.6181   20.0876 H   0  0  0  0  0  0
  -26.7089  -32.5596   23.1213 H   0  0  0  0  0  0
  -25.0022  -33.9802   25.0494 H   0  0  0  0  0  0
  -22.6812  -31.3045   21.4075 H   0  0  0  0  0  0
  -23.3755  -35.9625   23.3262 H   0  0  0  0  0  0
  -24.3589  -36.8960   22.2064 H   0  0  0  0  0  0
  -23.7197  -37.6494   23.6669 H   0  0  0  0  0  0
  -26.0168  -31.6292   20.5847 H   0  0  0  0  0  0
  -26.8061  -30.9200   21.9682 H   0  0  0  0  0  0
  -28.0840  -29.2483   21.1197 H   0  0  0  0  0  0
  -26.1287  -25.9806   19.0685 H   0  0  0  0  0  0
  -24.0016  -27.2596   19.0786 H   0  0  0  0  0  0
  -23.7123  -30.5880   19.4023 H   0  0  0  0  0  0
  -22.7343  -29.2295   19.8698 H   0  0  0  0  0  0
  -25.1266  -36.1975   25.0849 H   0  0  0  0  0  0
  -20.9927  -28.3235   24.1471 H   0  0  0  0  0  0
  -20.5654  -26.2287   23.3631 H   0  0  0  0  0  0
  -21.6616  -26.7462   22.1224 H   0  0  0  0  0  0
  -19.6875  -25.6311   21.1271 H   0  0  0  0  0  0
  -19.6691  -27.3214   20.6778 H   0  0  0  0  0  0
  -17.4181  -26.6762   21.4003 H   0  0  0  0  0  0
  -18.0243  -26.0113   22.9000 H   0  0  0  0  0  0
  -19.7934  -30.7260   24.2331 H   0  0  0  0  0  0
  -17.5030  -31.6293   24.5199 H   0  0  0  0  0  0
  -15.5357  -30.3071   23.7645 H   0  0  0  0  0  0
  -15.8642  -28.0915   22.7025 H   0  0  0  0  0  0
  -24.5925  -30.7045   25.7810 H   0  0  0  0  0  0
  -24.8944  -32.2848   26.4941 H   0  0  0  0  0  0
  -25.8114  -30.8850   27.0223 H   0  0  0  0  0  0
  -26.2826  -29.6814   24.1155 H   0  0  0  0  0  0
  -27.4154  -29.7307   25.4484 H   0  0  0  0  0  0
  -27.8617  -30.4415   23.9135 H   0  0  0  0  0  0
  -27.2671  -33.3601   26.2095 H   0  0  0  0  0  0
  -28.3828  -32.6915   25.0286 H   0  0  0  0  0  0
  -28.0753  -31.8431   26.5358 H   0  0  0  0  0  0
  -28.2552  -38.0142   24.7552 H   0  0  0  0  0  0
  -28.1138  -36.2669   24.6180 H   0  0  0  0  0  0
  -27.2329  -37.1322   25.8860 H   0  0  0  0  0  0
  -20.9272  -29.8799   21.7020 H   0  0  0  0  0  0
  -26.0167  -38.2871   24.1476 H   0  0  0  0  0  0
  -25.3243  -18.7150   23.1877 H   0  0  0  0  0  0
  -25.7175  -20.1861   22.3147 H   0  0  0  0  0  0
  -26.3636  -19.0110   20.4535 H   0  0  0  0  0  0
  -25.7216  -17.5771   21.2121 H   0  0  0  0  0  0
  -27.3941  -18.5561   24.1773 H   0  0  0  0  0  0
  -27.5163  -20.2747   23.8867 H   0  0  0  0  0  0
  -27.8288  -16.9584   22.1297 H   0  0  0  0  0  0
  -29.4191  -18.5988   22.9118 H   0  0  0  0  0  0
  -29.8160  -21.6988   19.4450 H   0  0  0  0  0  0
  -31.2311  -22.5502   20.0535 H   0  0  0  0  0  0
  -29.8169  -23.4385   19.4958 H   0  0  0  0  0  0
  -30.9653  -18.2842   18.9592 H   0  0  0  0  0  0
  -30.3443  -16.8446   18.1694 H   0  0  0  0  0  0
  -31.8389  -16.7938   19.1032 H   0  0  0  0  0  0
  -30.6722  -25.3903   20.3034 H   0  0  0  0  0  0
  -31.1933  -26.1196   21.7993 H   0  0  0  0  0  0
  -28.4753  -24.7370   21.5576 H   0  0  0  0  0  0
  -29.2299  -25.3191   23.0110 H   0  0  0  0  0  0
  -29.4285  -21.2979   23.2376 H   0  0  0  0  0  0
  -30.7796  -20.8670   22.2122 H   0  0  0  0  0  0
  -30.1493  -27.8299   20.3481 H   0  0  0  0  0  0
  -29.2090  -27.5696   21.8158 H   0  0  0  0  0  0
  -28.6927  -18.4637   19.6187 H   0  0  0  0  0  0
  -28.4660  -22.6816   21.3930 H   0  0  0  0  0  0
  -30.5431  -17.3416   21.1933 H   0  0  0  0  0  0
  -28.8670  -15.2055   20.7571 H   0  0  0  0  0  0
  -30.0431  -23.3697   23.2448 H   0  0  0  0  0  0
  -28.0431  -20.5843   21.2465 H   0  0  0  0  0  0
  -29.3973  -19.8353   20.7559 H   0  0  0  0  0  0
  -28.2147  -16.5639   18.5776 H   0  0  0  0  0  0
  1 25  1  0  0  0
  1 30  2  0  0  0
  1 85  1  0  0  0
  2  3  1  0  0  0
  2 25  1  0  0  0
  2 89  1  0  0  0
  2 90  1  0  0  0
  3  4  1  0  0  0
  3 91  1  0  0  0
  3 92  1  0  0  0
  4  5  1  0  0  0
  4 93  1  0  0  0
  4 94  1  0  0  0
  5  6  1  0  0  0
  5 26  1  0  0  0
  5 95  1  0  0  0
  6 25  1  0  0  0
  6 96  1  0  0  0
  6 97  1  0  0  0
  7  8  2  0  0  0
  7 26  1  0  0  0
  7 29  1  0  0  0
  8  9  1  0  0  0
  8 22  1  0  0  0
  9 10  1  0  0  0
  9 27  2  0  0  0
 10 11  2  0  0  0
 10 15  1  0  0  0
 11 12  1  0  0  0
 11 98  1  0  0  0
 12 13  2  0  0  0
 12 99  1  0  0  0
 13 14  1  0  0  0
 13 31  1  0  0  0
 14 15  2  0  0  0
 14100  1  0  0  0
 15101  1  0  0  0
 16 17  2  0  0  0
 16 21  1  0  0  0
 16 31  1  0  0  0
 17 18  1  0  0  0
 17102  1  0  0  0
 18 19  2  0  0  0
 18103  1  0  0  0
 19 20  1  0  0  0
 19 24  1  0  0  0
 20 21  2  0  0  0
 20104  1  0  0  0
 21 23  1  0  0  0
 22 28  1  0  0  0
 22 32  2  0  0  0
 26 27  1  0  0  0
 28105  1  0  0  0
 28106  1  0  0  0
 29107  1  0  0  0
 29108  1  0  0  0
 33 34  1  0  0  0
 33 66  1  0  0  0
 33 70  2  0  0  0
 34 36  1  0  0  0
 34 59  1  0  0  0
 34109  1  0  0  0
 35 44  2  0  0  0
 35 45  1  0  0  0
 35 68  1  0  0  0
 36 56  1  0  0  0
 36110  1  0  0  0
 37 39  1  0  0  0
 37 47  1  0  0  0
 37 66  1  0  0  0
 37111  1  0  0  0
 38 43  2  0  0  0
 38 46  1  0  0  0
 38 47  1  0  0  0
 39 64  1  0  0  0
 39 67  2  0  0  0
 40 52  1  0  0  0
 40 53  2  0  0  0
 40 58  1  0  0  0
 41112  1  0  0  0
 41113  1  0  0  0
 41114  1  0  0  0
 41 48  1  0  0  0
 42 43  1  0  0  0
 42 66  1  0  0  0
 42115  1  0  0  0
 42116  1  0  0  0
 43 44  1  0  0  0
 44117  1  0  0  0
 45 46  2  0  0  0
 45118  1  0  0  0
 46119  1  0  0  0
 47120  1  0  0  0
 47121  1  0  0  0
 48 56  1  0  0  0
 48 65  1  0  0  0
 48122  1  0  0  0
 49 50  1  0  0  0
 49 53  1  0  0  0
 49 64  1  0  0  0
 49123  1  0  0  0
 50 51  1  0  0  0
 50124  1  0  0  0
 50125  1  0  0  0
 51 52  1  0  0  0
 51126  1  0  0  0
 51127  1  0  0  0
 52128  1  0  0  0
 52129  1  0  0  0
 53 54  1  0  0  0
 54 55  2  0  0  0
 54130  1  0  0  0
 55 57  1  0  0  0
 55131  1  0  0  0
 56 69  2  0  0  0
 57 58  2  0  0  0
 57132  1  0  0  0
 58133  1  0  0  0
 59 60  1  0  0  0
 59 61  1  0  0  0
 59 62  1  0  0  0
 60134  1  0  0  0
 60135  1  0  0  0
 60136  1  0  0  0
 61137  1  0  0  0
 61138  1  0  0  0
 61139  1  0  0  0
 62140  1  0  0  0
 62141  1  0  0  0
 62142  1  0  0  0
 63 65  1  0  0  0
 63143  1  0  0  0
 63144  1  0  0  0
 63145  1  0  0  0
 64146  1  0  0  0
 65147  1  0  0  0
 68 81  1  0  0  0
 71 72  1  0  0  0
 71 73  1  0  0  0
 71148  1  0  0  0
 71149  1  0  0  0
 72150  1  0  0  0
 72151  1  0  0  0
 72 74  1  0  0  0
 73 75  1  0  0  0
 73152  1  0  0  0
 73153  1  0  0  0
 74 75  1  0  0  0
 74 82  1  0  0  0
 74154  1  0  0  0
 75 87  1  0  0  0
 75155  1  0  0  0
 76156  1  0  0  0
 76157  1  0  0  0
 76158  1  0  0  0
 76 83  1  0  0  0
 77159  1  0  0  0
 77160  1  0  0  0
 77161  1  0  0  0
 77 84  1  0  0  0
 78 79  1  0  0  0
 78 81  1  0  0  0
 78162  1  0  0  0
 78163  1  0  0  0
 79 86  1  0  0  0
 79164  1  0  0  0
 79165  1  0  0  0
 80 83  1  0  0  0
 80 87  1  0  0  0
 80166  1  0  0  0
 80167  1  0  0  0
 81168  1  0  0  0
 81169  1  0  0  0
 82 84  1  0  0  0
 82 88  1  0  0  0
 82170  1  0  0  0
 83 86  1  0  0  0
 83171  1  0  0  0
 84 85  1  0  0  0
 84172  1  0  0  0
 85173  1  0  0  0
 86174  1  0  0  0
 87175  1  0  0  0
 87176  1  0  0  0
 88177  1  0  0  0
M  CHG  1  87   1
M  ISO  4   1 100  68 101  81 101  85 100
M  END
> <chiral flag>
0

> <version>
0

> <s_m_source_file>
/data/baiqing/PycharmProjects/Reinvent-master-3.2/result/LINK_invent/BTK/process_docking_weight1_custom_sum_contain_oxygen_bond_distance_aromatic_linkinvent_7_9_3/rearranged_h_0114.sdf

> <i_m_source_file_index>
7

> <r_mmod_Potential_Energy-OPLS-2005>
-152.145294189453

> <r_mmod_Stretch_Energy-OPLS-2005>
33.0234718322754

> <r_mmod_Bend_Energy-OPLS-2005>
133.494873046875

> <r_mmod_Torsional_Energy-OPLS-2005>
337.934906005859

> <r_mmod_Improper_Torsional_Energy-OPLS-2005>
7.66885995864868

> <r_mmod_Van_der_Waal_Energy-OPLS-2005>
148.691833496094

> <r_mmod_Electrostatic_Energy-OPLS-2005>
-364.998138427734

> <r_mmod_Solvation_Energy-OPLS-2005>
-461.710906982422

> <b_mmod_Minimization_Converged-OPLS-2005>
0

> <r_mmod_RMS_Derivative-OPLS-2005>
4.37718677520752

$$$$
7
                    3D
 Structure written by MMmdl.
159167  0  0  1  0            999 V2000
  -30.6600  -14.5899   20.5237 C   0  0  0  0  0  0
  -30.4282  -12.3697   19.4414 C   0  0  0  0  0  0
  -29.4994  -12.4998   18.2157 C   0  0  0  0  0  0
  -28.0230  -12.3445   18.6312 C   0  0  0  0  0  0
  -27.6514  -13.2152   19.8614 C   0  0  2  0  0  0
  -28.6962  -13.0666   20.9893 C   0  0  0  0  0  0
  -25.2549  -13.8169   20.5680 C   0  0  0  0  0  0
  -24.1820  -13.0436   20.9195 C   0  0  0  0  0  0
  -24.6387  -11.6907   20.8746 C   0  0  0  0  0  0
  -23.9058  -10.4291   21.0410 C   0  0  0  0  0  0
  -24.3612   -9.4206   21.9186 C   0  0  0  0  0  0
  -23.6289   -8.2241   22.0754 C   0  0  0  0  0  0
  -22.4272   -8.0278   21.3543 C   0  0  0  0  0  0
  -21.9906   -9.0252   20.4646 C   0  0  0  0  0  0
  -22.7232  -10.2132   20.3058 C   0  0  0  0  0  0
  -21.6851   -6.0733   22.5279 C   0  0  0  0  0  0
  -21.4014   -6.5639   23.8212 C   0  0  0  0  0  0
  -21.3660   -5.6792   24.9175 C   0  0  0  0  0  0
  -21.6044   -4.3054   24.7226 C   0  0  0  0  0  0
  -21.8819   -3.8146   23.4348 C   0  0  0  0  0  0
  -21.9192   -4.6962   22.3403 C   0  0  0  0  0  0
  -22.7844  -13.5230   21.1859 C   0  0  0  0  0  0
  -22.1661   -4.2147   21.0980 F   0  0  0  0  0  0
  -21.5630   -3.4538   25.7740 F   0  0  0  0  0  0
  -30.0118  -13.3915   20.4193 N   0  0  0  0  0  0
  -26.2975  -12.9350   20.3316 N   0  0  0  0  0  0
  -25.9313  -11.6506   20.5762 N   0  0  0  0  0  0
  -22.0486  -12.8220   22.0414 N   0  0  0  0  0  0
  -25.4258  -15.1890   20.4076 N   0  0  0  0  0  0
  -31.8254  -14.7329   20.1469 O   0  0  0  0  0  0
  -21.6637   -6.8875   21.4240 O   0  0  0  0  0  0
  -22.3534  -14.5541   20.6712 O   0  0  0  0  0  0
  -24.6231  -31.8618   23.2043 C   0  0  0  0  0  0
  -25.9092  -32.4789   23.8362 C   0  0  1  0  0  0
  -27.2295  -27.3491   20.0973 C   0  0  0  0  0  0
  -25.5916  -33.8589   24.2289 N   0  0  0  0  0  0
  -23.4140  -30.4863   21.5472 C   0  0  2  0  0  0
  -24.8578  -28.9431   20.1133 C   0  0  0  0  0  0
  -22.7452  -29.4636   22.4955 C   0  0  0  0  0  0
  -18.0280  -28.1381   22.8488 C   0  0  0  0  0  0
  -24.1487  -36.7298   23.2639 C   0  0  0  0  0  0
  -25.9523  -30.8012   21.3693 C   0  0  0  0  0  0
  -26.0253  -29.4306   20.7116 C   0  0  0  0  0  0
  -27.2095  -28.6429   20.6971 C   0  0  0  0  0  0
  -26.0264  -26.8933   19.5068 C   0  0  0  0  0  0
  -24.8578  -27.6775   19.5084 C   0  0  0  0  0  0
  -23.6251  -29.8200   20.1624 C   0  0  0  0  0  0
  -25.4111  -36.3089   24.0328 C   0  0  1  0  0  0
  -20.5877  -28.3679   23.1294 C   0  0  2  0  0  0
  -20.6767  -26.9407   22.5412 C   0  0  0  0  0  0
  -19.5745  -26.6385   21.5210 C   0  0  0  0  0  0
  -18.1925  -26.7927   22.1621 C   0  0  0  0  0  0
  -19.1532  -28.8847   23.2887 C   0  0  0  0  0  0
  -18.9457  -30.1450   23.8902 C   0  0  0  0  0  0
  -17.6458  -30.6586   24.0563 C   0  0  0  0  0  0
  -25.9045  -34.9458   23.5108 C   0  0  0  0  0  0
  -16.5349  -29.9085   23.6330 C   0  0  0  0  0  0
  -16.7268  -28.6502   23.0352 C   0  0  0  0  0  0
  -26.4488  -31.6598   25.0726 C   0  0  0  0  0  0
  -25.3731  -31.3724   26.1459 C   0  0  0  0  0  0
  -27.0331  -30.3029   24.6162 C   0  0  0  0  0  0
  -27.6054  -32.4332   25.7491 C   0  0  0  0  0  0
  -27.5579  -37.1801   24.8463 C   0  0  0  0  0  0
  -21.4170  -29.3038   22.3693 N   0  0  0  0  0  0
  -26.4290  -37.3782   23.9409 N   0  0  0  0  0  0
  -24.6821  -31.0657   22.0976 N   0  0  0  0  0  0
  -23.4192  -28.8174   23.3020 O   0  0  0  0  0  0
  -28.3927  -26.5723   20.1424 O   0  0  0  0  0  0
  -26.5614  -34.8920   22.4674 O   0  0  0  0  0  0
  -23.5404  -32.1403   23.7393 O   0  0  0  0  0  0
  -30.2488  -23.4205   20.0100 C   0  0  0  0  0  0
  -27.8420  -22.7879   19.9187 C   0  0  0  0  0  0
  -30.5655  -22.0617   20.7047 C   0  0  0  0  0  0
  -28.1730  -21.4188   20.6131 C   0  0  0  0  0  0
  -28.8126  -23.9652   20.2524 C   0  0  2  0  0  0
  -29.6091  -20.8952   20.3200 C   0  0  2  0  0  0
  -28.5251  -25.2970   19.4291 C   0  0  0  0  0  0
  -30.3725  -17.0644   21.1702 C   0  0  0  0  0  0
  -29.5485  -18.2671   20.5430 C   0  0  0  0  0  0
  -29.9109  -15.6632   20.9056 N   0  0  0  0  0  0
  -29.9958  -19.6206   21.0417 N   0  3  0  0  0  0
  -31.4708  -12.4828   19.1391 H   0  0  0  0  0  0
  -30.3504  -11.3738   19.8804 H   0  0  0  0  0  0
  -29.7570  -11.7505   17.4660 H   0  0  0  0  0  0
  -29.6475  -13.4712   17.7411 H   0  0  0  0  0  0
  -27.8561  -11.2916   18.8616 H   0  0  0  0  0  0
  -27.3672  -12.5779   17.7917 H   0  0  0  0  0  0
  -27.6724  -14.2512   19.5228 H   0  0  0  0  0  0
  -28.6993  -12.0473   21.3784 H   0  0  0  0  0  0
  -28.4499  -13.7082   21.8367 H   0  0  0  0  0  0
  -25.2757   -9.5683   22.4761 H   0  0  0  0  0  0
  -24.0000   -7.4632   22.7472 H   0  0  0  0  0  0
  -21.0839   -8.8769   19.8951 H   0  0  0  0  0  0
  -22.3690  -10.9672   19.6167 H   0  0  0  0  0  0
  -21.2005   -7.6147   23.9715 H   0  0  0  0  0  0
  -21.1483   -6.0522   25.9077 H   0  0  0  0  0  0
  -22.0598   -2.7608   23.2848 H   0  0  0  0  0  0
  -22.4100  -11.9875   22.4791 H   0  0  0  0  0  0
  -21.1105  -13.1246   22.2627 H   0  0  0  0  0  0
  -24.6544  -15.8402   20.5059 H   0  0  0  0  0  0
  -26.2672  -15.6245   20.0524 H   0  0  0  0  0  0
  -26.7156  -32.5466   23.1111 H   0  0  0  0  0  0
  -25.0061  -33.9740   25.0430 H   0  0  0  0  0  0
  -22.7066  -31.3060   21.4056 H   0  0  0  0  0  0
  -23.3747  -35.9632   23.3306 H   0  0  0  0  0  0
  -24.3574  -36.8917   22.2051 H   0  0  0  0  0  0
  -23.7244  -37.6503   23.6657 H   0  0  0  0  0  0
  -26.0786  -31.5656   20.6012 H   0  0  0  0  0  0
  -26.8350  -30.8499   21.9954 H   0  0  0  0  0  0
  -28.1095  -29.0173   21.1645 H   0  0  0  0  0  0
  -25.9333  -25.9172   19.0603 H   0  0  0  0  0  0
  -23.9558  -27.2899   19.0549 H   0  0  0  0  0  0
  -23.7406  -30.5947   19.4036 H   0  0  0  0  0  0
  -22.7457  -29.2464   19.8636 H   0  0  0  0  0  0
  -25.1292  -36.1940   25.0822 H   0  0  0  0  0  0
  -20.9969  -28.3250   24.1414 H   0  0  0  0  0  0
  -20.5664  -26.2289   23.3607 H   0  0  0  0  0  0
  -21.6637  -26.7437   22.1210 H   0  0  0  0  0  0
  -19.6905  -25.6296   21.1237 H   0  0  0  0  0  0
  -19.6685  -27.3195   20.6740 H   0  0  0  0  0  0
  -17.4195  -26.6676   21.4022 H   0  0  0  0  0  0
  -18.0324  -26.0067   22.9015 H   0  0  0  0  0  0
  -19.7934  -30.7263   24.2277 H   0  0  0  0  0  0
  -17.5015  -31.6268   24.5160 H   0  0  0  0  0  0
  -15.5350  -30.2988   23.7656 H   0  0  0  0  0  0
  -15.8667  -28.0824   22.7066 H   0  0  0  0  0  0
  -24.5910  -30.7066   25.7792 H   0  0  0  0  0  0
  -24.8912  -32.2883   26.4888 H   0  0  0  0  0  0
  -25.8066  -30.8906   27.0232 H   0  0  0  0  0  0
  -26.2897  -29.6779   24.1198 H   0  0  0  0  0  0
  -27.4053  -29.7285   25.4656 H   0  0  0  0  0  0
  -27.8754  -30.4329   23.9362 H   0  0  0  0  0  0
  -27.2671  -33.3633   26.2071 H   0  0  0  0  0  0
  -28.3858  -32.6895   25.0313 H   0  0  0  0  0  0
  -28.0727  -31.8458   26.5404 H   0  0  0  0  0  0
  -28.2596  -38.0099   24.7518 H   0  0  0  0  0  0
  -28.1078  -36.2632   24.6282 H   0  0  0  0  0  0
  -27.2298  -37.1444   25.8867 H   0  0  0  0  0  0
  -20.9339  -29.8769   21.6916 H   0  0  0  0  0  0
  -26.0173  -38.2856   24.1418 H   0  0  0  0  0  0
  -30.4108  -23.3026   18.9372 H   0  0  0  0  0  0
  -30.9740  -24.1663   20.3385 H   0  0  0  0  0  0
  -26.8245  -23.0831   20.1782 H   0  0  0  0  0  0
  -27.8359  -22.6320   18.8387 H   0  0  0  0  0  0
  -30.5390  -22.2121   21.7850 H   0  0  0  0  0  0
  -31.5934  -21.7836   20.4682 H   0  0  0  0  0  0
  -27.4432  -20.6722   20.2977 H   0  0  0  0  0  0
  -28.0397  -21.5326   21.6897 H   0  0  0  0  0  0
  -28.7072  -24.1973   21.3132 H   0  0  0  0  0  0
  -29.7095  -20.7141   19.2485 H   0  0  0  0  0  0
  -27.7420  -25.1134   18.7002 H   0  0  0  0  0  0
  -29.3853  -25.4639   18.7801 H   0  0  0  0  0  0
  -30.3799  -17.1783   22.2549 H   0  0  0  0  0  0
  -31.4149  -17.1640   20.8631 H   0  0  0  0  0  0
  -28.4861  -18.1523   20.7600 H   0  0  0  0  0  0
  -29.6483  -18.2374   19.4574 H   0  0  0  0  0  0
  -28.9503  -15.4568   21.1364 H   0  0  0  0  0  0
  -29.7430  -19.7042   22.0133 H   0  0  0  0  0  0
  -31.0021  -19.5921   21.0124 H   0  0  0  0  0  0
  1 25  1  0  0  0
  1 30  2  0  0  0
  1 80  1  0  0  0
  2  3  1  0  0  0
  2 25  1  0  0  0
  2 82  1  0  0  0
  2 83  1  0  0  0
  3  4  1  0  0  0
  3 84  1  0  0  0
  3 85  1  0  0  0
  4  5  1  0  0  0
  4 86  1  0  0  0
  4 87  1  0  0  0
  5  6  1  0  0  0
  5 26  1  0  0  0
  5 88  1  0  0  0
  6 25  1  0  0  0
  6 89  1  0  0  0
  6 90  1  0  0  0
  7  8  2  0  0  0
  7 26  1  0  0  0
  7 29  1  0  0  0
  8  9  1  0  0  0
  8 22  1  0  0  0
  9 10  1  0  0  0
  9 27  2  0  0  0
 10 11  2  0  0  0
 10 15  1  0  0  0
 11 12  1  0  0  0
 11 91  1  0  0  0
 12 13  2  0  0  0
 12 92  1  0  0  0
 13 14  1  0  0  0
 13 31  1  0  0  0
 14 15  2  0  0  0
 14 93  1  0  0  0
 15 94  1  0  0  0
 16 17  2  0  0  0
 16 21  1  0  0  0
 16 31  1  0  0  0
 17 18  1  0  0  0
 17 95  1  0  0  0
 18 19  2  0  0  0
 18 96  1  0  0  0
 19 20  1  0  0  0
 19 24  1  0  0  0
 20 21  2  0  0  0
 20 97  1  0  0  0
 21 23  1  0  0  0
 22 28  1  0  0  0
 22 32  2  0  0  0
 26 27  1  0  0  0
 28 98  1  0  0  0
 28 99  1  0  0  0
 29100  1  0  0  0
 29101  1  0  0  0
 33 34  1  0  0  0
 33 66  1  0  0  0
 33 70  2  0  0  0
 34 36  1  0  0  0
 34 59  1  0  0  0
 34102  1  0  0  0
 35 44  2  0  0  0
 35 45  1  0  0  0
 35 68  1  0  0  0
 36 56  1  0  0  0
 36103  1  0  0  0
 37 39  1  0  0  0
 37 47  1  0  0  0
 37 66  1  0  0  0
 37104  1  0  0  0
 38 43  2  0  0  0
 38 46  1  0  0  0
 38 47  1  0  0  0
 39 64  1  0  0  0
 39 67  2  0  0  0
 40 52  1  0  0  0
 40 53  2  0  0  0
 40 58  1  0  0  0
 41105  1  0  0  0
 41106  1  0  0  0
 41107  1  0  0  0
 41 48  1  0  0  0
 42 43  1  0  0  0
 42 66  1  0  0  0
 42108  1  0  0  0
 42109  1  0  0  0
 43 44  1  0  0  0
 44110  1  0  0  0
 45 46  2  0  0  0
 45111  1  0  0  0
 46112  1  0  0  0
 47113  1  0  0  0
 47114  1  0  0  0
 48 56  1  0  0  0
 48 65  1  0  0  0
 48115  1  0  0  0
 49 50  1  0  0  0
 49 53  1  0  0  0
 49 64  1  0  0  0
 49116  1  0  0  0
 50 51  1  0  0  0
 50117  1  0  0  0
 50118  1  0  0  0
 51 52  1  0  0  0
 51119  1  0  0  0
 51120  1  0  0  0
 52121  1  0  0  0
 52122  1  0  0  0
 53 54  1  0  0  0
 54 55  2  0  0  0
 54123  1  0  0  0
 55 57  1  0  0  0
 55124  1  0  0  0
 56 69  2  0  0  0
 57 58  2  0  0  0
 57125  1  0  0  0
 58126  1  0  0  0
 59 60  1  0  0  0
 59 61  1  0  0  0
 59 62  1  0  0  0
 60127  1  0  0  0
 60128  1  0  0  0
 60129  1  0  0  0
 61130  1  0  0  0
 61131  1  0  0  0
 61132  1  0  0  0
 62133  1  0  0  0
 62134  1  0  0  0
 62135  1  0  0  0
 63 65  1  0  0  0
 63136  1  0  0  0
 63137  1  0  0  0
 63138  1  0  0  0
 64139  1  0  0  0
 65140  1  0  0  0
 68 77  1  0  0  0
 71 73  1  0  0  0
 71 75  1  0  0  0
 71141  1  0  0  0
 71142  1  0  0  0
 72 74  1  0  0  0
 72 75  1  0  0  0
 72143  1  0  0  0
 72144  1  0  0  0
 73 76  1  0  0  0
 73145  1  0  0  0
 73146  1  0  0  0
 74 76  1  0  0  0
 74147  1  0  0  0
 74148  1  0  0  0
 75 77  1  0  0  0
 75149  1  0  0  0
 76 81  1  0  0  0
 76150  1  0  0  0
 77151  1  0  0  0
 77152  1  0  0  0
 78 79  1  0  0  0
 78 80  1  0  0  0
 78153  1  0  0  0
 78154  1  0  0  0
 79 81  1  0  0  0
 79155  1  0  0  0
 79156  1  0  0  0
 80157  1  0  0  0
 81158  1  0  0  0
 81159  1  0  0  0
M  CHG  1  81   1
M  ISO  4   1 100  68 101  77 101  80 100
M  END
> <chiral flag>
0

> <version>
0

> <s_m_source_file>
/data/baiqing/PycharmProjects/Reinvent-master-3.2/result/LINK_invent/BTK/process_docking_weight1_custom_sum_contain_oxygen_bond_distance_aromatic_linkinvent_7_9_3/rearranged_h_0114.sdf

> <i_m_source_file_index>
8

> <r_mmod_Potential_Energy-OPLS-2005>
-152.838165283203

> <r_mmod_Stretch_Energy-OPLS-2005>
64.4404754638672

> <r_mmod_Bend_Energy-OPLS-2005>
140.56721496582

> <r_mmod_Torsional_Energy-OPLS-2005>
229.718780517578

> <r_mmod_Improper_Torsional_Energy-OPLS-2005>
3.75444364547729

> <r_mmod_Van_der_Waal_Energy-OPLS-2005>
130.652481079102

> <r_mmod_Electrostatic_Energy-OPLS-2005>
-277.11572265625

> <r_mmod_Solvation_Energy-OPLS-2005>
-479.000396728516

> <b_mmod_Minimization_Converged-OPLS-2005>
0

> <r_mmod_RMS_Derivative-OPLS-2005>
0.337198555469513

$$$$
8
                    3D
 Structure written by MMmdl.
163171  0  0  1  0            999 V2000
  -30.6798  -14.5043   20.5525 C   0  0  0  0  0  0
  -30.4341  -12.3069   19.4418 C   0  0  0  0  0  0
  -29.5132  -12.5145   18.2231 C   0  0  0  0  0  0
  -28.0295  -12.3833   18.6201 C   0  0  0  0  0  0
  -27.6702  -13.2051   19.8874 C   0  0  2  0  0  0
  -28.7146  -12.9971   21.0113 C   0  0  0  0  0  0
  -25.2635  -13.8123   20.5647 C   0  0  0  0  0  0
  -24.1886  -13.0393   20.9202 C   0  0  0  0  0  0
  -24.6465  -11.6889   20.8752 C   0  0  0  0  0  0
  -23.9090  -10.4286   21.0399 C   0  0  0  0  0  0
  -24.3636   -9.4199   21.9180 C   0  0  0  0  0  0
  -23.6303   -8.2242   22.0753 C   0  0  0  0  0  0
  -22.4272   -8.0288   21.3564 C   0  0  0  0  0  0
  -21.9918   -9.0252   20.4656 C   0  0  0  0  0  0
  -22.7253  -10.2133   20.3056 C   0  0  0  0  0  0
  -21.6859   -6.0723   22.5264 C   0  0  0  0  0  0
  -21.4015   -6.5633   23.8195 C   0  0  0  0  0  0
  -21.3670   -5.6803   24.9169 C   0  0  0  0  0  0
  -21.6069   -4.3058   24.7231 C   0  0  0  0  0  0
  -21.8824   -3.8144   23.4346 C   0  0  0  0  0  0
  -21.9193   -4.6942   22.3397 C   0  0  0  0  0  0
  -22.7913  -13.5195   21.1827 C   0  0  0  0  0  0
  -22.1673   -4.2127   21.0965 F   0  0  0  0  0  0
  -21.5646   -3.4557   25.7746 F   0  0  0  0  0  0
  -30.0427  -13.3027   20.4522 N   0  0  0  0  0  0
  -26.3077  -12.9292   20.3428 N   0  0  0  0  0  0
  -25.9381  -11.6462   20.5788 N   0  0  0  0  0  0
  -22.0517  -12.8188   22.0366 N   0  0  0  0  0  0
  -25.4288  -15.1823   20.3950 N   0  0  0  0  0  0
  -31.8009  -14.7169   20.0857 O   0  0  0  0  0  0
  -21.6654   -6.8855   21.4229 O   0  0  0  0  0  0
  -22.3632  -14.5504   20.6685 O   0  0  0  0  0  0
  -24.6127  -31.8672   23.2065 C   0  0  0  0  0  0
  -25.9043  -32.4832   23.8347 C   0  0  1  0  0  0
  -27.2424  -27.4546   20.0912 C   0  0  0  0  0  0
  -25.5896  -33.8622   24.2314 N   0  0  0  0  0  0
  -23.3996  -30.4902   21.5484 C   0  0  2  0  0  0
  -24.8495  -28.9510   20.1190 C   0  0  0  0  0  0
  -22.7374  -29.4687   22.5005 C   0  0  0  0  0  0
  -18.0241  -28.1364   22.8487 C   0  0  0  0  0  0
  -24.1485  -36.7325   23.2633 C   0  0  0  0  0  0
  -25.9248  -30.8365   21.3549 C   0  0  0  0  0  0
  -26.0067  -29.4691   20.7122 C   0  0  0  0  0  0
  -27.2074  -28.7268   20.7011 C   0  0  0  0  0  0
  -26.0723  -26.9376   19.4993 C   0  0  0  0  0  0
  -24.8730  -27.6800   19.5124 C   0  0  0  0  0  0
  -23.6079  -29.8136   20.1681 C   0  0  0  0  0  0
  -25.4096  -36.3124   24.0330 C   0  0  1  0  0  0
  -20.5848  -28.3649   23.1311 C   0  0  2  0  0  0
  -20.6763  -26.9377   22.5419 C   0  0  0  0  0  0
  -19.5752  -26.6382   21.5204 C   0  0  0  0  0  0
  -18.1928  -26.7917   22.1601 C   0  0  0  0  0  0
  -19.1504  -28.8805   23.2918 C   0  0  0  0  0  0
  -18.9443  -30.1430   23.8926 C   0  0  0  0  0  0
  -17.6466  -30.6590   24.0551 C   0  0  0  0  0  0
  -25.9008  -34.9484   23.5111 C   0  0  0  0  0  0
  -16.5341  -29.9091   23.6346 C   0  0  0  0  0  0
  -16.7252  -28.6490   23.0375 C   0  0  0  0  0  0
  -26.4445  -31.6594   25.0670 C   0  0  0  0  0  0
  -25.3736  -31.3677   26.1446 C   0  0  0  0  0  0
  -27.0253  -30.3040   24.6020 C   0  0  0  0  0  0
  -27.6037  -32.4272   25.7464 C   0  0  0  0  0  0
  -27.5573  -37.1825   24.8467 C   0  0  0  0  0  0
  -21.4107  -29.3011   22.3701 N   0  0  0  0  0  0
  -26.4293  -37.3797   23.9392 N   0  0  0  0  0  0
  -24.6653  -31.0783   22.0961 N   0  0  0  0  0  0
  -23.4130  -28.8193   23.3031 O   0  0  0  0  0  0
  -28.4069  -26.7279   20.0476 O   0  0  0  0  0  0
  -26.5597  -34.8928   22.4689 O   0  0  0  0  0  0
  -23.5347  -32.1390   23.7516 O   0  0  0  0  0  0
  -27.6678  -19.8611   20.3753 C   0  0  0  0  0  0
  -29.9767  -20.1142   20.9568 C   0  0  0  0  0  0
  -28.9410  -19.2654   20.5048 C   0  0  0  0  0  0
  -27.4649  -21.2213   20.7105 C   0  0  0  0  0  0
  -28.5673  -21.9732   21.1826 C   0  0  0  0  0  0
  -26.0544  -21.7964   20.5805 C   0  0  0  0  0  0
  -27.5314  -23.4616   22.7660 C   0  0  0  0  0  0
  -28.4683  -24.3228   20.5814 C   0  0  0  0  0  0
  -30.1616  -16.9711   21.0629 C   0  0  0  0  0  0
  -28.5543  -25.7792   21.1041 C   0  0  0  0  0  0
  -29.1240  -17.7514   20.2009 C   0  0  2  0  0  0
  -29.7934  -21.4208   21.2781 N   0  0  0  0  0  0
  -29.9106  -15.5100   21.0228 N   0  0  0  0  0  0
  -28.4620  -23.3017   21.6433 N   0  0  0  0  0  0
  -29.3653  -17.4777   18.7708 N   0  3  0  0  0  0
  -31.4839  -12.3958   19.1513 H   0  0  0  0  0  0
  -30.3240  -11.2977   19.8406 H   0  0  0  0  0  0
  -29.7566  -11.8021   17.4319 H   0  0  0  0  0  0
  -29.6915  -13.5036   17.7968 H   0  0  0  0  0  0
  -27.8253  -11.3234   18.7905 H   0  0  0  0  0  0
  -27.3923  -12.6853   17.7887 H   0  0  0  0  0  0
  -27.7139  -14.2529   19.5969 H   0  0  0  0  0  0
  -28.6926  -11.9761   21.3937 H   0  0  0  0  0  0
  -28.4768  -13.6278   21.8676 H   0  0  0  0  0  0
  -25.2786   -9.5696   22.4751 H   0  0  0  0  0  0
  -24.0037   -7.4647   22.7468 H   0  0  0  0  0  0
  -21.0860   -8.8780   19.8949 H   0  0  0  0  0  0
  -22.3710  -10.9685   19.6192 H   0  0  0  0  0  0
  -21.1983   -7.6138   23.9696 H   0  0  0  0  0  0
  -21.1518   -6.0525   25.9079 H   0  0  0  0  0  0
  -22.0586   -2.7588   23.2848 H   0  0  0  0  0  0
  -22.4138  -11.9856   22.4756 H   0  0  0  0  0  0
  -21.1127  -13.1180   22.2566 H   0  0  0  0  0  0
  -24.6458  -15.8215   20.4749 H   0  0  0  0  0  0
  -26.2428  -15.6129   19.9861 H   0  0  0  0  0  0
  -26.7114  -32.5575   23.1110 H   0  0  0  0  0  0
  -25.0089  -33.9737   25.0497 H   0  0  0  0  0  0
  -22.6888  -31.3083   21.4066 H   0  0  0  0  0  0
  -23.3759  -35.9667   23.3327 H   0  0  0  0  0  0
  -24.3580  -36.8905   22.2053 H   0  0  0  0  0  0
  -23.7227  -37.6519   23.6622 H   0  0  0  0  0  0
  -26.0233  -31.5921   20.5741 H   0  0  0  0  0  0
  -26.8162  -30.9020   21.9673 H   0  0  0  0  0  0
  -28.1058  -29.1220   21.1538 H   0  0  0  0  0  0
  -26.0921  -25.9683   19.0202 H   0  0  0  0  0  0
  -23.9825  -27.2687   19.0584 H   0  0  0  0  0  0
  -23.7046  -30.5815   19.3988 H   0  0  0  0  0  0
  -22.7321  -29.2253   19.8851 H   0  0  0  0  0  0
  -25.1287  -36.1983   25.0829 H   0  0  0  0  0  0
  -20.9947  -28.3248   24.1425 H   0  0  0  0  0  0
  -20.5662  -26.2245   23.3603 H   0  0  0  0  0  0
  -21.6640  -26.7434   22.1204 H   0  0  0  0  0  0
  -19.6911  -25.6296   21.1221 H   0  0  0  0  0  0
  -19.6721  -27.3213   20.6758 H   0  0  0  0  0  0
  -17.4185  -26.6673   21.4006 H   0  0  0  0  0  0
  -18.0317  -26.0046   22.8980 H   0  0  0  0  0  0
  -19.7929  -30.7231   24.2313 H   0  0  0  0  0  0
  -17.5012  -31.6269   24.5144 H   0  0  0  0  0  0
  -15.5343  -30.3005   23.7628 H   0  0  0  0  0  0
  -15.8649  -28.0814   22.7112 H   0  0  0  0  0  0
  -24.5947  -30.6949   25.7783 H   0  0  0  0  0  0
  -24.8883  -32.2828   26.4859 H   0  0  0  0  0  0
  -25.8123  -30.8881   27.0222 H   0  0  0  0  0  0
  -26.2767  -29.6854   24.1057 H   0  0  0  0  0  0
  -27.3982  -29.7194   25.4439 H   0  0  0  0  0  0
  -27.8608  -30.4326   23.9152 H   0  0  0  0  0  0
  -27.2666  -33.3585   26.2023 H   0  0  0  0  0  0
  -28.3878  -32.6799   25.0317 H   0  0  0  0  0  0
  -28.0658  -31.8396   26.5401 H   0  0  0  0  0  0
  -28.2625  -38.0103   24.7521 H   0  0  0  0  0  0
  -28.1031  -36.2630   24.6294 H   0  0  0  0  0  0
  -27.2291  -37.1487   25.8876 H   0  0  0  0  0  0
  -20.9224  -29.8710   21.6948 H   0  0  0  0  0  0
  -26.0205  -38.2878   24.1420 H   0  0  0  0  0  0
  -26.8304  -19.2651   20.0458 H   0  0  0  0  0  0
  -30.9810  -19.7439   21.0918 H   0  0  0  0  0  0
  -26.0353  -22.8784   20.4989 H   0  0  0  0  0  0
  -25.4491  -21.5342   21.4485 H   0  0  0  0  0  0
  -25.5587  -21.4176   19.6870 H   0  0  0  0  0  0
  -26.5763  -23.8514   22.4173 H   0  0  0  0  0  0
  -27.9201  -24.1615   23.5045 H   0  0  0  0  0  0
  -27.3395  -22.5160   23.2771 H   0  0  0  0  0  0
  -29.3315  -24.1340   19.9455 H   0  0  0  0  0  0
  -27.5976  -24.2081   19.9390 H   0  0  0  0  0  0
  -30.0779  -17.2973   22.1016 H   0  0  0  0  0  0
  -31.1815  -17.2131   20.7568 H   0  0  0  0  0  0
  -27.8164  -25.9677   21.8885 H   0  0  0  0  0  0
  -29.5300  -25.9424   21.5590 H   0  0  0  0  0  0
  -28.1522  -17.3086   20.4296 H   0  0  0  0  0  0
  -29.0209  -15.2071   21.3852 H   0  0  0  0  0  0
  -30.2084  -17.9201   18.4516 H   0  0  0  0  0  0
  -28.5987  -17.7858   18.1980 H   0  0  0  0  0  0
  -29.4753  -16.4888   18.6290 H   0  0  0  0  0  0
  1 25  1  0  0  0
  1 30  2  0  0  0
  1 83  1  0  0  0
  2  3  1  0  0  0
  2 25  1  0  0  0
  2 86  1  0  0  0
  2 87  1  0  0  0
  3  4  1  0  0  0
  3 88  1  0  0  0
  3 89  1  0  0  0
  4  5  1  0  0  0
  4 90  1  0  0  0
  4 91  1  0  0  0
  5  6  1  0  0  0
  5 26  1  0  0  0
  5 92  1  0  0  0
  6 25  1  0  0  0
  6 93  1  0  0  0
  6 94  1  0  0  0
  7  8  2  0  0  0
  7 26  1  0  0  0
  7 29  1  0  0  0
  8  9  1  0  0  0
  8 22  1  0  0  0
  9 10  1  0  0  0
  9 27  2  0  0  0
 10 11  2  0  0  0
 10 15  1  0  0  0
 11 12  1  0  0  0
 11 95  1  0  0  0
 12 13  2  0  0  0
 12 96  1  0  0  0
 13 14  1  0  0  0
 13 31  1  0  0  0
 14 15  2  0  0  0
 14 97  1  0  0  0
 15 98  1  0  0  0
 16 17  2  0  0  0
 16 21  1  0  0  0
 16 31  1  0  0  0
 17 18  1  0  0  0
 17 99  1  0  0  0
 18 19  2  0  0  0
 18100  1  0  0  0
 19 20  1  0  0  0
 19 24  1  0  0  0
 20 21  2  0  0  0
 20101  1  0  0  0
 21 23  1  0  0  0
 22 28  1  0  0  0
 22 32  2  0  0  0
 26 27  1  0  0  0
 28102  1  0  0  0
 28103  1  0  0  0
 29104  1  0  0  0
 29105  1  0  0  0
 33 34  1  0  0  0
 33 66  1  0  0  0
 33 70  2  0  0  0
 34 36  1  0  0  0
 34 59  1  0  0  0
 34106  1  0  0  0
 35 44  2  0  0  0
 35 45  1  0  0  0
 35 68  1  0  0  0
 36 56  1  0  0  0
 36107  1  0  0  0
 37 39  1  0  0  0
 37 47  1  0  0  0
 37 66  1  0  0  0
 37108  1  0  0  0
 38 43  2  0  0  0
 38 46  1  0  0  0
 38 47  1  0  0  0
 39 64  1  0  0  0
 39 67  2  0  0  0
 40 52  1  0  0  0
 40 53  2  0  0  0
 40 58  1  0  0  0
 41109  1  0  0  0
 41110  1  0  0  0
 41111  1  0  0  0
 41 48  1  0  0  0
 42 43  1  0  0  0
 42 66  1  0  0  0
 42112  1  0  0  0
 42113  1  0  0  0
 43 44  1  0  0  0
 44114  1  0  0  0
 45 46  2  0  0  0
 45115  1  0  0  0
 46116  1  0  0  0
 47117  1  0  0  0
 47118  1  0  0  0
 48 56  1  0  0  0
 48 65  1  0  0  0
 48119  1  0  0  0
 49 50  1  0  0  0
 49 53  1  0  0  0
 49 64  1  0  0  0
 49120  1  0  0  0
 50 51  1  0  0  0
 50121  1  0  0  0
 50122  1  0  0  0
 51 52  1  0  0  0
 51123  1  0  0  0
 51124  1  0  0  0
 52125  1  0  0  0
 52126  1  0  0  0
 53 54  1  0  0  0
 54 55  2  0  0  0
 54127  1  0  0  0
 55 57  1  0  0  0
 55128  1  0  0  0
 56 69  2  0  0  0
 57 58  2  0  0  0
 57129  1  0  0  0
 58130  1  0  0  0
 59 60  1  0  0  0
 59 61  1  0  0  0
 59 62  1  0  0  0
 60131  1  0  0  0
 60132  1  0  0  0
 60133  1  0  0  0
 61134  1  0  0  0
 61135  1  0  0  0
 61136  1  0  0  0
 62137  1  0  0  0
 62138  1  0  0  0
 62139  1  0  0  0
 63 65  1  0  0  0
 63140  1  0  0  0
 63141  1  0  0  0
 63142  1  0  0  0
 64143  1  0  0  0
 65144  1  0  0  0
 68 80  1  0  0  0
 71 73  2  0  0  0
 71 74  1  0  0  0
 71145  1  0  0  0
 72 73  1  0  0  0
 72 82  2  0  0  0
 72146  1  0  0  0
 73 81  1  0  0  0
 74 75  2  0  0  0
 74 76  1  0  0  0
 75 82  1  0  0  0
 75 84  1  0  0  0
 76147  1  0  0  0
 76148  1  0  0  0
 76149  1  0  0  0
 77 84  1  0  0  0
 77150  1  0  0  0
 77151  1  0  0  0
 77152  1  0  0  0
 78 80  1  0  0  0
 78 84  1  0  0  0
 78153  1  0  0  0
 78154  1  0  0  0
 79 81  1  0  0  0
 79 83  1  0  0  0
 79155  1  0  0  0
 79156  1  0  0  0
 80157  1  0  0  0
 80158  1  0  0  0
 81 85  1  0  0  0
 81159  1  0  0  0
 83160  1  0  0  0
 85161  1  0  0  0
 85162  1  0  0  0
 85163  1  0  0  0
M  CHG  1  85   1
M  ISO  4   1 100  68 101  80 101  83 100
M  END
> <chiral flag>
0

> <version>
0

> <s_m_source_file>
/data/baiqing/PycharmProjects/Reinvent-master-3.2/result/LINK_invent/BTK/process_docking_weight1_custom_sum_contain_oxygen_bond_distance_aromatic_linkinvent_7_9_3/rearranged_h_0114.sdf

> <i_m_source_file_index>
9

> <r_mmod_Potential_Energy-OPLS-2005>
-550.005737304688

> <r_mmod_Stretch_Energy-OPLS-2005>
41.7162322998047

> <r_mmod_Bend_Energy-OPLS-2005>
103.57926940918

> <r_mmod_Torsional_Energy-OPLS-2005>
275.321319580078

> <r_mmod_Improper_Torsional_Energy-OPLS-2005>
8.54834175109863

> <r_mmod_Van_der_Waal_Energy-OPLS-2005>
151.258178710938

> <r_mmod_Electrostatic_Energy-OPLS-2005>
-607.43310546875

> <r_mmod_Solvation_Energy-OPLS-2005>
-535.82763671875

> <b_mmod_Minimization_Converged-OPLS-2005>
0

> <r_mmod_RMS_Derivative-OPLS-2005>
7.16296243667603

$$$$
9
                    3D
 Structure written by MMmdl.
161169  0  0  1  0            999 V2000
  -30.5600  -15.0053   20.3160 C   0  0  0  0  0  0
  -30.4397  -12.6510   19.3945 C   0  0  0  0  0  0
  -29.4815  -12.5421   18.1876 C   0  0  0  0  0  0
  -28.0348  -12.2944   18.6524 C   0  0  0  0  0  0
  -27.6226  -13.2465   19.8084 C   0  0  2  0  0  0
  -28.6986  -13.3325   20.9115 C   0  0  0  0  0  0
  -25.2517  -13.8227   20.5786 C   0  0  0  0  0  0
  -24.1789  -13.0444   20.9258 C   0  0  0  0  0  0
  -24.6405  -11.6933   20.8753 C   0  0  0  0  0  0
  -23.9075  -10.4292   21.0427 C   0  0  0  0  0  0
  -24.3626   -9.4191   21.9210 C   0  0  0  0  0  0
  -23.6280   -8.2241   22.0800 C   0  0  0  0  0  0
  -22.4266   -8.0282   21.3577 C   0  0  0  0  0  0
  -21.9903   -9.0258   20.4685 C   0  0  0  0  0  0
  -22.7239  -10.2121   20.3087 C   0  0  0  0  0  0
  -21.6847   -6.0711   22.5279 C   0  0  0  0  0  0
  -21.3991   -6.5640   23.8195 C   0  0  0  0  0  0
  -21.3647   -5.6816   24.9166 C   0  0  0  0  0  0
  -21.6027   -4.3067   24.7238 C   0  0  0  0  0  0
  -21.8817   -3.8143   23.4375 C   0  0  0  0  0  0
  -21.9175   -4.6947   22.3413 C   0  0  0  0  0  0
  -22.7801  -13.5190   21.1893 C   0  0  0  0  0  0
  -22.1644   -4.2124   21.0995 F   0  0  0  0  0  0
  -21.5639   -3.4568   25.7766 F   0  0  0  0  0  0
  -29.9384  -13.7573   20.2495 N   0  0  0  0  0  0
  -26.2922  -12.9451   20.3248 N   0  0  0  0  0  0
  -25.9329  -11.6565   20.5723 N   0  0  0  0  0  0
  -22.0419  -12.8182   22.0452 N   0  0  0  0  0  0
  -25.4287  -15.1940   20.4298 N   0  0  0  0  0  0
  -31.7953  -15.0114   20.2655 O   0  0  0  0  0  0
  -21.6633   -6.8855   21.4243 O   0  0  0  0  0  0
  -22.3465  -14.5487   20.6709 O   0  0  0  0  0  0
  -24.6553  -31.8265   23.1714 C   0  0  0  0  0  0
  -25.9209  -32.4634   23.8165 C   0  0  1  0  0  0
  -27.3105  -27.0854   20.1447 C   0  0  0  0  0  0
  -25.5935  -33.8460   24.2079 N   0  0  0  0  0  0
  -23.4782  -30.4299   21.5044 C   0  0  2  0  0  0
  -24.9589  -28.8396   20.1120 C   0  0  0  0  0  0
  -22.7698  -29.4344   22.4670 C   0  0  0  0  0  0
  -18.0363  -28.1417   22.8391 C   0  0  0  0  0  0
  -24.1463  -36.7206   23.2669 C   0  0  0  0  0  0
  -26.0377  -30.6935   21.3819 C   0  0  0  0  0  0
  -26.1272  -29.2922   20.7313 C   0  0  0  0  0  0
  -27.2966  -28.4244   20.7369 C   0  0  0  0  0  0
  -26.1137  -26.7558   19.4802 C   0  0  0  0  0  0
  -24.9686  -27.5860   19.4710 C   0  0  0  0  0  0
  -23.7350  -29.7386   20.1348 C   0  0  0  0  0  0
  -25.4082  -36.2985   24.0334 C   0  0  1  0  0  0
  -20.5997  -28.3714   23.1173 C   0  0  2  0  0  0
  -20.6810  -26.9401   22.5381 C   0  0  0  0  0  0
  -19.5789  -26.6340   21.5201 C   0  0  0  0  0  0
  -18.1962  -26.7916   22.1579 C   0  0  0  0  0  0
  -19.1647  -28.8872   23.2776 C   0  0  0  0  0  0
  -18.9564  -30.1438   23.8851 C   0  0  0  0  0  0
  -17.6558  -30.6599   24.0517 C   0  0  0  0  0  0
  -25.9062  -34.9376   23.5012 C   0  0  0  0  0  0
  -16.5438  -29.9109   23.6334 C   0  0  0  0  0  0
  -16.7340  -28.6546   23.0313 C   0  0  0  0  0  0
  -26.4534  -31.6545   25.0635 C   0  0  0  0  0  0
  -25.3712  -31.3780   26.1332 C   0  0  0  0  0  0
  -27.0420  -30.2949   24.6164 C   0  0  0  0  0  0
  -27.5997  -32.4334   25.7510 C   0  0  0  0  0  0
  -27.5516  -37.1750   24.8502 C   0  0  0  0  0  0
  -21.4376  -29.3040   22.3506 N   0  0  0  0  0  0
  -26.4205  -37.3719   23.9495 N   0  0  0  0  0  0
  -24.7402  -31.0036   22.0789 N   0  0  0  0  0  0
  -23.4261  -28.7870   23.2840 O   0  0  0  0  0  0
  -28.3885  -26.0996   20.2322 O   0  0  0  0  0  0
  -26.5640  -34.8909   22.4592 O   0  0  0  0  0  0
  -23.5598  -32.1132   23.6859 O   0  0  0  0  0  0
  -29.1926  -20.3694   20.5590 C   0  0  0  0  0  0
  -30.3976  -19.8542   18.8108 C   0  0  0  0  0  0
  -29.8500  -19.2387   19.9978 C   0  0  0  0  0  0
  -30.3629  -21.2689   18.9406 C   0  0  0  0  0  0
  -31.0760  -19.1107   17.6943 C   0  0  0  0  0  0
  -31.2823  -22.7136   16.9175 C   0  0  0  0  0  0
  -32.7994  -21.9314   18.7564 C   0  0  0  0  0  0
  -30.1600  -17.7055   20.6337 C   0  0  0  0  0  0
  -28.9580  -23.1469   20.4727 C   0  0  0  0  0  0
  -28.5212  -24.6117   19.6530 C   0  0  0  0  0  0
  -31.3437  -22.3143   18.4064 C   0  0  0  0  0  0
  -29.4142  -21.6661   19.9284 N   0  0  0  0  0  0
  -30.9605  -19.5807   16.4585 N   0  0  0  0  0  0
  -29.8277  -16.2210   20.1979 N   0  0  0  0  0  0
  -31.6138  -18.0157   17.8637 O   0  0  0  0  0  0
  -31.4451  -12.8673   19.0260 H   0  0  0  0  0  0
  -30.5076  -11.7139   19.9476 H   0  0  0  0  0  0
  -29.8051  -11.7609   17.4984 H   0  0  0  0  0  0
  -29.5163  -13.4688   17.6149 H   0  0  0  0  0  0
  -27.9580  -11.2551   18.9829 H   0  0  0  0  0  0
  -27.3473  -12.3970   17.8156 H   0  0  0  0  0  0
  -27.5587  -14.2324   19.3473 H   0  0  0  0  0  0
  -28.8330  -12.3801   21.4229 H   0  0  0  0  0  0
  -28.4134  -14.0670   21.6642 H   0  0  0  0  0  0
  -25.2762   -9.5638   22.4795 H   0  0  0  0  0  0
  -23.9955   -7.4617   22.7523 H   0  0  0  0  0  0
  -21.0832   -8.8730   19.9000 H   0  0  0  0  0  0
  -22.3666  -10.9649   19.6184 H   0  0  0  0  0  0
  -21.1979   -7.6160   23.9669 H   0  0  0  0  0  0
  -21.1461   -6.0580   25.9064 H   0  0  0  0  0  0
  -22.0600   -2.7613   23.2905 H   0  0  0  0  0  0
  -22.3989  -11.9751   22.4733 H   0  0  0  0  0  0
  -21.1064  -13.1230   22.2693 H   0  0  0  0  0  0
  -24.7080  -15.8765   20.6263 H   0  0  0  0  0  0
  -26.2981  -15.6150   20.1307 H   0  0  0  0  0  0
  -26.7239  -32.5234   23.0870 H   0  0  0  0  0  0
  -25.0208  -33.9520   25.0313 H   0  0  0  0  0  0
  -22.7884  -31.2573   21.3062 H   0  0  0  0  0  0
  -23.3723  -35.9539   23.3325 H   0  0  0  0  0  0
  -24.3547  -36.8829   22.2094 H   0  0  0  0  0  0
  -23.7199  -37.6391   23.6688 H   0  0  0  0  0  0
  -26.1847  -31.4412   20.5993 H   0  0  0  0  0  0
  -26.9155  -30.7686   22.0138 H   0  0  0  0  0  0
  -28.1869  -28.7788   21.2381 H   0  0  0  0  0  0
  -26.0479  -25.8065   18.9762 H   0  0  0  0  0  0
  -24.0995  -27.2110   18.9551 H   0  0  0  0  0  0
  -23.9148  -30.5033   19.3822 H   0  0  0  0  0  0
  -22.8676  -29.1814   19.7852 H   0  0  0  0  0  0
  -25.1263  -36.1762   25.0807 H   0  0  0  0  0  0
  -21.0085  -28.3262   24.1290 H   0  0  0  0  0  0
  -20.5690  -26.2306   23.3578 H   0  0  0  0  0  0
  -21.6649  -26.7322   22.1176 H   0  0  0  0  0  0
  -19.6947  -25.6264   21.1223 H   0  0  0  0  0  0
  -19.6767  -27.3134   20.6716 H   0  0  0  0  0  0
  -17.4215  -26.6697   21.3970 H   0  0  0  0  0  0
  -18.0309  -26.0126   22.9037 H   0  0  0  0  0  0
  -19.8114  -30.7226   24.2182 H   0  0  0  0  0  0
  -17.5212  -31.6290   24.5132 H   0  0  0  0  0  0
  -15.5487  -30.3023   23.7698 H   0  0  0  0  0  0
  -15.8726  -28.0871   22.7017 H   0  0  0  0  0  0
  -24.5916  -30.7057   25.7698 H   0  0  0  0  0  0
  -24.8889  -32.3014   26.4579 H   0  0  0  0  0  0
  -25.8033  -30.9121   27.0184 H   0  0  0  0  0  0
  -26.3063  -29.6693   24.1051 H   0  0  0  0  0  0
  -27.4036  -29.7183   25.4665 H   0  0  0  0  0  0
  -27.8940  -30.4272   23.9462 H   0  0  0  0  0  0
  -27.2508  -33.3701   26.1863 H   0  0  0  0  0  0
  -28.3957  -32.6776   25.0461 H   0  0  0  0  0  0
  -28.0416  -31.8576   26.5617 H   0  0  0  0  0  0
  -28.2504  -38.0066   24.7491 H   0  0  0  0  0  0
  -28.1015  -36.2573   24.6352 H   0  0  0  0  0  0
  -27.2260  -37.1446   25.8915 H   0  0  0  0  0  0
  -20.9574  -29.9007   21.6935 H   0  0  0  0  0  0
  -26.0050  -38.2745   24.1586 H   0  0  0  0  0  0
  -28.6268  -20.3741   21.4823 H   0  0  0  0  0  0
  -30.2744  -22.9439   16.5628 H   0  0  0  0  0  0
  -31.7368  -21.9842   16.2468 H   0  0  0  0  0  0
  -31.8749  -23.6223   16.7720 H   0  0  0  0  0  0
  -32.9008  -21.6636   19.8101 H   0  0  0  0  0  0
  -33.4967  -22.7437   18.5555 H   0  0  0  0  0  0
  -33.1420  -21.0708   18.1804 H   0  0  0  0  0  0
  -29.7394  -17.7450   21.6434 H   0  0  0  0  0  0
  -31.2387  -17.6943   20.7977 H   0  0  0  0  0  0
  -28.1265  -22.9610   21.1497 H   0  0  0  0  0  0
  -29.7501  -23.4391   21.1630 H   0  0  0  0  0  0
  -27.6833  -24.3752   18.9949 H   0  0  0  0  0  0
  -29.3327  -24.7620   18.9407 H   0  0  0  0  0  0
  -31.1444  -23.2300   18.9585 H   0  0  0  0  0  0
  -30.5499  -20.4882   16.2877 H   0  0  0  0  0  0
  -31.2789  -19.0267   15.6739 H   0  0  0  0  0  0
  -28.8525  -16.0808   19.9802 H   0  0  0  0  0  0
  1 25  1  0  0  0
  1 30  2  0  0  0
  1 84  1  0  0  0
  2  3  1  0  0  0
  2 25  1  0  0  0
  2 86  1  0  0  0
  2 87  1  0  0  0
  3  4  1  0  0  0
  3 88  1  0  0  0
  3 89  1  0  0  0
  4  5  1  0  0  0
  4 90  1  0  0  0
  4 91  1  0  0  0
  5  6  1  0  0  0
  5 26  1  0  0  0
  5 92  1  0  0  0
  6 25  1  0  0  0
  6 93  1  0  0  0
  6 94  1  0  0  0
  7  8  2  0  0  0
  7 26  1  0  0  0
  7 29  1  0  0  0
  8  9  1  0  0  0
  8 22  1  0  0  0
  9 10  1  0  0  0
  9 27  2  0  0  0
 10 11  2  0  0  0
 10 15  1  0  0  0
 11 12  1  0  0  0
 11 95  1  0  0  0
 12 13  2  0  0  0
 12 96  1  0  0  0
 13 14  1  0  0  0
 13 31  1  0  0  0
 14 15  2  0  0  0
 14 97  1  0  0  0
 15 98  1  0  0  0
 16 17  2  0  0  0
 16 21  1  0  0  0
 16 31  1  0  0  0
 17 18  1  0  0  0
 17 99  1  0  0  0
 18 19  2  0  0  0
 18100  1  0  0  0
 19 20  1  0  0  0
 19 24  1  0  0  0
 20 21  2  0  0  0
 20101  1  0  0  0
 21 23  1  0  0  0
 22 28  1  0  0  0
 22 32  2  0  0  0
 26 27  1  0  0  0
 28102  1  0  0  0
 28103  1  0  0  0
 29104  1  0  0  0
 29105  1  0  0  0
 33 34  1  0  0  0
 33 66  1  0  0  0
 33 70  2  0  0  0
 34 36  1  0  0  0
 34 59  1  0  0  0
 34106  1  0  0  0
 35 44  2  0  0  0
 35 45  1  0  0  0
 35 68  1  0  0  0
 36 56  1  0  0  0
 36107  1  0  0  0
 37 39  1  0  0  0
 37 47  1  0  0  0
 37 66  1  0  0  0
 37108  1  0  0  0
 38 43  2  0  0  0
 38 46  1  0  0  0
 38 47  1  0  0  0
 39 64  1  0  0  0
 39 67  2  0  0  0
 40 52  1  0  0  0
 40 53  2  0  0  0
 40 58  1  0  0  0
 41109  1  0  0  0
 41110  1  0  0  0
 41111  1  0  0  0
 41 48  1  0  0  0
 42 43  1  0  0  0
 42 66  1  0  0  0
 42112  1  0  0  0
 42113  1  0  0  0
 43 44  1  0  0  0
 44114  1  0  0  0
 45 46  2  0  0  0
 45115  1  0  0  0
 46116  1  0  0  0
 47117  1  0  0  0
 47118  1  0  0  0
 48 56  1  0  0  0
 48 65  1  0  0  0
 48119  1  0  0  0
 49 50  1  0  0  0
 49 53  1  0  0  0
 49 64  1  0  0  0
 49120  1  0  0  0
 50 51  1  0  0  0
 50121  1  0  0  0
 50122  1  0  0  0
 51 52  1  0  0  0
 51123  1  0  0  0
 51124  1  0  0  0
 52125  1  0  0  0
 52126  1  0  0  0
 53 54  1  0  0  0
 54 55  2  0  0  0
 54127  1  0  0  0
 55 57  1  0  0  0
 55128  1  0  0  0
 56 69  2  0  0  0
 57 58  2  0  0  0
 57129  1  0  0  0
 58130  1  0  0  0
 59 60  1  0  0  0
 59 61  1  0  0  0
 59 62  1  0  0  0
 60131  1  0  0  0
 60132  1  0  0  0
 60133  1  0  0  0
 61134  1  0  0  0
 61135  1  0  0  0
 61136  1  0  0  0
 62137  1  0  0  0
 62138  1  0  0  0
 62139  1  0  0  0
 63 65  1  0  0  0
 63140  1  0  0  0
 63141  1  0  0  0
 63142  1  0  0  0
 64143  1  0  0  0
 65144  1  0  0  0
 68 80  1  0  0  0
 71 73  2  0  0  0
 71 82  1  0  0  0
 71145  1  0  0  0
 72 73  1  0  0  0
 72 74  2  0  0  0
 72 75  1  0  0  0
 73 78  1  0  0  0
 74 81  1  0  0  0
 74 82  1  0  0  0
 75 83  1  0  0  0
 75 85  2  0  0  0
 76146  1  0  0  0
 76147  1  0  0  0
 76148  1  0  0  0
 76 81  1  0  0  0
 77 81  1  0  0  0
 77149  1  0  0  0
 77150  1  0  0  0
 77151  1  0  0  0
 78 84  1  0  0  0
 78152  1  0  0  0
 78153  1  0  0  0
 79 80  1  0  0  0
 79 82  1  0  0  0
 79154  1  0  0  0
 79155  1  0  0  0
 80156  1  0  0  0
 80157  1  0  0  0
 81158  1  0  0  0
 83159  1  0  0  0
 83160  1  0  0  0
 84161  1  0  0  0
M  ISO  4   1 100  68 101  80 101  84 100
M  END
> <chiral flag>
0

> <version>
0

> <s_m_source_file>
/data/baiqing/PycharmProjects/Reinvent-master-3.2/result/LINK_invent/BTK/process_docking_weight1_custom_sum_contain_oxygen_bond_distance_aromatic_linkinvent_7_9_3/rearranged_h_0114.sdf

> <i_m_source_file_index>
10

> <r_mmod_Potential_Energy-OPLS-2005>
575.833129882812

> <r_mmod_Stretch_Energy-OPLS-2005>
343.089874267578

> <r_mmod_Bend_Energy-OPLS-2005>
355.070220947266

> <r_mmod_Torsional_Energy-OPLS-2005>
300.647857666016

> <r_mmod_Improper_Torsional_Energy-OPLS-2005>
13.6585340499878

> <r_mmod_Van_der_Waal_Energy-OPLS-2005>
102.173614501953

> <r_mmod_Electrostatic_Energy-OPLS-2005>
-531.525085449219

> <r_mmod_Solvation_Energy-OPLS-2005>
-261.504211425781

> <b_mmod_Minimization_Converged-OPLS-2005>
0

> <r_mmod_RMS_Derivative-OPLS-2005>
10.1542978286743

$$$$
10
                    3D
 Structure written by MMmdl.
153161  0  0  1  0            999 V2000
  -30.4397  -15.2240   20.3821 C   0  0  0  0  0  0
  -30.4400  -12.7821   19.5156 C   0  0  0  0  0  0
  -29.5320  -12.5698   18.2787 C   0  0  0  0  0  0
  -28.0781  -12.3001   18.7064 C   0  0  0  0  0  0
  -27.6122  -13.2689   19.8218 C   0  0  2  0  0  0
  -28.6480  -13.4211   20.9548 C   0  0  0  0  0  0
  -25.2394  -13.8233   20.5741 C   0  0  0  0  0  0
  -24.1743  -13.0430   20.9257 C   0  0  0  0  0  0
  -24.6388  -11.6925   20.8761 C   0  0  0  0  0  0
  -23.9080  -10.4288   21.0407 C   0  0  0  0  0  0
  -24.3630   -9.4202   21.9182 C   0  0  0  0  0  0
  -23.6303   -8.2237   22.0747 C   0  0  0  0  0  0
  -22.4284   -8.0277   21.3539 C   0  0  0  0  0  0
  -21.9921   -9.0250   20.4642 C   0  0  0  0  0  0
  -22.7251  -10.2129   20.3054 C   0  0  0  0  0  0
  -21.6853   -6.0737   22.5280 C   0  0  0  0  0  0
  -21.4015   -6.5640   23.8214 C   0  0  0  0  0  0
  -21.3660   -5.6791   24.9175 C   0  0  0  0  0  0
  -21.6045   -4.3054   24.7224 C   0  0  0  0  0  0
  -21.8819   -3.8146   23.4345 C   0  0  0  0  0  0
  -21.9192   -4.6964   22.3404 C   0  0  0  0  0  0
  -22.7762  -13.5189   21.1905 C   0  0  0  0  0  0
  -22.1660   -4.2151   21.0979 F   0  0  0  0  0  0
  -21.5625   -3.4536   25.7736 F   0  0  0  0  0  0
  -29.8814  -13.9203   20.3282 N   0  0  0  0  0  0
  -26.2812  -12.9497   20.3201 N   0  0  0  0  0  0
  -25.9322  -11.6607   20.5714 N   0  0  0  0  0  0
  -22.0418  -12.8171   22.0458 N   0  0  0  0  0  0
  -25.4020  -15.1967   20.4176 N   0  0  0  0  0  0
  -31.6641  -15.2414   20.1931 O   0  0  0  0  0  0
  -21.6639   -6.8880   21.4243 O   0  0  0  0  0  0
  -22.3442  -14.5490   20.6742 O   0  0  0  0  0  0
  -24.6586  -31.8267   23.1722 C   0  0  0  0  0  0
  -25.9286  -32.4602   23.8174 C   0  0  1  0  0  0
  -27.2200  -26.9548   20.1899 C   0  0  0  0  0  0
  -25.5968  -33.8414   24.2084 N   0  0  0  0  0  0
  -23.4713  -30.4377   21.5206 C   0  0  2  0  0  0
  -24.9232  -28.8215   20.1191 C   0  0  0  0  0  0
  -22.7640  -29.4460   22.4800 C   0  0  0  0  0  0
  -18.0317  -28.1407   22.8470 C   0  0  0  0  0  0
  -24.1491  -36.7215   23.2645 C   0  0  0  0  0  0
  -26.0370  -30.6410   21.3983 C   0  0  0  0  0  0
  -26.1038  -29.2298   20.7513 C   0  0  0  0  0  0
  -27.2458  -28.3162   20.7631 C   0  0  0  0  0  0
  -26.0111  -26.6873   19.5111 C   0  0  0  0  0  0
  -24.8989  -27.5690   19.4817 C   0  0  0  0  0  0
  -23.7096  -29.7488   20.1482 C   0  0  0  0  0  0
  -25.4130  -36.2977   24.0301 C   0  0  1  0  0  0
  -20.5937  -28.3751   23.1198 C   0  0  2  0  0  0
  -20.6795  -26.9436   22.5406 C   0  0  0  0  0  0
  -19.5770  -26.6379   21.5216 C   0  0  0  0  0  0
  -18.1951  -26.7941   22.1623 C   0  0  0  0  0  0
  -19.1576  -28.8900   23.2824 C   0  0  0  0  0  0
  -18.9487  -30.1489   23.8858 C   0  0  0  0  0  0
  -17.6482  -30.6600   24.0558 C   0  0  0  0  0  0
  -25.9094  -34.9359   23.5016 C   0  0  0  0  0  0
  -16.5373  -29.9089   23.6341 C   0  0  0  0  0  0
  -16.7300  -28.6508   23.0361 C   0  0  0  0  0  0
  -26.4552  -31.6538   25.0692 C   0  0  0  0  0  0
  -25.3687  -31.3783   26.1354 C   0  0  0  0  0  0
  -27.0442  -30.2907   24.6406 C   0  0  0  0  0  0
  -27.6048  -32.4342   25.7495 C   0  0  0  0  0  0
  -27.5570  -37.1763   24.8464 C   0  0  0  0  0  0
  -21.4314  -29.3045   22.3547 N   0  0  0  0  0  0
  -26.4275  -37.3712   23.9412 N   0  0  0  0  0  0
  -24.7433  -30.9958   22.0839 N   0  0  0  0  0  0
  -23.4205  -28.8035   23.3034 O   0  0  0  0  0  0
  -28.2818  -25.9193   20.1883 O   0  0  0  0  0  0
  -26.5703  -34.8889   22.4609 O   0  0  0  0  0  0
  -23.5665  -32.1225   23.6837 O   0  0  0  0  0  0
  -27.5308  -23.4505   21.0155 C   0  0  0  0  0  0
  -29.4607  -22.2480   19.5762 C   0  0  0  0  0  0
  -27.7206  -21.9729   21.0594 C   0  0  0  0  0  0
  -28.7413  -21.2185   20.3155 C   0  0  0  0  0  0
  -28.2876  -24.3865   20.2227 C   0  0  0  0  0  0
  -25.6225  -21.9225   22.6110 C   0  0  0  0  0  0
  -28.8172  -19.4730   20.1225 C   0  0  0  0  0  0
  -29.8984  -18.1186   20.5406 C   0  0  0  0  0  0
  -26.7765  -21.1516   21.9481 C   0  0  2  0  0  0
  -29.2731  -23.6622   19.5490 N   0  0  0  0  0  0
  -29.6536  -16.4735   20.4508 N   0  0  0  0  0  0
  -27.4885  -20.4964   22.9817 O   0  0  0  0  0  0
  -31.4584  -12.9896   19.1848 H   0  0  0  0  0  0
  -30.5046  -11.8714   20.1130 H   0  0  0  0  0  0
  -29.9046  -11.7453   17.6693 H   0  0  0  0  0  0
  -29.5673  -13.4592   17.6476 H   0  0  0  0  0  0
  -28.0282  -11.2734   19.0706 H   0  0  0  0  0  0
  -27.4095  -12.3527   17.8465 H   0  0  0  0  0  0
  -27.5336  -14.2410   19.3335 H   0  0  0  0  0  0
  -28.8099  -12.4788   21.4805 H   0  0  0  0  0  0
  -28.2958  -14.1375   21.6983 H   0  0  0  0  0  0
  -25.2769   -9.5679   22.4763 H   0  0  0  0  0  0
  -24.0008   -7.4628   22.7467 H   0  0  0  0  0  0
  -21.0849   -8.8772   19.8951 H   0  0  0  0  0  0
  -22.3702  -10.9671   19.6169 H   0  0  0  0  0  0
  -21.2009   -7.6148   23.9723 H   0  0  0  0  0  0
  -21.1483   -6.0517   25.9081 H   0  0  0  0  0  0
  -22.0598   -2.7609   23.2842 H   0  0  0  0  0  0
  -22.4053  -11.9842   22.4848 H   0  0  0  0  0  0
  -21.1029  -13.1176   22.2657 H   0  0  0  0  0  0
  -24.6264  -15.8412   20.5262 H   0  0  0  0  0  0
  -26.2343  -15.6392   20.0514 H   0  0  0  0  0  0
  -26.7351  -32.5154   23.0887 H   0  0  0  0  0  0
  -25.0059  -33.9500   25.0197 H   0  0  0  0  0  0
  -22.7830  -31.2681   21.3493 H   0  0  0  0  0  0
  -23.3764  -35.9533   23.3269 H   0  0  0  0  0  0
  -24.3571  -36.8900   22.2067 H   0  0  0  0  0  0
  -23.7238  -37.6389   23.6724 H   0  0  0  0  0  0
  -26.2107  -31.3789   20.6140 H   0  0  0  0  0  0
  -26.8999  -30.7019   22.0497 H   0  0  0  0  0  0
  -28.1480  -28.6335   21.2665 H   0  0  0  0  0  0
  -25.9054  -25.7330   19.0146 H   0  0  0  0  0  0
  -24.0010  -27.2525   18.9691 H   0  0  0  0  0  0
  -23.8649  -30.5146   19.3872 H   0  0  0  0  0  0
  -22.8196  -29.2019   19.8322 H   0  0  0  0  0  0
  -25.1328  -36.1770   25.0792 H   0  0  0  0  0  0
  -21.0027  -28.3358   24.1321 H   0  0  0  0  0  0
  -20.5675  -26.2371   23.3645 H   0  0  0  0  0  0
  -21.6660  -26.7416   22.1215 H   0  0  0  0  0  0
  -19.6930  -25.6278   21.1275 H   0  0  0  0  0  0
  -19.6709  -27.3164   20.6725 H   0  0  0  0  0  0
  -17.4222  -26.6686   21.4027 H   0  0  0  0  0  0
  -18.0347  -26.0093   22.9028 H   0  0  0  0  0  0
  -19.7962  -30.7317   24.2211 H   0  0  0  0  0  0
  -17.5033  -31.6274   24.5168 H   0  0  0  0  0  0
  -15.5371  -30.2979   23.7685 H   0  0  0  0  0  0
  -15.8700  -28.0814   22.7099 H   0  0  0  0  0  0
  -24.5884  -30.7115   25.7668 H   0  0  0  0  0  0
  -24.8856  -32.2982   26.4657 H   0  0  0  0  0  0
  -25.7923  -30.9035   27.0214 H   0  0  0  0  0  0
  -26.3098  -29.6589   24.1396 H   0  0  0  0  0  0
  -27.3961  -29.7267   25.5056 H   0  0  0  0  0  0
  -27.9047  -30.4091   23.9818 H   0  0  0  0  0  0
  -27.2615  -33.3680   26.1959 H   0  0  0  0  0  0
  -28.3917  -32.6840   25.0367 H   0  0  0  0  0  0
  -28.0650  -31.8545   26.5509 H   0  0  0  0  0  0
  -28.2565  -38.0080   24.7513 H   0  0  0  0  0  0
  -28.1087  -36.2606   24.6281 H   0  0  0  0  0  0
  -27.2287  -37.1393   25.8866 H   0  0  0  0  0  0
  -20.9562  -29.8725   21.6671 H   0  0  0  0  0  0
  -26.0123  -38.2770   24.1422 H   0  0  0  0  0  0
  -26.7696  -23.9106   21.6259 H   0  0  0  0  0  0
  -30.2402  -21.9145   18.9074 H   0  0  0  0  0  0
  -25.0050  -22.4227   21.8640 H   0  0  0  0  0  0
  -25.9818  -22.6720   23.3168 H   0  0  0  0  0  0
  -24.9643  -21.2489   23.1600 H   0  0  0  0  0  0
  -28.7047  -19.3725   19.0426 H   0  0  0  0  0  0
  -27.8564  -19.1244   20.4917 H   0  0  0  0  0  0
  -30.1473  -18.2738   21.5908 H   0  0  0  0  0  0
  -30.8380  -18.2980   20.0170 H   0  0  0  0  0  0
  -26.3101  -20.3946   21.3169 H   0  0  0  0  0  0
  -28.6707  -16.2519   20.5133 H   0  0  0  0  0  0
  -26.8786  -19.9123   23.4190 H   0  0  0  0  0  0
  1 25  1  0  0  0
  1 30  2  0  0  0
  1 81  1  0  0  0
  2  3  1  0  0  0
  2 25  1  0  0  0
  2 83  1  0  0  0
  2 84  1  0  0  0
  3  4  1  0  0  0
  3 85  1  0  0  0
  3 86  1  0  0  0
  4  5  1  0  0  0
  4 87  1  0  0  0
  4 88  1  0  0  0
  5  6  1  0  0  0
  5 26  1  0  0  0
  5 89  1  0  0  0
  6 25  1  0  0  0
  6 90  1  0  0  0
  6 91  1  0  0  0
  7  8  2  0  0  0
  7 26  1  0  0  0
  7 29  1  0  0  0
  8  9  1  0  0  0
  8 22  1  0  0  0
  9 10  1  0  0  0
  9 27  2  0  0  0
 10 11  2  0  0  0
 10 15  1  0  0  0
 11 12  1  0  0  0
 11 92  1  0  0  0
 12 13  2  0  0  0
 12 93  1  0  0  0
 13 14  1  0  0  0
 13 31  1  0  0  0
 14 15  2  0  0  0
 14 94  1  0  0  0
 15 95  1  0  0  0
 16 17  2  0  0  0
 16 21  1  0  0  0
 16 31  1  0  0  0
 17 18  1  0  0  0
 17 96  1  0  0  0
 18 19  2  0  0  0
 18 97  1  0  0  0
 19 20  1  0  0  0
 19 24  1  0  0  0
 20 21  2  0  0  0
 20 98  1  0  0  0
 21 23  1  0  0  0
 22 28  1  0  0  0
 22 32  2  0  0  0
 26 27  1  0  0  0
 28 99  1  0  0  0
 28100  1  0  0  0
 29101  1  0  0  0
 29102  1  0  0  0
 33 34  1  0  0  0
 33 66  1  0  0  0
 33 70  2  0  0  0
 34 36  1  0  0  0
 34 59  1  0  0  0
 34103  1  0  0  0
 35 44  2  0  0  0
 35 45  1  0  0  0
 35 68  1  0  0  0
 36 56  1  0  0  0
 36104  1  0  0  0
 37 39  1  0  0  0
 37 47  1  0  0  0
 37 66  1  0  0  0
 37105  1  0  0  0
 38 43  2  0  0  0
 38 46  1  0  0  0
 38 47  1  0  0  0
 39 64  1  0  0  0
 39 67  2  0  0  0
 40 52  1  0  0  0
 40 53  2  0  0  0
 40 58  1  0  0  0
 41106  1  0  0  0
 41107  1  0  0  0
 41108  1  0  0  0
 41 48  1  0  0  0
 42 43  1  0  0  0
 42 66  1  0  0  0
 42109  1  0  0  0
 42110  1  0  0  0
 43 44  1  0  0  0
 44111  1  0  0  0
 45 46  2  0  0  0
 45112  1  0  0  0
 46113  1  0  0  0
 47114  1  0  0  0
 47115  1  0  0  0
 48 56  1  0  0  0
 48 65  1  0  0  0
 48116  1  0  0  0
 49 50  1  0  0  0
 49 53  1  0  0  0
 49 64  1  0  0  0
 49117  1  0  0  0
 50 51  1  0  0  0
 50118  1  0  0  0
 50119  1  0  0  0
 51 52  1  0  0  0
 51120  1  0  0  0
 51121  1  0  0  0
 52122  1  0  0  0
 52123  1  0  0  0
 53 54  1  0  0  0
 54 55  2  0  0  0
 54124  1  0  0  0
 55 57  1  0  0  0
 55125  1  0  0  0
 56 69  2  0  0  0
 57 58  2  0  0  0
 57126  1  0  0  0
 58127  1  0  0  0
 59 60  1  0  0  0
 59 61  1  0  0  0
 59 62  1  0  0  0
 60128  1  0  0  0
 60129  1  0  0  0
 60130  1  0  0  0
 61131  1  0  0  0
 61132  1  0  0  0
 61133  1  0  0  0
 62134  1  0  0  0
 62135  1  0  0  0
 62136  1  0  0  0
 63 65  1  0  0  0
 63137  1  0  0  0
 63138  1  0  0  0
 63139  1  0  0  0
 64140  1  0  0  0
 65141  1  0  0  0
 68 75  1  0  0  0
 71 73  2  0  0  0
 71 75  1  0  0  0
 71142  1  0  0  0
 72 74  2  0  0  0
 72 80  1  0  0  0
 72143  1  0  0  0
 73 74  1  0  0  0
 73 79  1  0  0  0
 74 77  1  0  0  0
 75 80  2  0  0  0
 76144  1  0  0  0
 76145  1  0  0  0
 76146  1  0  0  0
 76 79  1  0  0  0
 77 78  1  0  0  0
 77147  1  0  0  0
 77148  1  0  0  0
 78 81  1  0  0  0
 78149  1  0  0  0
 78150  1  0  0  0
 79 82  1  0  0  0
 79151  1  0  0  0
 81152  1  0  0  0
 82153  1  0  0  0
M  ISO  4   1 100  68 101  75 101  81 100
M  END
> <chiral flag>
0

> <version>
0

> <s_m_source_file>
/data/baiqing/PycharmProjects/Reinvent-master-3.2/result/LINK_invent/BTK/process_docking_weight1_custom_sum_contain_oxygen_bond_distance_aromatic_linkinvent_7_9_3/rearranged_h_0114.sdf

> <i_m_source_file_index>
11

> <r_mmod_Potential_Energy-OPLS-2005>
815.935302734375

> <r_mmod_Stretch_Energy-OPLS-2005>
475.079437255859

> <r_mmod_Bend_Energy-OPLS-2005>
416.364349365234

> <r_mmod_Torsional_Energy-OPLS-2005>
212.719741821289

> <r_mmod_Improper_Torsional_Energy-OPLS-2005>
6.74122858047485

> <r_mmod_Van_der_Waal_Energy-OPLS-2005>
134.041427612305

> <r_mmod_Electrostatic_Energy-OPLS-2005>
-580.827697753906

> <r_mmod_Solvation_Energy-OPLS-2005>
-254.363357543945

> <b_mmod_Minimization_Converged-OPLS-2005>
0

> <r_mmod_RMS_Derivative-OPLS-2005>
0.551390647888184

$$$$
11
                    3D
 Structure written by MMmdl.
168176  0  0  1  0            999 V2000
  -30.7090  -14.4673   20.5230 C   0  0  0  0  0  0
  -30.4256  -12.2877   19.4339 C   0  0  0  0  0  0
  -29.5010  -12.4954   18.2154 C   0  0  0  0  0  0
  -28.0223  -12.3550   18.6275 C   0  0  0  0  0  0
  -27.6675  -13.2060   19.8767 C   0  0  2  0  0  0
  -28.7102  -13.0017   21.0029 C   0  0  0  0  0  0
  -25.2626  -13.8171   20.5684 C   0  0  0  0  0  0
  -24.1875  -13.0453   20.9175 C   0  0  0  0  0  0
  -24.6427  -11.6917   20.8751 C   0  0  0  0  0  0
  -23.9084  -10.4299   21.0413 C   0  0  0  0  0  0
  -24.3633   -9.4210   21.9180 C   0  0  0  0  0  0
  -23.6303   -8.2247   22.0749 C   0  0  0  0  0  0
  -22.4282   -8.0294   21.3541 C   0  0  0  0  0  0
  -21.9920   -9.0269   20.4642 C   0  0  0  0  0  0
  -22.7259  -10.2144   20.3055 C   0  0  0  0  0  0
  -21.6853   -6.0747   22.5278 C   0  0  0  0  0  0
  -21.4010   -6.5642   23.8217 C   0  0  0  0  0  0
  -21.3669   -5.6793   24.9173 C   0  0  0  0  0  0
  -21.6046   -4.3050   24.7213 C   0  0  0  0  0  0
  -21.8820   -3.8151   23.4331 C   0  0  0  0  0  0
  -21.9192   -4.6973   22.3396 C   0  0  0  0  0  0
  -22.7887  -13.5248   21.1824 C   0  0  0  0  0  0
  -22.1657   -4.2176   21.0966 F   0  0  0  0  0  0
  -21.5641   -3.4526   25.7715 F   0  0  0  0  0  0
  -30.0467  -13.2823   20.4494 N   0  0  0  0  0  0
  -26.3068  -12.9341   20.3384 N   0  0  0  0  0  0
  -25.9356  -11.6503   20.5788 N   0  0  0  0  0  0
  -22.0504  -12.8264   22.0380 N   0  0  0  0  0  0
  -25.4371  -15.1887   20.4092 N   0  0  0  0  0  0
  -31.8443  -14.6341   20.0724 O   0  0  0  0  0  0
  -21.6637   -6.8891   21.4241 O   0  0  0  0  0  0
  -22.3573  -14.5551   20.6658 O   0  0  0  0  0  0
  -24.6150  -31.8686   23.2123 C   0  0  0  0  0  0
  -25.9041  -32.4827   23.8421 C   0  0  1  0  0  0
  -27.2378  -27.4397   20.0865 C   0  0  0  0  0  0
  -25.5892  -33.8622   24.2335 N   0  0  0  0  0  0
  -23.4020  -30.4944   21.5529 C   0  0  2  0  0  0
  -24.8477  -28.9605   20.1206 C   0  0  0  0  0  0
  -22.7418  -29.4664   22.5001 C   0  0  0  0  0  0
  -18.0275  -28.1375   22.8503 C   0  0  0  0  0  0
  -24.1470  -36.7315   23.2640 C   0  0  0  0  0  0
  -25.9332  -30.8335   21.3673 C   0  0  0  0  0  0
  -26.0095  -29.4676   20.7162 C   0  0  0  0  0  0
  -27.2061  -28.7146   20.6970 C   0  0  0  0  0  0
  -26.0603  -26.9597   19.4746 C   0  0  0  0  0  0
  -24.8669  -27.7014   19.4990 C   0  0  0  0  0  0
  -23.6116  -29.8285   20.1680 C   0  0  0  0  0  0
  -25.4095  -36.3118   24.0342 C   0  0  1  0  0  0
  -20.5868  -28.3653   23.1312 C   0  0  2  0  0  0
  -20.6756  -26.9385   22.5418 C   0  0  0  0  0  0
  -19.5732  -26.6385   21.5210 C   0  0  0  0  0  0
  -18.1917  -26.7927   22.1629 C   0  0  0  0  0  0
  -19.1529  -28.8832   23.2906 C   0  0  0  0  0  0
  -18.9464  -30.1440   23.8904 C   0  0  0  0  0  0
  -17.6469  -30.6579   24.0571 C   0  0  0  0  0  0
  -25.9031  -34.9484   23.5136 C   0  0  0  0  0  0
  -16.5353  -29.9089   23.6334 C   0  0  0  0  0  0
  -16.7273  -28.6505   23.0351 C   0  0  0  0  0  0
  -26.4468  -31.6612   25.0757 C   0  0  0  0  0  0
  -25.3750  -31.3722   26.1525 C   0  0  0  0  0  0
  -27.0297  -30.3057   24.6130 C   0  0  0  0  0  0
  -27.6051  -32.4326   25.7518 C   0  0  0  0  0  0
  -27.5571  -37.1812   24.8473 C   0  0  0  0  0  0
  -21.4146  -29.3024   22.3734 N   0  0  0  0  0  0
  -26.4280  -37.3806   23.9420 N   0  0  0  0  0  0
  -24.6685  -31.0807   22.1016 N   0  0  0  0  0  0
  -23.4201  -28.8200   23.3030 O   0  0  0  0  0  0
  -28.4115  -26.7106   20.0605 O   0  0  0  0  0  0
  -26.5603  -34.8933   22.4709 O   0  0  0  0  0  0
  -23.5339  -32.1413   23.7518 O   0  0  0  0  0  0
  -29.7914  -23.5147   21.5625 C   0  0  0  0  0  0
  -29.5846  -25.0206   21.2738 C   0  0  0  0  0  0
  -29.5407  -23.4755   19.0182 C   0  0  0  0  0  0
  -28.2744  -24.3629   19.1592 C   0  0  1  0  0  0
  -29.8072  -22.6246   20.2876 C   0  0  1  0  0  0
  -28.3413  -25.3121   20.4024 C   0  0  2  0  0  0
  -27.0182  -23.4566   19.1707 C   0  0  0  0  0  0
  -32.0449  -17.6394   21.6249 C   0  0  0  0  0  0
  -30.6022  -19.3194   20.2994 C   0  0  0  0  0  0
  -30.0632  -16.8451   20.2313 C   0  0  0  0  0  0
  -31.1403  -20.5951   21.0050 C   0  0  0  0  0  0
  -30.6332  -17.9871   21.1138 C   0  0  1  0  0  0
  -29.9495  -15.5189   20.8639 N   0  0  0  0  0  0
  -31.0502  -21.8189   20.1586 N   0  3  0  0  0  0
  -29.5607  -18.1710   22.5296 Cl  0  0  0  0  0  0
  -31.4734  -12.3684   19.1347 H   0  0  0  0  0  0
  -30.3084  -11.2801   19.8370 H   0  0  0  0  0  0
  -29.7415  -11.7732   17.4344 H   0  0  0  0  0  0
  -29.6737  -13.4826   17.7833 H   0  0  0  0  0  0
  -27.8380  -11.2999   18.8329 H   0  0  0  0  0  0
  -27.3722  -12.6188   17.7919 H   0  0  0  0  0  0
  -27.7064  -14.2509   19.5657 H   0  0  0  0  0  0
  -28.6797  -11.9735   21.3683 H   0  0  0  0  0  0
  -28.4846  -13.6309   21.8654 H   0  0  0  0  0  0
  -25.2783   -9.5683   22.4747 H   0  0  0  0  0  0
  -24.0023   -7.4630   22.7462 H   0  0  0  0  0  0
  -21.0857   -8.8794   19.8940 H   0  0  0  0  0  0
  -22.3733  -10.9685   19.6158 H   0  0  0  0  0  0
  -21.1991   -7.6145   23.9736 H   0  0  0  0  0  0
  -21.1495   -6.0503   25.9088 H   0  0  0  0  0  0
  -22.0591   -2.7615   23.2810 H   0  0  0  0  0  0
  -22.4113  -11.9942   22.4811 H   0  0  0  0  0  0
  -21.1116  -13.1304   22.2533 H   0  0  0  0  0  0
  -24.6718  -15.8448   20.5190 H   0  0  0  0  0  0
  -26.2926  -15.6268   20.0913 H   0  0  0  0  0  0
  -26.7118  -32.5533   23.1192 H   0  0  0  0  0  0
  -25.0055  -33.9786   25.0486 H   0  0  0  0  0  0
  -22.6898  -31.3106   21.4147 H   0  0  0  0  0  0
  -23.3728  -35.9651   23.3325 H   0  0  0  0  0  0
  -24.3569  -36.8914   22.2054 H   0  0  0  0  0  0
  -23.7218  -37.6524   23.6639 H   0  0  0  0  0  0
  -26.0465  -31.5979   20.5974 H   0  0  0  0  0  0
  -26.8203  -30.8840   21.9876 H   0  0  0  0  0  0
  -28.1034  -29.1085   21.1531 H   0  0  0  0  0  0
  -26.0615  -26.0318   18.9348 H   0  0  0  0  0  0
  -23.9790  -27.3103   19.0206 H   0  0  0  0  0  0
  -23.7229  -30.6034   19.4081 H   0  0  0  0  0  0
  -22.7354  -29.2508   19.8696 H   0  0  0  0  0  0
  -25.1261  -36.1990   25.0833 H   0  0  0  0  0  0
  -20.9953  -28.3205   24.1433 H   0  0  0  0  0  0
  -20.5645  -26.2261   23.3606 H   0  0  0  0  0  0
  -21.6632  -26.7424   22.1214 H   0  0  0  0  0  0
  -19.6891  -25.6301   21.1225 H   0  0  0  0  0  0
  -19.6663  -27.3211   20.6755 H   0  0  0  0  0  0
  -17.4184  -26.6678   21.4037 H   0  0  0  0  0  0
  -18.0317  -26.0056   22.9013 H   0  0  0  0  0  0
  -19.7943  -30.7257   24.2265 H   0  0  0  0  0  0
  -17.5029  -31.6266   24.5166 H   0  0  0  0  0  0
  -15.5352  -30.3001   23.7648 H   0  0  0  0  0  0
  -15.8674  -28.0838   22.7049 H   0  0  0  0  0  0
  -24.5925  -30.7048   25.7897 H   0  0  0  0  0  0
  -24.8938  -32.2875   26.4978 H   0  0  0  0  0  0
  -25.8137  -30.8918   27.0282 H   0  0  0  0  0  0
  -26.2849  -29.6838   24.1151 H   0  0  0  0  0  0
  -27.4039  -29.7275   25.4590 H   0  0  0  0  0  0
  -27.8696  -30.4393   23.9308 H   0  0  0  0  0  0
  -27.2676  -33.3612   26.2129 H   0  0  0  0  0  0
  -28.3848  -32.6902   25.0340 H   0  0  0  0  0  0
  -28.0724  -31.8426   26.5410 H   0  0  0  0  0  0
  -28.2605  -38.0095   24.7513 H   0  0  0  0  0  0
  -28.1043  -36.2630   24.6292 H   0  0  0  0  0  0
  -27.2307  -37.1477   25.8884 H   0  0  0  0  0  0
  -20.9297  -29.8759   21.6971 H   0  0  0  0  0  0
  -26.0168  -38.2883   24.1429 H   0  0  0  0  0  0
  -28.9851  -23.1753   22.2142 H   0  0  0  0  0  0
  -30.7057  -23.3880   22.1433 H   0  0  0  0  0  0
  -30.4735  -25.4154   20.7769 H   0  0  0  0  0  0
  -29.5083  -25.5691   22.2123 H   0  0  0  0  0  0
  -30.4036  -24.1096   18.8048 H   0  0  0  0  0  0
  -29.4340  -22.8237   18.1505 H   0  0  0  0  0  0
  -28.2189  -24.9831   18.2620 H   0  0  0  0  0  0
  -28.9929  -21.9038   20.3706 H   0  0  0  0  0  0
  -27.4650  -25.1423   21.0317 H   0  0  0  0  0  0
  -26.0820  -24.0038   19.1112 H   0  0  0  0  0  0
  -26.9629  -22.8565   20.0778 H   0  0  0  0  0  0
  -27.0225  -22.7723   18.3229 H   0  0  0  0  0  0
  -32.7508  -17.5387   20.8017 H   0  0  0  0  0  0
  -32.0532  -16.6998   22.1762 H   0  0  0  0  0  0
  -32.4346  -18.3961   22.3045 H   0  0  0  0  0  0
  -31.1702  -19.1737   19.3778 H   0  0  0  0  0  0
  -29.5749  -19.5028   19.9815 H   0  0  0  0  0  0
  -30.6495  -16.7738   19.3131 H   0  0  0  0  0  0
  -29.0601  -17.1195   19.9035 H   0  0  0  0  0  0
  -30.6465  -20.7635   21.9629 H   0  0  0  0  0  0
  -32.1951  -20.4451   21.2320 H   0  0  0  0  0  0
  -29.0631  -15.3085   21.2974 H   0  0  0  0  0  0
  -31.8327  -22.4184   20.3708 H   0  0  0  0  0  0
  -31.1610  -21.5392   19.1983 H   0  0  0  0  0  0
  1 25  1  0  0  0
  1 30  2  0  0  0
  1 83  1  0  0  0
  2  3  1  0  0  0
  2 25  1  0  0  0
  2 86  1  0  0  0
  2 87  1  0  0  0
  3  4  1  0  0  0
  3 88  1  0  0  0
  3 89  1  0  0  0
  4  5  1  0  0  0
  4 90  1  0  0  0
  4 91  1  0  0  0
  5  6  1  0  0  0
  5 26  1  0  0  0
  5 92  1  0  0  0
  6 25  1  0  0  0
  6 93  1  0  0  0
  6 94  1  0  0  0
  7  8  2  0  0  0
  7 26  1  0  0  0
  7 29  1  0  0  0
  8  9  1  0  0  0
  8 22  1  0  0  0
  9 10  1  0  0  0
  9 27  2  0  0  0
 10 11  2  0  0  0
 10 15  1  0  0  0
 11 12  1  0  0  0
 11 95  1  0  0  0
 12 13  2  0  0  0
 12 96  1  0  0  0
 13 14  1  0  0  0
 13 31  1  0  0  0
 14 15  2  0  0  0
 14 97  1  0  0  0
 15 98  1  0  0  0
 16 17  2  0  0  0
 16 21  1  0  0  0
 16 31  1  0  0  0
 17 18  1  0  0  0
 17 99  1  0  0  0
 18 19  2  0  0  0
 18100  1  0  0  0
 19 20  1  0  0  0
 19 24  1  0  0  0
 20 21  2  0  0  0
 20101  1  0  0  0
 21 23  1  0  0  0
 22 28  1  0  0  0
 22 32  2  0  0  0
 26 27  1  0  0  0
 28102  1  0  0  0
 28103  1  0  0  0
 29104  1  0  0  0
 29105  1  0  0  0
 33 34  1  0  0  0
 33 66  1  0  0  0
 33 70  2  0  0  0
 34 36  1  0  0  0
 34 59  1  0  0  0
 34106  1  0  0  0
 35 44  2  0  0  0
 35 45  1  0  0  0
 35 68  1  0  0  0
 36 56  1  0  0  0
 36107  1  0  0  0
 37 39  1  0  0  0
 37 47  1  0  0  0
 37 66  1  0  0  0
 37108  1  0  0  0
 38 43  2  0  0  0
 38 46  1  0  0  0
 38 47  1  0  0  0
 39 64  1  0  0  0
 39 67  2  0  0  0
 40 52  1  0  0  0
 40 53  2  0  0  0
 40 58  1  0  0  0
 41109  1  0  0  0
 41110  1  0  0  0
 41111  1  0  0  0
 41 48  1  0  0  0
 42 43  1  0  0  0
 42 66  1  0  0  0
 42112  1  0  0  0
 42113  1  0  0  0
 43 44  1  0  0  0
 44114  1  0  0  0
 45 46  2  0  0  0
 45115  1  0  0  0
 46116  1  0  0  0
 47117  1  0  0  0
 47118  1  0  0  0
 48 56  1  0  0  0
 48 65  1  0  0  0
 48119  1  0  0  0
 49 50  1  0  0  0
 49 53  1  0  0  0
 49 64  1  0  0  0
 49120  1  0  0  0
 50 51  1  0  0  0
 50121  1  0  0  0
 50122  1  0  0  0
 51 52  1  0  0  0
 51123  1  0  0  0
 51124  1  0  0  0
 52125  1  0  0  0
 52126  1  0  0  0
 53 54  1  0  0  0
 54 55  2  0  0  0
 54127  1  0  0  0
 55 57  1  0  0  0
 55128  1  0  0  0
 56 69  2  0  0  0
 57 58  2  0  0  0
 57129  1  0  0  0
 58130  1  0  0  0
 59 60  1  0  0  0
 59 61  1  0  0  0
 59 62  1  0  0  0
 60131  1  0  0  0
 60132  1  0  0  0
 60133  1  0  0  0
 61134  1  0  0  0
 61135  1  0  0  0
 61136  1  0  0  0
 62137  1  0  0  0
 62138  1  0  0  0
 62139  1  0  0  0
 63 65  1  0  0  0
 63140  1  0  0  0
 63141  1  0  0  0
 63142  1  0  0  0
 64143  1  0  0  0
 65144  1  0  0  0
 68 76  1  0  0  0
 71 72  1  0  0  0
 71 75  1  0  0  0
 71145  1  0  0  0
 71146  1  0  0  0
 72 76  1  0  0  0
 72147  1  0  0  0
 72148  1  0  0  0
 73 74  1  0  0  0
 73 75  1  0  0  0
 73149  1  0  0  0
 73150  1  0  0  0
 74 76  1  0  0  0
 74 77  1  0  0  0
 74151  1  0  0  0
 75 84  1  0  0  0
 75152  1  0  0  0
 76153  1  0  0  0
 77154  1  0  0  0
 77155  1  0  0  0
 77156  1  0  0  0
 78157  1  0  0  0
 78158  1  0  0  0
 78159  1  0  0  0
 78 82  1  0  0  0
 79 81  1  0  0  0
 79 82  1  0  0  0
 79160  1  0  0  0
 79161  1  0  0  0
 80 82  1  0  0  0
 80 83  1  0  0  0
 80162  1  0  0  0
 80163  1  0  0  0
 81 84  1  0  0  0
 81164  1  0  0  0
 81165  1  0  0  0
 82 85  1  0  0  0
 83166  1  0  0  0
 84167  1  0  0  0
 84168  1  0  0  0
M  CHG  1  84   1
M  ISO  4   1 100  68 101  76 101  83 100
M  END
> <chiral flag>
0

> <version>
0

> <s_m_source_file>
/data/baiqing/PycharmProjects/Reinvent-master-3.2/result/LINK_invent/BTK/process_docking_weight1_custom_sum_contain_oxygen_bond_distance_aromatic_linkinvent_7_9_3/rearranged_h_0114.sdf

> <i_m_source_file_index>
12

> <r_mmod_Potential_Energy-OPLS-2005>
-189.80729675293

> <r_mmod_Stretch_Energy-OPLS-2005>
40.4162216186523

> <r_mmod_Bend_Energy-OPLS-2005>
104.111694335938

> <r_mmod_Torsional_Energy-OPLS-2005>
298.649291992188

> <r_mmod_Improper_Torsional_Energy-OPLS-2005>
8.0022144317627

> <r_mmod_Van_der_Waal_Energy-OPLS-2005>
141.069839477539

> <r_mmod_Electrostatic_Energy-OPLS-2005>
-339.852355957031

> <r_mmod_Solvation_Energy-OPLS-2005>
-455.200592041016

> <b_mmod_Minimization_Converged-OPLS-2005>
0

> <r_mmod_RMS_Derivative-OPLS-2005>
2.42132759094238

$$$$
12
                    3D
 Structure written by MMmdl.
158167  0  0  1  0            999 V2000
  -30.4427  -15.1679   20.4480 C   0  0  0  0  0  0
  -30.4526  -12.7510   19.5037 C   0  0  0  0  0  0
  -29.5320  -12.5749   18.2680 C   0  0  0  0  0  0
  -28.0731  -12.3130   18.6878 C   0  0  0  0  0  0
  -27.6228  -13.2568   19.8292 C   0  0  2  0  0  0
  -28.6628  -13.3221   20.9616 C   0  0  0  0  0  0
  -25.2460  -13.8216   20.5726 C   0  0  0  0  0  0
  -24.1780  -13.0433   20.9226 C   0  0  0  0  0  0
  -24.6406  -11.6920   20.8743 C   0  0  0  0  0  0
  -23.9091  -10.4292   21.0405 C   0  0  0  0  0  0
  -24.3637   -9.4206   21.9186 C   0  0  0  0  0  0
  -23.6304   -8.2244   22.0758 C   0  0  0  0  0  0
  -22.4285   -8.0284   21.3547 C   0  0  0  0  0  0
  -21.9927   -9.0260   20.4649 C   0  0  0  0  0  0
  -22.7263  -10.2132   20.3054 C   0  0  0  0  0  0
  -21.6854   -6.0741   22.5283 C   0  0  0  0  0  0
  -21.4016   -6.5644   23.8216 C   0  0  0  0  0  0
  -21.3659   -5.6795   24.9179 C   0  0  0  0  0  0
  -21.6042   -4.3057   24.7228 C   0  0  0  0  0  0
  -21.8816   -3.8151   23.4349 C   0  0  0  0  0  0
  -21.9194   -4.6968   22.3407 C   0  0  0  0  0  0
  -22.7801  -13.5205   21.1892 C   0  0  0  0  0  0
  -22.1661   -4.2152   21.0983 F   0  0  0  0  0  0
  -21.5628   -3.4540   25.7740 F   0  0  0  0  0  0
  -29.9035  -13.8552   20.3661 N   0  0  0  0  0  0
  -26.2865  -12.9449   20.3203 N   0  0  0  0  0  0
  -25.9334  -11.6573   20.5699 N   0  0  0  0  0  0
  -22.0456  -12.8190   22.0446 N   0  0  0  0  0  0
  -25.4152  -15.1950   20.4211 N   0  0  0  0  0  0
  -31.6350  -15.2417   20.1146 O   0  0  0  0  0  0
  -21.6642   -6.8885   21.4246 O   0  0  0  0  0  0
  -22.3482  -14.5509   20.6736 O   0  0  0  0  0  0
  -24.6586  -31.8294   23.1757 C   0  0  0  0  0  0
  -25.9296  -32.4622   23.8203 C   0  0  1  0  0  0
  -27.2189  -26.9852   20.1673 C   0  0  0  0  0  0
  -25.5982  -33.8432   24.2115 N   0  0  0  0  0  0
  -23.4703  -30.4458   21.5232 C   0  0  2  0  0  0
  -24.9237  -28.8482   20.1093 C   0  0  0  0  0  0
  -22.7644  -29.4476   22.4782 C   0  0  0  0  0  0
  -18.0317  -28.1409   22.8464 C   0  0  0  0  0  0
  -24.1483  -36.7209   23.2649 C   0  0  0  0  0  0
  -26.0381  -30.6542   21.3987 C   0  0  0  0  0  0
  -26.1072  -29.2507   20.7409 C   0  0  0  0  0  0
  -27.2510  -28.3389   20.7505 C   0  0  0  0  0  0
  -26.0060  -26.7289   19.4851 C   0  0  0  0  0  0
  -24.8953  -27.6054   19.4626 C   0  0  0  0  0  0
  -23.7073  -29.7693   20.1464 C   0  0  0  0  0  0
  -25.4121  -36.2983   24.0311 C   0  0  1  0  0  0
  -20.5941  -28.3749   23.1187 C   0  0  2  0  0  0
  -20.6794  -26.9433   22.5391 C   0  0  0  0  0  0
  -19.5769  -26.6376   21.5207 C   0  0  0  0  0  0
  -18.1951  -26.7943   22.1614 C   0  0  0  0  0  0
  -19.1578  -28.8898   23.2818 C   0  0  0  0  0  0
  -18.9499  -30.1488   23.8854 C   0  0  0  0  0  0
  -17.6497  -30.6603   24.0557 C   0  0  0  0  0  0
  -25.9087  -34.9370   23.5024 C   0  0  0  0  0  0
  -16.5384  -29.9095   23.6349 C   0  0  0  0  0  0
  -16.7300  -28.6513   23.0367 C   0  0  0  0  0  0
  -26.4561  -31.6550   25.0711 C   0  0  0  0  0  0
  -25.3701  -31.3786   26.1377 C   0  0  0  0  0  0
  -27.0469  -30.2933   24.6406 C   0  0  0  0  0  0
  -27.6053  -32.4358   25.7509 C   0  0  0  0  0  0
  -27.5561  -37.1764   24.8475 C   0  0  0  0  0  0
  -21.4318  -29.3061   22.3546 N   0  0  0  0  0  0
  -26.4266  -37.3718   23.9423 N   0  0  0  0  0  0
  -24.7436  -31.0010   22.0867 N   0  0  0  0  0  0
  -23.4218  -28.8023   23.2985 O   0  0  0  0  0  0
  -28.2104  -25.8856   20.2524 O   0  0  0  0  0  0
  -26.5679  -34.8892   22.4608 O   0  0  0  0  0  0
  -23.5667  -32.1237   23.6880 O   0  0  0  0  0  0
  -28.5736  -20.1993   19.4842 C   0  0  0  0  0  0
  -29.3523  -22.2097   21.2036 C   0  0  0  0  0  0
  -29.3433  -19.6352   20.5712 C   0  0  0  0  0  0
  -28.2114  -21.6248   19.2802 C   0  0  0  0  0  0
  -28.5454  -22.7671   20.1391 C   0  0  0  0  0  0
  -29.7284  -20.7783   21.4099 C   0  0  0  0  0  0
  -29.9223  -17.6028   22.4821 C   0  0  0  0  0  0
  -29.2771  -16.2371   22.2263 C   0  0  0  0  0  0
  -29.4440  -17.9853   21.1057 C   0  0  2  0  0  0
  -27.3426  -21.9048   18.0657 C   0  0  0  0  0  0
  -30.8486  -21.3957   23.4698 C   0  0  0  0  0  0
  -27.8230  -24.3392   19.9722 C   0  0  0  0  0  0
  -29.6254  -16.3499   20.7824 N   0  0  0  0  0  0
  -30.4732  -20.4132   22.5128 O   0  0  0  0  0  0
  -31.4668  -12.9715   19.1692 H   0  0  0  0  0  0
  -30.5291  -11.8188   20.0659 H   0  0  0  0  0  0
  -29.8930  -11.7622   17.6358 H   0  0  0  0  0  0
  -29.5739  -13.4783   17.6574 H   0  0  0  0  0  0
  -28.0061  -11.2771   19.0227 H   0  0  0  0  0  0
  -27.4050  -12.4013   17.8301 H   0  0  0  0  0  0
  -27.5685  -14.2508   19.3830 H   0  0  0  0  0  0
  -28.8194  -12.3381   21.4063 H   0  0  0  0  0  0
  -28.2902  -13.9476   21.7674 H   0  0  0  0  0  0
  -25.2779   -9.5676   22.4768 H   0  0  0  0  0  0
  -24.0006   -7.4634   22.7478 H   0  0  0  0  0  0
  -21.0859   -8.8792   19.8956 H   0  0  0  0  0  0
  -22.3732  -10.9676   19.6167 H   0  0  0  0  0  0
  -21.2005   -7.6151   23.9723 H   0  0  0  0  0  0
  -21.1484   -6.0524   25.9082 H   0  0  0  0  0  0
  -22.0592   -2.7613   23.2850 H   0  0  0  0  0  0
  -22.4076  -11.9843   22.4817 H   0  0  0  0  0  0
  -21.1072  -13.1208   22.2657 H   0  0  0  0  0  0
  -24.6508  -15.8505   20.5417 H   0  0  0  0  0  0
  -26.2738  -15.6384   20.1203 H   0  0  0  0  0  0
  -26.7361  -32.5176   23.0915 H   0  0  0  0  0  0
  -25.0136  -33.9528   25.0272 H   0  0  0  0  0  0
  -22.7813  -31.2769   21.3582 H   0  0  0  0  0  0
  -23.3761  -35.9525   23.3287 H   0  0  0  0  0  0
  -24.3556  -36.8865   22.2066 H   0  0  0  0  0  0
  -23.7218  -37.6387   23.6705 H   0  0  0  0  0  0
  -26.2130  -31.3989   20.6209 H   0  0  0  0  0  0
  -26.9009  -30.7077   22.0508 H   0  0  0  0  0  0
  -28.1441  -28.6422   21.2789 H   0  0  0  0  0  0
  -25.8654  -25.7847   18.9826 H   0  0  0  0  0  0
  -23.9970  -27.2913   18.9489 H   0  0  0  0  0  0
  -23.8576  -30.5421   19.3912 H   0  0  0  0  0  0
  -22.8184  -29.2218   19.8283 H   0  0  0  0  0  0
  -25.1310  -36.1783   25.0801 H   0  0  0  0  0  0
  -21.0039  -28.3349   24.1308 H   0  0  0  0  0  0
  -20.5672  -26.2369   23.3630 H   0  0  0  0  0  0
  -21.6658  -26.7410   22.1202 H   0  0  0  0  0  0
  -19.6930  -25.6277   21.1267 H   0  0  0  0  0  0
  -19.6711  -27.3159   20.6717 H   0  0  0  0  0  0
  -17.4218  -26.6688   21.4018 H   0  0  0  0  0  0
  -18.0347  -26.0095   22.9019 H   0  0  0  0  0  0
  -19.7980  -30.7308   24.2204 H   0  0  0  0  0  0
  -17.5059  -31.6282   24.5163 H   0  0  0  0  0  0
  -15.5386  -30.2992   23.7705 H   0  0  0  0  0  0
  -15.8694  -28.0822   22.7120 H   0  0  0  0  0  0
  -24.5897  -30.7113   25.7694 H   0  0  0  0  0  0
  -24.8875  -32.2984   26.4692 H   0  0  0  0  0  0
  -25.7949  -30.9032   27.0228 H   0  0  0  0  0  0
  -26.3145  -29.6610   24.1375 H   0  0  0  0  0  0
  -27.4002  -29.7283   25.5043 H   0  0  0  0  0  0
  -27.9068  -30.4149   23.9816 H   0  0  0  0  0  0
  -27.2626  -33.3708   26.1952 H   0  0  0  0  0  0
  -28.3930  -32.6845   25.0384 H   0  0  0  0  0  0
  -28.0643  -31.8576   26.5536 H   0  0  0  0  0  0
  -28.2572  -38.0069   24.7515 H   0  0  0  0  0  0
  -28.1060  -36.2596   24.6300 H   0  0  0  0  0  0
  -27.2277  -37.1399   25.8879 H   0  0  0  0  0  0
  -20.9554  -29.8781   21.6713 H   0  0  0  0  0  0
  -26.0114  -38.2772   24.1450 H   0  0  0  0  0  0
  -28.1627  -19.4812   18.7883 H   0  0  0  0  0  0
  -29.6520  -22.9438   21.9347 H   0  0  0  0  0  0
  -31.0097  -17.5902   22.5728 H   0  0  0  0  0  0
  -29.4537  -18.1516   23.2994 H   0  0  0  0  0  0
  -28.2020  -16.2114   22.4236 H   0  0  0  0  0  0
  -29.7723  -15.4554   22.8089 H   0  0  0  0  0  0
  -28.3539  -18.0579   21.1914 H   0  0  0  0  0  0
  -27.1865  -21.0126   17.4592 H   0  0  0  0  0  0
  -27.8118  -22.6492   17.4224 H   0  0  0  0  0  0
  -26.3625  -22.2743   18.3686 H   0  0  0  0  0  0
  -31.4029  -20.9146   24.2753 H   0  0  0  0  0  0
  -29.9773  -21.8749   23.9183 H   0  0  0  0  0  0
  -31.5003  -22.1536   23.0333 H   0  0  0  0  0  0
  -26.8723  -24.2108   20.4899 H   0  0  0  0  0  0
  -27.5628  -24.3763   18.9168 H   0  0  0  0  0  0
  1 25  1  0  0  0
  1 30  2  0  0  0
  1 83  1  0  0  0
  2  3  1  0  0  0
  2 25  1  0  0  0
  2 85  1  0  0  0
  2 86  1  0  0  0
  3  4  1  0  0  0
  3 87  1  0  0  0
  3 88  1  0  0  0
  4  5  1  0  0  0
  4 89  1  0  0  0
  4 90  1  0  0  0
  5  6  1  0  0  0
  5 26  1  0  0  0
  5 91  1  0  0  0
  6 25  1  0  0  0
  6 92  1  0  0  0
  6 93  1  0  0  0
  7  8  2  0  0  0
  7 26  1  0  0  0
  7 29  1  0  0  0
  8  9  1  0  0  0
  8 22  1  0  0  0
  9 10  1  0  0  0
  9 27  2  0  0  0
 10 11  2  0  0  0
 10 15  1  0  0  0
 11 12  1  0  0  0
 11 94  1  0  0  0
 12 13  2  0  0  0
 12 95  1  0  0  0
 13 14  1  0  0  0
 13 31  1  0  0  0
 14 15  2  0  0  0
 14 96  1  0  0  0
 15 97  1  0  0  0
 16 17  2  0  0  0
 16 21  1  0  0  0
 16 31  1  0  0  0
 17 18  1  0  0  0
 17 98  1  0  0  0
 18 19  2  0  0  0
 18 99  1  0  0  0
 19 20  1  0  0  0
 19 24  1  0  0  0
 20 21  2  0  0  0
 20100  1  0  0  0
 21 23  1  0  0  0
 22 28  1  0  0  0
 22 32  2  0  0  0
 26 27  1  0  0  0
 28101  1  0  0  0
 28102  1  0  0  0
 29103  1  0  0  0
 29104  1  0  0  0
 33 34  1  0  0  0
 33 66  1  0  0  0
 33 70  2  0  0  0
 34 36  1  0  0  0
 34 59  1  0  0  0
 34105  1  0  0  0
 35 44  2  0  0  0
 35 45  1  0  0  0
 35 68  1  0  0  0
 36 56  1  0  0  0
 36106  1  0  0  0
 37 39  1  0  0  0
 37 47  1  0  0  0
 37 66  1  0  0  0
 37107  1  0  0  0
 38 43  2  0  0  0
 38 46  1  0  0  0
 38 47  1  0  0  0
 39 64  1  0  0  0
 39 67  2  0  0  0
 40 52  1  0  0  0
 40 53  2  0  0  0
 40 58  1  0  0  0
 41108  1  0  0  0
 41109  1  0  0  0
 41110  1  0  0  0
 41 48  1  0  0  0
 42 43  1  0  0  0
 42 66  1  0  0  0
 42111  1  0  0  0
 42112  1  0  0  0
 43 44  1  0  0  0
 44113  1  0  0  0
 45 46  2  0  0  0
 45114  1  0  0  0
 46115  1  0  0  0
 47116  1  0  0  0
 47117  1  0  0  0
 48 56  1  0  0  0
 48 65  1  0  0  0
 48118  1  0  0  0
 49 50  1  0  0  0
 49 53  1  0  0  0
 49 64  1  0  0  0
 49119  1  0  0  0
 50 51  1  0  0  0
 50120  1  0  0  0
 50121  1  0  0  0
 51 52  1  0  0  0
 51122  1  0  0  0
 51123  1  0  0  0
 52124  1  0  0  0
 52125  1  0  0  0
 53 54  1  0  0  0
 54 55  2  0  0  0
 54126  1  0  0  0
 55 57  1  0  0  0
 55127  1  0  0  0
 56 69  2  0  0  0
 57 58  2  0  0  0
 57128  1  0  0  0
 58129  1  0  0  0
 59 60  1  0  0  0
 59 61  1  0  0  0
 59 62  1  0  0  0
 60130  1  0  0  0
 60131  1  0  0  0
 60132  1  0  0  0
 61133  1  0  0  0
 61134  1  0  0  0
 61135  1  0  0  0
 62136  1  0  0  0
 62137  1  0  0  0
 62138  1  0  0  0
 63 65  1  0  0  0
 63139  1  0  0  0
 63140  1  0  0  0
 63141  1  0  0  0
 64142  1  0  0  0
 65143  1  0  0  0
 68 82  1  0  0  0
 71 73  2  0  0  0
 71 74  1  0  0  0
 71144  1  0  0  0
 72 75  1  0  0  0
 72 76  2  0  0  0
 72145  1  0  0  0
 73 76  1  0  0  0
 73 79  1  0  0  0
 74 75  2  0  0  0
 74 80  1  0  0  0
 75 82  1  0  0  0
 76 84  1  0  0  0
 77 78  1  0  0  0
 77 79  1  0  0  0
 77146  1  0  0  0
 77147  1  0  0  0
 78 83  1  0  0  0
 78148  1  0  0  0
 78149  1  0  0  0
 79 83  1  0  0  0
 79150  1  0  0  0
 80151  1  0  0  0
 80152  1  0  0  0
 80153  1  0  0  0
 81 84  1  0  0  0
 81154  1  0  0  0
 81155  1  0  0  0
 81156  1  0  0  0
 82157  1  0  0  0
 82158  1  0  0  0
M  ISO  4   1 100  68 101  82 101  83 100
M  END
> <chiral flag>
0

> <version>
0

> <s_m_source_file>
/data/baiqing/PycharmProjects/Reinvent-master-3.2/result/LINK_invent/BTK/process_docking_weight1_custom_sum_contain_oxygen_bond_distance_aromatic_linkinvent_7_9_3/rearranged_h_0114.sdf

> <i_m_source_file_index>
13

> <r_mmod_Potential_Energy-OPLS-2005>
1340.8193359375

> <r_mmod_Stretch_Energy-OPLS-2005>
471.803253173828

> <r_mmod_Bend_Energy-OPLS-2005>
593.026245117188

> <r_mmod_Torsional_Energy-OPLS-2005>
264.529174804688

> <r_mmod_Improper_Torsional_Energy-OPLS-2005>
15.4759683609009

> <r_mmod_Van_der_Waal_Energy-OPLS-2005>
157.684936523438

> <r_mmod_Electrostatic_Energy-OPLS-2005>
-318.602203369141

> <r_mmod_Solvation_Energy-OPLS-2005>
-211.638656616211

> <b_mmod_Minimization_Converged-OPLS-2005>
0

> <r_mmod_RMS_Derivative-OPLS-2005>
0.965832352638245

$$$$
13
                    3D
 Structure written by MMmdl.
156164  0  0  1  0            999 V2000
  -30.5260  -14.9650   20.4118 C   0  0  0  0  0  0
  -30.4384  -12.5999   19.4926 C   0  0  0  0  0  0
  -29.5227  -12.5363   18.2480 C   0  0  0  0  0  0
  -28.0534  -12.3199   18.6604 C   0  0  0  0  0  0
  -27.6257  -13.2471   19.8286 C   0  0  2  0  0  0
  -28.6672  -13.2830   20.9669 C   0  0  0  0  0  0
  -25.2461  -13.8207   20.5679 C   0  0  0  0  0  0
  -24.1782  -13.0439   20.9226 C   0  0  0  0  0  0
  -24.6386  -11.6929   20.8747 C   0  0  0  0  0  0
  -23.9072  -10.4301   21.0402 C   0  0  0  0  0  0
  -24.3633   -9.4216   21.9182 C   0  0  0  0  0  0
  -23.6309   -8.2248   22.0753 C   0  0  0  0  0  0
  -22.4293   -8.0284   21.3540 C   0  0  0  0  0  0
  -21.9926   -9.0253   20.4641 C   0  0  0  0  0  0
  -22.7245  -10.2132   20.3046 C   0  0  0  0  0  0
  -21.6853   -6.0740   22.5281 C   0  0  0  0  0  0
  -21.4015   -6.5640   23.8219 C   0  0  0  0  0  0
  -21.3665   -5.6788   24.9181 C   0  0  0  0  0  0
  -21.6038   -4.3050   24.7228 C   0  0  0  0  0  0
  -21.8825   -3.8150   23.4351 C   0  0  0  0  0  0
  -21.9203   -4.6968   22.3408 C   0  0  0  0  0  0
  -22.7813  -13.5211   21.1893 C   0  0  0  0  0  0
  -22.1675   -4.2153   21.0985 F   0  0  0  0  0  0
  -21.5642   -3.4538   25.7745 F   0  0  0  0  0  0
  -29.9396  -13.7001   20.3664 N   0  0  0  0  0  0
  -26.2867  -12.9428   20.3176 N   0  0  0  0  0  0
  -25.9306  -11.6569   20.5684 N   0  0  0  0  0  0
  -22.0469  -12.8189   22.0434 N   0  0  0  0  0  0
  -25.4142  -15.1942   20.4082 N   0  0  0  0  0  0
  -31.7354  -15.0298   20.1675 O   0  0  0  0  0  0
  -21.6651   -6.8883   21.4241 O   0  0  0  0  0  0
  -22.3500  -14.5523   20.6749 O   0  0  0  0  0  0
  -24.6473  -31.8408   23.1851 C   0  0  0  0  0  0
  -25.9235  -32.4668   23.8240 C   0  0  1  0  0  0
  -27.2190  -27.1109   20.1495 C   0  0  0  0  0  0
  -25.5970  -33.8475   24.2160 N   0  0  0  0  0  0
  -23.4508  -30.4599   21.5315 C   0  0  2  0  0  0
  -24.8984  -28.8783   20.1114 C   0  0  0  0  0  0
  -22.7586  -29.4538   22.4854 C   0  0  0  0  0  0
  -18.0318  -28.1396   22.8478 C   0  0  0  0  0  0
  -24.1495  -36.7255   23.2642 C   0  0  0  0  0  0
  -26.0080  -30.7057   21.3865 C   0  0  0  0  0  0
  -26.0773  -29.3138   20.7294 C   0  0  0  0  0  0
  -27.2368  -28.4465   20.7312 C   0  0  0  0  0  0
  -26.0132  -26.7836   19.4892 C   0  0  0  0  0  0
  -24.8806  -27.6269   19.4752 C   0  0  0  0  0  0
  -23.6772  -29.7857   20.1521 C   0  0  0  0  0  0
  -25.4127  -36.3021   24.0313 C   0  0  1  0  0  0
  -20.5936  -28.3727   23.1230 C   0  0  2  0  0  0
  -20.6792  -26.9424   22.5406 C   0  0  0  0  0  0
  -19.5758  -26.6376   21.5218 C   0  0  0  0  0  0
  -18.1944  -26.7929   22.1627 C   0  0  0  0  0  0
  -19.1572  -28.8881   23.2841 C   0  0  0  0  0  0
  -18.9481  -30.1483   23.8854 C   0  0  0  0  0  0
  -17.6474  -30.6584   24.0562 C   0  0  0  0  0  0
  -25.9086  -34.9395   23.5047 C   0  0  0  0  0  0
  -16.5372  -29.9070   23.6342 C   0  0  0  0  0  0
  -16.7303  -28.6500   23.0345 C   0  0  0  0  0  0
  -26.4540  -31.6545   25.0697 C   0  0  0  0  0  0
  -25.3716  -31.3739   26.1388 C   0  0  0  0  0  0
  -27.0404  -30.2932   24.6303 C   0  0  0  0  0  0
  -27.6040  -32.4320   25.7497 C   0  0  0  0  0  0
  -27.5584  -37.1793   24.8468 C   0  0  0  0  0  0
  -21.4282  -29.3049   22.3600 N   0  0  0  0  0  0
  -26.4288  -37.3742   23.9416 N   0  0  0  0  0  0
  -24.7223  -31.0241   22.0891 N   0  0  0  0  0  0
  -23.4215  -28.8092   23.3019 O   0  0  0  0  0  0
  -28.2676  -26.1136   20.2225 O   0  0  0  0  0  0
  -26.5671  -34.8897   22.4626 O   0  0  0  0  0  0
  -23.5589  -32.1287   23.7059 O   0  0  0  0  0  0
  -30.5172  -18.3412   19.1650 C   0  0  0  0  0  0
  -30.3683  -19.9215   19.2441 C   0  0  0  0  0  0
  -28.9391  -18.9130   20.7883 C   0  0  0  0  0  0
  -30.0339  -17.7170   20.4915 C   0  0  1  0  0  0
  -30.3237  -23.4742   19.5664 C   0  0  0  0  0  0
  -28.5495  -21.6096   20.1573 C   0  0  0  0  0  0
  -28.0014  -24.5787   20.0253 C   0  0  0  0  0  0
  -29.0150  -23.2427   20.3382 C   0  0  2  0  0  0
  -29.7332  -16.1481   20.5215 N   0  0  0  0  0  0
  -29.4792  -20.3193   20.3803 N   0  3  2  0  0  0
  -31.4738  -12.7604   19.1870 H   0  0  0  0  0  0
  -30.4282  -11.6489   20.0271 H   0  0  0  0  0  0
  -29.8457  -11.7398   17.5742 H   0  0  0  0  0  0
  -29.6092  -13.4696   17.6878 H   0  0  0  0  0  0
  -27.9431  -11.2772   18.9569 H   0  0  0  0  0  0
  -27.3962  -12.4583   17.8014 H   0  0  0  0  0  0
  -27.5849  -14.2476   19.3991 H   0  0  0  0  0  0
  -28.7600  -12.3089   21.4500 H   0  0  0  0  0  0
  -28.3581  -13.9858   21.7442 H   0  0  0  0  0  0
  -25.2784   -9.5700   22.4744 H   0  0  0  0  0  0
  -24.0039   -7.4631   22.7449 H   0  0  0  0  0  0
  -21.0875   -8.8755   19.8917 H   0  0  0  0  0  0
  -22.3710  -10.9675   19.6161 H   0  0  0  0  0  0
  -21.1982   -7.6146   23.9723 H   0  0  0  0  0  0
  -21.1494   -6.0520   25.9085 H   0  0  0  0  0  0
  -22.0594   -2.7613   23.2848 H   0  0  0  0  0  0
  -22.4104  -11.9862   22.4832 H   0  0  0  0  0  0
  -21.1068  -13.1162   22.2606 H   0  0  0  0  0  0
  -24.6381  -15.8412   20.4964 H   0  0  0  0  0  0
  -26.2412  -15.6253   20.0199 H   0  0  0  0  0  0
  -26.7299  -32.5258   23.0961 H   0  0  0  0  0  0
  -25.0110  -33.9563   25.0306 H   0  0  0  0  0  0
  -22.7564  -31.2881   21.3750 H   0  0  0  0  0  0
  -23.3760  -35.9585   23.3279 H   0  0  0  0  0  0
  -24.3592  -36.8915   22.2065 H   0  0  0  0  0  0
  -23.7239  -37.6440   23.6693 H   0  0  0  0  0  0
  -26.1685  -31.4590   20.6139 H   0  0  0  0  0  0
  -26.8772  -30.7545   22.0314 H   0  0  0  0  0  0
  -28.1324  -28.7750   21.2392 H   0  0  0  0  0  0
  -25.9133  -25.8294   18.9920 H   0  0  0  0  0  0
  -23.9814  -27.2924   18.9756 H   0  0  0  0  0  0
  -23.8139  -30.5569   19.3929 H   0  0  0  0  0  0
  -22.7909  -29.2297   19.8416 H   0  0  0  0  0  0
  -25.1316  -36.1846   25.0807 H   0  0  0  0  0  0
  -21.0025  -28.3314   24.1354 H   0  0  0  0  0  0
  -20.5690  -26.2344   23.3631 H   0  0  0  0  0  0
  -21.6655  -26.7412   22.1204 H   0  0  0  0  0  0
  -19.6911  -25.6279   21.1262 H   0  0  0  0  0  0
  -19.6682  -27.3175   20.6737 H   0  0  0  0  0  0
  -17.4218  -26.6692   21.4027 H   0  0  0  0  0  0
  -18.0326  -26.0076   22.9022 H   0  0  0  0  0  0
  -19.7959  -30.7324   24.2182 H   0  0  0  0  0  0
  -17.5023  -31.6256   24.5170 H   0  0  0  0  0  0
  -15.5367  -30.2949   23.7686 H   0  0  0  0  0  0
  -15.8710  -28.0810   22.7051 H   0  0  0  0  0  0
  -24.5889  -30.7097   25.7718 H   0  0  0  0  0  0
  -24.8917  -32.2921   26.4776 H   0  0  0  0  0  0
  -25.7998  -30.8933   27.0195 H   0  0  0  0  0  0
  -26.3027  -29.6648   24.1306 H   0  0  0  0  0  0
  -27.4003  -29.7240   25.4891 H   0  0  0  0  0  0
  -27.8942  -30.4157   23.9631 H   0  0  0  0  0  0
  -27.2595  -33.3621   26.2031 H   0  0  0  0  0  0
  -28.3876  -32.6892   25.0354 H   0  0  0  0  0  0
  -28.0685  -31.8487   26.5461 H   0  0  0  0  0  0
  -28.2586  -38.0105   24.7529 H   0  0  0  0  0  0
  -28.1091  -36.2636   24.6270 H   0  0  0  0  0  0
  -27.2310  -37.1417   25.8873 H   0  0  0  0  0  0
  -20.9509  -29.8771   21.6777 H   0  0  0  0  0  0
  -26.0153  -38.2818   24.1391 H   0  0  0  0  0  0
  -31.5403  -18.0466   18.9288 H   0  0  0  0  0  0
  -29.8910  -17.9700   18.3524 H   0  0  0  0  0  0
  -29.9750  -20.2996   18.2990 H   0  0  0  0  0  0
  -31.3451  -20.3870   19.3835 H   0  0  0  0  0  0
  -28.6345  -18.9194   21.8347 H   0  0  0  0  0  0
  -28.0386  -18.7183   20.2049 H   0  0  0  0  0  0
  -30.8358  -17.8546   21.2188 H   0  0  0  0  0  0
  -31.0950  -22.7644   19.8666 H   0  0  0  0  0  0
  -30.7168  -24.4715   19.7634 H   0  0  0  0  0  0
  -30.1768  -23.3810   18.4900 H   0  0  0  0  0  0
  -28.1094  -21.5059   19.1658 H   0  0  0  0  0  0
  -27.7079  -21.4740   20.8364 H   0  0  0  0  0  0
  -27.0727  -24.3721   20.5600 H   0  0  0  0  0  0
  -27.7371  -24.4845   18.9714 H   0  0  0  0  0  0
  -29.2705  -23.3348   21.3947 H   0  0  0  0  0  0
  -28.7557  -15.9351   20.6564 H   0  0  0  0  0  0
  -30.0930  -20.5667   21.1420 H   0  0  0  0  0  0
  1 25  1  0  0  0
  1 30  2  0  0  0
  1 79  1  0  0  0
  2  3  1  0  0  0
  2 25  1  0  0  0
  2 81  1  0  0  0
  2 82  1  0  0  0
  3  4  1  0  0  0
  3 83  1  0  0  0
  3 84  1  0  0  0
  4  5  1  0  0  0
  4 85  1  0  0  0
  4 86  1  0  0  0
  5  6  1  0  0  0
  5 26  1  0  0  0
  5 87  1  0  0  0
  6 25  1  0  0  0
  6 88  1  0  0  0
  6 89  1  0  0  0
  7  8  2  0  0  0
  7 26  1  0  0  0
  7 29  1  0  0  0
  8  9  1  0  0  0
  8 22  1  0  0  0
  9 10  1  0  0  0
  9 27  2  0  0  0
 10 11  2  0  0  0
 10 15  1  0  0  0
 11 12  1  0  0  0
 11 90  1  0  0  0
 12 13  2  0  0  0
 12 91  1  0  0  0
 13 14  1  0  0  0
 13 31  1  0  0  0
 14 15  2  0  0  0
 14 92  1  0  0  0
 15 93  1  0  0  0
 16 17  2  0  0  0
 16 21  1  0  0  0
 16 31  1  0  0  0
 17 18  1  0  0  0
 17 94  1  0  0  0
 18 19  2  0  0  0
 18 95  1  0  0  0
 19 20  1  0  0  0
 19 24  1  0  0  0
 20 21  2  0  0  0
 20 96  1  0  0  0
 21 23  1  0  0  0
 22 28  1  0  0  0
 22 32  2  0  0  0
 26 27  1  0  0  0
 28 97  1  0  0  0
 28 98  1  0  0  0
 29 99  1  0  0  0
 29100  1  0  0  0
 33 34  1  0  0  0
 33 66  1  0  0  0
 33 70  2  0  0  0
 34 36  1  0  0  0
 34 59  1  0  0  0
 34101  1  0  0  0
 35 44  2  0  0  0
 35 45  1  0  0  0
 35 68  1  0  0  0
 36 56  1  0  0  0
 36102  1  0  0  0
 37 39  1  0  0  0
 37 47  1  0  0  0
 37 66  1  0  0  0
 37103  1  0  0  0
 38 43  2  0  0  0
 38 46  1  0  0  0
 38 47  1  0  0  0
 39 64  1  0  0  0
 39 67  2  0  0  0
 40 52  1  0  0  0
 40 53  2  0  0  0
 40 58  1  0  0  0
 41104  1  0  0  0
 41105  1  0  0  0
 41106  1  0  0  0
 41 48  1  0  0  0
 42 43  1  0  0  0
 42 66  1  0  0  0
 42107  1  0  0  0
 42108  1  0  0  0
 43 44  1  0  0  0
 44109  1  0  0  0
 45 46  2  0  0  0
 45110  1  0  0  0
 46111  1  0  0  0
 47112  1  0  0  0
 47113  1  0  0  0
 48 56  1  0  0  0
 48 65  1  0  0  0
 48114  1  0  0  0
 49 50  1  0  0  0
 49 53  1  0  0  0
 49 64  1  0  0  0
 49115  1  0  0  0
 50 51  1  0  0  0
 50116  1  0  0  0
 50117  1  0  0  0
 51 52  1  0  0  0
 51118  1  0  0  0
 51119  1  0  0  0
 52120  1  0  0  0
 52121  1  0  0  0
 53 54  1  0  0  0
 54 55  2  0  0  0
 54122  1  0  0  0
 55 57  1  0  0  0
 55123  1  0  0  0
 56 69  2  0  0  0
 57 58  2  0  0  0
 57124  1  0  0  0
 58125  1  0  0  0
 59 60  1  0  0  0
 59 61  1  0  0  0
 59 62  1  0  0  0
 60126  1  0  0  0
 60127  1  0  0  0
 60128  1  0  0  0
 61129  1  0  0  0
 61130  1  0  0  0
 61131  1  0  0  0
 62132  1  0  0  0
 62133  1  0  0  0
 62134  1  0  0  0
 63 65  1  0  0  0
 63135  1  0  0  0
 63136  1  0  0  0
 63137  1  0  0  0
 64138  1  0  0  0
 65139  1  0  0  0
 68 77  1  0  0  0
 71 72  1  0  0  0
 71 74  1  0  0  0
 71140  1  0  0  0
 71141  1  0  0  0
 72 80  1  0  0  0
 72142  1  0  0  0
 72143  1  0  0  0
 73 74  1  0  0  0
 73 80  1  0  0  0
 73144  1  0  0  0
 73145  1  0  0  0
 74 79  1  0  0  0
 74146  1  0  0  0
 75147  1  0  0  0
 75148  1  0  0  0
 75149  1  0  0  0
 75 78  1  0  0  0
 76 78  1  0  0  0
 76150  1  0  0  0
 76151  1  0  0  0
 76 80  1  0  0  0
 77 78  1  0  0  0
 77152  1  0  0  0
 77153  1  0  0  0
 78154  1  0  0  0
 79155  1  0  0  0
 80156  1  0  0  0
M  CHG  1  80   1
M  ISO  4   1 100  68 101  77 101  79 100
M  END
> <chiral flag>
0

> <version>
0

> <s_m_source_file>
/data/baiqing/PycharmProjects/Reinvent-master-3.2/result/LINK_invent/BTK/process_docking_weight1_custom_sum_contain_oxygen_bond_distance_aromatic_linkinvent_7_9_3/rearranged_h_0114.sdf

> <i_m_source_file_index>
14

> <r_mmod_Potential_Energy-OPLS-2005>
458.321228027344

> <r_mmod_Stretch_Energy-OPLS-2005>
281.261505126953

> <r_mmod_Bend_Energy-OPLS-2005>
301.851470947266

> <r_mmod_Torsional_Energy-OPLS-2005>
271.607025146484

> <r_mmod_Improper_Torsional_Energy-OPLS-2005>
4.61189556121826

> <r_mmod_Van_der_Waal_Energy-OPLS-2005>
106.393218994141

> <r_mmod_Electrostatic_Energy-OPLS-2005>
-248.295761108398

> <r_mmod_Solvation_Energy-OPLS-2005>
-469.586517333984

> <b_mmod_Minimization_Converged-OPLS-2005>
0

> <r_mmod_RMS_Derivative-OPLS-2005>
2.2182502746582

$$$$
14
                    3D
 Structure written by MMmdl.
157165  0  0  1  0            999 V2000
  -30.4320  -15.3870   20.3456 C   0  0  0  0  0  0
  -30.4426  -12.9009   19.5350 C   0  0  0  0  0  0
  -29.5425  -12.5936   18.3091 C   0  0  0  0  0  0
  -28.1006  -12.2928   18.7475 C   0  0  0  0  0  0
  -27.6095  -13.2905   19.8233 C   0  0  2  0  0  0
  -28.6411  -13.5380   20.9494 C   0  0  0  0  0  0
  -25.2360  -13.8279   20.5798 C   0  0  0  0  0  0
  -24.1739  -13.0457   20.9277 C   0  0  0  0  0  0
  -24.6401  -11.6955   20.8772 C   0  0  0  0  0  0
  -23.9110  -10.4300   21.0395 C   0  0  0  0  0  0
  -24.3645   -9.4204   21.9165 C   0  0  0  0  0  0
  -23.6310   -8.2247   22.0746 C   0  0  0  0  0  0
  -22.4288   -8.0280   21.3537 C   0  0  0  0  0  0
  -21.9934   -9.0252   20.4634 C   0  0  0  0  0  0
  -22.7275  -10.2128   20.3033 C   0  0  0  0  0  0
  -21.6854   -6.0730   22.5262 C   0  0  0  0  0  0
  -21.4017   -6.5633   23.8198 C   0  0  0  0  0  0
  -21.3655   -5.6780   24.9157 C   0  0  0  0  0  0
  -21.6049   -4.3045   24.7206 C   0  0  0  0  0  0
  -21.8825   -3.8134   23.4320 C   0  0  0  0  0  0
  -21.9199   -4.6963   22.3383 C   0  0  0  0  0  0
  -22.7734  -13.5172   21.1902 C   0  0  0  0  0  0
  -22.1666   -4.2154   21.0959 F   0  0  0  0  0  0
  -21.5636   -3.4520   25.7708 F   0  0  0  0  0  0
  -29.8633  -14.0680   20.3142 N   0  0  0  0  0  0
  -26.2822  -12.9588   20.3268 N   0  0  0  0  0  0
  -25.9353  -11.6680   20.5751 N   0  0  0  0  0  0
  -22.0415  -12.8143   22.0457 N   0  0  0  0  0  0
  -25.3991  -15.2015   20.4227 N   0  0  0  0  0  0
  -31.6505  -15.3495   20.1161 O   0  0  0  0  0  0
  -21.6649   -6.8877   21.4224 O   0  0  0  0  0  0
  -22.3401  -14.5468   20.6729 O   0  0  0  0  0  0
  -24.6649  -31.8115   23.1626 C   0  0  0  0  0  0
  -25.9310  -32.4504   23.8091 C   0  0  1  0  0  0
  -27.2353  -26.8785   20.1464 C   0  0  0  0  0  0
  -25.5968  -33.8325   24.1989 N   0  0  0  0  0  0
  -23.4830  -30.4249   21.5113 C   0  0  2  0  0  0
  -24.9388  -28.8014   20.0959 C   0  0  0  0  0  0
  -22.7658  -29.4411   22.4733 C   0  0  0  0  0  0
  -18.0313  -28.1418   22.8476 C   0  0  0  0  0  0
  -24.1494  -36.7205   23.2656 C   0  0  0  0  0  0
  -26.0557  -30.5943   21.4071 C   0  0  0  0  0  0
  -26.1207  -29.1830   20.7431 C   0  0  0  0  0  0
  -27.2504  -28.2384   20.7549 C   0  0  0  0  0  0
  -26.0328  -26.6777   19.4225 C   0  0  0  0  0  0
  -24.9250  -27.5697   19.4180 C   0  0  0  0  0  0
  -23.7261  -29.7372   20.1364 C   0  0  0  0  0  0
  -25.4128  -36.2899   24.0279 C   0  0  1  0  0  0
  -20.5942  -28.3767   23.1196 C   0  0  2  0  0  0
  -20.6784  -26.9447   22.5411 C   0  0  0  0  0  0
  -19.5758  -26.6372   21.5226 C   0  0  0  0  0  0
  -18.1939  -26.7956   22.1615 C   0  0  0  0  0  0
  -19.1580  -28.8918   23.2820 C   0  0  0  0  0  0
  -18.9488  -30.1510   23.8854 C   0  0  0  0  0  0
  -17.6478  -30.6603   24.0572 C   0  0  0  0  0  0
  -25.9095  -34.9295   23.4948 C   0  0  0  0  0  0
  -16.5371  -29.9087   23.6352 C   0  0  0  0  0  0
  -16.7295  -28.6507   23.0363 C   0  0  0  0  0  0
  -26.4558  -31.6480   25.0645 C   0  0  0  0  0  0
  -25.3686  -31.3742   26.1303 C   0  0  0  0  0  0
  -27.0492  -30.2849   24.6424 C   0  0  0  0  0  0
  -27.6032  -32.4323   25.7438 C   0  0  0  0  0  0
  -27.5549  -37.1748   24.8469 C   0  0  0  0  0  0
  -21.4321  -29.3055   22.3528 N   0  0  0  0  0  0
  -26.4254  -37.3650   23.9411 N   0  0  0  0  0  0
  -24.7563  -30.9722   22.0792 N   0  0  0  0  0  0
  -23.4192  -28.8012   23.3008 O   0  0  0  0  0  0
  -28.2168  -25.7385   20.2890 O   0  0  0  0  0  0
  -26.5715  -34.8864   22.4553 O   0  0  0  0  0  0
  -23.5698  -32.1116   23.6656 O   0  0  0  0  0  0
  -29.0368  -21.1848   19.5589 C   0  0  0  0  0  0
  -28.8843  -22.0215   21.5050 C   0  0  0  0  0  0
  -28.7224  -22.5406   20.2308 C   0  0  0  0  0  0
  -29.3597  -19.9732   20.3283 C   0  0  0  0  0  0
  -29.0775  -24.4427   18.4010 C   0  0  0  0  0  0
  -28.2588  -19.3680   23.4217 C   0  0  0  0  0  0
  -30.2703  -20.8480   23.8689 C   0  0  0  0  0  0
  -30.0181  -18.3304   20.0478 C   0  0  0  0  0  0
  -28.2312  -24.1881   19.6614 C   0  0  2  0  0  0
  -29.5572  -19.9431   22.8457 C   0  0  0  0  0  0
  -29.2812  -20.6294   21.5809 N   0  0  0  0  0  0
  -29.7056  -16.7058   20.4275 N   0  0  0  0  0  0
  -31.4481  -13.1254   19.1758 H   0  0  0  0  0  0
  -30.5572  -12.0244   20.1746 H   0  0  0  0  0  0
  -29.9488  -11.7538   17.7442 H   0  0  0  0  0  0
  -29.5450  -13.4495   17.6323 H   0  0  0  0  0  0
  -28.0857  -11.2819   19.1570 H   0  0  0  0  0  0
  -27.4274  -12.2842   17.8900 H   0  0  0  0  0  0
  -27.5009  -14.2373   19.2904 H   0  0  0  0  0  0
  -28.8386  -12.6342   21.5268 H   0  0  0  0  0  0
  -28.2572  -14.2783   21.6538 H   0  0  0  0  0  0
  -25.2804   -9.5673   22.4732 H   0  0  0  0  0  0
  -24.0020   -7.4630   22.7453 H   0  0  0  0  0  0
  -21.0876   -8.8747   19.8928 H   0  0  0  0  0  0
  -22.3726  -10.9651   19.6126 H   0  0  0  0  0  0
  -21.2002   -7.6139   23.9699 H   0  0  0  0  0  0
  -21.1481   -6.0508   25.9062 H   0  0  0  0  0  0
  -22.0618   -2.7603   23.2803 H   0  0  0  0  0  0
  -22.4100  -11.9823   22.4843 H   0  0  0  0  0  0
  -21.1003  -13.1088   22.2679 H   0  0  0  0  0  0
  -24.6287  -15.8516   20.5301 H   0  0  0  0  0  0
  -26.2418  -15.6400   20.0774 H   0  0  0  0  0  0
  -26.7364  -32.4969   23.0778 H   0  0  0  0  0  0
  -25.0086  -33.9419   25.0112 H   0  0  0  0  0  0
  -22.7997  -31.2600   21.3347 H   0  0  0  0  0  0
  -23.3713  -35.9576   23.3263 H   0  0  0  0  0  0
  -24.3589  -36.8903   22.2084 H   0  0  0  0  0  0
  -23.7305  -37.6401   23.6757 H   0  0  0  0  0  0
  -26.2567  -31.3365   20.6344 H   0  0  0  0  0  0
  -26.9072  -30.6355   22.0728 H   0  0  0  0  0  0
  -28.1323  -28.5225   21.3101 H   0  0  0  0  0  0
  -25.9010  -25.7549   18.8779 H   0  0  0  0  0  0
  -24.0329  -27.2755   18.8808 H   0  0  0  0  0  0
  -23.8958  -30.5097   19.3849 H   0  0  0  0  0  0
  -22.8290  -29.2116   19.8031 H   0  0  0  0  0  0
  -25.1335  -36.1638   25.0767 H   0  0  0  0  0  0
  -21.0047  -28.3349   24.1309 H   0  0  0  0  0  0
  -20.5684  -26.2380   23.3647 H   0  0  0  0  0  0
  -21.6646  -26.7416   22.1215 H   0  0  0  0  0  0
  -19.6928  -25.6274   21.1272 H   0  0  0  0  0  0
  -19.6691  -27.3180   20.6761 H   0  0  0  0  0  0
  -17.4214  -26.6727   21.4008 H   0  0  0  0  0  0
  -18.0320  -26.0107   22.9019 H   0  0  0  0  0  0
  -19.7963  -30.7349   24.2182 H   0  0  0  0  0  0
  -17.5018  -31.6285   24.5183 H   0  0  0  0  0  0
  -15.5368  -30.2967   23.7720 H   0  0  0  0  0  0
  -15.8687  -28.0815   22.7096 H   0  0  0  0  0  0
  -24.5894  -30.7061   25.7637 H   0  0  0  0  0  0
  -24.8860  -32.2945   26.4596 H   0  0  0  0  0  0
  -25.7933  -30.8999   27.0156 H   0  0  0  0  0  0
  -26.3178  -29.6489   24.1435 H   0  0  0  0  0  0
  -27.4046  -29.7251   25.5084 H   0  0  0  0  0  0
  -27.9098  -30.4074   23.9849 H   0  0  0  0  0  0
  -27.2582  -33.3683   26.1846 H   0  0  0  0  0  0
  -28.3918  -32.6771   25.0314 H   0  0  0  0  0  0
  -28.0607  -31.8543   26.5482 H   0  0  0  0  0  0
  -28.2524  -38.0076   24.7462 H   0  0  0  0  0  0
  -28.1058  -36.2584   24.6300 H   0  0  0  0  0  0
  -27.2275  -37.1406   25.8877 H   0  0  0  0  0  0
  -20.9552  -29.8739   21.6663 H   0  0  0  0  0  0
  -26.0047  -38.2684   24.1413 H   0  0  0  0  0  0
  -29.0586  -21.1120   18.4794 H   0  0  0  0  0  0
  -28.7627  -22.5735   22.4265 H   0  0  0  0  0  0
  -30.0908  -24.7380   18.6784 H   0  0  0  0  0  0
  -28.6622  -25.2343   17.7781 H   0  0  0  0  0  0
  -29.1640  -23.5524   17.7770 H   0  0  0  0  0  0
  -28.4233  -18.8972   24.3908 H   0  0  0  0  0  0
  -27.8350  -18.6147   22.7577 H   0  0  0  0  0  0
  -27.5142  -20.1522   23.5597 H   0  0  0  0  0  0
  -30.7126  -20.2569   24.6721 H   0  0  0  0  0  0
  -29.5790  -21.5511   24.3329 H   0  0  0  0  0  0
  -31.0749  -21.4218   23.4074 H   0  0  0  0  0  0
  -31.0633  -18.4211   20.3455 H   0  0  0  0  0  0
  -30.0888  -18.2724   18.9615 H   0  0  0  0  0  0
  -27.2099  -24.0145   19.3208 H   0  0  0  0  0  0
  -30.2372  -19.1160   22.6352 H   0  0  0  0  0  0
  -28.7324  -16.5650   20.6530 H   0  0  0  0  0  0
  1 25  1  0  0  0
  1 30  2  0  0  0
  1 82  1  0  0  0
  2  3  1  0  0  0
  2 25  1  0  0  0
  2 83  1  0  0  0
  2 84  1  0  0  0
  3  4  1  0  0  0
  3 85  1  0  0  0
  3 86  1  0  0  0
  4  5  1  0  0  0
  4 87  1  0  0  0
  4 88  1  0  0  0
  5  6  1  0  0  0
  5 26  1  0  0  0
  5 89  1  0  0  0
  6 25  1  0  0  0
  6 90  1  0  0  0
  6 91  1  0  0  0
  7  8  2  0  0  0
  7 26  1  0  0  0
  7 29  1  0  0  0
  8  9  1  0  0  0
  8 22  1  0  0  0
  9 10  1  0  0  0
  9 27  2  0  0  0
 10 11  2  0  0  0
 10 15  1  0  0  0
 11 12  1  0  0  0
 11 92  1  0  0  0
 12 13  2  0  0  0
 12 93  1  0  0  0
 13 14  1  0  0  0
 13 31  1  0  0  0
 14 15  2  0  0  0
 14 94  1  0  0  0
 15 95  1  0  0  0
 16 17  2  0  0  0
 16 21  1  0  0  0
 16 31  1  0  0  0
 17 18  1  0  0  0
 17 96  1  0  0  0
 18 19  2  0  0  0
 18 97  1  0  0  0
 19 20  1  0  0  0
 19 24  1  0  0  0
 20 21  2  0  0  0
 20 98  1  0  0  0
 21 23  1  0  0  0
 22 28  1  0  0  0
 22 32  2  0  0  0
 26 27  1  0  0  0
 28 99  1  0  0  0
 28100  1  0  0  0
 29101  1  0  0  0
 29102  1  0  0  0
 33 34  1  0  0  0
 33 66  1  0  0  0
 33 70  2  0  0  0
 34 36  1  0  0  0
 34 59  1  0  0  0
 34103  1  0  0  0
 35 44  2  0  0  0
 35 45  1  0  0  0
 35 68  1  0  0  0
 36 56  1  0  0  0
 36104  1  0  0  0
 37 39  1  0  0  0
 37 47  1  0  0  0
 37 66  1  0  0  0
 37105  1  0  0  0
 38 43  2  0  0  0
 38 46  1  0  0  0
 38 47  1  0  0  0
 39 64  1  0  0  0
 39 67  2  0  0  0
 40 52  1  0  0  0
 40 53  2  0  0  0
 40 58  1  0  0  0
 41106  1  0  0  0
 41107  1  0  0  0
 41108  1  0  0  0
 41 48  1  0  0  0
 42 43  1  0  0  0
 42 66  1  0  0  0
 42109  1  0  0  0
 42110  1  0  0  0
 43 44  1  0  0  0
 44111  1  0  0  0
 45 46  2  0  0  0
 45112  1  0  0  0
 46113  1  0  0  0
 47114  1  0  0  0
 47115  1  0  0  0
 48 56  1  0  0  0
 48 65  1  0  0  0
 48116  1  0  0  0
 49 50  1  0  0  0
 49 53  1  0  0  0
 49 64  1  0  0  0
 49117  1  0  0  0
 50 51  1  0  0  0
 50118  1  0  0  0
 50119  1  0  0  0
 51 52  1  0  0  0
 51120  1  0  0  0
 51121  1  0  0  0
 52122  1  0  0  0
 52123  1  0  0  0
 53 54  1  0  0  0
 54 55  2  0  0  0
 54124  1  0  0  0
 55 57  1  0  0  0
 55125  1  0  0  0
 56 69  2  0  0  0
 57 58  2  0  0  0
 57126  1  0  0  0
 58127  1  0  0  0
 59 60  1  0  0  0
 59 61  1  0  0  0
 59 62  1  0  0  0
 60128  1  0  0  0
 60129  1  0  0  0
 60130  1  0  0  0
 61131  1  0  0  0
 61132  1  0  0  0
 61133  1  0  0  0
 62134  1  0  0  0
 62135  1  0  0  0
 62136  1  0  0  0
 63 65  1  0  0  0
 63137  1  0  0  0
 63138  1  0  0  0
 63139  1  0  0  0
 64140  1  0  0  0
 65141  1  0  0  0
 68 79  1  0  0  0
 71 73  1  0  0  0
 71 74  2  0  0  0
 71142  1  0  0  0
 72 73  2  0  0  0
 72 81  1  0  0  0
 72143  1  0  0  0
 73 79  1  0  0  0
 74 78  1  0  0  0
 74 81  1  0  0  0
 75144  1  0  0  0
 75145  1  0  0  0
 75146  1  0  0  0
 75 79  1  0  0  0
 76147  1  0  0  0
 76148  1  0  0  0
 76149  1  0  0  0
 76 80  1  0  0  0
 77 80  1  0  0  0
 77150  1  0  0  0
 77151  1  0  0  0
 77152  1  0  0  0
 78 82  1  0  0  0
 78153  1  0  0  0
 78154  1  0  0  0
 79155  1  0  0  0
 80 81  1  0  0  0
 80156  1  0  0  0
 82157  1  0  0  0
M  ISO  4   1 100  68 101  79 101  82 100
M  END
> <chiral flag>
0

> <version>
0

> <s_m_source_file>
/data/baiqing/PycharmProjects/Reinvent-master-3.2/result/LINK_invent/BTK/process_docking_weight1_custom_sum_contain_oxygen_bond_distance_aromatic_linkinvent_7_9_3/rearranged_h_0114.sdf

> <i_m_source_file_index>
15

> <r_mmod_Potential_Energy-OPLS-2005>
1453.90441894531

> <r_mmod_Stretch_Energy-OPLS-2005>
667.844543457031

> <r_mmod_Bend_Energy-OPLS-2005>
492.136260986328

> <r_mmod_Torsional_Energy-OPLS-2005>
247.650054931641

> <r_mmod_Improper_Torsional_Energy-OPLS-2005>
6.04667806625366

> <r_mmod_Van_der_Waal_Energy-OPLS-2005>
105.63272857666

> <r_mmod_Electrostatic_Energy-OPLS-2005>
-427.862335205078

> <r_mmod_Solvation_Energy-OPLS-2005>
-211.377182006836

> <b_mmod_Minimization_Converged-OPLS-2005>
0

> <r_mmod_RMS_Derivative-OPLS-2005>
4.03466272354126

$$$$
15
                    3D
 Structure written by MMmdl.
152160  0  0  1  0            999 V2000
  -30.4872  -15.2334   20.4013 C   0  0  0  0  0  0
  -30.4488  -12.7949   19.5157 C   0  0  0  0  0  0
  -29.5297  -12.5639   18.2891 C   0  0  0  0  0  0
  -28.0816  -12.2822   18.7245 C   0  0  0  0  0  0
  -27.6176  -13.2560   19.8333 C   0  0  2  0  0  0
  -28.6672  -13.3932   20.9633 C   0  0  0  0  0  0
  -25.2322  -13.8164   20.5688 C   0  0  0  0  0  0
  -24.1700  -13.0368   20.9289 C   0  0  0  0  0  0
  -24.6371  -11.6892   20.8812 C   0  0  0  0  0  0
  -23.9064  -10.4265   21.0429 C   0  0  0  0  0  0
  -24.3610   -9.4181   21.9204 C   0  0  0  0  0  0
  -23.6292   -8.2214   22.0745 C   0  0  0  0  0  0
  -22.4277   -8.0260   21.3526 C   0  0  0  0  0  0
  -21.9914   -9.0236   20.4631 C   0  0  0  0  0  0
  -22.7241  -10.2123   20.3065 C   0  0  0  0  0  0
  -21.6855   -6.0722   22.5262 C   0  0  0  0  0  0
  -21.4012   -6.5630   23.8193 C   0  0  0  0  0  0
  -21.3652   -5.6786   24.9161 C   0  0  0  0  0  0
  -21.6042   -4.3047   24.7212 C   0  0  0  0  0  0
  -21.8827   -3.8136   23.4335 C   0  0  0  0  0  0
  -21.9193   -4.6949   22.3389 C   0  0  0  0  0  0
  -22.7716  -13.5141   21.1935 C   0  0  0  0  0  0
  -22.1663   -4.2132   21.0968 F   0  0  0  0  0  0
  -21.5628   -3.4535   25.7727 F   0  0  0  0  0  0
  -29.8942  -13.9337   20.3385 N   0  0  0  0  0  0
  -26.2822  -12.9450   20.3291 N   0  0  0  0  0  0
  -25.9319  -11.6573   20.5827 N   0  0  0  0  0  0
  -22.0364  -12.8128   22.0496 N   0  0  0  0  0  0
  -25.3728  -15.1873   20.3920 N   0  0  0  0  0  0
  -31.7001  -15.2063   20.1417 O   0  0  0  0  0  0
  -21.6638   -6.8862   21.4220 O   0  0  0  0  0  0
  -22.3400  -14.5456   20.6797 O   0  0  0  0  0  0
  -24.6613  -31.8249   23.1724 C   0  0  0  0  0  0
  -25.9318  -32.4568   23.8163 C   0  0  1  0  0  0
  -27.2179  -26.9707   20.1673 C   0  0  0  0  0  0
  -25.5999  -33.8386   24.2050 N   0  0  0  0  0  0
  -23.4705  -30.4415   21.5207 C   0  0  2  0  0  0
  -24.9211  -28.8375   20.1087 C   0  0  0  0  0  0
  -22.7644  -29.4457   22.4782 C   0  0  0  0  0  0
  -18.0323  -28.1394   22.8474 C   0  0  0  0  0  0
  -24.1493  -36.7208   23.2648 C   0  0  0  0  0  0
  -26.0392  -30.6437   21.3971 C   0  0  0  0  0  0
  -26.1056  -29.2405   20.7387 C   0  0  0  0  0  0
  -27.2484  -28.3267   20.7470 C   0  0  0  0  0  0
  -26.0025  -26.7122   19.4899 C   0  0  0  0  0  0
  -24.8922  -27.5910   19.4668 C   0  0  0  0  0  0
  -23.7056  -29.7610   20.1451 C   0  0  0  0  0  0
  -25.4121  -36.2935   24.0294 C   0  0  1  0  0  0
  -20.5943  -28.3730   23.1198 C   0  0  2  0  0  0
  -20.6799  -26.9415   22.5397 C   0  0  0  0  0  0
  -19.5771  -26.6363   21.5210 C   0  0  0  0  0  0
  -18.1950  -26.7933   22.1615 C   0  0  0  0  0  0
  -19.1585  -28.8885   23.2827 C   0  0  0  0  0  0
  -18.9503  -30.1479   23.8844 C   0  0  0  0  0  0
  -17.6497  -30.6591   24.0551 C   0  0  0  0  0  0
  -25.9100  -34.9331   23.4983 C   0  0  0  0  0  0
  -16.5386  -29.9073   23.6354 C   0  0  0  0  0  0
  -16.7305  -28.6496   23.0369 C   0  0  0  0  0  0
  -26.4571  -31.6519   25.0693 C   0  0  0  0  0  0
  -25.3710  -31.3805   26.1366 C   0  0  0  0  0  0
  -27.0488  -30.2882   24.6443 C   0  0  0  0  0  0
  -27.6030  -32.4365   25.7502 C   0  0  0  0  0  0
  -27.5554  -37.1748   24.8463 C   0  0  0  0  0  0
  -21.4314  -29.3046   22.3552 N   0  0  0  0  0  0
  -26.4253  -37.3677   23.9419 N   0  0  0  0  0  0
  -24.7442  -30.9965   22.0830 N   0  0  0  0  0  0
  -23.4222  -28.8020   23.2999 O   0  0  0  0  0  0
  -28.2180  -25.8760   20.2476 O   0  0  0  0  0  0
  -26.5701  -34.8880   22.4573 O   0  0  0  0  0  0
  -23.5688  -32.1211   23.6838 O   0  0  0  0  0  0
  -29.0324  -20.4678   21.3921 C   0  0  0  0  0  0
  -28.6214  -21.8910   21.3648 C   0  0  0  0  0  0
  -29.5094  -19.6896   20.2598 C   0  0  0  0  0  0
  -28.6548  -22.7725   20.2122 C   0  0  0  0  0  0
  -29.4846  -20.6368   19.1457 C   0  0  0  0  0  0
  -29.9422  -20.1354   17.7901 C   0  0  0  0  0  0
  -28.4666  -16.5923   21.1301 C   0  0  0  0  0  0
  -30.2454  -18.1043   20.2449 C   0  0  0  0  0  0
  -27.8559  -24.3065   20.0198 C   0  0  0  0  0  0
  -29.0889  -22.0052   19.1292 N   0  0  0  0  0  0
  -29.7794  -16.5445   20.5054 N   0  0  0  0  0  0
  -31.4587  -13.0041   19.1594 H   0  0  0  0  0  0
  -30.5436  -11.8884   20.1161 H   0  0  0  0  0  0
  -29.9080  -11.7402   17.6824 H   0  0  0  0  0  0
  -29.5490  -13.4502   17.6537 H   0  0  0  0  0  0
  -28.0417  -11.2584   19.0992 H   0  0  0  0  0  0
  -27.4083  -12.3190   17.8673 H   0  0  0  0  0  0
  -27.5387  -14.2177   19.3280 H   0  0  0  0  0  0
  -28.8459  -12.4292   21.4422 H   0  0  0  0  0  0
  -28.3123  -14.0416   21.7620 H   0  0  0  0  0  0
  -25.2728   -9.5675   22.4809 H   0  0  0  0  0  0
  -23.9987   -7.4599   22.7456 H   0  0  0  0  0  0
  -21.0848   -8.8764   19.8925 H   0  0  0  0  0  0
  -22.3682  -10.9681   19.6198 H   0  0  0  0  0  0
  -21.2014   -7.6137   23.9692 H   0  0  0  0  0  0
  -21.1465   -6.0515   25.9058 H   0  0  0  0  0  0
  -22.0620   -2.7599   23.2839 H   0  0  0  0  0  0
  -22.3988  -11.9825   22.4936 H   0  0  0  0  0  0
  -21.0965  -13.1129   22.2672 H   0  0  0  0  0  0
  -24.5864  -15.8205   20.4904 H   0  0  0  0  0  0
  -26.1946  -15.6336   20.0083 H   0  0  0  0  0  0
  -26.7385  -32.5103   23.0872 H   0  0  0  0  0  0
  -25.0141  -33.9453   25.0198 H   0  0  0  0  0  0
  -22.7824  -31.2732   21.3542 H   0  0  0  0  0  0
  -23.3743  -35.9555   23.3256 H   0  0  0  0  0  0
  -24.3580  -36.8902   22.2075 H   0  0  0  0  0  0
  -23.7270  -37.6388   23.6745 H   0  0  0  0  0  0
  -26.2220  -31.3857   20.6190 H   0  0  0  0  0  0
  -26.9001  -30.6897   22.0529 H   0  0  0  0  0  0
  -28.1423  -28.6291   21.2740 H   0  0  0  0  0  0
  -25.8651  -25.7645   18.9922 H   0  0  0  0  0  0
  -23.9918  -27.2743   18.9577 H   0  0  0  0  0  0
  -23.8553  -30.5320   19.3887 H   0  0  0  0  0  0
  -22.8156  -29.2159   19.8259 H   0  0  0  0  0  0
  -25.1312  -36.1695   25.0781 H   0  0  0  0  0  0
  -21.0046  -28.3327   24.1313 H   0  0  0  0  0  0
  -20.5684  -26.2343   23.3630 H   0  0  0  0  0  0
  -21.6659  -26.7394   22.1194 H   0  0  0  0  0  0
  -19.6932  -25.6266   21.1262 H   0  0  0  0  0  0
  -19.6706  -27.3159   20.6734 H   0  0  0  0  0  0
  -17.4219  -26.6695   21.4014 H   0  0  0  0  0  0
  -18.0332  -26.0068   22.9006 H   0  0  0  0  0  0
  -19.7983  -30.7319   24.2166 H   0  0  0  0  0  0
  -17.5049  -31.6266   24.5158 H   0  0  0  0  0  0
  -15.5382  -30.2959   23.7710 H   0  0  0  0  0  0
  -15.8703  -28.0794   22.7115 H   0  0  0  0  0  0
  -24.5876  -30.7158   25.7698 H   0  0  0  0  0  0
  -24.8944  -32.3043   26.4667 H   0  0  0  0  0  0
  -25.7950  -30.9054   27.0225 H   0  0  0  0  0  0
  -26.3185  -29.6539   24.1412 H   0  0  0  0  0  0
  -27.3985  -29.7243   25.5103 H   0  0  0  0  0  0
  -27.9112  -30.4050   23.9878 H   0  0  0  0  0  0
  -27.2541  -33.3703   26.1928 H   0  0  0  0  0  0
  -28.3914  -32.6882   25.0395 H   0  0  0  0  0  0
  -28.0625  -31.8626   26.5559 H   0  0  0  0  0  0
  -28.2523  -38.0088   24.7501 H   0  0  0  0  0  0
  -28.1089  -36.2607   24.6264 H   0  0  0  0  0  0
  -27.2294  -37.1352   25.8875 H   0  0  0  0  0  0
  -20.9547  -29.8744   21.6694 H   0  0  0  0  0  0
  -26.0077  -38.2719   24.1451 H   0  0  0  0  0  0
  -28.9810  -19.9618   22.3455 H   0  0  0  0  0  0
  -28.2303  -22.3093   22.2820 H   0  0  0  0  0  0
  -31.0236  -20.0019   17.7778 H   0  0  0  0  0  0
  -29.6766  -20.8210   16.9853 H   0  0  0  0  0  0
  -29.4769  -19.1758   17.5668 H   0  0  0  0  0  0
  -27.7860  -15.9554   20.5872 H   0  0  0  0  0  0
  -28.0242  -17.5874   21.1160 H   0  0  0  0  0  0
  -28.5212  -16.2733   22.1710 H   0  0  0  0  0  0
  -31.0775  -18.2284   20.9401 H   0  0  0  0  0  0
  -30.7489  -18.0440   19.2807 H   0  0  0  0  0  0
  -26.9324  -24.1724   20.5830 H   0  0  0  0  0  0
  -27.5429  -24.2743   18.9768 H   0  0  0  0  0  0
  1 25  1  0  0  0
  1 30  2  0  0  0
  1 81  1  0  0  0
  2  3  1  0  0  0
  2 25  1  0  0  0
  2 82  1  0  0  0
  2 83  1  0  0  0
  3  4  1  0  0  0
  3 84  1  0  0  0
  3 85  1  0  0  0
  4  5  1  0  0  0
  4 86  1  0  0  0
  4 87  1  0  0  0
  5  6  1  0  0  0
  5 26  1  0  0  0
  5 88  1  0  0  0
  6 25  1  0  0  0
  6 89  1  0  0  0
  6 90  1  0  0  0
  7  8  2  0  0  0
  7 26  1  0  0  0
  7 29  1  0  0  0
  8  9  1  0  0  0
  8 22  1  0  0  0
  9 10  1  0  0  0
  9 27  2  0  0  0
 10 11  2  0  0  0
 10 15  1  0  0  0
 11 12  1  0  0  0
 11 91  1  0  0  0
 12 13  2  0  0  0
 12 92  1  0  0  0
 13 14  1  0  0  0
 13 31  1  0  0  0
 14 15  2  0  0  0
 14 93  1  0  0  0
 15 94  1  0  0  0
 16 17  2  0  0  0
 16 21  1  0  0  0
 16 31  1  0  0  0
 17 18  1  0  0  0
 17 95  1  0  0  0
 18 19  2  0  0  0
 18 96  1  0  0  0
 19 20  1  0  0  0
 19 24  1  0  0  0
 20 21  2  0  0  0
 20 97  1  0  0  0
 21 23  1  0  0  0
 22 28  1  0  0  0
 22 32  2  0  0  0
 26 27  1  0  0  0
 28 98  1  0  0  0
 28 99  1  0  0  0
 29100  1  0  0  0
 29101  1  0  0  0
 33 34  1  0  0  0
 33 66  1  0  0  0
 33 70  2  0  0  0
 34 36  1  0  0  0
 34 59  1  0  0  0
 34102  1  0  0  0
 35 44  2  0  0  0
 35 45  1  0  0  0
 35 68  1  0  0  0
 36 56  1  0  0  0
 36103  1  0  0  0
 37 39  1  0  0  0
 37 47  1  0  0  0
 37 66  1  0  0  0
 37104  1  0  0  0
 38 43  2  0  0  0
 38 46  1  0  0  0
 38 47  1  0  0  0
 39 64  1  0  0  0
 39 67  2  0  0  0
 40 52  1  0  0  0
 40 53  2  0  0  0
 40 58  1  0  0  0
 41105  1  0  0  0
 41106  1  0  0  0
 41107  1  0  0  0
 41 48  1  0  0  0
 42 43  1  0  0  0
 42 66  1  0  0  0
 42108  1  0  0  0
 42109  1  0  0  0
 43 44  1  0  0  0
 44110  1  0  0  0
 45 46  2  0  0  0
 45111  1  0  0  0
 46112  1  0  0  0
 47113  1  0  0  0
 47114  1  0  0  0
 48 56  1  0  0  0
 48 65  1  0  0  0
 48115  1  0  0  0
 49 50  1  0  0  0
 49 53  1  0  0  0
 49 64  1  0  0  0
 49116  1  0  0  0
 50 51  1  0  0  0
 50117  1  0  0  0
 50118  1  0  0  0
 51 52  1  0  0  0
 51119  1  0  0  0
 51120  1  0  0  0
 52121  1  0  0  0
 52122  1  0  0  0
 53 54  1  0  0  0
 54 55  2  0  0  0
 54123  1  0  0  0
 55 57  1  0  0  0
 55124  1  0  0  0
 56 69  2  0  0  0
 57 58  2  0  0  0
 57125  1  0  0  0
 58126  1  0  0  0
 59 60  1  0  0  0
 59 61  1  0  0  0
 59 62  1  0  0  0
 60127  1  0  0  0
 60128  1  0  0  0
 60129  1  0  0  0
 61130  1  0  0  0
 61131  1  0  0  0
 61132  1  0  0  0
 62133  1  0  0  0
 62134  1  0  0  0
 62135  1  0  0  0
 63 65  1  0  0  0
 63136  1  0  0  0
 63137  1  0  0  0
 63138  1  0  0  0
 64139  1  0  0  0
 65140  1  0  0  0
 68 79  1  0  0  0
 71 72  2  0  0  0
 71 73  1  0  0  0
 71141  1  0  0  0
 72 74  1  0  0  0
 72142  1  0  0  0
 73 75  2  0  0  0
 73 78  1  0  0  0
 74 79  1  0  0  0
 74 80  2  0  0  0
 75 76  1  0  0  0
 75 80  1  0  0  0
 76143  1  0  0  0
 76144  1  0  0  0
 76145  1  0  0  0
 77 81  1  0  0  0
 77146  1  0  0  0
 77147  1  0  0  0
 77148  1  0  0  0
 78 81  1  0  0  0
 78149  1  0  0  0
 78150  1  0  0  0
 79151  1  0  0  0
 79152  1  0  0  0
M  ISO  4   1 100  68 101  79 101  81 100
M  END
> <chiral flag>
0

> <version>
0

> <s_m_source_file>
/data/baiqing/PycharmProjects/Reinvent-master-3.2/result/LINK_invent/BTK/process_docking_weight1_custom_sum_contain_oxygen_bond_distance_aromatic_linkinvent_7_9_3/rearranged_h_0114.sdf

> <i_m_source_file_index>
16

> <r_mmod_Potential_Energy-OPLS-2005>
1081.34716796875

> <r_mmod_Stretch_Energy-OPLS-2005>
475.279937744141

> <r_mmod_Bend_Energy-OPLS-2005>
423.115356445312

> <r_mmod_Torsional_Energy-OPLS-2005>
258.90673828125

> <r_mmod_Improper_Torsional_Energy-OPLS-2005>
10.2953157424927

> <r_mmod_Van_der_Waal_Energy-OPLS-2005>
141.676467895508

> <r_mmod_Electrostatic_Energy-OPLS-2005>
-411.102630615234

> <r_mmod_Solvation_Energy-OPLS-2005>
-222.039337158203

> <b_mmod_Minimization_Converged-OPLS-2005>
0

> <r_mmod_RMS_Derivative-OPLS-2005>
2.00401616096497

$$$$
16
                    3D
 Structure written by MMmdl.
153161  0  0  1  0            999 V2000
  -30.5942  -14.6629   20.5842 C   0  0  0  0  0  0
  -30.4313  -12.4113   19.4984 C   0  0  0  0  0  0
  -29.5105  -12.5180   18.2603 C   0  0  0  0  0  0
  -28.0379  -12.3301   18.6679 C   0  0  0  0  0  0
  -27.6517  -13.2123   19.8836 C   0  0  2  0  0  0
  -28.6826  -13.0540   21.0246 C   0  0  0  0  0  0
  -25.2552  -13.8156   20.5747 C   0  0  0  0  0  0
  -24.1803  -13.0431   20.9230 C   0  0  0  0  0  0
  -24.6350  -11.6896   20.8779 C   0  0  0  0  0  0
  -23.9041  -10.4280   21.0448 C   0  0  0  0  0  0
  -24.3596   -9.4198   21.9218 C   0  0  0  0  0  0
  -23.6282   -8.2234   22.0758 C   0  0  0  0  0  0
  -22.4273   -8.0268   21.3552 C   0  0  0  0  0  0
  -21.9913   -9.0249   20.4665 C   0  0  0  0  0  0
  -22.7228  -10.2134   20.3091 C   0  0  0  0  0  0
  -21.6809   -6.0755   22.5297 C   0  0  0  0  0  0
  -21.4003   -6.5663   23.8244 C   0  0  0  0  0  0
  -21.3661   -5.6816   24.9198 C   0  0  0  0  0  0
  -21.6047   -4.3076   24.7230 C   0  0  0  0  0  0
  -21.8803   -3.8170   23.4345 C   0  0  0  0  0  0
  -21.9193   -4.6995   22.3415 C   0  0  0  0  0  0
  -22.7851  -13.5254   21.1900 C   0  0  0  0  0  0
  -22.1649   -4.2187   21.0987 F   0  0  0  0  0  0
  -21.5642   -3.4549   25.7736 F   0  0  0  0  0  0
  -29.9985  -13.4231   20.4896 N   0  0  0  0  0  0
  -26.2959  -12.9307   20.3399 N   0  0  0  0  0  0
  -25.9278  -11.6468   20.5807 N   0  0  0  0  0  0
  -22.0484  -12.8246   22.0439 N   0  0  0  0  0  0
  -25.4318  -15.1860   20.4132 N   0  0  0  0  0  0
  -31.7152  -14.8422   20.0978 O   0  0  0  0  0  0
  -21.6623   -6.8879   21.4250 O   0  0  0  0  0  0
  -22.3562  -14.5557   20.6748 O   0  0  0  0  0  0
  -24.6229  -31.8553   23.2042 C   0  0  0  0  0  0
  -25.9046  -32.4765   23.8359 C   0  0  1  0  0  0
  -27.2265  -27.2960   20.1364 C   0  0  0  0  0  0
  -25.5899  -33.8564   24.2325 N   0  0  0  0  0  0
  -23.4255  -30.4770   21.5484 C   0  0  2  0  0  0
  -24.8690  -28.9303   20.1133 C   0  0  0  0  0  0
  -22.7494  -29.4555   22.4973 C   0  0  0  0  0  0
  -18.0300  -28.1300   22.8478 C   0  0  0  0  0  0
  -24.1500  -36.7251   23.2661 C   0  0  0  0  0  0
  -25.9663  -30.7751   21.3841 C   0  0  0  0  0  0
  -26.0368  -29.4055   20.7239 C   0  0  0  0  0  0
  -27.2160  -28.6018   20.7225 C   0  0  0  0  0  0
  -26.0409  -26.8804   19.4945 C   0  0  0  0  0  0
  -24.8745  -27.6743   19.4907 C   0  0  0  0  0  0
  -23.6399  -29.8115   20.1625 C   0  0  0  0  0  0
  -25.4087  -36.3045   24.0374 C   0  0  1  0  0  0
  -20.5896  -28.3558   23.1317 C   0  0  2  0  0  0
  -20.6739  -26.9293   22.5383 C   0  0  0  0  0  0
  -19.5742  -26.6275   21.5155 C   0  0  0  0  0  0
  -18.1938  -26.7830   22.1587 C   0  0  0  0  0  0
  -19.1541  -28.8733   23.2906 C   0  0  0  0  0  0
  -18.9481  -30.1364   23.8828 C   0  0  0  0  0  0
  -17.6485  -30.6498   24.0560 C   0  0  0  0  0  0
  -25.9026  -34.9421   23.5129 C   0  0  0  0  0  0
  -16.5356  -29.8993   23.6309 C   0  0  0  0  0  0
  -16.7295  -28.6425   23.0344 C   0  0  0  0  0  0
  -26.4397  -31.6619   25.0740 C   0  0  0  0  0  0
  -25.3639  -31.3826   26.1514 C   0  0  0  0  0  0
  -27.0230  -30.3049   24.6186 C   0  0  0  0  0  0
  -27.5982  -32.4340   25.7475 C   0  0  0  0  0  0
  -27.5587  -37.1767   24.8487 C   0  0  0  0  0  0
  -21.4200  -29.2950   22.3735 N   0  0  0  0  0  0
  -26.4280  -37.3719   23.9432 N   0  0  0  0  0  0
  -24.6919  -31.0563   22.0982 N   0  0  0  0  0  0
  -23.4212  -28.8026   23.3002 O   0  0  0  0  0  0
  -28.3387  -26.4358   20.1632 O   0  0  0  0  0  0
  -26.5581  -34.8905   22.4695 O   0  0  0  0  0  0
  -23.5383  -32.1328   23.7338 O   0  0  0  0  0  0
  -28.5211  -19.2731   21.1859 C   0  0  0  0  0  0
  -30.3152  -19.0599   19.6560 C   0  0  0  0  0  0
  -29.3306  -19.9072   20.2150 C   0  0  0  0  0  0
  -28.7439  -17.8952   21.5459 C   0  0  0  0  0  0
  -29.7438  -17.1039   20.8848 C   0  0  0  0  0  0
  -29.1070  -21.3359   19.6531 C   0  0  0  0  0  0
  -27.8674  -17.2873   22.6314 C   0  0  0  0  0  0
  -29.1005  -23.8991   19.9294 C   0  0  0  0  0  0
  -28.1368  -25.0097   20.5515 C   0  0  0  0  0  0
  -30.5106  -17.7412   19.9651 N   0  0  0  0  0  0
  -29.8684  -15.6696   21.1908 N   0  0  0  0  0  0
  -29.0229  -22.4615   20.4395 N   0  0  0  0  0  0
  -29.0611  -21.4358   18.4187 O   0  0  0  0  0  0
  -31.4785  -12.5366   19.2205 H   0  0  0  0  0  0
  -30.3619  -11.4136   19.9344 H   0  0  0  0  0  0
  -29.7859  -11.7679   17.5227 H   0  0  0  0  0  0
  -29.6389  -13.4895   17.7761 H   0  0  0  0  0  0
  -27.9118  -11.2770   18.9262 H   0  0  0  0  0  0
  -27.3697  -12.5118   17.8255 H   0  0  0  0  0  0
  -27.6756  -14.2471   19.5385 H   0  0  0  0  0  0
  -28.7031  -12.0190   21.3672 H   0  0  0  0  0  0
  -28.4080  -13.6462   21.8968 H   0  0  0  0  0  0
  -25.2705   -9.5686   22.4845 H   0  0  0  0  0  0
  -24.0000   -7.4603   22.7454 H   0  0  0  0  0  0
  -21.0859   -8.8749   19.8952 H   0  0  0  0  0  0
  -22.3653  -10.9693   19.6244 H   0  0  0  0  0  0
  -21.1957   -7.6162   23.9755 H   0  0  0  0  0  0
  -21.1512   -6.0539   25.9110 H   0  0  0  0  0  0
  -22.0570   -2.7627   23.2828 H   0  0  0  0  0  0
  -22.4017  -11.9846   22.4758 H   0  0  0  0  0  0
  -21.1144  -13.1348   22.2717 H   0  0  0  0  0  0
  -24.6659  -15.8413   20.5078 H   0  0  0  0  0  0
  -26.2841  -15.6159   20.0832 H   0  0  0  0  0  0
  -26.7124  -32.5337   23.1102 H   0  0  0  0  0  0
  -25.0121  -33.9709   25.0511 H   0  0  0  0  0  0
  -22.7213  -31.2969   21.4029 H   0  0  0  0  0  0
  -23.3788  -35.9572   23.3262 H   0  0  0  0  0  0
  -24.3650  -36.8846   22.2110 H   0  0  0  0  0  0
  -23.7239  -37.6439   23.6668 H   0  0  0  0  0  0
  -26.1181  -31.5398   20.6235 H   0  0  0  0  0  0
  -26.8379  -30.8061   22.0256 H   0  0  0  0  0  0
  -28.1160  -28.9621   21.2041 H   0  0  0  0  0  0
  -26.0059  -25.9261   18.9910 H   0  0  0  0  0  0
  -23.9792  -27.3084   19.0074 H   0  0  0  0  0  0
  -23.7720  -30.5887   19.4138 H   0  0  0  0  0  0
  -22.7614  -29.2443   19.8590 H   0  0  0  0  0  0
  -25.1271  -36.1886   25.0873 H   0  0  0  0  0  0
  -20.9982  -28.2992   24.1448 H   0  0  0  0  0  0
  -20.5575  -26.2112   23.3538 H   0  0  0  0  0  0
  -21.6617  -26.7206   22.1217 H   0  0  0  0  0  0
  -19.6906  -25.6188   21.1161 H   0  0  0  0  0  0
  -19.6725  -27.3113   20.6735 H   0  0  0  0  0  0
  -17.4225  -26.6607   21.4018 H   0  0  0  0  0  0
  -18.0345  -25.9956   22.8943 H   0  0  0  0  0  0
  -19.7979  -30.7221   24.2106 H   0  0  0  0  0  0
  -17.5061  -31.6183   24.5106 H   0  0  0  0  0  0
  -15.5389  -30.2898   23.7664 H   0  0  0  0  0  0
  -15.8698  -28.0751   22.7030 H   0  0  0  0  0  0
  -24.5796  -30.7171   25.7910 H   0  0  0  0  0  0
  -24.8844  -32.3056   26.4838 H   0  0  0  0  0  0
  -25.7921  -30.9117   27.0380 H   0  0  0  0  0  0
  -26.2826  -29.6874   24.1101 H   0  0  0  0  0  0
  -27.3918  -29.7195   25.4609 H   0  0  0  0  0  0
  -27.8681  -30.4408   23.9420 H   0  0  0  0  0  0
  -27.2608  -33.3677   26.1990 H   0  0  0  0  0  0
  -28.3769  -32.6794   25.0251 H   0  0  0  0  0  0
  -28.0659  -31.8509   26.5438 H   0  0  0  0  0  0
  -28.2530  -38.0125   24.7480 H   0  0  0  0  0  0
  -28.1117  -36.2616   24.6266 H   0  0  0  0  0  0
  -27.2341  -37.1354   25.8910 H   0  0  0  0  0  0
  -20.9330  -29.8777   21.7071 H   0  0  0  0  0  0
  -26.0159  -38.2795   24.1418 H   0  0  0  0  0  0
  -27.6971  -19.8195   21.6303 H   0  0  0  0  0  0
  -30.9780  -19.4444   18.8980 H   0  0  0  0  0  0
  -27.2625  -18.0574   23.1156 H   0  0  0  0  0  0
  -28.4700  -16.8234   23.4125 H   0  0  0  0  0  0
  -27.1849  -16.5344   22.2337 H   0  0  0  0  0  0
  -30.1281  -24.2309   20.0845 H   0  0  0  0  0  0
  -28.9771  -23.9075   18.8447 H   0  0  0  0  0  0
  -28.2543  -24.9724   21.6343 H   0  0  0  0  0  0
  -27.1079  -24.6871   20.3882 H   0  0  0  0  0  0
  -29.1707  -15.3301   21.8311 H   0  0  0  0  0  0
  -29.1019  -22.3593   21.4520 H   0  0  0  0  0  0
  1 25  1  0  0  0
  1 30  2  0  0  0
  1 81  1  0  0  0
  2  3  1  0  0  0
  2 25  1  0  0  0
  2 84  1  0  0  0
  2 85  1  0  0  0
  3  4  1  0  0  0
  3 86  1  0  0  0
  3 87  1  0  0  0
  4  5  1  0  0  0
  4 88  1  0  0  0
  4 89  1  0  0  0
  5  6  1  0  0  0
  5 26  1  0  0  0
  5 90  1  0  0  0
  6 25  1  0  0  0
  6 91  1  0  0  0
  6 92  1  0  0  0
  7  8  2  0  0  0
  7 26  1  0  0  0
  7 29  1  0  0  0
  8  9  1  0  0  0
  8 22  1  0  0  0
  9 10  1  0  0  0
  9 27  2  0  0  0
 10 11  2  0  0  0
 10 15  1  0  0  0
 11 12  1  0  0  0
 11 93  1  0  0  0
 12 13  2  0  0  0
 12 94  1  0  0  0
 13 14  1  0  0  0
 13 31  1  0  0  0
 14 15  2  0  0  0
 14 95  1  0  0  0
 15 96  1  0  0  0
 16 17  2  0  0  0
 16 21  1  0  0  0
 16 31  1  0  0  0
 17 18  1  0  0  0
 17 97  1  0  0  0
 18 19  2  0  0  0
 18 98  1  0  0  0
 19 20  1  0  0  0
 19 24  1  0  0  0
 20 21  2  0  0  0
 20 99  1  0  0  0
 21 23  1  0  0  0
 22 28  1  0  0  0
 22 32  2  0  0  0
 26 27  1  0  0  0
 28100  1  0  0  0
 28101  1  0  0  0
 29102  1  0  0  0
 29103  1  0  0  0
 33 34  1  0  0  0
 33 66  1  0  0  0
 33 70  2  0  0  0
 34 36  1  0  0  0
 34 59  1  0  0  0
 34104  1  0  0  0
 35 44  2  0  0  0
 35 45  1  0  0  0
 35 68  1  0  0  0
 36 56  1  0  0  0
 36105  1  0  0  0
 37 39  1  0  0  0
 37 47  1  0  0  0
 37 66  1  0  0  0
 37106  1  0  0  0
 38 43  2  0  0  0
 38 46  1  0  0  0
 38 47  1  0  0  0
 39 64  1  0  0  0
 39 67  2  0  0  0
 40 52  1  0  0  0
 40 53  2  0  0  0
 40 58  1  0  0  0
 41107  1  0  0  0
 41108  1  0  0  0
 41109  1  0  0  0
 41 48  1  0  0  0
 42 43  1  0  0  0
 42 66  1  0  0  0
 42110  1  0  0  0
 42111  1  0  0  0
 43 44  1  0  0  0
 44112  1  0  0  0
 45 46  2  0  0  0
 45113  1  0  0  0
 46114  1  0  0  0
 47115  1  0  0  0
 47116  1  0  0  0
 48 56  1  0  0  0
 48 65  1  0  0  0
 48117  1  0  0  0
 49 50  1  0  0  0
 49 53  1  0  0  0
 49 64  1  0  0  0
 49118  1  0  0  0
 50 51  1  0  0  0
 50119  1  0  0  0
 50120  1  0  0  0
 51 52  1  0  0  0
 51121  1  0  0  0
 51122  1  0  0  0
 52123  1  0  0  0
 52124  1  0  0  0
 53 54  1  0  0  0
 54 55  2  0  0  0
 54125  1  0  0  0
 55 57  1  0  0  0
 55126  1  0  0  0
 56 69  2  0  0  0
 57 58  2  0  0  0
 57127  1  0  0  0
 58128  1  0  0  0
 59 60  1  0  0  0
 59 61  1  0  0  0
 59 62  1  0  0  0
 60129  1  0  0  0
 60130  1  0  0  0
 60131  1  0  0  0
 61132  1  0  0  0
 61133  1  0  0  0
 61134  1  0  0  0
 62135  1  0  0  0
 62136  1  0  0  0
 62137  1  0  0  0
 63 65  1  0  0  0
 63138  1  0  0  0
 63139  1  0  0  0
 63140  1  0  0  0
 64141  1  0  0  0
 65142  1  0  0  0
 68 79  1  0  0  0
 71 73  2  0  0  0
 71 74  1  0  0  0
 71143  1  0  0  0
 72 73  1  0  0  0
 72 80  2  0  0  0
 72144  1  0  0  0
 73 76  1  0  0  0
 74 75  2  0  0  0
 74 77  1  0  0  0
 75 80  1  0  0  0
 75 81  1  0  0  0
 76 82  1  0  0  0
 76 83  2  0  0  0
 77145  1  0  0  0
 77146  1  0  0  0
 77147  1  0  0  0
 78 79  1  0  0  0
 78 82  1  0  0  0
 78148  1  0  0  0
 78149  1  0  0  0
 79150  1  0  0  0
 79151  1  0  0  0
 81152  1  0  0  0
 82153  1  0  0  0
M  ISO  4   1 100  68 101  79 101  81 100
M  END
> <chiral flag>
0

> <version>
0

> <s_m_source_file>
/data/baiqing/PycharmProjects/Reinvent-master-3.2/result/LINK_invent/BTK/process_docking_weight1_custom_sum_contain_oxygen_bond_distance_aromatic_linkinvent_7_9_3/rearranged_h_0114.sdf

> <i_m_source_file_index>
17

> <r_mmod_Potential_Energy-OPLS-2005>
-121.532829284668

> <r_mmod_Stretch_Energy-OPLS-2005>
92.165885925293

> <r_mmod_Bend_Energy-OPLS-2005>
144.592910766602

> <r_mmod_Torsional_Energy-OPLS-2005>
238.596115112305

> <r_mmod_Improper_Torsional_Energy-OPLS-2005>
3.97904276847839

> <r_mmod_Van_der_Waal_Energy-OPLS-2005>
144.478164672852

> <r_mmod_Electrostatic_Energy-OPLS-2005>
-539.439819335938

> <r_mmod_Solvation_Energy-OPLS-2005>
-263.175964355469

> <b_mmod_Minimization_Converged-OPLS-2005>
0

> <r_mmod_RMS_Derivative-OPLS-2005>
10.2805671691895

$$$$
17
                    3D
 Structure written by MMmdl.
164173  0  0  1  0            999 V2000
  -30.6468  -14.7152   20.4256 C   0  0  0  0  0  0
  -30.4218  -12.4286   19.4835 C   0  0  0  0  0  0
  -29.5095  -12.5053   18.2410 C   0  0  0  0  0  0
  -28.0338  -12.3413   18.6480 C   0  0  0  0  0  0
  -27.6407  -13.2403   19.8519 C   0  0  2  0  0  0
  -28.6862  -13.1845   20.9898 C   0  0  0  0  0  0
  -25.2481  -13.8225   20.5700 C   0  0  0  0  0  0
  -24.1785  -13.0443   20.9208 C   0  0  0  0  0  0
  -24.6403  -11.6929   20.8757 C   0  0  0  0  0  0
  -23.9088  -10.4296   21.0411 C   0  0  0  0  0  0
  -24.3629   -9.4205   21.9189 C   0  0  0  0  0  0
  -23.6295   -8.2242   22.0756 C   0  0  0  0  0  0
  -22.4275   -8.0286   21.3552 C   0  0  0  0  0  0
  -21.9916   -9.0262   20.4651 C   0  0  0  0  0  0
  -22.7256  -10.2141   20.3059 C   0  0  0  0  0  0
  -21.6858   -6.0738   22.5283 C   0  0  0  0  0  0
  -21.4015   -6.5643   23.8218 C   0  0  0  0  0  0
  -21.3657   -5.6794   24.9179 C   0  0  0  0  0  0
  -21.6049   -4.3059   24.7232 C   0  0  0  0  0  0
  -21.8811   -3.8147   23.4354 C   0  0  0  0  0  0
  -21.9189   -4.6961   22.3406 C   0  0  0  0  0  0
  -22.7809  -13.5211   21.1886 C   0  0  0  0  0  0
  -22.1653   -4.2153   21.0983 F   0  0  0  0  0  0
  -21.5629   -3.4538   25.7741 F   0  0  0  0  0  0
  -29.9963  -13.5046   20.4099 N   0  0  0  0  0  0
  -26.2921  -12.9457   20.3295 N   0  0  0  0  0  0
  -25.9334  -11.6589   20.5758 N   0  0  0  0  0  0
  -22.0446  -12.8202   22.0440 N   0  0  0  0  0  0
  -25.4137  -15.1950   20.4123 N   0  0  0  0  0  0
  -31.8220  -14.7775   20.0582 O   0  0  0  0  0  0
  -21.6639   -6.8884   21.4247 O   0  0  0  0  0  0
  -22.3491  -14.5518   20.6736 O   0  0  0  0  0  0
  -24.6310  -31.8573   23.2012 C   0  0  0  0  0  0
  -25.9136  -32.4775   23.8349 C   0  0  1  0  0  0
  -27.2107  -27.2601   20.1285 C   0  0  0  0  0  0
  -25.5953  -33.8582   24.2273 N   0  0  0  0  0  0
  -23.4270  -30.4822   21.5438 C   0  0  2  0  0  0
  -24.8737  -28.9363   20.1073 C   0  0  0  0  0  0
  -22.7501  -29.4604   22.4903 C   0  0  0  0  0  0
  -18.0291  -28.1391   22.8479 C   0  0  0  0  0  0
  -24.1496  -36.7282   23.2639 C   0  0  0  0  0  0
  -25.9742  -30.7691   21.3824 C   0  0  0  0  0  0
  -26.0464  -29.3934   20.7207 C   0  0  0  0  0  0
  -27.2179  -28.5680   20.7221 C   0  0  0  0  0  0
  -26.0166  -26.8813   19.4736 C   0  0  0  0  0  0
  -24.8636  -27.6865   19.4729 C   0  0  0  0  0  0
  -23.6473  -29.8271   20.1562 C   0  0  0  0  0  0
  -25.4121  -36.3078   24.0328 C   0  0  1  0  0  0
  -20.5893  -28.3696   23.1277 C   0  0  2  0  0  0
  -20.6781  -26.9416   22.5409 C   0  0  0  0  0  0
  -19.5763  -26.6377   21.5206 C   0  0  0  0  0  0
  -18.1944  -26.7938   22.1615 C   0  0  0  0  0  0
  -19.1549  -28.8857   23.2874 C   0  0  0  0  0  0
  -18.9472  -30.1452   23.8901 C   0  0  0  0  0  0
  -17.6473  -30.6594   24.0561 C   0  0  0  0  0  0
  -25.9062  -34.9454   23.5094 C   0  0  0  0  0  0
  -16.5357  -29.9093   23.6338 C   0  0  0  0  0  0
  -16.7280  -28.6507   23.0366 C   0  0  0  0  0  0
  -26.4501  -31.6605   25.0733 C   0  0  0  0  0  0
  -25.3721  -31.3744   26.1443 C   0  0  0  0  0  0
  -27.0357  -30.3038   24.6199 C   0  0  0  0  0  0
  -27.6062  -32.4342   25.7500 C   0  0  0  0  0  0
  -27.5580  -37.1800   24.8465 C   0  0  0  0  0  0
  -21.4208  -29.3043   22.3663 N   0  0  0  0  0  0
  -26.4295  -37.3776   23.9408 N   0  0  0  0  0  0
  -24.6969  -31.0526   22.0987 N   0  0  0  0  0  0
  -23.4206  -28.8137   23.2989 O   0  0  0  0  0  0
  -28.2921  -26.3467   20.2062 O   0  0  0  0  0  0
  -26.5612  -34.8928   22.4650 O   0  0  0  0  0  0
  -23.5463  -32.1399   23.7297 O   0  0  0  0  0  0
  -30.4677  -20.7005   21.3099 C   0  0  0  0  0  0
  -29.3672  -20.8827   20.5064 C   0  0  0  0  0  0
  -30.0174  -18.6441   20.4820 C   0  0  0  0  0  0
  -33.1470  -17.2965   23.4770 C   0  0  0  0  0  0
  -33.1367  -18.6609   24.1516 C   0  0  0  0  0  0
  -32.0295  -17.3985   22.4470 C   0  0  0  0  0  0
  -32.6745  -19.6558   23.0733 C   0  0  0  0  0  0
  -32.1043  -18.8273   21.8920 C   0  0  0  0  0  0
  -28.5439  -22.1634   20.0930 C   0  0  0  0  0  0
  -30.2242  -17.1963   19.8657 C   0  0  0  0  0  0
  -28.9873  -23.6748   20.4734 C   0  0  0  0  0  0
  -28.0251  -24.8810   19.9793 C   0  0  0  0  0  0
  -30.8453  -19.3578   21.2914 N   0  0  0  0  0  0
  -29.1139  -19.5774   20.0524 N   0  3  0  0  0  0
  -29.9189  -15.8827   20.5890 N   0  0  0  0  0  0
  -31.4674  -12.5176   19.1830 H   0  0  0  0  0  0
  -30.3405  -11.4555   19.9708 H   0  0  0  0  0  0
  -29.7876  -11.7380   17.5186 H   0  0  0  0  0  0
  -29.6517  -13.4630   17.7397 H   0  0  0  0  0  0
  -27.8811  -11.2931   18.9052 H   0  0  0  0  0  0
  -27.3830  -12.5425   17.7965 H   0  0  0  0  0  0
  -27.6313  -14.2609   19.4693 H   0  0  0  0  0  0
  -28.7050  -12.1956   21.4500 H   0  0  0  0  0  0
  -28.4311  -13.8905   21.7826 H   0  0  0  0  0  0
  -25.2770   -9.5683   22.4778 H   0  0  0  0  0  0
  -24.0004   -7.4630   22.7473 H   0  0  0  0  0  0
  -21.0846   -8.8786   19.8956 H   0  0  0  0  0  0
  -22.3708  -10.9684   19.6171 H   0  0  0  0  0  0
  -21.2007   -7.6151   23.9732 H   0  0  0  0  0  0
  -21.1487   -6.0522   25.9093 H   0  0  0  0  0  0
  -22.0592   -2.7609   23.2854 H   0  0  0  0  0  0
  -22.4040  -11.9849   22.4831 H   0  0  0  0  0  0
  -21.1068  -13.1250   22.2654 H   0  0  0  0  0  0
  -24.6415  -15.8447   20.5159 H   0  0  0  0  0  0
  -26.2565  -15.6387   20.0699 H   0  0  0  0  0  0
  -26.7199  -32.5424   23.1093 H   0  0  0  0  0  0
  -25.0178  -33.9725   25.0467 H   0  0  0  0  0  0
  -22.7237  -31.3056   21.4027 H   0  0  0  0  0  0
  -23.3774  -35.9600   23.3310 H   0  0  0  0  0  0
  -24.3591  -36.8889   22.2054 H   0  0  0  0  0  0
  -23.7239  -37.6478   23.6656 H   0  0  0  0  0  0
  -26.1163  -31.5331   20.6172 H   0  0  0  0  0  0
  -26.8505  -30.8158   22.0165 H   0  0  0  0  0  0
  -28.1134  -28.9090   21.2239 H   0  0  0  0  0  0
  -25.9366  -25.9339   18.9651 H   0  0  0  0  0  0
  -23.9682  -27.3291   18.9823 H   0  0  0  0  0  0
  -23.7843  -30.6117   19.4120 H   0  0  0  0  0  0
  -22.7636  -29.2716   19.8375 H   0  0  0  0  0  0
  -25.1311  -36.1934   25.0823 H   0  0  0  0  0  0
  -20.9988  -28.3264   24.1393 H   0  0  0  0  0  0
  -20.5699  -26.2292   23.3605 H   0  0  0  0  0  0
  -21.6655  -26.7447   22.1198 H   0  0  0  0  0  0
  -19.6931  -25.6278   21.1262 H   0  0  0  0  0  0
  -19.6726  -27.3175   20.6730 H   0  0  0  0  0  0
  -17.4218  -26.6691   21.4012 H   0  0  0  0  0  0
  -18.0329  -26.0071   22.9003 H   0  0  0  0  0  0
  -19.7943  -30.7259   24.2287 H   0  0  0  0  0  0
  -17.5030  -31.6281   24.5156 H   0  0  0  0  0  0
  -15.5369  -30.3011   23.7640 H   0  0  0  0  0  0
  -15.8672  -28.0819   22.7105 H   0  0  0  0  0  0
  -24.5908  -30.7091   25.7745 H   0  0  0  0  0  0
  -24.8903  -32.2914   26.4848 H   0  0  0  0  0  0
  -25.8025  -30.8921   27.0229 H   0  0  0  0  0  0
  -26.2937  -29.6784   24.1225 H   0  0  0  0  0  0
  -27.4074  -29.7293   25.4687 H   0  0  0  0  0  0
  -27.8798  -30.4341   23.9424 H   0  0  0  0  0  0
  -27.2685  -33.3653   26.2063 H   0  0  0  0  0  0
  -28.3874  -32.6891   25.0329 H   0  0  0  0  0  0
  -28.0736  -31.8487   26.5423 H   0  0  0  0  0  0
  -28.2592  -38.0102   24.7522 H   0  0  0  0  0  0
  -28.1089  -36.2637   24.6296 H   0  0  0  0  0  0
  -27.2302  -37.1449   25.8867 H   0  0  0  0  0  0
  -20.9384  -29.8802   21.6911 H   0  0  0  0  0  0
  -26.0184  -38.2848   24.1425 H   0  0  0  0  0  0
  -31.0259  -21.4518   21.8517 H   0  0  0  0  0  0
  -33.0002  -16.4722   24.1766 H   0  0  0  0  0  0
  -34.1008  -17.1314   22.9685 H   0  0  0  0  0  0
  -34.1060  -18.9198   24.5797 H   0  0  0  0  0  0
  -32.4180  -18.6510   24.9725 H   0  0  0  0  0  0
  -31.0625  -17.2042   22.9137 H   0  0  0  0  0  0
  -32.2021  -16.6629   21.6706 H   0  0  0  0  0  0
  -33.5156  -20.2628   22.7347 H   0  0  0  0  0  0
  -31.9464  -20.3338   23.5184 H   0  0  0  0  0  0
  -32.8431  -18.8303   21.0877 H   0  0  0  0  0  0
  -27.5281  -22.0184   20.4645 H   0  0  0  0  0  0
  -28.4517  -22.1267   19.0070 H   0  0  0  0  0  0
  -29.6131  -17.1888   18.9623 H   0  0  0  0  0  0
  -31.2537  -17.1952   19.5040 H   0  0  0  0  0  0
  -29.9886  -23.8484   20.0832 H   0  0  0  0  0  0
  -29.0788  -23.7381   21.5571 H   0  0  0  0  0  0
  -27.0505  -24.6512   20.4157 H   0  0  0  0  0  0
  -27.9054  -24.7586   18.9013 H   0  0  0  0  0  0
  -28.3698  -19.3519   19.4031 H   0  0  0  0  0  0
  -28.9768  -15.7712   20.9290 H   0  0  0  0  0  0
  1 25  1  0  0  0
  1 30  2  0  0  0
  1 85  1  0  0  0
  2  3  1  0  0  0
  2 25  1  0  0  0
  2 86  1  0  0  0
  2 87  1  0  0  0
  3  4  1  0  0  0
  3 88  1  0  0  0
  3 89  1  0  0  0
  4  5  1  0  0  0
  4 90  1  0  0  0
  4 91  1  0  0  0
  5  6  1  0  0  0
  5 26  1  0  0  0
  5 92  1  0  0  0
  6 25  1  0  0  0
  6 93  1  0  0  0
  6 94  1  0  0  0
  7  8  2  0  0  0
  7 26  1  0  0  0
  7 29  1  0  0  0
  8  9  1  0  0  0
  8 22  1  0  0  0
  9 10  1  0  0  0
  9 27  2  0  0  0
 10 11  2  0  0  0
 10 15  1  0  0  0
 11 12  1  0  0  0
 11 95  1  0  0  0
 12 13  2  0  0  0
 12 96  1  0  0  0
 13 14  1  0  0  0
 13 31  1  0  0  0
 14 15  2  0  0  0
 14 97  1  0  0  0
 15 98  1  0  0  0
 16 17  2  0  0  0
 16 21  1  0  0  0
 16 31  1  0  0  0
 17 18  1  0  0  0
 17 99  1  0  0  0
 18 19  2  0  0  0
 18100  1  0  0  0
 19 20  1  0  0  0
 19 24  1  0  0  0
 20 21  2  0  0  0
 20101  1  0  0  0
 21 23  1  0  0  0
 22 28  1  0  0  0
 22 32  2  0  0  0
 26 27  1  0  0  0
 28102  1  0  0  0
 28103  1  0  0  0
 29104  1  0  0  0
 29105  1  0  0  0
 33 34  1  0  0  0
 33 66  1  0  0  0
 33 70  2  0  0  0
 34 36  1  0  0  0
 34 59  1  0  0  0
 34106  1  0  0  0
 35 44  2  0  0  0
 35 45  1  0  0  0
 35 68  1  0  0  0
 36 56  1  0  0  0
 36107  1  0  0  0
 37 39  1  0  0  0
 37 47  1  0  0  0
 37 66  1  0  0  0
 37108  1  0  0  0
 38 43  2  0  0  0
 38 46  1  0  0  0
 38 47  1  0  0  0
 39 64  1  0  0  0
 39 67  2  0  0  0
 40 52  1  0  0  0
 40 53  2  0  0  0
 40 58  1  0  0  0
 41109  1  0  0  0
 41110  1  0  0  0
 41111  1  0  0  0
 41 48  1  0  0  0
 42 43  1  0  0  0
 42 66  1  0  0  0
 42112  1  0  0  0
 42113  1  0  0  0
 43 44  1  0  0  0
 44114  1  0  0  0
 45 46  2  0  0  0
 45115  1  0  0  0
 46116  1  0  0  0
 47117  1  0  0  0
 47118  1  0  0  0
 48 56  1  0  0  0
 48 65  1  0  0  0
 48119  1  0  0  0
 49 50  1  0  0  0
 49 53  1  0  0  0
 49 64  1  0  0  0
 49120  1  0  0  0
 50 51  1  0  0  0
 50121  1  0  0  0
 50122  1  0  0  0
 51 52  1  0  0  0
 51123  1  0  0  0
 51124  1  0  0  0
 52125  1  0  0  0
 52126  1  0  0  0
 53 54  1  0  0  0
 54 55  2  0  0  0
 54127  1  0  0  0
 55 57  1  0  0  0
 55128  1  0  0  0
 56 69  2  0  0  0
 57 58  2  0  0  0
 57129  1  0  0  0
 58130  1  0  0  0
 59 60  1  0  0  0
 59 61  1  0  0  0
 59 62  1  0  0  0
 60131  1  0  0  0
 60132  1  0  0  0
 60133  1  0  0  0
 61134  1  0  0  0
 61135  1  0  0  0
 61136  1  0  0  0
 62137  1  0  0  0
 62138  1  0  0  0
 62139  1  0  0  0
 63 65  1  0  0  0
 63140  1  0  0  0
 63141  1  0  0  0
 63142  1  0  0  0
 64143  1  0  0  0
 65144  1  0  0  0
 68 82  1  0  0  0
 71 72  2  0  0  0
 71 83  1  0  0  0
 71145  1  0  0  0
 72 79  1  0  0  0
 72 84  1  0  0  0
 73 80  1  0  0  0
 73 83  1  0  0  0
 73 84  2  0  0  0
 74 75  1  0  0  0
 74 76  1  0  0  0
 74146  1  0  0  0
 74147  1  0  0  0
 75 77  1  0  0  0
 75148  1  0  0  0
 75149  1  0  0  0
 76 78  1  0  0  0
 76150  1  0  0  0
 76151  1  0  0  0
 77 78  1  0  0  0
 77152  1  0  0  0
 77153  1  0  0  0
 78 83  1  0  0  0
 78154  1  0  0  0
 79 81  1  0  0  0
 79155  1  0  0  0
 79156  1  0  0  0
 80 85  1  0  0  0
 80157  1  0  0  0
 80158  1  0  0  0
 81 82  1  0  0  0
 81159  1  0  0  0
 81160  1  0  0  0
 82161  1  0  0  0
 82162  1  0  0  0
 84163  1  0  0  0
 85164  1  0  0  0
M  CHG  1  84   1
M  ISO  4   1 100  68 101  82 101  85 100
M  END
> <chiral flag>
0

> <version>
0

> <s_m_source_file>
/data/baiqing/PycharmProjects/Reinvent-master-3.2/result/LINK_invent/BTK/process_docking_weight1_custom_sum_contain_oxygen_bond_distance_aromatic_linkinvent_7_9_3/rearranged_h_0114.sdf

> <i_m_source_file_index>
18

> <r_mmod_Potential_Energy-OPLS-2005>
157.781677246094

> <r_mmod_Stretch_Energy-OPLS-2005>
119.855445861816

> <r_mmod_Bend_Energy-OPLS-2005>
205.453384399414

> <r_mmod_Torsional_Energy-OPLS-2005>
292.330902099609

> <r_mmod_Improper_Torsional_Energy-OPLS-2005>
10.6728420257568

> <r_mmod_Van_der_Waal_Energy-OPLS-2005>
124.313354492188

> <r_mmod_Electrostatic_Energy-OPLS-2005>
-250.401565551758

> <r_mmod_Solvation_Energy-OPLS-2005>
-427.695648193359

> <b_mmod_Minimization_Converged-OPLS-2005>
0

> <r_mmod_RMS_Derivative-OPLS-2005>
2.95797657966614

$$$$
18
                    3D
 Structure written by MMmdl.
175184  0  0  1  0            999 V2000
  -30.6984  -14.5535   20.5438 C   0  0  0  0  0  0
  -30.4234  -12.3538   19.4332 C   0  0  0  0  0  0
  -29.4902  -12.4742   18.2110 C   0  0  0  0  0  0
  -28.0215  -12.2703   18.6315 C   0  0  0  0  0  0
  -27.6336  -13.1549   19.8388 C   0  0  2  0  0  0
  -28.6876  -13.0632   20.9735 C   0  0  0  0  0  0
  -25.2512  -13.7991   20.5617 C   0  0  0  0  0  0
  -24.1770  -13.0347   20.9209 C   0  0  0  0  0  0
  -24.6276  -11.6804   20.8786 C   0  0  0  0  0  0
  -23.8947  -10.4237   21.0462 C   0  0  0  0  0  0
  -24.3527   -9.4161   21.9224 C   0  0  0  0  0  0
  -23.6225   -8.2192   22.0766 C   0  0  0  0  0  0
  -22.4219   -8.0241   21.3540 C   0  0  0  0  0  0
  -21.9847   -9.0209   20.4654 C   0  0  0  0  0  0
  -22.7153  -10.2096   20.3077 C   0  0  0  0  0  0
  -21.6811   -6.0708   22.5266 C   0  0  0  0  0  0
  -21.3982   -6.5612   23.8203 C   0  0  0  0  0  0
  -21.3666   -5.6774   24.9165 C   0  0  0  0  0  0
  -21.6049   -4.3039   24.7233 C   0  0  0  0  0  0
  -21.8810   -3.8131   23.4348 C   0  0  0  0  0  0
  -21.9177   -4.6936   22.3396 C   0  0  0  0  0  0
  -22.7822  -13.5207   21.1861 C   0  0  0  0  0  0
  -22.1663   -4.2126   21.0976 F   0  0  0  0  0  0
  -21.5639   -3.4534   25.7761 F   0  0  0  0  0  0
  -30.0106  -13.3780   20.4093 N   0  0  0  0  0  0
  -26.2856  -12.9035   20.3222 N   0  0  0  0  0  0
  -25.9162  -11.6277   20.5769 N   0  0  0  0  0  0
  -22.0424  -12.8233   22.0414 N   0  0  0  0  0  0
  -25.4183  -15.1700   20.3917 N   0  0  0  0  0  0
  -31.8781  -14.6591   20.1953 O   0  0  0  0  0  0
  -21.6581   -6.8842   21.4237 O   0  0  0  0  0  0
  -22.3562  -14.5532   20.6710 O   0  0  0  0  0  0
  -24.6167  -31.8655   23.2115 C   0  0  0  0  0  0
  -25.9064  -32.4811   23.8398 C   0  0  1  0  0  0
  -27.2384  -27.4290   20.1036 C   0  0  0  0  0  0
  -25.5941  -33.8620   24.2336 N   0  0  0  0  0  0
  -23.4040  -30.4884   21.5523 C   0  0  2  0  0  0
  -24.8488  -28.9499   20.1187 C   0  0  0  0  0  0
  -22.7399  -29.4655   22.5015 C   0  0  0  0  0  0
  -18.0253  -28.1358   22.8496 C   0  0  0  0  0  0
  -24.1496  -36.7305   23.2632 C   0  0  0  0  0  0
  -25.9318  -30.8291   21.3636 C   0  0  0  0  0  0
  -26.0080  -29.4630   20.7125 C   0  0  0  0  0  0
  -27.2042  -28.7123   20.6960 C   0  0  0  0  0  0
  -26.0617  -26.9309   19.4992 C   0  0  0  0  0  0
  -24.8702  -27.6832   19.5084 C   0  0  0  0  0  0
  -23.6118  -29.8189   20.1671 C   0  0  0  0  0  0
  -25.4121  -36.3117   24.0326 C   0  0  1  0  0  0
  -20.5841  -28.3652   23.1308 C   0  0  2  0  0  0
  -20.6751  -26.9385   22.5417 C   0  0  0  0  0  0
  -19.5735  -26.6377   21.5205 C   0  0  0  0  0  0
  -18.1905  -26.7911   22.1607 C   0  0  0  0  0  0
  -19.1501  -28.8820   23.2897 C   0  0  0  0  0  0
  -18.9446  -30.1438   23.8892 C   0  0  0  0  0  0
  -17.6449  -30.6568   24.0575 C   0  0  0  0  0  0
  -25.9044  -34.9478   23.5121 C   0  0  0  0  0  0
  -16.5341  -29.9072   23.6345 C   0  0  0  0  0  0
  -16.7247  -28.6495   23.0352 C   0  0  0  0  0  0
  -26.4492  -31.6592   25.0740 C   0  0  0  0  0  0
  -25.3774  -31.3639   26.1491 C   0  0  0  0  0  0
  -27.0334  -30.3049   24.6107 C   0  0  0  0  0  0
  -27.6085  -32.4290   25.7504 C   0  0  0  0  0  0
  -27.5580  -37.1810   24.8467 C   0  0  0  0  0  0
  -21.4129  -29.3025   22.3728 N   0  0  0  0  0  0
  -26.4298  -37.3811   23.9414 N   0  0  0  0  0  0
  -24.6695  -31.0737   22.1022 N   0  0  0  0  0  0
  -23.4171  -28.8200   23.3055 O   0  0  0  0  0  0
  -28.4329  -26.7371   20.0954 O   0  0  0  0  0  0
  -26.5577  -34.8930   22.4667 O   0  0  0  0  0  0
  -23.5357  -32.1410   23.7504 O   0  0  0  0  0  0
  -28.8870  -17.6517   20.1546 C   0  0  0  0  0  0
  -29.0139  -21.7379   22.2449 C   0  0  0  0  0  0
  -31.1124  -21.4753   20.9463 C   0  0  0  0  0  0
  -28.8685  -16.1345   20.1755 C   0  0  0  0  0  0
  -28.6791  -20.2541   21.9624 C   0  0  0  0  0  0
  -30.7507  -20.0041   20.6487 C   0  0  0  0  0  0
  -29.8614  -22.3619   21.1190 C   0  0  2  0  0  0
  -29.5104  -17.9652   21.5007 C   0  0  1  0  0  0
  -30.6023  -16.8532   21.6235 C   0  0  1  0  0  0
  -31.8595  -17.6875   23.7146 C   0  0  0  0  0  0
  -29.9674  -16.0288   24.0067 C   0  0  0  0  0  0
  -30.2758  -23.8317   21.3819 C   0  0  0  0  0  0
  -29.1577  -24.8936   21.5155 C   0  0  0  0  0  0
  -28.4320  -25.3035   20.2117 C   0  0  0  0  0  0
  -31.0826  -16.5297   23.0679 C   0  0  0  0  0  0
  -30.0044  -15.6526   20.9735 N   0  0  0  0  0  0
  -29.8864  -19.4068   21.7085 N   0  3  2  0  0  0
  -31.4633  -12.4649   19.1204 H   0  0  0  0  0  0
  -30.3474  -11.3603   19.8765 H   0  0  0  0  0  0
  -29.7650  -11.7371   17.4552 H   0  0  0  0  0  0
  -29.6137  -13.4514   17.7411 H   0  0  0  0  0  0
  -27.8864  -11.2184   18.8878 H   0  0  0  0  0  0
  -27.3572  -12.4633   17.7886 H   0  0  0  0  0  0
  -27.5961  -14.1401   19.4069 H   0  0  0  0  0  0
  -28.7026  -12.0568   21.3943 H   0  0  0  0  0  0
  -28.4289  -13.7295   21.7963 H   0  0  0  0  0  0
  -25.2673   -9.5641   22.4793 H   0  0  0  0  0  0
  -23.9944   -7.4570   22.7474 H   0  0  0  0  0  0
  -21.0783   -8.8725   19.8947 H   0  0  0  0  0  0
  -22.3633  -10.9636   19.6180 H   0  0  0  0  0  0
  -21.1960   -7.6124   23.9700 H   0  0  0  0  0  0
  -21.1506   -6.0507   25.9066 H   0  0  0  0  0  0
  -22.0589   -2.7595   23.2845 H   0  0  0  0  0  0
  -22.4001  -11.9891   22.4816 H   0  0  0  0  0  0
  -21.1071  -13.1323   22.2619 H   0  0  0  0  0  0
  -24.6360  -15.8093   20.4797 H   0  0  0  0  0  0
  -26.2428  -15.6057   20.0026 H   0  0  0  0  0  0
  -26.7142  -32.5527   23.1159 H   0  0  0  0  0  0
  -25.0214  -33.9800   25.0564 H   0  0  0  0  0  0
  -22.6960  -31.3075   21.4140 H   0  0  0  0  0  0
  -23.3777  -35.9618   23.3302 H   0  0  0  0  0  0
  -24.3576  -36.8929   22.2044 H   0  0  0  0  0  0
  -23.7240  -37.6504   23.6651 H   0  0  0  0  0  0
  -26.0423  -31.5916   20.5912 H   0  0  0  0  0  0
  -26.8203  -30.8827   21.9812 H   0  0  0  0  0  0
  -28.1049  -29.1085   21.1441 H   0  0  0  0  0  0
  -26.0557  -25.9738   18.9984 H   0  0  0  0  0  0
  -23.9805  -27.2841   19.0407 H   0  0  0  0  0  0
  -23.7237  -30.5945   19.4081 H   0  0  0  0  0  0
  -22.7335  -29.2414   19.8720 H   0  0  0  0  0  0
  -25.1303  -36.1987   25.0814 H   0  0  0  0  0  0
  -20.9913  -28.3218   24.1430 H   0  0  0  0  0  0
  -20.5656  -26.2248   23.3600 H   0  0  0  0  0  0
  -21.6628  -26.7414   22.1224 H   0  0  0  0  0  0
  -19.6908  -25.6293   21.1227 H   0  0  0  0  0  0
  -19.6676  -27.3191   20.6737 H   0  0  0  0  0  0
  -17.4178  -26.6657   21.4005 H   0  0  0  0  0  0
  -18.0300  -26.0028   22.8970 H   0  0  0  0  0  0
  -19.7924  -30.7275   24.2226 H   0  0  0  0  0  0
  -17.5002  -31.6242   24.5185 H   0  0  0  0  0  0
  -15.5346  -30.2983   23.7665 H   0  0  0  0  0  0
  -15.8645  -28.0846   22.7034 H   0  0  0  0  0  0
  -24.6036  -30.6868   25.7849 H   0  0  0  0  0  0
  -24.8843  -32.2735   26.4915 H   0  0  0  0  0  0
  -25.8165  -30.8887   27.0272 H   0  0  0  0  0  0
  -26.2854  -29.6784   24.1225 H   0  0  0  0  0  0
  -27.4193  -29.7315   25.4547 H   0  0  0  0  0  0
  -27.8652  -30.4398   23.9190 H   0  0  0  0  0  0
  -27.2757  -33.3616   26.2070 H   0  0  0  0  0  0
  -28.3906  -32.6784   25.0321 H   0  0  0  0  0  0
  -28.0737  -31.8406   26.5430 H   0  0  0  0  0  0
  -28.2604  -38.0100   24.7533 H   0  0  0  0  0  0
  -28.1075  -36.2632   24.6297 H   0  0  0  0  0  0
  -27.2278  -37.1480   25.8862 H   0  0  0  0  0  0
  -20.9277  -29.8769   21.6975 H   0  0  0  0  0  0
  -26.0191  -38.2886   24.1450 H   0  0  0  0  0  0
  -27.8919  -18.0784   20.0195 H   0  0  0  0  0  0
  -29.5124  -17.9740   19.3235 H   0  0  0  0  0  0
  -29.5311  -21.8240   23.2017 H   0  0  0  0  0  0
  -28.0792  -22.2897   22.3563 H   0  0  0  0  0  0
  -31.7233  -21.8643   20.1306 H   0  0  0  0  0  0
  -31.7377  -21.5245   21.8409 H   0  0  0  0  0  0
  -28.8813  -15.7639   19.1499 H   0  0  0  0  0  0
  -27.9606  -15.8192   20.6835 H   0  0  0  0  0  0
  -28.0081  -20.2021   21.1033 H   0  0  0  0  0  0
  -28.1185  -19.8559   22.8105 H   0  0  0  0  0  0
  -31.6657  -19.4203   20.5391 H   0  0  0  0  0  0
  -30.2417  -19.9805   19.6848 H   0  0  0  0  0  0
  -29.2876  -22.3337   20.1912 H   0  0  0  0  0  0
  -28.7493  -17.7404   22.2494 H   0  0  0  0  0  0
  -31.4685  -17.1412   21.0252 H   0  0  0  0  0  0
  -32.6576  -18.0448   23.0631 H   0  0  0  0  0  0
  -32.3304  -17.3620   24.6426 H   0  0  0  0  0  0
  -31.2145  -18.5287   23.9659 H   0  0  0  0  0  0
  -29.4143  -15.1908   23.5825 H   0  0  0  0  0  0
  -29.2484  -16.8121   24.2466 H   0  0  0  0  0  0
  -30.3862  -15.6876   24.9541 H   0  0  0  0  0  0
  -30.9571  -24.1547   20.5936 H   0  0  0  0  0  0
  -30.8685  -23.8573   22.2976 H   0  0  0  0  0  0
  -29.6326  -25.7844   21.9273 H   0  0  0  0  0  0
  -28.4306  -24.5961   22.2708 H   0  0  0  0  0  0
  -27.4396  -24.8543   20.2183 H   0  0  0  0  0  0
  -28.9442  -24.8966   19.3392 H   0  0  0  0  0  0
  -31.7984  -15.7093   22.9829 H   0  0  0  0  0  0
  -30.4213  -19.4307   22.5650 H   0  0  0  0  0  0
  1 25  1  0  0  0
  1 30  2  0  0  0
  1 86  1  0  0  0
  2  3  1  0  0  0
  2 25  1  0  0  0
  2 88  1  0  0  0
  2 89  1  0  0  0
  3  4  1  0  0  0
  3 90  1  0  0  0
  3 91  1  0  0  0
  4  5  1  0  0  0
  4 92  1  0  0  0
  4 93  1  0  0  0
  5  6  1  0  0  0
  5 26  1  0  0  0
  5 94  1  0  0  0
  6 25  1  0  0  0
  6 95  1  0  0  0
  6 96  1  0  0  0
  7  8  2  0  0  0
  7 26  1  0  0  0
  7 29  1  0  0  0
  8  9  1  0  0  0
  8 22  1  0  0  0
  9 10  1  0  0  0
  9 27  2  0  0  0
 10 11  2  0  0  0
 10 15  1  0  0  0
 11 12  1  0  0  0
 11 97  1  0  0  0
 12 13  2  0  0  0
 12 98  1  0  0  0
 13 14  1  0  0  0
 13 31  1  0  0  0
 14 15  2  0  0  0
 14 99  1  0  0  0
 15100  1  0  0  0
 16 17  2  0  0  0
 16 21  1  0  0  0
 16 31  1  0  0  0
 17 18  1  0  0  0
 17101  1  0  0  0
 18 19  2  0  0  0
 18102  1  0  0  0
 19 20  1  0  0  0
 19 24  1  0  0  0
 20 21  2  0  0  0
 20103  1  0  0  0
 21 23  1  0  0  0
 22 28  1  0  0  0
 22 32  2  0  0  0
 26 27  1  0  0  0
 28104  1  0  0  0
 28105  1  0  0  0
 29106  1  0  0  0
 29107  1  0  0  0
 33 34  1  0  0  0
 33 66  1  0  0  0
 33 70  2  0  0  0
 34 36  1  0  0  0
 34 59  1  0  0  0
 34108  1  0  0  0
 35 44  2  0  0  0
 35 45  1  0  0  0
 35 68  1  0  0  0
 36 56  1  0  0  0
 36109  1  0  0  0
 37 39  1  0  0  0
 37 47  1  0  0  0
 37 66  1  0  0  0
 37110  1  0  0  0
 38 43  2  0  0  0
 38 46  1  0  0  0
 38 47  1  0  0  0
 39 64  1  0  0  0
 39 67  2  0  0  0
 40 52  1  0  0  0
 40 53  2  0  0  0
 40 58  1  0  0  0
 41111  1  0  0  0
 41112  1  0  0  0
 41113  1  0  0  0
 41 48  1  0  0  0
 42 43  1  0  0  0
 42 66  1  0  0  0
 42114  1  0  0  0
 42115  1  0  0  0
 43 44  1  0  0  0
 44116  1  0  0  0
 45 46  2  0  0  0
 45117  1  0  0  0
 46118  1  0  0  0
 47119  1  0  0  0
 47120  1  0  0  0
 48 56  1  0  0  0
 48 65  1  0  0  0
 48121  1  0  0  0
 49 50  1  0  0  0
 49 53  1  0  0  0
 49 64  1  0  0  0
 49122  1  0  0  0
 50 51  1  0  0  0
 50123  1  0  0  0
 50124  1  0  0  0
 51 52  1  0  0  0
 51125  1  0  0  0
 51126  1  0  0  0
 52127  1  0  0  0
 52128  1  0  0  0
 53 54  1  0  0  0
 54 55  2  0  0  0
 54129  1  0  0  0
 55 57  1  0  0  0
 55130  1  0  0  0
 56 69  2  0  0  0
 57 58  2  0  0  0
 57131  1  0  0  0
 58132  1  0  0  0
 59 60  1  0  0  0
 59 61  1  0  0  0
 59 62  1  0  0  0
 60133  1  0  0  0
 60134  1  0  0  0
 60135  1  0  0  0
 61136  1  0  0  0
 61137  1  0  0  0
 61138  1  0  0  0
 62139  1  0  0  0
 62140  1  0  0  0
 62141  1  0  0  0
 63 65  1  0  0  0
 63142  1  0  0  0
 63143  1  0  0  0
 63144  1  0  0  0
 64145  1  0  0  0
 65146  1  0  0  0
 68 84  1  0  0  0
 71 74  1  0  0  0
 71147  1  0  0  0
 71148  1  0  0  0
 71 78  1  0  0  0
 72 75  1  0  0  0
 72 77  1  0  0  0
 72149  1  0  0  0
 72150  1  0  0  0
 73 76  1  0  0  0
 73 77  1  0  0  0
 73151  1  0  0  0
 73152  1  0  0  0
 74 86  1  0  0  0
 74153  1  0  0  0
 74154  1  0  0  0
 75155  1  0  0  0
 75156  1  0  0  0
 75 87  1  0  0  0
 76 87  1  0  0  0
 76157  1  0  0  0
 76158  1  0  0  0
 77 82  1  0  0  0
 77159  1  0  0  0
 78 79  1  0  0  0
 78 87  1  0  0  0
 78160  1  0  0  0
 79 85  1  0  0  0
 79 86  1  0  0  0
 79161  1  0  0  0
 80162  1  0  0  0
 80163  1  0  0  0
 80164  1  0  0  0
 80 85  1  0  0  0
 81 85  1  0  0  0
 81165  1  0  0  0
 81166  1  0  0  0
 81167  1  0  0  0
 82 83  1  0  0  0
 82168  1  0  0  0
 82169  1  0  0  0
 83 84  1  0  0  0
 83170  1  0  0  0
 83171  1  0  0  0
 84172  1  0  0  0
 84173  1  0  0  0
 85174  1  0  0  0
 87175  1  0  0  0
M  CHG  1  87   1
M  ISO  4   1 100  68 101  84 101  86 100
M  END
> <chiral flag>
0

> <version>
0

> <s_m_source_file>
/data/baiqing/PycharmProjects/Reinvent-master-3.2/result/LINK_invent/BTK/process_docking_weight1_custom_sum_contain_oxygen_bond_distance_aromatic_linkinvent_7_9_3/rearranged_h_0114.sdf

> <i_m_source_file_index>
19

> <r_mmod_Potential_Energy-OPLS-2005>
196.303176879883

> <r_mmod_Stretch_Energy-OPLS-2005>
45.2224273681641

> <r_mmod_Bend_Energy-OPLS-2005>
158.402389526367

> <r_mmod_Torsional_Energy-OPLS-2005>
396.321166992188

> <r_mmod_Improper_Torsional_Energy-OPLS-2005>
5.9203987121582

> <r_mmod_Van_der_Waal_Energy-OPLS-2005>
136.81494140625

> <r_mmod_Electrostatic_Energy-OPLS-2005>
-166.032852172852

> <r_mmod_Solvation_Energy-OPLS-2005>
-405.874694824219

> <b_mmod_Minimization_Converged-OPLS-2005>
0

> <r_mmod_RMS_Derivative-OPLS-2005>
2.07273411750793

$$$$
19
                    3D
 Structure written by MMmdl.
166174  0  0  1  0            999 V2000
  -30.5222  -14.9782   20.4450 C   0  0  0  0  0  0
  -30.4392  -12.6122   19.5253 C   0  0  0  0  0  0
  -29.5375  -12.5412   18.2763 C   0  0  0  0  0  0
  -28.0675  -12.3253   18.6832 C   0  0  0  0  0  0
  -27.6272  -13.2552   19.8461 C   0  0  2  0  0  0
  -28.6578  -13.2948   20.9868 C   0  0  0  0  0  0
  -25.2454  -13.8263   20.5711 C   0  0  0  0  0  0
  -24.1801  -13.0466   20.9216 C   0  0  0  0  0  0
  -24.6457  -11.6935   20.8768 C   0  0  0  0  0  0
  -23.9174  -10.4301   21.0437 C   0  0  0  0  0  0
  -24.3702   -9.4191   21.9216 C   0  0  0  0  0  0
  -23.6362   -8.2244   22.0748 C   0  0  0  0  0  0
  -22.4325   -8.0332   21.3563 C   0  0  0  0  0  0
  -22.0014   -9.0307   20.4635 C   0  0  0  0  0  0
  -22.7362  -10.2161   20.3059 C   0  0  0  0  0  0
  -21.6848   -6.0765   22.5269 C   0  0  0  0  0  0
  -21.4016   -6.5618   23.8220 C   0  0  0  0  0  0
  -21.3673   -5.6744   24.9162 C   0  0  0  0  0  0
  -21.6072   -4.3021   24.7165 C   0  0  0  0  0  0
  -21.8831   -3.8149   23.4274 C   0  0  0  0  0  0
  -21.9192   -4.6998   22.3353 C   0  0  0  0  0  0
  -22.7800  -13.5184   21.1870 C   0  0  0  0  0  0
  -22.1670   -4.2212   21.0927 F   0  0  0  0  0  0
  -21.5648   -3.4473   25.7659 F   0  0  0  0  0  0
  -29.9151  -13.7260   20.3706 N   0  0  0  0  0  0
  -26.2887  -12.9493   20.3261 N   0  0  0  0  0  0
  -25.9389  -11.6608   20.5763 N   0  0  0  0  0  0
  -22.0440  -12.8188   22.0435 N   0  0  0  0  0  0
  -25.4140  -15.2021   20.4137 N   0  0  0  0  0  0
  -31.7497  -14.9753   20.2821 O   0  0  0  0  0  0
  -21.6659   -6.8946   21.4250 O   0  0  0  0  0  0
  -22.3443  -14.5454   20.6667 O   0  0  0  0  0  0
  -24.6433  -31.8383   23.1852 C   0  0  0  0  0  0
  -25.9197  -32.4649   23.8256 C   0  0  1  0  0  0
  -27.2073  -27.1066   20.1694 C   0  0  0  0  0  0
  -25.5931  -33.8455   24.2193 N   0  0  0  0  0  0
  -23.4479  -30.4555   21.5316 C   0  0  2  0  0  0
  -24.8936  -28.8644   20.1230 C   0  0  0  0  0  0
  -22.7575  -29.4500   22.4882 C   0  0  0  0  0  0
  -18.0300  -28.1374   22.8465 C   0  0  0  0  0  0
  -24.1515  -36.7261   23.2657 C   0  0  0  0  0  0
  -26.0017  -30.7010   21.3862 C   0  0  0  0  0  0
  -26.0708  -29.3055   20.7388 C   0  0  0  0  0  0
  -27.2313  -28.4417   20.7431 C   0  0  0  0  0  0
  -26.0050  -26.7595   19.5242 C   0  0  0  0  0  0
  -24.8769  -27.6065   19.5001 C   0  0  0  0  0  0
  -23.6760  -29.7755   20.1548 C   0  0  0  0  0  0
  -25.4137  -36.3011   24.0331 C   0  0  1  0  0  0
  -20.5905  -28.3683   23.1228 C   0  0  2  0  0  0
  -20.6780  -26.9383   22.5388 C   0  0  0  0  0  0
  -19.5762  -26.6364   21.5194 C   0  0  0  0  0  0
  -18.1945  -26.7915   22.1615 C   0  0  0  0  0  0
  -19.1546  -28.8857   23.2844 C   0  0  0  0  0  0
  -18.9486  -30.1468   23.8851 C   0  0  0  0  0  0
  -17.6470  -30.6574   24.0544 C   0  0  0  0  0  0
  -25.9074  -34.9369   23.5077 C   0  0  0  0  0  0
  -16.5366  -29.9052   23.6329 C   0  0  0  0  0  0
  -16.7278  -28.6478   23.0335 C   0  0  0  0  0  0
  -26.4536  -31.6503   25.0671 C   0  0  0  0  0  0
  -25.3755  -31.3629   26.1389 C   0  0  0  0  0  0
  -27.0391  -30.2908   24.6233 C   0  0  0  0  0  0
  -27.6077  -32.4266   25.7436 C   0  0  0  0  0  0
  -27.5592  -37.1785   24.8468 C   0  0  0  0  0  0
  -21.4248  -29.3015   22.3621 N   0  0  0  0  0  0
  -26.4297  -37.3726   23.9408 N   0  0  0  0  0  0
  -24.7177  -31.0219   22.0911 N   0  0  0  0  0  0
  -23.4197  -28.8048   23.3025 O   0  0  0  0  0  0
  -28.2862  -26.1570   20.1015 O   0  0  0  0  0  0
  -26.5649  -34.8872   22.4657 O   0  0  0  0  0  0
  -23.5543  -32.1240   23.7056 O   0  0  0  0  0  0
  -29.5957  -19.0005   20.3909 C   0  0  0  0  0  0
  -28.8253  -20.2114   20.4553 C   0  0  0  0  0  0
  -29.2541  -17.4655   20.8986 C   0  0  0  0  0  0
  -30.9656  -17.8876   18.6033 C   0  0  0  0  0  0
  -29.9819  -16.6837   18.7464 C   0  0  0  0  0  0
  -31.0045  -18.8853   19.7988 C   0  0  2  0  0  0
  -30.3197  -22.8868   18.0974 C   0  0  0  0  0  0
  -32.0371  -18.4248   20.8812 C   0  0  0  0  0  0
  -27.9694  -23.1550   20.1597 C   0  0  0  0  0  0
  -28.3097  -24.7227   20.7236 C   0  0  0  0  0  0
  -28.9509  -21.7778   19.8675 C   0  0  1  0  0  0
  -29.8024  -16.1918   20.1244 N   0  0  0  0  0  0
  -33.4458  -18.5529   20.4671 N   0  3  0  0  0  0
  -30.3028  -22.1440   19.3803 N   0  3  0  0  0  0
  -31.4769  -12.7690   19.2300 H   0  0  0  0  0  0
  -30.4290  -11.6668   20.0689 H   0  0  0  0  0  0
  -29.8692  -11.7302   17.6283 H   0  0  0  0  0  0
  -29.6438  -13.4705   17.7114 H   0  0  0  0  0  0
  -27.9799  -11.2845   18.9994 H   0  0  0  0  0  0
  -27.4036  -12.4459   17.8242 H   0  0  0  0  0  0
  -27.5921  -14.2618   19.4300 H   0  0  0  0  0  0
  -28.7537  -12.3133   21.4549 H   0  0  0  0  0  0
  -28.3522  -13.9886   21.7719 H   0  0  0  0  0  0
  -25.2878   -9.5601   22.4760 H   0  0  0  0  0  0
  -24.0083   -7.4575   22.7388 H   0  0  0  0  0  0
  -21.0982   -8.8838   19.8866 H   0  0  0  0  0  0
  -22.3936  -10.9711   19.6112 H   0  0  0  0  0  0
  -21.2010   -7.6123   23.9751 H   0  0  0  0  0  0
  -21.1501   -6.0443   25.9074 H   0  0  0  0  0  0
  -22.0622   -2.7624   23.2706 H   0  0  0  0  0  0
  -22.4099  -11.9921   22.4927 H   0  0  0  0  0  0
  -21.1006  -13.1139   22.2510 H   0  0  0  0  0  0
  -24.6516  -15.8551   20.5460 H   0  0  0  0  0  0
  -26.2686  -15.6517   20.1037 H   0  0  0  0  0  0
  -26.7227  -32.5266   23.0956 H   0  0  0  0  0  0
  -25.0043  -33.9598   25.0316 H   0  0  0  0  0  0
  -22.7497  -31.2794   21.3682 H   0  0  0  0  0  0
  -23.3765  -35.9604   23.3274 H   0  0  0  0  0  0
  -24.3608  -36.8928   22.2076 H   0  0  0  0  0  0
  -23.7268  -37.6454   23.6705 H   0  0  0  0  0  0
  -26.1551  -31.4433   20.6028 H   0  0  0  0  0  0
  -26.8760  -30.7570   22.0269 H   0  0  0  0  0  0
  -28.1361  -28.7820   21.2258 H   0  0  0  0  0  0
  -25.9321  -25.8005   19.0317 H   0  0  0  0  0  0
  -23.9764  -27.2664   19.0089 H   0  0  0  0  0  0
  -23.8250  -30.5390   19.3891 H   0  0  0  0  0  0
  -22.7860  -29.2212   19.8454 H   0  0  0  0  0  0
  -25.1328  -36.1865   25.0818 H   0  0  0  0  0  0
  -20.9998  -28.3269   24.1357 H   0  0  0  0  0  0
  -20.5653  -26.2308   23.3614 H   0  0  0  0  0  0
  -21.6652  -26.7375   22.1214 H   0  0  0  0  0  0
  -19.6925  -25.6277   21.1236 H   0  0  0  0  0  0
  -19.6708  -27.3164   20.6713 H   0  0  0  0  0  0
  -17.4215  -26.6631   21.4018 H   0  0  0  0  0  0
  -18.0355  -26.0061   22.9020 H   0  0  0  0  0  0
  -19.7958  -30.7297   24.2186 H   0  0  0  0  0  0
  -17.5022  -31.6249   24.5148 H   0  0  0  0  0  0
  -15.5360  -30.2934   23.7707 H   0  0  0  0  0  0
  -15.8686  -28.0807   22.7040 H   0  0  0  0  0  0
  -24.5992  -30.6905   25.7727 H   0  0  0  0  0  0
  -24.8870  -32.2739   26.4819 H   0  0  0  0  0  0
  -25.8105  -30.8824   27.0163 H   0  0  0  0  0  0
  -26.2957  -29.6609   24.1331 H   0  0  0  0  0  0
  -27.4090  -29.7238   25.4785 H   0  0  0  0  0  0
  -27.8844  -30.4134   23.9467 H   0  0  0  0  0  0
  -27.2713  -33.3633   26.1899 H   0  0  0  0  0  0
  -28.3944  -32.6713   25.0281 H   0  0  0  0  0  0
  -28.0670  -31.8435   26.5435 H   0  0  0  0  0  0
  -28.2587  -38.0107   24.7517 H   0  0  0  0  0  0
  -28.1124  -36.2626   24.6306 H   0  0  0  0  0  0
  -27.2296  -37.1426   25.8870 H   0  0  0  0  0  0
  -20.9480  -29.8773   21.6843 H   0  0  0  0  0  0
  -26.0178  -38.2819   24.1359 H   0  0  0  0  0  0
  -27.8586  -20.0778   20.9202 H   0  0  0  0  0  0
  -29.5787  -17.3966   21.9391 H   0  0  0  0  0  0
  -28.1683  -17.3766   20.9361 H   0  0  0  0  0  0
  -30.6880  -18.4409   17.7023 H   0  0  0  0  0  0
  -31.9645  -17.5113   18.3814 H   0  0  0  0  0  0
  -29.0005  -16.9800   18.3772 H   0  0  0  0  0  0
  -30.3097  -15.8825   18.0803 H   0  0  0  0  0  0
  -31.3428  -19.8519   19.4391 H   0  0  0  0  0  0
  -29.8225  -23.8502   18.1923 H   0  0  0  0  0  0
  -29.8174  -22.3307   17.3051 H   0  0  0  0  0  0
  -31.3466  -23.0581   17.7743 H   0  0  0  0  0  0
  -31.9005  -17.3785   21.1328 H   0  0  0  0  0  0
  -31.8988  -18.9680   21.8163 H   0  0  0  0  0  0
  -27.3908  -23.3039   19.2464 H   0  0  0  0  0  0
  -27.2045  -22.8063   20.8520 H   0  0  0  0  0  0
  -29.3059  -24.6353   21.1588 H   0  0  0  0  0  0
  -27.6861  -24.8414   21.6115 H   0  0  0  0  0  0
  -28.4723  -21.4685   18.9352 H   0  0  0  0  0  0
  -33.5504  -18.4070   19.4803 H   0  0  0  0  0  0
  -34.0062  -17.8707   20.9473 H   0  0  0  0  0  0
  -33.8056  -19.4552   20.7278 H   0  0  0  0  0  0
  -30.7990  -22.6757   20.0771 H   0  0  0  0  0  0
  -30.8294  -21.3010   19.2294 H   0  0  0  0  0  0
  1 25  1  0  0  0
  1 30  2  0  0  0
  1 82  1  0  0  0
  2  3  1  0  0  0
  2 25  1  0  0  0
  2 85  1  0  0  0
  2 86  1  0  0  0
  3  4  1  0  0  0
  3 87  1  0  0  0
  3 88  1  0  0  0
  4  5  1  0  0  0
  4 89  1  0  0  0
  4 90  1  0  0  0
  5  6  1  0  0  0
  5 26  1  0  0  0
  5 91  1  0  0  0
  6 25  1  0  0  0
  6 92  1  0  0  0
  6 93  1  0  0  0
  7  8  2  0  0  0
  7 26  1  0  0  0
  7 29  1  0  0  0
  8  9  1  0  0  0
  8 22  1  0  0  0
  9 10  1  0  0  0
  9 27  2  0  0  0
 10 11  2  0  0  0
 10 15  1  0  0  0
 11 12  1  0  0  0
 11 94  1  0  0  0
 12 13  2  0  0  0
 12 95  1  0  0  0
 13 14  1  0  0  0
 13 31  1  0  0  0
 14 15  2  0  0  0
 14 96  1  0  0  0
 15 97  1  0  0  0
 16 17  2  0  0  0
 16 21  1  0  0  0
 16 31  1  0  0  0
 17 18  1  0  0  0
 17 98  1  0  0  0
 18 19  2  0  0  0
 18 99  1  0  0  0
 19 20  1  0  0  0
 19 24  1  0  0  0
 20 21  2  0  0  0
 20100  1  0  0  0
 21 23  1  0  0  0
 22 28  1  0  0  0
 22 32  2  0  0  0
 26 27  1  0  0  0
 28101  1  0  0  0
 28102  1  0  0  0
 29103  1  0  0  0
 29104  1  0  0  0
 33 34  1  0  0  0
 33 66  1  0  0  0
 33 70  2  0  0  0
 34 36  1  0  0  0
 34 59  1  0  0  0
 34105  1  0  0  0
 35 44  2  0  0  0
 35 45  1  0  0  0
 35 68  1  0  0  0
 36 56  1  0  0  0
 36106  1  0  0  0
 37 39  1  0  0  0
 37 47  1  0  0  0
 37 66  1  0  0  0
 37107  1  0  0  0
 38 43  2  0  0  0
 38 46  1  0  0  0
 38 47  1  0  0  0
 39 64  1  0  0  0
 39 67  2  0  0  0
 40 52  1  0  0  0
 40 53  2  0  0  0
 40 58  1  0  0  0
 41108  1  0  0  0
 41109  1  0  0  0
 41110  1  0  0  0
 41 48  1  0  0  0
 42 43  1  0  0  0
 42 66  1  0  0  0
 42111  1  0  0  0
 42112  1  0  0  0
 43 44  1  0  0  0
 44113  1  0  0  0
 45 46  2  0  0  0
 45114  1  0  0  0
 46115  1  0  0  0
 47116  1  0  0  0
 47117  1  0  0  0
 48 56  1  0  0  0
 48 65  1  0  0  0
 48118  1  0  0  0
 49 50  1  0  0  0
 49 53  1  0  0  0
 49 64  1  0  0  0
 49119  1  0  0  0
 50 51  1  0  0  0
 50120  1  0  0  0
 50121  1  0  0  0
 51 52  1  0  0  0
 51122  1  0  0  0
 51123  1  0  0  0
 52124  1  0  0  0
 52125  1  0  0  0
 53 54  1  0  0  0
 54 55  2  0  0  0
 54126  1  0  0  0
 55 57  1  0  0  0
 55127  1  0  0  0
 56 69  2  0  0  0
 57 58  2  0  0  0
 57128  1  0  0  0
 58129  1  0  0  0
 59 60  1  0  0  0
 59 61  1  0  0  0
 59 62  1  0  0  0
 60130  1  0  0  0
 60131  1  0  0  0
 60132  1  0  0  0
 61133  1  0  0  0
 61134  1  0  0  0
 61135  1  0  0  0
 62136  1  0  0  0
 62137  1  0  0  0
 62138  1  0  0  0
 63 65  1  0  0  0
 63139  1  0  0  0
 63140  1  0  0  0
 63141  1  0  0  0
 64142  1  0  0  0
 65143  1  0  0  0
 68 80  1  0  0  0
 71 72  2  0  0  0
 71 73  1  0  0  0
 71 76  1  0  0  0
 72 81  1  0  0  0
 72144  1  0  0  0
 73 82  1  0  0  0
 73145  1  0  0  0
 73146  1  0  0  0
 74 75  1  0  0  0
 74 76  1  0  0  0
 74147  1  0  0  0
 74148  1  0  0  0
 75 82  1  0  0  0
 75149  1  0  0  0
 75150  1  0  0  0
 76 78  1  0  0  0
 76151  1  0  0  0
 77 84  1  0  0  0
 77152  1  0  0  0
 77153  1  0  0  0
 77154  1  0  0  0
 78 83  1  0  0  0
 78155  1  0  0  0
 78156  1  0  0  0
 79 80  1  0  0  0
 79157  1  0  0  0
 79158  1  0  0  0
 79 81  1  0  0  0
 80159  1  0  0  0
 80160  1  0  0  0
 81 84  1  0  0  0
 81161  1  0  0  0
 83162  1  0  0  0
 83163  1  0  0  0
 83164  1  0  0  0
 84165  1  0  0  0
 84166  1  0  0  0
M  CHG  2  83   1  84   1
M  ISO  4   1 100  68 101  80 101  82 100
M  END
> <chiral flag>
0

> <version>
0

> <s_m_source_file>
/data/baiqing/PycharmProjects/Reinvent-master-3.2/result/LINK_invent/BTK/process_docking_weight1_custom_sum_contain_oxygen_bond_distance_aromatic_linkinvent_7_9_3/rearranged_h_0114.sdf

> <i_m_source_file_index>
20

> <r_mmod_Potential_Energy-OPLS-2005>
552.468383789062

> <r_mmod_Stretch_Energy-OPLS-2005>
308.971740722656

> <r_mmod_Bend_Energy-OPLS-2005>
385.461883544922

> <r_mmod_Torsional_Energy-OPLS-2005>
388.557006835938

> <r_mmod_Improper_Torsional_Energy-OPLS-2005>
22.1194286346436

> <r_mmod_Van_der_Waal_Energy-OPLS-2005>
119.802696228027

> <r_mmod_Electrostatic_Energy-OPLS-2005>
94.0216674804688

> <r_mmod_Solvation_Energy-OPLS-2005>
-976.606872558594

> <b_mmod_Minimization_Converged-OPLS-2005>
0

> <r_mmod_RMS_Derivative-OPLS-2005>
7.11814594268799

$$$$
20
                    3D
 Structure written by MMmdl.
169177  0  0  1  0            999 V2000
  -30.6558  -14.5750   20.5575 C   0  0  0  0  0  0
  -30.4314  -12.3726   19.4267 C   0  0  0  0  0  0
  -29.4973  -12.5150   18.2063 C   0  0  0  0  0  0
  -28.0186  -12.3595   18.6186 C   0  0  0  0  0  0
  -27.6506  -13.2151   19.8617 C   0  0  2  0  0  0
  -28.6969  -13.0426   20.9841 C   0  0  0  0  0  0
  -25.2542  -13.8182   20.5697 C   0  0  0  0  0  0
  -24.1809  -13.0447   20.9199 C   0  0  0  0  0  0
  -24.6372  -11.6921   20.8752 C   0  0  0  0  0  0
  -23.9047  -10.4297   21.0419 C   0  0  0  0  0  0
  -24.3610   -9.4217   21.9191 C   0  0  0  0  0  0
  -23.6304   -8.2242   22.0762 C   0  0  0  0  0  0
  -22.4284   -8.0274   21.3556 C   0  0  0  0  0  0
  -21.9906   -9.0240   20.4656 C   0  0  0  0  0  0
  -22.7227  -10.2127   20.3069 C   0  0  0  0  0  0
  -21.6851   -6.0736   22.5283 C   0  0  0  0  0  0
  -21.4003   -6.5641   23.8215 C   0  0  0  0  0  0
  -21.3660   -5.6797   24.9179 C   0  0  0  0  0  0
  -21.6056   -4.3058   24.7223 C   0  0  0  0  0  0
  -21.8822   -3.8150   23.4341 C   0  0  0  0  0  0
  -21.9189   -4.6962   22.3397 C   0  0  0  0  0  0
  -22.7829  -13.5231   21.1855 C   0  0  0  0  0  0
  -22.1661   -4.2153   21.0973 F   0  0  0  0  0  0
  -21.5638   -3.4540   25.7732 F   0  0  0  0  0  0
  -30.0108  -13.3790   20.4163 N   0  0  0  0  0  0
  -26.2961  -12.9361   20.3321 N   0  0  0  0  0  0
  -25.9295  -11.6514   20.5753 N   0  0  0  0  0  0
  -22.0462  -12.8232   22.0411 N   0  0  0  0  0  0
  -25.4250  -15.1915   20.4136 N   0  0  0  0  0  0
  -31.8251  -14.7286   20.2030 O   0  0  0  0  0  0
  -21.6657   -6.8871   21.4244 O   0  0  0  0  0  0
  -22.3523  -14.5531   20.6689 O   0  0  0  0  0  0
  -24.6200  -31.8625   23.2040 C   0  0  0  0  0  0
  -25.9075  -32.4786   23.8357 C   0  0  1  0  0  0
  -27.2324  -27.3703   20.1219 C   0  0  0  0  0  0
  -25.5925  -33.8585   24.2301 N   0  0  0  0  0  0
  -23.4118  -30.4835   21.5457 C   0  0  2  0  0  0
  -24.8597  -28.9351   20.1187 C   0  0  0  0  0  0
  -22.7438  -29.4638   22.4970 C   0  0  0  0  0  0
  -18.0282  -28.1368   22.8495 C   0  0  0  0  0  0
  -24.1490  -36.7306   23.2639 C   0  0  0  0  0  0
  -25.9449  -30.8096   21.3645 C   0  0  0  0  0  0
  -26.0228  -29.4368   20.7162 C   0  0  0  0  0  0
  -27.2145  -28.6656   20.7067 C   0  0  0  0  0  0
  -26.0516  -26.8963   19.5128 C   0  0  0  0  0  0
  -24.8721  -27.6679   19.5094 C   0  0  0  0  0  0
  -23.6248  -29.8110   20.1630 C   0  0  0  0  0  0
  -25.4110  -36.3094   24.0338 C   0  0  1  0  0  0
  -20.5875  -28.3671   23.1310 C   0  0  2  0  0  0
  -20.6773  -26.9406   22.5417 C   0  0  0  0  0  0
  -19.5756  -26.6380   21.5214 C   0  0  0  0  0  0
  -18.1931  -26.7920   22.1616 C   0  0  0  0  0  0
  -19.1528  -28.8831   23.2900 C   0  0  0  0  0  0
  -18.9452  -30.1431   23.8917 C   0  0  0  0  0  0
  -17.6456  -30.6580   24.0552 C   0  0  0  0  0  0
  -25.9045  -34.9458   23.5123 C   0  0  0  0  0  0
  -16.5351  -29.9080   23.6318 C   0  0  0  0  0  0
  -16.7266  -28.6488   23.0363 C   0  0  0  0  0  0
  -26.4490  -31.6564   25.0696 C   0  0  0  0  0  0
  -25.3747  -31.3676   26.1440 C   0  0  0  0  0  0
  -27.0312  -30.2999   24.6076 C   0  0  0  0  0  0
  -27.6079  -32.4262   25.7463 C   0  0  0  0  0  0
  -27.5582  -37.1810   24.8461 C   0  0  0  0  0  0
  -21.4160  -29.3033   22.3708 N   0  0  0  0  0  0
  -26.4291  -37.3780   23.9407 N   0  0  0  0  0  0
  -24.6773  -31.0680   22.0963 N   0  0  0  0  0  0
  -23.4186  -28.8193   23.3039 O   0  0  0  0  0  0
  -28.3787  -26.5866   20.1092 O   0  0  0  0  0  0
  -26.5608  -34.8923   22.4683 O   0  0  0  0  0  0
  -23.5374  -32.1398   23.7406 O   0  0  0  0  0  0
  -29.1473  -19.0405   20.8713 C   0  0  0  0  0  0
  -29.4750  -20.2064   20.2005 C   0  0  0  0  0  0
  -30.8387  -20.0264   19.8011 C   0  0  0  0  0  0
  -31.2646  -18.7718   20.1959 C   0  0  0  0  0  0
  -31.6599  -21.0727   19.0793 C   0  0  0  0  0  0
  -27.0835  -21.0844   19.9579 C   0  0  0  0  0  0
  -33.7366  -18.8770   20.7212 C   0  0  0  0  0  0
  -32.9352  -17.7923   18.5503 C   0  0  0  0  0  0
  -28.5606  -24.0134   19.8541 C   0  0  0  0  0  0
  -28.3146  -25.2780   20.7609 C   0  0  0  0  0  0
  -30.3004  -16.8673   21.6599 C   0  0  0  0  0  0
  -28.5760  -21.4377   19.8533 C   0  0  1  0  0  0
  -32.6104  -18.1051   20.0196 C   0  0  0  0  0  0
  -30.2289  -18.1525   20.8954 N   0  0  0  0  0  0
  -29.8876  -15.6122   20.9817 N   0  0  0  0  0  0
  -28.8707  -22.7191   20.5850 N   0  3  0  0  0  0
  -31.4705  -12.5035   19.1223 H   0  0  0  0  0  0
  -30.3652  -11.3701   19.8512 H   0  0  0  0  0  0
  -29.7588  -11.7794   17.4438 H   0  0  0  0  0  0
  -29.6457  -13.4928   17.7462 H   0  0  0  0  0  0
  -27.8396  -11.3034   18.8261 H   0  0  0  0  0  0
  -27.3688  -12.6174   17.7816 H   0  0  0  0  0  0
  -27.6763  -14.2562   19.5395 H   0  0  0  0  0  0
  -28.7045  -12.0165   21.3520 H   0  0  0  0  0  0
  -28.4503  -13.6616   21.8477 H   0  0  0  0  0  0
  -25.2751   -9.5704   22.4757 H   0  0  0  0  0  0
  -24.0032   -7.4630   22.7473 H   0  0  0  0  0  0
  -21.0841   -8.8746   19.8951 H   0  0  0  0  0  0
  -22.3686  -10.9659   19.6178 H   0  0  0  0  0  0
  -21.1987   -7.6150   23.9719 H   0  0  0  0  0  0
  -21.1493   -6.0526   25.9087 H   0  0  0  0  0  0
  -22.0599   -2.7611   23.2840 H   0  0  0  0  0  0
  -22.4069  -11.9899   22.4818 H   0  0  0  0  0  0
  -21.1076  -13.1259   22.2596 H   0  0  0  0  0  0
  -24.6565  -15.8434   20.5271 H   0  0  0  0  0  0
  -26.2702  -15.6349   20.0764 H   0  0  0  0  0  0
  -26.7150  -32.5489   23.1120 H   0  0  0  0  0  0
  -25.0087  -33.9727   25.0455 H   0  0  0  0  0  0
  -22.7040  -31.3022   21.4020 H   0  0  0  0  0  0
  -23.3760  -35.9631   23.3283 H   0  0  0  0  0  0
  -24.3590  -36.8935   22.2056 H   0  0  0  0  0  0
  -23.7232  -37.6502   23.6664 H   0  0  0  0  0  0
  -26.0616  -31.5696   20.5910 H   0  0  0  0  0  0
  -26.8317  -30.8672   21.9839 H   0  0  0  0  0  0
  -28.1128  -29.0497   21.1697 H   0  0  0  0  0  0
  -26.0424  -25.9268   19.0352 H   0  0  0  0  0  0
  -23.9798  -27.2799   19.0379 H   0  0  0  0  0  0
  -23.7405  -30.5836   19.4017 H   0  0  0  0  0  0
  -22.7469  -29.2353   19.8643 H   0  0  0  0  0  0
  -25.1293  -36.1951   25.0832 H   0  0  0  0  0  0
  -20.9959  -28.3232   24.1434 H   0  0  0  0  0  0
  -20.5674  -26.2280   23.3604 H   0  0  0  0  0  0
  -21.6642  -26.7446   22.1208 H   0  0  0  0  0  0
  -19.6922  -25.6292   21.1241 H   0  0  0  0  0  0
  -19.6698  -27.3185   20.6743 H   0  0  0  0  0  0
  -17.4207  -26.6673   21.4010 H   0  0  0  0  0  0
  -18.0328  -26.0044   22.8991 H   0  0  0  0  0  0
  -19.7922  -30.7231   24.2312 H   0  0  0  0  0  0
  -17.5012  -31.6269   24.5137 H   0  0  0  0  0  0
  -15.5352  -30.2994   23.7619 H   0  0  0  0  0  0
  -15.8665  -28.0800   22.7099 H   0  0  0  0  0  0
  -24.5922  -30.7026   25.7766 H   0  0  0  0  0  0
  -24.8941  -32.2830   26.4902 H   0  0  0  0  0  0
  -25.8091  -30.8825   27.0190 H   0  0  0  0  0  0
  -26.2837  -29.6754   24.1164 H   0  0  0  0  0  0
  -27.4119  -29.7239   25.4523 H   0  0  0  0  0  0
  -27.8670  -30.4314   23.9196 H   0  0  0  0  0  0
  -27.2742  -33.3586   26.2028 H   0  0  0  0  0  0
  -28.3914  -32.6758   25.0296 H   0  0  0  0  0  0
  -28.0716  -31.8369   26.5383 H   0  0  0  0  0  0
  -28.2600  -38.0106   24.7518 H   0  0  0  0  0  0
  -28.1088  -36.2648   24.6286 H   0  0  0  0  0  0
  -27.2314  -37.1444   25.8866 H   0  0  0  0  0  0
  -20.9327  -29.8749   21.6922 H   0  0  0  0  0  0
  -26.0189  -38.2865   24.1392 H   0  0  0  0  0  0
  -28.2222  -18.7598   21.3572 H   0  0  0  0  0  0
  -31.0637  -21.6083   18.3408 H   0  0  0  0  0  0
  -32.5126  -20.6517   18.5559 H   0  0  0  0  0  0
  -32.0436  -21.7983   19.7963 H   0  0  0  0  0  0
  -26.8492  -20.2233   19.3308 H   0  0  0  0  0  0
  -26.4501  -21.9061   19.6245 H   0  0  0  0  0  0
  -26.7983  -20.8362   20.9806 H   0  0  0  0  0  0
  -33.5173  -18.9907   21.7842 H   0  0  0  0  0  0
  -33.8807  -19.8727   20.3043 H   0  0  0  0  0  0
  -34.6852  -18.3463   20.6394 H   0  0  0  0  0  0
  -32.1598  -17.1641   18.1111 H   0  0  0  0  0  0
  -33.8785  -17.2515   18.4665 H   0  0  0  0  0  0
  -33.0189  -18.6828   17.9324 H   0  0  0  0  0  0
  -29.3971  -24.2175   19.1842 H   0  0  0  0  0  0
  -27.6882  -23.8800   19.2146 H   0  0  0  0  0  0
  -29.0813  -25.2995   21.5360 H   0  0  0  0  0  0
  -27.3705  -25.1637   21.2967 H   0  0  0  0  0  0
  -29.6383  -16.9763   22.5192 H   0  0  0  0  0  0
  -31.2873  -16.7539   22.1103 H   0  0  0  0  0  0
  -28.7755  -21.6383   18.7994 H   0  0  0  0  0  0
  -32.6058  -17.1313   20.4981 H   0  0  0  0  0  0
  -28.9185  -15.3735   21.1132 H   0  0  0  0  0  0
  -28.3746  -22.6874   21.4615 H   0  0  0  0  0  0
  -29.8528  -22.7160   20.8110 H   0  0  0  0  0  0
  1 25  1  0  0  0
  1 30  2  0  0  0
  1 85  1  0  0  0
  2  3  1  0  0  0
  2 25  1  0  0  0
  2 87  1  0  0  0
  2 88  1  0  0  0
  3  4  1  0  0  0
  3 89  1  0  0  0
  3 90  1  0  0  0
  4  5  1  0  0  0
  4 91  1  0  0  0
  4 92  1  0  0  0
  5  6  1  0  0  0
  5 26  1  0  0  0
  5 93  1  0  0  0
  6 25  1  0  0  0
  6 94  1  0  0  0
  6 95  1  0  0  0
  7  8  2  0  0  0
  7 26  1  0  0  0
  7 29  1  0  0  0
  8  9  1  0  0  0
  8 22  1  0  0  0
  9 10  1  0  0  0
  9 27  2  0  0  0
 10 11  2  0  0  0
 10 15  1  0  0  0
 11 12  1  0  0  0
 11 96  1  0  0  0
 12 13  2  0  0  0
 12 97  1  0  0  0
 13 14  1  0  0  0
 13 31  1  0  0  0
 14 15  2  0  0  0
 14 98  1  0  0  0
 15 99  1  0  0  0
 16 17  2  0  0  0
 16 21  1  0  0  0
 16 31  1  0  0  0
 17 18  1  0  0  0
 17100  1  0  0  0
 18 19  2  0  0  0
 18101  1  0  0  0
 19 20  1  0  0  0
 19 24  1  0  0  0
 20 21  2  0  0  0
 20102  1  0  0  0
 21 23  1  0  0  0
 22 28  1  0  0  0
 22 32  2  0  0  0
 26 27  1  0  0  0
 28103  1  0  0  0
 28104  1  0  0  0
 29105  1  0  0  0
 29106  1  0  0  0
 33 34  1  0  0  0
 33 66  1  0  0  0
 33 70  2  0  0  0
 34 36  1  0  0  0
 34 59  1  0  0  0
 34107  1  0  0  0
 35 44  2  0  0  0
 35 45  1  0  0  0
 35 68  1  0  0  0
 36 56  1  0  0  0
 36108  1  0  0  0
 37 39  1  0  0  0
 37 47  1  0  0  0
 37 66  1  0  0  0
 37109  1  0  0  0
 38 43  2  0  0  0
 38 46  1  0  0  0
 38 47  1  0  0  0
 39 64  1  0  0  0
 39 67  2  0  0  0
 40 52  1  0  0  0
 40 53  2  0  0  0
 40 58  1  0  0  0
 41110  1  0  0  0
 41111  1  0  0  0
 41112  1  0  0  0
 41 48  1  0  0  0
 42 43  1  0  0  0
 42 66  1  0  0  0
 42113  1  0  0  0
 42114  1  0  0  0
 43 44  1  0  0  0
 44115  1  0  0  0
 45 46  2  0  0  0
 45116  1  0  0  0
 46117  1  0  0  0
 47118  1  0  0  0
 47119  1  0  0  0
 48 56  1  0  0  0
 48 65  1  0  0  0
 48120  1  0  0  0
 49 50  1  0  0  0
 49 53  1  0  0  0
 49 64  1  0  0  0
 49121  1  0  0  0
 50 51  1  0  0  0
 50122  1  0  0  0
 50123  1  0  0  0
 51 52  1  0  0  0
 51124  1  0  0  0
 51125  1  0  0  0
 52126  1  0  0  0
 52127  1  0  0  0
 53 54  1  0  0  0
 54 55  2  0  0  0
 54128  1  0  0  0
 55 57  1  0  0  0
 55129  1  0  0  0
 56 69  2  0  0  0
 57 58  2  0  0  0
 57130  1  0  0  0
 58131  1  0  0  0
 59 60  1  0  0  0
 59 61  1  0  0  0
 59 62  1  0  0  0
 60132  1  0  0  0
 60133  1  0  0  0
 60134  1  0  0  0
 61135  1  0  0  0
 61136  1  0  0  0
 61137  1  0  0  0
 62138  1  0  0  0
 62139  1  0  0  0
 62140  1  0  0  0
 63 65  1  0  0  0
 63141  1  0  0  0
 63142  1  0  0  0
 63143  1  0  0  0
 64144  1  0  0  0
 65145  1  0  0  0
 68 80  1  0  0  0
 71 72  2  0  0  0
 71 84  1  0  0  0
 71146  1  0  0  0
 72 73  1  0  0  0
 72 82  1  0  0  0
 73 74  2  0  0  0
 73 75  1  0  0  0
 74 83  1  0  0  0
 74 84  1  0  0  0
 75147  1  0  0  0
 75148  1  0  0  0
 75149  1  0  0  0
 76150  1  0  0  0
 76151  1  0  0  0
 76152  1  0  0  0
 76 82  1  0  0  0
 77153  1  0  0  0
 77154  1  0  0  0
 77155  1  0  0  0
 77 83  1  0  0  0
 78 83  1  0  0  0
 78156  1  0  0  0
 78157  1  0  0  0
 78158  1  0  0  0
 79 80  1  0  0  0
 79 86  1  0  0  0
 79159  1  0  0  0
 79160  1  0  0  0
 80161  1  0  0  0
 80162  1  0  0  0
 81 84  1  0  0  0
 81 85  1  0  0  0
 81163  1  0  0  0
 81164  1  0  0  0
 82 86  1  0  0  0
 82165  1  0  0  0
 83166  1  0  0  0
 85167  1  0  0  0
 86168  1  0  0  0
 86169  1  0  0  0
M  CHG  1  86   1
M  ISO  4   1 100  68 101  80 101  85 100
M  END
> <chiral flag>
0

> <version>
0

> <s_m_source_file>
/data/baiqing/PycharmProjects/Reinvent-master-3.2/result/LINK_invent/BTK/process_docking_weight1_custom_sum_contain_oxygen_bond_distance_aromatic_linkinvent_7_9_3/rearranged_h_0114.sdf

> <i_m_source_file_index>
21

> <r_mmod_Potential_Energy-OPLS-2005>
-246.514862060547

> <r_mmod_Stretch_Energy-OPLS-2005>
58.7521018981934

> <r_mmod_Bend_Energy-OPLS-2005>
130.153762817383

> <r_mmod_Torsional_Energy-OPLS-2005>
245.798446655273

> <r_mmod_Improper_Torsional_Energy-OPLS-2005>
4.78915596008301

> <r_mmod_Van_der_Waal_Energy-OPLS-2005>
114.095001220703

> <r_mmod_Electrostatic_Energy-OPLS-2005>
-397.780151367188

> <r_mmod_Solvation_Energy-OPLS-2005>
-431.752258300781

> <b_mmod_Minimization_Converged-OPLS-2005>
0

> <r_mmod_RMS_Derivative-OPLS-2005>
1.87963223457336

$$$$
21
                    3D
 Structure written by MMmdl.
164172  0  0  1  0            999 V2000
  -30.5971  -14.8201   20.4456 C   0  0  0  0  0  0
  -30.4295  -12.5041   19.4724 C   0  0  0  0  0  0
  -29.4979  -12.4952   18.2395 C   0  0  0  0  0  0
  -28.0331  -12.3028   18.6696 C   0  0  0  0  0  0
  -27.6317  -13.2303   19.8460 C   0  0  2  0  0  0
  -28.6827  -13.2205   20.9773 C   0  0  0  0  0  0
  -25.2475  -13.8190   20.5724 C   0  0  0  0  0  0
  -24.1770  -13.0439   20.9248 C   0  0  0  0  0  0
  -24.6351  -11.6924   20.8778 C   0  0  0  0  0  0
  -23.9040  -10.4301   21.0418 C   0  0  0  0  0  0
  -24.3594   -9.4220   21.9195 C   0  0  0  0  0  0
  -23.6294   -8.2241   22.0748 C   0  0  0  0  0  0
  -22.4283   -8.0261   21.3542 C   0  0  0  0  0  0
  -21.9915   -9.0220   20.4632 C   0  0  0  0  0  0
  -22.7226  -10.2115   20.3048 C   0  0  0  0  0  0
  -21.6856   -6.0711   22.5273 C   0  0  0  0  0  0
  -21.4002   -6.5630   23.8201 C   0  0  0  0  0  0
  -21.3667   -5.6792   24.9169 C   0  0  0  0  0  0
  -21.6048   -4.3051   24.7225 C   0  0  0  0  0  0
  -21.8822   -3.8132   23.4354 C   0  0  0  0  0  0
  -21.9195   -4.6940   22.3406 C   0  0  0  0  0  0
  -22.7800  -13.5212   21.1908 C   0  0  0  0  0  0
  -22.1667   -4.2124   21.0981 F   0  0  0  0  0  0
  -21.5642   -3.4547   25.7740 F   0  0  0  0  0  0
  -29.9667  -13.5922   20.3735 N   0  0  0  0  0  0
  -26.2875  -12.9377   20.3325 N   0  0  0  0  0  0
  -25.9287  -11.6541   20.5830 N   0  0  0  0  0  0
  -22.0444  -12.8142   22.0408 N   0  0  0  0  0  0
  -25.4188  -15.1908   20.4065 N   0  0  0  0  0  0
  -31.8008  -14.8809   20.1809 O   0  0  0  0  0  0
  -21.6655   -6.8856   21.4231 O   0  0  0  0  0  0
  -22.3503  -14.5539   20.6794 O   0  0  0  0  0  0
  -24.6353  -31.8469   23.1907 C   0  0  0  0  0  0
  -25.9150  -32.4719   23.8291 C   0  0  1  0  0  0
  -27.2197  -27.1873   20.1498 C   0  0  0  0  0  0
  -25.5985  -33.8537   24.2241 N   0  0  0  0  0  0
  -23.4397  -30.4701   21.5325 C   0  0  2  0  0  0
  -24.8890  -28.9054   20.0998 C   0  0  0  0  0  0
  -22.7552  -29.4580   22.4838 C   0  0  0  0  0  0
  -18.0315  -28.1392   22.8482 C   0  0  0  0  0  0
  -24.1497  -36.7233   23.2651 C   0  0  0  0  0  0
  -25.9865  -30.7418   21.3746 C   0  0  0  0  0  0
  -26.0583  -29.3556   20.7247 C   0  0  0  0  0  0
  -27.2186  -28.5094   20.7372 C   0  0  0  0  0  0
  -26.0275  -26.8290   19.4776 C   0  0  0  0  0  0
  -24.8838  -27.6567   19.4628 C   0  0  0  0  0  0
  -23.6610  -29.8007   20.1485 C   0  0  0  0  0  0
  -25.4121  -36.3040   24.0342 C   0  0  1  0  0  0
  -20.5919  -28.3709   23.1232 C   0  0  2  0  0  0
  -20.6779  -26.9418   22.5390 C   0  0  0  0  0  0
  -19.5796  -26.6377   21.5160 C   0  0  0  0  0  0
  -18.1958  -26.7951   22.1560 C   0  0  0  0  0  0
  -19.1558  -28.8849   23.2867 C   0  0  0  0  0  0
  -18.9487  -30.1438   23.8893 C   0  0  0  0  0  0
  -17.6486  -30.6575   24.0557 C   0  0  0  0  0  0
  -25.9087  -34.9419   23.5086 C   0  0  0  0  0  0
  -16.5362  -29.9074   23.6317 C   0  0  0  0  0  0
  -16.7301  -28.6497   23.0334 C   0  0  0  0  0  0
  -26.4494  -31.6561   25.0707 C   0  0  0  0  0  0
  -25.3716  -31.3648   26.1423 C   0  0  0  0  0  0
  -27.0361  -30.3001   24.6163 C   0  0  0  0  0  0
  -27.6137  -32.4229   25.7437 C   0  0  0  0  0  0
  -27.5570  -37.1793   24.8472 C   0  0  0  0  0  0
  -21.4232  -29.3048   22.3607 N   0  0  0  0  0  0
  -26.4274  -37.3743   23.9443 N   0  0  0  0  0  0
  -24.7077  -31.0421   22.0887 N   0  0  0  0  0  0
  -23.4234  -28.8098   23.2926 O   0  0  0  0  0  0
  -28.3106  -26.2696   20.2532 O   0  0  0  0  0  0
  -26.5630  -34.8925   22.4639 O   0  0  0  0  0  0
  -23.5497  -32.1284   23.7211 O   0  0  0  0  0  0
  -30.6662  -20.0707   20.1246 C   0  0  0  0  0  0
  -28.0594  -20.8575   20.8410 C   0  0  0  0  0  0
  -29.1748  -21.9872   20.8064 C   0  0  2  0  0  0
  -29.6220  -18.8797   20.2736 C   0  0  1  0  0  0
  -31.8863  -22.1664   18.1544 C   0  0  0  0  0  0
  -32.3957  -22.4142   20.6363 C   0  0  0  0  0  0
  -28.8070  -23.6183   20.9637 C   0  0  0  0  0  0
  -30.3715  -17.4576   20.7219 C   0  0  0  0  0  0
  -28.2725  -24.7686   19.9110 C   0  0  0  0  0  0
  -31.2886  -22.4051   19.5550 C   0  0  0  0  0  0
  -30.1733  -21.4703   19.8161 N   0  0  0  0  0  0
  -29.8499  -15.9986   20.6090 N   0  0  0  0  0  0
  -28.5667  -19.4563   21.1843 N   0  3  0  0  0  0
  -31.4652  -12.6410   19.1564 H   0  0  0  0  0  0
  -30.4002  -11.5412   19.9870 H   0  0  0  0  0  0
  -29.7891  -11.7047   17.5461 H   0  0  0  0  0  0
  -29.5934  -13.4349   17.6929 H   0  0  0  0  0  0
  -27.9141  -11.2607   18.9666 H   0  0  0  0  0  0
  -27.3612  -12.4493   17.8252 H   0  0  0  0  0  0
  -27.6114  -14.2377   19.4313 H   0  0  0  0  0  0
  -28.7477  -12.2394   21.4485 H   0  0  0  0  0  0
  -28.4123  -13.9236   21.7674 H   0  0  0  0  0  0
  -25.2725   -9.5712   22.4805 H   0  0  0  0  0  0
  -24.0006   -7.4623   22.7467 H   0  0  0  0  0  0
  -21.0864   -8.8713   19.8926 H   0  0  0  0  0  0
  -22.3674  -10.9639   19.6154 H   0  0  0  0  0  0
  -21.1975   -7.6146   23.9689 H   0  0  0  0  0  0
  -21.1499   -6.0535   25.9074 H   0  0  0  0  0  0
  -22.0594   -2.7598   23.2856 H   0  0  0  0  0  0
  -22.4061  -11.9717   22.4636 H   0  0  0  0  0  0
  -21.1050  -13.1132   22.2657 H   0  0  0  0  0  0
  -24.6453  -15.8411   20.4856 H   0  0  0  0  0  0
  -26.2441  -15.6077   19.9944 H   0  0  0  0  0  0
  -26.7231  -32.5326   23.1049 H   0  0  0  0  0  0
  -25.0249  -33.9663   25.0449 H   0  0  0  0  0  0
  -22.7409  -31.2939   21.3767 H   0  0  0  0  0  0
  -23.3785  -35.9547   23.3286 H   0  0  0  0  0  0
  -24.3660  -36.8836   22.2081 H   0  0  0  0  0  0
  -23.7189  -37.6415   23.6670 H   0  0  0  0  0  0
  -26.1208  -31.4887   20.5905 H   0  0  0  0  0  0
  -26.8673  -30.8062   22.0023 H   0  0  0  0  0  0
  -28.1046  -28.8474   21.2577 H   0  0  0  0  0  0
  -25.9335  -25.8836   18.9716 H   0  0  0  0  0  0
  -23.9935  -27.3084   18.9601 H   0  0  0  0  0  0
  -23.7886  -30.5732   19.3872 H   0  0  0  0  0  0
  -22.7780  -29.2375   19.8431 H   0  0  0  0  0  0
  -25.1269  -36.1894   25.0830 H   0  0  0  0  0  0
  -21.0030  -28.3243   24.1343 H   0  0  0  0  0  0
  -20.5577  -26.2313   23.3593 H   0  0  0  0  0  0
  -21.6655  -26.7379   22.1224 H   0  0  0  0  0  0
  -19.6980  -25.6291   21.1170 H   0  0  0  0  0  0
  -19.6755  -27.3205   20.6721 H   0  0  0  0  0  0
  -17.4243  -26.6726   21.3939 H   0  0  0  0  0  0
  -18.0346  -26.0045   22.8901 H   0  0  0  0  0  0
  -19.7955  -30.7235   24.2265 H   0  0  0  0  0  0
  -17.5046  -31.6271   24.5164 H   0  0  0  0  0  0
  -15.5372  -30.2974   23.7677 H   0  0  0  0  0  0
  -15.8699  -28.0829   22.7036 H   0  0  0  0  0  0
  -24.6153  -30.6688   25.7759 H   0  0  0  0  0  0
  -24.8599  -32.2741   26.4602 H   0  0  0  0  0  0
  -25.8063  -30.9099   27.0328 H   0  0  0  0  0  0
  -26.2940  -29.6746   24.1216 H   0  0  0  0  0  0
  -27.4098  -29.7271   25.4640 H   0  0  0  0  0  0
  -27.8766  -30.4313   23.9359 H   0  0  0  0  0  0
  -27.2958  -33.3702   26.1781 H   0  0  0  0  0  0
  -28.4062  -32.6429   25.0280 H   0  0  0  0  0  0
  -28.0649  -31.8430   26.5482 H   0  0  0  0  0  0
  -28.2538  -38.0130   24.7520 H   0  0  0  0  0  0
  -28.1052  -36.2642   24.6200 H   0  0  0  0  0  0
  -27.2323  -37.1318   25.8881 H   0  0  0  0  0  0
  -20.9421  -29.8848   21.6884 H   0  0  0  0  0  0
  -26.0109  -38.2803   24.1455 H   0  0  0  0  0  0
  -31.3792  -19.7741   19.3552 H   0  0  0  0  0  0
  -31.2443  -20.1131   21.0480 H   0  0  0  0  0  0
  -27.5236  -20.8231   19.8907 H   0  0  0  0  0  0
  -27.3011  -21.1214   21.5808 H   0  0  0  0  0  0
  -29.6756  -21.8342   21.7642 H   0  0  0  0  0  0
  -29.1536  -18.7180   19.3023 H   0  0  0  0  0  0
  -32.5423  -22.9926   17.8723 H   0  0  0  0  0  0
  -31.1138  -22.0981   17.3871 H   0  0  0  0  0  0
  -32.4903  -21.2600   18.1047 H   0  0  0  0  0  0
  -32.9963  -23.3231   20.5678 H   0  0  0  0  0  0
  -33.0935  -21.5841   20.5148 H   0  0  0  0  0  0
  -32.0040  -22.3723   21.6525 H   0  0  0  0  0  0
  -29.7028  -24.0536   21.4069 H   0  0  0  0  0  0
  -28.0869  -23.6562   21.7818 H   0  0  0  0  0  0
  -30.7250  -17.5740   21.7469 H   0  0  0  0  0  0
  -31.2884  -17.4472   20.1321 H   0  0  0  0  0  0
  -27.2810  -24.4564   19.5947 H   0  0  0  0  0  0
  -28.8813  -24.6797   19.0121 H   0  0  0  0  0  0
  -30.8724  -23.4096   19.5096 H   0  0  0  0  0  0
  -28.8568  -15.8620   20.7210 H   0  0  0  0  0  0
  -27.7759  -18.8366   21.2010 H   0  0  0  0  0  0
  -28.9321  -19.4884   22.1212 H   0  0  0  0  0  0
  1 25  1  0  0  0
  1 30  2  0  0  0
  1 82  1  0  0  0
  2  3  1  0  0  0
  2 25  1  0  0  0
  2 84  1  0  0  0
  2 85  1  0  0  0
  3  4  1  0  0  0
  3 86  1  0  0  0
  3 87  1  0  0  0
  4  5  1  0  0  0
  4 88  1  0  0  0
  4 89  1  0  0  0
  5  6  1  0  0  0
  5 26  1  0  0  0
  5 90  1  0  0  0
  6 25  1  0  0  0
  6 91  1  0  0  0
  6 92  1  0  0  0
  7  8  2  0  0  0
  7 26  1  0  0  0
  7 29  1  0  0  0
  8  9  1  0  0  0
  8 22  1  0  0  0
  9 10  1  0  0  0
  9 27  2  0  0  0
 10 11  2  0  0  0
 10 15  1  0  0  0
 11 12  1  0  0  0
 11 93  1  0  0  0
 12 13  2  0  0  0
 12 94  1  0  0  0
 13 14  1  0  0  0
 13 31  1  0  0  0
 14 15  2  0  0  0
 14 95  1  0  0  0
 15 96  1  0  0  0
 16 17  2  0  0  0
 16 21  1  0  0  0
 16 31  1  0  0  0
 17 18  1  0  0  0
 17 97  1  0  0  0
 18 19  2  0  0  0
 18 98  1  0  0  0
 19 20  1  0  0  0
 19 24  1  0  0  0
 20 21  2  0  0  0
 20 99  1  0  0  0
 21 23  1  0  0  0
 22 28  1  0  0  0
 22 32  2  0  0  0
 26 27  1  0  0  0
 28100  1  0  0  0
 28101  1  0  0  0
 29102  1  0  0  0
 29103  1  0  0  0
 33 34  1  0  0  0
 33 66  1  0  0  0
 33 70  2  0  0  0
 34 36  1  0  0  0
 34 59  1  0  0  0
 34104  1  0  0  0
 35 44  2  0  0  0
 35 45  1  0  0  0
 35 68  1  0  0  0
 36 56  1  0  0  0
 36105  1  0  0  0
 37 39  1  0  0  0
 37 47  1  0  0  0
 37 66  1  0  0  0
 37106  1  0  0  0
 38 43  2  0  0  0
 38 46  1  0  0  0
 38 47  1  0  0  0
 39 64  1  0  0  0
 39 67  2  0  0  0
 40 52  1  0  0  0
 40 53  2  0  0  0
 40 58  1  0  0  0
 41107  1  0  0  0
 41108  1  0  0  0
 41109  1  0  0  0
 41 48  1  0  0  0
 42 43  1  0  0  0
 42 66  1  0  0  0
 42110  1  0  0  0
 42111  1  0  0  0
 43 44  1  0  0  0
 44112  1  0  0  0
 45 46  2  0  0  0
 45113  1  0  0  0
 46114  1  0  0  0
 47115  1  0  0  0
 47116  1  0  0  0
 48 56  1  0  0  0
 48 65  1  0  0  0
 48117  1  0  0  0
 49 50  1  0  0  0
 49 53  1  0  0  0
 49 64  1  0  0  0
 49118  1  0  0  0
 50 51  1  0  0  0
 50119  1  0  0  0
 50120  1  0  0  0
 51 52  1  0  0  0
 51121  1  0  0  0
 51122  1  0  0  0
 52123  1  0  0  0
 52124  1  0  0  0
 53 54  1  0  0  0
 54 55  2  0  0  0
 54125  1  0  0  0
 55 57  1  0  0  0
 55126  1  0  0  0
 56 69  2  0  0  0
 57 58  2  0  0  0
 57127  1  0  0  0
 58128  1  0  0  0
 59 60  1  0  0  0
 59 61  1  0  0  0
 59 62  1  0  0  0
 60129  1  0  0  0
 60130  1  0  0  0
 60131  1  0  0  0
 61132  1  0  0  0
 61133  1  0  0  0
 61134  1  0  0  0
 62135  1  0  0  0
 62136  1  0  0  0
 62137  1  0  0  0
 63 65  1  0  0  0
 63138  1  0  0  0
 63139  1  0  0  0
 63140  1  0  0  0
 64141  1  0  0  0
 65142  1  0  0  0
 68 79  1  0  0  0
 71 74  1  0  0  0
 71 81  1  0  0  0
 71143  1  0  0  0
 71144  1  0  0  0
 72 73  1  0  0  0
 72 83  1  0  0  0
 72145  1  0  0  0
 72146  1  0  0  0
 73 77  1  0  0  0
 73 81  1  0  0  0
 73147  1  0  0  0
 74 78  1  0  0  0
 74 83  1  0  0  0
 74148  1  0  0  0
 75149  1  0  0  0
 75150  1  0  0  0
 75151  1  0  0  0
 75 80  1  0  0  0
 76 80  1  0  0  0
 76152  1  0  0  0
 76153  1  0  0  0
 76154  1  0  0  0
 77 79  1  0  0  0
 77155  1  0  0  0
 77156  1  0  0  0
 78 82  1  0  0  0
 78157  1  0  0  0
 78158  1  0  0  0
 79159  1  0  0  0
 79160  1  0  0  0
 80 81  1  0  0  0
 80161  1  0  0  0
 82162  1  0  0  0
 83163  1  0  0  0
 83164  1  0  0  0
M  CHG  1  83   1
M  ISO  4   1 100  68 101  79 101  82 100
M  END
> <chiral flag>
0

> <version>
0

> <s_m_source_file>
/data/baiqing/PycharmProjects/Reinvent-master-3.2/result/LINK_invent/BTK/process_docking_weight1_custom_sum_contain_oxygen_bond_distance_aromatic_linkinvent_7_9_3/rearranged_h_0114.sdf

> <i_m_source_file_index>
22

> <r_mmod_Potential_Energy-OPLS-2005>
203.483459472656

> <r_mmod_Stretch_Energy-OPLS-2005>
190.889495849609

> <r_mmod_Bend_Energy-OPLS-2005>
285.000701904297

> <r_mmod_Torsional_Energy-OPLS-2005>
271.963165283203

> <r_mmod_Improper_Torsional_Energy-OPLS-2005>
4.63341331481934

> <r_mmod_Van_der_Waal_Energy-OPLS-2005>
128.306304931641

> <r_mmod_Electrostatic_Energy-OPLS-2005>
-316.440399169922

> <r_mmod_Solvation_Energy-OPLS-2005>
-489.838775634766

> <b_mmod_Minimization_Converged-OPLS-2005>
0

> <r_mmod_RMS_Derivative-OPLS-2005>
5.3628134727478

$$$$
22
                    3D
 Structure written by MMmdl.
156164  0  0  1  0            999 V2000
  -30.4730  -15.1399   20.3761 C   0  0  0  0  0  0
  -30.4378  -12.7154   19.5198 C   0  0  0  0  0  0
  -29.5295  -12.5527   18.2763 C   0  0  0  0  0  0
  -28.0700  -12.3049   18.6977 C   0  0  0  0  0  0
  -27.6168  -13.2648   19.8273 C   0  0  2  0  0  0
  -28.6531  -13.3829   20.9650 C   0  0  0  0  0  0
  -25.2409  -13.8235   20.5730 C   0  0  0  0  0  0
  -24.1752  -13.0433   20.9253 C   0  0  0  0  0  0
  -24.6395  -11.6928   20.8764 C   0  0  0  0  0  0
  -23.9090  -10.4291   21.0412 C   0  0  0  0  0  0
  -24.3636   -9.4205   21.9189 C   0  0  0  0  0  0
  -23.6306   -8.2243   22.0756 C   0  0  0  0  0  0
  -22.4287   -8.0286   21.3547 C   0  0  0  0  0  0
  -21.9930   -9.0258   20.4646 C   0  0  0  0  0  0
  -22.7264  -10.2133   20.3057 C   0  0  0  0  0  0
  -21.6852   -6.0743   22.5281 C   0  0  0  0  0  0
  -21.4015   -6.5645   23.8215 C   0  0  0  0  0  0
  -21.3660   -5.6796   24.9177 C   0  0  0  0  0  0
  -21.6041   -4.3059   24.7225 C   0  0  0  0  0  0
  -21.8819   -3.8153   23.4345 C   0  0  0  0  0  0
  -21.9191   -4.6972   22.3402 C   0  0  0  0  0  0
  -22.7771  -13.5192   21.1902 C   0  0  0  0  0  0
  -22.1661   -4.2156   21.0981 F   0  0  0  0  0  0
  -21.5625   -3.4542   25.7738 F   0  0  0  0  0  0
  -29.9050  -13.8476   20.3511 N   0  0  0  0  0  0
  -26.2830  -12.9492   20.3213 N   0  0  0  0  0  0
  -25.9328  -11.6609   20.5725 N   0  0  0  0  0  0
  -22.0427  -12.8169   22.0453 N   0  0  0  0  0  0
  -25.4045  -15.1970   20.4168 N   0  0  0  0  0  0
  -31.6841  -15.1718   20.1241 O   0  0  0  0  0  0
  -21.6645   -6.8888   21.4245 O   0  0  0  0  0  0
  -22.3452  -14.5496   20.6749 O   0  0  0  0  0  0
  -24.6540  -31.8298   23.1749 C   0  0  0  0  0  0
  -25.9258  -32.4614   23.8184 C   0  0  1  0  0  0
  -27.2267  -27.0119   20.1670 C   0  0  0  0  0  0
  -25.5962  -33.8431   24.2093 N   0  0  0  0  0  0
  -23.4643  -30.4426   21.5219 C   0  0  2  0  0  0
  -24.9167  -28.8413   20.1065 C   0  0  0  0  0  0
  -22.7618  -29.4468   22.4805 C   0  0  0  0  0  0
  -18.0314  -28.1399   22.8470 C   0  0  0  0  0  0
  -24.1493  -36.7229   23.2643 C   0  0  0  0  0  0
  -26.0267  -30.6635   21.3908 C   0  0  0  0  0  0
  -26.0957  -29.2618   20.7335 C   0  0  0  0  0  0
  -27.2424  -28.3647   20.7419 C   0  0  0  0  0  0
  -26.0162  -26.7154   19.5027 C   0  0  0  0  0  0
  -24.8970  -27.5860   19.4745 C   0  0  0  0  0  0
  -23.6981  -29.7589   20.1459 C   0  0  0  0  0  0
  -25.4130  -36.2979   24.0295 C   0  0  1  0  0  0
  -20.5932  -28.3733   23.1216 C   0  0  2  0  0  0
  -20.6796  -26.9426   22.5408 C   0  0  0  0  0  0
  -19.5772  -26.6376   21.5216 C   0  0  0  0  0  0
  -18.1949  -26.7934   22.1618 C   0  0  0  0  0  0
  -19.1573  -28.8887   23.2829 C   0  0  0  0  0  0
  -18.9486  -30.1481   23.8853 C   0  0  0  0  0  0
  -17.6484  -30.6593   24.0555 C   0  0  0  0  0  0
  -25.9089  -34.9363   23.5012 C   0  0  0  0  0  0
  -16.5372  -29.9087   23.6341 C   0  0  0  0  0  0
  -16.7297  -28.6507   23.0357 C   0  0  0  0  0  0
  -26.4534  -31.6542   25.0688 C   0  0  0  0  0  0
  -25.3683  -31.3791   26.1366 C   0  0  0  0  0  0
  -27.0418  -30.2918   24.6370 C   0  0  0  0  0  0
  -27.6033  -32.4344   25.7487 C   0  0  0  0  0  0
  -27.5566  -37.1765   24.8459 C   0  0  0  0  0  0
  -21.4296  -29.3036   22.3567 N   0  0  0  0  0  0
  -26.4274  -37.3711   23.9406 N   0  0  0  0  0  0
  -24.7356  -31.0039   22.0837 N   0  0  0  0  0  0
  -23.4207  -28.8038   23.3015 O   0  0  0  0  0  0
  -28.2771  -25.9903   20.3026 O   0  0  0  0  0  0
  -26.5688  -34.8883   22.4601 O   0  0  0  0  0  0
  -23.5632  -32.1235   23.6900 O   0  0  0  0  0  0
  -29.6954  -23.5972   20.4001 C   0  0  0  0  0  0
  -27.3640  -23.2398   20.2473 C   0  0  0  0  0  0
  -29.7108  -22.0067   20.9084 C   0  0  0  0  0  0
  -27.6569  -21.6660   19.7817 C   0  0  0  0  0  0
  -28.3844  -24.4262   19.8875 C   0  0  1  0  0  0
  -28.4848  -24.5367   18.3529 C   0  0  0  0  0  0
  -29.9423  -17.9725   20.1956 C   0  0  0  0  0  0
  -28.8998  -19.3426   20.5548 C   0  0  0  0  0  0
  -29.6936  -16.3719   20.4744 N   0  0  0  0  0  0
  -28.9799  -20.9297   20.1026 N   0  3  2  0  0  0
  -31.4651  -12.8962   19.2001 H   0  0  0  0  0  0
  -30.4695  -11.7914   20.1002 H   0  0  0  0  0  0
  -29.8837  -11.7321   17.6505 H   0  0  0  0  0  0
  -29.5854  -13.4534   17.6633 H   0  0  0  0  0  0
  -27.9994  -11.2725   19.0443 H   0  0  0  0  0  0
  -27.4044  -12.3834   17.8370 H   0  0  0  0  0  0
  -27.5504  -14.2454   19.3547 H   0  0  0  0  0  0
  -28.7858  -12.4325   21.4838 H   0  0  0  0  0  0
  -28.3163  -14.1028   21.7131 H   0  0  0  0  0  0
  -25.2775   -9.5676   22.4771 H   0  0  0  0  0  0
  -24.0008   -7.4632   22.7476 H   0  0  0  0  0  0
  -21.0860   -8.8785   19.8949 H   0  0  0  0  0  0
  -22.3728  -10.9676   19.6169 H   0  0  0  0  0  0
  -21.2014   -7.6152   23.9722 H   0  0  0  0  0  0
  -21.1478   -6.0527   25.9079 H   0  0  0  0  0  0
  -22.0597   -2.7616   23.2845 H   0  0  0  0  0  0
  -22.4058  -11.9830   22.4827 H   0  0  0  0  0  0
  -21.1040  -13.1174   22.2664 H   0  0  0  0  0  0
  -24.6298  -15.8428   20.5261 H   0  0  0  0  0  0
  -26.2382  -15.6383   20.0520 H   0  0  0  0  0  0
  -26.7323  -32.5172   23.0900 H   0  0  0  0  0  0
  -25.0081  -33.9524   25.0222 H   0  0  0  0  0  0
  -22.7721  -31.2711   21.3556 H   0  0  0  0  0  0
  -23.3753  -35.9563   23.3278 H   0  0  0  0  0  0
  -24.3576  -36.8903   22.2063 H   0  0  0  0  0  0
  -23.7256  -37.6413   23.6721 H   0  0  0  0  0  0
  -26.1953  -31.4098   20.6137 H   0  0  0  0  0  0
  -26.8917  -30.7180   22.0404 H   0  0  0  0  0  0
  -28.1358  -28.6807   21.2612 H   0  0  0  0  0  0
  -25.8949  -25.7476   19.0418 H   0  0  0  0  0  0
  -23.9952  -27.2547   18.9781 H   0  0  0  0  0  0
  -23.8442  -30.5284   19.3870 H   0  0  0  0  0  0
  -22.8098  -29.2070   19.8326 H   0  0  0  0  0  0
  -25.1324  -36.1776   25.0784 H   0  0  0  0  0  0
  -21.0014  -28.3338   24.1343 H   0  0  0  0  0  0
  -20.5691  -26.2342   23.3636 H   0  0  0  0  0  0
  -21.6659  -26.7421   22.1205 H   0  0  0  0  0  0
  -19.6934  -25.6279   21.1267 H   0  0  0  0  0  0
  -19.6719  -27.3166   20.6731 H   0  0  0  0  0  0
  -17.4222  -26.6683   21.4017 H   0  0  0  0  0  0
  -18.0339  -26.0083   22.9016 H   0  0  0  0  0  0
  -19.7967  -30.7310   24.2197 H   0  0  0  0  0  0
  -17.5040  -31.6269   24.5165 H   0  0  0  0  0  0
  -15.5373  -30.2973   23.7703 H   0  0  0  0  0  0
  -15.8693  -28.0821   22.7089 H   0  0  0  0  0  0
  -24.5883  -30.7100   25.7708 H   0  0  0  0  0  0
  -24.8840  -32.2988   26.4655 H   0  0  0  0  0  0
  -25.7934  -30.9072   27.0231 H   0  0  0  0  0  0
  -26.3063  -29.6609   24.1360 H   0  0  0  0  0  0
  -27.3964  -29.7260   25.4994 H   0  0  0  0  0  0
  -27.8996  -30.4117   23.9751 H   0  0  0  0  0  0
  -27.2606  -33.3695   26.1935 H   0  0  0  0  0  0
  -28.3913  -32.6826   25.0364 H   0  0  0  0  0  0
  -28.0617  -31.8553   26.5511 H   0  0  0  0  0  0
  -28.2552  -38.0086   24.7507 H   0  0  0  0  0  0
  -28.1085  -36.2607   24.6281 H   0  0  0  0  0  0
  -27.2278  -37.1406   25.8859 H   0  0  0  0  0  0
  -20.9531  -29.8736   21.6717 H   0  0  0  0  0  0
  -26.0119  -38.2763   24.1432 H   0  0  0  0  0  0
  -30.4723  -23.6931   19.6410 H   0  0  0  0  0  0
  -30.0968  -24.1678   21.2378 H   0  0  0  0  0  0
  -27.2251  -23.2433   21.3296 H   0  0  0  0  0  0
  -26.3845  -23.5141   19.8563 H   0  0  0  0  0  0
  -29.2917  -21.9769   21.9153 H   0  0  0  0  0  0
  -30.7463  -21.6880   21.0283 H   0  0  0  0  0  0
  -27.5179  -21.5945   18.7033 H   0  0  0  0  0  0
  -26.8474  -21.0686   20.2015 H   0  0  0  0  0  0
  -28.7195  -23.5810   17.8855 H   0  0  0  0  0  0
  -29.2748  -25.2326   18.0675 H   0  0  0  0  0  0
  -27.5613  -24.8931   17.9013 H   0  0  0  0  0  0
  -30.9028  -18.1930   20.6622 H   0  0  0  0  0  0
  -30.1486  -18.0296   19.1265 H   0  0  0  0  0  0
  -28.7538  -19.3557   21.6347 H   0  0  0  0  0  0
  -27.9339  -19.0212   20.1669 H   0  0  0  0  0  0
  -28.7248  -16.1694   20.6723 H   0  0  0  0  0  0
  -29.4647  -20.8976   19.2178 H   0  0  0  0  0  0
  1 25  1  0  0  0
  1 30  2  0  0  0
  1 79  1  0  0  0
  2  3  1  0  0  0
  2 25  1  0  0  0
  2 81  1  0  0  0
  2 82  1  0  0  0
  3  4  1  0  0  0
  3 83  1  0  0  0
  3 84  1  0  0  0
  4  5  1  0  0  0
  4 85  1  0  0  0
  4 86  1  0  0  0
  5  6  1  0  0  0
  5 26  1  0  0  0
  5 87  1  0  0  0
  6 25  1  0  0  0
  6 88  1  0  0  0
  6 89  1  0  0  0
  7  8  2  0  0  0
  7 26  1  0  0  0
  7 29  1  0  0  0
  8  9  1  0  0  0
  8 22  1  0  0  0
  9 10  1  0  0  0
  9 27  2  0  0  0
 10 11  2  0  0  0
 10 15  1  0  0  0
 11 12  1  0  0  0
 11 90  1  0  0  0
 12 13  2  0  0  0
 12 91  1  0  0  0
 13 14  1  0  0  0
 13 31  1  0  0  0
 14 15  2  0  0  0
 14 92  1  0  0  0
 15 93  1  0  0  0
 16 17  2  0  0  0
 16 21  1  0  0  0
 16 31  1  0  0  0
 17 18  1  0  0  0
 17 94  1  0  0  0
 18 19  2  0  0  0
 18 95  1  0  0  0
 19 20  1  0  0  0
 19 24  1  0  0  0
 20 21  2  0  0  0
 20 96  1  0  0  0
 21 23  1  0  0  0
 22 28  1  0  0  0
 22 32  2  0  0  0
 26 27  1  0  0  0
 28 97  1  0  0  0
 28 98  1  0  0  0
 29 99  1  0  0  0
 29100  1  0  0  0
 33 34  1  0  0  0
 33 66  1  0  0  0
 33 70  2  0  0  0
 34 36  1  0  0  0
 34 59  1  0  0  0
 34101  1  0  0  0
 35 44  2  0  0  0
 35 45  1  0  0  0
 35 68  1  0  0  0
 36 56  1  0  0  0
 36102  1  0  0  0
 37 39  1  0  0  0
 37 47  1  0  0  0
 37 66  1  0  0  0
 37103  1  0  0  0
 38 43  2  0  0  0
 38 46  1  0  0  0
 38 47  1  0  0  0
 39 64  1  0  0  0
 39 67  2  0  0  0
 40 52  1  0  0  0
 40 53  2  0  0  0
 40 58  1  0  0  0
 41104  1  0  0  0
 41105  1  0  0  0
 41106  1  0  0  0
 41 48  1  0  0  0
 42 43  1  0  0  0
 42 66  1  0  0  0
 42107  1  0  0  0
 42108  1  0  0  0
 43 44  1  0  0  0
 44109  1  0  0  0
 45 46  2  0  0  0
 45110  1  0  0  0
 46111  1  0  0  0
 47112  1  0  0  0
 47113  1  0  0  0
 48 56  1  0  0  0
 48 65  1  0  0  0
 48114  1  0  0  0
 49 50  1  0  0  0
 49 53  1  0  0  0
 49 64  1  0  0  0
 49115  1  0  0  0
 50 51  1  0  0  0
 50116  1  0  0  0
 50117  1  0  0  0
 51 52  1  0  0  0
 51118  1  0  0  0
 51119  1  0  0  0
 52120  1  0  0  0
 52121  1  0  0  0
 53 54  1  0  0  0
 54 55  2  0  0  0
 54122  1  0  0  0
 55 57  1  0  0  0
 55123  1  0  0  0
 56 69  2  0  0  0
 57 58  2  0  0  0
 57124  1  0  0  0
 58125  1  0  0  0
 59 60  1  0  0  0
 59 61  1  0  0  0
 59 62  1  0  0  0
 60126  1  0  0  0
 60127  1  0  0  0
 60128  1  0  0  0
 61129  1  0  0  0
 61130  1  0  0  0
 61131  1  0  0  0
 62132  1  0  0  0
 62133  1  0  0  0
 62134  1  0  0  0
 63 65  1  0  0  0
 63135  1  0  0  0
 63136  1  0  0  0
 63137  1  0  0  0
 64138  1  0  0  0
 65139  1  0  0  0
 68 75  1  0  0  0
 71 73  1  0  0  0
 71 75  1  0  0  0
 71140  1  0  0  0
 71141  1  0  0  0
 72 74  1  0  0  0
 72 75  1  0  0  0
 72142  1  0  0  0
 72143  1  0  0  0
 73 80  1  0  0  0
 73144  1  0  0  0
 73145  1  0  0  0
 74 80  1  0  0  0
 74146  1  0  0  0
 74147  1  0  0  0
 75 76  1  0  0  0
 76148  1  0  0  0
 76149  1  0  0  0
 76150  1  0  0  0
 77 78  1  0  0  0
 77 79  1  0  0  0
 77151  1  0  0  0
 77152  1  0  0  0
 78153  1  0  0  0
 78154  1  0  0  0
 78 80  1  0  0  0
 79155  1  0  0  0
 80156  1  0  0  0
M  CHG  1  80   1
M  ISO  4   1 100  68 101  75 101  79 100
M  END
> <chiral flag>
0

> <version>
0

> <s_m_source_file>
/data/baiqing/PycharmProjects/Reinvent-master-3.2/result/LINK_invent/BTK/process_docking_weight1_custom_sum_contain_oxygen_bond_distance_aromatic_linkinvent_7_9_3/rearranged_h_0114.sdf

> <i_m_source_file_index>
23

> <r_mmod_Potential_Energy-OPLS-2005>
807.234436035156

> <r_mmod_Stretch_Energy-OPLS-2005>
420.392120361328

> <r_mmod_Bend_Energy-OPLS-2005>
422.399291992188

> <r_mmod_Torsional_Energy-OPLS-2005>
257.909942626953

> <r_mmod_Improper_Torsional_Energy-OPLS-2005>
4.61697912216187

> <r_mmod_Van_der_Waal_Energy-OPLS-2005>
117.909317016602

> <r_mmod_Electrostatic_Energy-OPLS-2005>
-277.058654785156

> <r_mmod_Solvation_Energy-OPLS-2005>
-475.284545898438

> <b_mmod_Minimization_Converged-OPLS-2005>
0

> <r_mmod_RMS_Derivative-OPLS-2005>
0.927340447902679

$$$$
23
                    3D
 Structure written by MMmdl.
153161  0  0  1  0            999 V2000
  -30.4270  -15.2073   20.3725 C   0  0  0  0  0  0
  -30.4496  -12.7618   19.5268 C   0  0  0  0  0  0
  -29.5428  -12.5776   18.2837 C   0  0  0  0  0  0
  -28.0840  -12.3151   18.7006 C   0  0  0  0  0  0
  -27.6213  -13.2702   19.8296 C   0  0  2  0  0  0
  -28.6572  -13.3928   20.9676 C   0  0  0  0  0  0
  -25.2424  -13.8241   20.5708 C   0  0  0  0  0  0
  -24.1771  -13.0438   20.9243 C   0  0  0  0  0  0
  -24.6425  -11.6931   20.8760 C   0  0  0  0  0  0
  -23.9107  -10.4294   21.0406 C   0  0  0  0  0  0
  -24.3644   -9.4206   21.9183 C   0  0  0  0  0  0
  -23.6308   -8.2247   22.0752 C   0  0  0  0  0  0
  -22.4286   -8.0292   21.3546 C   0  0  0  0  0  0
  -21.9931   -9.0268   20.4645 C   0  0  0  0  0  0
  -22.7273  -10.2142   20.3055 C   0  0  0  0  0  0
  -21.6863   -6.0742   22.5278 C   0  0  0  0  0  0
  -21.4024   -6.5641   23.8213 C   0  0  0  0  0  0
  -21.3665   -5.6789   24.9170 C   0  0  0  0  0  0
  -21.6038   -4.3050   24.7218 C   0  0  0  0  0  0
  -21.8816   -3.8149   23.4337 C   0  0  0  0  0  0
  -21.9194   -4.6969   22.3398 C   0  0  0  0  0  0
  -22.7777  -13.5194   21.1883 C   0  0  0  0  0  0
  -22.1653   -4.2156   21.0972 F   0  0  0  0  0  0
  -21.5635   -3.4533   25.7729 F   0  0  0  0  0  0
  -29.9004  -13.8902   20.3570 N   0  0  0  0  0  0
  -26.2863  -12.9512   20.3204 N   0  0  0  0  0  0
  -25.9364  -11.6624   20.5710 N   0  0  0  0  0  0
  -22.0425  -12.8196   22.0441 N   0  0  0  0  0  0
  -25.4037  -15.1975   20.4123 N   0  0  0  0  0  0
  -31.6376  -15.2673   20.1148 O   0  0  0  0  0  0
  -21.6642   -6.8891   21.4243 O   0  0  0  0  0  0
  -22.3453  -14.5484   20.6704 O   0  0  0  0  0  0
  -24.6590  -31.8279   23.1730 C   0  0  0  0  0  0
  -25.9286  -32.4611   23.8188 C   0  0  1  0  0  0
  -27.2223  -26.9683   20.1806 C   0  0  0  0  0  0
  -25.5975  -33.8423   24.2096 N   0  0  0  0  0  0
  -23.4718  -30.4397   21.5218 C   0  0  2  0  0  0
  -24.9251  -28.8309   20.1133 C   0  0  0  0  0  0
  -22.7645  -29.4462   22.4800 C   0  0  0  0  0  0
  -18.0319  -28.1415   22.8464 C   0  0  0  0  0  0
  -24.1495  -36.7216   23.2647 C   0  0  0  0  0  0
  -26.0378  -30.6474   21.3969 C   0  0  0  0  0  0
  -26.1078  -29.2404   20.7415 C   0  0  0  0  0  0
  -27.2528  -28.3301   20.7493 C   0  0  0  0  0  0
  -26.0092  -26.6975   19.5099 C   0  0  0  0  0  0
  -24.8982  -27.5784   19.4789 C   0  0  0  0  0  0
  -23.7091  -29.7542   20.1481 C   0  0  0  0  0  0
  -25.4136  -36.2981   24.0303 C   0  0  1  0  0  0
  -20.5940  -28.3751   23.1202 C   0  0  2  0  0  0
  -20.6801  -26.9441   22.5406 C   0  0  0  0  0  0
  -19.5778  -26.6381   21.5219 C   0  0  0  0  0  0
  -18.1958  -26.7951   22.1620 C   0  0  0  0  0  0
  -19.1579  -28.8904   23.2820 C   0  0  0  0  0  0
  -18.9488  -30.1497   23.8850 C   0  0  0  0  0  0
  -17.6481  -30.6599   24.0559 C   0  0  0  0  0  0
  -25.9100  -34.9361   23.5018 C   0  0  0  0  0  0
  -16.5371  -29.9087   23.6347 C   0  0  0  0  0  0
  -16.7301  -28.6512   23.0354 C   0  0  0  0  0  0
  -26.4550  -31.6539   25.0698 C   0  0  0  0  0  0
  -25.3677  -31.3774   26.1350 C   0  0  0  0  0  0
  -27.0455  -30.2918   24.6403 C   0  0  0  0  0  0
  -27.6050  -32.4337   25.7498 C   0  0  0  0  0  0
  -27.5577  -37.1763   24.8462 C   0  0  0  0  0  0
  -21.4320  -29.3040   22.3547 N   0  0  0  0  0  0
  -26.4281  -37.3717   23.9411 N   0  0  0  0  0  0
  -24.7439  -30.9973   22.0847 N   0  0  0  0  0  0
  -23.4206  -28.8046   23.3039 O   0  0  0  0  0  0
  -28.2455  -25.8966   20.2443 O   0  0  0  0  0  0
  -26.5704  -34.8889   22.4610 O   0  0  0  0  0  0
  -23.5669  -32.1241   23.6841 O   0  0  0  0  0  0
  -29.0430  -20.2679   19.1761 C   0  0  0  0  0  0
  -29.2695  -18.7999   19.2070 C   0  0  0  0  0  0
  -29.5817  -18.0109   20.3935 C   0  0  0  0  0  0
  -29.0510  -21.1574   20.3183 C   0  0  0  0  0  0
  -29.5766  -18.9805   21.4882 C   0  0  0  0  0  0
  -29.1505  -18.0460   17.8966 C   0  0  0  0  0  0
  -29.8194  -18.4774   22.8966 C   0  0  0  0  0  0
  -28.0047  -24.2756   20.1851 C   0  0  0  0  0  0
  -29.1132  -22.8953   20.4093 C   0  0  1  0  0  0
  -29.3607  -20.3901   21.4449 N   0  0  0  0  0  0
  -29.5821  -16.4026   20.5135 N   0  0  0  0  0  0
  -29.5534  -23.1077   21.7354 O   0  0  0  0  0  0
  -31.4731  -12.9633   19.2069 H   0  0  0  0  0  0
  -30.5004  -11.8399   20.1090 H   0  0  0  0  0  0
  -29.9122  -11.7629   17.6597 H   0  0  0  0  0  0
  -29.5889  -13.4777   17.6694 H   0  0  0  0  0  0
  -28.0202  -11.2821   19.0449 H   0  0  0  0  0  0
  -27.4220  -12.3924   17.8377 H   0  0  0  0  0  0
  -27.5512  -14.2513   19.3592 H   0  0  0  0  0  0
  -28.8087  -12.4371   21.4719 H   0  0  0  0  0  0
  -28.3095  -14.0933   21.7279 H   0  0  0  0  0  0
  -25.2796   -9.5678   22.4750 H   0  0  0  0  0  0
  -24.0018   -7.4638   22.7470 H   0  0  0  0  0  0
  -21.0863   -8.8799   19.8951 H   0  0  0  0  0  0
  -22.3742  -10.9682   19.6159 H   0  0  0  0  0  0
  -21.2016   -7.6149   23.9725 H   0  0  0  0  0  0
  -21.1490   -6.0512   25.9077 H   0  0  0  0  0  0
  -22.0592   -2.7614   23.2831 H   0  0  0  0  0  0
  -22.4047  -11.9887   22.4880 H   0  0  0  0  0  0
  -21.1029  -13.1211   22.2605 H   0  0  0  0  0  0
  -24.6270  -15.8409   20.5190 H   0  0  0  0  0  0
  -26.2315  -15.6412   20.0383 H   0  0  0  0  0  0
  -26.7351  -32.5167   23.0906 H   0  0  0  0  0  0
  -25.0068  -33.9511   25.0207 H   0  0  0  0  0  0
  -22.7834  -31.2703   21.3531 H   0  0  0  0  0  0
  -23.3775  -35.9530   23.3271 H   0  0  0  0  0  0
  -24.3570  -36.8899   22.2069 H   0  0  0  0  0  0
  -23.7229  -37.6385   23.6723 H   0  0  0  0  0  0
  -26.2119  -31.3914   20.6188 H   0  0  0  0  0  0
  -26.8996  -30.7055   22.0492 H   0  0  0  0  0  0
  -28.1497  -28.6415   21.2662 H   0  0  0  0  0  0
  -25.8894  -25.7397   19.0252 H   0  0  0  0  0  0
  -23.9970  -27.2580   18.9741 H   0  0  0  0  0  0
  -23.8605  -30.5228   19.3898 H   0  0  0  0  0  0
  -22.8198  -29.2055   19.8331 H   0  0  0  0  0  0
  -25.1330  -36.1788   25.0795 H   0  0  0  0  0  0
  -21.0024  -28.3360   24.1327 H   0  0  0  0  0  0
  -20.5694  -26.2371   23.3640 H   0  0  0  0  0  0
  -21.6667  -26.7431   22.1208 H   0  0  0  0  0  0
  -19.6940  -25.6279   21.1282 H   0  0  0  0  0  0
  -19.6727  -27.3160   20.6728 H   0  0  0  0  0  0
  -17.4233  -26.6690   21.4019 H   0  0  0  0  0  0
  -18.0349  -26.0104   22.9025 H   0  0  0  0  0  0
  -19.7963  -30.7332   24.2190 H   0  0  0  0  0  0
  -17.5030  -31.6274   24.5174 H   0  0  0  0  0  0
  -15.5368  -30.2969   23.7704 H   0  0  0  0  0  0
  -15.8702  -28.0820   22.7083 H   0  0  0  0  0  0
  -24.5859  -30.7139   25.7633 H   0  0  0  0  0  0
  -24.8867  -32.2974   26.4683 H   0  0  0  0  0  0
  -25.7892  -30.8978   27.0191 H   0  0  0  0  0  0
  -26.3121  -29.6585   24.1398 H   0  0  0  0  0  0
  -27.4002  -29.7286   25.5045 H   0  0  0  0  0  0
  -27.9051  -30.4124   23.9807 H   0  0  0  0  0  0
  -27.2628  -33.3670   26.1983 H   0  0  0  0  0  0
  -28.3909  -32.6845   25.0359 H   0  0  0  0  0  0
  -28.0671  -31.8527   26.5491 H   0  0  0  0  0  0
  -28.2564  -38.0089   24.7528 H   0  0  0  0  0  0
  -28.1103  -36.2613   24.6264 H   0  0  0  0  0  0
  -27.2294  -37.1373   25.8864 H   0  0  0  0  0  0
  -20.9571  -29.8711   21.6661 H   0  0  0  0  0  0
  -26.0135  -38.2778   24.1420 H   0  0  0  0  0  0
  -28.8699  -20.7343   18.2158 H   0  0  0  0  0  0
  -29.0930  -18.7223   17.0429 H   0  0  0  0  0  0
  -28.2547  -17.4247   17.8983 H   0  0  0  0  0  0
  -30.0150  -17.3982   17.7492 H   0  0  0  0  0  0
  -29.8708  -17.3912   22.9406 H   0  0  0  0  0  0
  -29.0165  -18.7995   23.5597 H   0  0  0  0  0  0
  -30.7616  -18.8705   23.2784 H   0  0  0  0  0  0
  -27.1745  -24.1011   20.8698 H   0  0  0  0  0  0
  -27.5730  -24.1176   19.1967 H   0  0  0  0  0  0
  -29.9578  -23.1249   19.7585 H   0  0  0  0  0  0
  -28.6560  -16.0777   20.7501 H   0  0  0  0  0  0
  -29.6740  -22.2073   22.0510 H   0  0  0  0  0  0
  1 25  1  0  0  0
  1 30  2  0  0  0
  1 81  1  0  0  0
  2  3  1  0  0  0
  2 25  1  0  0  0
  2 83  1  0  0  0
  2 84  1  0  0  0
  3  4  1  0  0  0
  3 85  1  0  0  0
  3 86  1  0  0  0
  4  5  1  0  0  0
  4 87  1  0  0  0
  4 88  1  0  0  0
  5  6  1  0  0  0
  5 26  1  0  0  0
  5 89  1  0  0  0
  6 25  1  0  0  0
  6 90  1  0  0  0
  6 91  1  0  0  0
  7  8  2  0  0  0
  7 26  1  0  0  0
  7 29  1  0  0  0
  8  9  1  0  0  0
  8 22  1  0  0  0
  9 10  1  0  0  0
  9 27  2  0  0  0
 10 11  2  0  0  0
 10 15  1  0  0  0
 11 12  1  0  0  0
 11 92  1  0  0  0
 12 13  2  0  0  0
 12 93  1  0  0  0
 13 14  1  0  0  0
 13 31  1  0  0  0
 14 15  2  0  0  0
 14 94  1  0  0  0
 15 95  1  0  0  0
 16 17  2  0  0  0
 16 21  1  0  0  0
 16 31  1  0  0  0
 17 18  1  0  0  0
 17 96  1  0  0  0
 18 19  2  0  0  0
 18 97  1  0  0  0
 19 20  1  0  0  0
 19 24  1  0  0  0
 20 21  2  0  0  0
 20 98  1  0  0  0
 21 23  1  0  0  0
 22 28  1  0  0  0
 22 32  2  0  0  0
 26 27  1  0  0  0
 28 99  1  0  0  0
 28100  1  0  0  0
 29101  1  0  0  0
 29102  1  0  0  0
 33 34  1  0  0  0
 33 66  1  0  0  0
 33 70  2  0  0  0
 34 36  1  0  0  0
 34 59  1  0  0  0
 34103  1  0  0  0
 35 44  2  0  0  0
 35 45  1  0  0  0
 35 68  1  0  0  0
 36 56  1  0  0  0
 36104  1  0  0  0
 37 39  1  0  0  0
 37 47  1  0  0  0
 37 66  1  0  0  0
 37105  1  0  0  0
 38 43  2  0  0  0
 38 46  1  0  0  0
 38 47  1  0  0  0
 39 64  1  0  0  0
 39 67  2  0  0  0
 40 52  1  0  0  0
 40 53  2  0  0  0
 40 58  1  0  0  0
 41106  1  0  0  0
 41107  1  0  0  0
 41108  1  0  0  0
 41 48  1  0  0  0
 42 43  1  0  0  0
 42 66  1  0  0  0
 42109  1  0  0  0
 42110  1  0  0  0
 43 44  1  0  0  0
 44111  1  0  0  0
 45 46  2  0  0  0
 45112  1  0  0  0
 46113  1  0  0  0
 47114  1  0  0  0
 47115  1  0  0  0
 48 56  1  0  0  0
 48 65  1  0  0  0
 48116  1  0  0  0
 49 50  1  0  0  0
 49 53  1  0  0  0
 49 64  1  0  0  0
 49117  1  0  0  0
 50 51  1  0  0  0
 50118  1  0  0  0
 50119  1  0  0  0
 51 52  1  0  0  0
 51120  1  0  0  0
 51121  1  0  0  0
 52122  1  0  0  0
 52123  1  0  0  0
 53 54  1  0  0  0
 54 55  2  0  0  0
 54124  1  0  0  0
 55 57  1  0  0  0
 55125  1  0  0  0
 56 69  2  0  0  0
 57 58  2  0  0  0
 57126  1  0  0  0
 58127  1  0  0  0
 59 60  1  0  0  0
 59 61  1  0  0  0
 59 62  1  0  0  0
 60128  1  0  0  0
 60129  1  0  0  0
 60130  1  0  0  0
 61131  1  0  0  0
 61132  1  0  0  0
 61133  1  0  0  0
 62134  1  0  0  0
 62135  1  0  0  0
 62136  1  0  0  0
 63 65  1  0  0  0
 63137  1  0  0  0
 63138  1  0  0  0
 63139  1  0  0  0
 64140  1  0  0  0
 65141  1  0  0  0
 68 78  1  0  0  0
 71 72  2  0  0  0
 71 74  1  0  0  0
 71142  1  0  0  0
 72 73  1  0  0  0
 72 76  1  0  0  0
 73 75  2  0  0  0
 73 81  1  0  0  0
 74 79  1  0  0  0
 74 80  2  0  0  0
 75 77  1  0  0  0
 75 80  1  0  0  0
 76143  1  0  0  0
 76144  1  0  0  0
 76145  1  0  0  0
 77146  1  0  0  0
 77147  1  0  0  0
 77148  1  0  0  0
 78 79  1  0  0  0
 78149  1  0  0  0
 78150  1  0  0  0
 79 82  1  0  0  0
 79151  1  0  0  0
 81152  1  0  0  0
 82153  1  0  0  0
M  ISO  4   1 100  68 101  78 101  81 100
M  END
> <chiral flag>
0

> <version>
0

> <s_m_source_file>
/data/baiqing/PycharmProjects/Reinvent-master-3.2/result/LINK_invent/BTK/process_docking_weight1_custom_sum_contain_oxygen_bond_distance_aromatic_linkinvent_7_9_3/rearranged_h_0114.sdf

> <i_m_source_file_index>
24

> <r_mmod_Potential_Energy-OPLS-2005>
881.836486816406

> <r_mmod_Stretch_Energy-OPLS-2005>
474.534576416016

> <r_mmod_Bend_Energy-OPLS-2005>
416.083801269531

> <r_mmod_Torsional_Energy-OPLS-2005>
267.147888183594

> <r_mmod_Improper_Torsional_Energy-OPLS-2005>
7.75590991973877

> <r_mmod_Van_der_Waal_Energy-OPLS-2005>
128.97981262207

> <r_mmod_Electrostatic_Energy-OPLS-2005>
-569.114501953125

> <r_mmod_Solvation_Energy-OPLS-2005>
-242.57292175293

> <b_mmod_Minimization_Converged-OPLS-2005>
0

> <r_mmod_RMS_Derivative-OPLS-2005>
1.17899715900421

$$$$
24
                    3D
 Structure written by MMmdl.
166174  0  0  1  0            999 V2000
  -30.7237  -14.4569   20.6225 C   0  0  0  0  0  0
  -31.1051  -12.6592   19.0524 C   0  0  0  0  0  0
  -29.7554  -12.6507   17.7657 C   0  0  0  0  0  0
  -28.0171  -12.9740   18.2465 C   0  0  0  0  0  0
  -27.4616  -13.1439   19.9730 C   0  0  2  0  0  0
  -28.6970  -13.2012   21.3957 C   0  0  0  0  0  0
  -25.1424  -13.8433   20.6164 C   0  0  0  0  0  0
  -24.0724  -13.0751   20.9645 C   0  0  0  0  0  0
  -24.5099  -11.7157   20.9674 C   0  0  0  0  0  0
  -23.8251  -10.4396   21.0905 C   0  0  0  0  0  0
  -24.3166   -9.4241   21.9422 C   0  0  0  0  0  0
  -23.6135   -8.2107   22.0726 C   0  0  0  0  0  0
  -22.4144   -8.0133   21.3487 C   0  0  0  0  0  0
  -21.9657   -9.0059   20.4602 C   0  0  0  0  0  0
  -22.6677  -10.2093   20.3252 C   0  0  0  0  0  0
  -21.6831   -6.0652   22.5278 C   0  0  0  0  0  0
  -21.3993   -6.5602   23.8174 C   0  0  0  0  0  0
  -21.3627   -5.6768   24.9163 C   0  0  0  0  0  0
  -21.6011   -4.3025   24.7207 C   0  0  0  0  0  0
  -21.8823   -3.8098   23.4344 C   0  0  0  0  0  0
  -21.9205   -4.6892   22.3405 C   0  0  0  0  0  0
  -22.6879  -13.5543   21.2043 C   0  0  0  0  0  0
  -22.1677   -4.2074   21.0992 F   0  0  0  0  0  0
  -21.5644   -3.4531   25.7734 F   0  0  0  0  0  0
  -30.3945  -13.2492   20.6604 N   0  0  0  0  0  0
  -26.1434  -12.9411   20.4364 N   0  0  0  0  0  0
  -25.7886  -11.6708   20.7921 N   0  0  0  0  0  0
  -21.9533  -12.8489   22.0558 N   0  0  0  0  0  0
  -25.3683  -15.2052   20.4340 N   0  0  0  0  0  0
  -31.7669  -14.9805   20.2188 O   0  0  0  0  0  0
  -21.6595   -6.8709   21.4184 O   0  0  0  0  0  0
  -22.2756  -14.5856   20.6827 O   0  0  0  0  0  0
  -24.6402  -31.8437   23.1934 C   0  0  0  0  0  0
  -25.9197  -32.4682   23.8263 C   0  0  1  0  0  0
  -27.1683  -27.1680   20.0985 C   0  0  0  0  0  0
  -25.5975  -33.8506   24.2171 N   0  0  0  0  0  0
  -23.4371  -30.4747   21.5378 C   0  0  2  0  0  0
  -24.8670  -28.9085   20.1100 C   0  0  0  0  0  0
  -22.7508  -29.4579   22.4847 C   0  0  0  0  0  0
  -18.0281  -28.1404   22.8435 C   0  0  0  0  0  0
  -24.1485  -36.7287   23.2643 C   0  0  0  0  0  0
  -25.9935  -30.7296   21.3809 C   0  0  0  0  0  0
  -26.0556  -29.3506   20.7052 C   0  0  0  0  0  0
  -27.2164  -28.4954   20.6780 C   0  0  0  0  0  0
  -25.9540  -26.8204   19.4733 C   0  0  0  0  0  0
  -24.8222  -27.6532   19.4925 C   0  0  0  0  0  0
  -23.6568  -29.8174   20.1530 C   0  0  0  0  0  0
  -25.4129  -36.3028   24.0291 C   0  0  1  0  0  0
  -20.5882  -28.3748   23.1216 C   0  0  2  0  0  0
  -20.6792  -26.9470   22.5374 C   0  0  0  0  0  0
  -19.5783  -26.6389   21.5180 C   0  0  0  0  0  0
  -18.1951  -26.7939   22.1589 C   0  0  0  0  0  0
  -19.1537  -28.8883   23.2817 C   0  0  0  0  0  0
  -18.9480  -30.1466   23.8865 C   0  0  0  0  0  0
  -17.6488  -30.6613   24.0541 C   0  0  0  0  0  0
  -25.9069  -34.9402   23.5032 C   0  0  0  0  0  0
  -16.5369  -29.9105   23.6337 C   0  0  0  0  0  0
  -16.7263  -28.6515   23.0355 C   0  0  0  0  0  0
  -26.4544  -31.6590   25.0718 C   0  0  0  0  0  0
  -25.3761  -31.3809   26.1435 C   0  0  0  0  0  0
  -27.0410  -30.2956   24.6405 C   0  0  0  0  0  0
  -27.5986  -32.4422   25.7559 C   0  0  0  0  0  0
  -27.5569  -37.1823   24.8466 C   0  0  0  0  0  0
  -21.4204  -29.3085   22.3598 N   0  0  0  0  0  0
  -26.4291  -37.3733   23.9389 N   0  0  0  0  0  0
  -24.7102  -31.0352   22.0944 N   0  0  0  0  0  0
  -23.4160  -28.8105   23.2966 O   0  0  0  0  0  0
  -28.2058  -26.1843   20.1350 O   0  0  0  0  0  0
  -26.5630  -34.8878   22.4594 O   0  0  0  0  0  0
  -23.5541  -32.1314   23.7197 O   0  0  0  0  0  0
  -29.1186  -22.1947   20.5339 C   0  0  0  0  0  0
  -27.6114  -22.3861   18.6065 C   0  0  0  0  0  0
  -28.6967  -23.6818   21.0245 C   0  0  0  0  0  0
  -27.9908  -23.9437   18.6809 C   0  0  0  0  0  0
  -28.0765  -21.3350   19.7200 C   0  0  1  0  0  0
  -27.8974  -24.6697   20.0657 C   0  0  2  0  0  0
  -29.2507  -11.5346   19.8600 C   0  0  0  0  0  0
  -27.4084  -19.3799   18.0665 C   0  0  0  0  0  0
  -28.6958  -15.6397   19.8509 C   0  0  0  0  0  0
  -29.2776  -17.1936   19.5948 C   0  0  0  0  0  0
  -29.6280  -14.1770   19.6797 C   0  0  1  0  0  0
  -28.4399  -19.7790   19.1553 C   0  0  2  0  0  0
  -28.5568  -18.5166   20.0767 N   0  3  0  0  0  0
  -31.9316  -13.2589   18.6621 H   0  0  0  0  0  0
  -31.6119  -11.6962   19.1379 H   0  0  0  0  0  0
  -29.8015  -11.7104   17.2156 H   0  0  0  0  0  0
  -30.0177  -13.3703   16.9887 H   0  0  0  0  0  0
  -27.3909  -12.3015   17.6486 H   0  0  0  0  0  0
  -27.7617  -13.9175   17.7658 H   0  0  0  0  0  0
  -27.2693  -12.1963   19.5120 H   0  0  0  0  0  0
  -28.5817  -12.3903   22.1155 H   0  0  0  0  0  0
  -28.5185  -14.0565   22.0505 H   0  0  0  0  0  0
  -25.2235   -9.5854   22.5053 H   0  0  0  0  0  0
  -23.9921   -7.4461   22.7358 H   0  0  0  0  0  0
  -21.0638   -8.8447   19.8853 H   0  0  0  0  0  0
  -22.3052  -10.9673   19.6429 H   0  0  0  0  0  0
  -21.1973   -7.6116   23.9663 H   0  0  0  0  0  0
  -21.1474   -6.0528   25.9056 H   0  0  0  0  0  0
  -22.0640   -2.7563   23.2868 H   0  0  0  0  0  0
  -22.3150  -12.0160   22.4918 H   0  0  0  0  0  0
  -21.0168  -13.1514   22.2755 H   0  0  0  0  0  0
  -24.6698  -15.9073   20.6496 H   0  0  0  0  0  0
  -26.2706  -15.5914   20.2051 H   0  0  0  0  0  0
  -26.7225  -32.5249   23.0940 H   0  0  0  0  0  0
  -25.0116  -33.9636   25.0315 H   0  0  0  0  0  0
  -22.7421  -31.3021   21.3889 H   0  0  0  0  0  0
  -23.3699  -35.9655   23.3287 H   0  0  0  0  0  0
  -24.3542  -36.8956   22.2058 H   0  0  0  0  0  0
  -23.7290  -37.6510   23.6680 H   0  0  0  0  0  0
  -26.1581  -31.4955   20.6221 H   0  0  0  0  0  0
  -26.8622  -30.7587   22.0260 H   0  0  0  0  0  0
  -28.1337  -28.8307   21.1433 H   0  0  0  0  0  0
  -25.8343  -25.8676   18.9799 H   0  0  0  0  0  0
  -23.9010  -27.3016   19.0461 H   0  0  0  0  0  0
  -23.8151  -30.5990   19.4079 H   0  0  0  0  0  0
  -22.7627  -29.2802   19.8289 H   0  0  0  0  0  0
  -25.1321  -36.1842   25.0775 H   0  0  0  0  0  0
  -20.9953  -28.3337   24.1350 H   0  0  0  0  0  0
  -20.5691  -26.2393   23.3599 H   0  0  0  0  0  0
  -21.6671  -26.7498   22.1200 H   0  0  0  0  0  0
  -19.6977  -25.6284   21.1273 H   0  0  0  0  0  0
  -19.6731  -27.3126   20.6656 H   0  0  0  0  0  0
  -17.4228  -26.6606   21.3994 H   0  0  0  0  0  0
  -18.0379  -26.0112   22.9029 H   0  0  0  0  0  0
  -19.7972  -30.7240   24.2253 H   0  0  0  0  0  0
  -17.5080  -31.6295   24.5148 H   0  0  0  0  0  0
  -15.5391  -30.3014   23.7727 H   0  0  0  0  0  0
  -15.8647  -28.0833   22.7140 H   0  0  0  0  0  0
  -24.5868  -30.7230   25.7799 H   0  0  0  0  0  0
  -24.9066  -32.3028   26.4879 H   0  0  0  0  0  0
  -25.8104  -30.8977   27.0196 H   0  0  0  0  0  0
  -26.3023  -29.6651   24.1454 H   0  0  0  0  0  0
  -27.3970  -29.7340   25.5066 H   0  0  0  0  0  0
  -27.8952  -30.4099   23.9723 H   0  0  0  0  0  0
  -27.2402  -33.3638   26.2156 H   0  0  0  0  0  0
  -28.3810  -32.7189   25.0476 H   0  0  0  0  0  0
  -28.0635  -31.8598   26.5531 H   0  0  0  0  0  0
  -28.2603  -38.0103   24.7422 H   0  0  0  0  0  0
  -28.1051  -36.2633   24.6370 H   0  0  0  0  0  0
  -27.2265  -37.1551   25.8866 H   0  0  0  0  0  0
  -20.9398  -29.8846   21.6835 H   0  0  0  0  0  0
  -26.0149  -38.2793   24.1370 H   0  0  0  0  0  0
  -29.4271  -21.6243   21.4096 H   0  0  0  0  0  0
  -30.0225  -22.2782   19.9276 H   0  0  0  0  0  0
  -28.0113  -22.0640   17.6439 H   0  0  0  0  0  0
  -26.5263  -22.3029   18.5112 H   0  0  0  0  0  0
  -29.5965  -24.1974   21.3621 H   0  0  0  0  0  0
  -28.0943  -23.5659   21.9275 H   0  0  0  0  0  0
  -27.3803  -24.4758   17.9510 H   0  0  0  0  0  0
  -29.0137  -24.0613   18.3171 H   0  0  0  0  0  0
  -27.2159  -21.2182   20.3803 H   0  0  0  0  0  0
  -26.8674  -24.5500   20.3962 H   0  0  0  0  0  0
  -28.5437  -11.0732   20.5591 H   0  0  0  0  0  0
  -30.0775  -10.9368   20.2778 H   0  0  0  0  0  0
  -28.9667  -10.9059   19.0093 H   0  0  0  0  0  0
  -27.3420  -20.0793   17.2359 H   0  0  0  0  0  0
  -26.4032  -19.2817   18.4810 H   0  0  0  0  0  0
  -27.6551  -18.4240   17.6093 H   0  0  0  0  0  0
  -27.8392  -15.5780   19.1817 H   0  0  0  0  0  0
  -28.2499  -15.6932   20.8386 H   0  0  0  0  0  0
  -29.4741  -17.2925   18.5295 H   0  0  0  0  0  0
  -30.2682  -17.2610   20.0473 H   0  0  0  0  0  0
  -30.0021  -14.6423   18.7486 H   0  0  0  0  0  0
  -29.4067  -19.8717   18.6623 H   0  0  0  0  0  0
  -29.0630  -18.8184   20.8966 H   0  0  0  0  0  0
  -27.6329  -18.2919   20.4076 H   0  0  0  0  0  0
  1 25  1  0  0  0
  1 30  2  0  0  0
  1 81  1  0  0  0
  2  3  1  0  0  0
  2 25  1  0  0  0
  2 84  1  0  0  0
  2 85  1  0  0  0
  3  4  1  0  0  0
  3 86  1  0  0  0
  3 87  1  0  0  0
  4  5  1  0  0  0
  4 88  1  0  0  0
  4 89  1  0  0  0
  5  6  1  0  0  0
  5 26  1  0  0  0
  5 90  1  0  0  0
  6 25  1  0  0  0
  6 91  1  0  0  0
  6 92  1  0  0  0
  7  8  2  0  0  0
  7 26  1  0  0  0
  7 29  1  0  0  0
  8  9  1  0  0  0
  8 22  1  0  0  0
  9 10  1  0  0  0
  9 27  2  0  0  0
 10 11  2  0  0  0
 10 15  1  0  0  0
 11 12  1  0  0  0
 11 93  1  0  0  0
 12 13  2  0  0  0
 12 94  1  0  0  0
 13 14  1  0  0  0
 13 31  1  0  0  0
 14 15  2  0  0  0
 14 95  1  0  0  0
 15 96  1  0  0  0
 16 17  2  0  0  0
 16 21  1  0  0  0
 16 31  1  0  0  0
 17 18  1  0  0  0
 17 97  1  0  0  0
 18 19  2  0  0  0
 18 98  1  0  0  0
 19 20  1  0  0  0
 19 24  1  0  0  0
 20 21  2  0  0  0
 20 99  1  0  0  0
 21 23  1  0  0  0
 22 28  1  0  0  0
 22 32  2  0  0  0
 26 27  1  0  0  0
 28100  1  0  0  0
 28101  1  0  0  0
 29102  1  0  0  0
 29103  1  0  0  0
 33 34  1  0  0  0
 33 66  1  0  0  0
 33 70  2  0  0  0
 34 36  1  0  0  0
 34 59  1  0  0  0
 34104  1  0  0  0
 35 44  2  0  0  0
 35 45  1  0  0  0
 35 68  1  0  0  0
 36 56  1  0  0  0
 36105  1  0  0  0
 37 39  1  0  0  0
 37 47  1  0  0  0
 37 66  1  0  0  0
 37106  1  0  0  0
 38 43  2  0  0  0
 38 46  1  0  0  0
 38 47  1  0  0  0
 39 64  1  0  0  0
 39 67  2  0  0  0
 40 52  1  0  0  0
 40 53  2  0  0  0
 40 58  1  0  0  0
 41107  1  0  0  0
 41108  1  0  0  0
 41109  1  0  0  0
 41 48  1  0  0  0
 42 43  1  0  0  0
 42 66  1  0  0  0
 42110  1  0  0  0
 42111  1  0  0  0
 43 44  1  0  0  0
 44112  1  0  0  0
 45 46  2  0  0  0
 45113  1  0  0  0
 46114  1  0  0  0
 47115  1  0  0  0
 47116  1  0  0  0
 48 56  1  0  0  0
 48 65  1  0  0  0
 48117  1  0  0  0
 49 50  1  0  0  0
 49 53  1  0  0  0
 49 64  1  0  0  0
 49118  1  0  0  0
 50 51  1  0  0  0
 50119  1  0  0  0
 50120  1  0  0  0
 51 52  1  0  0  0
 51121  1  0  0  0
 51122  1  0  0  0
 52123  1  0  0  0
 52124  1  0  0  0
 53 54  1  0  0  0
 54 55  2  0  0  0
 54125  1  0  0  0
 55 57  1  0  0  0
 55126  1  0  0  0
 56 69  2  0  0  0
 57 58  2  0  0  0
 57127  1  0  0  0
 58128  1  0  0  0
 59 60  1  0  0  0
 59 61  1  0  0  0
 59 62  1  0  0  0
 60129  1  0  0  0
 60130  1  0  0  0
 60131  1  0  0  0
 61132  1  0  0  0
 61133  1  0  0  0
 61134  1  0  0  0
 62135  1  0  0  0
 62136  1  0  0  0
 62137  1  0  0  0
 63 65  1  0  0  0
 63138  1  0  0  0
 63139  1  0  0  0
 63140  1  0  0  0
 64141  1  0  0  0
 65142  1  0  0  0
 68 76  1  0  0  0
 71 73  1  0  0  0
 71143  1  0  0  0
 71144  1  0  0  0
 71 75  1  0  0  0
 72 74  1  0  0  0
 72 75  1  0  0  0
 72145  1  0  0  0
 72146  1  0  0  0
 73 76  1  0  0  0
 73147  1  0  0  0
 73148  1  0  0  0
 74 76  1  0  0  0
 74149  1  0  0  0
 74150  1  0  0  0
 75 82  1  0  0  0
 75151  1  0  0  0
 76152  1  0  0  0
 77153  1  0  0  0
 77154  1  0  0  0
 77155  1  0  0  0
 77 81  1  0  0  0
 78156  1  0  0  0
 78157  1  0  0  0
 78158  1  0  0  0
 78 82  1  0  0  0
 79 80  1  0  0  0
 79 81  1  0  0  0
 79159  1  0  0  0
 79160  1  0  0  0
 80 83  1  0  0  0
 80161  1  0  0  0
 80162  1  0  0  0
 81163  1  0  0  0
 82 83  1  0  0  0
 82164  1  0  0  0
 83165  1  0  0  0
 83166  1  0  0  0
M  CHG  1  83   1
M  ISO  4   1 100  68 101  76 101  81 100
M  END
> <chiral flag>
0

> <version>
0

> <s_m_source_file>
/data/baiqing/PycharmProjects/Reinvent-master-3.2/result/LINK_invent/BTK/process_docking_weight1_custom_sum_contain_oxygen_bond_distance_aromatic_linkinvent_7_9_3/rearranged_h_0114.sdf

> <i_m_source_file_index>
25

> <r_mmod_Potential_Energy-OPLS-2005>
5002.2109375

> <r_mmod_Stretch_Energy-OPLS-2005>
2661.85498046875

> <r_mmod_Bend_Energy-OPLS-2005>
857.054016113281

> <r_mmod_Torsional_Energy-OPLS-2005>
330.640716552734

> <r_mmod_Improper_Torsional_Energy-OPLS-2005>
63.8535957336426

> <r_mmod_Van_der_Waal_Energy-OPLS-2005>
1460.66027832031

> <r_mmod_Electrostatic_Energy-OPLS-2005>
-218.12353515625

> <r_mmod_Solvation_Energy-OPLS-2005>
-450.033386230469

> <b_mmod_Minimization_Converged-OPLS-2005>
0

> <r_mmod_RMS_Derivative-OPLS-2005>
6.34065198898315

$$$$
25
                    3D
 Structure written by MMmdl.
180189  0  0  1  0            999 V2000
  -30.8169  -14.2826   20.7033 C   0  0  0  0  0  0
  -30.4040  -12.2614   19.3678 C   0  0  0  0  0  0
  -29.4698  -12.5290   18.1768 C   0  0  0  0  0  0
  -27.9985  -12.3840   18.6024 C   0  0  0  0  0  0
  -27.6684  -13.1998   19.8788 C   0  0  2  0  0  0
  -28.7083  -12.9325   20.9900 C   0  0  0  0  0  0
  -25.2620  -13.8159   20.5682 C   0  0  0  0  0  0
  -24.1854  -13.0440   20.9163 C   0  0  0  0  0  0
  -24.6393  -11.6905   20.8721 C   0  0  0  0  0  0
  -23.9054  -10.4292   21.0399 C   0  0  0  0  0  0
  -24.3612   -9.4210   21.9180 C   0  0  0  0  0  0
  -23.6288   -8.2246   22.0757 C   0  0  0  0  0  0
  -22.4268   -8.0281   21.3546 C   0  0  0  0  0  0
  -21.9902   -9.0253   20.4650 C   0  0  0  0  0  0
  -22.7228  -10.2133   20.3055 C   0  0  0  0  0  0
  -21.6851   -6.0735   22.5277 C   0  0  0  0  0  0
  -21.4014   -6.5638   23.8208 C   0  0  0  0  0  0
  -21.3659   -5.6793   24.9175 C   0  0  0  0  0  0
  -21.6044   -4.3055   24.7227 C   0  0  0  0  0  0
  -21.8818   -3.8146   23.4345 C   0  0  0  0  0  0
  -21.9193   -4.6963   22.3405 C   0  0  0  0  0  0
  -22.7875  -13.5244   21.1821 C   0  0  0  0  0  0
  -22.1658   -4.2149   21.0981 F   0  0  0  0  0  0
  -21.5632   -3.4540   25.7737 F   0  0  0  0  0  0
  -30.0582  -13.1899   20.4517 N   0  0  0  0  0  0
  -26.3061  -12.9318   20.3397 N   0  0  0  0  0  0
  -25.9321  -11.6477   20.5774 N   0  0  0  0  0  0
  -22.0514  -12.8245   22.0387 N   0  0  0  0  0  0
  -25.4351  -15.1878   20.4081 N   0  0  0  0  0  0
  -31.7701  -14.6337   20.0018 O   0  0  0  0  0  0
  -21.6635   -6.8879   21.4235 O   0  0  0  0  0  0
  -22.3564  -14.5557   20.6684 O   0  0  0  0  0  0
  -24.6094  -31.8656   23.2089 C   0  0  0  0  0  0
  -25.8999  -32.4800   23.8391 C   0  0  1  0  0  0
  -27.2421  -27.4921   20.1001 C   0  0  0  0  0  0
  -25.5874  -33.8592   24.2310 N   0  0  0  0  0  0
  -23.3973  -30.4879   21.5459 C   0  0  2  0  0  0
  -24.8485  -28.9743   20.0877 C   0  0  0  0  0  0
  -22.7385  -29.4639   22.4969 C   0  0  0  0  0  0
  -18.0268  -28.1377   22.8484 C   0  0  0  0  0  0
  -24.1497  -36.7326   23.2646 C   0  0  0  0  0  0
  -25.9157  -30.8640   21.3432 C   0  0  0  0  0  0
  -26.0040  -29.5154   20.6633 C   0  0  0  0  0  0
  -27.2121  -28.7966   20.6342 C   0  0  0  0  0  0
  -26.0858  -26.9639   19.4911 C   0  0  0  0  0  0
  -24.8864  -27.7041   19.4801 C   0  0  0  0  0  0
  -23.5990  -29.8203   20.1571 C   0  0  0  0  0  0
  -25.4105  -36.3081   24.0347 C   0  0  1  0  0  0
  -20.5847  -28.3654   23.1327 C   0  0  2  0  0  0
  -20.6754  -26.9392   22.5426 C   0  0  0  0  0  0
  -19.5734  -26.6382   21.5217 C   0  0  0  0  0  0
  -18.1904  -26.7921   22.1622 C   0  0  0  0  0  0
  -19.1515  -28.8836   23.2904 C   0  0  0  0  0  0
  -18.9448  -30.1442   23.8919 C   0  0  0  0  0  0
  -17.6448  -30.6569   24.0593 C   0  0  0  0  0  0
  -25.9028  -34.9460   23.5116 C   0  0  0  0  0  0
  -16.5338  -29.9089   23.6335 C   0  0  0  0  0  0
  -16.7266  -28.6511   23.0325 C   0  0  0  0  0  0
  -26.4461  -31.6582   25.0708 C   0  0  0  0  0  0
  -25.3757  -31.3698   26.1473 C   0  0  0  0  0  0
  -27.0255  -30.3024   24.6035 C   0  0  0  0  0  0
  -27.6058  -32.4311   25.7436 C   0  0  0  0  0  0
  -27.5583  -37.1790   24.8455 C   0  0  0  0  0  0
  -21.4103  -29.3039   22.3745 N   0  0  0  0  0  0
  -26.4281  -37.3773   23.9423 N   0  0  0  0  0  0
  -24.6592  -31.0831   22.0936 N   0  0  0  0  0  0
  -23.4184  -28.8176   23.2991 O   0  0  0  0  0  0
  -28.3117  -26.6688   20.3518 O   0  0  0  0  0  0
  -26.5591  -34.8913   22.4676 O   0  0  0  0  0  0
  -23.5300  -32.1358   23.7544 O   0  0  0  0  0  0
  -31.0173  -23.6119   22.3159 C   0  0  0  0  0  0
  -28.9279  -22.5600   22.9861 C   0  0  0  0  0  0
  -30.2996  -24.7063   21.7809 C   0  0  0  0  0  0
  -28.2143  -23.6340   22.4354 C   0  0  0  0  0  0
  -30.3400  -22.5495   22.9599 C   0  0  0  0  0  0
  -28.8909  -24.7337   21.8698 C   0  0  0  0  0  0
  -29.2917  -18.4544   24.6045 C   0  0  0  0  0  0
  -29.8023  -19.4455   23.5676 C   0  0  0  0  0  0
  -31.0709  -19.8057   25.5003 C   0  0  0  0  0  0
  -30.4057  -18.4197   25.6671 C   0  0  2  0  0  0
  -28.2389  -26.9074   22.8549 C   0  0  0  0  0  0
  -33.0789  -14.5464   25.6014 C   0  0  0  0  0  0
  -31.1468  -21.4875   23.7082 C   0  0  0  0  0  0
  -32.3977  -15.5747   23.3764 C   0  0  0  0  0  0
  -31.3017  -16.0199   22.3851 C   0  0  0  0  0  0
  -30.9442  -15.9480   25.5007 C   0  0  0  0  0  0
  -28.0779  -25.9925   21.6152 C   0  0  1  0  0  0
  -31.8963  -15.0008   24.7282 C   0  0  2  0  0  0
  -30.3462  -20.4896   24.4259 N   0  0  0  0  0  0
  -30.5469  -14.8940   21.8579 N   0  0  0  0  0  0
  -31.4135  -17.3516   25.4526 N   0  3  0  0  0  0
  -31.4466  -12.3488   19.0572 H   0  0  0  0  0  0
  -30.2872  -11.2342   19.7167 H   0  0  0  0  0  0
  -29.6904  -11.8396   17.3606 H   0  0  0  0  0  0
  -29.6435  -13.5330   17.7864 H   0  0  0  0  0  0
  -27.8030  -11.3253   18.7770 H   0  0  0  0  0  0
  -27.3394  -12.6835   17.7866 H   0  0  0  0  0  0
  -27.7309  -14.2555   19.6132 H   0  0  0  0  0  0
  -28.6543  -11.8925   21.3160 H   0  0  0  0  0  0
  -28.4669  -13.5265   21.8710 H   0  0  0  0  0  0
  -25.2762   -9.5684   22.4750 H   0  0  0  0  0  0
  -23.9997   -7.4640   22.7479 H   0  0  0  0  0  0
  -21.0836   -8.8771   19.8958 H   0  0  0  0  0  0
  -22.3688  -10.9670   19.6167 H   0  0  0  0  0  0
  -21.2002   -7.6146   23.9715 H   0  0  0  0  0  0
  -21.1482   -6.0523   25.9079 H   0  0  0  0  0  0
  -22.0599   -2.7606   23.2847 H   0  0  0  0  0  0
  -22.4117  -11.9897   22.4768 H   0  0  0  0  0  0
  -21.1136  -13.1282   22.2596 H   0  0  0  0  0  0
  -24.6731  -15.8480   20.5195 H   0  0  0  0  0  0
  -26.2992  -15.6254   20.1116 H   0  0  0  0  0  0
  -26.7082  -32.5526   23.1177 H   0  0  0  0  0  0
  -25.0001  -33.9772   25.0430 H   0  0  0  0  0  0
  -22.6846  -31.3022   21.4072 H   0  0  0  0  0  0
  -23.3736  -35.9678   23.3275 H   0  0  0  0  0  0
  -24.3603  -36.8975   22.2073 H   0  0  0  0  0  0
  -23.7290  -37.6542   23.6673 H   0  0  0  0  0  0
  -26.0207  -31.6463   20.5912 H   0  0  0  0  0  0
  -26.8030  -30.9047   21.9621 H   0  0  0  0  0  0
  -28.0985  -29.2011   21.1069 H   0  0  0  0  0  0
  -26.0983  -25.9586   19.0941 H   0  0  0  0  0  0
  -23.9978  -27.2813   19.0330 H   0  0  0  0  0  0
  -23.6844  -30.5940   19.3929 H   0  0  0  0  0  0
  -22.7300  -29.2238   19.8741 H   0  0  0  0  0  0
  -25.1273  -36.1929   25.0846 H   0  0  0  0  0  0
  -20.9932  -28.3221   24.1454 H   0  0  0  0  0  0
  -20.5641  -26.2261   23.3609 H   0  0  0  0  0  0
  -21.6622  -26.7432   22.1219 H   0  0  0  0  0  0
  -19.6895  -25.6299   21.1239 H   0  0  0  0  0  0
  -19.6671  -27.3212   20.6764 H   0  0  0  0  0  0
  -17.4171  -26.6662   21.4034 H   0  0  0  0  0  0
  -18.0303  -26.0066   22.9028 H   0  0  0  0  0  0
  -19.7925  -30.7267   24.2240 H   0  0  0  0  0  0
  -17.5015  -31.6259   24.5193 H   0  0  0  0  0  0
  -15.5341  -30.3002   23.7644 H   0  0  0  0  0  0
  -15.8658  -28.0870   22.6983 H   0  0  0  0  0  0
  -24.5876  -30.7124   25.7796 H   0  0  0  0  0  0
  -24.9024  -32.2863   26.4998 H   0  0  0  0  0  0
  -25.8086  -30.8764   27.0179 H   0  0  0  0  0  0
  -26.2748  -29.6793   24.1139 H   0  0  0  0  0  0
  -27.4086  -29.7256   25.4463 H   0  0  0  0  0  0
  -27.8575  -30.4346   23.9109 H   0  0  0  0  0  0
  -27.2709  -33.3637   26.2008 H   0  0  0  0  0  0
  -28.3817  -32.6858   25.0192 H   0  0  0  0  0  0
  -28.0755  -31.8422   26.5327 H   0  0  0  0  0  0
  -28.2526  -38.0153   24.7506 H   0  0  0  0  0  0
  -28.1140  -36.2663   24.6221 H   0  0  0  0  0  0
  -27.2305  -37.1383   25.8861 H   0  0  0  0  0  0
  -20.9212  -29.8773   21.7013 H   0  0  0  0  0  0
  -26.0151  -38.2835   24.1453 H   0  0  0  0  0  0
  -32.0986  -23.6221   22.2949 H   0  0  0  0  0  0
  -28.3677  -21.7879   23.4925 H   0  0  0  0  0  0
  -30.8365  -25.5559   21.3802 H   0  0  0  0  0  0
  -27.1373  -23.6496   22.5383 H   0  0  0  0  0  0
  -29.0092  -17.5023   24.1639 H   0  0  0  0  0  0
  -28.3790  -18.8519   25.0526 H   0  0  0  0  0  0
  -29.0100  -19.7918   22.9035 H   0  0  0  0  0  0
  -30.5865  -19.0052   22.9496 H   0  0  0  0  0  0
  -32.1278  -19.7106   25.2434 H   0  0  0  0  0  0
  -31.0176  -20.3878   26.4221 H   0  0  0  0  0  0
  -29.9762  -18.3072   26.6640 H   0  0  0  0  0  0
  -28.0763  -26.3370   23.7707 H   0  0  0  0  0  0
  -27.5084  -27.7118   22.8918 H   0  0  0  0  0  0
  -29.2375  -27.3397   22.9145 H   0  0  0  0  0  0
  -33.6886  -13.8066   25.0812 H   0  0  0  0  0  0
  -32.7358  -14.0809   26.5263 H   0  0  0  0  0  0
  -33.7313  -15.3771   25.8705 H   0  0  0  0  0  0
  -31.7558  -22.0243   24.4375 H   0  0  0  0  0  0
  -31.8499  -21.0040   23.0265 H   0  0  0  0  0  0
  -33.0682  -16.4156   23.5575 H   0  0  0  0  0  0
  -33.0251  -14.8284   22.8859 H   0  0  0  0  0  0
  -31.7553  -16.5911   21.5730 H   0  0  0  0  0  0
  -30.5957  -16.7033   22.8419 H   0  0  0  0  0  0
  -30.8350  -15.6372   26.5410 H   0  0  0  0  0  0
  -29.9501  -15.8462   25.0713 H   0  0  0  0  0  0
  -27.0374  -25.6571   21.6175 H   0  0  0  0  0  0
  -31.3254  -14.0974   24.5095 H   0  0  0  0  0  0
  -29.7755  -14.5311   22.3972 H   0  0  0  0  0  0
  -32.1272  -17.4566   26.1578 H   0  0  0  0  0  0
  -31.8573  -17.5025   24.5626 H   0  0  0  0  0  0
  1 25  1  0  0  0
  1 30  2  0  0  0
  1 90  1  0  0  0
  2  3  1  0  0  0
  2 25  1  0  0  0
  2 92  1  0  0  0
  2 93  1  0  0  0
  3  4  1  0  0  0
  3 94  1  0  0  0
  3 95  1  0  0  0
  4  5  1  0  0  0
  4 96  1  0  0  0
  4 97  1  0  0  0
  5  6  1  0  0  0
  5 26  1  0  0  0
  5 98  1  0  0  0
  6 25  1  0  0  0
  6 99  1  0  0  0
  6100  1  0  0  0
  7  8  2  0  0  0
  7 26  1  0  0  0
  7 29  1  0  0  0
  8  9  1  0  0  0
  8 22  1  0  0  0
  9 10  1  0  0  0
  9 27  2  0  0  0
 10 11  2  0  0  0
 10 15  1  0  0  0
 11 12  1  0  0  0
 11101  1  0  0  0
 12 13  2  0  0  0
 12102  1  0  0  0
 13 14  1  0  0  0
 13 31  1  0  0  0
 14 15  2  0  0  0
 14103  1  0  0  0
 15104  1  0  0  0
 16 17  2  0  0  0
 16 21  1  0  0  0
 16 31  1  0  0  0
 17 18  1  0  0  0
 17105  1  0  0  0
 18 19  2  0  0  0
 18106  1  0  0  0
 19 20  1  0  0  0
 19 24  1  0  0  0
 20 21  2  0  0  0
 20107  1  0  0  0
 21 23  1  0  0  0
 22 28  1  0  0  0
 22 32  2  0  0  0
 26 27  1  0  0  0
 28108  1  0  0  0
 28109  1  0  0  0
 29110  1  0  0  0
 29111  1  0  0  0
 33 34  1  0  0  0
 33 66  1  0  0  0
 33 70  2  0  0  0
 34 36  1  0  0  0
 34 59  1  0  0  0
 34112  1  0  0  0
 35 44  2  0  0  0
 35 45  1  0  0  0
 35 68  1  0  0  0
 36 56  1  0  0  0
 36113  1  0  0  0
 37 39  1  0  0  0
 37 47  1  0  0  0
 37 66  1  0  0  0
 37114  1  0  0  0
 38 43  2  0  0  0
 38 46  1  0  0  0
 38 47  1  0  0  0
 39 64  1  0  0  0
 39 67  2  0  0  0
 40 52  1  0  0  0
 40 53  2  0  0  0
 40 58  1  0  0  0
 41115  1  0  0  0
 41116  1  0  0  0
 41117  1  0  0  0
 41 48  1  0  0  0
 42 43  1  0  0  0
 42 66  1  0  0  0
 42118  1  0  0  0
 42119  1  0  0  0
 43 44  1  0  0  0
 44120  1  0  0  0
 45 46  2  0  0  0
 45121  1  0  0  0
 46122  1  0  0  0
 47123  1  0  0  0
 47124  1  0  0  0
 48 56  1  0  0  0
 48 65  1  0  0  0
 48125  1  0  0  0
 49 50  1  0  0  0
 49 53  1  0  0  0
 49 64  1  0  0  0
 49126  1  0  0  0
 50 51  1  0  0  0
 50127  1  0  0  0
 50128  1  0  0  0
 51 52  1  0  0  0
 51129  1  0  0  0
 51130  1  0  0  0
 52131  1  0  0  0
 52132  1  0  0  0
 53 54  1  0  0  0
 54 55  2  0  0  0
 54133  1  0  0  0
 55 57  1  0  0  0
 55134  1  0  0  0
 56 69  2  0  0  0
 57 58  2  0  0  0
 57135  1  0  0  0
 58136  1  0  0  0
 59 60  1  0  0  0
 59 61  1  0  0  0
 59 62  1  0  0  0
 60137  1  0  0  0
 60138  1  0  0  0
 60139  1  0  0  0
 61140  1  0  0  0
 61141  1  0  0  0
 61142  1  0  0  0
 62143  1  0  0  0
 62144  1  0  0  0
 62145  1  0  0  0
 63 65  1  0  0  0
 63146  1  0  0  0
 63147  1  0  0  0
 63148  1  0  0  0
 64149  1  0  0  0
 65150  1  0  0  0
 68 87  1  0  0  0
 71 73  2  0  0  0
 71 75  1  0  0  0
 71151  1  0  0  0
 72 74  1  0  0  0
 72 75  2  0  0  0
 72152  1  0  0  0
 73 76  1  0  0  0
 73153  1  0  0  0
 74 76  2  0  0  0
 74154  1  0  0  0
 75 83  1  0  0  0
 76 87  1  0  0  0
 77 78  1  0  0  0
 77 80  1  0  0  0
 77155  1  0  0  0
 77156  1  0  0  0
 78 89  1  0  0  0
 78157  1  0  0  0
 78158  1  0  0  0
 79 80  1  0  0  0
 79 89  1  0  0  0
 79159  1  0  0  0
 79160  1  0  0  0
 80 91  1  0  0  0
 80161  1  0  0  0
 81162  1  0  0  0
 81163  1  0  0  0
 81164  1  0  0  0
 81 87  1  0  0  0
 82165  1  0  0  0
 82166  1  0  0  0
 82167  1  0  0  0
 82 88  1  0  0  0
 83 89  1  0  0  0
 83168  1  0  0  0
 83169  1  0  0  0
 84 85  1  0  0  0
 84 88  1  0  0  0
 84170  1  0  0  0
 84171  1  0  0  0
 85 90  1  0  0  0
 85172  1  0  0  0
 85173  1  0  0  0
 86 88  1  0  0  0
 86 91  1  0  0  0
 86174  1  0  0  0
 86175  1  0  0  0
 87176  1  0  0  0
 88177  1  0  0  0
 90178  1  0  0  0
 91179  1  0  0  0
 91180  1  0  0  0
M  CHG  1  91   1
M  ISO  4   1 100  68 101  87 101  90 100
M  END
> <chiral flag>
0

> <version>
0

> <s_m_source_file>
/data/baiqing/PycharmProjects/Reinvent-master-3.2/result/LINK_invent/BTK/process_docking_weight1_custom_sum_contain_oxygen_bond_distance_aromatic_linkinvent_7_9_3/rearranged_h_0114.sdf

> <i_m_source_file_index>
26

> <r_mmod_Potential_Energy-OPLS-2005>
-55.7635154724121

> <r_mmod_Stretch_Energy-OPLS-2005>
36.5900840759277

> <r_mmod_Bend_Energy-OPLS-2005>
127.468383789062

> <r_mmod_Torsional_Energy-OPLS-2005>
334.163269042969

> <r_mmod_Improper_Torsional_Energy-OPLS-2005>
5.68798446655273

> <r_mmod_Van_der_Waal_Energy-OPLS-2005>
165.160018920898

> <r_mmod_Electrostatic_Energy-OPLS-2005>
-271.64990234375

> <r_mmod_Solvation_Energy-OPLS-2005>
-474.615020751953

> <b_mmod_Minimization_Converged-OPLS-2005>
0

> <r_mmod_RMS_Derivative-OPLS-2005>
2.5299243927002

$$$$
26
                    3D
 Structure written by MMmdl.
170178  0  0  1  0            999 V2000
  -30.6725  -14.6201   20.4292 C   0  0  0  0  0  0
  -30.4063  -12.3593   19.4625 C   0  0  0  0  0  0
  -29.4934  -12.4747   18.2270 C   0  0  0  0  0  0
  -28.0197  -12.3246   18.6422 C   0  0  0  0  0  0
  -27.6408  -13.2241   19.8482 C   0  0  2  0  0  0
  -28.6856  -13.1389   20.9826 C   0  0  0  0  0  0
  -25.2501  -13.8191   20.5681 C   0  0  0  0  0  0
  -24.1798  -13.0431   20.9222 C   0  0  0  0  0  0
  -24.6384  -11.6921   20.8764 C   0  0  0  0  0  0
  -23.9058  -10.4286   21.0402 C   0  0  0  0  0  0
  -24.3623   -9.4211   21.9180 C   0  0  0  0  0  0
  -23.6302   -8.2237   22.0742 C   0  0  0  0  0  0
  -22.4274   -8.0272   21.3539 C   0  0  0  0  0  0
  -21.9907   -9.0250   20.4642 C   0  0  0  0  0  0
  -22.7232  -10.2130   20.3053 C   0  0  0  0  0  0
  -21.6852   -6.0730   22.5279 C   0  0  0  0  0  0
  -21.4008   -6.5643   23.8210 C   0  0  0  0  0  0
  -21.3659   -5.6798   24.9183 C   0  0  0  0  0  0
  -21.6037   -4.3056   24.7235 C   0  0  0  0  0  0
  -21.8826   -3.8149   23.4358 C   0  0  0  0  0  0
  -21.9194   -4.6958   22.3413 C   0  0  0  0  0  0
  -22.7824  -13.5201   21.1928 C   0  0  0  0  0  0
  -22.1670   -4.2141   21.0986 F   0  0  0  0  0  0
  -21.5631   -3.4541   25.7749 F   0  0  0  0  0  0
  -29.9996  -13.4295   20.3969 N   0  0  0  0  0  0
  -26.2914  -12.9388   20.3283 N   0  0  0  0  0  0
  -25.9304  -11.6536   20.5768 N   0  0  0  0  0  0
  -22.0505  -12.8129   22.0468 N   0  0  0  0  0  0
  -25.4160  -15.1898   20.4051 N   0  0  0  0  0  0
  -31.8692  -14.6576   20.1424 O   0  0  0  0  0  0
  -21.6639   -6.8867   21.4231 O   0  0  0  0  0  0
  -22.3489  -14.5502   20.6785 O   0  0  0  0  0  0
  -24.6220  -31.8627   23.2057 C   0  0  0  0  0  0
  -25.9090  -32.4798   23.8352 C   0  0  1  0  0  0
  -27.2190  -27.3562   20.1048 C   0  0  0  0  0  0
  -25.5915  -33.8580   24.2305 N   0  0  0  0  0  0
  -23.4144  -30.4874   21.5481 C   0  0  2  0  0  0
  -24.8586  -28.9435   20.1090 C   0  0  0  0  0  0
  -22.7458  -29.4671   22.4975 C   0  0  0  0  0  0
  -18.0333  -28.1354   22.8494 C   0  0  0  0  0  0
  -24.1497  -36.7302   23.2647 C   0  0  0  0  0  0
  -25.9516  -30.8010   21.3722 C   0  0  0  0  0  0
  -26.0273  -29.4327   20.7107 C   0  0  0  0  0  0
  -27.2168  -28.6471   20.7052 C   0  0  0  0  0  0
  -26.0381  -26.9074   19.4839 C   0  0  0  0  0  0
  -24.8637  -27.6840   19.4870 C   0  0  0  0  0  0
  -23.6236  -29.8198   20.1633 C   0  0  0  0  0  0
  -25.4115  -36.3097   24.0352 C   0  0  1  0  0  0
  -20.5903  -28.3726   23.1325 C   0  0  2  0  0  0
  -20.6776  -26.9496   22.5377 C   0  0  0  0  0  0
  -19.5840  -26.6741   21.5017 C   0  0  0  0  0  0
  -18.2057  -26.7952   22.1534 C   0  0  0  0  0  0
  -19.1550  -28.8853   23.2900 C   0  0  0  0  0  0
  -18.9448  -30.1487   23.8830 C   0  0  0  0  0  0
  -17.6437  -30.6597   24.0475 C   0  0  0  0  0  0
  -25.9024  -34.9460   23.5132 C   0  0  0  0  0  0
  -16.5348  -29.9031   23.6280 C   0  0  0  0  0  0
  -16.7299  -28.6441   23.0322 C   0  0  0  0  0  0
  -26.4503  -31.6580   25.0689 C   0  0  0  0  0  0
  -25.3779  -31.3663   26.1449 C   0  0  0  0  0  0
  -27.0332  -30.3001   24.6110 C   0  0  0  0  0  0
  -27.6079  -32.4302   25.7452 C   0  0  0  0  0  0
  -27.5591  -37.1815   24.8469 C   0  0  0  0  0  0
  -21.4171  -29.3103   22.3742 N   0  0  0  0  0  0
  -26.4301  -37.3784   23.9417 N   0  0  0  0  0  0
  -24.6806  -31.0661   22.0989 N   0  0  0  0  0  0
  -23.4199  -28.8214   23.3039 O   0  0  0  0  0  0
  -28.3021  -26.4819   20.1329 O   0  0  0  0  0  0
  -26.5600  -34.8940   22.4701 O   0  0  0  0  0  0
  -23.5398  -32.1410   23.7425 O   0  0  0  0  0  0
  -29.3706  -23.4661   19.7105 C   0  0  0  0  0  0
  -27.8159  -22.8438   21.4103 C   0  0  0  0  0  0
  -28.4354  -23.8838   20.6784 C   0  0  0  0  0  0
  -29.6885  -22.0849   19.5190 C   0  0  0  0  0  0
  -28.1136  -21.4579   21.2497 C   0  0  0  0  0  0
  -29.1160  -21.0343   20.3102 C   0  0  0  0  0  0
  -30.6762  -21.7550   18.4099 C   0  0  0  0  0  0
  -25.8115  -20.5220   21.8772 C   0  0  0  0  0  0
  -27.9152  -17.9937   19.7408 C   0  0  0  0  0  0
  -31.5678  -17.5821   21.0917 C   0  0  0  0  0  0
  -30.7891  -17.2687   18.7190 C   0  0  0  0  0  0
  -27.3212  -20.5347   22.1777 C   0  0  0  0  0  0
  -28.1309  -25.3697   21.0729 C   0  0  0  0  0  0
  -29.2297  -18.3249   20.4652 C   0  0  2  0  0  0
  -30.3567  -17.2054   20.2065 C   0  0  0  0  0  0
  -29.6514  -19.7111   20.0912 N   0  0  0  0  0  0
  -29.9370  -15.7785   20.5249 N   0  0  0  0  0  0
  -31.4551  -12.4275   19.1701 H   0  0  0  0  0  0
  -30.2937  -11.3810   19.9319 H   0  0  0  0  0  0
  -29.7496  -11.7133   17.4886 H   0  0  0  0  0  0
  -29.6452  -13.4404   17.7408 H   0  0  0  0  0  0
  -27.8595  -11.2767   18.8997 H   0  0  0  0  0  0
  -27.3621  -12.5304   17.7987 H   0  0  0  0  0  0
  -27.6437  -14.2462   19.4724 H   0  0  0  0  0  0
  -28.6832  -12.1488   21.4408 H   0  0  0  0  0  0
  -28.4476  -13.8460   21.7797 H   0  0  0  0  0  0
  -25.2776   -9.5677   22.4752 H   0  0  0  0  0  0
  -24.0025   -7.4604   22.7440 H   0  0  0  0  0  0
  -21.0848   -8.8769   19.8927 H   0  0  0  0  0  0
  -22.3703  -10.9679   19.6164 H   0  0  0  0  0  0
  -21.1998   -7.6149   23.9714 H   0  0  0  0  0  0
  -21.1473   -6.0530   25.9084 H   0  0  0  0  0  0
  -22.0604   -2.7605   23.2866 H   0  0  0  0  0  0
  -22.4148  -11.9767   22.4787 H   0  0  0  0  0  0
  -21.1129  -13.1105   22.2748 H   0  0  0  0  0  0
  -24.6423  -15.8389   20.5055 H   0  0  0  0  0  0
  -26.2471  -15.6245   20.0297 H   0  0  0  0  0  0
  -26.7165  -32.5487   23.1118 H   0  0  0  0  0  0
  -25.0081  -33.9720   25.0462 H   0  0  0  0  0  0
  -22.7056  -31.3077   21.4046 H   0  0  0  0  0  0
  -23.3760  -35.9632   23.3303 H   0  0  0  0  0  0
  -24.3599  -36.8888   22.2055 H   0  0  0  0  0  0
  -23.7244  -37.6511   23.6642 H   0  0  0  0  0  0
  -26.0857  -31.5718   20.6130 H   0  0  0  0  0  0
  -26.8306  -30.8440   22.0021 H   0  0  0  0  0  0
  -28.1133  -29.0111   21.1889 H   0  0  0  0  0  0
  -26.0219  -25.9344   19.0153 H   0  0  0  0  0  0
  -23.9692  -27.2994   19.0155 H   0  0  0  0  0  0
  -23.7394  -30.5965   19.4047 H   0  0  0  0  0  0
  -22.7411  -29.2497   19.8683 H   0  0  0  0  0  0
  -25.1305  -36.1968   25.0844 H   0  0  0  0  0  0
  -20.9988  -28.3284   24.1446 H   0  0  0  0  0  0
  -20.5469  -26.2354   23.3515 H   0  0  0  0  0  0
  -21.6669  -26.7457   22.1293 H   0  0  0  0  0  0
  -19.7112  -25.6904   21.0478 H   0  0  0  0  0  0
  -19.6711  -27.4000   20.6906 H   0  0  0  0  0  0
  -17.4279  -26.6635   21.4001 H   0  0  0  0  0  0
  -18.0694  -25.9993   22.8859 H   0  0  0  0  0  0
  -19.7901  -30.7379   24.2111 H   0  0  0  0  0  0
  -17.4961  -31.6299   24.5031 H   0  0  0  0  0  0
  -15.5323  -30.2906   23.7529 H   0  0  0  0  0  0
  -15.8741  -28.0707   22.7009 H   0  0  0  0  0  0
  -24.5987  -30.6964   25.7816 H   0  0  0  0  0  0
  -24.8934  -32.2773   26.4942 H   0  0  0  0  0  0
  -25.8172  -30.8832   27.0178 H   0  0  0  0  0  0
  -26.2875  -29.6766   24.1156 H   0  0  0  0  0  0
  -27.4051  -29.7259   25.4601 H   0  0  0  0  0  0
  -27.8753  -30.4288   23.9305 H   0  0  0  0  0  0
  -27.2706  -33.3607   26.2041 H   0  0  0  0  0  0
  -28.3888  -32.6838   25.0268 H   0  0  0  0  0  0
  -28.0752  -31.8397   26.5340 H   0  0  0  0  0  0
  -28.2632  -38.0094   24.7516 H   0  0  0  0  0  0
  -28.1068  -36.2627   24.6306 H   0  0  0  0  0  0
  -27.2300  -37.1480   25.8868 H   0  0  0  0  0  0
  -20.9363  -29.8816   21.6938 H   0  0  0  0  0  0
  -26.0198  -38.2876   24.1358 H   0  0  0  0  0  0
  -29.8718  -24.2212   19.1231 H   0  0  0  0  0  0
  -27.0954  -23.1306   22.1636 H   0  0  0  0  0  0
  -30.2299  -21.0450   17.7156 H   0  0  0  0  0  0
  -31.5938  -21.3207   18.8060 H   0  0  0  0  0  0
  -30.9385  -22.6420   17.8308 H   0  0  0  0  0  0
  -25.6066  -20.1583   20.8708 H   0  0  0  0  0  0
  -25.3683  -21.5155   21.9745 H   0  0  0  0  0  0
  -25.2881  -19.8643   22.5727 H   0  0  0  0  0  0
  -28.0533  -17.9543   18.6599 H   0  0  0  0  0  0
  -27.1529  -18.7462   19.9295 H   0  0  0  0  0  0
  -27.5091  -17.0384   20.0627 H   0  0  0  0  0  0
  -31.8943  -18.6083   20.9240 H   0  0  0  0  0  0
  -32.4415  -16.9643   20.8962 H   0  0  0  0  0  0
  -31.3260  -17.4932   22.1520 H   0  0  0  0  0  0
  -31.0919  -18.2699   18.4176 H   0  0  0  0  0  0
  -29.9886  -16.9546   18.0501 H   0  0  0  0  0  0
  -31.6461  -16.6266   18.5158 H   0  0  0  0  0  0
  -27.4732  -20.8820   23.2001 H   0  0  0  0  0  0
  -27.6790  -19.5188   22.1792 H   0  0  0  0  0  0
  -28.7776  -25.5874   21.9224 H   0  0  0  0  0  0
  -27.1217  -25.3857   21.4932 H   0  0  0  0  0  0
  -29.0723  -18.2986   21.5387 H   0  0  0  0  0  0
  -30.4163  -19.6984   19.4278 H   0  0  0  0  0  0
  -28.9562  -15.6504   20.7231 H   0  0  0  0  0  0
  1 25  1  0  0  0
  1 30  2  0  0  0
  1 87  1  0  0  0
  2  3  1  0  0  0
  2 25  1  0  0  0
  2 88  1  0  0  0
  2 89  1  0  0  0
  3  4  1  0  0  0
  3 90  1  0  0  0
  3 91  1  0  0  0
  4  5  1  0  0  0
  4 92  1  0  0  0
  4 93  1  0  0  0
  5  6  1  0  0  0
  5 26  1  0  0  0
  5 94  1  0  0  0
  6 25  1  0  0  0
  6 95  1  0  0  0
  6 96  1  0  0  0
  7  8  2  0  0  0
  7 26  1  0  0  0
  7 29  1  0  0  0
  8  9  1  0  0  0
  8 22  1  0  0  0
  9 10  1  0  0  0
  9 27  2  0  0  0
 10 11  2  0  0  0
 10 15  1  0  0  0
 11 12  1  0  0  0
 11 97  1  0  0  0
 12 13  2  0  0  0
 12 98  1  0  0  0
 13 14  1  0  0  0
 13 31  1  0  0  0
 14 15  2  0  0  0
 14 99  1  0  0  0
 15100  1  0  0  0
 16 17  2  0  0  0
 16 21  1  0  0  0
 16 31  1  0  0  0
 17 18  1  0  0  0
 17101  1  0  0  0
 18 19  2  0  0  0
 18102  1  0  0  0
 19 20  1  0  0  0
 19 24  1  0  0  0
 20 21  2  0  0  0
 20103  1  0  0  0
 21 23  1  0  0  0
 22 28  1  0  0  0
 22 32  2  0  0  0
 26 27  1  0  0  0
 28104  1  0  0  0
 28105  1  0  0  0
 29106  1  0  0  0
 29107  1  0  0  0
 33 34  1  0  0  0
 33 66  1  0  0  0
 33 70  2  0  0  0
 34 36  1  0  0  0
 34 59  1  0  0  0
 34108  1  0  0  0
 35 44  2  0  0  0
 35 45  1  0  0  0
 35 68  1  0  0  0
 36 56  1  0  0  0
 36109  1  0  0  0
 37 39  1  0  0  0
 37 47  1  0  0  0
 37 66  1  0  0  0
 37110  1  0  0  0
 38 43  2  0  0  0
 38 46  1  0  0  0
 38 47  1  0  0  0
 39 64  1  0  0  0
 39 67  2  0  0  0
 40 52  1  0  0  0
 40 53  2  0  0  0
 40 58  1  0  0  0
 41111  1  0  0  0
 41112  1  0  0  0
 41113  1  0  0  0
 41 48  1  0  0  0
 42 43  1  0  0  0
 42 66  1  0  0  0
 42114  1  0  0  0
 42115  1  0  0  0
 43 44  1  0  0  0
 44116  1  0  0  0
 45 46  2  0  0  0
 45117  1  0  0  0
 46118  1  0  0  0
 47119  1  0  0  0
 47120  1  0  0  0
 48 56  1  0  0  0
 48 65  1  0  0  0
 48121  1  0  0  0
 49 50  1  0  0  0
 49 53  1  0  0  0
 49 64  1  0  0  0
 49122  1  0  0  0
 50 51  1  0  0  0
 50123  1  0  0  0
 50124  1  0  0  0
 51 52  1  0  0  0
 51125  1  0  0  0
 51126  1  0  0  0
 52127  1  0  0  0
 52128  1  0  0  0
 53 54  1  0  0  0
 54 55  2  0  0  0
 54129  1  0  0  0
 55 57  1  0  0  0
 55130  1  0  0  0
 56 69  2  0  0  0
 57 58  2  0  0  0
 57131  1  0  0  0
 58132  1  0  0  0
 59 60  1  0  0  0
 59 61  1  0  0  0
 59 62  1  0  0  0
 60133  1  0  0  0
 60134  1  0  0  0
 60135  1  0  0  0
 61136  1  0  0  0
 61137  1  0  0  0
 61138  1  0  0  0
 62139  1  0  0  0
 62140  1  0  0  0
 62141  1  0  0  0
 63 65  1  0  0  0
 63142  1  0  0  0
 63143  1  0  0  0
 63144  1  0  0  0
 64145  1  0  0  0
 65146  1  0  0  0
 68 83  1  0  0  0
 71 73  2  0  0  0
 71 74  1  0  0  0
 71147  1  0  0  0
 72 73  1  0  0  0
 72 75  2  0  0  0
 72148  1  0  0  0
 73 83  1  0  0  0
 74 76  2  0  0  0
 74 77  1  0  0  0
 75 76  1  0  0  0
 75 82  1  0  0  0
 76 86  1  0  0  0
 77149  1  0  0  0
 77150  1  0  0  0
 77151  1  0  0  0
 78 82  1  0  0  0
 78152  1  0  0  0
 78153  1  0  0  0
 78154  1  0  0  0
 79155  1  0  0  0
 79156  1  0  0  0
 79157  1  0  0  0
 79 84  1  0  0  0
 80158  1  0  0  0
 80159  1  0  0  0
 80160  1  0  0  0
 80 85  1  0  0  0
 81 85  1  0  0  0
 81161  1  0  0  0
 81162  1  0  0  0
 81163  1  0  0  0
 82164  1  0  0  0
 82165  1  0  0  0
 83166  1  0  0  0
 83167  1  0  0  0
 84 85  1  0  0  0
 84 86  1  0  0  0
 84168  1  0  0  0
 85 87  1  0  0  0
 86169  1  0  0  0
 87170  1  0  0  0
M  ISO  4   1 100  68 101  83 101  87 100
M  END
> <chiral flag>
0

> <version>
0

> <s_m_source_file>
/data/baiqing/PycharmProjects/Reinvent-master-3.2/result/LINK_invent/BTK/process_docking_weight1_custom_sum_contain_oxygen_bond_distance_aromatic_linkinvent_7_9_3/rearranged_h_0114.sdf

> <i_m_source_file_index>
27

> <r_mmod_Potential_Energy-OPLS-2005>
6.27611494064331

> <r_mmod_Stretch_Energy-OPLS-2005>
79.8263168334961

> <r_mmod_Bend_Energy-OPLS-2005>
182.2724609375

> <r_mmod_Torsional_Energy-OPLS-2005>
252.260467529297

> <r_mmod_Improper_Torsional_Energy-OPLS-2005>
7.11842489242554

> <r_mmod_Van_der_Waal_Energy-OPLS-2005>
152.609832763672

> <r_mmod_Electrostatic_Energy-OPLS-2005>
-524.820556640625

> <r_mmod_Solvation_Energy-OPLS-2005>
-190.979431152344

> <b_mmod_Minimization_Converged-OPLS-2005>
0

> <r_mmod_RMS_Derivative-OPLS-2005>
4.07281684875488

$$$$
27
                    3D
 Structure written by MMmdl.
143150  0  0  1  0            999 V2000
  -30.1549  -16.0060   20.3111 C   0  0  0  0  0  0
  -30.3960  -13.3750   19.5142 C   0  0  0  0  0  0
  -29.5618  -12.7508   18.3476 C   0  0  0  0  0  0
  -28.1688  -12.3121   18.8175 C   0  0  0  0  0  0
  -27.5859  -13.3420   19.8036 C   0  0  2  0  0  0
  -28.5819  -13.8277   20.8913 C   0  0  0  0  0  0
  -25.2291  -13.8312   20.5840 C   0  0  0  0  0  0
  -24.1716  -13.0415   20.9304 C   0  0  0  0  0  0
  -24.6463  -11.6948   20.8751 C   0  0  0  0  0  0
  -23.9161  -10.4287   21.0367 C   0  0  0  0  0  0
  -24.3684   -9.4198   21.9156 C   0  0  0  0  0  0
  -23.6333   -8.2246   22.0741 C   0  0  0  0  0  0
  -22.4309   -8.0290   21.3532 C   0  0  0  0  0  0
  -21.9963   -9.0263   20.4627 C   0  0  0  0  0  0
  -22.7319  -10.2129   20.3025 C   0  0  0  0  0  0
  -21.6866   -6.0738   22.5275 C   0  0  0  0  0  0
  -21.4026   -6.5636   23.8210 C   0  0  0  0  0  0
  -21.3669   -5.6784   24.9169 C   0  0  0  0  0  0
  -21.6052   -4.3049   24.7221 C   0  0  0  0  0  0
  -21.8819   -3.8143   23.4339 C   0  0  0  0  0  0
  -21.9196   -4.6962   22.3399 C   0  0  0  0  0  0
  -22.7716  -13.5116   21.1930 C   0  0  0  0  0  0
  -22.1663   -4.2153   21.0969 F   0  0  0  0  0  0
  -21.5639   -3.4534   25.7727 F   0  0  0  0  0  0
  -29.6766  -14.5794   20.1942 N   0  0  0  0  0  0
  -26.2780  -12.9716   20.3270 N   0  0  0  0  0  0
  -25.9418  -11.6744   20.5663 N   0  0  0  0  0  0
  -22.0394  -12.8084   22.0483 N   0  0  0  0  0  0
  -25.3824  -15.2066   20.4285 N   0  0  0  0  0  0
  -31.4029  -15.8766   20.2817 O   0  0  0  0  0  0
  -21.6651   -6.8901   21.4241 O   0  0  0  0  0  0
  -22.3368  -14.5392   20.6752 O   0  0  0  0  0  0
  -24.7098  -31.7700   23.1298 C   0  0  0  0  0  0
  -25.9548  -32.4320   23.7950 C   0  0  1  0  0  0
  -27.2326  -26.4389   20.2518 C   0  0  0  0  0  0
  -25.6023  -33.8158   24.1810 N   0  0  0  0  0  0
  -23.5475  -30.3610   21.4908 C   0  0  2  0  0  0
  -25.0049  -28.6434   20.1344 C   0  0  0  0  0  0
  -22.7883  -29.4168   22.4648 C   0  0  0  0  0  0
  -18.0361  -28.1441   22.8437 C   0  0  0  0  0  0
  -24.1499  -36.7100   23.2656 C   0  0  0  0  0  0
  -26.1392  -30.4167   21.4325 C   0  0  0  0  0  0
  -26.2007  -28.9508   20.7935 C   0  0  0  0  0  0
  -27.2906  -27.8884   20.8035 C   0  0  0  0  0  0
  -25.9990  -26.4066   19.5328 C   0  0  0  0  0  0
  -24.9585  -27.3999   19.4775 C   0  0  0  0  0  0
  -23.8157  -29.6323   20.1395 C   0  0  0  0  0  0
  -25.4155  -36.2806   24.0257 C   0  0  1  0  0  0
  -20.6008  -28.3814   23.1089 C   0  0  2  0  0  0
  -20.6811  -26.9447   22.5405 C   0  0  0  0  0  0
  -19.5793  -26.6365   21.5218 C   0  0  0  0  0  0
  -18.1978  -26.7961   22.1614 C   0  0  0  0  0  0
  -19.1631  -28.8962   23.2740 C   0  0  0  0  0  0
  -18.9525  -30.1538   23.8792 C   0  0  0  0  0  0
  -17.6507  -30.6611   24.0549 C   0  0  0  0  0  0
  -25.9151  -34.9201   23.4885 C   0  0  0  0  0  0
  -16.5402  -29.9083   23.6360 C   0  0  0  0  0  0
  -16.7335  -28.6518   23.0362 C   0  0  0  0  0  0
  -26.4637  -31.6462   25.0682 C   0  0  0  0  0  0
  -25.3632  -31.3881   26.1253 C   0  0  0  0  0  0
  -27.0589  -30.2758   24.6775 C   0  0  0  0  0  0
  -27.6043  -32.4380   25.7517 C   0  0  0  0  0  0
  -27.5559  -37.1702   24.8452 C   0  0  0  0  0  0
  -21.4508  -29.3015   22.3384 N   0  0  0  0  0  0
  -26.4257  -37.3596   23.9403 N   0  0  0  0  0  0
  -24.8255  -30.8888   22.0698 N   0  0  0  0  0  0
  -23.4203  -28.7804   23.3111 O   0  0  0  0  0  0
  -28.1882  -25.1207   20.2339 O   0  0  0  0  0  0
  -26.5825  -34.8830   22.4526 O   0  0  0  0  0  0
  -23.6060  -32.0892   23.6088 O   0  0  0  0  0  0
  -29.3274  -19.3541   20.6157 C   0  0  0  0  0  0
  -28.1745  -23.2400   20.5133 C   0  0  0  0  0  0
  -28.7410  -21.2771   19.9835 C   0  0  1  0  0  0
  -29.3957  -17.4697   20.2804 N   0  0  0  0  0  0
  -29.5248  -21.4916   18.7522 N   0  3  0  0  0  0
  -31.3427  -13.7139   19.0915 H   0  0  0  0  0  0
  -30.6796  -12.6126   20.2420 H   0  0  0  0  0  0
  -30.0921  -11.9066   17.9033 H   0  0  0  0  0  0
  -29.4545  -13.4940   17.5567 H   0  0  0  0  0  0
  -28.2686  -11.3479   19.3178 H   0  0  0  0  0  0
  -27.5006  -12.1574   17.9694 H   0  0  0  0  0  0
  -27.3972  -14.2129   19.1731 H   0  0  0  0  0  0
  -28.9385  -13.0031   21.5104 H   0  0  0  0  0  0
  -28.0794  -14.5169   21.5711 H   0  0  0  0  0  0
  -25.2830   -9.5661   22.4731 H   0  0  0  0  0  0
  -24.0039   -7.4628   22.7450 H   0  0  0  0  0  0
  -21.0906   -8.8780   19.8914 H   0  0  0  0  0  0
  -22.3782  -10.9662   19.6129 H   0  0  0  0  0  0
  -21.2008   -7.6143   23.9717 H   0  0  0  0  0  0
  -21.1505   -6.0510   25.9075 H   0  0  0  0  0  0
  -22.0590   -2.7607   23.2827 H   0  0  0  0  0  0
  -22.4073  -11.9808   22.4949 H   0  0  0  0  0  0
  -21.0968  -13.1017   22.2614 H   0  0  0  0  0  0
  -24.6072  -15.8511   20.5393 H   0  0  0  0  0  0
  -26.2281  -15.6540   20.0998 H   0  0  0  0  0  0
  -26.7667  -32.4726   23.0690 H   0  0  0  0  0  0
  -25.0041  -33.9158   24.9878 H   0  0  0  0  0  0
  -22.8890  -31.2046   21.2760 H   0  0  0  0  0  0
  -23.3777  -35.9408   23.3224 H   0  0  0  0  0  0
  -24.3563  -36.8876   22.2090 H   0  0  0  0  0  0
  -23.7240  -37.6234   23.6821 H   0  0  0  0  0  0
  -26.3664  -31.1203   20.6303 H   0  0  0  0  0  0
  -26.9820  -30.4977   22.1066 H   0  0  0  0  0  0
  -28.1954  -28.1514   21.3325 H   0  0  0  0  0  0
  -25.7908  -25.4882   19.0030 H   0  0  0  0  0  0
  -24.0665  -27.1512   18.9188 H   0  0  0  0  0  0
  -24.0152  -30.3778   19.3690 H   0  0  0  0  0  0
  -22.9154  -29.1113   19.8093 H   0  0  0  0  0  0
  -25.1375  -36.1528   25.0745 H   0  0  0  0  0  0
  -21.0083  -28.3460   24.1218 H   0  0  0  0  0  0
  -20.5641  -26.2452   23.3694 H   0  0  0  0  0  0
  -21.6668  -26.7340   22.1242 H   0  0  0  0  0  0
  -19.6936  -25.6248   21.1319 H   0  0  0  0  0  0
  -19.6744  -27.3115   20.6700 H   0  0  0  0  0  0
  -17.4244  -26.6710   21.4019 H   0  0  0  0  0  0
  -18.0357  -26.0133   22.9034 H   0  0  0  0  0  0
  -19.8000  -30.7393   24.2107 H   0  0  0  0  0  0
  -17.5052  -31.6268   24.5181 H   0  0  0  0  0  0
  -15.5398  -30.2944   23.7741 H   0  0  0  0  0  0
  -15.8744  -28.0800   22.7117 H   0  0  0  0  0  0
  -24.5843  -30.7211   25.7555 H   0  0  0  0  0  0
  -24.8804  -32.3139   26.4390 H   0  0  0  0  0  0
  -25.7741  -30.9230   27.0221 H   0  0  0  0  0  0
  -26.3348  -29.6319   24.1783 H   0  0  0  0  0  0
  -27.3902  -29.7301   25.5621 H   0  0  0  0  0  0
  -27.9379  -30.3811   24.0417 H   0  0  0  0  0  0
  -27.2546  -33.3775   26.1812 H   0  0  0  0  0  0
  -28.3996  -32.6794   25.0454 H   0  0  0  0  0  0
  -28.0553  -31.8704   26.5666 H   0  0  0  0  0  0
  -28.2497  -38.0071   24.7517 H   0  0  0  0  0  0
  -28.1134  -36.2581   24.6246 H   0  0  0  0  0  0
  -27.2280  -37.1292   25.8857 H   0  0  0  0  0  0
  -20.9879  -29.8646   21.6384 H   0  0  0  0  0  0
  -26.0054  -38.2628   24.1431 H   0  0  0  0  0  0
  -28.7763  -19.3070   21.5562 H   0  0  0  0  0  0
  -30.3519  -19.5297   20.9463 H   0  0  0  0  0  0
  -28.4983  -23.2434   21.5539 H   0  0  0  0  0  0
  -27.0964  -23.1064   20.6033 H   0  0  0  0  0  0
  -27.7657  -20.9830   19.5945 H   0  0  0  0  0  0
  -28.4355  -17.2086   20.0988 H   0  0  0  0  0  0
  -30.4568  -21.7962   18.9707 H   0  0  0  0  0  0
  -29.0965  -22.2041   18.1864 H   0  0  0  0  0  0
  -29.5805  -20.6526   18.2027 H   0  0  0  0  0  0
  1 25  1  0  0  0
  1 30  2  0  0  0
  1 74  1  0  0  0
  2  3  1  0  0  0
  2 25  1  0  0  0
  2 76  1  0  0  0
  2 77  1  0  0  0
  3  4  1  0  0  0
  3 78  1  0  0  0
  3 79  1  0  0  0
  4  5  1  0  0  0
  4 80  1  0  0  0
  4 81  1  0  0  0
  5  6  1  0  0  0
  5 26  1  0  0  0
  5 82  1  0  0  0
  6 25  1  0  0  0
  6 83  1  0  0  0
  6 84  1  0  0  0
  7  8  2  0  0  0
  7 26  1  0  0  0
  7 29  1  0  0  0
  8  9  1  0  0  0
  8 22  1  0  0  0
  9 10  1  0  0  0
  9 27  2  0  0  0
 10 11  2  0  0  0
 10 15  1  0  0  0
 11 12  1  0  0  0
 11 85  1  0  0  0
 12 13  2  0  0  0
 12 86  1  0  0  0
 13 14  1  0  0  0
 13 31  1  0  0  0
 14 15  2  0  0  0
 14 87  1  0  0  0
 15 88  1  0  0  0
 16 17  2  0  0  0
 16 21  1  0  0  0
 16 31  1  0  0  0
 17 18  1  0  0  0
 17 89  1  0  0  0
 18 19  2  0  0  0
 18 90  1  0  0  0
 19 20  1  0  0  0
 19 24  1  0  0  0
 20 21  2  0  0  0
 20 91  1  0  0  0
 21 23  1  0  0  0
 22 28  1  0  0  0
 22 32  2  0  0  0
 26 27  1  0  0  0
 28 92  1  0  0  0
 28 93  1  0  0  0
 29 94  1  0  0  0
 29 95  1  0  0  0
 33 34  1  0  0  0
 33 66  1  0  0  0
 33 70  2  0  0  0
 34 36  1  0  0  0
 34 59  1  0  0  0
 34 96  1  0  0  0
 35 44  2  0  0  0
 35 45  1  0  0  0
 35 68  1  0  0  0
 36 56  1  0  0  0
 36 97  1  0  0  0
 37 39  1  0  0  0
 37 47  1  0  0  0
 37 66  1  0  0  0
 37 98  1  0  0  0
 38 43  2  0  0  0
 38 46  1  0  0  0
 38 47  1  0  0  0
 39 64  1  0  0  0
 39 67  2  0  0  0
 40 52  1  0  0  0
 40 53  2  0  0  0
 40 58  1  0  0  0
 41 99  1  0  0  0
 41100  1  0  0  0
 41101  1  0  0  0
 41 48  1  0  0  0
 42 43  1  0  0  0
 42 66  1  0  0  0
 42102  1  0  0  0
 42103  1  0  0  0
 43 44  1  0  0  0
 44104  1  0  0  0
 45 46  2  0  0  0
 45105  1  0  0  0
 46106  1  0  0  0
 47107  1  0  0  0
 47108  1  0  0  0
 48 56  1  0  0  0
 48 65  1  0  0  0
 48109  1  0  0  0
 49 50  1  0  0  0
 49 53  1  0  0  0
 49 64  1  0  0  0
 49110  1  0  0  0
 50 51  1  0  0  0
 50111  1  0  0  0
 50112  1  0  0  0
 51 52  1  0  0  0
 51113  1  0  0  0
 51114  1  0  0  0
 52115  1  0  0  0
 52116  1  0  0  0
 53 54  1  0  0  0
 54 55  2  0  0  0
 54117  1  0  0  0
 55 57  1  0  0  0
 55118  1  0  0  0
 56 69  2  0  0  0
 57 58  2  0  0  0
 57119  1  0  0  0
 58120  1  0  0  0
 59 60  1  0  0  0
 59 61  1  0  0  0
 59 62  1  0  0  0
 60121  1  0  0  0
 60122  1  0  0  0
 60123  1  0  0  0
 61124  1  0  0  0
 61125  1  0  0  0
 61126  1  0  0  0
 62127  1  0  0  0
 62128  1  0  0  0
 62129  1  0  0  0
 63 65  1  0  0  0
 63130  1  0  0  0
 63131  1  0  0  0
 63132  1  0  0  0
 64133  1  0  0  0
 65134  1  0  0  0
 68 72  1  0  0  0
 71 73  1  0  0  0
 71 74  1  0  0  0
 71135  1  0  0  0
 71136  1  0  0  0
 72 73  1  0  0  0
 72137  1  0  0  0
 72138  1  0  0  0
 73 75  1  0  0  0
 73139  1  0  0  0
 74140  1  0  0  0
 75141  1  0  0  0
 75142  1  0  0  0
 75143  1  0  0  0
M  CHG  1  75   1
M  ISO  4   1 100  68 101  72 101  74 100
M  END
> <chiral flag>
0

> <version>
0

> <s_m_source_file>
/data/baiqing/PycharmProjects/Reinvent-master-3.2/result/LINK_invent/BTK/process_docking_weight1_custom_sum_contain_oxygen_bond_distance_aromatic_linkinvent_7_9_3/rearranged_h_0114.sdf

> <i_m_source_file_index>
28

> <r_mmod_Potential_Energy-OPLS-2005>
3966.21459960938

> <r_mmod_Stretch_Energy-OPLS-2005>
1936.08117675781

> <r_mmod_Bend_Energy-OPLS-2005>
897.885620117188

> <r_mmod_Torsional_Energy-OPLS-2005>
295.227661132812

> <r_mmod_Improper_Torsional_Energy-OPLS-2005>
5.01721715927124

> <r_mmod_Van_der_Waal_Energy-OPLS-2005>
112.285820007324

> <r_mmod_Electrostatic_Energy-OPLS-2005>
-293.752532958984

> <r_mmod_Solvation_Energy-OPLS-2005>
-525.260437011719

> <b_mmod_Minimization_Converged-OPLS-2005>
0

> <r_mmod_RMS_Derivative-OPLS-2005>
1.72588491439819

$$$$
28
                    3D
 Structure written by MMmdl.
160168  0  0  1  0            999 V2000
  -30.5803  -14.8358   20.4598 C   0  0  0  0  0  0
  -30.4422  -12.5153   19.4868 C   0  0  0  0  0  0
  -29.5174  -12.5221   18.2469 C   0  0  0  0  0  0
  -28.0439  -12.3324   18.6603 C   0  0  0  0  0  0
  -27.6388  -13.2391   19.8513 C   0  0  2  0  0  0
  -28.6856  -13.2005   20.9858 C   0  0  0  0  0  0
  -25.2465  -13.8212   20.5666 C   0  0  0  0  0  0
  -24.1778  -13.0427   20.9185 C   0  0  0  0  0  0
  -24.6394  -11.6907   20.8751 C   0  0  0  0  0  0
  -23.9074  -10.4287   21.0404 C   0  0  0  0  0  0
  -24.3620   -9.4205   21.9184 C   0  0  0  0  0  0
  -23.6286   -8.2236   22.0775 C   0  0  0  0  0  0
  -22.4266   -8.0277   21.3544 C   0  0  0  0  0  0
  -21.9899   -9.0253   20.4644 C   0  0  0  0  0  0
  -22.7241  -10.2128   20.3051 C   0  0  0  0  0  0
  -21.6835   -6.0719   22.5260 C   0  0  0  0  0  0
  -21.4027   -6.5627   23.8196 C   0  0  0  0  0  0
  -21.3666   -5.6784   24.9157 C   0  0  0  0  0  0
  -21.6040   -4.3045   24.7206 C   0  0  0  0  0  0
  -21.8823   -3.8132   23.4327 C   0  0  0  0  0  0
  -21.9201   -4.6949   22.3384 C   0  0  0  0  0  0
  -22.7791  -13.5194   21.1858 C   0  0  0  0  0  0
  -22.1649   -4.2133   21.0962 F   0  0  0  0  0  0
  -21.5636   -3.4530   25.7725 F   0  0  0  0  0  0
  -29.9741  -13.5907   20.3990 N   0  0  0  0  0  0
  -26.2911  -12.9426   20.3280 N   0  0  0  0  0  0
  -25.9330  -11.6555   20.5766 N   0  0  0  0  0  0
  -22.0448  -12.8193   22.0428 N   0  0  0  0  0  0
  -25.4108  -15.1946   20.4021 N   0  0  0  0  0  0
  -31.7723  -14.9349   20.1628 O   0  0  0  0  0  0
  -21.6633   -6.8870   21.4224 O   0  0  0  0  0  0
  -22.3467  -14.5492   20.6713 O   0  0  0  0  0  0
  -24.6408  -31.8498   23.1903 C   0  0  0  0  0  0
  -25.9214  -32.4721   23.8275 C   0  0  1  0  0  0
  -27.2302  -27.2010   20.1589 C   0  0  0  0  0  0
  -25.5964  -33.8511   24.2191 N   0  0  0  0  0  0
  -23.4385  -30.4650   21.5385 C   0  0  2  0  0  0
  -24.8895  -28.8938   20.1172 C   0  0  0  0  0  0
  -22.7542  -29.4529   22.4908 C   0  0  0  0  0  0
  -18.0284  -28.1349   22.8455 C   0  0  0  0  0  0
  -24.1501  -36.7258   23.2653 C   0  0  0  0  0  0
  -25.9866  -30.7452   21.3752 C   0  0  0  0  0  0
  -26.0637  -29.3588   20.7250 C   0  0  0  0  0  0
  -27.2386  -28.5302   20.7232 C   0  0  0  0  0  0
  -26.0328  -26.8092   19.5284 C   0  0  0  0  0  0
  -24.8837  -27.6301   19.5020 C   0  0  0  0  0  0
  -23.6619  -29.7908   20.1579 C   0  0  0  0  0  0
  -25.4125  -36.3038   24.0315 C   0  0  1  0  0  0
  -20.5901  -28.3687   23.1231 C   0  0  2  0  0  0
  -20.6785  -26.9391   22.5388 C   0  0  0  0  0  0
  -19.5766  -26.6350   21.5178 C   0  0  0  0  0  0
  -18.1940  -26.7895   22.1579 C   0  0  0  0  0  0
  -19.1547  -28.8835   23.2824 C   0  0  0  0  0  0
  -18.9479  -30.1428   23.8859 C   0  0  0  0  0  0
  -17.6478  -30.6576   24.0514 C   0  0  0  0  0  0
  -25.9065  -34.9414   23.5048 C   0  0  0  0  0  0
  -16.5361  -29.9050   23.6318 C   0  0  0  0  0  0
  -16.7273  -28.6466   23.0329 C   0  0  0  0  0  0
  -26.4532  -31.6563   25.0702 C   0  0  0  0  0  0
  -25.3718  -31.3725   26.1404 C   0  0  0  0  0  0
  -27.0389  -30.2969   24.6227 C   0  0  0  0  0  0
  -27.6080  -32.4307   25.7484 C   0  0  0  0  0  0
  -27.5570  -37.1788   24.8460 C   0  0  0  0  0  0
  -21.4262  -29.3018   22.3628 N   0  0  0  0  0  0
  -26.4286  -37.3738   23.9415 N   0  0  0  0  0  0
  -24.7075  -31.0392   22.0914 N   0  0  0  0  0  0
  -23.4199  -28.8094   23.3051 O   0  0  0  0  0  0
  -28.3319  -26.2979   20.1360 O   0  0  0  0  0  0
  -26.5646  -34.8914   22.4636 O   0  0  0  0  0  0
  -23.5541  -32.1331   23.7169 O   0  0  0  0  0  0
  -29.7227  -18.3942   19.4478 C   0  0  0  0  0  0
  -29.8698  -19.9971   19.5587 C   0  0  0  0  0  0
  -29.4017  -19.8341   21.9359 C   0  0  0  0  0  0
  -30.0776  -17.5070   20.7189 C   0  0  1  0  0  0
  -29.0071  -20.7076   20.6748 C   0  0  1  0  0  0
  -29.2950  -18.2414   21.8771 C   0  0  1  0  0  0
  -29.0024  -16.8518   23.8348 C   0  0  0  0  0  0
  -28.6116  -23.4383   20.0511 C   0  0  0  0  0  0
  -28.2676  -24.9008   20.7636 C   0  0  0  0  0  0
  -29.7901  -15.9757   20.6542 N   0  0  0  0  0  0
  -29.1395  -22.2559   20.9346 N   0  3  0  0  0  0
  -29.8198  -17.7739   23.1213 O   0  0  0  0  0  0
  -31.4789  -12.6623   19.1799 H   0  0  0  0  0  0
  -30.4105  -11.5458   19.9876 H   0  0  0  0  0  0
  -29.8117  -11.7373   17.5475 H   0  0  0  0  0  0
  -29.6295  -13.4658   17.7123 H   0  0  0  0  0  0
  -27.9130  -11.2865   18.9373 H   0  0  0  0  0  0
  -27.3860  -12.5074   17.8097 H   0  0  0  0  0  0
  -27.6235  -14.2570   19.4616 H   0  0  0  0  0  0
  -28.7446  -12.2026   21.4223 H   0  0  0  0  0  0
  -28.4075  -13.8733   21.7986 H   0  0  0  0  0  0
  -25.2752   -9.5667   22.4757 H   0  0  0  0  0  0
  -23.9964   -7.4638   22.7517 H   0  0  0  0  0  0
  -21.0810   -8.8769   19.8957 H   0  0  0  0  0  0
  -22.3688  -10.9660   19.6157 H   0  0  0  0  0  0
  -21.2031   -7.6140   23.9688 H   0  0  0  0  0  0
  -21.1478   -6.0516   25.9062 H   0  0  0  0  0  0
  -22.0611   -2.7590   23.2825 H   0  0  0  0  0  0
  -22.4043  -11.9835   22.4765 H   0  0  0  0  0  0
  -21.1079  -13.1259   22.2701 H   0  0  0  0  0  0
  -24.6265  -15.8342   20.4800 H   0  0  0  0  0  0
  -26.2389  -15.6261   20.0130 H   0  0  0  0  0  0
  -26.7301  -32.5318   23.1029 H   0  0  0  0  0  0
  -25.0120  -33.9586   25.0346 H   0  0  0  0  0  0
  -22.7368  -31.2875   21.3883 H   0  0  0  0  0  0
  -23.3752  -35.9602   23.3290 H   0  0  0  0  0  0
  -24.3583  -36.8911   22.2072 H   0  0  0  0  0  0
  -23.7246  -37.6445   23.6696 H   0  0  0  0  0  0
  -26.1219  -31.5044   20.6033 H   0  0  0  0  0  0
  -26.8615  -30.8015   22.0106 H   0  0  0  0  0  0
  -28.1445  -28.8925   21.1899 H   0  0  0  0  0  0
  -25.9781  -25.8385   19.0555 H   0  0  0  0  0  0
  -23.9873  -27.2654   19.0192 H   0  0  0  0  0  0
  -23.7903  -30.5645   19.4006 H   0  0  0  0  0  0
  -22.7796  -29.2287   19.8494 H   0  0  0  0  0  0
  -25.1301  -36.1869   25.0792 H   0  0  0  0  0  0
  -20.9929  -28.3293   24.1374 H   0  0  0  0  0  0
  -20.5653  -26.2296   23.3610 H   0  0  0  0  0  0
  -21.6660  -26.7411   22.1207 H   0  0  0  0  0  0
  -19.6941  -25.6255   21.1219 H   0  0  0  0  0  0
  -19.6723  -27.3149   20.6709 H   0  0  0  0  0  0
  -17.4205  -26.6612   21.3984 H   0  0  0  0  0  0
  -18.0357  -26.0023   22.8960 H   0  0  0  0  0  0
  -19.7981  -30.7215   24.2218 H   0  0  0  0  0  0
  -17.5063  -31.6245   24.5137 H   0  0  0  0  0  0
  -15.5368  -30.2941   23.7690 H   0  0  0  0  0  0
  -15.8669  -28.0784   22.7069 H   0  0  0  0  0  0
  -24.5947  -30.6992   25.7742 H   0  0  0  0  0  0
  -24.8849  -32.2906   26.4726 H   0  0  0  0  0  0
  -25.8037  -30.9001   27.0246 H   0  0  0  0  0  0
  -26.2990  -29.6683   24.1268 H   0  0  0  0  0  0
  -27.4066  -29.7265   25.4768 H   0  0  0  0  0  0
  -27.8863  -30.4203   23.9474 H   0  0  0  0  0  0
  -27.2700  -33.3686   26.1907 H   0  0  0  0  0  0
  -28.3981  -32.6720   25.0349 H   0  0  0  0  0  0
  -28.0631  -31.8494   26.5520 H   0  0  0  0  0  0
  -28.2569  -38.0109   24.7499 H   0  0  0  0  0  0
  -28.1069  -36.2615   24.6285 H   0  0  0  0  0  0
  -27.2262  -37.1428   25.8858 H   0  0  0  0  0  0
  -20.9461  -29.8740   21.6818 H   0  0  0  0  0  0
  -26.0145  -38.2795   24.1438 H   0  0  0  0  0  0
  -30.3409  -18.0518   18.6169 H   0  0  0  0  0  0
  -28.6940  -18.1887   19.1502 H   0  0  0  0  0  0
  -29.6174  -20.4390   18.5936 H   0  0  0  0  0  0
  -30.9223  -20.2349   19.7161 H   0  0  0  0  0  0
  -28.8101  -20.1732   22.7873 H   0  0  0  0  0  0
  -30.4355  -20.0718   22.1944 H   0  0  0  0  0  0
  -31.1467  -17.6208   20.9109 H   0  0  0  0  0  0
  -27.9551  -20.5199   20.4502 H   0  0  0  0  0  0
  -28.2352  -17.9960   21.7926 H   0  0  0  0  0  0
  -29.4710  -16.6136   24.7924 H   0  0  0  0  0  0
  -28.8753  -15.9154   23.2898 H   0  0  0  0  0  0
  -28.0184  -17.2722   24.0472 H   0  0  0  0  0  0
  -29.3558  -23.6037   19.2711 H   0  0  0  0  0  0
  -27.7187  -23.0971   19.5283 H   0  0  0  0  0  0
  -28.9797  -24.9887   21.5841 H   0  0  0  0  0  0
  -27.3064  -24.8010   21.2694 H   0  0  0  0  0  0
  -28.8245  -15.7466   20.8285 H   0  0  0  0  0  0
  -30.1030  -22.4569   21.1588 H   0  0  0  0  0  0
  -28.6375  -22.3711   21.8020 H   0  0  0  0  0  0
  1 25  1  0  0  0
  1 30  2  0  0  0
  1 80  1  0  0  0
  2  3  1  0  0  0
  2 25  1  0  0  0
  2 83  1  0  0  0
  2 84  1  0  0  0
  3  4  1  0  0  0
  3 85  1  0  0  0
  3 86  1  0  0  0
  4  5  1  0  0  0
  4 87  1  0  0  0
  4 88  1  0  0  0
  5  6  1  0  0  0
  5 26  1  0  0  0
  5 89  1  0  0  0
  6 25  1  0  0  0
  6 90  1  0  0  0
  6 91  1  0  0  0
  7  8  2  0  0  0
  7 26  1  0  0  0
  7 29  1  0  0  0
  8  9  1  0  0  0
  8 22  1  0  0  0
  9 10  1  0  0  0
  9 27  2  0  0  0
 10 11  2  0  0  0
 10 15  1  0  0  0
 11 12  1  0  0  0
 11 92  1  0  0  0
 12 13  2  0  0  0
 12 93  1  0  0  0
 13 14  1  0  0  0
 13 31  1  0  0  0
 14 15  2  0  0  0
 14 94  1  0  0  0
 15 95  1  0  0  0
 16 17  2  0  0  0
 16 21  1  0  0  0
 16 31  1  0  0  0
 17 18  1  0  0  0
 17 96  1  0  0  0
 18 19  2  0  0  0
 18 97  1  0  0  0
 19 20  1  0  0  0
 19 24  1  0  0  0
 20 21  2  0  0  0
 20 98  1  0  0  0
 21 23  1  0  0  0
 22 28  1  0  0  0
 22 32  2  0  0  0
 26 27  1  0  0  0
 28 99  1  0  0  0
 28100  1  0  0  0
 29101  1  0  0  0
 29102  1  0  0  0
 33 34  1  0  0  0
 33 66  1  0  0  0
 33 70  2  0  0  0
 34 36  1  0  0  0
 34 59  1  0  0  0
 34103  1  0  0  0
 35 44  2  0  0  0
 35 45  1  0  0  0
 35 68  1  0  0  0
 36 56  1  0  0  0
 36104  1  0  0  0
 37 39  1  0  0  0
 37 47  1  0  0  0
 37 66  1  0  0  0
 37105  1  0  0  0
 38 43  2  0  0  0
 38 46  1  0  0  0
 38 47  1  0  0  0
 39 64  1  0  0  0
 39 67  2  0  0  0
 40 52  1  0  0  0
 40 53  2  0  0  0
 40 58  1  0  0  0
 41106  1  0  0  0
 41107  1  0  0  0
 41108  1  0  0  0
 41 48  1  0  0  0
 42 43  1  0  0  0
 42 66  1  0  0  0
 42109  1  0  0  0
 42110  1  0  0  0
 43 44  1  0  0  0
 44111  1  0  0  0
 45 46  2  0  0  0
 45112  1  0  0  0
 46113  1  0  0  0
 47114  1  0  0  0
 47115  1  0  0  0
 48 56  1  0  0  0
 48 65  1  0  0  0
 48116  1  0  0  0
 49 50  1  0  0  0
 49 53  1  0  0  0
 49 64  1  0  0  0
 49117  1  0  0  0
 50 51  1  0  0  0
 50118  1  0  0  0
 50119  1  0  0  0
 51 52  1  0  0  0
 51120  1  0  0  0
 51121  1  0  0  0
 52122  1  0  0  0
 52123  1  0  0  0
 53 54  1  0  0  0
 54 55  2  0  0  0
 54124  1  0  0  0
 55 57  1  0  0  0
 55125  1  0  0  0
 56 69  2  0  0  0
 57 58  2  0  0  0
 57126  1  0  0  0
 58127  1  0  0  0
 59 60  1  0  0  0
 59 61  1  0  0  0
 59 62  1  0  0  0
 60128  1  0  0  0
 60129  1  0  0  0
 60130  1  0  0  0
 61131  1  0  0  0
 61132  1  0  0  0
 61133  1  0  0  0
 62134  1  0  0  0
 62135  1  0  0  0
 62136  1  0  0  0
 63 65  1  0  0  0
 63137  1  0  0  0
 63138  1  0  0  0
 63139  1  0  0  0
 64140  1  0  0  0
 65141  1  0  0  0
 68 79  1  0  0  0
 71 72  1  0  0  0
 71 74  1  0  0  0
 71142  1  0  0  0
 71143  1  0  0  0
 72 75  1  0  0  0
 72144  1  0  0  0
 72145  1  0  0  0
 73 75  1  0  0  0
 73 76  1  0  0  0
 73146  1  0  0  0
 73147  1  0  0  0
 74 76  1  0  0  0
 74 80  1  0  0  0
 74148  1  0  0  0
 75 81  1  0  0  0
 75149  1  0  0  0
 76 82  1  0  0  0
 76150  1  0  0  0
 77 82  1  0  0  0
 77151  1  0  0  0
 77152  1  0  0  0
 77153  1  0  0  0
 78 79  1  0  0  0
 78 81  1  0  0  0
 78154  1  0  0  0
 78155  1  0  0  0
 79156  1  0  0  0
 79157  1  0  0  0
 80158  1  0  0  0
 81159  1  0  0  0
 81160  1  0  0  0
M  CHG  1  81   1
M  ISO  4   1 100  68 101  79 101  80 100
M  END
> <chiral flag>
0

> <version>
0

> <s_m_source_file>
/data/baiqing/PycharmProjects/Reinvent-master-3.2/result/LINK_invent/BTK/process_docking_weight1_custom_sum_contain_oxygen_bond_distance_aromatic_linkinvent_7_9_3/rearranged_h_0114.sdf

> <i_m_source_file_index>
29

> <r_mmod_Potential_Energy-OPLS-2005>
135.780792236328

> <r_mmod_Stretch_Energy-OPLS-2005>
175.077743530273

> <r_mmod_Bend_Energy-OPLS-2005>
240.001541137695

> <r_mmod_Torsional_Energy-OPLS-2005>
260.536376953125

> <r_mmod_Improper_Torsional_Energy-OPLS-2005>
4.61293601989746

> <r_mmod_Van_der_Waal_Energy-OPLS-2005>
107.499900817871

> <r_mmod_Electrostatic_Energy-OPLS-2005>
-310.205474853516

> <r_mmod_Solvation_Energy-OPLS-2005>
-464.753143310547

> <b_mmod_Minimization_Converged-OPLS-2005>
0

> <r_mmod_RMS_Derivative-OPLS-2005>
4.1496434211731

$$$$
29
                    3D
 Structure written by MMmdl.
166174  0  0  1  0            999 V2000
  -30.6450  -14.5655   20.4811 C   0  0  0  0  0  0
  -30.4262  -12.3350   19.4490 C   0  0  0  0  0  0
  -29.5030  -12.4786   18.2202 C   0  0  0  0  0  0
  -28.0226  -12.3354   18.6275 C   0  0  0  0  0  0
  -27.6520  -13.2072   19.8588 C   0  0  2  0  0  0
  -28.6935  -13.0558   20.9912 C   0  0  0  0  0  0
  -25.2573  -13.8159   20.5675 C   0  0  0  0  0  0
  -24.1827  -13.0425   20.9184 C   0  0  0  0  0  0
  -24.6392  -11.6900   20.8734 C   0  0  0  0  0  0
  -23.9062  -10.4286   21.0405 C   0  0  0  0  0  0
  -24.3619   -9.4209   21.9181 C   0  0  0  0  0  0
  -23.6296   -8.2244   22.0754 C   0  0  0  0  0  0
  -22.4279   -8.0283   21.3546 C   0  0  0  0  0  0
  -21.9916   -9.0254   20.4645 C   0  0  0  0  0  0
  -22.7242  -10.2129   20.3053 C   0  0  0  0  0  0
  -21.6856   -6.0747   22.5284 C   0  0  0  0  0  0
  -21.4018   -6.5648   23.8218 C   0  0  0  0  0  0
  -21.3653   -5.6801   24.9178 C   0  0  0  0  0  0
  -21.6042   -4.3065   24.7229 C   0  0  0  0  0  0
  -21.8821   -3.8155   23.4350 C   0  0  0  0  0  0
  -21.9194   -4.6973   22.3405 C   0  0  0  0  0  0
  -22.7861  -13.5228   21.1857 C   0  0  0  0  0  0
  -22.1666   -4.2158   21.0984 F   0  0  0  0  0  0
  -21.5617   -3.4544   25.7739 F   0  0  0  0  0  0
  -30.0159  -13.3587   20.4242 N   0  0  0  0  0  0
  -26.2979  -12.9317   20.3294 N   0  0  0  0  0  0
  -25.9305  -11.6486   20.5738 N   0  0  0  0  0  0
  -22.0527  -12.8195   22.0413 N   0  0  0  0  0  0
  -25.4275  -15.1878   20.4132 N   0  0  0  0  0  0
  -31.8173  -14.7172   20.1265 O   0  0  0  0  0  0
  -21.6642   -6.8885   21.4246 O   0  0  0  0  0  0
  -22.3540  -14.5539   20.6724 O   0  0  0  0  0  0
  -24.6185  -31.8645   23.2069 C   0  0  0  0  0  0
  -25.9075  -32.4799   23.8358 C   0  0  1  0  0  0
  -27.2218  -27.3851   20.1075 C   0  0  0  0  0  0
  -25.5904  -33.8601   24.2296 N   0  0  0  0  0  0
  -23.4088  -30.4911   21.5464 C   0  0  2  0  0  0
  -24.8559  -28.9568   20.1038 C   0  0  0  0  0  0
  -22.7411  -29.4663   22.4933 C   0  0  0  0  0  0
  -18.0274  -28.1386   22.8475 C   0  0  0  0  0  0
  -24.1505  -36.7302   23.2640 C   0  0  0  0  0  0
  -25.9422  -30.8175   21.3689 C   0  0  0  0  0  0
  -26.0193  -29.4499   20.7121 C   0  0  0  0  0  0
  -27.2084  -28.6729   20.7071 C   0  0  0  0  0  0
  -26.0447  -26.9296   19.4735 C   0  0  0  0  0  0
  -24.8674  -27.6999   19.4764 C   0  0  0  0  0  0
  -23.6206  -29.8295   20.1584 C   0  0  0  0  0  0
  -25.4125  -36.3091   24.0325 C   0  0  1  0  0  0
  -20.5862  -28.3692   23.1278 C   0  0  2  0  0  0
  -20.6779  -26.9426   22.5393 C   0  0  0  0  0  0
  -19.5763  -26.6399   21.5180 C   0  0  0  0  0  0
  -18.1939  -26.7935   22.1590 C   0  0  0  0  0  0
  -19.1518  -28.8847   23.2887 C   0  0  0  0  0  0
  -18.9450  -30.1444   23.8929 C   0  0  0  0  0  0
  -17.6460  -30.6600   24.0554 C   0  0  0  0  0  0
  -25.9035  -34.9467   23.5100 C   0  0  0  0  0  0
  -16.5352  -29.9102   23.6333 C   0  0  0  0  0  0
  -16.7258  -28.6504   23.0365 C   0  0  0  0  0  0
  -26.4499  -31.6593   25.0696 C   0  0  0  0  0  0
  -25.3742  -31.3689   26.1424 C   0  0  0  0  0  0
  -27.0362  -30.3041   24.6101 C   0  0  0  0  0  0
  -27.6084  -32.4312   25.7442 C   0  0  0  0  0  0
  -27.5600  -37.1786   24.8451 C   0  0  0  0  0  0
  -21.4128  -29.3057   22.3673 N   0  0  0  0  0  0
  -26.4307  -37.3773   23.9398 N   0  0  0  0  0  0
  -24.6751  -31.0712   22.0994 N   0  0  0  0  0  0
  -23.4147  -28.8201   23.3003 O   0  0  0  0  0  0
  -28.3499  -26.5773   20.1353 O   0  0  0  0  0  0
  -26.5607  -34.8928   22.4672 O   0  0  0  0  0  0
  -23.5364  -32.1421   23.7420 O   0  0  0  0  0  0
  -29.0591  -19.6210   17.9720 C   0  0  0  0  0  0
  -28.5231  -20.4693   16.9776 C   0  0  0  0  0  0
  -28.9331  -20.2417   19.1813 C   0  0  0  0  0  0
  -28.0695  -21.6077   17.5823 C   0  0  0  0  0  0
  -26.0531  -22.1827   16.1747 C   0  0  0  0  0  0
  -28.1583  -23.5442   15.9526 C   0  0  0  0  0  0
  -29.2692  -19.6223   20.5297 C   0  0  0  0  0  0
  -29.0006  -18.0722   20.6916 C   0  0  0  0  0  0
  -28.7019  -24.0843   19.6253 C   0  0  0  0  0  0
  -28.1826  -22.6270   19.9482 C   0  0  0  0  0  0
  -30.1854  -17.0688   20.4634 C   0  0  0  0  0  0
  -28.1432  -25.1976   20.5684 C   0  0  0  0  0  0
  -27.2882  -22.7179   16.9183 C   0  0  0  0  0  0
  -28.4344  -21.5526   18.9409 N   0  0  0  0  0  0
  -29.8448  -15.6399   20.7094 N   0  0  0  0  0  0
  -31.4712  -12.4389   19.1522 H   0  0  0  0  0  0
  -30.3377  -11.3395   19.8871 H   0  0  0  0  0  0
  -29.7576  -11.7297   17.4695 H   0  0  0  0  0  0
  -29.6635  -13.4500   17.7516 H   0  0  0  0  0  0
  -27.8406  -11.2826   18.8496 H   0  0  0  0  0  0
  -27.3762  -12.5816   17.7844 H   0  0  0  0  0  0
  -27.6743  -14.2410   19.5158 H   0  0  0  0  0  0
  -28.6826  -12.0436   21.3973 H   0  0  0  0  0  0
  -28.4527  -13.7141   21.8281 H   0  0  0  0  0  0
  -25.2772   -9.5686   22.4747 H   0  0  0  0  0  0
  -24.0012   -7.4641   22.7471 H   0  0  0  0  0  0
  -21.0852   -8.8777   19.8945 H   0  0  0  0  0  0
  -22.3713  -10.9671   19.6155 H   0  0  0  0  0  0
  -21.2022   -7.6159   23.9726 H   0  0  0  0  0  0
  -21.1467   -6.0529   25.9080 H   0  0  0  0  0  0
  -22.0603   -2.7621   23.2850 H   0  0  0  0  0  0
  -22.4161  -11.9833   22.4744 H   0  0  0  0  0  0
  -21.1150  -13.1206   22.2665 H   0  0  0  0  0  0
  -24.6572  -15.8368   20.5338 H   0  0  0  0  0  0
  -26.2731  -15.6378   20.0879 H   0  0  0  0  0  0
  -26.7137  -32.5511   23.1106 H   0  0  0  0  0  0
  -25.0054  -33.9756   25.0440 H   0  0  0  0  0  0
  -22.6999  -31.3107   21.4089 H   0  0  0  0  0  0
  -23.3769  -35.9633   23.3260 H   0  0  0  0  0  0
  -24.3603  -36.8962   22.2061 H   0  0  0  0  0  0
  -23.7257  -37.6491   23.6692 H   0  0  0  0  0  0
  -26.0607  -31.5869   20.6039 H   0  0  0  0  0  0
  -26.8256  -30.8658   21.9942 H   0  0  0  0  0  0
  -28.1038  -29.0438   21.1887 H   0  0  0  0  0  0
  -26.0329  -25.9699   18.9761 H   0  0  0  0  0  0
  -23.9779  -27.3176   18.9923 H   0  0  0  0  0  0
  -23.7327  -30.6100   19.4044 H   0  0  0  0  0  0
  -22.7412  -29.2557   19.8582 H   0  0  0  0  0  0
  -25.1312  -36.1937   25.0815 H   0  0  0  0  0  0
  -20.9958  -28.3297   24.1380 H   0  0  0  0  0  0
  -20.5682  -26.2305   23.3584 H   0  0  0  0  0  0
  -21.6663  -26.7496   22.1186 H   0  0  0  0  0  0
  -19.6941  -25.6298   21.1231 H   0  0  0  0  0  0
  -19.6725  -27.3192   20.6690 H   0  0  0  0  0  0
  -17.4210  -26.6657   21.3994 H   0  0  0  0  0  0
  -18.0360  -26.0080   22.8982 H   0  0  0  0  0  0
  -19.7938  -30.7220   24.2343 H   0  0  0  0  0  0
  -17.5033  -31.6284   24.5137 H   0  0  0  0  0  0
  -15.5352  -30.3015   23.7657 H   0  0  0  0  0  0
  -15.8643  -28.0821   22.7107 H   0  0  0  0  0  0
  -24.5936  -30.7034   25.7704 H   0  0  0  0  0  0
  -24.8922  -32.2845   26.4861 H   0  0  0  0  0  0
  -25.8081  -30.8836   27.0175 H   0  0  0  0  0  0
  -26.2913  -29.6713   24.1270 H   0  0  0  0  0  0
  -27.4246  -29.7375   25.4568 H   0  0  0  0  0  0
  -27.8690  -30.4340   23.9188 H   0  0  0  0  0  0
  -27.2755  -33.3650   26.1985 H   0  0  0  0  0  0
  -28.3912  -32.6796   25.0257 H   0  0  0  0  0  0
  -28.0737  -31.8445   26.5366 H   0  0  0  0  0  0
  -28.2575  -38.0131   24.7572 H   0  0  0  0  0  0
  -28.1147  -36.2655   24.6206 H   0  0  0  0  0  0
  -27.2311  -37.1340   25.8854 H   0  0  0  0  0  0
  -20.9273  -29.8770   21.6896 H   0  0  0  0  0  0
  -26.0186  -38.2841   24.1436 H   0  0  0  0  0  0
  -29.4551  -18.6251   17.8214 H   0  0  0  0  0  0
  -28.4309  -20.2418   15.9237 H   0  0  0  0  0  0
  -25.3679  -21.6899   16.8662 H   0  0  0  0  0  0
  -26.3124  -21.4614   15.3989 H   0  0  0  0  0  0
  -25.5078  -22.9961   15.6947 H   0  0  0  0  0  0
  -28.9742  -24.0526   16.4656 H   0  0  0  0  0  0
  -27.5698  -24.3087   15.4454 H   0  0  0  0  0  0
  -28.6034  -22.9187   15.1783 H   0  0  0  0  0  0
  -28.6755  -20.1293   21.2906 H   0  0  0  0  0  0
  -30.3074  -19.8459   20.7773 H   0  0  0  0  0  0
  -28.1343  -17.7838   20.0939 H   0  0  0  0  0  0
  -28.6820  -17.9265   21.7245 H   0  0  0  0  0  0
  -28.4537  -24.3878   18.6169 H   0  0  0  0  0  0
  -29.7900  -24.0961   19.6609 H   0  0  0  0  0  0
  -27.1056  -22.6570   20.1169 H   0  0  0  0  0  0
  -28.6150  -22.3233   20.9008 H   0  0  0  0  0  0
  -31.0205  -17.3418   21.1101 H   0  0  0  0  0  0
  -30.5454  -17.1666   19.4381 H   0  0  0  0  0  0
  -28.6079  -25.0844   21.5483 H   0  0  0  0  0  0
  -27.0897  -24.9874   20.7503 H   0  0  0  0  0  0
  -26.8714  -23.3823   17.6719 H   0  0  0  0  0  0
  -28.8843  -15.4302   20.9365 H   0  0  0  0  0  0
  1 25  1  0  0  0
  1 30  2  0  0  0
  1 85  1  0  0  0
  2  3  1  0  0  0
  2 25  1  0  0  0
  2 86  1  0  0  0
  2 87  1  0  0  0
  3  4  1  0  0  0
  3 88  1  0  0  0
  3 89  1  0  0  0
  4  5  1  0  0  0
  4 90  1  0  0  0
  4 91  1  0  0  0
  5  6  1  0  0  0
  5 26  1  0  0  0
  5 92  1  0  0  0
  6 25  1  0  0  0
  6 93  1  0  0  0
  6 94  1  0  0  0
  7  8  2  0  0  0
  7 26  1  0  0  0
  7 29  1  0  0  0
  8  9  1  0  0  0
  8 22  1  0  0  0
  9 10  1  0  0  0
  9 27  2  0  0  0
 10 11  2  0  0  0
 10 15  1  0  0  0
 11 12  1  0  0  0
 11 95  1  0  0  0
 12 13  2  0  0  0
 12 96  1  0  0  0
 13 14  1  0  0  0
 13 31  1  0  0  0
 14 15  2  0  0  0
 14 97  1  0  0  0
 15 98  1  0  0  0
 16 17  2  0  0  0
 16 21  1  0  0  0
 16 31  1  0  0  0
 17 18  1  0  0  0
 17 99  1  0  0  0
 18 19  2  0  0  0
 18100  1  0  0  0
 19 20  1  0  0  0
 19 24  1  0  0  0
 20 21  2  0  0  0
 20101  1  0  0  0
 21 23  1  0  0  0
 22 28  1  0  0  0
 22 32  2  0  0  0
 26 27  1  0  0  0
 28102  1  0  0  0
 28103  1  0  0  0
 29104  1  0  0  0
 29105  1  0  0  0
 33 34  1  0  0  0
 33 66  1  0  0  0
 33 70  2  0  0  0
 34 36  1  0  0  0
 34 59  1  0  0  0
 34106  1  0  0  0
 35 44  2  0  0  0
 35 45  1  0  0  0
 35 68  1  0  0  0
 36 56  1  0  0  0
 36107  1  0  0  0
 37 39  1  0  0  0
 37 47  1  0  0  0
 37 66  1  0  0  0
 37108  1  0  0  0
 38 43  2  0  0  0
 38 46  1  0  0  0
 38 47  1  0  0  0
 39 64  1  0  0  0
 39 67  2  0  0  0
 40 52  1  0  0  0
 40 53  2  0  0  0
 40 58  1  0  0  0
 41109  1  0  0  0
 41110  1  0  0  0
 41111  1  0  0  0
 41 48  1  0  0  0
 42 43  1  0  0  0
 42 66  1  0  0  0
 42112  1  0  0  0
 42113  1  0  0  0
 43 44  1  0  0  0
 44114  1  0  0  0
 45 46  2  0  0  0
 45115  1  0  0  0
 46116  1  0  0  0
 47117  1  0  0  0
 47118  1  0  0  0
 48 56  1  0  0  0
 48 65  1  0  0  0
 48119  1  0  0  0
 49 50  1  0  0  0
 49 53  1  0  0  0
 49 64  1  0  0  0
 49120  1  0  0  0
 50 51  1  0  0  0
 50121  1  0  0  0
 50122  1  0  0  0
 51 52  1  0  0  0
 51123  1  0  0  0
 51124  1  0  0  0
 52125  1  0  0  0
 52126  1  0  0  0
 53 54  1  0  0  0
 54 55  2  0  0  0
 54127  1  0  0  0
 55 57  1  0  0  0
 55128  1  0  0  0
 56 69  2  0  0  0
 57 58  2  0  0  0
 57129  1  0  0  0
 58130  1  0  0  0
 59 60  1  0  0  0
 59 61  1  0  0  0
 59 62  1  0  0  0
 60131  1  0  0  0
 60132  1  0  0  0
 60133  1  0  0  0
 61134  1  0  0  0
 61135  1  0  0  0
 61136  1  0  0  0
 62137  1  0  0  0
 62138  1  0  0  0
 62139  1  0  0  0
 63 65  1  0  0  0
 63140  1  0  0  0
 63141  1  0  0  0
 63142  1  0  0  0
 64143  1  0  0  0
 65144  1  0  0  0
 68 82  1  0  0  0
 71 72  1  0  0  0
 71 73  2  0  0  0
 71145  1  0  0  0
 72 74  2  0  0  0
 72146  1  0  0  0
 73 77  1  0  0  0
 73 84  1  0  0  0
 74 83  1  0  0  0
 74 84  1  0  0  0
 75147  1  0  0  0
 75148  1  0  0  0
 75149  1  0  0  0
 75 83  1  0  0  0
 76 83  1  0  0  0
 76150  1  0  0  0
 76151  1  0  0  0
 76152  1  0  0  0
 77 78  1  0  0  0
 77153  1  0  0  0
 77154  1  0  0  0
 78 81  1  0  0  0
 78155  1  0  0  0
 78156  1  0  0  0
 79 80  1  0  0  0
 79 82  1  0  0  0
 79157  1  0  0  0
 79158  1  0  0  0
 80 84  1  0  0  0
 80159  1  0  0  0
 80160  1  0  0  0
 81 85  1  0  0  0
 81161  1  0  0  0
 81162  1  0  0  0
 82163  1  0  0  0
 82164  1  0  0  0
 83165  1  0  0  0
 85166  1  0  0  0
M  ISO  4   1 100  68 101  82 101  85 100
M  END
> <chiral flag>
0

> <version>
0

> <s_m_source_file>
/data/baiqing/PycharmProjects/Reinvent-master-3.2/result/LINK_invent/BTK/process_docking_weight1_custom_sum_contain_oxygen_bond_distance_aromatic_linkinvent_7_9_3/rearranged_h_0114.sdf

> <i_m_source_file_index>
30

> <r_mmod_Potential_Energy-OPLS-2005>
-29.9438133239746

> <r_mmod_Stretch_Energy-OPLS-2005>
57.7905502319336

> <r_mmod_Bend_Energy-OPLS-2005>
118.494743347168

> <r_mmod_Torsional_Energy-OPLS-2005>
252.169006347656

> <r_mmod_Improper_Torsional_Energy-OPLS-2005>
6.57921695709229

> <r_mmod_Van_der_Waal_Energy-OPLS-2005>
123.699775695801

> <r_mmod_Electrostatic_Energy-OPLS-2005>
-409.898071289062

> <r_mmod_Solvation_Energy-OPLS-2005>
-208.222579956055

> <b_mmod_Minimization_Converged-OPLS-2005>
0

> <r_mmod_RMS_Derivative-OPLS-2005>
2.90943050384521

$$$$
30
                    3D
 Structure written by MMmdl.
160168  0  0  1  0            999 V2000
  -30.5265  -14.8830   20.4278 C   0  0  0  0  0  0
  -30.4628  -12.5311   19.4989 C   0  0  0  0  0  0
  -29.5310  -12.5086   18.2614 C   0  0  0  0  0  0
  -28.0568  -12.3303   18.6754 C   0  0  0  0  0  0
  -27.6465  -13.2488   19.8562 C   0  0  2  0  0  0
  -28.6932  -13.2071   20.9851 C   0  0  0  0  0  0
  -25.2495  -13.8232   20.5747 C   0  0  0  0  0  0
  -24.1805  -13.0406   20.9272 C   0  0  0  0  0  0
  -24.6484  -11.6939   20.8865 C   0  0  0  0  0  0
  -23.9207  -10.4310   21.0533 C   0  0  0  0  0  0
  -24.3725   -9.4188   21.9280 C   0  0  0  0  0  0
  -23.6340   -8.2241   22.0848 C   0  0  0  0  0  0
  -22.4331   -8.0312   21.3601 C   0  0  0  0  0  0
  -22.0005   -9.0322   20.4707 C   0  0  0  0  0  0
  -22.7408  -10.2164   20.3148 C   0  0  0  0  0  0
  -21.6842   -6.0764   22.5297 C   0  0  0  0  0  0
  -21.4009   -6.5667   23.8220 C   0  0  0  0  0  0
  -21.3662   -5.6837   24.9190 C   0  0  0  0  0  0
  -21.6042   -4.3100   24.7252 C   0  0  0  0  0  0
  -21.8802   -3.8165   23.4377 C   0  0  0  0  0  0
  -21.9196   -4.6979   22.3424 C   0  0  0  0  0  0
  -22.7810  -13.5172   21.1866 C   0  0  0  0  0  0
  -22.1668   -4.2133   21.1011 F   0  0  0  0  0  0
  -21.5586   -3.4630   25.7790 F   0  0  0  0  0  0
  -29.9857  -13.6041   20.4118 N   0  0  0  0  0  0
  -26.2991  -12.9504   20.3396 N   0  0  0  0  0  0
  -25.9421  -11.6645   20.5917 N   0  0  0  0  0  0
  -22.0394  -12.8193   22.0407 N   0  0  0  0  0  0
  -25.4063  -15.1941   20.4052 N   0  0  0  0  0  0
  -31.7225  -14.9999   20.1338 O   0  0  0  0  0  0
  -21.6634   -6.8943   21.4290 O   0  0  0  0  0  0
  -22.3502  -14.5467   20.6729 O   0  0  0  0  0  0
  -24.6432  -31.8398   23.1996 C   0  0  0  0  0  0
  -25.9233  -32.4633   23.8361 C   0  0  1  0  0  0
  -27.1966  -27.1678   20.1167 C   0  0  0  0  0  0
  -25.5974  -33.8462   24.2259 N   0  0  0  0  0  0
  -23.4434  -30.4700   21.5396 C   0  0  2  0  0  0
  -24.8848  -28.9170   20.0990 C   0  0  0  0  0  0
  -22.7567  -29.4517   22.4837 C   0  0  0  0  0  0
  -18.0297  -28.1348   22.8426 C   0  0  0  0  0  0
  -24.1492  -36.7273   23.2626 C   0  0  0  0  0  0
  -25.9962  -30.7274   21.3897 C   0  0  0  0  0  0
  -26.0611  -29.3469   20.7237 C   0  0  0  0  0  0
  -27.2195  -28.4858   20.7224 C   0  0  0  0  0  0
  -25.9967  -26.8421   19.4430 C   0  0  0  0  0  0
  -24.8653  -27.6819   19.4447 C   0  0  0  0  0  0
  -23.6649  -29.8188   20.1521 C   0  0  0  0  0  0
  -25.4109  -36.2994   24.0298 C   0  0  1  0  0  0
  -20.5912  -28.3695   23.1177 C   0  0  2  0  0  0
  -20.6777  -26.9394   22.5349 C   0  0  0  0  0  0
  -19.5766  -26.6377   21.5133 C   0  0  0  0  0  0
  -18.1956  -26.7882   22.1566 C   0  0  0  0  0  0
  -19.1553  -28.8841   23.2795 C   0  0  0  0  0  0
  -18.9475  -30.1431   23.8827 C   0  0  0  0  0  0
  -17.6479  -30.6555   24.0536 C   0  0  0  0  0  0
  -25.9064  -34.9359   23.5079 C   0  0  0  0  0  0
  -16.5370  -29.9054   23.6303 C   0  0  0  0  0  0
  -16.7284  -28.6476   23.0291 C   0  0  0  0  0  0
  -26.4633  -31.6470   25.0763 C   0  0  0  0  0  0
  -25.3911  -31.3518   26.1516 C   0  0  0  0  0  0
  -27.0523  -30.2889   24.6270 C   0  0  0  0  0  0
  -27.6154  -32.4260   25.7545 C   0  0  0  0  0  0
  -27.5580  -37.1778   24.8477 C   0  0  0  0  0  0
  -21.4258  -29.3032   22.3588 N   0  0  0  0  0  0
  -26.4279  -37.3710   23.9398 N   0  0  0  0  0  0
  -24.7137  -31.0326   22.0989 N   0  0  0  0  0  0
  -23.4221  -28.7993   23.2919 O   0  0  0  0  0  0
  -28.2539  -26.2061   20.2090 O   0  0  0  0  0  0
  -26.5631  -34.8842   22.4653 O   0  0  0  0  0  0
  -23.5563  -32.1236   23.7264 O   0  0  0  0  0  0
  -27.1894  -19.5355   21.6545 C   0  0  0  0  0  0
  -28.4023  -20.3501   22.1255 C   0  0  0  0  0  0
  -27.6851  -18.7170   20.4481 C   0  0  0  0  0  0
  -29.2637  -20.4857   20.8620 C   0  0  2  0  0  0
  -30.2559  -23.8448   20.9386 C   0  0  0  0  0  0
  -29.5882  -16.2287   20.5691 C   0  0  0  0  0  0
  -28.7269  -21.8554   20.0495 C   0  0  0  0  0  0
  -30.0588  -17.8327   20.6978 C   0  0  0  0  0  0
  -28.1217  -24.7228   19.7966 C   0  0  0  0  0  0
  -28.8084  -23.4411   20.6075 C   0  0  2  0  0  0
  -29.1211  -19.0351   20.2564 N   0  3  1  0  0  0
  -31.4973  -12.6900   19.1898 H   0  0  0  0  0  0
  -30.4469  -11.5631   20.0047 H   0  0  0  0  0  0
  -29.8287  -11.7032   17.5892 H   0  0  0  0  0  0
  -29.6478  -13.4366   17.7010 H   0  0  0  0  0  0
  -27.9297  -11.2915   18.9717 H   0  0  0  0  0  0
  -27.3946  -12.4860   17.8243 H   0  0  0  0  0  0
  -27.6282  -14.2619   19.4592 H   0  0  0  0  0  0
  -28.7586  -12.2016   21.3952 H   0  0  0  0  0  0
  -28.4095  -13.8496   21.8224 H   0  0  0  0  0  0
  -25.2876   -9.5568   22.4886 H   0  0  0  0  0  0
  -23.9927   -7.4663   22.7677 H   0  0  0  0  0  0
  -21.0871   -8.8974   19.9072 H   0  0  0  0  0  0
  -22.3957  -10.9735   19.6244 H   0  0  0  0  0  0
  -21.2023   -7.6175   23.9704 H   0  0  0  0  0  0
  -21.1459   -6.0589   25.9075 H   0  0  0  0  0  0
  -22.0569   -2.7624   23.2916 H   0  0  0  0  0  0
  -22.3963  -11.9819   22.4707 H   0  0  0  0  0  0
  -21.1059  -13.1291   22.2676 H   0  0  0  0  0  0
  -24.6190  -15.8292   20.4876 H   0  0  0  0  0  0
  -26.2208  -15.6233   19.9860 H   0  0  0  0  0  0
  -26.7273  -32.5268   23.1067 H   0  0  0  0  0  0
  -25.0097  -33.9577   25.0386 H   0  0  0  0  0  0
  -22.7429  -31.2944   21.3981 H   0  0  0  0  0  0
  -23.3721  -35.9646   23.3229 H   0  0  0  0  0  0
  -24.3573  -36.8977   22.2059 H   0  0  0  0  0  0
  -23.7325  -37.6472   23.6721 H   0  0  0  0  0  0
  -26.1434  -31.4808   20.6150 H   0  0  0  0  0  0
  -26.8676  -30.7809   22.0277 H   0  0  0  0  0  0
  -28.1206  -28.8005   21.2294 H   0  0  0  0  0  0
  -25.8843  -25.9118   18.9085 H   0  0  0  0  0  0
  -23.9667  -27.3609   18.9366 H   0  0  0  0  0  0
  -23.8156  -30.6005   19.4070 H   0  0  0  0  0  0
  -22.7748  -29.2745   19.8340 H   0  0  0  0  0  0
  -25.1276  -36.1825   25.0784 H   0  0  0  0  0  0
  -20.9984  -28.3282   24.1305 H   0  0  0  0  0  0
  -20.5634  -26.2300   23.3568 H   0  0  0  0  0  0
  -21.6637  -26.7366   22.1166 H   0  0  0  0  0  0
  -19.6929  -25.6300   21.1140 H   0  0  0  0  0  0
  -19.6678  -27.3167   20.6655 H   0  0  0  0  0  0
  -17.4195  -26.6542   21.4004 H   0  0  0  0  0  0
  -18.0411  -26.0035   22.8991 H   0  0  0  0  0  0
  -19.7964  -30.7233   24.2193 H   0  0  0  0  0  0
  -17.5045  -31.6217   24.5158 H   0  0  0  0  0  0
  -15.5360  -30.2937   23.7689 H   0  0  0  0  0  0
  -15.8666  -28.0820   22.6989 H   0  0  0  0  0  0
  -24.6123  -30.6799   25.7873 H   0  0  0  0  0  0
  -24.9090  -32.2624   26.5069 H   0  0  0  0  0  0
  -25.8355  -30.8667   27.0227 H   0  0  0  0  0  0
  -26.3122  -29.6543   24.1376 H   0  0  0  0  0  0
  -27.4256  -29.7217   25.4811 H   0  0  0  0  0  0
  -27.8970  -30.4090   23.9477 H   0  0  0  0  0  0
  -27.2710  -33.3545   26.2090 H   0  0  0  0  0  0
  -28.3991  -32.6834   25.0409 H   0  0  0  0  0  0
  -28.0800  -31.8441   26.5499 H   0  0  0  0  0  0
  -28.2544  -38.0125   24.7505 H   0  0  0  0  0  0
  -28.1128  -36.2636   24.6322 H   0  0  0  0  0  0
  -27.2270  -37.1431   25.8877 H   0  0  0  0  0  0
  -20.9495  -29.8912   21.6890 H   0  0  0  0  0  0
  -26.0127  -38.2754   24.1461 H   0  0  0  0  0  0
  -26.3917  -20.1967   21.3168 H   0  0  0  0  0  0
  -26.7800  -18.9032   22.4463 H   0  0  0  0  0  0
  -28.9482  -19.7944   22.8896 H   0  0  0  0  0  0
  -28.1242  -21.3024   22.5711 H   0  0  0  0  0  0
  -27.1634  -19.0246   19.5397 H   0  0  0  0  0  0
  -27.4501  -17.6627   20.5579 H   0  0  0  0  0  0
  -30.3110  -20.6431   21.1314 H   0  0  0  0  0  0
  -30.7200  -23.1852   21.6732 H   0  0  0  0  0  0
  -30.2704  -24.8473   21.3709 H   0  0  0  0  0  0
  -30.8915  -23.8683   20.0513 H   0  0  0  0  0  0
  -28.9577  -16.1742   19.6814 H   0  0  0  0  0  0
  -28.9248  -16.0437   21.4143 H   0  0  0  0  0  0
  -27.6653  -21.6845   19.8674 H   0  0  0  0  0  0
  -29.1597  -21.8423   19.0497 H   0  0  0  0  0  0
  -31.0221  -17.9627   20.2022 H   0  0  0  0  0  0
  -30.2827  -17.9951   21.7522 H   0  0  0  0  0  0
  -27.0735  -24.4539   19.7024 H   0  0  0  0  0  0
  -28.5011  -24.6930   18.7716 H   0  0  0  0  0  0
  -28.2829  -23.4274   21.5650 H   0  0  0  0  0  0
  -29.2636  -19.1022   19.2602 H   0  0  0  0  0  0
  1 25  1  0  0  0
  1 30  2  0  0  0
  1 76  1  0  0  0
  2  3  1  0  0  0
  2 25  1  0  0  0
  2 82  1  0  0  0
  2 83  1  0  0  0
  3  4  1  0  0  0
  3 84  1  0  0  0
  3 85  1  0  0  0
  4  5  1  0  0  0
  4 86  1  0  0  0
  4 87  1  0  0  0
  5  6  1  0  0  0
  5 26  1  0  0  0
  5 88  1  0  0  0
  6 25  1  0  0  0
  6 89  1  0  0  0
  6 90  1  0  0  0
  7  8  2  0  0  0
  7 26  1  0  0  0
  7 29  1  0  0  0
  8  9  1  0  0  0
  8 22  1  0  0  0
  9 10  1  0  0  0
  9 27  2  0  0  0
 10 11  2  0  0  0
 10 15  1  0  0  0
 11 12  1  0  0  0
 11 91  1  0  0  0
 12 13  2  0  0  0
 12 92  1  0  0  0
 13 14  1  0  0  0
 13 31  1  0  0  0
 14 15  2  0  0  0
 14 93  1  0  0  0
 15 94  1  0  0  0
 16 17  2  0  0  0
 16 21  1  0  0  0
 16 31  1  0  0  0
 17 18  1  0  0  0
 17 95  1  0  0  0
 18 19  2  0  0  0
 18 96  1  0  0  0
 19 20  1  0  0  0
 19 24  1  0  0  0
 20 21  2  0  0  0
 20 97  1  0  0  0
 21 23  1  0  0  0
 22 28  1  0  0  0
 22 32  2  0  0  0
 26 27  1  0  0  0
 28 98  1  0  0  0
 28 99  1  0  0  0
 29100  1  0  0  0
 29101  1  0  0  0
 33 34  1  0  0  0
 33 66  1  0  0  0
 33 70  2  0  0  0
 34 36  1  0  0  0
 34 59  1  0  0  0
 34102  1  0  0  0
 35 44  2  0  0  0
 35 45  1  0  0  0
 35 68  1  0  0  0
 36 56  1  0  0  0
 36103  1  0  0  0
 37 39  1  0  0  0
 37 47  1  0  0  0
 37 66  1  0  0  0
 37104  1  0  0  0
 38 43  2  0  0  0
 38 46  1  0  0  0
 38 47  1  0  0  0
 39 64  1  0  0  0
 39 67  2  0  0  0
 40 52  1  0  0  0
 40 53  2  0  0  0
 40 58  1  0  0  0
 41105  1  0  0  0
 41106  1  0  0  0
 41107  1  0  0  0
 41 48  1  0  0  0
 42 43  1  0  0  0
 42 66  1  0  0  0
 42108  1  0  0  0
 42109  1  0  0  0
 43 44  1  0  0  0
 44110  1  0  0  0
 45 46  2  0  0  0
 45111  1  0  0  0
 46112  1  0  0  0
 47113  1  0  0  0
 47114  1  0  0  0
 48 56  1  0  0  0
 48 65  1  0  0  0
 48115  1  0  0  0
 49 50  1  0  0  0
 49 53  1  0  0  0
 49 64  1  0  0  0
 49116  1  0  0  0
 50 51  1  0  0  0
 50117  1  0  0  0
 50118  1  0  0  0
 51 52  1  0  0  0
 51119  1  0  0  0
 51120  1  0  0  0
 52121  1  0  0  0
 52122  1  0  0  0
 53 54  1  0  0  0
 54 55  2  0  0  0
 54123  1  0  0  0
 55 57  1  0  0  0
 55124  1  0  0  0
 56 69  2  0  0  0
 57 58  2  0  0  0
 57125  1  0  0  0
 58126  1  0  0  0
 59 60  1  0  0  0
 59 61  1  0  0  0
 59 62  1  0  0  0
 60127  1  0  0  0
 60128  1  0  0  0
 60129  1  0  0  0
 61130  1  0  0  0
 61131  1  0  0  0
 61132  1  0  0  0
 62133  1  0  0  0
 62134  1  0  0  0
 62135  1  0  0  0
 63 65  1  0  0  0
 63136  1  0  0  0
 63137  1  0  0  0
 63138  1  0  0  0
 64139  1  0  0  0
 65140  1  0  0  0
 68 79  1  0  0  0
 71 72  1  0  0  0
 71 73  1  0  0  0
 71141  1  0  0  0
 71142  1  0  0  0
 72 74  1  0  0  0
 72143  1  0  0  0
 72144  1  0  0  0
 73 81  1  0  0  0
 73145  1  0  0  0
 73146  1  0  0  0
 74 77  1  0  0  0
 74 81  1  0  0  0
 74147  1  0  0  0
 75148  1  0  0  0
 75149  1  0  0  0
 75150  1  0  0  0
 75 80  1  0  0  0
 76 78  1  0  0  0
 76151  1  0  0  0
 76152  1  0  0  0
 77 80  1  0  0  0
 77153  1  0  0  0
 77154  1  0  0  0
 78155  1  0  0  0
 78156  1  0  0  0
 78 81  1  0  0  0
 79 80  1  0  0  0
 79157  1  0  0  0
 79158  1  0  0  0
 80159  1  0  0  0
 81160  1  0  0  0
M  CHG  1  81   1
M  ISO  4   1 100  68 101  76 100  79 101
M  END
> <chiral flag>
0

> <version>
0

> <s_m_source_file>
/data/baiqing/PycharmProjects/Reinvent-master-3.2/result/LINK_invent/BTK/process_docking_weight1_custom_sum_contain_oxygen_bond_distance_aromatic_linkinvent_7_9_3/rearranged_h_0114.sdf

> <i_m_source_file_index>
31

> <r_mmod_Potential_Energy-OPLS-2005>
413.486145019531

> <r_mmod_Stretch_Energy-OPLS-2005>
237.405822753906

> <r_mmod_Bend_Energy-OPLS-2005>
269.632629394531

> <r_mmod_Torsional_Energy-OPLS-2005>
266.879821777344

> <r_mmod_Improper_Torsional_Energy-OPLS-2005>
5.55880880355835

> <r_mmod_Van_der_Waal_Energy-OPLS-2005>
111.252563476562

> <r_mmod_Electrostatic_Energy-OPLS-2005>
-198.828277587891

> <r_mmod_Solvation_Energy-OPLS-2005>
-435.287811279297

> <b_mmod_Minimization_Converged-OPLS-2005>
0

> <r_mmod_RMS_Derivative-OPLS-2005>
7.0113377571106

$$$$
31
                    3D
 Structure written by MMmdl.
167175  0  0  1  0            999 V2000
  -29.4692  -15.5057   20.7531 C   0  0  0  0  0  0
  -30.2916  -13.1217   19.6797 C   0  0  0  0  0  0
  -29.5151  -12.6803   18.3866 C   0  0  0  0  0  0
  -28.0731  -12.2611   18.7178 C   0  0  0  0  0  0
  -27.5017  -13.1990   19.8011 C   0  0  2  0  0  0
  -28.3842  -13.2582   21.0382 C   0  0  0  0  0  0
  -25.1846  -13.8017   20.5299 C   0  0  0  0  0  0
  -24.1299  -13.0357   20.9230 C   0  0  0  0  0  0
  -24.5860  -11.6813   20.8737 C   0  0  0  0  0  0
  -23.8688  -10.4232   21.0532 C   0  0  0  0  0  0
  -24.3395   -9.4197   21.9262 C   0  0  0  0  0  0
  -23.6165   -8.2194   22.0784 C   0  0  0  0  0  0
  -22.4164   -8.0188   21.3570 C   0  0  0  0  0  0
  -21.9720   -9.0122   20.4695 C   0  0  0  0  0  0
  -22.6934  -10.2041   20.3133 C   0  0  0  0  0  0
  -21.6828   -6.0677   22.5289 C   0  0  0  0  0  0
  -21.3984   -6.5616   23.8205 C   0  0  0  0  0  0
  -21.3632   -5.6793   24.9182 C   0  0  0  0  0  0
  -21.6036   -4.3052   24.7258 C   0  0  0  0  0  0
  -21.8820   -3.8121   23.4387 C   0  0  0  0  0  0
  -21.9180   -4.6916   22.3427 C   0  0  0  0  0  0
  -22.7460  -13.5303   21.2000 C   0  0  0  0  0  0
  -22.1655   -4.2114   21.1000 F   0  0  0  0  0  0
  -21.5626   -3.4522   25.7765 F   0  0  0  0  0  0
  -29.4622  -14.0691   20.5811 N   0  0  0  0  0  0
  -26.1838  -12.8993   20.2420 N   0  0  0  0  0  0
  -25.8591  -11.6244   20.5275 N   0  0  0  0  0  0
  -22.0039  -12.8361   22.0539 N   0  0  0  0  0  0
  -25.3763  -15.1705   20.3539 N   0  0  0  0  0  0
  -30.6473  -15.8342   20.4123 O   0  0  0  0  0  0
  -21.6591   -6.8767   21.4237 O   0  0  0  0  0  0
  -22.3324  -14.5711   20.6916 O   0  0  0  0  0  0
  -24.6784  -31.9625   23.2265 C   0  0  0  0  0  0
  -25.9674  -32.5180   23.8687 C   0  0  1  0  0  0
  -25.8925  -27.2265   20.4473 C   0  0  0  0  0  0
  -25.6520  -33.8916   24.2619 N   0  0  0  0  0  0
  -23.4966  -30.6338   21.5795 C   0  0  2  0  0  0
  -24.8389  -29.4008   19.7564 C   0  0  0  0  0  0
  -23.2395  -29.4781   22.5854 C   0  0  0  0  0  0
  -18.5114  -27.2436   22.1330 C   0  0  0  0  0  0
  -24.1522  -36.7336   23.2587 C   0  0  0  0  0  0
  -26.0186  -30.8422   21.4273 C   0  0  0  0  0  0
  -25.9119  -29.5463   20.6436 C   0  0  0  0  0  0
  -26.6385  -28.3729   20.8957 C   0  0  0  0  0  0
  -25.7295  -27.2242   19.0934 C   0  0  0  0  0  0
  -24.8448  -28.2902   18.8497 C   0  0  0  0  0  0
  -23.6736  -30.3154   20.0446 C   0  0  0  0  0  0
  -25.4152  -36.3233   24.0309 C   0  0  1  0  0  0
  -21.7881  -27.9128   23.6559 C   0  0  2  0  0  0
  -22.4026  -26.1815   22.6772 C   0  0  0  0  0  0
  -20.9168  -25.2141   21.2055 C   0  0  0  0  0  0
  -19.0089  -25.8512   21.1845 C   0  0  0  0  0  0
  -20.1659  -28.4189   23.5722 C   0  0  0  0  0  0
  -19.4614  -29.8503   24.3817 C   0  0  0  0  0  0
  -17.7914  -30.3025   24.1908 C   0  0  0  0  0  0
  -25.9202  -34.9662   23.5141 C   0  0  0  0  0  0
  -16.6068  -29.4828   23.2285 C   0  0  0  0  0  0
  -16.8738  -28.0451   22.2418 C   0  0  0  0  0  0
  -26.4638  -31.6758   25.1044 C   0  0  0  0  0  0
  -25.3649  -31.3937   26.1541 C   0  0  0  0  0  0
  -27.0485  -30.3158   24.6616 C   0  0  0  0  0  0
  -27.6122  -32.4362   25.8003 C   0  0  0  0  0  0
  -27.5613  -37.1878   24.8450 C   0  0  0  0  0  0
  -22.0642  -29.2179   23.0234 N   0  0  0  0  0  0
  -26.4312  -37.3922   23.9417 N   0  0  0  0  0  0
  -24.7469  -31.2310   22.0860 N   0  0  0  0  0  0
  -24.1233  -28.8401   23.1322 O   0  0  0  0  0  0
  -24.5116  -27.0760   20.9858 O   0  0  0  0  0  0
  -26.5502  -34.9044   22.4552 O   0  0  0  0  0  0
  -23.5918  -32.2177   23.7735 O   0  0  0  0  0  0
  -18.7652  -29.4152   22.2015 C   0  0  0  0  0  0
  -18.1295  -27.9198   24.1893 C   0  0  0  0  0  0
  -20.0061  -28.8752   21.2141 C   0  0  0  0  0  0
  -19.0000  -26.4778   24.3422 C   0  0  0  0  0  0
  -20.8401  -27.4653   21.5500 C   0  0  0  0  0  0
  -20.2135  -26.0670   23.2482 C   0  0  0  0  0  0
  -25.8430  -18.9377   22.1604 C   0  0  0  0  0  0
  -18.7006  -25.5646   25.5106 C   0  0  0  0  0  0
  -24.0660  -20.3527   20.6367 C   0  0  0  0  0  0
  -21.0146  -24.2164   23.5502 C   0  0  0  0  0  0
  -22.6663  -27.3887   20.5888 C   0  0  0  0  0  0
  -27.3359  -18.0490   21.2811 C   0  0  0  0  0  0
  -23.2972  -21.6144   22.9774 C   0  0  0  0  0  0
  -24.7313  -20.5391   22.0133 C   0  0  1  0  0  0
  -28.2033  -16.4138   21.1778 N   0  0  0  0  0  0
  -22.3723  -23.1872   22.8155 N   0  3  0  0  0  0
  -25.4807  -18.2654   23.1316 O   0  0  0  0  0  0
  -31.2171  -13.6118   19.3809 H   0  0  0  0  0  0
  -30.5977  -12.2356   20.2405 H   0  0  0  0  0  0
  -30.0347  -11.8696   17.8740 H   0  0  0  0  0  0
  -29.4841  -13.4991   17.6669 H   0  0  0  0  0  0
  -28.0847  -11.2329   19.0794 H   0  0  0  0  0  0
  -27.4549  -12.2521   17.8221 H   0  0  0  0  0  0
  -27.4349  -14.1721   19.3097 H   0  0  0  0  0  0
  -28.6710  -12.2638   21.3838 H   0  0  0  0  0  0
  -27.8675  -13.7494   21.8631 H   0  0  0  0  0  0
  -25.2527   -9.5761   22.4819 H   0  0  0  0  0  0
  -23.9918   -7.4605   22.7485 H   0  0  0  0  0  0
  -21.0666   -8.8603   19.9003 H   0  0  0  0  0  0
  -22.3371  -10.9590   19.6261 H   0  0  0  0  0  0
  -21.1963   -7.6115   23.9712 H   0  0  0  0  0  0
  -21.1448   -6.0508   25.9087 H   0  0  0  0  0  0
  -22.0621   -2.7577   23.2899 H   0  0  0  0  0  0
  -22.3551  -11.9997   22.4962 H   0  0  0  0  0  0
  -21.0688  -13.1541   22.2718 H   0  0  0  0  0  0
  -24.5453  -15.7491   20.3814 H   0  0  0  0  0  0
  -25.9611  -15.4353   19.5709 H   0  0  0  0  0  0
  -26.7837  -32.5662   23.1485 H   0  0  0  0  0  0
  -25.0896  -34.0079   25.0914 H   0  0  0  0  0  0
  -22.6743  -31.3464   21.6513 H   0  0  0  0  0  0
  -23.3858  -35.9595   23.3227 H   0  0  0  0  0  0
  -24.3631  -36.8957   22.2008 H   0  0  0  0  0  0
  -23.7200  -37.6507   23.6592 H   0  0  0  0  0  0
  -26.3140  -31.6431   20.7451 H   0  0  0  0  0  0
  -26.8468  -30.7098   22.1141 H   0  0  0  0  0  0
  -27.3144  -28.3306   21.7393 H   0  0  0  0  0  0
  -25.5373  -26.3104   18.5471 H   0  0  0  0  0  0
  -24.1000  -28.2001   18.0745 H   0  0  0  0  0  0
  -23.9463  -31.2572   19.5646 H   0  0  0  0  0  0
  -22.7418  -30.1038   19.5278 H   0  0  0  0  0  0
  -25.1301  -36.2086   25.0791 H   0  0  0  0  0  0
  -22.1278  -27.9209   24.6943 H   0  0  0  0  0  0
  -22.6830  -25.6655   23.5921 H   0  0  0  0  0  0
  -23.4370  -26.0376   22.4517 H   0  0  0  0  0  0
  -20.8911  -24.1289   21.1700 H   0  0  0  0  0  0
  -21.2281  -25.3096   20.1727 H   0  0  0  0  0  0
  -18.7089  -26.0169   20.1511 H   0  0  0  0  0  0
  -18.3848  -25.0211   21.5209 H   0  0  0  0  0  0
  -20.0948  -30.4532   25.0158 H   0  0  0  0  0  0
  -17.4555  -31.1712   24.7381 H   0  0  0  0  0  0
  -15.6014  -29.8818   23.2365 H   0  0  0  0  0  0
  -16.0483  -27.6276   21.6792 H   0  0  0  0  0  0
  -24.5798  -30.7416   25.7688 H   0  0  0  0  0  0
  -24.8911  -32.3149   26.4937 H   0  0  0  0  0  0
  -25.7742  -30.9025   27.0366 H   0  0  0  0  0  0
  -26.3175  -29.6951   24.1471 H   0  0  0  0  0  0
  -27.3868  -29.7392   25.5229 H   0  0  0  0  0  0
  -27.9157  -30.4368   24.0129 H   0  0  0  0  0  0
  -27.2691  -33.3590   26.2671 H   0  0  0  0  0  0
  -28.4033  -32.6995   25.0985 H   0  0  0  0  0  0
  -28.0650  -31.8394   26.5911 H   0  0  0  0  0  0
  -28.2584  -38.0233   24.7636 H   0  0  0  0  0  0
  -28.1180  -36.2784   24.6125 H   0  0  0  0  0  0
  -27.2336  -37.1325   25.8850 H   0  0  0  0  0  0
  -21.2633  -29.7543   22.7167 H   0  0  0  0  0  0
  -26.0188  -38.2975   24.1491 H   0  0  0  0  0  0
  -18.3418  -30.3659   21.8814 H   0  0  0  0  0  0
  -17.3792  -28.0738   24.9610 H   0  0  0  0  0  0
  -20.3342  -29.5110   20.4042 H   0  0  0  0  0  0
  -17.8942  -25.9723   26.1215 H   0  0  0  0  0  0
  -19.5809  -25.4675   26.1459 H   0  0  0  0  0  0
  -18.4080  -24.5718   25.1722 H   0  0  0  0  0  0
  -24.7420  -19.9032   19.9119 H   0  0  0  0  0  0
  -23.7303  -21.3025   20.2193 H   0  0  0  0  0  0
  -23.1882  -19.7072   20.7018 H   0  0  0  0  0  0
  -20.1473  -23.5590   23.4958 H   0  0  0  0  0  0
  -21.2442  -24.2127   24.6183 H   0  0  0  0  0  0
  -22.5335  -28.2144   19.9357 H   0  0  0  0  0  0
  -22.5805  -26.6604   19.7936 H   0  0  0  0  0  0
  -28.1604  -18.7496   21.4264 H   0  0  0  0  0  0
  -27.0534  -18.1938   20.2363 H   0  0  0  0  0  0
  -23.6764  -21.6713   23.9983 H   0  0  0  0  0  0
  -22.4810  -20.8956   23.0685 H   0  0  0  0  0  0
  -25.5055  -21.2891   21.8580 H   0  0  0  0  0  0
  -27.4868  -15.7425   21.4254 H   0  0  0  0  0  0
  -23.1227  -23.8540   22.7600 H   0  0  0  0  0  0
  -22.0166  -23.0924   21.8796 H   0  0  0  0  0  0
  1 25  1  0  0  0
  1 30  2  0  0  0
  1 85  1  0  0  0
  2  3  1  0  0  0
  2 25  1  0  0  0
  2 88  1  0  0  0
  2 89  1  0  0  0
  3  4  1  0  0  0
  3 90  1  0  0  0
  3 91  1  0  0  0
  4  5  1  0  0  0
  4 92  1  0  0  0
  4 93  1  0  0  0
  5  6  1  0  0  0
  5 26  1  0  0  0
  5 94  1  0  0  0
  6 25  1  0  0  0
  6 95  1  0  0  0
  6 96  1  0  0  0
  7  8  2  0  0  0
  7 26  1  0  0  0
  7 29  1  0  0  0
  8  9  1  0  0  0
  8 22  1  0  0  0
  9 10  1  0  0  0
  9 27  2  0  0  0
 10 11  2  0  0  0
 10 15  1  0  0  0
 11 12  1  0  0  0
 11 97  1  0  0  0
 12 13  2  0  0  0
 12 98  1  0  0  0
 13 14  1  0  0  0
 13 31  1  0  0  0
 14 15  2  0  0  0
 14 99  1  0  0  0
 15100  1  0  0  0
 16 17  2  0  0  0
 16 21  1  0  0  0
 16 31  1  0  0  0
 17 18  1  0  0  0
 17101  1  0  0  0
 18 19  2  0  0  0
 18102  1  0  0  0
 19 20  1  0  0  0
 19 24  1  0  0  0
 20 21  2  0  0  0
 20103  1  0  0  0
 21 23  1  0  0  0
 22 28  1  0  0  0
 22 32  2  0  0  0
 26 27  1  0  0  0
 28104  1  0  0  0
 28105  1  0  0  0
 29106  1  0  0  0
 29107  1  0  0  0
 33 34  1  0  0  0
 33 66  1  0  0  0
 33 70  2  0  0  0
 34 36  1  0  0  0
 34 59  1  0  0  0
 34108  1  0  0  0
 35 44  2  0  0  0
 35 45  1  0  0  0
 35 68  1  0  0  0
 36 56  1  0  0  0
 36109  1  0  0  0
 37 39  1  0  0  0
 37 47  1  0  0  0
 37 66  1  0  0  0
 37110  1  0  0  0
 38 43  2  0  0  0
 38 46  1  0  0  0
 38 47  1  0  0  0
 39 64  1  0  0  0
 39 67  2  0  0  0
 40 52  1  0  0  0
 40 53  2  0  0  0
 40 58  1  0  0  0
 41111  1  0  0  0
 41112  1  0  0  0
 41113  1  0  0  0
 41 48  1  0  0  0
 42 43  1  0  0  0
 42 66  1  0  0  0
 42114  1  0  0  0
 42115  1  0  0  0
 43 44  1  0  0  0
 44116  1  0  0  0
 45 46  2  0  0  0
 45117  1  0  0  0
 46118  1  0  0  0
 47119  1  0  0  0
 47120  1  0  0  0
 48 56  1  0  0  0
 48 65  1  0  0  0
 48121  1  0  0  0
 49 50  1  0  0  0
 49 53  1  0  0  0
 49 64  1  0  0  0
 49122  1  0  0  0
 50 51  1  0  0  0
 50123  1  0  0  0
 50124  1  0  0  0
 51 52  1  0  0  0
 51125  1  0  0  0
 51126  1  0  0  0
 52127  1  0  0  0
 52128  1  0  0  0
 53 54  1  0  0  0
 54 55  2  0  0  0
 54129  1  0  0  0
 55 57  1  0  0  0
 55130  1  0  0  0
 56 69  2  0  0  0
 57 58  2  0  0  0
 57131  1  0  0  0
 58132  1  0  0  0
 59 60  1  0  0  0
 59 61  1  0  0  0
 59 62  1  0  0  0
 60133  1  0  0  0
 60134  1  0  0  0
 60135  1  0  0  0
 61136  1  0  0  0
 61137  1  0  0  0
 61138  1  0  0  0
 62139  1  0  0  0
 62140  1  0  0  0
 62141  1  0  0  0
 63 65  1  0  0  0
 63142  1  0  0  0
 63143  1  0  0  0
 63144  1  0  0  0
 64145  1  0  0  0
 65146  1  0  0  0
 68 81  1  0  0  0
 71 72  2  0  0  0
 71 73  1  0  0  0
 71147  1  0  0  0
 72 74  1  0  0  0
 72148  1  0  0  0
 73 75  2  0  0  0
 73149  1  0  0  0
 74 76  2  0  0  0
 74 78  1  0  0  0
 75 76  1  0  0  0
 75 81  1  0  0  0
 76 80  1  0  0  0
 77 82  1  0  0  0
 77 84  1  0  0  0
 77 87  2  0  0  0
 78150  1  0  0  0
 78151  1  0  0  0
 78152  1  0  0  0
 79153  1  0  0  0
 79154  1  0  0  0
 79155  1  0  0  0
 79 84  1  0  0  0
 80 86  1  0  0  0
 80156  1  0  0  0
 80157  1  0  0  0
 81158  1  0  0  0
 81159  1  0  0  0
 82 85  1  0  0  0
 82160  1  0  0  0
 82161  1  0  0  0
 83 84  1  0  0  0
 83 86  1  0  0  0
 83162  1  0  0  0
 83163  1  0  0  0
 84164  1  0  0  0
 85165  1  0  0  0
 86166  1  0  0  0
 86167  1  0  0  0
M  CHG  1  86   1
M  ISO  4   1 100  68 101  81 101  85 100
M  END
> <chiral flag>
0

> <version>
0

> <s_m_source_file>
/data/baiqing/PycharmProjects/Reinvent-master-3.2/result/LINK_invent/BTK/process_docking_weight1_custom_sum_contain_oxygen_bond_distance_aromatic_linkinvent_7_9_3/rearranged_h_0114.sdf

> <i_m_source_file_index>
32

> <r_mmod_Potential_Energy-OPLS-2005>
23849.125

> <r_mmod_Stretch_Energy-OPLS-2005>
12751.302734375

> <r_mmod_Bend_Energy-OPLS-2005>
1344.59509277344

> <r_mmod_Torsional_Energy-OPLS-2005>
520.14013671875

> <r_mmod_Improper_Torsional_Energy-OPLS-2005>
47.0863227844238

> <r_mmod_Van_der_Waal_Energy-OPLS-2005>
5256.1259765625

> <r_mmod_Electrostatic_Energy-OPLS-2005>
-355.548065185547

> <r_mmod_Solvation_Energy-OPLS-2005>
-478.283233642578

> <b_mmod_Minimization_Converged-OPLS-2005>
0

> <r_mmod_RMS_Derivative-OPLS-2005>
9.63201141357422

$$$$
32
                    3D
 Structure written by MMmdl.
161170  0  0  1  0            999 V2000
  -30.3530  -15.3848   20.3853 C   0  0  0  0  0  0
  -30.4575  -12.9031   19.5096 C   0  0  0  0  0  0
  -29.5452  -12.6120   18.2857 C   0  0  0  0  0  0
  -28.0946  -12.3165   18.7136 C   0  0  0  0  0  0
  -27.6175  -13.2774   19.8298 C   0  0  2  0  0  0
  -28.6659  -13.4260   20.9540 C   0  0  0  0  0  0
  -25.2351  -13.8210   20.5599 C   0  0  0  0  0  0
  -24.1756  -13.0414   20.9276 C   0  0  0  0  0  0
  -24.6431  -11.6925   20.8804 C   0  0  0  0  0  0
  -23.9107  -10.4290   21.0432 C   0  0  0  0  0  0
  -24.3640   -9.4198   21.9207 C   0  0  0  0  0  0
  -23.6298   -8.2242   22.0772 C   0  0  0  0  0  0
  -22.4283   -8.0288   21.3560 C   0  0  0  0  0  0
  -21.9929   -9.0266   20.4660 C   0  0  0  0  0  0
  -22.7273  -10.2139   20.3073 C   0  0  0  0  0  0
  -21.6857   -6.0730   22.5272 C   0  0  0  0  0  0
  -21.4022   -6.5636   23.8201 C   0  0  0  0  0  0
  -21.3655   -5.6798   24.9168 C   0  0  0  0  0  0
  -21.6043   -4.3059   24.7226 C   0  0  0  0  0  0
  -21.8819   -3.8143   23.4349 C   0  0  0  0  0  0
  -21.9196   -4.6957   22.3401 C   0  0  0  0  0  0
  -22.7779  -13.5181   21.1891 C   0  0  0  0  0  0
  -22.1669   -4.2137   21.0980 F   0  0  0  0  0  0
  -21.5627   -3.4543   25.7740 F   0  0  0  0  0  0
  -29.8587  -14.0320   20.3261 N   0  0  0  0  0  0
  -26.2851  -12.9512   20.3228 N   0  0  0  0  0  0
  -25.9380  -11.6628   20.5783 N   0  0  0  0  0  0
  -22.0420  -12.8184   22.0448 N   0  0  0  0  0  0
  -25.3775  -15.1898   20.3637 N   0  0  0  0  0  0
  -31.5779  -15.4236   20.1792 O   0  0  0  0  0  0
  -21.6653   -6.8877   21.4236 O   0  0  0  0  0  0
  -22.3459  -14.5478   20.6715 O   0  0  0  0  0  0
  -24.6700  -31.8156   23.1634 C   0  0  0  0  0  0
  -25.9345  -32.4542   23.8128 C   0  0  1  0  0  0
  -27.2316  -26.8554   20.1987 C   0  0  0  0  0  0
  -25.5986  -33.8362   24.2037 N   0  0  0  0  0  0
  -23.4892  -30.4224   21.5143 C   0  0  2  0  0  0
  -24.9457  -28.7899   20.1197 C   0  0  0  0  0  0
  -22.7703  -29.4388   22.4759 C   0  0  0  0  0  0
  -18.0335  -28.1392   22.8456 C   0  0  0  0  0  0
  -24.1495  -36.7182   23.2649 C   0  0  0  0  0  0
  -26.0621  -30.5985   21.4043 C   0  0  0  0  0  0
  -26.1324  -29.1791   20.7530 C   0  0  0  0  0  0
  -27.2680  -28.2377   20.7601 C   0  0  0  0  0  0
  -26.0117  -26.6348   19.5181 C   0  0  0  0  0  0
  -24.9145  -27.5394   19.4800 C   0  0  0  0  0  0
  -23.7356  -29.7288   20.1452 C   0  0  0  0  0  0
  -25.4138  -36.2939   24.0295 C   0  0  1  0  0  0
  -20.5966  -28.3734   23.1159 C   0  0  2  0  0  0
  -20.6819  -26.9413   22.5377 C   0  0  0  0  0  0
  -19.5777  -26.6314   21.5210 C   0  0  0  0  0  0
  -18.1962  -26.7923   22.1605 C   0  0  0  0  0  0
  -19.1595  -28.8883   23.2798 C   0  0  0  0  0  0
  -18.9507  -30.1461   23.8854 C   0  0  0  0  0  0
  -17.6497  -30.6574   24.0554 C   0  0  0  0  0  0
  -25.9113  -34.9323   23.4995 C   0  0  0  0  0  0
  -16.5390  -29.9073   23.6323 C   0  0  0  0  0  0
  -16.7313  -28.6491   23.0338 C   0  0  0  0  0  0
  -26.4576  -31.6507   25.0682 C   0  0  0  0  0  0
  -25.3681  -31.3775   26.1324 C   0  0  0  0  0  0
  -27.0474  -30.2855   24.6464 C   0  0  0  0  0  0
  -27.6062  -32.4324   25.7488 C   0  0  0  0  0  0
  -27.5570  -37.1745   24.8469 C   0  0  0  0  0  0
  -21.4367  -29.3034   22.3519 N   0  0  0  0  0  0
  -26.4276  -37.3682   23.9416 N   0  0  0  0  0  0
  -24.7623  -30.9753   22.0802 N   0  0  0  0  0  0
  -23.4221  -28.7955   23.3023 O   0  0  0  0  0  0
  -28.2440  -25.7309   20.2347 O   0  0  0  0  0  0
  -26.5734  -34.8877   22.4597 O   0  0  0  0  0  0
  -23.5755  -32.1159   23.6679 O   0  0  0  0  0  0
  -28.0224  -20.1473   21.2848 C   0  0  0  0  0  0
  -28.9219  -20.7750   20.4468 C   0  0  0  0  0  0
  -29.2348  -18.2466   20.6461 C   0  0  0  0  0  0
  -25.9510  -19.4092   25.3809 C   0  0  0  0  0  0
  -26.2801  -18.0179   24.8459 C   0  0  0  0  0  0
  -26.3462  -19.9492   24.0073 C   0  0  0  0  0  0
  -27.1770  -18.6699   23.7720 C   0  0  0  0  0  0
  -27.5806  -16.5088   22.5868 C   0  0  0  0  0  0
  -29.0619  -22.5259   20.0951 C   0  0  0  0  0  0
  -28.0384  -24.0531   20.3310 C   0  0  0  0  0  0
  -27.3032  -18.0032   22.3787 C   0  0  2  0  0  0
  -28.2286  -18.7514   21.4492 N   0  0  0  0  0  0
  -29.6604  -19.5073   20.0677 N   0  3  0  0  0  0
  -29.4683  -16.6040   20.4465 N   0  0  0  0  0  0
  -31.4545  -13.1661   19.1539 H   0  0  0  0  0  0
  -30.5960  -12.0044   20.1140 H   0  0  0  0  0  0
  -29.9432  -11.7819   17.6997 H   0  0  0  0  0  0
  -29.5533  -13.4791   17.6237 H   0  0  0  0  0  0
  -28.0546  -11.2880   19.0751 H   0  0  0  0  0  0
  -27.4263  -12.3640   17.8527 H   0  0  0  0  0  0
  -27.5328  -14.2504   19.3457 H   0  0  0  0  0  0
  -28.8841  -12.4572   21.4072 H   0  0  0  0  0  0
  -28.3064  -14.0397   21.7729 H   0  0  0  0  0  0
  -25.2779   -9.5662   22.4794 H   0  0  0  0  0  0
  -23.9984   -7.4635   22.7507 H   0  0  0  0  0  0
  -21.0854   -8.8798   19.8974 H   0  0  0  0  0  0
  -22.3734  -10.9682   19.6187 H   0  0  0  0  0  0
  -21.2016   -7.6146   23.9691 H   0  0  0  0  0  0
  -21.1476   -6.0537   25.9065 H   0  0  0  0  0  0
  -22.0596   -2.7600   23.2859 H   0  0  0  0  0  0
  -22.4044  -11.9848   22.4829 H   0  0  0  0  0  0
  -21.1040  -13.1210   22.2653 H   0  0  0  0  0  0
  -24.5504  -15.7762   20.3761 H   0  0  0  0  0  0
  -26.1035  -15.5595   19.7660 H   0  0  0  0  0  0
  -26.7410  -32.5070   23.0840 H   0  0  0  0  0  0
  -25.0060  -33.9414   25.0141 H   0  0  0  0  0  0
  -22.8054  -31.2548   21.3347 H   0  0  0  0  0  0
  -23.3771  -35.9498   23.3279 H   0  0  0  0  0  0
  -24.3569  -36.8866   22.2070 H   0  0  0  0  0  0
  -23.7234  -37.6353   23.6728 H   0  0  0  0  0  0
  -26.2501  -31.3348   20.6223 H   0  0  0  0  0  0
  -26.9188  -30.6604   22.0633 H   0  0  0  0  0  0
  -28.1693  -28.5438   21.2719 H   0  0  0  0  0  0
  -25.8785  -25.6862   19.0190 H   0  0  0  0  0  0
  -24.0158  -27.2344   18.9622 H   0  0  0  0  0  0
  -23.9062  -30.4943   19.3870 H   0  0  0  0  0  0
  -22.8430  -29.1910   19.8196 H   0  0  0  0  0  0
  -25.1335  -36.1726   25.0783 H   0  0  0  0  0  0
  -21.0047  -28.3341   24.1289 H   0  0  0  0  0  0
  -20.5740  -26.2350   23.3616 H   0  0  0  0  0  0
  -21.6671  -26.7411   22.1149 H   0  0  0  0  0  0
  -19.6935  -25.6178   21.1343 H   0  0  0  0  0  0
  -19.6711  -27.3030   20.6669 H   0  0  0  0  0  0
  -17.4241  -26.6688   21.3995 H   0  0  0  0  0  0
  -18.0323  -26.0080   22.9002 H   0  0  0  0  0  0
  -19.7980  -30.7277   24.2226 H   0  0  0  0  0  0
  -17.5042  -31.6241   24.5180 H   0  0  0  0  0  0
  -15.5388  -30.2953   23.7669 H   0  0  0  0  0  0
  -15.8714  -28.0798   22.7063 H   0  0  0  0  0  0
  -24.5889  -30.7101   25.7626 H   0  0  0  0  0  0
  -24.8844  -32.2980   26.4597 H   0  0  0  0  0  0
  -25.7898  -30.9040   27.0198 H   0  0  0  0  0  0
  -26.3151  -29.6514   24.1457 H   0  0  0  0  0  0
  -27.3960  -29.7243   25.5145 H   0  0  0  0  0  0
  -27.9120  -30.4013   23.9925 H   0  0  0  0  0  0
  -27.2631  -33.3681   26.1916 H   0  0  0  0  0  0
  -28.3951  -32.6789   25.0368 H   0  0  0  0  0  0
  -28.0642  -31.8543   26.5523 H   0  0  0  0  0  0
  -28.2559  -38.0067   24.7519 H   0  0  0  0  0  0
  -28.1093  -36.2591   24.6294 H   0  0  0  0  0  0
  -27.2289  -37.1390   25.8870 H   0  0  0  0  0  0
  -20.9633  -29.8755   21.6672 H   0  0  0  0  0  0
  -26.0121  -38.2741   24.1417 H   0  0  0  0  0  0
  -27.2219  -20.6458   21.8027 H   0  0  0  0  0  0
  -26.6247  -19.7290   26.1780 H   0  0  0  0  0  0
  -24.9028  -19.5610   25.6443 H   0  0  0  0  0  0
  -25.4041  -17.5209   24.4233 H   0  0  0  0  0  0
  -26.8022  -17.3669   25.5485 H   0  0  0  0  0  0
  -26.9194  -20.8763   24.0483 H   0  0  0  0  0  0
  -25.4899  -20.0315   23.3351 H   0  0  0  0  0  0
  -28.1672  -18.8090   24.2124 H   0  0  0  0  0  0
  -28.5801  -16.3261   22.9822 H   0  0  0  0  0  0
  -27.4339  -15.9729   21.6604 H   0  0  0  0  0  0
  -26.8744  -16.0487   23.2760 H   0  0  0  0  0  0
  -29.3059  -22.5523   19.0337 H   0  0  0  0  0  0
  -30.0075  -22.7928   20.5663 H   0  0  0  0  0  0
  -27.6764  -23.9461   21.3529 H   0  0  0  0  0  0
  -27.1537  -23.8681   19.7239 H   0  0  0  0  0  0
  -26.3274  -18.0580   21.8939 H   0  0  0  0  0  0
  -30.4250  -19.5322   19.4024 H   0  0  0  0  0  0
  -28.5578  -16.1896   20.5605 H   0  0  0  0  0  0
  1 25  1  0  0  0
  1 30  2  0  0  0
  1 84  1  0  0  0
  2  3  1  0  0  0
  2 25  1  0  0  0
  2 85  1  0  0  0
  2 86  1  0  0  0
  3  4  1  0  0  0
  3 87  1  0  0  0
  3 88  1  0  0  0
  4  5  1  0  0  0
  4 89  1  0  0  0
  4 90  1  0  0  0
  5  6  1  0  0  0
  5 26  1  0  0  0
  5 91  1  0  0  0
  6 25  1  0  0  0
  6 92  1  0  0  0
  6 93  1  0  0  0
  7  8  2  0  0  0
  7 26  1  0  0  0
  7 29  1  0  0  0
  8  9  1  0  0  0
  8 22  1  0  0  0
  9 10  1  0  0  0
  9 27  2  0  0  0
 10 11  2  0  0  0
 10 15  1  0  0  0
 11 12  1  0  0  0
 11 94  1  0  0  0
 12 13  2  0  0  0
 12 95  1  0  0  0
 13 14  1  0  0  0
 13 31  1  0  0  0
 14 15  2  0  0  0
 14 96  1  0  0  0
 15 97  1  0  0  0
 16 17  2  0  0  0
 16 21  1  0  0  0
 16 31  1  0  0  0
 17 18  1  0  0  0
 17 98  1  0  0  0
 18 19  2  0  0  0
 18 99  1  0  0  0
 19 20  1  0  0  0
 19 24  1  0  0  0
 20 21  2  0  0  0
 20100  1  0  0  0
 21 23  1  0  0  0
 22 28  1  0  0  0
 22 32  2  0  0  0
 26 27  1  0  0  0
 28101  1  0  0  0
 28102  1  0  0  0
 29103  1  0  0  0
 29104  1  0  0  0
 33 34  1  0  0  0
 33 66  1  0  0  0
 33 70  2  0  0  0
 34 36  1  0  0  0
 34 59  1  0  0  0
 34105  1  0  0  0
 35 44  2  0  0  0
 35 45  1  0  0  0
 35 68  1  0  0  0
 36 56  1  0  0  0
 36106  1  0  0  0
 37 39  1  0  0  0
 37 47  1  0  0  0
 37 66  1  0  0  0
 37107  1  0  0  0
 38 43  2  0  0  0
 38 46  1  0  0  0
 38 47  1  0  0  0
 39 64  1  0  0  0
 39 67  2  0  0  0
 40 52  1  0  0  0
 40 53  2  0  0  0
 40 58  1  0  0  0
 41108  1  0  0  0
 41109  1  0  0  0
 41110  1  0  0  0
 41 48  1  0  0  0
 42 43  1  0  0  0
 42 66  1  0  0  0
 42111  1  0  0  0
 42112  1  0  0  0
 43 44  1  0  0  0
 44113  1  0  0  0
 45 46  2  0  0  0
 45114  1  0  0  0
 46115  1  0  0  0
 47116  1  0  0  0
 47117  1  0  0  0
 48 56  1  0  0  0
 48 65  1  0  0  0
 48118  1  0  0  0
 49 50  1  0  0  0
 49 53  1  0  0  0
 49 64  1  0  0  0
 49119  1  0  0  0
 50 51  1  0  0  0
 50120  1  0  0  0
 50121  1  0  0  0
 51 52  1  0  0  0
 51122  1  0  0  0
 51123  1  0  0  0
 52124  1  0  0  0
 52125  1  0  0  0
 53 54  1  0  0  0
 54 55  2  0  0  0
 54126  1  0  0  0
 55 57  1  0  0  0
 55127  1  0  0  0
 56 69  2  0  0  0
 57 58  2  0  0  0
 57128  1  0  0  0
 58129  1  0  0  0
 59 60  1  0  0  0
 59 61  1  0  0  0
 59 62  1  0  0  0
 60130  1  0  0  0
 60131  1  0  0  0
 60132  1  0  0  0
 61133  1  0  0  0
 61134  1  0  0  0
 61135  1  0  0  0
 62136  1  0  0  0
 62137  1  0  0  0
 62138  1  0  0  0
 63 65  1  0  0  0
 63139  1  0  0  0
 63140  1  0  0  0
 63141  1  0  0  0
 64142  1  0  0  0
 65143  1  0  0  0
 68 80  1  0  0  0
 71 72  2  0  0  0
 71 82  1  0  0  0
 71144  1  0  0  0
 72 79  1  0  0  0
 72 83  1  0  0  0
 73 82  1  0  0  0
 73 83  2  0  0  0
 73 84  1  0  0  0
 74 75  1  0  0  0
 74 76  1  0  0  0
 74145  1  0  0  0
 74146  1  0  0  0
 75147  1  0  0  0
 75148  1  0  0  0
 75 77  1  0  0  0
 76 77  1  0  0  0
 76149  1  0  0  0
 76150  1  0  0  0
 77 81  1  0  0  0
 77151  1  0  0  0
 78152  1  0  0  0
 78153  1  0  0  0
 78154  1  0  0  0
 78 81  1  0  0  0
 79 80  1  0  0  0
 79155  1  0  0  0
 79156  1  0  0  0
 80157  1  0  0  0
 80158  1  0  0  0
 81 82  1  0  0  0
 81159  1  0  0  0
 83160  1  0  0  0
 84161  1  0  0  0
M  CHG  1  83   1
M  ISO  4   1 100  68 101  80 101  84 100
M  END
> <chiral flag>
0

> <version>
0

> <s_m_source_file>
/data/baiqing/PycharmProjects/Reinvent-master-3.2/result/LINK_invent/BTK/process_docking_weight1_custom_sum_contain_oxygen_bond_distance_aromatic_linkinvent_7_9_3/rearranged_h_0114.sdf

> <i_m_source_file_index>
33

> <r_mmod_Potential_Energy-OPLS-2005>
1635.49987792969

> <r_mmod_Stretch_Energy-OPLS-2005>
730.588317871094

> <r_mmod_Bend_Energy-OPLS-2005>
569.666748046875

> <r_mmod_Torsional_Energy-OPLS-2005>
288.975708007812

> <r_mmod_Improper_Torsional_Energy-OPLS-2005>
9.53463554382324

> <r_mmod_Van_der_Waal_Energy-OPLS-2005>
121.217132568359

> <r_mmod_Electrostatic_Energy-OPLS-2005>
-236.050231933594

> <r_mmod_Solvation_Energy-OPLS-2005>
-424.591827392578

> <b_mmod_Minimization_Converged-OPLS-2005>
0

> <r_mmod_RMS_Derivative-OPLS-2005>
1.94322311878204

$$$$
33
                    3D
 Structure written by MMmdl.
160168  0  0  1  0            999 V2000
  -30.7599  -14.3634   20.7017 C   0  0  0  0  0  0
  -30.4229  -12.2967   19.3878 C   0  0  0  0  0  0
  -29.4832  -12.5275   18.1891 C   0  0  0  0  0  0
  -28.0090  -12.3774   18.6083 C   0  0  0  0  0  0
  -27.6685  -13.1995   19.8778 C   0  0  2  0  0  0
  -28.7053  -12.9341   20.9909 C   0  0  0  0  0  0
  -25.2624  -13.8155   20.5664 C   0  0  0  0  0  0
  -24.1859  -13.0444   20.9155 C   0  0  0  0  0  0
  -24.6402  -11.6903   20.8725 C   0  0  0  0  0  0
  -23.9062  -10.4291   21.0406 C   0  0  0  0  0  0
  -24.3616   -9.4212   21.9187 C   0  0  0  0  0  0
  -23.6292   -8.2249   22.0755 C   0  0  0  0  0  0
  -22.4274   -8.0286   21.3547 C   0  0  0  0  0  0
  -21.9910   -9.0259   20.4649 C   0  0  0  0  0  0
  -22.7238  -10.2137   20.3055 C   0  0  0  0  0  0
  -21.6850   -6.0741   22.5279 C   0  0  0  0  0  0
  -21.4010   -6.5644   23.8213 C   0  0  0  0  0  0
  -21.3656   -5.6795   24.9175 C   0  0  0  0  0  0
  -21.6042   -4.3058   24.7224 C   0  0  0  0  0  0
  -21.8822   -3.8151   23.4345 C   0  0  0  0  0  0
  -21.9194   -4.6970   22.3402 C   0  0  0  0  0  0
  -22.7883  -13.5250   21.1832 C   0  0  0  0  0  0
  -22.1664   -4.2156   21.0978 F   0  0  0  0  0  0
  -21.5627   -3.4540   25.7735 F   0  0  0  0  0  0
  -30.0533  -13.2281   20.4638 N   0  0  0  0  0  0
  -26.3057  -12.9313   20.3368 N   0  0  0  0  0  0
  -25.9325  -11.6476   20.5754 N   0  0  0  0  0  0
  -22.0521  -12.8238   22.0386 N   0  0  0  0  0  0
  -25.4394  -15.1868   20.4078 N   0  0  0  0  0  0
  -31.7464  -14.7062   20.0424 O   0  0  0  0  0  0
  -21.6637   -6.8886   21.4242 O   0  0  0  0  0  0
  -22.3571  -14.5568   20.6698 O   0  0  0  0  0  0
  -24.6104  -31.8703   23.2120 C   0  0  0  0  0  0
  -25.9015  -32.4837   23.8404 C   0  0  1  0  0  0
  -27.2431  -27.4689   20.0867 C   0  0  0  0  0  0
  -25.5888  -33.8634   24.2335 N   0  0  0  0  0  0
  -23.3991  -30.4927   21.5504 C   0  0  2  0  0  0
  -24.8474  -28.9566   20.1196 C   0  0  0  0  0  0
  -22.7389  -29.4671   22.4994 C   0  0  0  0  0  0
  -18.0268  -28.1379   22.8512 C   0  0  0  0  0  0
  -24.1480  -36.7304   23.2642 C   0  0  0  0  0  0
  -25.9237  -30.8422   21.3631 C   0  0  0  0  0  0
  -26.0027  -29.4758   20.7179 C   0  0  0  0  0  0
  -27.2040  -28.7348   20.7064 C   0  0  0  0  0  0
  -26.0759  -26.9510   19.4898 C   0  0  0  0  0  0
  -24.8752  -27.6892   19.5082 C   0  0  0  0  0  0
  -23.6077  -29.8214   20.1662 C   0  0  0  0  0  0
  -25.4102  -36.3117   24.0346 C   0  0  1  0  0  0
  -20.5862  -28.3658   23.1323 C   0  0  2  0  0  0
  -20.6764  -26.9398   22.5415 C   0  0  0  0  0  0
  -19.5739  -26.6394   21.5215 C   0  0  0  0  0  0
  -18.1912  -26.7931   22.1628 C   0  0  0  0  0  0
  -19.1520  -28.8831   23.2922 C   0  0  0  0  0  0
  -18.9463  -30.1441   23.8930 C   0  0  0  0  0  0
  -17.6470  -30.6591   24.0575 C   0  0  0  0  0  0
  -25.9027  -34.9488   23.5131 C   0  0  0  0  0  0
  -16.5355  -29.9106   23.6328 C   0  0  0  0  0  0
  -16.7263  -28.6517   23.0355 C   0  0  0  0  0  0
  -26.4459  -31.6616   25.0725 C   0  0  0  0  0  0
  -25.3741  -31.3730   26.1487 C   0  0  0  0  0  0
  -27.0279  -30.3067   24.6071 C   0  0  0  0  0  0
  -27.6037  -32.4337   25.7478 C   0  0  0  0  0  0
  -27.5577  -37.1808   24.8472 C   0  0  0  0  0  0
  -21.4122  -29.3036   22.3737 N   0  0  0  0  0  0
  -26.4291  -37.3800   23.9418 N   0  0  0  0  0  0
  -24.6622  -31.0822   22.1012 N   0  0  0  0  0  0
  -23.4174  -28.8209   23.3026 O   0  0  0  0  0  0
  -28.4175  -26.7671   20.0159 O   0  0  0  0  0  0
  -26.5587  -34.8939   22.4693 O   0  0  0  0  0  0
  -23.5302  -32.1439   23.7531 O   0  0  0  0  0  0
  -30.8431  -17.4236   21.3208 C   0  0  0  0  0  0
  -31.5477  -18.7897   23.1881 C   0  0  0  0  0  0
  -31.2029  -18.6893   21.8273 C   0  0  0  0  0  0
  -30.8000  -16.3249   22.2097 C   0  0  0  0  0  0
  -31.1216  -16.5448   23.5664 C   0  0  0  0  0  0
  -31.0574  -15.4255   24.5900 C   0  0  0  0  0  0
  -31.2106  -19.9297   20.9427 C   0  0  0  0  0  0
  -30.1891  -20.9894   21.4079 C   0  0  0  0  0  0
  -30.2094  -22.2842   20.5759 C   0  0  0  0  0  0
  -29.2712  -23.3646   21.1472 C   0  0  0  0  0  0
  -29.2167  -24.6332   20.2800 C   0  0  0  0  0  0
  -31.5049  -17.7469   24.0413 N   0  0  0  0  0  0
  -30.3629  -15.0416   21.7877 N   0  0  0  0  0  0
  -28.3867  -25.6464   20.9168 N   0  0  0  0  0  0
  -31.4637  -12.4131   19.0788 H   0  0  0  0  0  0
  -30.3355  -11.2704   19.7472 H   0  0  0  0  0  0
  -29.7151  -11.8237   17.3886 H   0  0  0  0  0  0
  -29.6479  -13.5245   17.7771 H   0  0  0  0  0  0
  -27.8185  -11.3190   18.7895 H   0  0  0  0  0  0
  -27.3529  -12.6659   17.7861 H   0  0  0  0  0  0
  -27.7301  -14.2539   19.6069 H   0  0  0  0  0  0
  -28.6662  -11.8878   21.2987 H   0  0  0  0  0  0
  -28.4415  -13.5029   21.8822 H   0  0  0  0  0  0
  -25.2766   -9.5683   22.4758 H   0  0  0  0  0  0
  -24.0000   -7.4640   22.7474 H   0  0  0  0  0  0
  -21.0845   -8.8784   19.8953 H   0  0  0  0  0  0
  -22.3710  -10.9677   19.6160 H   0  0  0  0  0  0
  -21.1999   -7.6151   23.9720 H   0  0  0  0  0  0
  -21.1471   -6.0523   25.9078 H   0  0  0  0  0  0
  -22.0604   -2.7614   23.2842 H   0  0  0  0  0  0
  -22.4122  -11.9879   22.4742 H   0  0  0  0  0  0
  -21.1150  -13.1282   22.2617 H   0  0  0  0  0  0
  -24.6825  -15.8525   20.5195 H   0  0  0  0  0  0
  -26.3078  -15.6194   20.1156 H   0  0  0  0  0  0
  -26.7085  -32.5561   23.1172 H   0  0  0  0  0  0
  -25.0062  -33.9804   25.0492 H   0  0  0  0  0  0
  -22.6869  -31.3085   21.4090 H   0  0  0  0  0  0
  -23.3747  -35.9631   23.3321 H   0  0  0  0  0  0
  -24.3566  -36.8886   22.2051 H   0  0  0  0  0  0
  -23.7227  -37.6518   23.6633 H   0  0  0  0  0  0
  -26.0311  -31.6067   20.5928 H   0  0  0  0  0  0
  -26.8138  -30.8974   21.9782 H   0  0  0  0  0  0
  -28.1029  -29.1350   21.1540 H   0  0  0  0  0  0
  -26.1024  -25.9890   18.9980 H   0  0  0  0  0  0
  -23.9882  -27.2842   19.0401 H   0  0  0  0  0  0
  -23.7158  -30.5959   19.4055 H   0  0  0  0  0  0
  -22.7328  -29.2400   19.8704 H   0  0  0  0  0  0
  -25.1274  -36.1981   25.0839 H   0  0  0  0  0  0
  -20.9959  -28.3217   24.1441 H   0  0  0  0  0  0
  -20.5649  -26.2269   23.3598 H   0  0  0  0  0  0
  -21.6634  -26.7427   22.1212 H   0  0  0  0  0  0
  -19.6901  -25.6310   21.1229 H   0  0  0  0  0  0
  -19.6685  -27.3220   20.6756 H   0  0  0  0  0  0
  -17.4187  -26.6691   21.4023 H   0  0  0  0  0  0
  -18.0305  -26.0056   22.9003 H   0  0  0  0  0  0
  -19.7940  -30.7242   24.2308 H   0  0  0  0  0  0
  -17.5034  -31.6274   24.5174 H   0  0  0  0  0  0
  -15.5358  -30.3030   23.7638 H   0  0  0  0  0  0
  -15.8656  -28.0851   22.7060 H   0  0  0  0  0  0
  -24.5917  -30.7056   25.7854 H   0  0  0  0  0  0
  -24.8927  -32.2890   26.4927 H   0  0  0  0  0  0
  -25.8115  -30.8933   27.0250 H   0  0  0  0  0  0
  -26.2809  -29.6846   24.1129 H   0  0  0  0  0  0
  -27.4069  -29.7281   25.4503 H   0  0  0  0  0  0
  -27.8629  -30.4390   23.9188 H   0  0  0  0  0  0
  -27.2652  -33.3624   26.2084 H   0  0  0  0  0  0
  -28.3835  -32.6922   25.0305 H   0  0  0  0  0  0
  -28.0721  -31.8453   26.5381 H   0  0  0  0  0  0
  -28.2613  -38.0090   24.7506 H   0  0  0  0  0  0
  -28.1052  -36.2623   24.6300 H   0  0  0  0  0  0
  -27.2296  -37.1450   25.8877 H   0  0  0  0  0  0
  -20.9267  -29.8756   21.6970 H   0  0  0  0  0  0
  -26.0180  -38.2875   24.1437 H   0  0  0  0  0  0
  -30.5677  -17.3066   20.2819 H   0  0  0  0  0  0
  -31.8448  -19.7371   23.6136 H   0  0  0  0  0  0
  -31.7549  -14.6300   24.3274 H   0  0  0  0  0  0
  -30.0522  -15.0058   24.6297 H   0  0  0  0  0  0
  -31.3101  -15.7777   25.5909 H   0  0  0  0  0  0
  -31.0143  -19.6477   19.9072 H   0  0  0  0  0  0
  -32.2158  -20.3537   20.9560 H   0  0  0  0  0  0
  -30.3848  -21.2512   22.4480 H   0  0  0  0  0  0
  -29.1862  -20.5607   21.3850 H   0  0  0  0  0  0
  -29.9310  -22.0593   19.5456 H   0  0  0  0  0  0
  -31.2264  -22.6795   20.5397 H   0  0  0  0  0  0
  -29.6059  -23.6273   22.1525 H   0  0  0  0  0  0
  -28.2667  -22.9531   21.2556 H   0  0  0  0  0  0
  -28.8155  -24.3985   19.2926 H   0  0  0  0  0  0
  -30.2234  -25.0292   20.1362 H   0  0  0  0  0  0
  -29.6887  -14.5690   22.3711 H   0  0  0  0  0  0
  -27.4175  -25.3402   20.9308 H   0  0  0  0  0  0
  1 25  1  0  0  0
  1 30  2  0  0  0
  1 83  1  0  0  0
  2  3  1  0  0  0
  2 25  1  0  0  0
  2 85  1  0  0  0
  2 86  1  0  0  0
  3  4  1  0  0  0
  3 87  1  0  0  0
  3 88  1  0  0  0
  4  5  1  0  0  0
  4 89  1  0  0  0
  4 90  1  0  0  0
  5  6  1  0  0  0
  5 26  1  0  0  0
  5 91  1  0  0  0
  6 25  1  0  0  0
  6 92  1  0  0  0
  6 93  1  0  0  0
  7  8  2  0  0  0
  7 26  1  0  0  0
  7 29  1  0  0  0
  8  9  1  0  0  0
  8 22  1  0  0  0
  9 10  1  0  0  0
  9 27  2  0  0  0
 10 11  2  0  0  0
 10 15  1  0  0  0
 11 12  1  0  0  0
 11 94  1  0  0  0
 12 13  2  0  0  0
 12 95  1  0  0  0
 13 14  1  0  0  0
 13 31  1  0  0  0
 14 15  2  0  0  0
 14 96  1  0  0  0
 15 97  1  0  0  0
 16 17  2  0  0  0
 16 21  1  0  0  0
 16 31  1  0  0  0
 17 18  1  0  0  0
 17 98  1  0  0  0
 18 19  2  0  0  0
 18 99  1  0  0  0
 19 20  1  0  0  0
 19 24  1  0  0  0
 20 21  2  0  0  0
 20100  1  0  0  0
 21 23  1  0  0  0
 22 28  1  0  0  0
 22 32  2  0  0  0
 26 27  1  0  0  0
 28101  1  0  0  0
 28102  1  0  0  0
 29103  1  0  0  0
 29104  1  0  0  0
 33 34  1  0  0  0
 33 66  1  0  0  0
 33 70  2  0  0  0
 34 36  1  0  0  0
 34 59  1  0  0  0
 34105  1  0  0  0
 35 44  2  0  0  0
 35 45  1  0  0  0
 35 68  1  0  0  0
 36 56  1  0  0  0
 36106  1  0  0  0
 37 39  1  0  0  0
 37 47  1  0  0  0
 37 66  1  0  0  0
 37107  1  0  0  0
 38 43  2  0  0  0
 38 46  1  0  0  0
 38 47  1  0  0  0
 39 64  1  0  0  0
 39 67  2  0  0  0
 40 52  1  0  0  0
 40 53  2  0  0  0
 40 58  1  0  0  0
 41108  1  0  0  0
 41109  1  0  0  0
 41110  1  0  0  0
 41 48  1  0  0  0
 42 43  1  0  0  0
 42 66  1  0  0  0
 42111  1  0  0  0
 42112  1  0  0  0
 43 44  1  0  0  0
 44113  1  0  0  0
 45 46  2  0  0  0
 45114  1  0  0  0
 46115  1  0  0  0
 47116  1  0  0  0
 47117  1  0  0  0
 48 56  1  0  0  0
 48 65  1  0  0  0
 48118  1  0  0  0
 49 50  1  0  0  0
 49 53  1  0  0  0
 49 64  1  0  0  0
 49119  1  0  0  0
 50 51  1  0  0  0
 50120  1  0  0  0
 50121  1  0  0  0
 51 52  1  0  0  0
 51122  1  0  0  0
 51123  1  0  0  0
 52124  1  0  0  0
 52125  1  0  0  0
 53 54  1  0  0  0
 54 55  2  0  0  0
 54126  1  0  0  0
 55 57  1  0  0  0
 55127  1  0  0  0
 56 69  2  0  0  0
 57 58  2  0  0  0
 57128  1  0  0  0
 58129  1  0  0  0
 59 60  1  0  0  0
 59 61  1  0  0  0
 59 62  1  0  0  0
 60130  1  0  0  0
 60131  1  0  0  0
 60132  1  0  0  0
 61133  1  0  0  0
 61134  1  0  0  0
 61135  1  0  0  0
 62136  1  0  0  0
 62137  1  0  0  0
 62138  1  0  0  0
 63 65  1  0  0  0
 63139  1  0  0  0
 63140  1  0  0  0
 63141  1  0  0  0
 64142  1  0  0  0
 65143  1  0  0  0
 68 84  1  0  0  0
 71 73  2  0  0  0
 71 74  1  0  0  0
 71144  1  0  0  0
 72 73  1  0  0  0
 72 82  2  0  0  0
 72145  1  0  0  0
 73 77  1  0  0  0
 74 75  2  0  0  0
 74 83  1  0  0  0
 75 76  1  0  0  0
 75 82  1  0  0  0
 76146  1  0  0  0
 76147  1  0  0  0
 76148  1  0  0  0
 77 78  1  0  0  0
 77149  1  0  0  0
 77150  1  0  0  0
 78 79  1  0  0  0
 78151  1  0  0  0
 78152  1  0  0  0
 79 80  1  0  0  0
 79153  1  0  0  0
 79154  1  0  0  0
 80 81  1  0  0  0
 80155  1  0  0  0
 80156  1  0  0  0
 81 84  1  0  0  0
 81157  1  0  0  0
 81158  1  0  0  0
 83159  1  0  0  0
 84160  1  0  0  0
M  ISO  4   1 100  68 101  83 100  84 101
M  END
> <chiral flag>
0

> <version>
0

> <s_m_source_file>
/data/baiqing/PycharmProjects/Reinvent-master-3.2/result/LINK_invent/BTK/process_docking_weight1_custom_sum_contain_oxygen_bond_distance_aromatic_linkinvent_7_9_3/rearranged_h_0114.sdf

> <i_m_source_file_index>
34

> <r_mmod_Potential_Energy-OPLS-2005>
-275.90771484375

> <r_mmod_Stretch_Energy-OPLS-2005>
31.3459281921387

> <r_mmod_Bend_Energy-OPLS-2005>
82.4728546142578

> <r_mmod_Torsional_Energy-OPLS-2005>
213.125213623047

> <r_mmod_Improper_Torsional_Energy-OPLS-2005>
2.57920956611633

> <r_mmod_Van_der_Waal_Energy-OPLS-2005>
151.925567626953

> <r_mmod_Electrostatic_Energy-OPLS-2005>
-539.707885742188

> <r_mmod_Solvation_Energy-OPLS-2005>
-224.481719970703

> <b_mmod_Minimization_Converged-OPLS-2005>
0

> <r_mmod_RMS_Derivative-OPLS-2005>
1.36286675930023

$$$$
34
                    3D
 Structure written by MMmdl.
146154  0  0  1  0            999 V2000
  -30.2405  -15.8038   20.3097 C   0  0  0  0  0  0
  -30.4130  -13.2093   19.5300 C   0  0  0  0  0  0
  -29.5534  -12.6891   18.3369 C   0  0  0  0  0  0
  -28.1443  -12.2947   18.7983 C   0  0  0  0  0  0
  -27.5903  -13.3211   19.8084 C   0  0  2  0  0  0
  -28.5987  -13.7289   20.9127 C   0  0  0  0  0  0
  -25.2308  -13.8294   20.5822 C   0  0  0  0  0  0
  -24.1707  -13.0431   20.9315 C   0  0  0  0  0  0
  -24.6420  -11.6947   20.8770 C   0  0  0  0  0  0
  -23.9123  -10.4289   21.0389 C   0  0  0  0  0  0
  -24.3654   -9.4202   21.9172 C   0  0  0  0  0  0
  -23.6313   -8.2245   22.0749 C   0  0  0  0  0  0
  -22.4296   -8.0282   21.3540 C   0  0  0  0  0  0
  -21.9942   -9.0259   20.4642 C   0  0  0  0  0  0
  -22.7286  -10.2131   20.3044 C   0  0  0  0  0  0
  -21.6860   -6.0737   22.5275 C   0  0  0  0  0  0
  -21.4017   -6.5639   23.8209 C   0  0  0  0  0  0
  -21.3661   -5.6792   24.9172 C   0  0  0  0  0  0
  -21.6049   -4.3055   24.7226 C   0  0  0  0  0  0
  -21.8819   -3.8143   23.4348 C   0  0  0  0  0  0
  -21.9195   -4.6961   22.3401 C   0  0  0  0  0  0
  -22.7715  -13.5150   21.1942 C   0  0  0  0  0  0
  -22.1663   -4.2145   21.0981 F   0  0  0  0  0  0
  -21.5632   -3.4539   25.7739 F   0  0  0  0  0  0
  -29.7401  -14.4069   20.2382 N   0  0  0  0  0  0
  -26.2767  -12.9651   20.3256 N   0  0  0  0  0  0
  -25.9371  -11.6710   20.5698 N   0  0  0  0  0  0
  -22.0379  -12.8124   22.0495 N   0  0  0  0  0  0
  -25.3882  -15.2037   20.4255 N   0  0  0  0  0  0
  -31.4834  -15.7054   20.1936 O   0  0  0  0  0  0
  -21.6650   -6.8884   21.4239 O   0  0  0  0  0  0
  -22.3390  -14.5448   20.6776 O   0  0  0  0  0  0
  -24.6970  -31.7846   23.1403 C   0  0  0  0  0  0
  -25.9491  -32.4389   23.7986 C   0  0  1  0  0  0
  -27.2305  -26.5716   20.2116 C   0  0  0  0  0  0
  -25.6014  -33.8217   24.1868 N   0  0  0  0  0  0
  -23.5285  -30.3838   21.4980 C   0  0  2  0  0  0
  -24.9852  -28.7005   20.1211 C   0  0  0  0  0  0
  -22.7824  -29.4249   22.4675 C   0  0  0  0  0  0
  -18.0346  -28.1438   22.8450 C   0  0  0  0  0  0
  -24.1492  -36.7111   23.2658 C   0  0  0  0  0  0
  -26.1160  -30.4755   21.4225 C   0  0  0  0  0  0
  -26.1805  -29.0269   20.7718 C   0  0  0  0  0  0
  -27.2809  -27.9960   20.7798 C   0  0  0  0  0  0
  -25.9893  -26.4880   19.5166 C   0  0  0  0  0  0
  -24.9369  -27.4567   19.4705 C   0  0  0  0  0  0
  -23.7884  -29.6717   20.1384 C   0  0  0  0  0  0
  -25.4151  -36.2842   24.0270 C   0  0  1  0  0  0
  -20.5990  -28.3797   23.1113 C   0  0  2  0  0  0
  -20.6813  -26.9446   22.5397 C   0  0  0  0  0  0
  -19.5788  -26.6375   21.5215 C   0  0  0  0  0  0
  -18.1969  -26.7963   22.1616 C   0  0  0  0  0  0
  -19.1619  -28.8943   23.2758 C   0  0  0  0  0  0
  -18.9523  -30.1525   23.8806 C   0  0  0  0  0  0
  -17.6516  -30.6619   24.0555 C   0  0  0  0  0  0
  -25.9137  -34.9239   23.4913 C   0  0  0  0  0  0
  -16.5402  -29.9103   23.6365 C   0  0  0  0  0  0
  -16.7324  -28.6528   23.0373 C   0  0  0  0  0  0
  -26.4616  -31.6477   25.0666 C   0  0  0  0  0  0
  -25.3638  -31.3858   26.1255 C   0  0  0  0  0  0
  -27.0566  -30.2800   24.6663 C   0  0  0  0  0  0
  -27.6044  -32.4367   25.7491 C   0  0  0  0  0  0
  -27.5547  -37.1720   24.8474 C   0  0  0  0  0  0
  -21.4458  -29.3025   22.3427 N   0  0  0  0  0  0
  -26.4262  -37.3618   23.9401 N   0  0  0  0  0  0
  -24.8059  -30.9166   22.0726 N   0  0  0  0  0  0
  -23.4208  -28.7866   23.3074 O   0  0  0  0  0  0
  -28.1749  -25.2887   20.2889 O   0  0  0  0  0  0
  -26.5794  -34.8851   22.4540 O   0  0  0  0  0  0
  -23.5961  -32.0975   23.6281 O   0  0  0  0  0  0
  -31.2507  -20.8402   20.5506 C   0  0  0  0  0  0
  -30.3620  -21.9570   20.4561 C   0  0  0  0  0  0
  -30.8949  -19.4542   20.4893 C   0  0  0  0  0  0
  -28.9701  -21.8316   20.2816 C   0  0  0  0  0  0
  -29.5780  -18.9746   20.3229 C   0  0  0  0  0  0
  -27.7805  -23.4626   18.5102 C   0  0  0  0  0  0
  -28.0125  -23.4857   20.0266 C   0  0  2  0  0  0
  -28.6860  -20.2777   20.2218 N   0  0  0  0  0  0
  -29.4656  -17.2062   20.3106 N   0  0  0  0  0  0
  -31.3866  -13.5029   19.1360 H   0  0  0  0  0  0
  -30.6283  -12.4023   20.2326 H   0  0  0  0  0  0
  -30.0422  -11.8417   17.8544 H   0  0  0  0  0  0
  -29.4805  -13.4715   17.5799 H   0  0  0  0  0  0
  -28.2122  -11.3179   19.2792 H   0  0  0  0  0  0
  -27.4729  -12.1760   17.9471 H   0  0  0  0  0  0
  -27.4283  -14.2156   19.2051 H   0  0  0  0  0  0
  -28.9038  -12.8751   21.5196 H   0  0  0  0  0  0
  -28.1327  -14.4382   21.5978 H   0  0  0  0  0  0
  -25.2793   -9.5677   22.4762 H   0  0  0  0  0  0
  -24.0010   -7.4637   22.7474 H   0  0  0  0  0  0
  -21.0870   -8.8787   19.8953 H   0  0  0  0  0  0
  -22.3736  -10.9671   19.6159 H   0  0  0  0  0  0
  -21.2003   -7.6146   23.9713 H   0  0  0  0  0  0
  -21.1485   -6.0521   25.9077 H   0  0  0  0  0  0
  -22.0595   -2.7603   23.2851 H   0  0  0  0  0  0
  -22.4022  -11.9803   22.4891 H   0  0  0  0  0  0
  -21.0978  -13.1109   22.2683 H   0  0  0  0  0  0
  -24.6142  -15.8504   20.5349 H   0  0  0  0  0  0
  -26.2256  -15.6443   20.0699 H   0  0  0  0  0  0
  -26.7581  -32.4821   23.0700 H   0  0  0  0  0  0
  -25.0069  -33.9224   24.9964 H   0  0  0  0  0  0
  -22.8622  -31.2251   21.2973 H   0  0  0  0  0  0
  -23.3761  -35.9432   23.3286 H   0  0  0  0  0  0
  -24.3553  -36.8810   22.2077 H   0  0  0  0  0  0
  -23.7258  -37.6280   23.6767 H   0  0  0  0  0  0
  -26.3320  -31.1926   20.6294 H   0  0  0  0  0  0
  -26.9626  -30.5469   22.0925 H   0  0  0  0  0  0
  -28.1762  -28.2589   21.3250 H   0  0  0  0  0  0
  -25.7573  -25.5556   19.0290 H   0  0  0  0  0  0
  -24.0336  -27.1892   18.9387 H   0  0  0  0  0  0
  -23.9752  -30.4260   19.3731 H   0  0  0  0  0  0
  -22.8894  -29.1460   19.8109 H   0  0  0  0  0  0
  -25.1377  -36.1568   25.0761 H   0  0  0  0  0  0
  -21.0064  -28.3417   24.1245 H   0  0  0  0  0  0
  -20.5665  -26.2424   23.3667 H   0  0  0  0  0  0
  -21.6677  -26.7382   22.1224 H   0  0  0  0  0  0
  -19.6953  -25.6265   21.1297 H   0  0  0  0  0  0
  -19.6739  -27.3146   20.6713 H   0  0  0  0  0  0
  -17.4243  -26.6691   21.4016 H   0  0  0  0  0  0
  -18.0356  -26.0131   22.9035 H   0  0  0  0  0  0
  -19.8004  -30.7362   24.2127 H   0  0  0  0  0  0
  -17.5077  -31.6288   24.5178 H   0  0  0  0  0  0
  -15.5406  -30.2986   23.7753 H   0  0  0  0  0  0
  -15.8717  -28.0830   22.7137 H   0  0  0  0  0  0
  -24.5849  -30.7184   25.7549 H   0  0  0  0  0  0
  -24.8798  -32.3100   26.4417 H   0  0  0  0  0  0
  -25.7765  -30.9186   27.0204 H   0  0  0  0  0  0
  -26.3311  -29.6374   24.1667 H   0  0  0  0  0  0
  -27.3954  -29.7305   25.5453 H   0  0  0  0  0  0
  -27.9301  -30.3897   24.0239 H   0  0  0  0  0  0
  -27.2572  -33.3757   26.1817 H   0  0  0  0  0  0
  -28.3976  -32.6785   25.0406 H   0  0  0  0  0  0
  -28.0572  -31.8662   26.5606 H   0  0  0  0  0  0
  -28.2561  -38.0016   24.7480 H   0  0  0  0  0  0
  -28.1045  -36.2535   24.6356 H   0  0  0  0  0  0
  -27.2256  -37.1424   25.8877 H   0  0  0  0  0  0
  -20.9786  -29.8666   21.6467 H   0  0  0  0  0  0
  -26.0066  -38.2657   24.1409 H   0  0  0  0  0  0
  -32.3008  -21.0644   20.6718 H   0  0  0  0  0  0
  -30.7800  -22.9544   20.4936 H   0  0  0  0  0  0
  -31.6923  -18.7286   20.5775 H   0  0  0  0  0  0
  -27.3306  -22.5180   18.2043 H   0  0  0  0  0  0
  -28.7303  -23.5563   17.9845 H   0  0  0  0  0  0
  -27.1363  -24.2598   18.1564 H   0  0  0  0  0  0
  -27.0562  -23.2737   20.5045 H   0  0  0  0  0  0
  -28.4879  -16.9599   20.3016 H   0  0  0  0  0  0
  1 25  1  0  0  0
  1 30  2  0  0  0
  1 79  1  0  0  0
  2  3  1  0  0  0
  2 25  1  0  0  0
  2 80  1  0  0  0
  2 81  1  0  0  0
  3  4  1  0  0  0
  3 82  1  0  0  0
  3 83  1  0  0  0
  4  5  1  0  0  0
  4 84  1  0  0  0
  4 85  1  0  0  0
  5  6  1  0  0  0
  5 26  1  0  0  0
  5 86  1  0  0  0
  6 25  1  0  0  0
  6 87  1  0  0  0
  6 88  1  0  0  0
  7  8  2  0  0  0
  7 26  1  0  0  0
  7 29  1  0  0  0
  8  9  1  0  0  0
  8 22  1  0  0  0
  9 10  1  0  0  0
  9 27  2  0  0  0
 10 11  2  0  0  0
 10 15  1  0  0  0
 11 12  1  0  0  0
 11 89  1  0  0  0
 12 13  2  0  0  0
 12 90  1  0  0  0
 13 14  1  0  0  0
 13 31  1  0  0  0
 14 15  2  0  0  0
 14 91  1  0  0  0
 15 92  1  0  0  0
 16 17  2  0  0  0
 16 21  1  0  0  0
 16 31  1  0  0  0
 17 18  1  0  0  0
 17 93  1  0  0  0
 18 19  2  0  0  0
 18 94  1  0  0  0
 19 20  1  0  0  0
 19 24  1  0  0  0
 20 21  2  0  0  0
 20 95  1  0  0  0
 21 23  1  0  0  0
 22 28  1  0  0  0
 22 32  2  0  0  0
 26 27  1  0  0  0
 28 96  1  0  0  0
 28 97  1  0  0  0
 29 98  1  0  0  0
 29 99  1  0  0  0
 33 34  1  0  0  0
 33 66  1  0  0  0
 33 70  2  0  0  0
 34 36  1  0  0  0
 34 59  1  0  0  0
 34100  1  0  0  0
 35 44  2  0  0  0
 35 45  1  0  0  0
 35 68  1  0  0  0
 36 56  1  0  0  0
 36101  1  0  0  0
 37 39  1  0  0  0
 37 47  1  0  0  0
 37 66  1  0  0  0
 37102  1  0  0  0
 38 43  2  0  0  0
 38 46  1  0  0  0
 38 47  1  0  0  0
 39 64  1  0  0  0
 39 67  2  0  0  0
 40 52  1  0  0  0
 40 53  2  0  0  0
 40 58  1  0  0  0
 41103  1  0  0  0
 41104  1  0  0  0
 41105  1  0  0  0
 41 48  1  0  0  0
 42 43  1  0  0  0
 42 66  1  0  0  0
 42106  1  0  0  0
 42107  1  0  0  0
 43 44  1  0  0  0
 44108  1  0  0  0
 45 46  2  0  0  0
 45109  1  0  0  0
 46110  1  0  0  0
 47111  1  0  0  0
 47112  1  0  0  0
 48 56  1  0  0  0
 48 65  1  0  0  0
 48113  1  0  0  0
 49 50  1  0  0  0
 49 53  1  0  0  0
 49 64  1  0  0  0
 49114  1  0  0  0
 50 51  1  0  0  0
 50115  1  0  0  0
 50116  1  0  0  0
 51 52  1  0  0  0
 51117  1  0  0  0
 51118  1  0  0  0
 52119  1  0  0  0
 52120  1  0  0  0
 53 54  1  0  0  0
 54 55  2  0  0  0
 54121  1  0  0  0
 55 57  1  0  0  0
 55122  1  0  0  0
 56 69  2  0  0  0
 57 58  2  0  0  0
 57123  1  0  0  0
 58124  1  0  0  0
 59 60  1  0  0  0
 59 61  1  0  0  0
 59 62  1  0  0  0
 60125  1  0  0  0
 60126  1  0  0  0
 60127  1  0  0  0
 61128  1  0  0  0
 61129  1  0  0  0
 61130  1  0  0  0
 62131  1  0  0  0
 62132  1  0  0  0
 62133  1  0  0  0
 63 65  1  0  0  0
 63134  1  0  0  0
 63135  1  0  0  0
 63136  1  0  0  0
 64137  1  0  0  0
 65138  1  0  0  0
 68 77  1  0  0  0
 71 72  2  0  0  0
 71 73  1  0  0  0
 71139  1  0  0  0
 72 74  1  0  0  0
 72140  1  0  0  0
 73 75  2  0  0  0
 73141  1  0  0  0
 74 77  1  0  0  0
 74 78  2  0  0  0
 75 78  1  0  0  0
 75 79  1  0  0  0
 76142  1  0  0  0
 76143  1  0  0  0
 76144  1  0  0  0
 76 77  1  0  0  0
 77145  1  0  0  0
 79146  1  0  0  0
M  ISO  4   1 100  68 101  77 101  79 100
M  END
> <chiral flag>
0

> <version>
0

> <s_m_source_file>
/data/baiqing/PycharmProjects/Reinvent-master-3.2/result/LINK_invent/BTK/process_docking_weight1_custom_sum_contain_oxygen_bond_distance_aromatic_linkinvent_7_9_3/rearranged_h_0114.sdf

> <i_m_source_file_index>
35

> <r_mmod_Potential_Energy-OPLS-2005>
2807.23559570312

> <r_mmod_Stretch_Energy-OPLS-2005>
1332.416015625

> <r_mmod_Bend_Energy-OPLS-2005>
691.195861816406

> <r_mmod_Torsional_Energy-OPLS-2005>
212.166534423828

> <r_mmod_Improper_Torsional_Energy-OPLS-2005>
4.98434448242188

> <r_mmod_Van_der_Waal_Energy-OPLS-2005>
126.620864868164

> <r_mmod_Electrostatic_Energy-OPLS-2005>
-510.328308105469

> <r_mmod_Solvation_Energy-OPLS-2005>
-230.601196289062

> <b_mmod_Minimization_Converged-OPLS-2005>
0

> <r_mmod_RMS_Derivative-OPLS-2005>
1.1350245475769

$$$$
35
                    3D
 Structure written by MMmdl.
159167  0  0  1  0            999 V2000
  -30.6155  -14.7735   20.4343 C   0  0  0  0  0  0
  -30.4241  -12.4708   19.4756 C   0  0  0  0  0  0
  -29.5107  -12.5030   18.2322 C   0  0  0  0  0  0
  -28.0346  -12.3327   18.6407 C   0  0  0  0  0  0
  -27.6328  -13.2370   19.8373 C   0  0  2  0  0  0
  -28.6760  -13.2143   20.9700 C   0  0  0  0  0  0
  -25.2528  -13.8171   20.5703 C   0  0  0  0  0  0
  -24.1795  -13.0434   20.9174 C   0  0  0  0  0  0
  -24.6382  -11.6896   20.8746 C   0  0  0  0  0  0
  -23.9093  -10.4249   21.0478 C   0  0  0  0  0  0
  -24.3627   -9.4149   21.9240 C   0  0  0  0  0  0
  -23.6289   -8.2186   22.0798 C   0  0  0  0  0  0
  -22.4278   -8.0251   21.3567 C   0  0  0  0  0  0
  -21.9928   -9.0229   20.4664 C   0  0  0  0  0  0
  -22.7291  -10.2098   20.3112 C   0  0  0  0  0  0
  -21.6836   -6.0735   22.5281 C   0  0  0  0  0  0
  -21.4030   -6.5637   23.8219 C   0  0  0  0  0  0
  -21.3682   -5.6784   24.9162 C   0  0  0  0  0  0
  -21.6064   -4.3060   24.7213 C   0  0  0  0  0  0
  -21.8824   -3.8148   23.4327 C   0  0  0  0  0  0
  -21.9181   -4.6965   22.3378 C   0  0  0  0  0  0
  -22.7817  -13.5283   21.1799 C   0  0  0  0  0  0
  -22.1609   -4.2147   21.0950 F   0  0  0  0  0  0
  -21.5658   -3.4541   25.7728 F   0  0  0  0  0  0
  -29.9651  -13.5595   20.3679 N   0  0  0  0  0  0
  -26.2902  -12.9380   20.3199 N   0  0  0  0  0  0
  -25.9309  -11.6496   20.5646 N   0  0  0  0  0  0
  -22.0401  -12.8318   22.0314 N   0  0  0  0  0  0
  -25.4321  -15.1882   20.4196 N   0  0  0  0  0  0
  -31.8384  -14.7996   20.2667 O   0  0  0  0  0  0
  -21.6608   -6.8879   21.4260 O   0  0  0  0  0  0
  -22.3535  -14.5629   20.6724 O   0  0  0  0  0  0
  -24.6330  -31.8541   23.1952 C   0  0  0  0  0  0
  -25.9153  -32.4743   23.8305 C   0  0  1  0  0  0
  -27.2063  -27.2468   20.1519 C   0  0  0  0  0  0
  -25.5944  -33.8543   24.2234 N   0  0  0  0  0  0
  -23.4273  -30.4761   21.5394 C   0  0  2  0  0  0
  -24.8717  -28.9134   20.1146 C   0  0  0  0  0  0
  -22.7501  -29.4600   22.4909 C   0  0  0  0  0  0
  -18.0293  -28.1391   22.8489 C   0  0  0  0  0  0
  -24.1487  -36.7272   23.2645 C   0  0  0  0  0  0
  -25.9728  -30.7650   21.3736 C   0  0  0  0  0  0
  -26.0448  -29.3848   20.7191 C   0  0  0  0  0  0
  -27.2193  -28.5662   20.7192 C   0  0  0  0  0  0
  -26.0148  -26.8327   19.5263 C   0  0  0  0  0  0
  -24.8639  -27.6473   19.5032 C   0  0  0  0  0  0
  -23.6439  -29.8046   20.1580 C   0  0  0  0  0  0
  -25.4121  -36.3053   24.0314 C   0  0  1  0  0  0
  -20.5898  -28.3694   23.1277 C   0  0  2  0  0  0
  -20.6778  -26.9415   22.5408 C   0  0  0  0  0  0
  -19.5760  -26.6381   21.5212 C   0  0  0  0  0  0
  -18.1939  -26.7930   22.1625 C   0  0  0  0  0  0
  -19.1545  -28.8864   23.2878 C   0  0  0  0  0  0
  -18.9471  -30.1472   23.8887 C   0  0  0  0  0  0
  -17.6467  -30.6590   24.0572 C   0  0  0  0  0  0
  -25.9069  -34.9428   23.5078 C   0  0  0  0  0  0
  -16.5358  -29.9085   23.6341 C   0  0  0  0  0  0
  -16.7279  -28.6504   23.0356 C   0  0  0  0  0  0
  -26.4512  -31.6586   25.0714 C   0  0  0  0  0  0
  -25.3720  -31.3762   26.1429 C   0  0  0  0  0  0
  -27.0376  -30.2997   24.6220 C   0  0  0  0  0  0
  -27.6044  -32.4340   25.7512 C   0  0  0  0  0  0
  -27.5564  -37.1794   24.8459 C   0  0  0  0  0  0
  -21.4207  -29.3036   22.3652 N   0  0  0  0  0  0
  -26.4282  -37.3749   23.9400 N   0  0  0  0  0  0
  -24.6964  -31.0491   22.0927 N   0  0  0  0  0  0
  -23.4218  -28.8159   23.3004 O   0  0  0  0  0  0
  -28.3057  -26.3649   20.1333 O   0  0  0  0  0  0
  -26.5635  -34.8916   22.4643 O   0  0  0  0  0  0
  -23.5471  -32.1376   23.7225 O   0  0  0  0  0  0
  -29.3186  -18.4258   20.2759 C   0  0  0  0  0  0
  -28.0148  -17.8334   22.5466 C   0  0  0  0  0  0
  -27.8109  -19.1343   22.0137 C   0  0  0  0  0  0
  -28.5845  -19.5345   20.8768 C   0  0  0  0  0  0
  -29.3667  -17.0720   20.8203 C   0  0  0  0  0  0
  -26.3305  -19.7135   24.0662 C   0  0  0  0  0  0
  -25.3681  -19.6170   21.7267 C   0  0  0  0  0  0
  -28.2652  -23.5620   20.0359 C   0  0  0  0  0  0
  -28.2302  -25.0099   20.7918 C   0  0  0  0  0  0
  -28.6260  -22.1906   20.8598 C   0  0  0  0  0  0
  -26.6176  -19.9337   22.5619 C   0  0  0  0  0  0
  -28.7589  -16.8545   21.9942 N   0  0  0  0  0  0
  -29.9190  -15.9233   20.0742 N   0  0  0  0  0  0
  -28.4935  -20.8226   20.2265 O   0  0  0  0  0  0
  -31.4669  -12.5945   19.1737 H   0  0  0  0  0  0
  -30.3641  -11.5075   19.9808 H   0  0  0  0  0  0
  -29.8004  -11.7235   17.5261 H   0  0  0  0  0  0
  -29.6415  -13.4534   17.7084 H   0  0  0  0  0  0
  -27.8785  -11.2859   18.8991 H   0  0  0  0  0  0
  -27.3883  -12.5264   17.7863 H   0  0  0  0  0  0
  -27.6160  -14.2515   19.4403 H   0  0  0  0  0  0
  -28.7163  -12.2351   21.4443 H   0  0  0  0  0  0
  -28.4125  -13.9318   21.7486 H   0  0  0  0  0  0
  -25.2780   -9.5545   22.4844 H   0  0  0  0  0  0
  -23.9964   -7.4573   22.7546 H   0  0  0  0  0  0
  -21.0872   -8.8757   19.8974 H   0  0  0  0  0  0
  -22.3850  -10.9643   19.6196 H   0  0  0  0  0  0
  -21.2055   -7.6147   23.9704 H   0  0  0  0  0  0
  -21.1522   -6.0527   25.9058 H   0  0  0  0  0  0
  -22.0641   -2.7612   23.2829 H   0  0  0  0  0  0
  -22.3844  -11.9900   22.4681 H   0  0  0  0  0  0
  -21.1013  -13.1439   22.2356 H   0  0  0  0  0  0
  -24.6954  -15.8664   20.5781 H   0  0  0  0  0  0
  -26.3111  -15.6103   20.1494 H   0  0  0  0  0  0
  -26.7232  -32.5387   23.1058 H   0  0  0  0  0  0
  -25.0073  -33.9680   25.0366 H   0  0  0  0  0  0
  -22.7240  -31.2996   21.3927 H   0  0  0  0  0  0
  -23.3735  -35.9620   23.3314 H   0  0  0  0  0  0
  -24.3564  -36.8885   22.2057 H   0  0  0  0  0  0
  -23.7266  -37.6479   23.6671 H   0  0  0  0  0  0
  -26.1105  -31.5245   20.6027 H   0  0  0  0  0  0
  -26.8506  -30.8153   22.0059 H   0  0  0  0  0  0
  -28.1234  -28.9287   21.1874 H   0  0  0  0  0  0
  -25.9720  -25.8584   19.0581 H   0  0  0  0  0  0
  -23.9650  -27.2808   19.0277 H   0  0  0  0  0  0
  -23.7698  -30.5773   19.3998 H   0  0  0  0  0  0
  -22.7607  -29.2405   19.8544 H   0  0  0  0  0  0
  -25.1315  -36.1880   25.0800 H   0  0  0  0  0  0
  -21.0003  -28.3258   24.1396 H   0  0  0  0  0  0
  -20.5667  -26.2317   23.3620 H   0  0  0  0  0  0
  -21.6655  -26.7438   22.1219 H   0  0  0  0  0  0
  -19.6936  -25.6285   21.1260 H   0  0  0  0  0  0
  -19.6692  -27.3185   20.6738 H   0  0  0  0  0  0
  -17.4209  -26.6685   21.4016 H   0  0  0  0  0  0
  -18.0338  -26.0060   22.9012 H   0  0  0  0  0  0
  -19.7944  -30.7301   24.2231 H   0  0  0  0  0  0
  -17.5021  -31.6275   24.5177 H   0  0  0  0  0  0
  -15.5357  -30.3001   23.7666 H   0  0  0  0  0  0
  -15.8678  -28.0840   22.7070 H   0  0  0  0  0  0
  -24.5909  -30.7092   25.7762 H   0  0  0  0  0  0
  -24.8920  -32.2952   26.4791 H   0  0  0  0  0  0
  -25.8037  -30.8993   27.0237 H   0  0  0  0  0  0
  -26.2983  -29.6726   24.1228 H   0  0  0  0  0  0
  -27.4027  -29.7281   25.4759 H   0  0  0  0  0  0
  -27.8862  -30.4256   23.9498 H   0  0  0  0  0  0
  -27.2619  -33.3633   26.2069 H   0  0  0  0  0  0
  -28.3882  -32.6897   25.0375 H   0  0  0  0  0  0
  -28.0683  -31.8488   26.5455 H   0  0  0  0  0  0
  -28.2585  -38.0082   24.7481 H   0  0  0  0  0  0
  -28.1053  -36.2607   24.6323 H   0  0  0  0  0  0
  -27.2274  -37.1493   25.8858 H   0  0  0  0  0  0
  -20.9401  -29.8730   21.6834 H   0  0  0  0  0  0
  -26.0147  -38.2810   24.1408 H   0  0  0  0  0  0
  -29.8210  -18.6246   19.3420 H   0  0  0  0  0  0
  -27.4710  -17.4864   23.4070 H   0  0  0  0  0  0
  -27.2202  -19.8783   24.6716 H   0  0  0  0  0  0
  -25.9588  -18.7115   24.2863 H   0  0  0  0  0  0
  -25.5662  -20.4076   24.4235 H   0  0  0  0  0  0
  -25.5435  -19.8289   20.6730 H   0  0  0  0  0  0
  -24.5173  -20.2244   22.0343 H   0  0  0  0  0  0
  -25.0883  -18.5644   21.8090 H   0  0  0  0  0  0
  -28.9699  -23.6391   19.2086 H   0  0  0  0  0  0
  -27.2932  -23.4271   19.5618 H   0  0  0  0  0  0
  -29.1104  -25.0114   21.4363 H   0  0  0  0  0  0
  -27.3923  -25.0129   21.4898 H   0  0  0  0  0  0
  -28.0946  -22.2681   21.7946 H   0  0  0  0  0  0
  -29.6683  -22.2703   21.1669 H   0  0  0  0  0  0
  -26.7829  -20.9908   22.4639 H   0  0  0  0  0  0
  -30.2900  -16.2441   19.1929 H   0  0  0  0  0  0
  1 25  1  0  0  0
  1 30  2  0  0  0
  1 83  1  0  0  0
  2  3  1  0  0  0
  2 25  1  0  0  0
  2 85  1  0  0  0
  2 86  1  0  0  0
  3  4  1  0  0  0
  3 87  1  0  0  0
  3 88  1  0  0  0
  4  5  1  0  0  0
  4 89  1  0  0  0
  4 90  1  0  0  0
  5  6  1  0  0  0
  5 26  1  0  0  0
  5 91  1  0  0  0
  6 25  1  0  0  0
  6 92  1  0  0  0
  6 93  1  0  0  0
  7  8  2  0  0  0
  7 26  1  0  0  0
  7 29  1  0  0  0
  8  9  1  0  0  0
  8 22  1  0  0  0
  9 10  1  0  0  0
  9 27  2  0  0  0
 10 11  2  0  0  0
 10 15  1  0  0  0
 11 12  1  0  0  0
 11 94  1  0  0  0
 12 13  2  0  0  0
 12 95  1  0  0  0
 13 14  1  0  0  0
 13 31  1  0  0  0
 14 15  2  0  0  0
 14 96  1  0  0  0
 15 97  1  0  0  0
 16 17  2  0  0  0
 16 21  1  0  0  0
 16 31  1  0  0  0
 17 18  1  0  0  0
 17 98  1  0  0  0
 18 19  2  0  0  0
 18 99  1  0  0  0
 19 20  1  0  0  0
 19 24  1  0  0  0
 20 21  2  0  0  0
 20100  1  0  0  0
 21 23  1  0  0  0
 22 28  1  0  0  0
 22 32  2  0  0  0
 26 27  1  0  0  0
 28101  1  0  0  0
 28102  1  0  0  0
 29103  1  0  0  0
 29104  1  0  0  0
 33 34  1  0  0  0
 33 66  1  0  0  0
 33 70  2  0  0  0
 34 36  1  0  0  0
 34 59  1  0  0  0
 34105  1  0  0  0
 35 44  2  0  0  0
 35 45  1  0  0  0
 35 68  1  0  0  0
 36 56  1  0  0  0
 36106  1  0  0  0
 37 39  1  0  0  0
 37 47  1  0  0  0
 37 66  1  0  0  0
 37107  1  0  0  0
 38 43  2  0  0  0
 38 46  1  0  0  0
 38 47  1  0  0  0
 39 64  1  0  0  0
 39 67  2  0  0  0
 40 52  1  0  0  0
 40 53  2  0  0  0
 40 58  1  0  0  0
 41108  1  0  0  0
 41109  1  0  0  0
 41110  1  0  0  0
 41 48  1  0  0  0
 42 43  1  0  0  0
 42 66  1  0  0  0
 42111  1  0  0  0
 42112  1  0  0  0
 43 44  1  0  0  0
 44113  1  0  0  0
 45 46  2  0  0  0
 45114  1  0  0  0
 46115  1  0  0  0
 47116  1  0  0  0
 47117  1  0  0  0
 48 56  1  0  0  0
 48 65  1  0  0  0
 48118  1  0  0  0
 49 50  1  0  0  0
 49 53  1  0  0  0
 49 64  1  0  0  0
 49119  1  0  0  0
 50 51  1  0  0  0
 50120  1  0  0  0
 50121  1  0  0  0
 51 52  1  0  0  0
 51122  1  0  0  0
 51123  1  0  0  0
 52124  1  0  0  0
 52125  1  0  0  0
 53 54  1  0  0  0
 54 55  2  0  0  0
 54126  1  0  0  0
 55 57  1  0  0  0
 55127  1  0  0  0
 56 69  2  0  0  0
 57 58  2  0  0  0
 57128  1  0  0  0
 58129  1  0  0  0
 59 60  1  0  0  0
 59 61  1  0  0  0
 59 62  1  0  0  0
 60130  1  0  0  0
 60131  1  0  0  0
 60132  1  0  0  0
 61133  1  0  0  0
 61134  1  0  0  0
 61135  1  0  0  0
 62136  1  0  0  0
 62137  1  0  0  0
 62138  1  0  0  0
 63 65  1  0  0  0
 63139  1  0  0  0
 63140  1  0  0  0
 63141  1  0  0  0
 64142  1  0  0  0
 65143  1  0  0  0
 68 79  1  0  0  0
 71 74  2  0  0  0
 71 75  1  0  0  0
 71144  1  0  0  0
 72 73  2  0  0  0
 72 82  1  0  0  0
 72145  1  0  0  0
 73 74  1  0  0  0
 73 81  1  0  0  0
 74 84  1  0  0  0
 75 82  2  0  0  0
 75 83  1  0  0  0
 76146  1  0  0  0
 76147  1  0  0  0
 76148  1  0  0  0
 76 81  1  0  0  0
 77 81  1  0  0  0
 77149  1  0  0  0
 77150  1  0  0  0
 77151  1  0  0  0
 78 79  1  0  0  0
 78 80  1  0  0  0
 78152  1  0  0  0
 78153  1  0  0  0
 79154  1  0  0  0
 79155  1  0  0  0
 80 84  1  0  0  0
 80156  1  0  0  0
 80157  1  0  0  0
 81158  1  0  0  0
 83159  1  0  0  0
M  ISO  4   1 100  68 101  79 101  83 100
M  END
> <chiral flag>
0

> <version>
0

> <s_m_source_file>
/data/baiqing/PycharmProjects/Reinvent-master-3.2/result/LINK_invent/BTK/process_docking_weight1_custom_sum_contain_oxygen_bond_distance_aromatic_linkinvent_7_9_3/rearranged_h_0114.sdf

> <i_m_source_file_index>
36

> <r_mmod_Potential_Energy-OPLS-2005>
209.42366027832

> <r_mmod_Stretch_Energy-OPLS-2005>
141.231018066406

> <r_mmod_Bend_Energy-OPLS-2005>
221.918472290039

> <r_mmod_Torsional_Energy-OPLS-2005>
314.122314453125

> <r_mmod_Improper_Torsional_Energy-OPLS-2005>
27.3632431030273

> <r_mmod_Van_der_Waal_Energy-OPLS-2005>
133.296951293945

> <r_mmod_Electrostatic_Energy-OPLS-2005>
-523.119445800781

> <r_mmod_Solvation_Energy-OPLS-2005>
-204.951461791992

> <b_mmod_Minimization_Converged-OPLS-2005>
0

> <r_mmod_RMS_Derivative-OPLS-2005>
4.77301073074341

$$$$
36
                    3D
 Structure written by MMmdl.
170178  0  0  1  0            999 V2000
  -30.7251  -14.4530   20.5364 C   0  0  0  0  0  0
  -30.4103  -12.2826   19.4388 C   0  0  0  0  0  0
  -29.5017  -12.5026   18.2114 C   0  0  0  0  0  0
  -28.0182  -12.3790   18.6098 C   0  0  0  0  0  0
  -27.6614  -13.2139   19.8706 C   0  0  2  0  0  0
  -28.7012  -13.0151   20.9988 C   0  0  0  0  0  0
  -25.2587  -13.8172   20.5665 C   0  0  0  0  0  0
  -24.1840  -13.0446   20.9153 C   0  0  0  0  0  0
  -24.6402  -11.6913   20.8725 C   0  0  0  0  0  0
  -23.9060  -10.4299   21.0404 C   0  0  0  0  0  0
  -24.3617   -9.4210   21.9173 C   0  0  0  0  0  0
  -23.6295   -8.2248   22.0747 C   0  0  0  0  0  0
  -22.4277   -8.0289   21.3534 C   0  0  0  0  0  0
  -21.9911   -9.0259   20.4634 C   0  0  0  0  0  0
  -22.7241  -10.2133   20.3047 C   0  0  0  0  0  0
  -21.6854   -6.0732   22.5276 C   0  0  0  0  0  0
  -21.4017   -6.5632   23.8206 C   0  0  0  0  0  0
  -21.3663   -5.6781   24.9161 C   0  0  0  0  0  0
  -21.6046   -4.3044   24.7210 C   0  0  0  0  0  0
  -21.8817   -3.8140   23.4330 C   0  0  0  0  0  0
  -21.9187   -4.6961   22.3392 C   0  0  0  0  0  0
  -22.7861  -13.5250   21.1792 C   0  0  0  0  0  0
  -22.1659   -4.2146   21.0970 F   0  0  0  0  0  0
  -21.5627   -3.4527   25.7723 F   0  0  0  0  0  0
  -30.0347  -13.2863   20.4438 N   0  0  0  0  0  0
  -26.3024  -12.9355   20.3322 N   0  0  0  0  0  0
  -25.9325  -11.6503   20.5700 N   0  0  0  0  0  0
  -22.0490  -12.8273   22.0368 N   0  0  0  0  0  0
  -25.4338  -15.1893   20.4107 N   0  0  0  0  0  0
  -31.8799  -14.5747   20.1212 O   0  0  0  0  0  0
  -21.6640   -6.8883   21.4242 O   0  0  0  0  0  0
  -22.3550  -14.5545   20.6621 O   0  0  0  0  0  0
  -24.6132  -31.8717   23.2124 C   0  0  0  0  0  0
  -25.9041  -32.4826   23.8409 C   0  0  1  0  0  0
  -27.2169  -27.4332   20.0942 C   0  0  0  0  0  0
  -25.5921  -33.8622   24.2350 N   0  0  0  0  0  0
  -23.4004  -30.4986   21.5528 C   0  0  2  0  0  0
  -24.8457  -28.9761   20.1063 C   0  0  0  0  0  0
  -22.7411  -29.4676   22.4967 C   0  0  0  0  0  0
  -18.0294  -28.1378   22.8506 C   0  0  0  0  0  0
  -24.1486  -36.7294   23.2637 C   0  0  0  0  0  0
  -25.9315  -30.8307   21.3739 C   0  0  0  0  0  0
  -26.0042  -29.4692   20.7186 C   0  0  0  0  0  0
  -27.1931  -28.7000   20.7225 C   0  0  0  0  0  0
  -26.0537  -26.9874   19.4281 C   0  0  0  0  0  0
  -24.8636  -27.7323   19.4589 C   0  0  0  0  0  0
  -23.6059  -29.8402   20.1641 C   0  0  0  0  0  0
  -25.4104  -36.3110   24.0343 C   0  0  1  0  0  0
  -20.5884  -28.3662   23.1314 C   0  0  2  0  0  0
  -20.6775  -26.9394   22.5408 C   0  0  0  0  0  0
  -19.5736  -26.6389   21.5221 C   0  0  0  0  0  0
  -18.1930  -26.7931   22.1638 C   0  0  0  0  0  0
  -19.1548  -28.8837   23.2910 C   0  0  0  0  0  0
  -18.9461  -30.1465   23.8891 C   0  0  0  0  0  0
  -17.6459  -30.6579   24.0578 C   0  0  0  0  0  0
  -25.9034  -34.9475   23.5134 C   0  0  0  0  0  0
  -16.5356  -29.9077   23.6349 C   0  0  0  0  0  0
  -16.7282  -28.6504   23.0350 C   0  0  0  0  0  0
  -26.4471  -31.6596   25.0725 C   0  0  0  0  0  0
  -25.3733  -31.3721   26.1474 C   0  0  0  0  0  0
  -27.0307  -30.3032   24.6107 C   0  0  0  0  0  0
  -27.6058  -32.4313   25.7481 C   0  0  0  0  0  0
  -27.5583  -37.1808   24.8473 C   0  0  0  0  0  0
  -21.4139  -29.3032   22.3709 N   0  0  0  0  0  0
  -26.4290  -37.3790   23.9421 N   0  0  0  0  0  0
  -24.6658  -31.0826   22.1036 N   0  0  0  0  0  0
  -23.4195  -28.8208   23.2993 O   0  0  0  0  0  0
  -28.3524  -26.6419   20.1245 O   0  0  0  0  0  0
  -26.5581  -34.8912   22.4689 O   0  0  0  0  0  0
  -23.5330  -32.1476   23.7528 O   0  0  0  0  0  0
  -29.2935  -25.0804   21.7414 C   0  0  0  0  0  0
  -29.1442  -23.8990   22.5007 C   0  0  0  0  0  0
  -27.9989  -23.0826   22.2925 C   0  0  0  0  0  0
  -27.0837  -23.4981   21.2883 C   0  0  0  0  0  0
  -28.3049  -25.4330   20.8078 C   0  0  0  0  0  0
  -30.1850  -23.5809   23.5602 C   0  0  0  0  0  0
  -25.7978  -22.7573   20.9513 C   0  0  0  0  0  0
  -31.2163  -19.1971   20.6895 C   0  0  0  0  0  0
  -26.5994  -19.5852   23.2611 C   0  0  0  0  0  0
  -27.6740  -21.8864   23.2059 C   0  0  0  0  0  0
  -30.3072  -16.8781   20.2931 C   0  0  0  0  0  0
  -28.9577  -18.5557   21.6822 C   0  0  0  0  0  0
  -30.3733  -18.0562   21.3020 C   0  0  2  0  0  0
  -27.6129  -20.4883   22.5299 C   0  0  1  0  0  0
  -27.2576  -24.6165   20.5645 N   0  0  0  0  0  0
  -30.0011  -15.5445   20.8482 N   0  0  0  0  0  0
  -28.9510  -19.8538   22.4081 N   0  3  0  0  0  0
  -31.4618  -12.3453   19.1502 H   0  0  0  0  0  0
  -30.2730  -11.2785   19.8451 H   0  0  0  0  0  0
  -29.7470  -11.7839   17.4283 H   0  0  0  0  0  0
  -29.6842  -13.4897   17.7827 H   0  0  0  0  0  0
  -27.8088  -11.3248   18.7923 H   0  0  0  0  0  0
  -27.3812  -12.6751   17.7747 H   0  0  0  0  0  0
  -27.6984  -14.2599   19.5686 H   0  0  0  0  0  0
  -28.6628  -11.9927   21.3765 H   0  0  0  0  0  0
  -28.4792  -13.6529   21.8561 H   0  0  0  0  0  0
  -25.2772   -9.5659   22.4723 H   0  0  0  0  0  0
  -23.9994   -7.4633   22.7467 H   0  0  0  0  0  0
  -21.0835   -8.8769   19.8948 H   0  0  0  0  0  0
  -22.3713  -10.9652   19.6138 H   0  0  0  0  0  0
  -21.2025   -7.6142   23.9698 H   0  0  0  0  0  0
  -21.1491   -6.0513   25.9055 H   0  0  0  0  0  0
  -22.0600   -2.7607   23.2821 H   0  0  0  0  0  0
  -22.4091  -11.9977   22.4839 H   0  0  0  0  0  0
  -21.1084  -13.1267   22.2479 H   0  0  0  0  0  0
  -24.6693  -15.8469   20.5091 H   0  0  0  0  0  0
  -26.2768  -15.6168   20.0518 H   0  0  0  0  0  0
  -26.7115  -32.5553   23.1183 H   0  0  0  0  0  0
  -25.0100  -33.9787   25.0514 H   0  0  0  0  0  0
  -22.6861  -31.3148   21.4208 H   0  0  0  0  0  0
  -23.3736  -35.9641   23.3318 H   0  0  0  0  0  0
  -24.3586  -36.8873   22.2050 H   0  0  0  0  0  0
  -23.7228  -37.6500   23.6624 H   0  0  0  0  0  0
  -26.0556  -31.5942   20.6051 H   0  0  0  0  0  0
  -26.8157  -30.8774   21.9971 H   0  0  0  0  0  0
  -28.0809  -29.0664   21.2163 H   0  0  0  0  0  0
  -26.0518  -26.0446   18.9008 H   0  0  0  0  0  0
  -23.9797  -27.3535   18.9644 H   0  0  0  0  0  0
  -23.7071  -30.6171   19.4058 H   0  0  0  0  0  0
  -22.7310  -29.2569   19.8727 H   0  0  0  0  0  0
  -25.1279  -36.1978   25.0830 H   0  0  0  0  0  0
  -21.0030  -28.3242   24.1415 H   0  0  0  0  0  0
  -20.5700  -26.2266   23.3588 H   0  0  0  0  0  0
  -21.6641  -26.7433   22.1193 H   0  0  0  0  0  0
  -19.6867  -25.6311   21.1231 H   0  0  0  0  0  0
  -19.6670  -27.3213   20.6767 H   0  0  0  0  0  0
  -17.4202  -26.6727   21.4030 H   0  0  0  0  0  0
  -18.0295  -26.0058   22.9016 H   0  0  0  0  0  0
  -19.7928  -30.7319   24.2212 H   0  0  0  0  0  0
  -17.4999  -31.6254   24.5191 H   0  0  0  0  0  0
  -15.5348  -30.2972   23.7651 H   0  0  0  0  0  0
  -15.8692  -28.0829   22.7028 H   0  0  0  0  0  0
  -24.5901  -30.7065   25.7822 H   0  0  0  0  0  0
  -24.8921  -32.2888   26.4903 H   0  0  0  0  0  0
  -25.8081  -30.8910   27.0244 H   0  0  0  0  0  0
  -26.2861  -29.6783   24.1147 H   0  0  0  0  0  0
  -27.4066  -29.7271   25.4574 H   0  0  0  0  0  0
  -27.8710  -30.4339   23.9272 H   0  0  0  0  0  0
  -27.2682  -33.3606   26.2078 H   0  0  0  0  0  0
  -28.3849  -32.6875   25.0292 H   0  0  0  0  0  0
  -28.0730  -31.8410   26.5374 H   0  0  0  0  0  0
  -28.2621  -38.0092   24.7524 H   0  0  0  0  0  0
  -28.1065  -36.2626   24.6303 H   0  0  0  0  0  0
  -27.2312  -37.1470   25.8879 H   0  0  0  0  0  0
  -20.9272  -29.8768   21.6957 H   0  0  0  0  0  0
  -26.0177  -38.2869   24.1414 H   0  0  0  0  0  0
  -30.1332  -25.7431   21.9024 H   0  0  0  0  0  0
  -31.1110  -24.1267   23.3770 H   0  0  0  0  0  0
  -30.4353  -22.5215   23.5800 H   0  0  0  0  0  0
  -29.8167  -23.8671   24.5461 H   0  0  0  0  0  0
  -25.9888  -22.0040   20.1871 H   0  0  0  0  0  0
  -25.0466  -23.4392   20.5507 H   0  0  0  0  0  0
  -25.3487  -22.2738   21.8163 H   0  0  0  0  0  0
  -32.1838  -18.8329   20.3402 H   0  0  0  0  0  0
  -31.4332  -19.9799   21.4162 H   0  0  0  0  0  0
  -30.7160  -19.6561   19.8346 H   0  0  0  0  0  0
  -25.6435  -20.0941   23.3931 H   0  0  0  0  0  0
  -26.9578  -19.2973   24.2490 H   0  0  0  0  0  0
  -26.3829  -18.6777   22.6989 H   0  0  0  0  0  0
  -26.7008  -22.1140   23.6432 H   0  0  0  0  0  0
  -28.3273  -21.8440   24.0764 H   0  0  0  0  0  0
  -31.2500  -16.8497   19.7469 H   0  0  0  0  0  0
  -29.5629  -17.0958   19.5246 H   0  0  0  0  0  0
  -28.4680  -17.7930   22.2881 H   0  0  0  0  0  0
  -28.3590  -18.6638   20.7755 H   0  0  0  0  0  0
  -30.8890  -17.7184   22.2029 H   0  0  0  0  0  0
  -27.2356  -20.6115   21.5163 H   0  0  0  0  0  0
  -29.0630  -15.3791   21.1813 H   0  0  0  0  0  0
  -29.5384  -20.4932   21.8940 H   0  0  0  0  0  0
  -29.3615  -19.7293   23.3213 H   0  0  0  0  0  0
  1 25  1  0  0  0
  1 30  2  0  0  0
  1 86  1  0  0  0
  2  3  1  0  0  0
  2 25  1  0  0  0
  2 88  1  0  0  0
  2 89  1  0  0  0
  3  4  1  0  0  0
  3 90  1  0  0  0
  3 91  1  0  0  0
  4  5  1  0  0  0
  4 92  1  0  0  0
  4 93  1  0  0  0
  5  6  1  0  0  0
  5 26  1  0  0  0
  5 94  1  0  0  0
  6 25  1  0  0  0
  6 95  1  0  0  0
  6 96  1  0  0  0
  7  8  2  0  0  0
  7 26  1  0  0  0
  7 29  1  0  0  0
  8  9  1  0  0  0
  8 22  1  0  0  0
  9 10  1  0  0  0
  9 27  2  0  0  0
 10 11  2  0  0  0
 10 15  1  0  0  0
 11 12  1  0  0  0
 11 97  1  0  0  0
 12 13  2  0  0  0
 12 98  1  0  0  0
 13 14  1  0  0  0
 13 31  1  0  0  0
 14 15  2  0  0  0
 14 99  1  0  0  0
 15100  1  0  0  0
 16 17  2  0  0  0
 16 21  1  0  0  0
 16 31  1  0  0  0
 17 18  1  0  0  0
 17101  1  0  0  0
 18 19  2  0  0  0
 18102  1  0  0  0
 19 20  1  0  0  0
 19 24  1  0  0  0
 20 21  2  0  0  0
 20103  1  0  0  0
 21 23  1  0  0  0
 22 28  1  0  0  0
 22 32  2  0  0  0
 26 27  1  0  0  0
 28104  1  0  0  0
 28105  1  0  0  0
 29106  1  0  0  0
 29107  1  0  0  0
 33 34  1  0  0  0
 33 66  1  0  0  0
 33 70  2  0  0  0
 34 36  1  0  0  0
 34 59  1  0  0  0
 34108  1  0  0  0
 35 44  2  0  0  0
 35 45  1  0  0  0
 35 68  1  0  0  0
 36 56  1  0  0  0
 36109  1  0  0  0
 37 39  1  0  0  0
 37 47  1  0  0  0
 37 66  1  0  0  0
 37110  1  0  0  0
 38 43  2  0  0  0
 38 46  1  0  0  0
 38 47  1  0  0  0
 39 64  1  0  0  0
 39 67  2  0  0  0
 40 52  1  0  0  0
 40 53  2  0  0  0
 40 58  1  0  0  0
 41111  1  0  0  0
 41112  1  0  0  0
 41113  1  0  0  0
 41 48  1  0  0  0
 42 43  1  0  0  0
 42 66  1  0  0  0
 42114  1  0  0  0
 42115  1  0  0  0
 43 44  1  0  0  0
 44116  1  0  0  0
 45 46  2  0  0  0
 45117  1  0  0  0
 46118  1  0  0  0
 47119  1  0  0  0
 47120  1  0  0  0
 48 56  1  0  0  0
 48 65  1  0  0  0
 48121  1  0  0  0
 49 50  1  0  0  0
 49 53  1  0  0  0
 49 64  1  0  0  0
 49122  1  0  0  0
 50 51  1  0  0  0
 50123  1  0  0  0
 50124  1  0  0  0
 51 52  1  0  0  0
 51125  1  0  0  0
 51126  1  0  0  0
 52127  1  0  0  0
 52128  1  0  0  0
 53 54  1  0  0  0
 54 55  2  0  0  0
 54129  1  0  0  0
 55 57  1  0  0  0
 55130  1  0  0  0
 56 69  2  0  0  0
 57 58  2  0  0  0
 57131  1  0  0  0
 58132  1  0  0  0
 59 60  1  0  0  0
 59 61  1  0  0  0
 59 62  1  0  0  0
 60133  1  0  0  0
 60134  1  0  0  0
 60135  1  0  0  0
 61136  1  0  0  0
 61137  1  0  0  0
 61138  1  0  0  0
 62139  1  0  0  0
 62140  1  0  0  0
 62141  1  0  0  0
 63 65  1  0  0  0
 63142  1  0  0  0
 63143  1  0  0  0
 63144  1  0  0  0
 64145  1  0  0  0
 65146  1  0  0  0
 68 75  1  0  0  0
 71 72  2  0  0  0
 71 75  1  0  0  0
 71147  1  0  0  0
 72 73  1  0  0  0
 72 76  1  0  0  0
 73 74  2  0  0  0
 73 80  1  0  0  0
 74 77  1  0  0  0
 74 85  1  0  0  0
 75 85  2  0  0  0
 76148  1  0  0  0
 76149  1  0  0  0
 76150  1  0  0  0
 77151  1  0  0  0
 77152  1  0  0  0
 77153  1  0  0  0
 78154  1  0  0  0
 78155  1  0  0  0
 78156  1  0  0  0
 78 83  1  0  0  0
 79157  1  0  0  0
 79158  1  0  0  0
 79159  1  0  0  0
 79 84  1  0  0  0
 80 84  1  0  0  0
 80160  1  0  0  0
 80161  1  0  0  0
 81 83  1  0  0  0
 81 86  1  0  0  0
 81162  1  0  0  0
 81163  1  0  0  0
 82 83  1  0  0  0
 82 87  1  0  0  0
 82164  1  0  0  0
 82165  1  0  0  0
 83166  1  0  0  0
 84 87  1  0  0  0
 84167  1  0  0  0
 86168  1  0  0  0
 87169  1  0  0  0
 87170  1  0  0  0
M  CHG  1  87   1
M  ISO  4   1 100  68 101  75 101  86 100
M  END
> <chiral flag>
0

> <version>
0

> <s_m_source_file>
/data/baiqing/PycharmProjects/Reinvent-master-3.2/result/LINK_invent/BTK/process_docking_weight1_custom_sum_contain_oxygen_bond_distance_aromatic_linkinvent_7_9_3/rearranged_h_0114.sdf

> <i_m_source_file_index>
37

> <r_mmod_Potential_Energy-OPLS-2005>
-319.070434570312

> <r_mmod_Stretch_Energy-OPLS-2005>
38.5876083374023

> <r_mmod_Bend_Energy-OPLS-2005>
103.011238098145

> <r_mmod_Torsional_Energy-OPLS-2005>
258.261932373047

> <r_mmod_Improper_Torsional_Energy-OPLS-2005>
8.37703514099121

> <r_mmod_Van_der_Waal_Energy-OPLS-2005>
170.041839599609

> <r_mmod_Electrostatic_Energy-OPLS-2005>
-437.051696777344

> <r_mmod_Solvation_Energy-OPLS-2005>
-477.841156005859

> <b_mmod_Minimization_Converged-OPLS-2005>
0

> <r_mmod_RMS_Derivative-OPLS-2005>
2.97356104850769

$$$$
37
                    3D
 Structure written by MMmdl.
166174  0  0  1  0            999 V2000
  -30.5816  -14.8073   20.4701 C   0  0  0  0  0  0
  -30.4390  -12.5027   19.4826 C   0  0  0  0  0  0
  -29.5173  -12.5210   18.2426 C   0  0  0  0  0  0
  -28.0442  -12.3306   18.6555 C   0  0  0  0  0  0
  -27.6388  -13.2362   19.8482 C   0  0  2  0  0  0
  -28.6799  -13.1916   20.9862 C   0  0  0  0  0  0
  -25.2486  -13.8196   20.5675 C   0  0  0  0  0  0
  -24.1787  -13.0440   20.9207 C   0  0  0  0  0  0
  -24.6385  -11.6922   20.8734 C   0  0  0  0  0  0
  -23.9063  -10.4295   21.0397 C   0  0  0  0  0  0
  -24.3614   -9.4214   21.9180 C   0  0  0  0  0  0
  -23.6287   -8.2251   22.0750 C   0  0  0  0  0  0
  -22.4267   -8.0285   21.3547 C   0  0  0  0  0  0
  -21.9902   -9.0257   20.4647 C   0  0  0  0  0  0
  -22.7230  -10.2139   20.3048 C   0  0  0  0  0  0
  -21.6862   -6.0735   22.5275 C   0  0  0  0  0  0
  -21.4024   -6.5624   23.8215 C   0  0  0  0  0  0
  -21.3661   -5.6768   24.9162 C   0  0  0  0  0  0
  -21.6041   -4.3033   24.7210 C   0  0  0  0  0  0
  -21.8821   -3.8138   23.4325 C   0  0  0  0  0  0
  -21.9204   -4.6964   22.3392 C   0  0  0  0  0  0
  -22.7812  -13.5230   21.1861 C   0  0  0  0  0  0
  -22.1668   -4.2155   21.0965 F   0  0  0  0  0  0
  -21.5625   -3.4509   25.7720 F   0  0  0  0  0  0
  -29.9730  -13.5690   20.4036 N   0  0  0  0  0  0
  -26.2914  -12.9418   20.3241 N   0  0  0  0  0  0
  -25.9318  -11.6557   20.5725 N   0  0  0  0  0  0
  -22.0442  -12.8232   22.0417 N   0  0  0  0  0  0
  -25.4140  -15.1918   20.4072 N   0  0  0  0  0  0
  -31.7676  -14.9092   20.1492 O   0  0  0  0  0  0
  -21.6637   -6.8878   21.4239 O   0  0  0  0  0  0
  -22.3503  -14.5554   20.6725 O   0  0  0  0  0  0
  -24.6378  -31.8501   23.1941 C   0  0  0  0  0  0
  -25.9171  -32.4726   23.8316 C   0  0  1  0  0  0
  -27.2177  -27.2037   20.1284 C   0  0  0  0  0  0
  -25.5938  -33.8535   24.2241 N   0  0  0  0  0  0
  -23.4372  -30.4722   21.5381 C   0  0  2  0  0  0
  -24.8833  -28.9130   20.1064 C   0  0  0  0  0  0
  -22.7544  -29.4572   22.4880 C   0  0  0  0  0  0
  -18.0299  -28.1379   22.8474 C   0  0  0  0  0  0
  -24.1485  -36.7269   23.2643 C   0  0  0  0  0  0
  -25.9882  -30.7452   21.3823 C   0  0  0  0  0  0
  -26.0573  -29.3636   20.7215 C   0  0  0  0  0  0
  -27.2220  -28.5201   20.7230 C   0  0  0  0  0  0
  -26.0075  -26.8298   19.4996 C   0  0  0  0  0  0
  -24.8672  -27.6571   19.4848 C   0  0  0  0  0  0
  -23.6583  -29.8076   20.1536 C   0  0  0  0  0  0
  -25.4112  -36.3063   24.0334 C   0  0  1  0  0  0
  -20.5908  -28.3703   23.1245 C   0  0  2  0  0  0
  -20.6775  -26.9409   22.5400 C   0  0  0  0  0  0
  -19.5750  -26.6375   21.5203 C   0  0  0  0  0  0
  -18.1935  -26.7922   22.1619 C   0  0  0  0  0  0
  -19.1555  -28.8859   23.2855 C   0  0  0  0  0  0
  -18.9472  -30.1454   23.8885 C   0  0  0  0  0  0
  -17.6473  -30.6581   24.0552 C   0  0  0  0  0  0
  -25.9053  -34.9426   23.5091 C   0  0  0  0  0  0
  -16.5363  -29.9074   23.6326 C   0  0  0  0  0  0
  -16.7289  -28.6489   23.0353 C   0  0  0  0  0  0
  -26.4511  -31.6573   25.0735 C   0  0  0  0  0  0
  -25.3720  -31.3749   26.1457 C   0  0  0  0  0  0
  -27.0348  -30.2974   24.6263 C   0  0  0  0  0  0
  -27.6063  -32.4316   25.7503 C   0  0  0  0  0  0
  -27.5576  -37.1792   24.8469 C   0  0  0  0  0  0
  -21.4238  -29.3046   22.3635 N   0  0  0  0  0  0
  -26.4288  -37.3762   23.9414 N   0  0  0  0  0  0
  -24.7072  -31.0420   22.0937 N   0  0  0  0  0  0
  -23.4215  -28.8110   23.3001 O   0  0  0  0  0  0
  -28.3009  -26.2775   20.2327 O   0  0  0  0  0  0
  -26.5638  -34.8913   22.4671 O   0  0  0  0  0  0
  -23.5515  -32.1341   23.7203 O   0  0  0  0  0  0
  -29.9552  -22.7137   20.2023 C   0  0  0  0  0  0
  -30.0511  -21.1287   19.9681 C   0  0  0  0  0  0
  -27.5411  -22.5389   20.6251 C   0  0  0  0  0  0
  -28.5827  -23.3701   19.8181 C   0  0  1  0  0  0
  -28.9979  -20.2066   20.6952 C   0  0  1  0  0  0
  -27.6129  -20.9506   20.4108 C   0  0  1  0  0  0
  -26.4448  -20.3139   21.1851 C   0  0  0  0  0  0
  -31.9909  -17.0274   22.5868 C   0  0  0  0  0  0
  -29.0019  -18.5667   20.3866 C   0  0  0  0  0  0
  -28.4044  -24.9845   19.4396 C   0  0  0  0  0  0
  -30.1492  -17.4553   20.7876 C   0  0  1  0  0  0
  -30.7096  -17.7778   22.1950 C   0  0  1  0  0  0
  -29.8006  -15.9417   20.7208 N   0  0  0  0  0  0
  -29.7087  -17.4718   23.1468 O   0  0  0  0  0  0
  -31.4778  -12.6449   19.1800 H   0  0  0  0  0  0
  -30.4042  -11.5316   19.9792 H   0  0  0  0  0  0
  -29.8126  -11.7402   17.5403 H   0  0  0  0  0  0
  -29.6314  -13.4688   17.7131 H   0  0  0  0  0  0
  -27.9127  -11.2838   18.9321 H   0  0  0  0  0  0
  -27.3881  -12.5050   17.8025 H   0  0  0  0  0  0
  -27.6263  -14.2535   19.4561 H   0  0  0  0  0  0
  -28.7296  -12.1958   21.4308 H   0  0  0  0  0  0
  -28.4005  -13.8708   21.7927 H   0  0  0  0  0  0
  -25.2765   -9.5705   22.4745 H   0  0  0  0  0  0
  -24.0013   -7.4642   22.7459 H   0  0  0  0  0  0
  -21.0844   -8.8775   19.8941 H   0  0  0  0  0  0
  -22.3691  -10.9674   19.6149 H   0  0  0  0  0  0
  -21.2013   -7.6135   23.9721 H   0  0  0  0  0  0
  -21.1478   -6.0485   25.9070 H   0  0  0  0  0  0
  -22.0602   -2.7606   23.2809 H   0  0  0  0  0  0
  -22.4037  -11.9902   22.4835 H   0  0  0  0  0  0
  -21.1068  -13.1306   22.2610 H   0  0  0  0  0  0
  -24.6333  -15.8334   20.4944 H   0  0  0  0  0  0
  -26.2395  -15.6281   20.0187 H   0  0  0  0  0  0
  -26.7244  -32.5353   23.1058 H   0  0  0  0  0  0
  -25.0081  -33.9653   25.0390 H   0  0  0  0  0  0
  -22.7373  -31.2975   21.3903 H   0  0  0  0  0  0
  -23.3752  -35.9592   23.3305 H   0  0  0  0  0  0
  -24.3580  -36.8892   22.2056 H   0  0  0  0  0  0
  -23.7232  -37.6469   23.6667 H   0  0  0  0  0  0
  -26.1365  -31.5041   20.6130 H   0  0  0  0  0  0
  -26.8623  -30.7931   22.0205 H   0  0  0  0  0  0
  -28.1170  -28.8555   21.2272 H   0  0  0  0  0  0
  -25.8762  -25.8559   19.0578 H   0  0  0  0  0  0
  -23.9638  -27.2998   19.0103 H   0  0  0  0  0  0
  -23.7912  -30.5849   19.4002 H   0  0  0  0  0  0
  -22.7741  -29.2477   19.8441 H   0  0  0  0  0  0
  -25.1289  -36.1902   25.0826 H   0  0  0  0  0  0
  -21.0005  -28.3283   24.1365 H   0  0  0  0  0  0
  -20.5650  -26.2317   23.3616 H   0  0  0  0  0  0
  -21.6645  -26.7404   22.1213 H   0  0  0  0  0  0
  -19.6902  -25.6281   21.1245 H   0  0  0  0  0  0
  -19.6679  -27.3175   20.6724 H   0  0  0  0  0  0
  -17.4197  -26.6670   21.4030 H   0  0  0  0  0  0
  -18.0337  -26.0070   22.9025 H   0  0  0  0  0  0
  -19.7956  -30.7265   24.2259 H   0  0  0  0  0  0
  -17.5029  -31.6267   24.5152 H   0  0  0  0  0  0
  -15.5359  -30.2964   23.7656 H   0  0  0  0  0  0
  -15.8695  -28.0796   22.7080 H   0  0  0  0  0  0
  -24.5889  -30.7102   25.7802 H   0  0  0  0  0  0
  -24.8920  -32.2925   26.4869 H   0  0  0  0  0  0
  -25.8033  -30.8942   27.0249 H   0  0  0  0  0  0
  -26.2938  -29.6724   24.1272 H   0  0  0  0  0  0
  -27.3983  -29.7250   25.4808 H   0  0  0  0  0  0
  -27.8845  -30.4228   23.9548 H   0  0  0  0  0  0
  -27.2688  -33.3647   26.2031 H   0  0  0  0  0  0
  -28.3895  -32.6822   25.0334 H   0  0  0  0  0  0
  -28.0706  -31.8468   26.5457 H   0  0  0  0  0  0
  -28.2594  -38.0085   24.7505 H   0  0  0  0  0  0
  -28.1065  -36.2615   24.6295 H   0  0  0  0  0  0
  -27.2304  -37.1454   25.8877 H   0  0  0  0  0  0
  -20.9434  -29.8786   21.6848 H   0  0  0  0  0  0
  -26.0161  -38.2838   24.1403 H   0  0  0  0  0  0
  -30.7478  -23.1961   19.6293 H   0  0  0  0  0  0
  -30.1740  -22.9360   21.2480 H   0  0  0  0  0  0
  -31.0517  -20.7951   20.2467 H   0  0  0  0  0  0
  -29.9765  -20.9435   18.8958 H   0  0  0  0  0  0
  -26.5459  -22.8884   20.3472 H   0  0  0  0  0  0
  -27.6478  -22.7687   21.6860 H   0  0  0  0  0  0
  -28.4471  -22.9666   18.8127 H   0  0  0  0  0  0
  -29.1811  -20.3132   21.7651 H   0  0  0  0  0  0
  -27.3991  -20.7852   19.3536 H   0  0  0  0  0  0
  -26.6144  -20.3422   22.2612 H   0  0  0  0  0  0
  -26.2712  -19.2786   20.8962 H   0  0  0  0  0  0
  -25.5105  -20.8395   20.9858 H   0  0  0  0  0  0
  -32.7615  -17.1453   21.8239 H   0  0  0  0  0  0
  -31.8267  -15.9602   22.7293 H   0  0  0  0  0  0
  -32.4002  -17.4126   23.5214 H   0  0  0  0  0  0
  -28.7951  -18.4419   19.3233 H   0  0  0  0  0  0
  -28.1130  -18.1779   20.8781 H   0  0  0  0  0  0
  -27.6609  -25.0038   18.6492 H   0  0  0  0  0  0
  -29.3089  -25.1866   18.8661 H   0  0  0  0  0  0
  -30.9662  -17.6092   20.0788 H   0  0  0  0  0  0
  -30.9313  -18.8448   22.2535 H   0  0  0  0  0  0
  -28.8291  -15.7283   20.8879 H   0  0  0  0  0  0
  -29.4076  -16.5914   22.9534 H   0  0  0  0  0  0
  1 25  1  0  0  0
  1 30  2  0  0  0
  1 83  1  0  0  0
  2  3  1  0  0  0
  2 25  1  0  0  0
  2 85  1  0  0  0
  2 86  1  0  0  0
  3  4  1  0  0  0
  3 87  1  0  0  0
  3 88  1  0  0  0
  4  5  1  0  0  0
  4 89  1  0  0  0
  4 90  1  0  0  0
  5  6  1  0  0  0
  5 26  1  0  0  0
  5 91  1  0  0  0
  6 25  1  0  0  0
  6 92  1  0  0  0
  6 93  1  0  0  0
  7  8  2  0  0  0
  7 26  1  0  0  0
  7 29  1  0  0  0
  8  9  1  0  0  0
  8 22  1  0  0  0
  9 10  1  0  0  0
  9 27  2  0  0  0
 10 11  2  0  0  0
 10 15  1  0  0  0
 11 12  1  0  0  0
 11 94  1  0  0  0
 12 13  2  0  0  0
 12 95  1  0  0  0
 13 14  1  0  0  0
 13 31  1  0  0  0
 14 15  2  0  0  0
 14 96  1  0  0  0
 15 97  1  0  0  0
 16 17  2  0  0  0
 16 21  1  0  0  0
 16 31  1  0  0  0
 17 18  1  0  0  0
 17 98  1  0  0  0
 18 19  2  0  0  0
 18 99  1  0  0  0
 19 20  1  0  0  0
 19 24  1  0  0  0
 20 21  2  0  0  0
 20100  1  0  0  0
 21 23  1  0  0  0
 22 28  1  0  0  0
 22 32  2  0  0  0
 26 27  1  0  0  0
 28101  1  0  0  0
 28102  1  0  0  0
 29103  1  0  0  0
 29104  1  0  0  0
 33 34  1  0  0  0
 33 66  1  0  0  0
 33 70  2  0  0  0
 34 36  1  0  0  0
 34 59  1  0  0  0
 34105  1  0  0  0
 35 44  2  0  0  0
 35 45  1  0  0  0
 35 68  1  0  0  0
 36 56  1  0  0  0
 36106  1  0  0  0
 37 39  1  0  0  0
 37 47  1  0  0  0
 37 66  1  0  0  0
 37107  1  0  0  0
 38 43  2  0  0  0
 38 46  1  0  0  0
 38 47  1  0  0  0
 39 64  1  0  0  0
 39 67  2  0  0  0
 40 52  1  0  0  0
 40 53  2  0  0  0
 40 58  1  0  0  0
 41108  1  0  0  0
 41109  1  0  0  0
 41110  1  0  0  0
 41 48  1  0  0  0
 42 43  1  0  0  0
 42 66  1  0  0  0
 42111  1  0  0  0
 42112  1  0  0  0
 43 44  1  0  0  0
 44113  1  0  0  0
 45 46  2  0  0  0
 45114  1  0  0  0
 46115  1  0  0  0
 47116  1  0  0  0
 47117  1  0  0  0
 48 56  1  0  0  0
 48 65  1  0  0  0
 48118  1  0  0  0
 49 50  1  0  0  0
 49 53  1  0  0  0
 49 64  1  0  0  0
 49119  1  0  0  0
 50 51  1  0  0  0
 50120  1  0  0  0
 50121  1  0  0  0
 51 52  1  0  0  0
 51122  1  0  0  0
 51123  1  0  0  0
 52124  1  0  0  0
 52125  1  0  0  0
 53 54  1  0  0  0
 54 55  2  0  0  0
 54126  1  0  0  0
 55 57  1  0  0  0
 55127  1  0  0  0
 56 69  2  0  0  0
 57 58  2  0  0  0
 57128  1  0  0  0
 58129  1  0  0  0
 59 60  1  0  0  0
 59 61  1  0  0  0
 59 62  1  0  0  0
 60130  1  0  0  0
 60131  1  0  0  0
 60132  1  0  0  0
 61133  1  0  0  0
 61134  1  0  0  0
 61135  1  0  0  0
 62136  1  0  0  0
 62137  1  0  0  0
 62138  1  0  0  0
 63 65  1  0  0  0
 63139  1  0  0  0
 63140  1  0  0  0
 63141  1  0  0  0
 64142  1  0  0  0
 65143  1  0  0  0
 68 80  1  0  0  0
 71 72  1  0  0  0
 71 74  1  0  0  0
 71144  1  0  0  0
 71145  1  0  0  0
 72 75  1  0  0  0
 72146  1  0  0  0
 72147  1  0  0  0
 73 74  1  0  0  0
 73 76  1  0  0  0
 73148  1  0  0  0
 73149  1  0  0  0
 74 80  1  0  0  0
 74150  1  0  0  0
 75 76  1  0  0  0
 75 79  1  0  0  0
 75151  1  0  0  0
 76 77  1  0  0  0
 76152  1  0  0  0
 77153  1  0  0  0
 77154  1  0  0  0
 77155  1  0  0  0
 78156  1  0  0  0
 78157  1  0  0  0
 78158  1  0  0  0
 78 82  1  0  0  0
 79159  1  0  0  0
 79160  1  0  0  0
 79 81  1  0  0  0
 80161  1  0  0  0
 80162  1  0  0  0
 81 82  1  0  0  0
 81 83  1  0  0  0
 81163  1  0  0  0
 82 84  1  0  0  0
 82164  1  0  0  0
 83165  1  0  0  0
 84166  1  0  0  0
M  ISO  4   1 100  68 101  80 101  83 100
M  END
> <chiral flag>
0

> <version>
0

> <s_m_source_file>
/data/baiqing/PycharmProjects/Reinvent-master-3.2/result/LINK_invent/BTK/process_docking_weight1_custom_sum_contain_oxygen_bond_distance_aromatic_linkinvent_7_9_3/rearranged_h_0114.sdf

> <i_m_source_file_index>
38

> <r_mmod_Potential_Energy-OPLS-2005>
273.796142578125

> <r_mmod_Stretch_Energy-OPLS-2005>
173.88981628418

> <r_mmod_Bend_Energy-OPLS-2005>
278.866882324219

> <r_mmod_Torsional_Energy-OPLS-2005>
259.370269775391

> <r_mmod_Improper_Torsional_Energy-OPLS-2005>
4.34676504135132

> <r_mmod_Van_der_Waal_Energy-OPLS-2005>
121.141700744629

> <r_mmod_Electrostatic_Energy-OPLS-2005>
-477.592224121094

> <r_mmod_Solvation_Energy-OPLS-2005>
-206.435928344727

> <b_mmod_Minimization_Converged-OPLS-2005>
0

> <r_mmod_RMS_Derivative-OPLS-2005>
1.84928023815155

$$$$
38
                    3D
 Structure written by MMmdl.
161170  0  0  1  0            999 V2000
  -30.4329  -15.3285   20.3039 C   0  0  0  0  0  0
  -30.4310  -12.8481   19.5326 C   0  0  0  0  0  0
  -29.5409  -12.5880   18.2907 C   0  0  0  0  0  0
  -28.0688  -12.3550   18.6758 C   0  0  0  0  0  0
  -27.5978  -13.2988   19.8106 C   0  0  2  0  0  0
  -28.6312  -13.4956   20.9390 C   0  0  0  0  0  0
  -25.2284  -13.8260   20.5757 C   0  0  0  0  0  0
  -24.1612  -13.0375   20.9193 C   0  0  0  0  0  0
  -24.6355  -11.6921   20.8655 C   0  0  0  0  0  0
  -23.9047  -10.4257   21.0329 C   0  0  0  0  0  0
  -24.3566   -9.4205   21.9151 C   0  0  0  0  0  0
  -23.6261   -8.2220   22.0716 C   0  0  0  0  0  0
  -22.4247   -8.0232   21.3494 C   0  0  0  0  0  0
  -21.9850   -9.0218   20.4605 C   0  0  0  0  0  0
  -22.7191  -10.2092   20.3020 C   0  0  0  0  0  0
  -21.6863   -6.0659   22.5279 C   0  0  0  0  0  0
  -21.4068   -6.5601   23.8212 C   0  0  0  0  0  0
  -21.3645   -5.6767   24.9186 C   0  0  0  0  0  0
  -21.6047   -4.3043   24.7274 C   0  0  0  0  0  0
  -21.8834   -3.8089   23.4431 C   0  0  0  0  0  0
  -21.9193   -4.6871   22.3448 C   0  0  0  0  0  0
  -22.7635  -13.5124   21.1841 C   0  0  0  0  0  0
  -22.1598   -4.2036   21.1021 F   0  0  0  0  0  0
  -21.5615   -3.4554   25.7808 F   0  0  0  0  0  0
  -29.8705  -14.0108   20.3196 N   0  0  0  0  0  0
  -26.2734  -12.9564   20.3161 N   0  0  0  0  0  0
  -25.9285  -11.6639   20.5602 N   0  0  0  0  0  0
  -22.0308  -12.8070   22.0425 N   0  0  0  0  0  0
  -25.3883  -15.1977   20.4323 N   0  0  0  0  0  0
  -31.6533  -15.3023   20.0731 O   0  0  0  0  0  0
  -21.6621   -6.8820   21.4231 O   0  0  0  0  0  0
  -22.3274  -14.5408   20.6736 O   0  0  0  0  0  0
  -24.6594  -31.8211   23.1798 C   0  0  0  0  0  0
  -25.9253  -32.4609   23.8274 C   0  0  1  0  0  0
  -27.2212  -26.9331   20.1193 C   0  0  0  0  0  0
  -25.5923  -33.8426   24.2161 N   0  0  0  0  0  0
  -23.4797  -30.4252   21.5374 C   0  0  2  0  0  0
  -24.9294  -28.8203   20.1103 C   0  0  0  0  0  0
  -22.7712  -29.4307   22.4957 C   0  0  0  0  0  0
  -18.0281  -28.1367   22.8499 C   0  0  0  0  0  0
  -24.1477  -36.7173   23.2667 C   0  0  0  0  0  0
  -26.0525  -30.6139   21.4206 C   0  0  0  0  0  0
  -26.1119  -29.2068   20.7540 C   0  0  0  0  0  0
  -27.2465  -28.2774   20.7434 C   0  0  0  0  0  0
  -26.0261  -26.7229   19.3979 C   0  0  0  0  0  0
  -24.9101  -27.6022   19.4124 C   0  0  0  0  0  0
  -23.7209  -29.7530   20.1586 C   0  0  0  0  0  0
  -25.4128  -36.2987   24.0332 C   0  0  1  0  0  0
  -20.5902  -28.3631   23.1330 C   0  0  2  0  0  0
  -20.6755  -26.9343   22.5476 C   0  0  0  0  0  0
  -19.5749  -26.6335   21.5250 C   0  0  0  0  0  0
  -18.1905  -26.7911   22.1626 C   0  0  0  0  0  0
  -19.1551  -28.8833   23.2867 C   0  0  0  0  0  0
  -18.9463  -30.1446   23.8857 C   0  0  0  0  0  0
  -17.6457  -30.6578   24.0520 C   0  0  0  0  0  0
  -25.9101  -34.9347   23.5089 C   0  0  0  0  0  0
  -16.5334  -29.9056   23.6349 C   0  0  0  0  0  0
  -16.7256  -28.6469   23.0395 C   0  0  0  0  0  0
  -26.4509  -31.6562   25.0803 C   0  0  0  0  0  0
  -25.3699  -31.3665   26.1515 C   0  0  0  0  0  0
  -27.0401  -30.2960   24.6484 C   0  0  0  0  0  0
  -27.6043  -32.4371   25.7539 C   0  0  0  0  0  0
  -27.5579  -37.1755   24.8488 C   0  0  0  0  0  0
  -21.4368  -29.2914   22.3744 N   0  0  0  0  0  0
  -26.4282  -37.3715   23.9453 N   0  0  0  0  0  0
  -24.7521  -30.9832   22.0969 N   0  0  0  0  0  0
  -23.4275  -28.7861   23.3171 O   0  0  0  0  0  0
  -28.2177  -25.8219   20.2165 O   0  0  0  0  0  0
  -26.5718  -34.8830   22.4687 O   0  0  0  0  0  0
  -23.5641  -32.1205   23.6842 O   0  0  0  0  0  0
  -27.8210  -19.0892   20.2879 C   0  0  0  0  0  0
  -28.9637  -17.9362   18.7100 C   0  0  0  0  0  0
  -27.6683  -18.4440   19.0825 C   0  0  0  0  0  0
  -29.7226  -18.0270   19.8464 C   0  0  0  0  0  0
  -30.4330  -16.9621   16.6791 C   0  0  0  0  0  0
  -29.0977  -17.3484   16.0855 C   0  0  0  0  0  0
  -29.1887  -16.9712   17.5503 C   0  0  0  0  0  0
  -26.3678  -18.3094   18.3435 C   0  0  0  0  0  0
  -28.5016  -24.3458   18.2412 C   0  0  0  0  0  0
  -28.7594  -22.6642   20.4235 C   0  0  0  0  0  0
  -29.3114  -21.0500   19.7824 C   0  0  0  0  0  0
  -28.1359  -24.2389   19.7375 C   0  0  1  0  0  0
  -29.1436  -19.4292   20.2586 N   0  0  0  0  0  0
  -29.6898  -16.6238   20.4249 N   0  0  0  0  0  0
  -31.4375  -13.0654   19.1785 H   0  0  0  0  0  0
  -30.5215  -11.9579   20.1606 H   0  0  0  0  0  0
  -29.9240  -11.7329   17.7309 H   0  0  0  0  0  0
  -29.6008  -13.4420   17.6147 H   0  0  0  0  0  0
  -27.9567  -11.3154   18.9706 H   0  0  0  0  0  0
  -27.4347  -12.4918   17.7990 H   0  0  0  0  0  0
  -27.4926  -14.2676   19.3231 H   0  0  0  0  0  0
  -28.7975  -12.5673   21.4840 H   0  0  0  0  0  0
  -28.2478  -14.2133   21.6644 H   0  0  0  0  0  0
  -25.2644   -9.5705   22.4803 H   0  0  0  0  0  0
  -23.9993   -7.4600   22.7424 H   0  0  0  0  0  0
  -21.0790   -8.8778   19.8882 H   0  0  0  0  0  0
  -22.3660  -10.9660   19.6197 H   0  0  0  0  0  0
  -21.2127   -7.6121   23.9736 H   0  0  0  0  0  0
  -21.1382   -6.0456   25.9094 H   0  0  0  0  0  0
  -22.0619   -2.7539   23.2989 H   0  0  0  0  0  0
  -22.4110  -11.9901   22.4916 H   0  0  0  0  0  0
  -21.0862  -13.0927   22.2583 H   0  0  0  0  0  0
  -24.6093  -15.8344   20.5650 H   0  0  0  0  0  0
  -26.2394  -15.6584   20.1371 H   0  0  0  0  0  0
  -26.7345  -32.5105   23.1001 H   0  0  0  0  0  0
  -25.0064  -33.9598   25.0306 H   0  0  0  0  0  0
  -22.7820  -31.2468   21.3741 H   0  0  0  0  0  0
  -23.3789  -35.9448   23.3307 H   0  0  0  0  0  0
  -24.3542  -36.8851   22.2083 H   0  0  0  0  0  0
  -23.7153  -37.6314   23.6743 H   0  0  0  0  0  0
  -26.2622  -31.3551   20.6463 H   0  0  0  0  0  0
  -26.9031  -30.6588   22.0874 H   0  0  0  0  0  0
  -28.1415  -28.5596   21.2803 H   0  0  0  0  0  0
  -25.9301  -25.8228   18.8090 H   0  0  0  0  0  0
  -24.0216  -27.3195   18.8620 H   0  0  0  0  0  0
  -23.8949  -30.5371   19.4206 H   0  0  0  0  0  0
  -22.8244  -29.2222   19.8320 H   0  0  0  0  0  0
  -25.1315  -36.1823   25.0818 H   0  0  0  0  0  0
  -20.9904  -28.3118   24.1486 H   0  0  0  0  0  0
  -20.5630  -26.2182   23.3648 H   0  0  0  0  0  0
  -21.6616  -26.7343   22.1269 H   0  0  0  0  0  0
  -19.6905  -25.6238   21.1296 H   0  0  0  0  0  0
  -19.6735  -27.3125   20.6767 H   0  0  0  0  0  0
  -17.4198  -26.6645   21.4008 H   0  0  0  0  0  0
  -18.0238  -26.0063   22.9016 H   0  0  0  0  0  0
  -19.7918  -30.7280   24.2222 H   0  0  0  0  0  0
  -17.4992  -31.6277   24.5076 H   0  0  0  0  0  0
  -15.5335  -30.2920   23.7726 H   0  0  0  0  0  0
  -15.8647  -28.0751   22.7194 H   0  0  0  0  0  0
  -24.5964  -30.6911   25.7858 H   0  0  0  0  0  0
  -24.8748  -32.2730   26.4973 H   0  0  0  0  0  0
  -25.8031  -30.8875   27.0308 H   0  0  0  0  0  0
  -26.3032  -29.6705   24.1440 H   0  0  0  0  0  0
  -27.3911  -29.7262   25.5096 H   0  0  0  0  0  0
  -27.8997  -30.4236   23.9916 H   0  0  0  0  0  0
  -27.2702  -33.3774   26.1934 H   0  0  0  0  0  0
  -28.3866  -32.6784   25.0338 H   0  0  0  0  0  0
  -28.0684  -31.8623   26.5575 H   0  0  0  0  0  0
  -28.2582  -38.0073   24.7553 H   0  0  0  0  0  0
  -28.1105  -36.2599   24.6301 H   0  0  0  0  0  0
  -27.2312  -37.1350   25.8897 H   0  0  0  0  0  0
  -20.9629  -29.8680   21.6944 H   0  0  0  0  0  0
  -26.0146  -38.2782   24.1444 H   0  0  0  0  0  0
  -27.0934  -19.6929   20.8146 H   0  0  0  0  0  0
  -31.1600  -17.7721   16.7002 H   0  0  0  0  0  0
  -30.8500  -15.9883   16.4260 H   0  0  0  0  0  0
  -28.5889  -16.6359   15.4367 H   0  0  0  0  0  0
  -29.0102  -18.3893   15.7779 H   0  0  0  0  0  0
  -28.7481  -16.0098   17.8008 H   0  0  0  0  0  0
  -25.6104  -18.9358   18.8149 H   0  0  0  0  0  0
  -26.0228  -17.2768   18.3721 H   0  0  0  0  0  0
  -26.4768  -18.6149   17.3031 H   0  0  0  0  0  0
  -28.7700  -23.3752   17.8160 H   0  0  0  0  0  0
  -29.3380  -25.0260   18.0848 H   0  0  0  0  0  0
  -27.6689  -24.7467   17.6538 H   0  0  0  0  0  0
  -29.6670  -23.0152   20.9128 H   0  0  0  0  0  0
  -28.0975  -22.4177   21.2570 H   0  0  0  0  0  0
  -30.3821  -21.1704   19.6172 H   0  0  0  0  0  0
  -28.9110  -21.0502   18.7698 H   0  0  0  0  0  0
  -27.0592  -24.0532   19.7240 H   0  0  0  0  0  0
  -28.7596  -16.4090   20.7540 H   0  0  0  0  0  0
  1 25  1  0  0  0
  1 30  2  0  0  0
  1 84  1  0  0  0
  2  3  1  0  0  0
  2 25  1  0  0  0
  2 85  1  0  0  0
  2 86  1  0  0  0
  3  4  1  0  0  0
  3 87  1  0  0  0
  3 88  1  0  0  0
  4  5  1  0  0  0
  4 89  1  0  0  0
  4 90  1  0  0  0
  5  6  1  0  0  0
  5 26  1  0  0  0
  5 91  1  0  0  0
  6 25  1  0  0  0
  6 92  1  0  0  0
  6 93  1  0  0  0
  7  8  2  0  0  0
  7 26  1  0  0  0
  7 29  1  0  0  0
  8  9  1  0  0  0
  8 22  1  0  0  0
  9 10  1  0  0  0
  9 27  2  0  0  0
 10 11  2  0  0  0
 10 15  1  0  0  0
 11 12  1  0  0  0
 11 94  1  0  0  0
 12 13  2  0  0  0
 12 95  1  0  0  0
 13 14  1  0  0  0
 13 31  1  0  0  0
 14 15  2  0  0  0
 14 96  1  0  0  0
 15 97  1  0  0  0
 16 17  2  0  0  0
 16 21  1  0  0  0
 16 31  1  0  0  0
 17 18  1  0  0  0
 17 98  1  0  0  0
 18 19  2  0  0  0
 18 99  1  0  0  0
 19 20  1  0  0  0
 19 24  1  0  0  0
 20 21  2  0  0  0
 20100  1  0  0  0
 21 23  1  0  0  0
 22 28  1  0  0  0
 22 32  2  0  0  0
 26 27  1  0  0  0
 28101  1  0  0  0
 28102  1  0  0  0
 29103  1  0  0  0
 29104  1  0  0  0
 33 34  1  0  0  0
 33 66  1  0  0  0
 33 70  2  0  0  0
 34 36  1  0  0  0
 34 59  1  0  0  0
 34105  1  0  0  0
 35 44  2  0  0  0
 35 45  1  0  0  0
 35 68  1  0  0  0
 36 56  1  0  0  0
 36106  1  0  0  0
 37 39  1  0  0  0
 37 47  1  0  0  0
 37 66  1  0  0  0
 37107  1  0  0  0
 38 43  2  0  0  0
 38 46  1  0  0  0
 38 47  1  0  0  0
 39 64  1  0  0  0
 39 67  2  0  0  0
 40 52  1  0  0  0
 40 53  2  0  0  0
 40 58  1  0  0  0
 41108  1  0  0  0
 41109  1  0  0  0
 41110  1  0  0  0
 41 48  1  0  0  0
 42 43  1  0  0  0
 42 66  1  0  0  0
 42111  1  0  0  0
 42112  1  0  0  0
 43 44  1  0  0  0
 44113  1  0  0  0
 45 46  2  0  0  0
 45114  1  0  0  0
 46115  1  0  0  0
 47116  1  0  0  0
 47117  1  0  0  0
 48 56  1  0  0  0
 48 65  1  0  0  0
 48118  1  0  0  0
 49 50  1  0  0  0
 49 53  1  0  0  0
 49 64  1  0  0  0
 49119  1  0  0  0
 50 51  1  0  0  0
 50120  1  0  0  0
 50121  1  0  0  0
 51 52  1  0  0  0
 51122  1  0  0  0
 51123  1  0  0  0
 52124  1  0  0  0
 52125  1  0  0  0
 53 54  1  0  0  0
 54 55  2  0  0  0
 54126  1  0  0  0
 55 57  1  0  0  0
 55127  1  0  0  0
 56 69  2  0  0  0
 57 58  2  0  0  0
 57128  1  0  0  0
 58129  1  0  0  0
 59 60  1  0  0  0
 59 61  1  0  0  0
 59 62  1  0  0  0
 60130  1  0  0  0
 60131  1  0  0  0
 60132  1  0  0  0
 61133  1  0  0  0
 61134  1  0  0  0
 61135  1  0  0  0
 62136  1  0  0  0
 62137  1  0  0  0
 62138  1  0  0  0
 63 65  1  0  0  0
 63139  1  0  0  0
 63140  1  0  0  0
 63141  1  0  0  0
 64142  1  0  0  0
 65143  1  0  0  0
 68 82  1  0  0  0
 71 73  2  0  0  0
 71 83  1  0  0  0
 71144  1  0  0  0
 72 73  1  0  0  0
 72 74  2  0  0  0
 72 77  1  0  0  0
 73 78  1  0  0  0
 74 83  1  0  0  0
 74 84  1  0  0  0
 75 76  1  0  0  0
 75 77  1  0  0  0
 75145  1  0  0  0
 75146  1  0  0  0
 76 77  1  0  0  0
 76147  1  0  0  0
 76148  1  0  0  0
 77149  1  0  0  0
 78150  1  0  0  0
 78151  1  0  0  0
 78152  1  0  0  0
 79153  1  0  0  0
 79154  1  0  0  0
 79155  1  0  0  0
 79 82  1  0  0  0
 80 81  1  0  0  0
 80 82  1  0  0  0
 80156  1  0  0  0
 80157  1  0  0  0
 81 83  1  0  0  0
 81158  1  0  0  0
 81159  1  0  0  0
 82160  1  0  0  0
 84161  1  0  0  0
M  ISO  4   1 100  68 101  82 101  84 100
M  END
> <chiral flag>
0

> <version>
0

> <s_m_source_file>
/data/baiqing/PycharmProjects/Reinvent-master-3.2/result/LINK_invent/BTK/process_docking_weight1_custom_sum_contain_oxygen_bond_distance_aromatic_linkinvent_7_9_3/rearranged_h_0114.sdf

> <i_m_source_file_index>
39

> <r_mmod_Potential_Energy-OPLS-2005>
1755.76123046875

> <r_mmod_Stretch_Energy-OPLS-2005>
664.84033203125

> <r_mmod_Bend_Energy-OPLS-2005>
537.443725585938

> <r_mmod_Torsional_Energy-OPLS-2005>
508.604705810547

> <r_mmod_Improper_Torsional_Energy-OPLS-2005>
64.7400360107422

> <r_mmod_Van_der_Waal_Energy-OPLS-2005>
92.4396209716797

> <r_mmod_Electrostatic_Energy-OPLS-2005>
-404.030914306641

> <r_mmod_Solvation_Energy-OPLS-2005>
-205.15625

> <b_mmod_Minimization_Converged-OPLS-2005>
0

> <r_mmod_RMS_Derivative-OPLS-2005>
8.79438209533691

$$$$
39
                    3D
 Structure written by MMmdl.
159167  0  0  1  0            999 V2000
  -30.5816  -14.8314   20.4493 C   0  0  0  0  0  0
  -30.4377  -12.5191   19.4717 C   0  0  0  0  0  0
  -29.5098  -12.5157   18.2362 C   0  0  0  0  0  0
  -28.0421  -12.3199   18.6575 C   0  0  0  0  0  0
  -27.6349  -13.2365   19.8419 C   0  0  2  0  0  0
  -28.6807  -13.2118   20.9760 C   0  0  0  0  0  0
  -25.2483  -13.8199   20.5681 C   0  0  0  0  0  0
  -24.1787  -13.0442   20.9218 C   0  0  0  0  0  0
  -24.6389  -11.6922   20.8752 C   0  0  0  0  0  0
  -23.9077  -10.4294   21.0411 C   0  0  0  0  0  0
  -24.3628   -9.4205   21.9190 C   0  0  0  0  0  0
  -23.6304   -8.2235   22.0755 C   0  0  0  0  0  0
  -22.4288   -8.0278   21.3541 C   0  0  0  0  0  0
  -21.9923   -9.0249   20.4641 C   0  0  0  0  0  0
  -22.7248  -10.2136   20.3055 C   0  0  0  0  0  0
  -21.6855   -6.0738   22.5279 C   0  0  0  0  0  0
  -21.4012   -6.5643   23.8210 C   0  0  0  0  0  0
  -21.3654   -5.6798   24.9170 C   0  0  0  0  0  0
  -21.6041   -4.3059   24.7224 C   0  0  0  0  0  0
  -21.8821   -3.8152   23.4343 C   0  0  0  0  0  0
  -21.9194   -4.6967   22.3399 C   0  0  0  0  0  0
  -22.7800  -13.5210   21.1875 C   0  0  0  0  0  0
  -22.1662   -4.2152   21.0973 F   0  0  0  0  0  0
  -21.5630   -3.4545   25.7735 F   0  0  0  0  0  0
  -29.9680  -13.5942   20.3817 N   0  0  0  0  0  0
  -26.2905  -12.9414   20.3247 N   0  0  0  0  0  0
  -25.9321  -11.6557   20.5753 N   0  0  0  0  0  0
  -22.0451  -12.8183   22.0420 N   0  0  0  0  0  0
  -25.4159  -15.1927   20.4079 N   0  0  0  0  0  0
  -31.7820  -14.9120   20.1715 O   0  0  0  0  0  0
  -21.6645   -6.8880   21.4243 O   0  0  0  0  0  0
  -22.3477  -14.5508   20.6713 O   0  0  0  0  0  0
  -24.6383  -31.8481   23.1919 C   0  0  0  0  0  0
  -25.9171  -32.4713   23.8287 C   0  0  1  0  0  0
  -27.2252  -27.2015   20.1430 C   0  0  0  0  0  0
  -25.5937  -33.8523   24.2206 N   0  0  0  0  0  0
  -23.4374  -30.4691   21.5354 C   0  0  2  0  0  0
  -24.8844  -28.9003   20.1114 C   0  0  0  0  0  0
  -22.7534  -29.4587   22.4887 C   0  0  0  0  0  0
  -18.0310  -28.1387   22.8481 C   0  0  0  0  0  0
  -24.1485  -36.7289   23.2643 C   0  0  0  0  0  0
  -25.9870  -30.7431   21.3773 C   0  0  0  0  0  0
  -26.0577  -29.3601   20.7205 C   0  0  0  0  0  0
  -27.2272  -28.5256   20.7183 C   0  0  0  0  0  0
  -26.0227  -26.8155   19.5116 C   0  0  0  0  0  0
  -24.8753  -27.6377   19.4955 C   0  0  0  0  0  0
  -23.6585  -29.7950   20.1546 C   0  0  0  0  0  0
  -25.4118  -36.3051   24.0310 C   0  0  1  0  0  0
  -20.5921  -28.3732   23.1257 C   0  0  2  0  0  0
  -20.6813  -26.9442   22.5401 C   0  0  0  0  0  0
  -19.5785  -26.6433   21.5196 C   0  0  0  0  0  0
  -18.1984  -26.7915   22.1658 C   0  0  0  0  0  0
  -19.1563  -28.8874   23.2854 C   0  0  0  0  0  0
  -18.9482  -30.1466   23.8881 C   0  0  0  0  0  0
  -17.6479  -30.6581   24.0577 C   0  0  0  0  0  0
  -25.9064  -34.9423   23.5070 C   0  0  0  0  0  0
  -16.5374  -29.9079   23.6329 C   0  0  0  0  0  0
  -16.7292  -28.6496   23.0345 C   0  0  0  0  0  0
  -26.4513  -31.6576   25.0715 C   0  0  0  0  0  0
  -25.3711  -31.3766   26.1420 C   0  0  0  0  0  0
  -27.0378  -30.2981   24.6267 C   0  0  0  0  0  0
  -27.6038  -32.4359   25.7494 C   0  0  0  0  0  0
  -27.5570  -37.1802   24.8458 C   0  0  0  0  0  0
  -21.4237  -29.3069   22.3640 N   0  0  0  0  0  0
  -26.4289  -37.3755   23.9396 N   0  0  0  0  0  0
  -24.7071  -31.0404   22.0907 N   0  0  0  0  0  0
  -23.4220  -28.8119   23.2995 O   0  0  0  0  0  0
  -28.3334  -26.3057   20.2125 O   0  0  0  0  0  0
  -26.5646  -34.8913   22.4646 O   0  0  0  0  0  0
  -23.5521  -32.1327   23.7179 O   0  0  0  0  0  0
  -28.3206  -22.4147   21.3671 C   0  0  0  0  0  0
  -29.6878  -22.5602   19.3043 C   0  0  0  0  0  0
  -27.6301  -23.8362   21.0281 C   0  0  0  0  0  0
  -29.6609  -24.1235   19.6645 C   0  0  0  0  0  0
  -28.8858  -21.5171   20.1911 C   0  0  1  0  0  0
  -28.2739  -24.7980   19.9467 C   0  0  2  0  0  0
  -30.7217  -17.6667   22.2218 C   0  0  0  0  0  0
  -29.1979  -18.7507   20.4085 C   0  0  0  0  0  0
  -30.2215  -17.4890   20.7765 C   0  0  2  0  0  0
  -29.8099  -15.9903   20.6376 N   0  0  0  0  0  0
  -29.6920  -20.2257   20.5785 N   0  3  0  0  0  0
  -31.4710  -12.6712   19.1545 H   0  0  0  0  0  0
  -30.4189  -11.5526   19.9760 H   0  0  0  0  0  0
  -29.8074  -11.7305   17.5405 H   0  0  0  0  0  0
  -29.6106  -13.4585   17.6955 H   0  0  0  0  0  0
  -27.9216  -11.2745   18.9444 H   0  0  0  0  0  0
  -27.3785  -12.4803   17.8072 H   0  0  0  0  0  0
  -27.6151  -14.2482   19.4381 H   0  0  0  0  0  0
  -28.7408  -12.2214   21.4302 H   0  0  0  0  0  0
  -28.3997  -13.9032   21.7727 H   0  0  0  0  0  0
  -25.2771   -9.5687   22.4772 H   0  0  0  0  0  0
  -24.0011   -7.4630   22.7474 H   0  0  0  0  0  0
  -21.0858   -8.8772   19.8940 H   0  0  0  0  0  0
  -22.3709  -10.9679   19.6167 H   0  0  0  0  0  0
  -21.2005   -7.6156   23.9714 H   0  0  0  0  0  0
  -21.1471   -6.0526   25.9075 H   0  0  0  0  0  0
  -22.0610   -2.7615   23.2843 H   0  0  0  0  0  0
  -22.4085  -11.9855   22.4813 H   0  0  0  0  0  0
  -21.1060  -13.1183   22.2622 H   0  0  0  0  0  0
  -24.6411  -15.8407   20.5051 H   0  0  0  0  0  0
  -26.2490  -15.6297   20.0372 H   0  0  0  0  0  0
  -26.7231  -32.5339   23.1012 H   0  0  0  0  0  0
  -25.0035  -33.9636   25.0320 H   0  0  0  0  0  0
  -22.7374  -31.2930   21.3830 H   0  0  0  0  0  0
  -23.3738  -35.9630   23.3287 H   0  0  0  0  0  0
  -24.3568  -36.8956   22.2064 H   0  0  0  0  0  0
  -23.7250  -37.6483   23.6701 H   0  0  0  0  0  0
  -26.1344  -31.4996   20.6053 H   0  0  0  0  0  0
  -26.8618  -30.7935   22.0145 H   0  0  0  0  0  0
  -28.1262  -28.8779   21.2035 H   0  0  0  0  0  0
  -25.9377  -25.8481   19.0422 H   0  0  0  0  0  0
  -23.9756  -27.2756   19.0173 H   0  0  0  0  0  0
  -23.7896  -30.5671   19.3959 H   0  0  0  0  0  0
  -22.7764  -29.2306   19.8484 H   0  0  0  0  0  0
  -25.1306  -36.1884   25.0802 H   0  0  0  0  0  0
  -21.0014  -28.3325   24.1376 H   0  0  0  0  0  0
  -20.5706  -26.2331   23.3591 H   0  0  0  0  0  0
  -21.6685  -26.7459   22.1210 H   0  0  0  0  0  0
  -19.6709  -27.3296   20.6760 H   0  0  0  0  0  0
  -19.6964  -25.6372   21.1167 H   0  0  0  0  0  0
  -17.4226  -26.6548   21.4115 H   0  0  0  0  0  0
  -18.0482  -26.0085   22.9109 H   0  0  0  0  0  0
  -19.7959  -30.7281   24.2249 H   0  0  0  0  0  0
  -17.5029  -31.6251   24.5195 H   0  0  0  0  0  0
  -15.5379  -30.2976   23.7664 H   0  0  0  0  0  0
  -15.8688  -28.0815   22.7069 H   0  0  0  0  0  0
  -24.5869  -30.7134   25.7741 H   0  0  0  0  0  0
  -24.8922  -32.2960   26.4806 H   0  0  0  0  0  0
  -25.7996  -30.8959   27.0223 H   0  0  0  0  0  0
  -26.2987  -29.6707   24.1270 H   0  0  0  0  0  0
  -27.3991  -29.7274   25.4832 H   0  0  0  0  0  0
  -27.8891  -30.4223   23.9571 H   0  0  0  0  0  0
  -27.2600  -33.3663   26.2030 H   0  0  0  0  0  0
  -28.3860  -32.6927   25.0335 H   0  0  0  0  0  0
  -28.0692  -31.8531   26.5452 H   0  0  0  0  0  0
  -28.2587  -38.0097   24.7490 H   0  0  0  0  0  0
  -28.1065  -36.2625   24.6301 H   0  0  0  0  0  0
  -27.2286  -37.1479   25.8862 H   0  0  0  0  0  0
  -20.9430  -29.8816   21.6864 H   0  0  0  0  0  0
  -26.0158  -38.2827   24.1389 H   0  0  0  0  0  0
  -27.6151  -21.8221   21.9505 H   0  0  0  0  0  0
  -29.1482  -22.6183   22.0478 H   0  0  0  0  0  0
  -30.7356  -22.2617   19.2664 H   0  0  0  0  0  0
  -29.3378  -22.4487   18.2781 H   0  0  0  0  0  0
  -27.5518  -24.3903   21.9641 H   0  0  0  0  0  0
  -26.5971  -23.6571   20.7307 H   0  0  0  0  0  0
  -30.1480  -24.6681   18.8557 H   0  0  0  0  0  0
  -30.2975  -24.2869   20.5348 H   0  0  0  0  0  0
  -28.0315  -21.1811   19.6022 H   0  0  0  0  0  0
  -27.7212  -24.6631   19.0177 H   0  0  0  0  0  0
  -31.1733  -18.6466   22.3807 H   0  0  0  0  0  0
  -29.9050  -17.5609   22.9383 H   0  0  0  0  0  0
  -31.4801  -16.9238   22.4744 H   0  0  0  0  0  0
  -28.2902  -18.6489   21.0032 H   0  0  0  0  0  0
  -28.8806  -18.6399   19.3714 H   0  0  0  0  0  0
  -31.0888  -17.6035   20.1239 H   0  0  0  0  0  0
  -28.8265  -15.8064   20.7664 H   0  0  0  0  0  0
  -29.9820  -20.3356   21.5365 H   0  0  0  0  0  0
  -30.5371  -20.2746   20.0333 H   0  0  0  0  0  0
  1 25  1  0  0  0
  1 30  2  0  0  0
  1 80  1  0  0  0
  2  3  1  0  0  0
  2 25  1  0  0  0
  2 82  1  0  0  0
  2 83  1  0  0  0
  3  4  1  0  0  0
  3 84  1  0  0  0
  3 85  1  0  0  0
  4  5  1  0  0  0
  4 86  1  0  0  0
  4 87  1  0  0  0
  5  6  1  0  0  0
  5 26  1  0  0  0
  5 88  1  0  0  0
  6 25  1  0  0  0
  6 89  1  0  0  0
  6 90  1  0  0  0
  7  8  2  0  0  0
  7 26  1  0  0  0
  7 29  1  0  0  0
  8  9  1  0  0  0
  8 22  1  0  0  0
  9 10  1  0  0  0
  9 27  2  0  0  0
 10 11  2  0  0  0
 10 15  1  0  0  0
 11 12  1  0  0  0
 11 91  1  0  0  0
 12 13  2  0  0  0
 12 92  1  0  0  0
 13 14  1  0  0  0
 13 31  1  0  0  0
 14 15  2  0  0  0
 14 93  1  0  0  0
 15 94  1  0  0  0
 16 17  2  0  0  0
 16 21  1  0  0  0
 16 31  1  0  0  0
 17 18  1  0  0  0
 17 95  1  0  0  0
 18 19  2  0  0  0
 18 96  1  0  0  0
 19 20  1  0  0  0
 19 24  1  0  0  0
 20 21  2  0  0  0
 20 97  1  0  0  0
 21 23  1  0  0  0
 22 28  1  0  0  0
 22 32  2  0  0  0
 26 27  1  0  0  0
 28 98  1  0  0  0
 28 99  1  0  0  0
 29100  1  0  0  0
 29101  1  0  0  0
 33 34  1  0  0  0
 33 66  1  0  0  0
 33 70  2  0  0  0
 34 36  1  0  0  0
 34 59  1  0  0  0
 34102  1  0  0  0
 35 44  2  0  0  0
 35 45  1  0  0  0
 35 68  1  0  0  0
 36 56  1  0  0  0
 36103  1  0  0  0
 37 39  1  0  0  0
 37 47  1  0  0  0
 37 66  1  0  0  0
 37104  1  0  0  0
 38 43  2  0  0  0
 38 46  1  0  0  0
 38 47  1  0  0  0
 39 64  1  0  0  0
 39 67  2  0  0  0
 40 52  1  0  0  0
 40 53  2  0  0  0
 40 58  1  0  0  0
 41105  1  0  0  0
 41106  1  0  0  0
 41107  1  0  0  0
 41 48  1  0  0  0
 42 43  1  0  0  0
 42 66  1  0  0  0
 42108  1  0  0  0
 42109  1  0  0  0
 43 44  1  0  0  0
 44110  1  0  0  0
 45 46  2  0  0  0
 45111  1  0  0  0
 46112  1  0  0  0
 47113  1  0  0  0
 47114  1  0  0  0
 48 56  1  0  0  0
 48 65  1  0  0  0
 48115  1  0  0  0
 49 50  1  0  0  0
 49 53  1  0  0  0
 49 64  1  0  0  0
 49116  1  0  0  0
 50 51  1  0  0  0
 50117  1  0  0  0
 50118  1  0  0  0
 51 52  1  0  0  0
 51119  1  0  0  0
 51120  1  0  0  0
 52121  1  0  0  0
 52122  1  0  0  0
 53 54  1  0  0  0
 54 55  2  0  0  0
 54123  1  0  0  0
 55 57  1  0  0  0
 55124  1  0  0  0
 56 69  2  0  0  0
 57 58  2  0  0  0
 57125  1  0  0  0
 58126  1  0  0  0
 59 60  1  0  0  0
 59 61  1  0  0  0
 59 62  1  0  0  0
 60127  1  0  0  0
 60128  1  0  0  0
 60129  1  0  0  0
 61130  1  0  0  0
 61131  1  0  0  0
 61132  1  0  0  0
 62133  1  0  0  0
 62134  1  0  0  0
 62135  1  0  0  0
 63 65  1  0  0  0
 63136  1  0  0  0
 63137  1  0  0  0
 63138  1  0  0  0
 64139  1  0  0  0
 65140  1  0  0  0
 68 76  1  0  0  0
 71 73  1  0  0  0
 71 75  1  0  0  0
 71141  1  0  0  0
 71142  1  0  0  0
 72 74  1  0  0  0
 72 75  1  0  0  0
 72143  1  0  0  0
 72144  1  0  0  0
 73 76  1  0  0  0
 73145  1  0  0  0
 73146  1  0  0  0
 74 76  1  0  0  0
 74147  1  0  0  0
 74148  1  0  0  0
 75 81  1  0  0  0
 75149  1  0  0  0
 76150  1  0  0  0
 77151  1  0  0  0
 77152  1  0  0  0
 77153  1  0  0  0
 77 79  1  0  0  0
 78 79  1  0  0  0
 78 81  1  0  0  0
 78154  1  0  0  0
 78155  1  0  0  0
 79 80  1  0  0  0
 79156  1  0  0  0
 80157  1  0  0  0
 81158  1  0  0  0
 81159  1  0  0  0
M  CHG  1  81   1
M  ISO  4   1 100  68 101  76 101  80 100
M  END
> <chiral flag>
0

> <version>
0

> <s_m_source_file>
/data/baiqing/PycharmProjects/Reinvent-master-3.2/result/LINK_invent/BTK/process_docking_weight1_custom_sum_contain_oxygen_bond_distance_aromatic_linkinvent_7_9_3/rearranged_h_0114.sdf

> <i_m_source_file_index>
40

> <r_mmod_Potential_Energy-OPLS-2005>
134.114685058594

> <r_mmod_Stretch_Energy-OPLS-2005>
174.002899169922

> <r_mmod_Bend_Energy-OPLS-2005>
222.742431640625

> <r_mmod_Torsional_Energy-OPLS-2005>
260.270355224609

> <r_mmod_Improper_Torsional_Energy-OPLS-2005>
4.16505527496338

> <r_mmod_Van_der_Waal_Energy-OPLS-2005>
118.704437255859

> <r_mmod_Electrostatic_Energy-OPLS-2005>
-290.680511474609

> <r_mmod_Solvation_Energy-OPLS-2005>
-479.718505859375

> <b_mmod_Minimization_Converged-OPLS-2005>
0

> <r_mmod_RMS_Derivative-OPLS-2005>
1.9632853269577

$$$$
40
                    3D
 Structure written by MMmdl.
162170  0  0  1  0            999 V2000
  -30.6668  -14.8452   20.4506 C   0  0  0  0  0  0
  -30.4115  -12.5356   19.4826 C   0  0  0  0  0  0
  -29.4985  -12.4930   18.2415 C   0  0  0  0  0  0
  -28.0389  -12.2733   18.6721 C   0  0  0  0  0  0
  -27.6192  -13.2215   19.8217 C   0  0  2  0  0  0
  -28.6668  -13.2895   20.9586 C   0  0  0  0  0  0
  -25.2447  -13.8148   20.5704 C   0  0  0  0  0  0
  -24.1757  -13.0405   20.9250 C   0  0  0  0  0  0
  -24.6349  -11.6884   20.8789 C   0  0  0  0  0  0
  -23.9039  -10.4270   21.0438 C   0  0  0  0  0  0
  -24.3600   -9.4185   21.9207 C   0  0  0  0  0  0
  -23.6280   -8.2219   22.0761 C   0  0  0  0  0  0
  -22.4264   -8.0263   21.3546 C   0  0  0  0  0  0
  -21.9899   -9.0236   20.4650 C   0  0  0  0  0  0
  -22.7221  -10.2118   20.3072 C   0  0  0  0  0  0
  -21.6846   -6.0724   22.5278 C   0  0  0  0  0  0
  -21.4006   -6.5634   23.8209 C   0  0  0  0  0  0
  -21.3656   -5.6790   24.9174 C   0  0  0  0  0  0
  -21.6044   -4.3053   24.7227 C   0  0  0  0  0  0
  -21.8820   -3.8141   23.4350 C   0  0  0  0  0  0
  -21.9190   -4.6954   22.3404 C   0  0  0  0  0  0
  -22.7786  -13.5199   21.1896 C   0  0  0  0  0  0
  -22.1661   -4.2140   21.0982 F   0  0  0  0  0  0
  -21.5632   -3.4539   25.7742 F   0  0  0  0  0  0
  -29.9478  -13.6598   20.3466 N   0  0  0  0  0  0
  -26.2830  -12.9327   20.3211 N   0  0  0  0  0  0
  -25.9266  -11.6490   20.5768 N   0  0  0  0  0  0
  -22.0427  -12.8195   22.0450 N   0  0  0  0  0  0
  -25.4105  -15.1872   20.4099 N   0  0  0  0  0  0
  -31.8733  -14.7702   20.1974 O   0  0  0  0  0  0
  -21.6630   -6.8861   21.4238 O   0  0  0  0  0  0
  -22.3482  -14.5506   20.6736 O   0  0  0  0  0  0
  -24.6340  -31.8512   23.1933 C   0  0  0  0  0  0
  -25.9150  -32.4731   23.8296 C   0  0  1  0  0  0
  -27.2180  -27.2206   20.1518 C   0  0  0  0  0  0
  -25.5932  -33.8535   24.2221 N   0  0  0  0  0  0
  -23.4331  -30.4704   21.5373 C   0  0  2  0  0  0
  -24.8822  -28.9045   20.1133 C   0  0  0  0  0  0
  -22.7516  -29.4580   22.4898 C   0  0  0  0  0  0
  -18.0296  -28.1392   22.8482 C   0  0  0  0  0  0
  -24.1492  -36.7270   23.2643 C   0  0  0  0  0  0
  -25.9807  -30.7519   21.3783 C   0  0  0  0  0  0
  -26.0540  -29.3683   20.7261 C   0  0  0  0  0  0
  -27.2263  -28.5403   20.7287 C   0  0  0  0  0  0
  -26.0300  -26.8337   19.5003 C   0  0  0  0  0  0
  -24.8770  -27.6469   19.4877 C   0  0  0  0  0  0
  -23.6549  -29.7975   20.1560 C   0  0  0  0  0  0
  -25.4120  -36.3052   24.0322 C   0  0  1  0  0  0
  -20.5900  -28.3704   23.1265 C   0  0  2  0  0  0
  -20.6785  -26.9418   22.5410 C   0  0  0  0  0  0
  -19.5760  -26.6381   21.5216 C   0  0  0  0  0  0
  -18.1938  -26.7933   22.1624 C   0  0  0  0  0  0
  -19.1550  -28.8864   23.2869 C   0  0  0  0  0  0
  -18.9473  -30.1466   23.8888 C   0  0  0  0  0  0
  -17.6470  -30.6593   24.0563 C   0  0  0  0  0  0
  -25.9063  -34.9427   23.5077 C   0  0  0  0  0  0
  -16.5361  -29.9090   23.6336 C   0  0  0  0  0  0
  -16.7281  -28.6508   23.0354 C   0  0  0  0  0  0
  -26.4505  -31.6570   25.0702 C   0  0  0  0  0  0
  -25.3710  -31.3733   26.1409 C   0  0  0  0  0  0
  -27.0364  -30.2984   24.6214 C   0  0  0  0  0  0
  -27.6050  -32.4321   25.7481 C   0  0  0  0  0  0
  -27.5576  -37.1788   24.8466 C   0  0  0  0  0  0
  -21.4218  -29.3045   22.3646 N   0  0  0  0  0  0
  -26.4288  -37.3757   23.9408 N   0  0  0  0  0  0
  -24.7019  -31.0440   22.0927 N   0  0  0  0  0  0
  -23.4195  -28.8134   23.3024 O   0  0  0  0  0  0
  -28.3107  -26.3114   20.1621 O   0  0  0  0  0  0
  -26.5646  -34.8913   22.4653 O   0  0  0  0  0  0
  -23.5480  -32.1351   23.7206 O   0  0  0  0  0  0
  -30.7061  -18.7547   20.4590 C   0  0  0  0  0  0
  -28.4144  -18.1308   20.1473 C   0  0  0  0  0  0
  -30.9977  -17.3070   21.0618 C   0  0  0  0  0  0
  -28.7138  -16.6580   20.7187 C   0  0  0  0  0  0
  -29.2728  -19.3446   20.6781 C   0  0  0  0  0  0
  -30.2111  -22.2682   21.6201 C   0  0  0  0  0  0
  -27.0327  -24.7677   21.7186 C   0  0  0  0  0  0
  -28.5614  -23.4965   20.0107 C   0  0  0  0  0  0
  -28.9166  -22.0805   20.8069 C   0  0  1  0  0  0
  -28.2573  -24.9192   20.7958 C   0  0  1  0  0  0
  -30.1189  -16.1436   20.6715 N   0  0  0  0  0  0
  -28.9929  -20.7376   20.0152 N   0  3  0  0  0  0
  -31.4494  -12.6394   19.1632 H   0  0  0  0  0  0
  -30.3688  -11.5910   20.0276 H   0  0  0  0  0  0
  -29.8131  -11.6955   17.5669 H   0  0  0  0  0  0
  -29.5865  -13.4247   17.6805 H   0  0  0  0  0  0
  -27.9453  -11.2366   18.9974 H   0  0  0  0  0  0
  -27.3682  -12.3861   17.8192 H   0  0  0  0  0  0
  -27.5604  -14.1879   19.3324 H   0  0  0  0  0  0
  -28.7458  -12.3333   21.4776 H   0  0  0  0  0  0
  -28.3745  -14.0235   21.7104 H   0  0  0  0  0  0
  -25.2741   -9.5662   22.4789 H   0  0  0  0  0  0
  -23.9986   -7.4605   22.7475 H   0  0  0  0  0  0
  -21.0833   -8.8751   19.8951 H   0  0  0  0  0  0
  -22.3680  -10.9662   19.6186 H   0  0  0  0  0  0
  -21.1994   -7.6141   23.9709 H   0  0  0  0  0  0
  -21.1480   -6.0523   25.9076 H   0  0  0  0  0  0
  -22.0605   -2.7603   23.2855 H   0  0  0  0  0  0
  -22.4037  -11.9851   22.4835 H   0  0  0  0  0  0
  -21.1045  -13.1223   22.2652 H   0  0  0  0  0  0
  -24.6399  -15.8359   20.5264 H   0  0  0  0  0  0
  -26.2520  -15.6293   20.0665 H   0  0  0  0  0  0
  -26.7217  -32.5371   23.1034 H   0  0  0  0  0  0
  -25.0062  -33.9666   25.0355 H   0  0  0  0  0  0
  -22.7314  -31.2933   21.3855 H   0  0  0  0  0  0
  -23.3758  -35.9599   23.3296 H   0  0  0  0  0  0
  -24.3579  -36.8904   22.2059 H   0  0  0  0  0  0
  -23.7243  -37.6465   23.6681 H   0  0  0  0  0  0
  -26.1220  -31.5077   20.6045 H   0  0  0  0  0  0
  -26.8576  -30.8053   22.0122 H   0  0  0  0  0  0
  -28.1258  -28.8914   21.2150 H   0  0  0  0  0  0
  -25.9866  -25.8679   19.0167 H   0  0  0  0  0  0
  -23.9818  -27.2875   18.9990 H   0  0  0  0  0  0
  -23.7840  -30.5713   19.3979 H   0  0  0  0  0  0
  -22.7726  -29.2329   19.8495 H   0  0  0  0  0  0
  -25.1308  -36.1885   25.0814 H   0  0  0  0  0  0
  -20.9996  -28.3288   24.1386 H   0  0  0  0  0  0
  -20.5692  -26.2316   23.3617 H   0  0  0  0  0  0
  -21.6652  -26.7444   22.1198 H   0  0  0  0  0  0
  -19.6925  -25.6290   21.1251 H   0  0  0  0  0  0
  -19.6702  -27.3189   20.6745 H   0  0  0  0  0  0
  -17.4211  -26.6686   21.4024 H   0  0  0  0  0  0
  -18.0337  -26.0078   22.9020 H   0  0  0  0  0  0
  -19.7951  -30.7285   24.2250 H   0  0  0  0  0  0
  -17.5028  -31.6273   24.5165 H   0  0  0  0  0  0
  -15.5364  -30.2990   23.7669 H   0  0  0  0  0  0
  -15.8680  -28.0825   22.7074 H   0  0  0  0  0  0
  -24.5899  -30.7070   25.7727 H   0  0  0  0  0  0
  -24.8888  -32.2909   26.4791 H   0  0  0  0  0  0
  -25.8006  -30.8933   27.0211 H   0  0  0  0  0  0
  -26.2961  -29.6712   24.1233 H   0  0  0  0  0  0
  -27.4039  -29.7263   25.4744 H   0  0  0  0  0  0
  -27.8837  -30.4254   23.9471 H   0  0  0  0  0  0
  -27.2656  -33.3640   26.2012 H   0  0  0  0  0  0
  -28.3882  -32.6843   25.0320 H   0  0  0  0  0  0
  -28.0692  -31.8472   26.5430 H   0  0  0  0  0  0
  -28.2583  -38.0095   24.7511 H   0  0  0  0  0  0
  -28.1080  -36.2622   24.6292 H   0  0  0  0  0  0
  -27.2293  -37.1432   25.8869 H   0  0  0  0  0  0
  -20.9414  -29.8749   21.6828 H   0  0  0  0  0  0
  -26.0159  -38.2826   24.1413 H   0  0  0  0  0  0
  -30.9165  -18.7215   19.3891 H   0  0  0  0  0  0
  -31.4362  -19.4513   20.8731 H   0  0  0  0  0  0
  -27.3612  -18.3521   20.3235 H   0  0  0  0  0  0
  -28.5173  -18.0881   19.0619 H   0  0  0  0  0  0
  -30.9487  -17.3777   22.1494 H   0  0  0  0  0  0
  -32.0444  -17.0872   20.8502 H   0  0  0  0  0  0
  -28.0738  -15.9799   20.1759 H   0  0  0  0  0  0
  -28.3853  -16.6080   21.7579 H   0  0  0  0  0  0
  -29.0835  -19.4439   21.7478 H   0  0  0  0  0  0
  -30.1425  -23.1279   22.2852 H   0  0  0  0  0  0
  -31.0701  -22.4230   20.9669 H   0  0  0  0  0  0
  -30.4236  -21.4050   22.2503 H   0  0  0  0  0  0
  -27.1300  -23.8963   22.3653 H   0  0  0  0  0  0
  -26.1109  -24.6453   21.1510 H   0  0  0  0  0  0
  -26.9159  -25.6308   22.3741 H   0  0  0  0  0  0
  -27.7059  -23.3067   19.3624 H   0  0  0  0  0  0
  -29.3881  -23.6878   19.3263 H   0  0  0  0  0  0
  -28.1107  -21.9229   21.5245 H   0  0  0  0  0  0
  -29.0994  -25.0039   21.4823 H   0  0  0  0  0  0
  -28.0934  -20.6471   19.5700 H   0  0  0  0  0  0
  -29.6529  -20.8542   19.2632 H   0  0  0  0  0  0
  1 25  1  0  0  0
  1 30  2  0  0  0
  1 81  1  0  0  0
  2  3  1  0  0  0
  2 25  1  0  0  0
  2 83  1  0  0  0
  2 84  1  0  0  0
  3  4  1  0  0  0
  3 85  1  0  0  0
  3 86  1  0  0  0
  4  5  1  0  0  0
  4 87  1  0  0  0
  4 88  1  0  0  0
  5  6  1  0  0  0
  5 26  1  0  0  0
  5 89  1  0  0  0
  6 25  1  0  0  0
  6 90  1  0  0  0
  6 91  1  0  0  0
  7  8  2  0  0  0
  7 26  1  0  0  0
  7 29  1  0  0  0
  8  9  1  0  0  0
  8 22  1  0  0  0
  9 10  1  0  0  0
  9 27  2  0  0  0
 10 11  2  0  0  0
 10 15  1  0  0  0
 11 12  1  0  0  0
 11 92  1  0  0  0
 12 13  2  0  0  0
 12 93  1  0  0  0
 13 14  1  0  0  0
 13 31  1  0  0  0
 14 15  2  0  0  0
 14 94  1  0  0  0
 15 95  1  0  0  0
 16 17  2  0  0  0
 16 21  1  0  0  0
 16 31  1  0  0  0
 17 18  1  0  0  0
 17 96  1  0  0  0
 18 19  2  0  0  0
 18 97  1  0  0  0
 19 20  1  0  0  0
 19 24  1  0  0  0
 20 21  2  0  0  0
 20 98  1  0  0  0
 21 23  1  0  0  0
 22 28  1  0  0  0
 22 32  2  0  0  0
 26 27  1  0  0  0
 28 99  1  0  0  0
 28100  1  0  0  0
 29101  1  0  0  0
 29102  1  0  0  0
 33 34  1  0  0  0
 33 66  1  0  0  0
 33 70  2  0  0  0
 34 36  1  0  0  0
 34 59  1  0  0  0
 34103  1  0  0  0
 35 44  2  0  0  0
 35 45  1  0  0  0
 35 68  1  0  0  0
 36 56  1  0  0  0
 36104  1  0  0  0
 37 39  1  0  0  0
 37 47  1  0  0  0
 37 66  1  0  0  0
 37105  1  0  0  0
 38 43  2  0  0  0
 38 46  1  0  0  0
 38 47  1  0  0  0
 39 64  1  0  0  0
 39 67  2  0  0  0
 40 52  1  0  0  0
 40 53  2  0  0  0
 40 58  1  0  0  0
 41106  1  0  0  0
 41107  1  0  0  0
 41108  1  0  0  0
 41 48  1  0  0  0
 42 43  1  0  0  0
 42 66  1  0  0  0
 42109  1  0  0  0
 42110  1  0  0  0
 43 44  1  0  0  0
 44111  1  0  0  0
 45 46  2  0  0  0
 45112  1  0  0  0
 46113  1  0  0  0
 47114  1  0  0  0
 47115  1  0  0  0
 48 56  1  0  0  0
 48 65  1  0  0  0
 48116  1  0  0  0
 49 50  1  0  0  0
 49 53  1  0  0  0
 49 64  1  0  0  0
 49117  1  0  0  0
 50 51  1  0  0  0
 50118  1  0  0  0
 50119  1  0  0  0
 51 52  1  0  0  0
 51120  1  0  0  0
 51121  1  0  0  0
 52122  1  0  0  0
 52123  1  0  0  0
 53 54  1  0  0  0
 54 55  2  0  0  0
 54124  1  0  0  0
 55 57  1  0  0  0
 55125  1  0  0  0
 56 69  2  0  0  0
 57 58  2  0  0  0
 57126  1  0  0  0
 58127  1  0  0  0
 59 60  1  0  0  0
 59 61  1  0  0  0
 59 62  1  0  0  0
 60128  1  0  0  0
 60129  1  0  0  0
 60130  1  0  0  0
 61131  1  0  0  0
 61132  1  0  0  0
 61133  1  0  0  0
 62134  1  0  0  0
 62135  1  0  0  0
 62136  1  0  0  0
 63 65  1  0  0  0
 63137  1  0  0  0
 63138  1  0  0  0
 63139  1  0  0  0
 64140  1  0  0  0
 65141  1  0  0  0
 68 80  1  0  0  0
 71 73  1  0  0  0
 71 75  1  0  0  0
 71142  1  0  0  0
 71143  1  0  0  0
 72 74  1  0  0  0
 72 75  1  0  0  0
 72144  1  0  0  0
 72145  1  0  0  0
 73 81  1  0  0  0
 73146  1  0  0  0
 73147  1  0  0  0
 74 81  1  0  0  0
 74148  1  0  0  0
 74149  1  0  0  0
 75 82  1  0  0  0
 75150  1  0  0  0
 76151  1  0  0  0
 76152  1  0  0  0
 76153  1  0  0  0
 76 79  1  0  0  0
 77154  1  0  0  0
 77155  1  0  0  0
 77156  1  0  0  0
 77 80  1  0  0  0
 78 79  1  0  0  0
 78 80  1  0  0  0
 78157  1  0  0  0
 78158  1  0  0  0
 79 82  1  0  0  0
 79159  1  0  0  0
 80160  1  0  0  0
 82161  1  0  0  0
 82162  1  0  0  0
M  CHG  1  82   1
M  ISO  4   1 100  68 101  80 101  81 100
M  END
> <chiral flag>
0

> <version>
0

> <s_m_source_file>
/data/baiqing/PycharmProjects/Reinvent-master-3.2/result/LINK_invent/BTK/process_docking_weight1_custom_sum_contain_oxygen_bond_distance_aromatic_linkinvent_7_9_3/rearranged_h_0114.sdf

> <i_m_source_file_index>
41

> <r_mmod_Potential_Energy-OPLS-2005>
412.982635498047

> <r_mmod_Stretch_Energy-OPLS-2005>
174.564743041992

> <r_mmod_Bend_Energy-OPLS-2005>
257.311218261719

> <r_mmod_Torsional_Energy-OPLS-2005>
335.245971679688

> <r_mmod_Improper_Torsional_Energy-OPLS-2005>
2.98887705802917

> <r_mmod_Van_der_Waal_Energy-OPLS-2005>
123.248573303223

> <r_mmod_Electrostatic_Energy-OPLS-2005>
-149.549606323242

> <r_mmod_Solvation_Energy-OPLS-2005>
-459.66943359375

> <b_mmod_Minimization_Converged-OPLS-2005>
0

> <r_mmod_RMS_Derivative-OPLS-2005>
0.609962642192841

$$$$
41
                    3D
 Structure written by MMmdl.
175184  0  0  1  0            999 V2000
  -30.7192  -14.4810   20.5104 C   0  0  0  0  0  0
  -30.4304  -12.2941   19.4264 C   0  0  0  0  0  0
  -29.4981  -12.4543   18.2093 C   0  0  0  0  0  0
  -28.0204  -12.3235   18.6333 C   0  0  0  0  0  0
  -27.6589  -13.1928   19.8678 C   0  0  2  0  0  0
  -28.7117  -13.0331   20.9882 C   0  0  0  0  0  0
  -25.2612  -13.8086   20.5737 C   0  0  0  0  0  0
  -24.1811  -13.0423   20.9192 C   0  0  0  0  0  0
  -24.6345  -11.6890   20.8759 C   0  0  0  0  0  0
  -23.8995  -10.4275   21.0445 C   0  0  0  0  0  0
  -24.3571   -9.4201   21.9236 C   0  0  0  0  0  0
  -23.6259   -8.2226   22.0795 C   0  0  0  0  0  0
  -22.4250   -8.0244   21.3551 C   0  0  0  0  0  0
  -21.9866   -9.0227   20.4684 C   0  0  0  0  0  0
  -22.7182  -10.2116   20.3115 C   0  0  0  0  0  0
  -21.6838   -6.0709   22.5268 C   0  0  0  0  0  0
  -21.3998   -6.5624   23.8196 C   0  0  0  0  0  0
  -21.3672   -5.6781   24.9159 C   0  0  0  0  0  0
  -21.6055   -4.3044   24.7211 C   0  0  0  0  0  0
  -21.8809   -3.8132   23.4332 C   0  0  0  0  0  0
  -21.9192   -4.6942   22.3395 C   0  0  0  0  0  0
  -22.7843  -13.5274   21.1815 C   0  0  0  0  0  0
  -22.1681   -4.2144   21.0970 F   0  0  0  0  0  0
  -21.5655   -3.4536   25.7725 F   0  0  0  0  0  0
  -30.0363  -13.3122   20.4098 N   0  0  0  0  0  0
  -26.3021  -12.9233   20.3393 N   0  0  0  0  0  0
  -25.9271  -11.6411   20.5824 N   0  0  0  0  0  0
  -22.0419  -12.8333   22.0366 N   0  0  0  0  0  0
  -25.4345  -15.1800   20.4140 N   0  0  0  0  0  0
  -31.8960  -14.6091   20.1587 O   0  0  0  0  0  0
  -21.6608   -6.8849   21.4231 O   0  0  0  0  0  0
  -22.3576  -14.5593   20.6681 O   0  0  0  0  0  0
  -24.6094  -31.8698   23.2147 C   0  0  0  0  0  0
  -25.9019  -32.4835   23.8426 C   0  0  1  0  0  0
  -27.2354  -27.4644   20.1111 C   0  0  0  0  0  0
  -25.5898  -33.8631   24.2365 N   0  0  0  0  0  0
  -23.3977  -30.4930   21.5524 C   0  0  2  0  0  0
  -24.8489  -28.9664   20.1123 C   0  0  0  0  0  0
  -22.7397  -29.4653   22.4998 C   0  0  0  0  0  0
  -18.0259  -28.1374   22.8487 C   0  0  0  0  0  0
  -24.1485  -36.7314   23.2635 C   0  0  0  0  0  0
  -25.9218  -30.8458   21.3649 C   0  0  0  0  0  0
  -26.0013  -29.4806   20.7187 C   0  0  0  0  0  0
  -27.1965  -28.7315   20.7276 C   0  0  0  0  0  0
  -26.0721  -26.9564   19.4944 C   0  0  0  0  0  0
  -24.8770  -27.7010   19.4979 C   0  0  0  0  0  0
  -23.6069  -29.8272   20.1646 C   0  0  0  0  0  0
  -25.4101  -36.3112   24.0346 C   0  0  1  0  0  0
  -20.5846  -28.3650   23.1333 C   0  0  2  0  0  0
  -20.6753  -26.9393   22.5429 C   0  0  0  0  0  0
  -19.5737  -26.6386   21.5216 C   0  0  0  0  0  0
  -18.1908  -26.7920   22.1615 C   0  0  0  0  0  0
  -19.1510  -28.8831   23.2901 C   0  0  0  0  0  0
  -18.9435  -30.1434   23.8910 C   0  0  0  0  0  0
  -17.6440  -30.6577   24.0568 C   0  0  0  0  0  0
  -25.9029  -34.9480   23.5145 C   0  0  0  0  0  0
  -16.5329  -29.9083   23.6326 C   0  0  0  0  0  0
  -16.7251  -28.6506   23.0336 C   0  0  0  0  0  0
  -26.4479  -31.6589   25.0726 C   0  0  0  0  0  0
  -25.3781  -31.3665   26.1499 C   0  0  0  0  0  0
  -27.0315  -30.3042   24.6068 C   0  0  0  0  0  0
  -27.6075  -32.4294   25.7469 C   0  0  0  0  0  0
  -27.5584  -37.1804   24.8465 C   0  0  0  0  0  0
  -21.4128  -29.3015   22.3752 N   0  0  0  0  0  0
  -26.4292  -37.3795   23.9415 N   0  0  0  0  0  0
  -24.6613  -31.0831   22.1027 N   0  0  0  0  0  0
  -23.4189  -28.8181   23.3027 O   0  0  0  0  0  0
  -28.3840  -26.7120   20.1545 O   0  0  0  0  0  0
  -26.5574  -34.8923   22.4700 O   0  0  0  0  0  0
  -23.5309  -32.1432   23.7569 O   0  0  0  0  0  0
  -30.3514  -17.9846   21.5047 C   0  0  0  0  0  0
  -28.5484  -17.4356   19.8056 C   0  0  0  0  0  0
  -30.0832  -22.2614   20.1787 C   0  0  0  0  0  0
  -27.6305  -21.8606   19.7757 C   0  0  0  0  0  0
  -30.2674  -16.4727   21.8626 C   0  0  0  0  0  0
  -29.5661  -16.3223   19.5004 C   0  0  0  0  0  0
  -29.8986  -20.9208   20.9592 C   0  0  0  0  0  0
  -27.9065  -20.3513   19.5905 C   0  0  0  0  0  0
  -29.0734  -18.5131   20.7984 C   0  0  0  0  0  0
  -28.8424  -22.6996   19.3536 C   0  0  1  0  0  0
  -29.1294  -24.8709   17.0767 C   0  0  0  0  0  0
  -30.3661  -27.4208   19.0734 C   0  0  0  0  0  0
  -29.3677  -25.0903   18.5875 C   0  0  1  0  0  0
  -29.0865  -26.5873   18.9253 C   0  0  1  0  0  0
  -29.9665  -15.5897   20.7155 N   0  0  0  0  0  0
  -29.2096  -19.8687   20.1520 N   0  3  2  0  0  0
  -28.5410  -24.1642   19.4195 N   0  3  0  0  0  0
  -31.4745  -12.3886   19.1196 H   0  0  0  0  0  0
  -30.3379  -11.3005   19.8652 H   0  0  0  0  0  0
  -29.7319  -11.6994   17.4572 H   0  0  0  0  0  0
  -29.6634  -13.4190   17.7299 H   0  0  0  0  0  0
  -27.8479  -11.2706   18.8617 H   0  0  0  0  0  0
  -27.3644  -12.5674   17.7984 H   0  0  0  0  0  0
  -27.6762  -14.2233   19.5291 H   0  0  0  0  0  0
  -28.6907  -12.0179   21.3874 H   0  0  0  0  0  0
  -28.4912  -13.7015   21.8239 H   0  0  0  0  0  0
  -25.2730   -9.5672   22.4800 H   0  0  0  0  0  0
  -23.9967   -7.4608   22.7531 H   0  0  0  0  0  0
  -21.0800   -8.8749   19.8986 H   0  0  0  0  0  0
  -22.3655  -10.9660   19.6226 H   0  0  0  0  0  0
  -21.1961   -7.6130   23.9701 H   0  0  0  0  0  0
  -21.1549   -6.0510   25.9065 H   0  0  0  0  0  0
  -22.0587   -2.7598   23.2826 H   0  0  0  0  0  0
  -22.3963  -11.9985   22.4776 H   0  0  0  0  0  0
  -21.1098  -13.1517   22.2612 H   0  0  0  0  0  0
  -24.6614  -15.8274   20.5062 H   0  0  0  0  0  0
  -26.2840  -15.6108   20.0732 H   0  0  0  0  0  0
  -26.7088  -32.5574   23.1198 H   0  0  0  0  0  0
  -25.0109  -33.9801   25.0549 H   0  0  0  0  0  0
  -22.6833  -31.3074   21.4175 H   0  0  0  0  0  0
  -23.3751  -35.9643   23.3298 H   0  0  0  0  0  0
  -24.3594  -36.8923   22.2052 H   0  0  0  0  0  0
  -23.7235  -37.6521   23.6645 H   0  0  0  0  0  0
  -26.0282  -31.6113   20.5944 H   0  0  0  0  0  0
  -26.8121  -30.9038   21.9793 H   0  0  0  0  0  0
  -28.0843  -29.1174   21.2090 H   0  0  0  0  0  0
  -26.0770  -25.9830   19.0273 H   0  0  0  0  0  0
  -23.9900  -27.2994   19.0288 H   0  0  0  0  0  0
  -23.7102  -30.6040   19.4067 H   0  0  0  0  0  0
  -22.7329  -29.2428   19.8705 H   0  0  0  0  0  0
  -25.1269  -36.1987   25.0839 H   0  0  0  0  0  0
  -20.9925  -28.3216   24.1456 H   0  0  0  0  0  0
  -20.5662  -26.2253   23.3606 H   0  0  0  0  0  0
  -21.6624  -26.7448   22.1214 H   0  0  0  0  0  0
  -19.6902  -25.6303   21.1225 H   0  0  0  0  0  0
  -19.6678  -27.3216   20.6761 H   0  0  0  0  0  0
  -17.4184  -26.6665   21.4009 H   0  0  0  0  0  0
  -18.0299  -26.0059   22.9006 H   0  0  0  0  0  0
  -19.7913  -30.7245   24.2291 H   0  0  0  0  0  0
  -17.4995  -31.6256   24.5171 H   0  0  0  0  0  0
  -15.5332  -30.2986   23.7652 H   0  0  0  0  0  0
  -15.8641  -28.0838   22.7034 H   0  0  0  0  0  0
  -24.5956  -30.7000   25.7852 H   0  0  0  0  0  0
  -24.8971  -32.2805   26.4984 H   0  0  0  0  0  0
  -25.8168  -30.8824   27.0231 H   0  0  0  0  0  0
  -26.2837  -29.6774   24.1193 H   0  0  0  0  0  0
  -27.4188  -29.7293   25.4489 H   0  0  0  0  0  0
  -27.8622  -30.4375   23.9137 H   0  0  0  0  0  0
  -27.2725  -33.3596   26.2059 H   0  0  0  0  0  0
  -28.3868  -32.6836   25.0277 H   0  0  0  0  0  0
  -28.0759  -31.8409   26.5365 H   0  0  0  0  0  0
  -28.2596  -38.0107   24.7531 H   0  0  0  0  0  0
  -28.1081  -36.2641   24.6257 H   0  0  0  0  0  0
  -27.2308  -37.1420   25.8869 H   0  0  0  0  0  0
  -20.9289  -29.8752   21.6979 H   0  0  0  0  0  0
  -26.0183  -38.2873   24.1430 H   0  0  0  0  0  0
  -31.2249  -18.1434   20.8698 H   0  0  0  0  0  0
  -30.5290  -18.5533   22.4171 H   0  0  0  0  0  0
  -27.6626  -16.9781   20.2443 H   0  0  0  0  0  0
  -28.2075  -17.8581   18.8611 H   0  0  0  0  0  0
  -30.9286  -22.1643   19.4974 H   0  0  0  0  0  0
  -30.3791  -23.0341   20.8890 H   0  0  0  0  0  0
  -27.3612  -22.0679   20.8110 H   0  0  0  0  0  0
  -26.7591  -22.1242   19.1757 H   0  0  0  0  0  0
  -29.4735  -16.3179   22.5951 H   0  0  0  0  0  0
  -31.1946  -16.1720   22.3523 H   0  0  0  0  0  0
  -30.4512  -16.7489   19.0246 H   0  0  0  0  0  0
  -29.1396  -15.6443   18.7612 H   0  0  0  0  0  0
  -29.3274  -21.0976   21.8707 H   0  0  0  0  0  0
  -30.8800  -20.5830   21.2891 H   0  0  0  0  0  0
  -27.8959  -20.1127   18.5284 H   0  0  0  0  0  0
  -27.0686  -19.8084   20.0296 H   0  0  0  0  0  0
  -28.3185  -18.6259   21.5795 H   0  0  0  0  0  0
  -29.0223  -22.4370   18.3113 H   0  0  0  0  0  0
  -29.6700  -25.6135   16.4877 H   0  0  0  0  0  0
  -28.0719  -24.9745   16.8247 H   0  0  0  0  0  0
  -29.4644  -23.8943   16.7316 H   0  0  0  0  0  0
  -30.9863  -27.3660   18.1799 H   0  0  0  0  0  0
  -30.9634  -27.0780   19.9186 H   0  0  0  0  0  0
  -30.1281  -28.4706   19.2482 H   0  0  0  0  0  0
  -30.4146  -24.8780   18.8104 H   0  0  0  0  0  0
  -28.5006  -27.0355   18.1190 H   0  0  0  0  0  0
  -29.8192  -19.7187   19.3603 H   0  0  0  0  0  0
  -28.5922  -24.4786   20.3799 H   0  0  0  0  0  0
  -27.5806  -24.2882   19.1394 H   0  0  0  0  0  0
  1 25  1  0  0  0
  1 30  2  0  0  0
  1 85  1  0  0  0
  2  3  1  0  0  0
  2 25  1  0  0  0
  2 88  1  0  0  0
  2 89  1  0  0  0
  3  4  1  0  0  0
  3 90  1  0  0  0
  3 91  1  0  0  0
  4  5  1  0  0  0
  4 92  1  0  0  0
  4 93  1  0  0  0
  5  6  1  0  0  0
  5 26  1  0  0  0
  5 94  1  0  0  0
  6 25  1  0  0  0
  6 95  1  0  0  0
  6 96  1  0  0  0
  7  8  2  0  0  0
  7 26  1  0  0  0
  7 29  1  0  0  0
  8  9  1  0  0  0
  8 22  1  0  0  0
  9 10  1  0  0  0
  9 27  2  0  0  0
 10 11  2  0  0  0
 10 15  1  0  0  0
 11 12  1  0  0  0
 11 97  1  0  0  0
 12 13  2  0  0  0
 12 98  1  0  0  0
 13 14  1  0  0  0
 13 31  1  0  0  0
 14 15  2  0  0  0
 14 99  1  0  0  0
 15100  1  0  0  0
 16 17  2  0  0  0
 16 21  1  0  0  0
 16 31  1  0  0  0
 17 18  1  0  0  0
 17101  1  0  0  0
 18 19  2  0  0  0
 18102  1  0  0  0
 19 20  1  0  0  0
 19 24  1  0  0  0
 20 21  2  0  0  0
 20103  1  0  0  0
 21 23  1  0  0  0
 22 28  1  0  0  0
 22 32  2  0  0  0
 26 27  1  0  0  0
 28104  1  0  0  0
 28105  1  0  0  0
 29106  1  0  0  0
 29107  1  0  0  0
 33 34  1  0  0  0
 33 66  1  0  0  0
 33 70  2  0  0  0
 34 36  1  0  0  0
 34 59  1  0  0  0
 34108  1  0  0  0
 35 44  2  0  0  0
 35 45  1  0  0  0
 35 68  1  0  0  0
 36 56  1  0  0  0
 36109  1  0  0  0
 37 39  1  0  0  0
 37 47  1  0  0  0
 37 66  1  0  0  0
 37110  1  0  0  0
 38 43  2  0  0  0
 38 46  1  0  0  0
 38 47  1  0  0  0
 39 64  1  0  0  0
 39 67  2  0  0  0
 40 52  1  0  0  0
 40 53  2  0  0  0
 40 58  1  0  0  0
 41111  1  0  0  0
 41112  1  0  0  0
 41113  1  0  0  0
 41 48  1  0  0  0
 42 43  1  0  0  0
 42 66  1  0  0  0
 42114  1  0  0  0
 42115  1  0  0  0
 43 44  1  0  0  0
 44116  1  0  0  0
 45 46  2  0  0  0
 45117  1  0  0  0
 46118  1  0  0  0
 47119  1  0  0  0
 47120  1  0  0  0
 48 56  1  0  0  0
 48 65  1  0  0  0
 48121  1  0  0  0
 49 50  1  0  0  0
 49 53  1  0  0  0
 49 64  1  0  0  0
 49122  1  0  0  0
 50 51  1  0  0  0
 50123  1  0  0  0
 50124  1  0  0  0
 51 52  1  0  0  0
 51125  1  0  0  0
 51126  1  0  0  0
 52127  1  0  0  0
 52128  1  0  0  0
 53 54  1  0  0  0
 54 55  2  0  0  0
 54129  1  0  0  0
 55 57  1  0  0  0
 55130  1  0  0  0
 56 69  2  0  0  0
 57 58  2  0  0  0
 57131  1  0  0  0
 58132  1  0  0  0
 59 60  1  0  0  0
 59 61  1  0  0  0
 59 62  1  0  0  0
 60133  1  0  0  0
 60134  1  0  0  0
 60135  1  0  0  0
 61136  1  0  0  0
 61137  1  0  0  0
 61138  1  0  0  0
 62139  1  0  0  0
 62140  1  0  0  0
 62141  1  0  0  0
 63 65  1  0  0  0
 63142  1  0  0  0
 63143  1  0  0  0
 63144  1  0  0  0
 64145  1  0  0  0
 65146  1  0  0  0
 68 84  1  0  0  0
 71 75  1  0  0  0
 71147  1  0  0  0
 71148  1  0  0  0
 71 79  1  0  0  0
 72 76  1  0  0  0
 72 79  1  0  0  0
 72149  1  0  0  0
 72150  1  0  0  0
 73 77  1  0  0  0
 73 80  1  0  0  0
 73151  1  0  0  0
 73152  1  0  0  0
 74 78  1  0  0  0
 74 80  1  0  0  0
 74153  1  0  0  0
 74154  1  0  0  0
 75 85  1  0  0  0
 75155  1  0  0  0
 75156  1  0  0  0
 76 85  1  0  0  0
 76157  1  0  0  0
 76158  1  0  0  0
 77159  1  0  0  0
 77160  1  0  0  0
 77 86  1  0  0  0
 78 86  1  0  0  0
 78161  1  0  0  0
 78162  1  0  0  0
 79 86  1  0  0  0
 79163  1  0  0  0
 80 87  1  0  0  0
 80164  1  0  0  0
 81165  1  0  0  0
 81166  1  0  0  0
 81167  1  0  0  0
 81 83  1  0  0  0
 82168  1  0  0  0
 82169  1  0  0  0
 82170  1  0  0  0
 82 84  1  0  0  0
 83 84  1  0  0  0
 83 87  1  0  0  0
 83171  1  0  0  0
 84172  1  0  0  0
 86173  1  0  0  0
 87174  1  0  0  0
 87175  1  0  0  0
M  CHG  2  86   1  87   1
M  ISO  4   1 100  68 101  84 101  85 100
M  END
> <chiral flag>
0

> <version>
0

> <s_m_source_file>
/data/baiqing/PycharmProjects/Reinvent-master-3.2/result/LINK_invent/BTK/process_docking_weight1_custom_sum_contain_oxygen_bond_distance_aromatic_linkinvent_7_9_3/rearranged_h_0114.sdf

> <i_m_source_file_index>
42

> <r_mmod_Potential_Energy-OPLS-2005>
80.9766616821289

> <r_mmod_Stretch_Energy-OPLS-2005>
43.551342010498

> <r_mmod_Bend_Energy-OPLS-2005>
113.432670593262

> <r_mmod_Torsional_Energy-OPLS-2005>
464.428344726562

> <r_mmod_Improper_Torsional_Energy-OPLS-2005>
10.8275518417358

> <r_mmod_Van_der_Waal_Energy-OPLS-2005>
152.495498657227

> <r_mmod_Electrostatic_Energy-OPLS-2005>
185.171722412109

> <r_mmod_Solvation_Energy-OPLS-2005>
-907.427734375

> <b_mmod_Minimization_Converged-OPLS-2005>
0

> <r_mmod_RMS_Derivative-OPLS-2005>
3.97713494300842

$$$$
42
                    3D
 Structure written by MMmdl.
150158  0  0  1  0            999 V2000
  -30.6287  -15.0383   20.3232 C   0  0  0  0  0  0
  -30.3802  -12.6132   19.5991 C   0  0  0  0  0  0
  -29.5765  -12.5030   18.2768 C   0  0  0  0  0  0
  -28.0502  -12.7787   18.5051 C   0  0  0  0  0  0
  -27.7050  -12.8057   20.0068 C   0  0  2  0  0  0
  -28.6191  -13.5807   20.9633 C   0  0  0  0  0  0
  -25.2932  -13.7584   20.5280 C   0  0  0  0  0  0
  -24.1851  -13.0379   20.8977 C   0  0  0  0  0  0
  -24.5892  -11.6697   20.9107 C   0  0  0  0  0  0
  -23.8702  -10.4214   21.0871 C   0  0  0  0  0  0
  -24.3448   -9.4066   21.9537 C   0  0  0  0  0  0
  -23.6137   -8.2096   22.1043 C   0  0  0  0  0  0
  -22.4188   -8.0196   21.3705 C   0  0  0  0  0  0
  -21.9751   -9.0217   20.4850 C   0  0  0  0  0  0
  -22.7021  -10.2062   20.3352 C   0  0  0  0  0  0
  -21.6723   -6.0694   22.5379 C   0  0  0  0  0  0
  -21.3974   -6.5620   23.8329 C   0  0  0  0  0  0
  -21.3640   -5.6763   24.9284 C   0  0  0  0  0  0
  -21.6038   -4.3045   24.7321 C   0  0  0  0  0  0
  -21.8775   -3.8124   23.4449 C   0  0  0  0  0  0
  -21.9179   -4.6923   22.3474 C   0  0  0  0  0  0
  -22.7985  -13.5557   21.1567 C   0  0  0  0  0  0
  -22.1586   -4.2103   21.1054 F   0  0  0  0  0  0
  -21.5619   -3.4554   25.7833 F   0  0  0  0  0  0
  -29.9008  -13.8518   20.3133 N   0  0  0  0  0  0
  -26.2948  -12.8049   20.3634 N   0  0  0  0  0  0
  -25.8504  -11.5609   20.6175 N   0  0  0  0  0  0
  -22.0502  -12.8825   22.0172 N   0  0  0  0  0  0
  -25.5053  -15.1253   20.3336 N   0  0  0  0  0  0
  -31.8316  -14.8969   20.1163 O   0  0  0  0  0  0
  -21.6588   -6.8764   21.4354 O   0  0  0  0  0  0
  -22.3864  -14.5884   20.6364 O   0  0  0  0  0  0
  -24.6437  -31.8418   23.1889 C   0  0  0  0  0  0
  -25.9173  -32.4702   23.8264 C   0  0  1  0  0  0
  -27.1882  -27.0575   20.1464 C   0  0  0  0  0  0
  -25.5918  -33.8508   24.2206 N   0  0  0  0  0  0
  -23.4473  -30.4617   21.5397 C   0  0  2  0  0  0
  -24.8869  -28.8736   20.0993 C   0  0  0  0  0  0
  -22.7539  -29.4519   22.4886 C   0  0  0  0  0  0
  -18.0287  -28.1380   22.8486 C   0  0  0  0  0  0
  -24.1472  -36.7247   23.2652 C   0  0  0  0  0  0
  -26.0057  -30.6847   21.3907 C   0  0  0  0  0  0
  -26.0664  -29.2913   20.7252 C   0  0  0  0  0  0
  -27.2091  -28.4011   20.7331 C   0  0  0  0  0  0
  -25.9862  -26.7546   19.4703 C   0  0  0  0  0  0
  -24.8650  -27.6255   19.4523 C   0  0  0  0  0  0
  -23.6683  -29.7936   20.1563 C   0  0  0  0  0  0
  -25.4119  -36.3074   24.0346 C   0  0  1  0  0  0
  -20.5892  -28.3710   23.1246 C   0  0  2  0  0  0
  -20.6766  -26.9407   22.5423 C   0  0  0  0  0  0
  -19.5760  -26.6363   21.5217 C   0  0  0  0  0  0
  -18.1925  -26.7916   22.1616 C   0  0  0  0  0  0
  -19.1547  -28.8871   23.2848 C   0  0  0  0  0  0
  -18.9461  -30.1464   23.8880 C   0  0  0  0  0  0
  -17.6458  -30.6583   24.0564 C   0  0  0  0  0  0
  -25.9071  -34.9429   23.5086 C   0  0  0  0  0  0
  -16.5350  -29.9070   23.6326 C   0  0  0  0  0  0
  -16.7266  -28.6481   23.0357 C   0  0  0  0  0  0
  -26.4475  -31.6573   25.0737 C   0  0  0  0  0  0
  -25.3625  -31.3733   26.1423 C   0  0  0  0  0  0
  -27.0337  -30.2984   24.6293 C   0  0  0  0  0  0
  -27.6051  -32.4329   25.7487 C   0  0  0  0  0  0
  -27.5584  -37.1801   24.8482 C   0  0  0  0  0  0
  -21.4244  -29.3022   22.3610 N   0  0  0  0  0  0
  -26.4310  -37.3795   23.9397 N   0  0  0  0  0  0
  -24.7216  -31.0167   22.0946 N   0  0  0  0  0  0
  -23.4196  -28.8041   23.3035 O   0  0  0  0  0  0
  -28.2357  -26.0590   20.2826 O   0  0  0  0  0  0
  -26.5675  -34.8948   22.4699 O   0  0  0  0  0  0
  -23.5556  -32.1322   23.7090 O   0  0  0  0  0  0
  -29.2334  -20.9343   18.9098 C   0  0  0  0  0  0
  -28.5427  -20.1837   20.7757 C   0  0  0  0  0  0
  -28.5931  -21.4472   20.0929 C   0  0  0  0  0  0
  -28.3873  -24.5524   19.7766 C   0  0  0  0  0  0
  -28.9879  -17.4160   20.2599 C   0  0  0  0  0  0
  -27.9907  -23.0079   20.4445 C   0  0  2  0  0  0
  -29.4913  -19.5981   18.9000 N   0  0  0  0  0  0
  -29.0857  -19.0290   20.0737 N   0  0  0  0  0  0
  -30.1943  -16.4103   20.4394 N   0  0  0  0  0  0
  -27.8139  -23.1269   21.9024 N   0  3  0  0  0  0
  -31.4628  -12.5589   19.4572 H   0  0  0  0  0  0
  -30.1968  -11.7355   20.2148 H   0  0  0  0  0  0
  -29.7489  -11.5344   17.8021 H   0  0  0  0  0  0
  -29.9866  -13.2351   17.5886 H   0  0  0  0  0  0
  -27.4213  -12.0627   17.9637 H   0  0  0  0  0  0
  -27.7813  -13.7577   18.0974 H   0  0  0  0  0  0
  -28.0225  -11.7851   20.2508 H   0  0  0  0  0  0
  -28.1615  -14.5310   21.2369 H   0  0  0  0  0  0
  -28.7774  -13.0231   21.8959 H   0  0  0  0  0  0
  -25.2672   -9.5441   22.5040 H   0  0  0  0  0  0
  -23.9806   -7.4563   22.7774 H   0  0  0  0  0  0
  -21.0715   -8.8884   19.9185 H   0  0  0  0  0  0
  -22.3768  -10.9763   19.6406 H   0  0  0  0  0  0
  -21.1939   -7.6148   23.9779 H   0  0  0  0  0  0
  -21.1502   -6.0560   25.9159 H   0  0  0  0  0  0
  -22.0586   -2.7603   23.3041 H   0  0  0  0  0  0
  -22.3889  -12.0313   22.4424 H   0  0  0  0  0  0
  -21.1220  -13.2076   22.2475 H   0  0  0  0  0  0
  -24.7281  -15.7766   20.3988 H   0  0  0  0  0  0
  -26.3689  -15.5482   20.0215 H   0  0  0  0  0  0
  -26.7227  -32.5271   23.0971 H   0  0  0  0  0  0
  -25.0041  -33.9617   25.0334 H   0  0  0  0  0  0
  -22.7487  -31.2951   21.3960 H   0  0  0  0  0  0
  -23.3808  -35.9514   23.3313 H   0  0  0  0  0  0
  -24.3561  -36.8877   22.2068 H   0  0  0  0  0  0
  -23.7139  -37.6412   23.6672 H   0  0  0  0  0  0
  -26.1651  -31.4377   20.6181 H   0  0  0  0  0  0
  -26.8767  -30.7346   22.0356 H   0  0  0  0  0  0
  -28.1013  -28.7110   21.2560 H   0  0  0  0  0  0
  -25.8730  -25.7900   18.9818 H   0  0  0  0  0  0
  -23.9568  -27.3139   18.9556 H   0  0  0  0  0  0
  -23.8065  -30.5786   19.4117 H   0  0  0  0  0  0
  -22.7714  -29.2582   19.8410 H   0  0  0  0  0  0
  -25.1294  -36.1957   25.0854 H   0  0  0  0  0  0
  -20.9981  -28.3304   24.1388 H   0  0  0  0  0  0
  -20.5612  -26.2323   23.3651 H   0  0  0  0  0  0
  -21.6621  -26.7383   22.1258 H   0  0  0  0  0  0
  -19.6892  -25.6255   21.1278 H   0  0  0  0  0  0
  -19.6692  -27.3155   20.6734 H   0  0  0  0  0  0
  -17.4188  -26.6685   21.4011 H   0  0  0  0  0  0
  -18.0305  -26.0056   22.9015 H   0  0  0  0  0  0
  -19.7929  -30.7281   24.2244 H   0  0  0  0  0  0
  -17.5001  -31.6266   24.5149 H   0  0  0  0  0  0
  -15.5333  -30.2966   23.7661 H   0  0  0  0  0  0
  -15.8675  -28.0792   22.7095 H   0  0  0  0  0  0
  -24.5886  -30.7000   25.7702 H   0  0  0  0  0  0
  -24.8707  -32.2871   26.4756 H   0  0  0  0  0  0
  -25.7898  -30.8973   27.0249 H   0  0  0  0  0  0
  -26.2926  -29.6753   24.1272 H   0  0  0  0  0  0
  -27.3910  -29.7270   25.4854 H   0  0  0  0  0  0
  -27.8856  -30.4272   23.9628 H   0  0  0  0  0  0
  -27.2724  -33.3722   26.1914 H   0  0  0  0  0  0
  -28.3896  -32.6712   25.0292 H   0  0  0  0  0  0
  -28.0636  -31.8516   26.5490 H   0  0  0  0  0  0
  -28.2636  -38.0070   24.7565 H   0  0  0  0  0  0
  -28.1059  -36.2615   24.6296 H   0  0  0  0  0  0
  -27.2304  -37.1432   25.8893 H   0  0  0  0  0  0
  -20.9444  -29.8745   21.6808 H   0  0  0  0  0  0
  -26.0199  -38.2887   24.1418 H   0  0  0  0  0  0
  -29.4706  -21.5009   18.0087 H   0  0  0  0  0  0
  -28.1134  -19.9853   21.7527 H   0  0  0  0  0  0
  -28.0653  -24.5471   18.7344 H   0  0  0  0  0  0
  -29.4693  -24.5028   19.6887 H   0  0  0  0  0  0
  -28.4105  -17.0362   19.4083 H   0  0  0  0  0  0
  -28.3332  -17.2396   21.1106 H   0  0  0  0  0  0
  -26.9548  -22.9511   20.1213 H   0  0  0  0  0  0
  -31.0295  -16.9610   20.5598 H   0  0  0  0  0  0
  -28.6958  -23.1464   22.3868 H   0  0  0  0  0  0
  -27.3045  -23.9633   22.1196 H   0  0  0  0  0  0
  -27.2678  -22.3568   22.2484 H   0  0  0  0  0  0
  1 25  1  0  0  0
  1 30  2  0  0  0
  1 79  1  0  0  0
  2  3  1  0  0  0
  2 25  1  0  0  0
  2 81  1  0  0  0
  2 82  1  0  0  0
  3  4  1  0  0  0
  3 83  1  0  0  0
  3 84  1  0  0  0
  4  5  1  0  0  0
  4 85  1  0  0  0
  4 86  1  0  0  0
  5  6  1  0  0  0
  5 26  1  0  0  0
  5 87  1  0  0  0
  6 25  1  0  0  0
  6 88  1  0  0  0
  6 89  1  0  0  0
  7  8  2  0  0  0
  7 26  1  0  0  0
  7 29  1  0  0  0
  8  9  1  0  0  0
  8 22  1  0  0  0
  9 10  1  0  0  0
  9 27  2  0  0  0
 10 11  2  0  0  0
 10 15  1  0  0  0
 11 12  1  0  0  0
 11 90  1  0  0  0
 12 13  2  0  0  0
 12 91  1  0  0  0
 13 14  1  0  0  0
 13 31  1  0  0  0
 14 15  2  0  0  0
 14 92  1  0  0  0
 15 93  1  0  0  0
 16 17  2  0  0  0
 16 21  1  0  0  0
 16 31  1  0  0  0
 17 18  1  0  0  0
 17 94  1  0  0  0
 18 19  2  0  0  0
 18 95  1  0  0  0
 19 20  1  0  0  0
 19 24  1  0  0  0
 20 21  2  0  0  0
 20 96  1  0  0  0
 21 23  1  0  0  0
 22 28  1  0  0  0
 22 32  2  0  0  0
 26 27  1  0  0  0
 28 97  1  0  0  0
 28 98  1  0  0  0
 29 99  1  0  0  0
 29100  1  0  0  0
 33 34  1  0  0  0
 33 66  1  0  0  0
 33 70  2  0  0  0
 34 36  1  0  0  0
 34 59  1  0  0  0
 34101  1  0  0  0
 35 44  2  0  0  0
 35 45  1  0  0  0
 35 68  1  0  0  0
 36 56  1  0  0  0
 36102  1  0  0  0
 37 39  1  0  0  0
 37 47  1  0  0  0
 37 66  1  0  0  0
 37103  1  0  0  0
 38 43  2  0  0  0
 38 46  1  0  0  0
 38 47  1  0  0  0
 39 64  1  0  0  0
 39 67  2  0  0  0
 40 52  1  0  0  0
 40 53  2  0  0  0
 40 58  1  0  0  0
 41104  1  0  0  0
 41105  1  0  0  0
 41106  1  0  0  0
 41 48  1  0  0  0
 42 43  1  0  0  0
 42 66  1  0  0  0
 42107  1  0  0  0
 42108  1  0  0  0
 43 44  1  0  0  0
 44109  1  0  0  0
 45 46  2  0  0  0
 45110  1  0  0  0
 46111  1  0  0  0
 47112  1  0  0  0
 47113  1  0  0  0
 48 56  1  0  0  0
 48 65  1  0  0  0
 48114  1  0  0  0
 49 50  1  0  0  0
 49 53  1  0  0  0
 49 64  1  0  0  0
 49115  1  0  0  0
 50 51  1  0  0  0
 50116  1  0  0  0
 50117  1  0  0  0
 51 52  1  0  0  0
 51118  1  0  0  0
 51119  1  0  0  0
 52120  1  0  0  0
 52121  1  0  0  0
 53 54  1  0  0  0
 54 55  2  0  0  0
 54122  1  0  0  0
 55 57  1  0  0  0
 55123  1  0  0  0
 56 69  2  0  0  0
 57 58  2  0  0  0
 57124  1  0  0  0
 58125  1  0  0  0
 59 60  1  0  0  0
 59 61  1  0  0  0
 59 62  1  0  0  0
 60126  1  0  0  0
 60127  1  0  0  0
 60128  1  0  0  0
 61129  1  0  0  0
 61130  1  0  0  0
 61131  1  0  0  0
 62132  1  0  0  0
 62133  1  0  0  0
 62134  1  0  0  0
 63 65  1  0  0  0
 63135  1  0  0  0
 63136  1  0  0  0
 63137  1  0  0  0
 64138  1  0  0  0
 65139  1  0  0  0
 68 74  1  0  0  0
 71 73  1  0  0  0
 71 77  2  0  0  0
 71140  1  0  0  0
 72 73  2  0  0  0
 72 78  1  0  0  0
 72141  1  0  0  0
 73 76  1  0  0  0
 74 76  1  0  0  0
 74142  1  0  0  0
 74143  1  0  0  0
 75 78  1  0  0  0
 75 79  1  0  0  0
 75144  1  0  0  0
 75145  1  0  0  0
 76 80  1  0  0  0
 76146  1  0  0  0
 77 78  1  0  0  0
 79147  1  0  0  0
 80148  1  0  0  0
 80149  1  0  0  0
 80150  1  0  0  0
M  CHG  1  80   1
M  ISO  4   1 100  68 101  74 101  79 100
M  END
> <chiral flag>
0

> <version>
0

> <s_m_source_file>
/data/baiqing/PycharmProjects/Reinvent-master-3.2/result/LINK_invent/BTK/process_docking_weight1_custom_sum_contain_oxygen_bond_distance_aromatic_linkinvent_7_9_3/rearranged_h_0114.sdf

> <i_m_source_file_index>
43

> <r_mmod_Potential_Energy-OPLS-2005>
646.657836914062

> <r_mmod_Stretch_Energy-OPLS-2005>
338.765014648438

> <r_mmod_Bend_Energy-OPLS-2005>
454.388519287109

> <r_mmod_Torsional_Energy-OPLS-2005>
286.631072998047

> <r_mmod_Improper_Torsional_Energy-OPLS-2005>
4.65511751174927

> <r_mmod_Van_der_Waal_Energy-OPLS-2005>
115.341491699219

> <r_mmod_Electrostatic_Energy-OPLS-2005>
-360.260803222656

> <r_mmod_Solvation_Energy-OPLS-2005>
-522.721984863281

> <b_mmod_Minimization_Converged-OPLS-2005>
0

> <r_mmod_RMS_Derivative-OPLS-2005>
14.3153915405273

$$$$
43
                    3D
 Structure written by MMmdl.
150158  0  0  1  0            999 V2000
  -30.3164  -15.5982   20.3324 C   0  0  0  0  0  0
  -30.4256  -13.0542   19.5359 C   0  0  0  0  0  0
  -29.5479  -12.6455   18.3192 C   0  0  0  0  0  0
  -28.1191  -12.2969   18.7627 C   0  0  0  0  0  0
  -27.5964  -13.3037   19.8125 C   0  0  2  0  0  0
  -28.6148  -13.6238   20.9316 C   0  0  0  0  0  0
  -25.2327  -13.8279   20.5790 C   0  0  0  0  0  0
  -24.1713  -13.0432   20.9287 C   0  0  0  0  0  0
  -24.6410  -11.6941   20.8767 C   0  0  0  0  0  0
  -23.9113  -10.4290   21.0400 C   0  0  0  0  0  0
  -24.3650   -9.4204   21.9182 C   0  0  0  0  0  0
  -23.6311   -8.2245   22.0754 C   0  0  0  0  0  0
  -22.4292   -8.0287   21.3545 C   0  0  0  0  0  0
  -21.9937   -9.0262   20.4644 C   0  0  0  0  0  0
  -22.7280  -10.2134   20.3051 C   0  0  0  0  0  0
  -21.6858   -6.0742   22.5280 C   0  0  0  0  0  0
  -21.4018   -6.5643   23.8213 C   0  0  0  0  0  0
  -21.3660   -5.6794   24.9174 C   0  0  0  0  0  0
  -21.6043   -4.3057   24.7223 C   0  0  0  0  0  0
  -21.8819   -3.8150   23.4344 C   0  0  0  0  0  0
  -21.9194   -4.6968   22.3401 C   0  0  0  0  0  0
  -22.7726  -13.5165   21.1923 C   0  0  0  0  0  0
  -22.1662   -4.2154   21.0979 F   0  0  0  0  0  0
  -21.5627   -3.4540   25.7736 F   0  0  0  0  0  0
  -29.7931  -14.2360   20.2761 N   0  0  0  0  0  0
  -26.2771  -12.9602   20.3229 N   0  0  0  0  0  0
  -25.9354  -11.6678   20.5704 N   0  0  0  0  0  0
  -22.0391  -12.8140   22.0474 N   0  0  0  0  0  0
  -25.3921  -15.2020   20.4230 N   0  0  0  0  0  0
  -31.5512  -15.5415   20.1788 O   0  0  0  0  0  0
  -21.6648   -6.8888   21.4243 O   0  0  0  0  0  0
  -22.3402  -14.5465   20.6759 O   0  0  0  0  0  0
  -24.6831  -31.8005   23.1520 C   0  0  0  0  0  0
  -25.9415  -32.4470   23.8064 C   0  0  1  0  0  0
  -27.2250  -26.7104   20.2139 C   0  0  0  0  0  0
  -25.5995  -33.8295   24.1950 N   0  0  0  0  0  0
  -23.5085  -30.4029   21.5060 C   0  0  2  0  0  0
  -24.9649  -28.7445   20.1188 C   0  0  0  0  0  0
  -22.7761  -29.4320   22.4714 C   0  0  0  0  0  0
  -18.0338  -28.1421   22.8455 C   0  0  0  0  0  0
  -24.1495  -36.7155   23.2652 C   0  0  0  0  0  0
  -26.0888  -30.5364   21.4146 C   0  0  0  0  0  0
  -26.1543  -29.1019   20.7648 C   0  0  0  0  0  0
  -27.2702  -28.1134   20.7779 C   0  0  0  0  0  0
  -26.0017  -26.5594   19.5124 C   0  0  0  0  0  0
  -24.9272  -27.4986   19.4692 C   0  0  0  0  0  0
  -23.7616  -29.6997   20.1413 C   0  0  0  0  0  0
  -25.4145  -36.2896   24.0282 C   0  0  1  0  0  0
  -20.5973  -28.3780   23.1144 C   0  0  2  0  0  0
  -20.6804  -26.9439   22.5404 C   0  0  0  0  0  0
  -19.5781  -26.6371   21.5216 C   0  0  0  0  0  0
  -18.1963  -26.7949   22.1619 C   0  0  0  0  0  0
  -19.1604  -28.8925   23.2781 C   0  0  0  0  0  0
  -18.9509  -30.1509   23.8826 C   0  0  0  0  0  0
  -17.6499  -30.6604   24.0551 C   0  0  0  0  0  0
  -25.9125  -34.9286   23.4953 C   0  0  0  0  0  0
  -16.5389  -29.9085   23.6351 C   0  0  0  0  0  0
  -16.7318  -28.6508   23.0366 C   0  0  0  0  0  0
  -26.4595  -31.6503   25.0684 C   0  0  0  0  0  0
  -25.3662  -31.3819   26.1300 C   0  0  0  0  0  0
  -27.0528  -30.2842   24.6579 C   0  0  0  0  0  0
  -27.6041  -32.4365   25.7504 C   0  0  0  0  0  0
  -27.5565  -37.1732   24.8464 C   0  0  0  0  0  0
  -21.4409  -29.3028   22.3464 N   0  0  0  0  0  0
  -26.4270  -37.3658   23.9409 N   0  0  0  0  0  0
  -24.7836  -30.9459   22.0768 N   0  0  0  0  0  0
  -23.4209  -28.7918   23.3053 O   0  0  0  0  0  0
  -28.1990  -25.5039   20.2795 O   0  0  0  0  0  0
  -26.5766  -34.8863   22.4571 O   0  0  0  0  0  0
  -23.5852  -32.1074   23.6480 O   0  0  0  0  0  0
  -30.4488  -19.2867   19.0963 C   0  0  0  0  0  0
  -28.6165  -20.2362   20.5282 C   0  0  0  0  0  0
  -30.9226  -20.8063   19.2026 C   0  0  0  0  0  0
  -29.7128  -18.7306   20.3492 C   0  0  1  0  0  0
  -28.9654  -22.0652   20.2856 C   0  0  2  0  0  0
  -28.0009  -23.7550   20.2043 C   0  0  0  0  0  0
  -29.5527  -16.9555   20.3722 N   0  0  0  0  0  0
  -29.8886  -21.9157   19.1178 N   0  3  0  0  0  0
  -31.4207  -13.3124   19.1719 H   0  0  0  0  0  0
  -30.5796  -12.2063   20.2054 H   0  0  0  0  0  0
  -29.9949  -11.8035   17.7890 H   0  0  0  0  0  0
  -29.5144  -13.4732   17.6091 H   0  0  0  0  0  0
  -28.1402  -11.2970   19.1978 H   0  0  0  0  0  0
  -27.4489  -12.2463   17.9037 H   0  0  0  0  0  0
  -27.4630  -14.2284   19.2493 H   0  0  0  0  0  0
  -28.8675  -12.7380   21.5163 H   0  0  0  0  0  0
  -28.1885  -14.3438   21.6318 H   0  0  0  0  0  0
  -25.2789   -9.5677   22.4766 H   0  0  0  0  0  0
  -24.0013   -7.4637   22.7478 H   0  0  0  0  0  0
  -21.0867   -8.8790   19.8951 H   0  0  0  0  0  0
  -22.3739  -10.9676   19.6164 H   0  0  0  0  0  0
  -21.2013   -7.6152   23.9718 H   0  0  0  0  0  0
  -21.1480   -6.0524   25.9077 H   0  0  0  0  0  0
  -22.0597   -2.7612   23.2844 H   0  0  0  0  0  0
  -22.4033  -11.9814   22.4864 H   0  0  0  0  0  0
  -21.0997  -13.1135   22.2675 H   0  0  0  0  0  0
  -24.6187  -15.8486   20.5352 H   0  0  0  0  0  0
  -26.2297  -15.6446   20.0693 H   0  0  0  0  0  0
  -26.7496  -32.4944   23.0776 H   0  0  0  0  0  0
  -25.0053  -33.9334   25.0043 H   0  0  0  0  0  0
  -22.8335  -31.2401   21.3165 H   0  0  0  0  0  0
  -23.3779  -35.9462   23.3252 H   0  0  0  0  0  0
  -24.3566  -36.8881   22.2079 H   0  0  0  0  0  0
  -23.7231  -37.6307   23.6770 H   0  0  0  0  0  0
  -26.2907  -31.2621   20.6256 H   0  0  0  0  0  0
  -26.9401  -30.6037   22.0796 H   0  0  0  0  0  0
  -28.1670  -28.3944   21.3119 H   0  0  0  0  0  0
  -25.8350  -25.6178   19.0092 H   0  0  0  0  0  0
  -24.0291  -27.2167   18.9368 H   0  0  0  0  0  0
  -23.9366  -30.4595   19.3789 H   0  0  0  0  0  0
  -22.8663  -29.1661   19.8176 H   0  0  0  0  0  0
  -25.1353  -36.1657   25.0771 H   0  0  0  0  0  0
  -21.0056  -28.3405   24.1270 H   0  0  0  0  0  0
  -20.5668  -26.2403   23.3665 H   0  0  0  0  0  0
  -21.6666  -26.7383   22.1222 H   0  0  0  0  0  0
  -19.6937  -25.6263   21.1293 H   0  0  0  0  0  0
  -19.6725  -27.3141   20.6715 H   0  0  0  0  0  0
  -17.4233  -26.6691   21.4023 H   0  0  0  0  0  0
  -18.0352  -26.0109   22.9032 H   0  0  0  0  0  0
  -19.7985  -30.7344   24.2163 H   0  0  0  0  0  0
  -17.5049  -31.6276   24.5167 H   0  0  0  0  0  0
  -15.5386  -30.2965   23.7715 H   0  0  0  0  0  0
  -15.8719  -28.0803   22.7121 H   0  0  0  0  0  0
  -24.5873  -30.7140   25.7602 H   0  0  0  0  0  0
  -24.8823  -32.3040   26.4526 H   0  0  0  0  0  0
  -25.7841  -30.9115   27.0209 H   0  0  0  0  0  0
  -26.3243  -29.6455   24.1574 H   0  0  0  0  0  0
  -27.3960  -29.7290   25.5319 H   0  0  0  0  0  0
  -27.9221  -30.3969   24.0100 H   0  0  0  0  0  0
  -27.2578  -33.3736   26.1876 H   0  0  0  0  0  0
  -28.3958  -32.6817   25.0412 H   0  0  0  0  0  0
  -28.0593  -31.8633   26.5591 H   0  0  0  0  0  0
  -28.2541  -38.0066   24.7525 H   0  0  0  0  0  0
  -28.1102  -36.2589   24.6275 H   0  0  0  0  0  0
  -27.2281  -37.1346   25.8865 H   0  0  0  0  0  0
  -20.9710  -29.8685   21.6534 H   0  0  0  0  0  0
  -26.0096  -38.2703   24.1432 H   0  0  0  0  0  0
  -31.3303  -18.6693   18.9204 H   0  0  0  0  0  0
  -29.8214  -19.1613   18.2135 H   0  0  0  0  0  0
  -28.1618  -20.1551   21.5158 H   0  0  0  0  0  0
  -27.7844  -20.0374   19.8518 H   0  0  0  0  0  0
  -31.6197  -20.9839   18.3829 H   0  0  0  0  0  0
  -31.5115  -20.9420   20.1106 H   0  0  0  0  0  0
  -30.4159  -18.8541   21.1742 H   0  0  0  0  0  0
  -29.6238  -22.2648   21.1317 H   0  0  0  0  0  0
  -27.2669  -23.6226   20.9990 H   0  0  0  0  0  0
  -27.4065  -23.6478   19.2972 H   0  0  0  0  0  0
  -28.5715  -16.7256   20.4474 H   0  0  0  0  0  0
  -29.3498  -21.7968   18.2742 H   0  0  0  0  0  0
  -30.3908  -22.7846   19.0115 H   0  0  0  0  0  0
  1 25  1  0  0  0
  1 30  2  0  0  0
  1 77  1  0  0  0
  2  3  1  0  0  0
  2 25  1  0  0  0
  2 79  1  0  0  0
  2 80  1  0  0  0
  3  4  1  0  0  0
  3 81  1  0  0  0
  3 82  1  0  0  0
  4  5  1  0  0  0
  4 83  1  0  0  0
  4 84  1  0  0  0
  5  6  1  0  0  0
  5 26  1  0  0  0
  5 85  1  0  0  0
  6 25  1  0  0  0
  6 86  1  0  0  0
  6 87  1  0  0  0
  7  8  2  0  0  0
  7 26  1  0  0  0
  7 29  1  0  0  0
  8  9  1  0  0  0
  8 22  1  0  0  0
  9 10  1  0  0  0
  9 27  2  0  0  0
 10 11  2  0  0  0
 10 15  1  0  0  0
 11 12  1  0  0  0
 11 88  1  0  0  0
 12 13  2  0  0  0
 12 89  1  0  0  0
 13 14  1  0  0  0
 13 31  1  0  0  0
 14 15  2  0  0  0
 14 90  1  0  0  0
 15 91  1  0  0  0
 16 17  2  0  0  0
 16 21  1  0  0  0
 16 31  1  0  0  0
 17 18  1  0  0  0
 17 92  1  0  0  0
 18 19  2  0  0  0
 18 93  1  0  0  0
 19 20  1  0  0  0
 19 24  1  0  0  0
 20 21  2  0  0  0
 20 94  1  0  0  0
 21 23  1  0  0  0
 22 28  1  0  0  0
 22 32  2  0  0  0
 26 27  1  0  0  0
 28 95  1  0  0  0
 28 96  1  0  0  0
 29 97  1  0  0  0
 29 98  1  0  0  0
 33 34  1  0  0  0
 33 66  1  0  0  0
 33 70  2  0  0  0
 34 36  1  0  0  0
 34 59  1  0  0  0
 34 99  1  0  0  0
 35 44  2  0  0  0
 35 45  1  0  0  0
 35 68  1  0  0  0
 36 56  1  0  0  0
 36100  1  0  0  0
 37 39  1  0  0  0
 37 47  1  0  0  0
 37 66  1  0  0  0
 37101  1  0  0  0
 38 43  2  0  0  0
 38 46  1  0  0  0
 38 47  1  0  0  0
 39 64  1  0  0  0
 39 67  2  0  0  0
 40 52  1  0  0  0
 40 53  2  0  0  0
 40 58  1  0  0  0
 41102  1  0  0  0
 41103  1  0  0  0
 41104  1  0  0  0
 41 48  1  0  0  0
 42 43  1  0  0  0
 42 66  1  0  0  0
 42105  1  0  0  0
 42106  1  0  0  0
 43 44  1  0  0  0
 44107  1  0  0  0
 45 46  2  0  0  0
 45108  1  0  0  0
 46109  1  0  0  0
 47110  1  0  0  0
 47111  1  0  0  0
 48 56  1  0  0  0
 48 65  1  0  0  0
 48112  1  0  0  0
 49 50  1  0  0  0
 49 53  1  0  0  0
 49 64  1  0  0  0
 49113  1  0  0  0
 50 51  1  0  0  0
 50114  1  0  0  0
 50115  1  0  0  0
 51 52  1  0  0  0
 51116  1  0  0  0
 51117  1  0  0  0
 52118  1  0  0  0
 52119  1  0  0  0
 53 54  1  0  0  0
 54 55  2  0  0  0
 54120  1  0  0  0
 55 57  1  0  0  0
 55121  1  0  0  0
 56 69  2  0  0  0
 57 58  2  0  0  0
 57122  1  0  0  0
 58123  1  0  0  0
 59 60  1  0  0  0
 59 61  1  0  0  0
 59 62  1  0  0  0
 60124  1  0  0  0
 60125  1  0  0  0
 60126  1  0  0  0
 61127  1  0  0  0
 61128  1  0  0  0
 61129  1  0  0  0
 62130  1  0  0  0
 62131  1  0  0  0
 62132  1  0  0  0
 63 65  1  0  0  0
 63133  1  0  0  0
 63134  1  0  0  0
 63135  1  0  0  0
 64136  1  0  0  0
 65137  1  0  0  0
 68 76  1  0  0  0
 71 73  1  0  0  0
 71 74  1  0  0  0
 71138  1  0  0  0
 71139  1  0  0  0
 72 74  1  0  0  0
 72 75  1  0  0  0
 72140  1  0  0  0
 72141  1  0  0  0
 73 78  1  0  0  0
 73142  1  0  0  0
 73143  1  0  0  0
 74 77  1  0  0  0
 74144  1  0  0  0
 75 76  1  0  0  0
 75 78  1  0  0  0
 75145  1  0  0  0
 76146  1  0  0  0
 76147  1  0  0  0
 77148  1  0  0  0
 78149  1  0  0  0
 78150  1  0  0  0
M  CHG  1  78   1
M  ISO  4   1 100  68 101  76 101  77 100
M  END
> <chiral flag>
0

> <version>
0

> <s_m_source_file>
/data/baiqing/PycharmProjects/Reinvent-master-3.2/result/LINK_invent/BTK/process_docking_weight1_custom_sum_contain_oxygen_bond_distance_aromatic_linkinvent_7_9_3/rearranged_h_0114.sdf

> <i_m_source_file_index>
44

> <r_mmod_Potential_Energy-OPLS-2005>
2240.04125976562

> <r_mmod_Stretch_Energy-OPLS-2005>
1093.60034179688

> <r_mmod_Bend_Energy-OPLS-2005>
629.755920410156

> <r_mmod_Torsional_Energy-OPLS-2005>
246.269775390625

> <r_mmod_Improper_Torsional_Energy-OPLS-2005>
3.67967391014099

> <r_mmod_Van_der_Waal_Energy-OPLS-2005>
114.558174133301

> <r_mmod_Electrostatic_Energy-OPLS-2005>
-231.529663085938

> <r_mmod_Solvation_Energy-OPLS-2005>
-476.924591064453

> <b_mmod_Minimization_Converged-OPLS-2005>
0

> <r_mmod_RMS_Derivative-OPLS-2005>
0.161612391471863

$$$$
44
                    3D
 Structure written by MMmdl.
174184  0  0  1  0            999 V2000
  -31.3539  -14.1577   21.4566 C   0  0  0  0  0  0
  -30.5265  -15.6279   19.7412 C   0  0  0  0  0  0
  -28.5204  -15.2081   17.8177 C   0  0  0  0  0  0
  -27.4803  -13.8533   18.4174 C   0  0  0  0  0  0
  -27.5608  -13.4647   20.0652 C   0  0  2  0  0  0
  -28.8104  -13.7104   21.2319 C   0  0  0  0  0  0
  -25.1267  -13.8061   20.6169 C   0  0  0  0  0  0
  -24.1198  -12.9875   20.9391 C   0  0  0  0  0  0
  -24.6440  -11.6700   20.8862 C   0  0  0  0  0  0
  -23.9259  -10.4010   21.0351 C   0  0  0  0  0  0
  -24.3697   -9.3978   21.9167 C   0  0  0  0  0  0
  -23.6279   -8.2105   22.0724 C   0  0  0  0  0  0
  -22.4266   -8.0219   21.3570 C   0  0  0  0  0  0
  -22.0058   -9.0164   20.4605 C   0  0  0  0  0  0
  -22.7452  -10.1984   20.2966 C   0  0  0  0  0  0
  -21.6916   -6.0709   22.5383 C   0  0  0  0  0  0
  -21.4079   -6.5592   23.8306 C   0  0  0  0  0  0
  -21.3732   -5.6762   24.9264 C   0  0  0  0  0  0
  -21.6048   -4.3002   24.7319 C   0  0  0  0  0  0
  -21.8772   -3.8104   23.4437 C   0  0  0  0  0  0
  -21.9196   -4.6923   22.3489 C   0  0  0  0  0  0
  -22.7059  -13.4337   21.1969 C   0  0  0  0  0  0
  -22.1598   -4.2125   21.1045 F   0  0  0  0  0  0
  -21.5731   -3.4474   25.7787 F   0  0  0  0  0  0
  -30.1879  -14.5626   21.0158 N   0  0  0  0  0  0
  -26.2431  -12.9860   20.4446 N   0  0  0  0  0  0
  -25.9571  -11.6811   20.6258 N   0  0  0  0  0  0
  -21.9913  -12.7527   22.0723 N   0  0  0  0  0  0
  -25.1341  -15.1939   20.4517 N   0  0  0  0  0  0
  -32.3504  -14.1808   20.7422 O   0  0  0  0  0  0
  -21.6576   -6.8879   21.4375 O   0  0  0  0  0  0
  -22.2668  -14.4639   20.6846 O   0  0  0  0  0  0
  -24.7361  -31.7303   23.0940 C   0  0  0  0  0  0
  -25.9701  -32.4127   23.7715 C   0  0  1  0  0  0
  -27.1374  -26.1024   20.0897 C   0  0  0  0  0  0
  -25.6039  -33.7979   24.1578 N   0  0  0  0  0  0
  -23.5750  -30.3200   21.4773 C   0  0  2  0  0  0
  -24.9990  -28.5450   20.0998 C   0  0  0  0  0  0
  -22.7966  -29.3961   22.4547 C   0  0  0  0  0  0
  -18.0367  -28.1394   22.8432 C   0  0  0  0  0  0
  -24.1535  -36.7005   23.2670 C   0  0  0  0  0  0
  -26.1803  -30.2546   21.4374 C   0  0  0  0  0  0
  -26.2132  -28.7597   20.7583 C   0  0  0  0  0  0
  -27.2435  -27.5848   20.7127 C   0  0  0  0  0  0
  -25.8931  -26.2546   19.4014 C   0  0  0  0  0  0
  -24.9115  -27.3238   19.4097 C   0  0  0  0  0  0
  -23.8361  -29.5771   20.1272 C   0  0  0  0  0  0
  -25.4206  -36.2690   24.0208 C   0  0  1  0  0  0
  -20.6025  -28.3784   23.1063 C   0  0  2  0  0  0
  -20.6801  -26.9383   22.5441 C   0  0  0  0  0  0
  -19.5785  -26.6319   21.5246 C   0  0  0  0  0  0
  -18.1955  -26.7930   22.1626 C   0  0  0  0  0  0
  -19.1614  -28.8937   23.2744 C   0  0  0  0  0  0
  -18.9521  -30.1516   23.8805 C   0  0  0  0  0  0
  -17.6510  -30.6578   24.0515 C   0  0  0  0  0  0
  -25.9210  -34.9106   23.4788 C   0  0  0  0  0  0
  -16.5408  -29.9043   23.6354 C   0  0  0  0  0  0
  -16.7364  -28.6456   23.0405 C   0  0  0  0  0  0
  -26.4648  -31.6368   25.0545 C   0  0  0  0  0  0
  -25.3613  -31.3851   26.1075 C   0  0  0  0  0  0
  -27.0661  -30.2636   24.6831 C   0  0  0  0  0  0
  -27.6060  -32.4326   25.7419 C   0  0  0  0  0  0
  -27.5558  -37.1679   24.8475 C   0  0  0  0  0  0
  -21.4560  -29.2953   22.3358 N   0  0  0  0  0  0
  -26.4291  -37.3492   23.9383 N   0  0  0  0  0  0
  -24.8638  -30.8169   22.0552 N   0  0  0  0  0  0
  -23.4189  -28.7637   23.3085 O   0  0  0  0  0  0
  -27.9578  -24.5799   20.0171 O   0  0  0  0  0  0
  -26.5948  -34.8805   22.4451 O   0  0  0  0  0  0
  -23.6324  -32.0679   23.5603 O   0  0  0  0  0  0
  -31.8278  -12.3598   17.1052 C   0  0  0  0  0  0
  -31.1587  -11.7189   18.1596 C   0  0  0  0  0  0
  -31.6674  -13.7183   16.8657 C   0  0  0  0  0  0
  -29.8559  -13.7567   18.7919 C   0  0  0  0  0  0
  -30.2299  -12.3248   19.0541 C   0  0  0  0  0  0
  -30.7895  -14.4525   17.6551 C   0  0  0  0  0  0
  -28.3712  -16.0007   19.8621 C   0  0  0  0  0  0
  -30.2389  -11.8782   23.8461 C   0  0  0  0  0  0
  -32.6126  -11.6454   22.9483 C   0  0  0  0  0  0
  -29.9463  -10.8088   22.7498 C   0  0  0  0  0  0
  -32.0857  -10.9816   21.6175 C   0  0  0  0  0  0
  -29.9556  -17.4470   17.9546 C   0  0  0  0  0  0
  -28.8370  -18.0337   19.2692 C   0  0  1  0  0  0
  -31.5693  -12.6361   23.5544 C   0  0  1  0  0  0
  -29.8543  -11.2323   20.1530 C   0  0  0  0  0  0
  -28.6404  -20.3560   19.6222 C   0  0  0  0  0  0
  -27.8079  -22.5232   19.7268 C   0  0  0  0  0  0
  -31.3892  -13.8985   22.7924 N   0  0  0  0  0  0
  -30.6149  -11.2441   21.4774 N   0  3  1  0  0  0
  -30.7378  -16.0146   17.3743 O   0  0  0  0  0  0
  -30.5912  -16.5666   20.2781 H   0  0  0  0  0  0
  -31.5681  -15.7494   19.4214 H   0  0  0  0  0  0
  -28.7388  -14.9922   16.7672 H   0  0  0  0  0  0
  -27.8669  -16.0606   17.5896 H   0  0  0  0  0  0
  -27.7132  -12.9323   17.8723 H   0  0  0  0  0  0
  -26.4402  -14.0367   18.1342 H   0  0  0  0  0  0
  -27.2604  -14.3038   20.6064 H   0  0  0  0  0  0
  -28.8913  -12.8483   21.8605 H   0  0  0  0  0  0
  -28.4541  -14.3145   22.0840 H   0  0  0  0  0  0
  -25.2765   -9.5504   22.4837 H   0  0  0  0  0  0
  -24.0021   -7.4442   22.7476 H   0  0  0  0  0  0
  -21.1001   -8.8717   19.8763 H   0  0  0  0  0  0
  -22.3933  -10.9587   19.6136 H   0  0  0  0  0  0
  -21.1988   -7.6084   23.9878 H   0  0  0  0  0  0
  -21.1651   -6.0424   25.9242 H   0  0  0  0  0  0
  -22.0436   -2.7525   23.2931 H   0  0  0  0  0  0
  -22.3560  -11.9369   22.5377 H   0  0  0  0  0  0
  -21.0424  -13.0631   22.2695 H   0  0  0  0  0  0
  -24.2385  -15.6649   20.5596 H   0  0  0  0  0  0
  -25.8588  -15.8233   20.1284 H   0  0  0  0  0  0
  -26.7798  -32.4433   23.0473 H   0  0  0  0  0  0
  -24.9986  -33.8920   24.9570 H   0  0  0  0  0  0
  -22.9311  -31.1754   21.2560 H   0  0  0  0  0  0
  -23.3822  -35.9311   23.3253 H   0  0  0  0  0  0
  -24.3579  -36.8782   22.2108 H   0  0  0  0  0  0
  -23.7313  -37.6131   23.6849 H   0  0  0  0  0  0
  -26.4669  -30.9652   20.6603 H   0  0  0  0  0  0
  -27.0000  -30.2988   22.1334 H   0  0  0  0  0  0
  -28.1576  -27.7802   21.2594 H   0  0  0  0  0  0
  -25.5964  -25.3905   18.8257 H   0  0  0  0  0  0
  -24.0019  -27.1384   18.8519 H   0  0  0  0  0  0
  -24.0515  -30.3257   19.3668 H   0  0  0  0  0  0
  -22.9221  -29.0909   19.7867 H   0  0  0  0  0  0
  -25.1481  -36.1352   25.0692 H   0  0  0  0  0  0
  -21.0106  -28.3451   24.1209 H   0  0  0  0  0  0
  -20.5623  -26.2412   23.3730 H   0  0  0  0  0  0
  -21.6647  -26.7255   22.1279 H   0  0  0  0  0  0
  -19.6938  -25.6214   21.1315 H   0  0  0  0  0  0
  -19.6753  -27.3091   20.6730 H   0  0  0  0  0  0
  -17.4260  -26.6703   21.4011 H   0  0  0  0  0  0
  -18.0323  -26.0077   22.9008 H   0  0  0  0  0  0
  -19.7996  -30.7329   24.2138 H   0  0  0  0  0  0
  -17.5056  -31.6265   24.5112 H   0  0  0  0  0  0
  -15.5387  -30.2927   23.7709 H   0  0  0  0  0  0
  -15.8746  -28.0723   22.7213 H   0  0  0  0  0  0
  -24.5820  -30.7177   25.7319 H   0  0  0  0  0  0
  -24.8778  -32.3126   26.4134 H   0  0  0  0  0  0
  -25.7647  -30.9205   27.0066 H   0  0  0  0  0  0
  -26.3364  -29.6083   24.2011 H   0  0  0  0  0  0
  -27.4067  -29.7273   25.5694 H   0  0  0  0  0  0
  -27.9393  -30.3635   24.0396 H   0  0  0  0  0  0
  -27.2533  -33.3771   26.1544 H   0  0  0  0  0  0
  -28.4060  -32.6593   25.0385 H   0  0  0  0  0  0
  -28.0424  -31.8707   26.5669 H   0  0  0  0  0  0
  -28.2549  -37.9997   24.7456 H   0  0  0  0  0  0
  -28.1088  -36.2505   24.6404 H   0  0  0  0  0  0
  -27.2249  -37.1403   25.8871 H   0  0  0  0  0  0
  -20.9926  -29.8573   21.6302 H   0  0  0  0  0  0
  -26.0068  -38.2523   24.1320 H   0  0  0  0  0  0
  -32.5136  -11.7852   16.4943 H   0  0  0  0  0  0
  -31.4282  -10.6812   18.2655 H   0  0  0  0  0  0
  -32.2373  -14.2038   16.0952 H   0  0  0  0  0  0
  -28.3399  -16.1108   20.9439 H   0  0  0  0  0  0
  -27.3039  -15.9986   19.6687 H   0  0  0  0  0  0
  -30.3216  -11.3741   24.8177 H   0  0  0  0  0  0
  -29.4037  -12.5753   23.9952 H   0  0  0  0  0  0
  -33.6069  -12.0824   22.8438 H   0  0  0  0  0  0
  -32.7562  -10.8763   23.7129 H   0  0  0  0  0  0
  -28.8790  -10.6218   22.6465 H   0  0  0  0  0  0
  -30.3740   -9.8551   23.0895 H   0  0  0  0  0  0
  -32.2919   -9.9055   21.6717 H   0  0  0  0  0  0
  -32.6684  -11.3562   20.7774 H   0  0  0  0  0  0
  -30.8275  -18.0824   18.0931 H   0  0  0  0  0  0
  -29.5068  -17.8575   17.0439 H   0  0  0  0  0  0
  -29.5072  -18.1534   20.1196 H   0  0  0  0  0  0
  -31.9447  -12.9659   24.5355 H   0  0  0  0  0  0
  -29.9791  -10.2169   19.7629 H   0  0  0  0  0  0
  -28.7737  -11.2694   20.2908 H   0  0  0  0  0  0
  -29.3465  -20.6054   18.8328 H   0  0  0  0  0  0
  -29.2502  -20.4086   20.5172 H   0  0  0  0  0  0
  -27.0445  -22.3665   20.4897 H   0  0  0  0  0  0
  -27.2314  -22.5483   18.7974 H   0  0  0  0  0  0
  -31.9449  -14.6106   23.2422 H   0  0  0  0  0  0
  -30.6288  -12.2423   21.6458 H   0  0  0  0  0  0
  1 25  1  0  0  0
  1 30  2  0  0  0
  1 88  1  0  0  0
  2  3  1  0  0  0
  2 25  1  0  0  0
  2 91  1  0  0  0
  2 92  1  0  0  0
  3  4  1  0  0  0
  3 93  1  0  0  0
  3 94  1  0  0  0
  4  5  1  0  0  0
  4 95  1  0  0  0
  4 96  1  0  0  0
  5  6  1  0  0  0
  5 26  1  0  0  0
  5 97  1  0  0  0
  6 25  1  0  0  0
  6 98  1  0  0  0
  6 99  1  0  0  0
  7  8  2  0  0  0
  7 26  1  0  0  0
  7 29  1  0  0  0
  8  9  1  0  0  0
  8 22  1  0  0  0
  9 10  1  0  0  0
  9 27  2  0  0  0
 10 11  2  0  0  0
 10 15  1  0  0  0
 11 12  1  0  0  0
 11100  1  0  0  0
 12 13  2  0  0  0
 12101  1  0  0  0
 13 14  1  0  0  0
 13 31  1  0  0  0
 14 15  2  0  0  0
 14102  1  0  0  0
 15103  1  0  0  0
 16 17  2  0  0  0
 16 21  1  0  0  0
 16 31  1  0  0  0
 17 18  1  0  0  0
 17104  1  0  0  0
 18 19  2  0  0  0
 18105  1  0  0  0
 19 20  1  0  0  0
 19 24  1  0  0  0
 20 21  2  0  0  0
 20106  1  0  0  0
 21 23  1  0  0  0
 22 28  1  0  0  0
 22 32  2  0  0  0
 26 27  1  0  0  0
 28107  1  0  0  0
 28108  1  0  0  0
 29109  1  0  0  0
 29110  1  0  0  0
 33 34  1  0  0  0
 33 66  1  0  0  0
 33 70  2  0  0  0
 34 36  1  0  0  0
 34 59  1  0  0  0
 34111  1  0  0  0
 35 44  2  0  0  0
 35 45  1  0  0  0
 35 68  1  0  0  0
 36 56  1  0  0  0
 36112  1  0  0  0
 37 39  1  0  0  0
 37 47  1  0  0  0
 37 66  1  0  0  0
 37113  1  0  0  0
 38 43  2  0  0  0
 38 46  1  0  0  0
 38 47  1  0  0  0
 39 64  1  0  0  0
 39 67  2  0  0  0
 40 52  1  0  0  0
 40 53  2  0  0  0
 40 58  1  0  0  0
 41114  1  0  0  0
 41115  1  0  0  0
 41116  1  0  0  0
 41 48  1  0  0  0
 42 43  1  0  0  0
 42 66  1  0  0  0
 42117  1  0  0  0
 42118  1  0  0  0
 43 44  1  0  0  0
 44119  1  0  0  0
 45 46  2  0  0  0
 45120  1  0  0  0
 46121  1  0  0  0
 47122  1  0  0  0
 47123  1  0  0  0
 48 56  1  0  0  0
 48 65  1  0  0  0
 48124  1  0  0  0
 49 50  1  0  0  0
 49 53  1  0  0  0
 49 64  1  0  0  0
 49125  1  0  0  0
 50 51  1  0  0  0
 50126  1  0  0  0
 50127  1  0  0  0
 51 52  1  0  0  0
 51128  1  0  0  0
 51129  1  0  0  0
 52130  1  0  0  0
 52131  1  0  0  0
 53 54  1  0  0  0
 54 55  2  0  0  0
 54132  1  0  0  0
 55 57  1  0  0  0
 55133  1  0  0  0
 56 69  2  0  0  0
 57 58  2  0  0  0
 57134  1  0  0  0
 58135  1  0  0  0
 59 60  1  0  0  0
 59 61  1  0  0  0
 59 62  1  0  0  0
 60136  1  0  0  0
 60137  1  0  0  0
 60138  1  0  0  0
 61139  1  0  0  0
 61140  1  0  0  0
 61141  1  0  0  0
 62142  1  0  0  0
 62143  1  0  0  0
 62144  1  0  0  0
 63 65  1  0  0  0
 63145  1  0  0  0
 63146  1  0  0  0
 63147  1  0  0  0
 64148  1  0  0  0
 65149  1  0  0  0
 68 87  1  0  0  0
 71 72  2  0  0  0
 71 73  1  0  0  0
 71150  1  0  0  0
 72 75  1  0  0  0
 72151  1  0  0  0
 73 76  2  0  0  0
 73152  1  0  0  0
 74 75  2  0  0  0
 74 76  1  0  0  0
 74 77  1  0  0  0
 75 85  1  0  0  0
 76 90  1  0  0  0
 77 83  1  0  0  0
 77153  1  0  0  0
 77154  1  0  0  0
 78 80  1  0  0  0
 78 84  1  0  0  0
 78155  1  0  0  0
 78156  1  0  0  0
 79 81  1  0  0  0
 79 84  1  0  0  0
 79157  1  0  0  0
 79158  1  0  0  0
 80 89  1  0  0  0
 80159  1  0  0  0
 80160  1  0  0  0
 81 89  1  0  0  0
 81161  1  0  0  0
 81162  1  0  0  0
 82 83  1  0  0  0
 82 90  1  0  0  0
 82163  1  0  0  0
 82164  1  0  0  0
 83 86  1  0  0  0
 83165  1  0  0  0
 84 88  1  0  0  0
 84166  1  0  0  0
 85167  1  0  0  0
 85168  1  0  0  0
 85 89  1  0  0  0
 86 87  1  0  0  0
 86169  1  0  0  0
 86170  1  0  0  0
 87171  1  0  0  0
 87172  1  0  0  0
 88173  1  0  0  0
 89174  1  0  0  0
M  CHG  1  89   1
M  ISO  4   1 100  68 101  87 101  88 100
M  END
> <chiral flag>
0

> <version>
0

> <s_m_source_file>
/data/baiqing/PycharmProjects/Reinvent-master-3.2/result/LINK_invent/BTK/process_docking_weight1_custom_sum_contain_oxygen_bond_distance_aromatic_linkinvent_7_9_3/rearranged_h_0114.sdf

> <i_m_source_file_index>
45

> <r_mmod_Potential_Energy-OPLS-2005>
15559.40234375

> <r_mmod_Stretch_Energy-OPLS-2005>
8192.689453125

> <r_mmod_Bend_Energy-OPLS-2005>
1615.24108886719

> <r_mmod_Torsional_Energy-OPLS-2005>
397.967071533203

> <r_mmod_Improper_Torsional_Energy-OPLS-2005>
11.5177984237671

> <r_mmod_Van_der_Waal_Energy-OPLS-2005>
2235.26318359375

> <r_mmod_Electrostatic_Energy-OPLS-2005>
-285.401763916016

> <r_mmod_Solvation_Energy-OPLS-2005>
-411.472839355469

> <b_mmod_Minimization_Converged-OPLS-2005>
0

> <r_mmod_RMS_Derivative-OPLS-2005>
38.2106971740723

$$$$
45
                    3D
 Structure written by MMmdl.
163171  0  0  1  0            999 V2000
  -30.6366  -14.6822   20.4737 C   0  0  0  0  0  0
  -30.4012  -12.4307   19.5195 C   0  0  0  0  0  0
  -29.5216  -12.5784   18.2679 C   0  0  0  0  0  0
  -28.0565  -12.3223   18.6646 C   0  0  0  0  0  0
  -27.6267  -13.2322   19.8509 C   0  0  2  0  0  0
  -28.6289  -13.2246   21.0100 C   0  0  0  0  0  0
  -25.2435  -13.8217   20.5511 C   0  0  0  0  0  0
  -24.1722  -13.0327   20.9094 C   0  0  0  0  0  0
  -24.6357  -11.6930   20.8674 C   0  0  0  0  0  0
  -23.9057  -10.4266   21.0349 C   0  0  0  0  0  0
  -24.3666   -9.4224   21.9113 C   0  0  0  0  0  0
  -23.6333   -8.2250   22.0742 C   0  0  0  0  0  0
  -22.4275   -8.0297   21.3553 C   0  0  0  0  0  0
  -21.9885   -9.0274   20.4610 C   0  0  0  0  0  0
  -22.7244  -10.2134   20.2981 C   0  0  0  0  0  0
  -21.6913   -6.0782   22.5245 C   0  0  0  0  0  0
  -21.4069   -6.5657   23.8216 C   0  0  0  0  0  0
  -21.3635   -5.6791   24.9167 C   0  0  0  0  0  0
  -21.5991   -4.3060   24.7216 C   0  0  0  0  0  0
  -21.8826   -3.8143   23.4350 C   0  0  0  0  0  0
  -21.9240   -4.6969   22.3399 C   0  0  0  0  0  0
  -22.7832  -13.5210   21.1841 C   0  0  0  0  0  0
  -22.1699   -4.2175   21.0996 F   0  0  0  0  0  0
  -21.5605   -3.4495   25.7736 F   0  0  0  0  0  0
  -29.9740  -13.4876   20.4606 N   0  0  0  0  0  0
  -26.2832  -12.9370   20.3105 N   0  0  0  0  0  0
  -25.9230  -11.6480   20.5619 N   0  0  0  0  0  0
  -22.0572  -12.8127   22.0477 N   0  0  0  0  0  0
  -25.3913  -15.1912   20.4016 N   0  0  0  0  0  0
  -31.8451  -14.6992   20.2359 O   0  0  0  0  0  0
  -21.6686   -6.8903   21.4216 O   0  0  0  0  0  0
  -22.3431  -14.5466   20.6777 O   0  0  0  0  0  0
  -24.6097  -31.8622   23.2586 C   0  0  0  0  0  0
  -25.8946  -32.4856   23.8743 C   0  0  1  0  0  0
  -27.2342  -27.4902   20.0920 C   0  0  0  0  0  0
  -25.5703  -33.8619   24.2523 N   0  0  0  0  0  0
  -23.3961  -30.4834   21.5693 C   0  0  2  0  0  0
  -24.9216  -29.0836   20.0265 C   0  0  0  0  0  0
  -22.7336  -29.4629   22.5142 C   0  0  0  0  0  0
  -18.0030  -28.1408   22.8182 C   0  0  0  0  0  0
  -24.1459  -36.7320   23.2648 C   0  0  0  0  0  0
  -25.9465  -30.8410   21.4667 C   0  0  0  0  0  0
  -26.0422  -29.5280   20.7538 C   0  0  0  0  0  0
  -27.1810  -28.6800   20.8657 C   0  0  0  0  0  0
  -26.3344  -27.4034   19.0404 C   0  0  0  0  0  0
  -25.0955  -28.0556   19.0813 C   0  0  0  0  0  0
  -23.6374  -29.8311   20.1738 C   0  0  0  0  0  0
  -25.4052  -36.3219   24.0420 C   0  0  1  0  0  0
  -20.6081  -28.2515   22.9855 C   0  0  2  0  0  0
  -20.6745  -26.9836   22.1071 C   0  0  0  0  0  0
  -19.3943  -26.2174   21.7647 C   0  0  0  0  0  0
  -18.0432  -26.8674   21.9843 C   0  0  0  0  0  0
  -19.1732  -28.8022   23.2353 C   0  0  0  0  0  0
  -19.0267  -30.0642   23.8520 C   0  0  0  0  0  0
  -17.7781  -30.6763   24.0462 C   0  0  0  0  0  0
  -25.8904  -34.9543   23.5345 C   0  0  0  0  0  0
  -16.6312  -29.9809   23.6609 C   0  0  0  0  0  0
  -16.7585  -28.7348   23.0345 C   0  0  0  0  0  0
  -26.4488  -31.6637   25.1002 C   0  0  0  0  0  0
  -25.3883  -31.3651   26.1832 C   0  0  0  0  0  0
  -27.0357  -30.3007   24.6698 C   0  0  0  0  0  0
  -27.6116  -32.4422   25.7518 C   0  0  0  0  0  0
  -27.5581  -37.1782   24.8471 C   0  0  0  0  0  0
  -21.4155  -29.2807   22.3472 N   0  0  0  0  0  0
  -26.4261  -37.3891   23.9488 N   0  0  0  0  0  0
  -24.6544  -31.0857   22.1444 N   0  0  0  0  0  0
  -23.3759  -28.7946   23.3187 O   0  0  0  0  0  0
  -27.7452  -26.2567   20.4952 O   0  0  0  0  0  0
  -26.5632  -34.8781   22.5004 O   0  0  0  0  0  0
  -23.5144  -32.1162   23.7684 O   0  0  0  0  0  0
  -25.6216  -18.8271   21.1834 C   0  0  0  0  0  0
  -27.3255  -21.7150   21.9066 C   0  0  0  0  0  0
  -25.9195  -20.0982   20.4564 C   0  0  0  0  0  0
  -27.3208  -20.4139   21.0318 C   0  0  2  0  0  0
  -29.2901  -16.3830   18.9800 C   0  0  0  0  0  0
  -25.5157  -24.8874   19.8989 C   0  0  0  0  0  0
  -29.0516  -16.7690   21.5156 C   0  0  0  0  0  0
  -28.9386  -18.3476   21.3039 C   0  0  0  0  0  0
  -26.7370  -24.2066   22.0134 C   0  0  0  0  0  0
  -29.9232  -16.1117   20.3705 C   0  0  1  0  0  0
  -26.5781  -25.3882   20.9835 C   0  0  1  0  0  0
  -26.6202  -18.3469   21.8290 N   0  0  0  0  0  0
  -27.7269  -19.1247   21.6956 N   0  0  0  0  0  0
  -26.9988  -22.8993   21.3285 N   0  0  0  0  0  0
  -27.6898  -21.6516   23.0915 O   0  0  0  0  0  0
  -31.4540  -12.5163   19.2742 H   0  0  0  0  0  0
  -30.2728  -11.4565   19.9897 H   0  0  0  0  0  0
  -29.8462  -11.8936   17.4819 H   0  0  0  0  0  0
  -29.6141  -13.5776   17.8560 H   0  0  0  0  0  0
  -27.9800  -11.2709   18.9626 H   0  0  0  0  0  0
  -27.3928  -12.4547   17.8131 H   0  0  0  0  0  0
  -27.5914  -14.2398   19.4340 H   0  0  0  0  0  0
  -28.6192  -12.2885   21.5561 H   0  0  0  0  0  0
  -28.3536  -13.9934   21.7368 H   0  0  0  0  0  0
  -25.2850   -9.5739   22.4660 H   0  0  0  0  0  0
  -24.0058   -7.4685   22.7421 H   0  0  0  0  0  0
  -21.0858   -8.8769   19.8969 H   0  0  0  0  0  0
  -22.3655  -10.9679   19.6089 H   0  0  0  0  0  0
  -21.2076   -7.6164   23.9712 H   0  0  0  0  0  0
  -21.1427   -6.0537   25.9098 H   0  0  0  0  0  0
  -22.0628   -2.7595   23.2830 H   0  0  0  0  0  0
  -22.4338  -11.9808   22.4801 H   0  0  0  0  0  0
  -21.1201  -13.0995   22.2728 H   0  0  0  0  0  0
  -24.6024  -15.8236   20.5308 H   0  0  0  0  0  0
  -26.2538  -15.6853   20.1800 H   0  0  0  0  0  0
  -26.7136  -32.5615   23.1565 H   0  0  0  0  0  0
  -24.9583  -34.0070   25.0479 H   0  0  0  0  0  0
  -22.6582  -31.2707   21.4121 H   0  0  0  0  0  0
  -23.3814  -35.9545   23.3286 H   0  0  0  0  0  0
  -24.3606  -36.8988   22.2081 H   0  0  0  0  0  0
  -23.7029  -37.6421   23.6643 H   0  0  0  0  0  0
  -26.2025  -31.6516   20.7923 H   0  0  0  0  0  0
  -26.7967  -30.8176   22.1320 H   0  0  0  0  0  0
  -27.9292  -28.8724   21.6129 H   0  0  0  0  0  0
  -26.5618  -26.6975   18.2678 H   0  0  0  0  0  0
  -24.3794  -27.9143   18.2728 H   0  0  0  0  0  0
  -23.6338  -30.5828   19.3822 H   0  0  0  0  0  0
  -22.8459  -29.1218   19.9170 H   0  0  0  0  0  0
  -25.1194  -36.2198   25.0912 H   0  0  0  0  0  0
  -20.9970  -28.0005   23.9681 H   0  0  0  0  0  0
  -20.8810  -27.3801   21.1072 H   0  0  0  0  0  0
  -21.5601  -26.3606   22.2284 H   0  0  0  0  0  0
  -19.3890  -25.3351   22.3922 H   0  0  0  0  0  0
  -19.4592  -25.7313   20.7919 H   0  0  0  0  0  0
  -17.6921  -27.2254   21.0151 H   0  0  0  0  0  0
  -17.2495  -26.1776   22.2742 H   0  0  0  0  0  0
  -19.9309  -30.6060   24.1590 H   0  0  0  0  0  0
  -17.7271  -31.6462   24.4893 H   0  0  0  0  0  0
  -15.6612  -30.4408   23.8497 H   0  0  0  0  0  0
  -15.8626  -28.2524   22.6826 H   0  0  0  0  0  0
  -24.6235  -30.6759   25.8288 H   0  0  0  0  0  0
  -24.8839  -32.2630   26.5338 H   0  0  0  0  0  0
  -25.8418  -30.8915   27.0584 H   0  0  0  0  0  0
  -26.3103  -29.6717   24.1574 H   0  0  0  0  0  0
  -27.3691  -29.7244   25.5372 H   0  0  0  0  0  0
  -27.9108  -30.4107   24.0303 H   0  0  0  0  0  0
  -27.2983  -33.3861   26.1928 H   0  0  0  0  0  0
  -28.3834  -32.6842   25.0224 H   0  0  0  0  0  0
  -28.0949  -31.8752   26.5497 H   0  0  0  0  0  0
  -28.2605  -38.0114   24.7710 H   0  0  0  0  0  0
  -28.1077  -36.2670   24.6033 H   0  0  0  0  0  0
  -27.2350  -37.1130   25.8885 H   0  0  0  0  0  0
  -21.0541  -29.7511   21.5217 H   0  0  0  0  0  0
  -26.0223  -38.2971   24.1523 H   0  0  0  0  0  0
  -24.6640  -18.3084   21.1304 H   0  0  0  0  0  0
  -25.1495  -20.8623   20.6210 H   0  0  0  0  0  0
  -25.9663  -19.9062   19.3897 H   0  0  0  0  0  0
  -28.0233  -20.5792   20.2137 H   0  0  0  0  0  0
  -29.4853  -17.3925   18.6085 H   0  0  0  0  0  0
  -28.2098  -16.2732   18.9990 H   0  0  0  0  0  0
  -29.6879  -15.7294   18.1960 H   0  0  0  0  0  0
  -24.6996  -25.6008   19.6539 H   0  0  0  0  0  0
  -25.9361  -24.7419   18.9089 H   0  0  0  0  0  0
  -24.9814  -23.9911   20.1180 H   0  0  0  0  0  0
  -28.0710  -16.2950   21.4461 H   0  0  0  0  0  0
  -29.4157  -16.5224   22.5146 H   0  0  0  0  0  0
  -29.0363  -18.5651   20.2487 H   0  0  0  0  0  0
  -29.8233  -18.8163   21.7363 H   0  0  0  0  0  0
  -25.7299  -24.1788   22.5212 H   0  0  0  0  0  0
  -27.4833  -24.4039   22.8376 H   0  0  0  0  0  0
  -30.8034  -16.7621   20.3916 H   0  0  0  0  0  0
  -25.9243  -26.0925   21.4985 H   0  0  0  0  0  0
  -26.8293  -22.9623   20.3437 H   0  0  0  0  0  0
  1 25  1  0  0  0
  1 30  2  0  0  0
  1 80  1  0  0  0
  2  3  1  0  0  0
  2 25  1  0  0  0
  2 86  1  0  0  0
  2 87  1  0  0  0
  3  4  1  0  0  0
  3 88  1  0  0  0
  3 89  1  0  0  0
  4  5  1  0  0  0
  4 90  1  0  0  0
  4 91  1  0  0  0
  5  6  1  0  0  0
  5 26  1  0  0  0
  5 92  1  0  0  0
  6 25  1  0  0  0
  6 93  1  0  0  0
  6 94  1  0  0  0
  7  8  2  0  0  0
  7 26  1  0  0  0
  7 29  1  0  0  0
  8  9  1  0  0  0
  8 22  1  0  0  0
  9 10  1  0  0  0
  9 27  2  0  0  0
 10 11  2  0  0  0
 10 15  1  0  0  0
 11 12  1  0  0  0
 11 95  1  0  0  0
 12 13  2  0  0  0
 12 96  1  0  0  0
 13 14  1  0  0  0
 13 31  1  0  0  0
 14 15  2  0  0  0
 14 97  1  0  0  0
 15 98  1  0  0  0
 16 17  2  0  0  0
 16 21  1  0  0  0
 16 31  1  0  0  0
 17 18  1  0  0  0
 17 99  1  0  0  0
 18 19  2  0  0  0
 18100  1  0  0  0
 19 20  1  0  0  0
 19 24  1  0  0  0
 20 21  2  0  0  0
 20101  1  0  0  0
 21 23  1  0  0  0
 22 28  1  0  0  0
 22 32  2  0  0  0
 26 27  1  0  0  0
 28102  1  0  0  0
 28103  1  0  0  0
 29104  1  0  0  0
 29105  1  0  0  0
 33 34  1  0  0  0
 33 66  1  0  0  0
 33 70  2  0  0  0
 34 36  1  0  0  0
 34 59  1  0  0  0
 34106  1  0  0  0
 35 44  2  0  0  0
 35 45  1  0  0  0
 35 68  1  0  0  0
 36 56  1  0  0  0
 36107  1  0  0  0
 37 39  1  0  0  0
 37 47  1  0  0  0
 37 66  1  0  0  0
 37108  1  0  0  0
 38 43  2  0  0  0
 38 46  1  0  0  0
 38 47  1  0  0  0
 39 64  1  0  0  0
 39 67  2  0  0  0
 40 52  1  0  0  0
 40 53  2  0  0  0
 40 58  1  0  0  0
 41109  1  0  0  0
 41110  1  0  0  0
 41111  1  0  0  0
 41 48  1  0  0  0
 42 43  1  0  0  0
 42 66  1  0  0  0
 42112  1  0  0  0
 42113  1  0  0  0
 43 44  1  0  0  0
 44114  1  0  0  0
 45 46  2  0  0  0
 45115  1  0  0  0
 46116  1  0  0  0
 47117  1  0  0  0
 47118  1  0  0  0
 48 56  1  0  0  0
 48 65  1  0  0  0
 48119  1  0  0  0
 49 50  1  0  0  0
 49 53  1  0  0  0
 49 64  1  0  0  0
 49120  1  0  0  0
 50 51  1  0  0  0
 50121  1  0  0  0
 50122  1  0  0  0
 51 52  1  0  0  0
 51123  1  0  0  0
 51124  1  0  0  0
 52125  1  0  0  0
 52126  1  0  0  0
 53 54  1  0  0  0
 54 55  2  0  0  0
 54127  1  0  0  0
 55 57  1  0  0  0
 55128  1  0  0  0
 56 69  2  0  0  0
 57 58  2  0  0  0
 57129  1  0  0  0
 58130  1  0  0  0
 59 60  1  0  0  0
 59 61  1  0  0  0
 59 62  1  0  0  0
 60131  1  0  0  0
 60132  1  0  0  0
 60133  1  0  0  0
 61134  1  0  0  0
 61135  1  0  0  0
 61136  1  0  0  0
 62137  1  0  0  0
 62138  1  0  0  0
 62139  1  0  0  0
 63 65  1  0  0  0
 63140  1  0  0  0
 63141  1  0  0  0
 63142  1  0  0  0
 64143  1  0  0  0
 65144  1  0  0  0
 68 81  1  0  0  0
 71 73  1  0  0  0
 71 82  2  0  0  0
 71145  1  0  0  0
 72 84  1  0  0  0
 72 85  2  0  0  0
 72 74  1  0  0  0
 73 74  1  0  0  0
 73146  1  0  0  0
 73147  1  0  0  0
 74 83  1  0  0  0
 74148  1  0  0  0
 75149  1  0  0  0
 75150  1  0  0  0
 75151  1  0  0  0
 75 80  1  0  0  0
 76152  1  0  0  0
 76153  1  0  0  0
 76154  1  0  0  0
 76 81  1  0  0  0
 77 78  1  0  0  0
 77 80  1  0  0  0
 77155  1  0  0  0
 77156  1  0  0  0
 78 83  1  0  0  0
 78157  1  0  0  0
 78158  1  0  0  0
 79 81  1  0  0  0
 79 84  1  0  0  0
 79159  1  0  0  0
 79160  1  0  0  0
 80161  1  0  0  0
 81162  1  0  0  0
 82 83  1  0  0  0
 84163  1  0  0  0
M  ISO  4   1 100  68 101  80 100  81 101
M  END
> <chiral flag>
0

> <version>
0

> <s_m_source_file>
/data/baiqing/PycharmProjects/Reinvent-master-3.2/result/LINK_invent/BTK/process_docking_weight1_custom_sum_contain_oxygen_bond_distance_aromatic_linkinvent_7_9_3/rearranged_h_0114.sdf

> <i_m_source_file_index>
46

> <r_mmod_Potential_Energy-OPLS-2005>
625.872924804688

> <r_mmod_Stretch_Energy-OPLS-2005>
102.404861450195

> <r_mmod_Bend_Energy-OPLS-2005>
280.228271484375

> <r_mmod_Torsional_Energy-OPLS-2005>
383.515167236328

> <r_mmod_Improper_Torsional_Energy-OPLS-2005>
18.6370220184326

> <r_mmod_Van_der_Waal_Energy-OPLS-2005>
167.107833862305

> <r_mmod_Electrostatic_Energy-OPLS-2005>
-371.143615722656

> <r_mmod_Solvation_Energy-OPLS-2005>
-246.723175048828

> <b_mmod_Minimization_Converged-OPLS-2005>
0

> <r_mmod_RMS_Derivative-OPLS-2005>
46.5591354370117

$$$$
46
                    3D
 Structure written by MMmdl.
157165  0  0  1  0            999 V2000
  -30.5696  -14.8537   20.4333 C   0  0  0  0  0  0
  -30.4391  -12.5287   19.4701 C   0  0  0  0  0  0
  -29.5088  -12.5070   18.2363 C   0  0  0  0  0  0
  -28.0416  -12.3119   18.6630 C   0  0  0  0  0  0
  -27.6333  -13.2384   19.8383 C   0  0  2  0  0  0
  -28.6819  -13.2308   20.9707 C   0  0  0  0  0  0
  -25.2485  -13.8215   20.5712 C   0  0  0  0  0  0
  -24.1799  -13.0438   20.9239 C   0  0  0  0  0  0
  -24.6408  -11.6924   20.8765 C   0  0  0  0  0  0
  -23.9093  -10.4291   21.0419 C   0  0  0  0  0  0
  -24.3636   -9.4203   21.9195 C   0  0  0  0  0  0
  -23.6304   -8.2242   22.0755 C   0  0  0  0  0  0
  -22.4285   -8.0285   21.3547 C   0  0  0  0  0  0
  -21.9931   -9.0263   20.4648 C   0  0  0  0  0  0
  -22.7267  -10.2139   20.3063 C   0  0  0  0  0  0
  -21.6855   -6.0746   22.5282 C   0  0  0  0  0  0
  -21.4011   -6.5645   23.8215 C   0  0  0  0  0  0
  -21.3657   -5.6796   24.9176 C   0  0  0  0  0  0
  -21.6042   -4.3061   24.7226 C   0  0  0  0  0  0
  -21.8819   -3.8157   23.4344 C   0  0  0  0  0  0
  -21.9189   -4.6973   22.3401 C   0  0  0  0  0  0
  -22.7818  -13.5206   21.1895 C   0  0  0  0  0  0
  -22.1662   -4.2159   21.0978 F   0  0  0  0  0  0
  -21.5627   -3.4541   25.7736 F   0  0  0  0  0  0
  -29.9638  -13.6114   20.3673 N   0  0  0  0  0  0
  -26.2901  -12.9430   20.3255 N   0  0  0  0  0  0
  -25.9329  -11.6569   20.5763 N   0  0  0  0  0  0
  -22.0480  -12.8167   22.0448 N   0  0  0  0  0  0
  -25.4138  -15.1946   20.4130 N   0  0  0  0  0  0
  -31.7767  -14.9399   20.1920 O   0  0  0  0  0  0
  -21.6640   -6.8887   21.4242 O   0  0  0  0  0  0
  -22.3493  -14.5508   20.6752 O   0  0  0  0  0  0
  -24.6371  -31.8493   23.1908 C   0  0  0  0  0  0
  -25.9172  -32.4721   23.8282 C   0  0  1  0  0  0
  -27.2208  -27.1962   20.1505 C   0  0  0  0  0  0
  -25.5935  -33.8525   24.2211 N   0  0  0  0  0  0
  -23.4377  -30.4674   21.5355 C   0  0  2  0  0  0
  -24.8868  -28.8986   20.1144 C   0  0  0  0  0  0
  -22.7531  -29.4561   22.4884 C   0  0  0  0  0  0
  -18.0301  -28.1375   22.8468 C   0  0  0  0  0  0
  -24.1496  -36.7273   23.2641 C   0  0  0  0  0  0
  -25.9869  -30.7464   21.3756 C   0  0  0  0  0  0
  -26.0616  -29.3601   20.7226 C   0  0  0  0  0  0
  -27.2332  -28.5246   20.7188 C   0  0  0  0  0  0
  -26.0197  -26.8120   19.5219 C   0  0  0  0  0  0
  -24.8747  -27.6364   19.4990 C   0  0  0  0  0  0
  -23.6597  -29.7938   20.1559 C   0  0  0  0  0  0
  -25.4121  -36.3043   24.0309 C   0  0  1  0  0  0
  -20.5904  -28.3694   23.1245 C   0  0  2  0  0  0
  -20.6786  -26.9405   22.5406 C   0  0  0  0  0  0
  -19.5762  -26.6376   21.5200 C   0  0  0  0  0  0
  -18.1940  -26.7917   22.1605 C   0  0  0  0  0  0
  -19.1558  -28.8850   23.2854 C   0  0  0  0  0  0
  -18.9476  -30.1448   23.8868 C   0  0  0  0  0  0
  -17.6478  -30.6575   24.0549 C   0  0  0  0  0  0
  -25.9059  -34.9415   23.5071 C   0  0  0  0  0  0
  -16.5363  -29.9075   23.6329 C   0  0  0  0  0  0
  -16.7286  -28.6492   23.0344 C   0  0  0  0  0  0
  -26.4504  -31.6563   25.0702 C   0  0  0  0  0  0
  -25.3702  -31.3725   26.1410 C   0  0  0  0  0  0
  -27.0367  -30.2969   24.6228 C   0  0  0  0  0  0
  -27.6050  -32.4318   25.7483 C   0  0  0  0  0  0
  -27.5582  -37.1780   24.8458 C   0  0  0  0  0  0
  -21.4237  -29.3044   22.3633 N   0  0  0  0  0  0
  -26.4290  -37.3745   23.9403 N   0  0  0  0  0  0
  -24.7072  -31.0403   22.0907 N   0  0  0  0  0  0
  -23.4206  -28.8104   23.3006 O   0  0  0  0  0  0
  -28.3212  -26.2898   20.1647 O   0  0  0  0  0  0
  -26.5654  -34.8901   22.4649 O   0  0  0  0  0  0
  -23.5504  -32.1340   23.7165 O   0  0  0  0  0  0
  -27.9024  -23.7285   19.2963 C   0  0  0  0  0  0
  -29.5073  -24.1776   21.0570 C   0  0  0  0  0  0
  -27.8953  -22.1627   19.6897 C   0  0  0  0  0  0
  -29.5280  -22.6236   21.4301 C   0  0  0  0  0  0
  -28.1922  -24.7850   20.4448 C   0  0  1  0  0  0
  -29.2206  -21.5631   20.3045 C   0  0  1  0  0  0
  -29.5601  -18.9594   18.6826 C   0  0  0  0  0  0
  -30.1336  -17.5074   20.7915 C   0  0  0  0  0  0
  -29.2662  -18.7828   20.1755 C   0  0  1  0  0  0
  -29.7783  -16.0062   20.5700 N   0  0  0  0  0  0
  -29.3118  -20.1402   20.8623 O   0  0  0  0  0  0
  -31.4721  -12.6824   19.1542 H   0  0  0  0  0  0
  -30.4229  -11.5681   19.9881 H   0  0  0  0  0  0
  -29.8063  -11.7098   17.5530 H   0  0  0  0  0  0
  -29.6085  -13.4408   17.6805 H   0  0  0  0  0  0
  -27.9247  -11.2702   18.9629 H   0  0  0  0  0  0
  -27.3741  -12.4595   17.8138 H   0  0  0  0  0  0
  -27.6079  -14.2457   19.4237 H   0  0  0  0  0  0
  -28.7506  -12.2509   21.4447 H   0  0  0  0  0  0
  -28.4038  -13.9353   21.7567 H   0  0  0  0  0  0
  -25.2777   -9.5672   22.4774 H   0  0  0  0  0  0
  -24.0013   -7.4628   22.7473 H   0  0  0  0  0  0
  -21.0863   -8.8792   19.8944 H   0  0  0  0  0  0
  -22.3737  -10.9685   19.6173 H   0  0  0  0  0  0
  -21.2010   -7.6155   23.9722 H   0  0  0  0  0  0
  -21.1475   -6.0525   25.9078 H   0  0  0  0  0  0
  -22.0602   -2.7619   23.2842 H   0  0  0  0  0  0
  -22.4118  -11.9806   22.4782 H   0  0  0  0  0  0
  -21.1102  -13.1168   22.2693 H   0  0  0  0  0  0
  -24.6413  -15.8416   20.5268 H   0  0  0  0  0  0
  -26.2519  -15.6400   20.0616 H   0  0  0  0  0  0
  -26.7248  -32.5343   23.1030 H   0  0  0  0  0  0
  -25.0040  -33.9633   25.0325 H   0  0  0  0  0  0
  -22.7371  -31.2908   21.3827 H   0  0  0  0  0  0
  -23.3749  -35.9618   23.3280 H   0  0  0  0  0  0
  -24.3586  -36.8944   22.2065 H   0  0  0  0  0  0
  -23.7273  -37.6471   23.6693 H   0  0  0  0  0  0
  -26.1272  -31.5033   20.6019 H   0  0  0  0  0  0
  -26.8625  -30.8006   22.0115 H   0  0  0  0  0  0
  -28.1374  -28.8763   21.1977 H   0  0  0  0  0  0
  -25.9494  -25.8461   19.0469 H   0  0  0  0  0  0
  -23.9745  -27.2776   19.0184 H   0  0  0  0  0  0
  -23.7866  -30.5651   19.3955 H   0  0  0  0  0  0
  -22.7768  -29.2281   19.8514 H   0  0  0  0  0  0
  -25.1308  -36.1869   25.0799 H   0  0  0  0  0  0
  -21.0000  -28.3294   24.1360 H   0  0  0  0  0  0
  -20.5688  -26.2298   23.3614 H   0  0  0  0  0  0
  -21.6652  -26.7422   22.1201 H   0  0  0  0  0  0
  -19.6933  -25.6290   21.1229 H   0  0  0  0  0  0
  -19.6713  -27.3176   20.6720 H   0  0  0  0  0  0
  -17.4225  -26.6657   21.4003 H   0  0  0  0  0  0
  -18.0334  -26.0056   22.8991 H   0  0  0  0  0  0
  -19.7963  -30.7258   24.2238 H   0  0  0  0  0  0
  -17.5041  -31.6253   24.5158 H   0  0  0  0  0  0
  -15.5367  -30.2965   23.7678 H   0  0  0  0  0  0
  -15.8681  -28.0818   22.7067 H   0  0  0  0  0  0
  -24.5940  -30.6993   25.7739 H   0  0  0  0  0  0
  -24.8803  -32.2880   26.4724 H   0  0  0  0  0  0
  -25.8001  -30.9009   27.0256 H   0  0  0  0  0  0
  -26.2973  -29.6668   24.1259 H   0  0  0  0  0  0
  -27.4045  -29.7271   25.4778 H   0  0  0  0  0  0
  -27.8839  -30.4223   23.9479 H   0  0  0  0  0  0
  -27.2696  -33.3686   26.1929 H   0  0  0  0  0  0
  -28.3908  -32.6755   25.0322 H   0  0  0  0  0  0
  -28.0635  -31.8516   26.5495 H   0  0  0  0  0  0
  -28.2564  -38.0118   24.7529 H   0  0  0  0  0  0
  -28.1120  -36.2633   24.6250 H   0  0  0  0  0  0
  -27.2293  -37.1392   25.8866 H   0  0  0  0  0  0
  -20.9436  -29.8782   21.6835 H   0  0  0  0  0  0
  -26.0152  -38.2810   24.1421 H   0  0  0  0  0  0
  -26.9451  -23.9524   18.8299 H   0  0  0  0  0  0
  -28.6406  -23.8713   18.5065 H   0  0  0  0  0  0
  -30.3241  -24.3650   20.3600 H   0  0  0  0  0  0
  -29.7587  -24.7477   21.9524 H   0  0  0  0  0  0
  -27.6396  -21.5891   18.7986 H   0  0  0  0  0  0
  -27.0775  -21.9916   20.3900 H   0  0  0  0  0  0
  -28.8191  -22.4704   22.2459 H   0  0  0  0  0  0
  -30.5048  -22.3877   21.8545 H   0  0  0  0  0  0
  -27.4054  -24.6805   21.1937 H   0  0  0  0  0  0
  -30.0018  -21.6503   19.5492 H   0  0  0  0  0  0
  -29.5771  -17.9979   18.1685 H   0  0  0  0  0  0
  -30.5247  -19.4409   18.5214 H   0  0  0  0  0  0
  -28.7931  -19.5686   18.2044 H   0  0  0  0  0  0
  -30.1053  -17.6283   21.8756 H   0  0  0  0  0  0
  -31.1835  -17.6474   20.5289 H   0  0  0  0  0  0
  -28.2197  -18.4860   20.2503 H   0  0  0  0  0  0
  -28.7930  -15.8078   20.6454 H   0  0  0  0  0  0
  1 25  1  0  0  0
  1 30  2  0  0  0
  1 80  1  0  0  0
  2  3  1  0  0  0
  2 25  1  0  0  0
  2 82  1  0  0  0
  2 83  1  0  0  0
  3  4  1  0  0  0
  3 84  1  0  0  0
  3 85  1  0  0  0
  4  5  1  0  0  0
  4 86  1  0  0  0
  4 87  1  0  0  0
  5  6  1  0  0  0
  5 26  1  0  0  0
  5 88  1  0  0  0
  6 25  1  0  0  0
  6 89  1  0  0  0
  6 90  1  0  0  0
  7  8  2  0  0  0
  7 26  1  0  0  0
  7 29  1  0  0  0
  8  9  1  0  0  0
  8 22  1  0  0  0
  9 10  1  0  0  0
  9 27  2  0  0  0
 10 11  2  0  0  0
 10 15  1  0  0  0
 11 12  1  0  0  0
 11 91  1  0  0  0
 12 13  2  0  0  0
 12 92  1  0  0  0
 13 14  1  0  0  0
 13 31  1  0  0  0
 14 15  2  0  0  0
 14 93  1  0  0  0
 15 94  1  0  0  0
 16 17  2  0  0  0
 16 21  1  0  0  0
 16 31  1  0  0  0
 17 18  1  0  0  0
 17 95  1  0  0  0
 18 19  2  0  0  0
 18 96  1  0  0  0
 19 20  1  0  0  0
 19 24  1  0  0  0
 20 21  2  0  0  0
 20 97  1  0  0  0
 21 23  1  0  0  0
 22 28  1  0  0  0
 22 32  2  0  0  0
 26 27  1  0  0  0
 28 98  1  0  0  0
 28 99  1  0  0  0
 29100  1  0  0  0
 29101  1  0  0  0
 33 34  1  0  0  0
 33 66  1  0  0  0
 33 70  2  0  0  0
 34 36  1  0  0  0
 34 59  1  0  0  0
 34102  1  0  0  0
 35 44  2  0  0  0
 35 45  1  0  0  0
 35 68  1  0  0  0
 36 56  1  0  0  0
 36103  1  0  0  0
 37 39  1  0  0  0
 37 47  1  0  0  0
 37 66  1  0  0  0
 37104  1  0  0  0
 38 43  2  0  0  0
 38 46  1  0  0  0
 38 47  1  0  0  0
 39 64  1  0  0  0
 39 67  2  0  0  0
 40 52  1  0  0  0
 40 53  2  0  0  0
 40 58  1  0  0  0
 41105  1  0  0  0
 41106  1  0  0  0
 41107  1  0  0  0
 41 48  1  0  0  0
 42 43  1  0  0  0
 42 66  1  0  0  0
 42108  1  0  0  0
 42109  1  0  0  0
 43 44  1  0  0  0
 44110  1  0  0  0
 45 46  2  0  0  0
 45111  1  0  0  0
 46112  1  0  0  0
 47113  1  0  0  0
 47114  1  0  0  0
 48 56  1  0  0  0
 48 65  1  0  0  0
 48115  1  0  0  0
 49 50  1  0  0  0
 49 53  1  0  0  0
 49 64  1  0  0  0
 49116  1  0  0  0
 50 51  1  0  0  0
 50117  1  0  0  0
 50118  1  0  0  0
 51 52  1  0  0  0
 51119  1  0  0  0
 51120  1  0  0  0
 52121  1  0  0  0
 52122  1  0  0  0
 53 54  1  0  0  0
 54 55  2  0  0  0
 54123  1  0  0  0
 55 57  1  0  0  0
 55124  1  0  0  0
 56 69  2  0  0  0
 57 58  2  0  0  0
 57125  1  0  0  0
 58126  1  0  0  0
 59 60  1  0  0  0
 59 61  1  0  0  0
 59 62  1  0  0  0
 60127  1  0  0  0
 60128  1  0  0  0
 60129  1  0  0  0
 61130  1  0  0  0
 61131  1  0  0  0
 61132  1  0  0  0
 62133  1  0  0  0
 62134  1  0  0  0
 62135  1  0  0  0
 63 65  1  0  0  0
 63136  1  0  0  0
 63137  1  0  0  0
 63138  1  0  0  0
 64139  1  0  0  0
 65140  1  0  0  0
 68 75  1  0  0  0
 71 73  1  0  0  0
 71 75  1  0  0  0
 71141  1  0  0  0
 71142  1  0  0  0
 72 74  1  0  0  0
 72 75  1  0  0  0
 72143  1  0  0  0
 72144  1  0  0  0
 73 76  1  0  0  0
 73145  1  0  0  0
 73146  1  0  0  0
 74 76  1  0  0  0
 74147  1  0  0  0
 74148  1  0  0  0
 75149  1  0  0  0
 76 81  1  0  0  0
 76150  1  0  0  0
 77151  1  0  0  0
 77152  1  0  0  0
 77153  1  0  0  0
 77 79  1  0  0  0
 78 79  1  0  0  0
 78 80  1  0  0  0
 78154  1  0  0  0
 78155  1  0  0  0
 79 81  1  0  0  0
 79156  1  0  0  0
 80157  1  0  0  0
M  ISO  4   1 100  68 101  75 101  80 100
M  END
> <chiral flag>
0

> <version>
0

> <s_m_source_file>
/data/baiqing/PycharmProjects/Reinvent-master-3.2/result/LINK_invent/BTK/process_docking_weight1_custom_sum_contain_oxygen_bond_distance_aromatic_linkinvent_7_9_3/rearranged_h_0114.sdf

> <i_m_source_file_index>
47

> <r_mmod_Potential_Energy-OPLS-2005>
264.699340820312

> <r_mmod_Stretch_Energy-OPLS-2005>
178.856903076172

> <r_mmod_Bend_Energy-OPLS-2005>
250.188323974609

> <r_mmod_Torsional_Energy-OPLS-2005>
245.702438354492

> <r_mmod_Improper_Torsional_Energy-OPLS-2005>
4.33391427993774

> <r_mmod_Van_der_Waal_Energy-OPLS-2005>
112.394554138184

> <r_mmod_Electrostatic_Energy-OPLS-2005>
-454.221801757812

> <r_mmod_Solvation_Energy-OPLS-2005>
-206.338989257812

> <b_mmod_Minimization_Converged-OPLS-2005>
0

> <r_mmod_RMS_Derivative-OPLS-2005>
2.13663220405579

$$$$
47
                    3D
 Structure written by MMmdl.
177185  0  0  1  0            999 V2000
  -30.6710  -14.4725   20.6154 C   0  0  0  0  0  0
  -30.4251  -12.3180   19.4201 C   0  0  0  0  0  0
  -29.4932  -12.4959   18.2035 C   0  0  0  0  0  0
  -28.0146  -12.3443   18.6122 C   0  0  0  0  0  0
  -27.6570  -13.1879   19.8621 C   0  0  2  0  0  0
  -28.6880  -12.9506   20.9827 C   0  0  0  0  0  0
  -25.2602  -13.8128   20.5639 C   0  0  0  0  0  0
  -24.1824  -13.0456   20.9169 C   0  0  0  0  0  0
  -24.6332  -11.6897   20.8719 C   0  0  0  0  0  0
  -23.8984  -10.4308   21.0384 C   0  0  0  0  0  0
  -24.3541   -9.4242   21.9167 C   0  0  0  0  0  0
  -23.6249   -8.2261   22.0761 C   0  0  0  0  0  0
  -22.4235   -8.0290   21.3564 C   0  0  0  0  0  0
  -21.9838   -9.0256   20.4673 C   0  0  0  0  0  0
  -22.7139  -10.2135   20.3061 C   0  0  0  0  0  0
  -21.6854   -6.0721   22.5289 C   0  0  0  0  0  0
  -21.4003   -6.5612   23.8225 C   0  0  0  0  0  0
  -21.3657   -5.6771   24.9187 C   0  0  0  0  0  0
  -21.6041   -4.3044   24.7238 C   0  0  0  0  0  0
  -21.8808   -3.8130   23.4362 C   0  0  0  0  0  0
  -21.9185   -4.6945   22.3413 C   0  0  0  0  0  0
  -22.7869  -13.5322   21.1833 C   0  0  0  0  0  0
  -22.1665   -4.2117   21.0988 F   0  0  0  0  0  0
  -21.5627   -3.4524   25.7759 F   0  0  0  0  0  0
  -30.0212  -13.2845   20.4529 N   0  0  0  0  0  0
  -26.2977  -12.9243   20.3287 N   0  0  0  0  0  0
  -25.9233  -11.6420   20.5688 N   0  0  0  0  0  0
  -22.0445  -12.8399   22.0405 N   0  0  0  0  0  0
  -25.4417  -15.1830   20.4034 N   0  0  0  0  0  0
  -31.7615  -14.7041   20.0756 O   0  0  0  0  0  0
  -21.6636   -6.8859   21.4256 O   0  0  0  0  0  0
  -22.3619  -14.5643   20.6669 O   0  0  0  0  0  0
  -24.6174  -31.8687   23.2116 C   0  0  0  0  0  0
  -25.9061  -32.4830   23.8407 C   0  0  1  0  0  0
  -27.2217  -27.4312   20.0559 C   0  0  0  0  0  0
  -25.5913  -33.8628   24.2340 N   0  0  0  0  0  0
  -23.4023  -30.4986   21.5553 C   0  0  2  0  0  0
  -24.8398  -28.9661   20.1165 C   0  0  0  0  0  0
  -22.7418  -29.4681   22.5003 C   0  0  0  0  0  0
  -18.0271  -28.1384   22.8495 C   0  0  0  0  0  0
  -24.1478  -36.7320   23.2636 C   0  0  0  0  0  0
  -25.9356  -30.8290   21.3656 C   0  0  0  0  0  0
  -26.0058  -29.4647   20.7089 C   0  0  0  0  0  0
  -27.1988  -28.7011   20.6822 C   0  0  0  0  0  0
  -26.0156  -26.9344   19.5041 C   0  0  0  0  0  0
  -24.8375  -27.6978   19.5195 C   0  0  0  0  0  0
  -23.6066  -29.8382   20.1680 C   0  0  0  0  0  0
  -25.4095  -36.3115   24.0342 C   0  0  1  0  0  0
  -20.5862  -28.3671   23.1313 C   0  0  2  0  0  0
  -20.6755  -26.9403   22.5419 C   0  0  0  0  0  0
  -19.5744  -26.6391   21.5211 C   0  0  0  0  0  0
  -18.1919  -26.7936   22.1614 C   0  0  0  0  0  0
  -19.1525  -28.8847   23.2898 C   0  0  0  0  0  0
  -18.9454  -30.1447   23.8913 C   0  0  0  0  0  0
  -17.6453  -30.6584   24.0570 C   0  0  0  0  0  0
  -25.9035  -34.9479   23.5137 C   0  0  0  0  0  0
  -16.5343  -29.9089   23.6325 C   0  0  0  0  0  0
  -16.7262  -28.6505   23.0350 C   0  0  0  0  0  0
  -26.4481  -31.6607   25.0740 C   0  0  0  0  0  0
  -25.3749  -31.3727   26.1506 C   0  0  0  0  0  0
  -27.0289  -30.3038   24.6117 C   0  0  0  0  0  0
  -27.6085  -32.4314   25.7470 C   0  0  0  0  0  0
  -27.5592  -37.1795   24.8455 C   0  0  0  0  0  0
  -21.4147  -29.3036   22.3721 N   0  0  0  0  0  0
  -26.4285  -37.3804   23.9429 N   0  0  0  0  0  0
  -24.6707  -31.0796   22.1018 N   0  0  0  0  0  0
  -23.4196  -28.8215   23.3033 O   0  0  0  0  0  0
  -28.3924  -26.6924   20.0249 O   0  0  0  0  0  0
  -26.5594  -34.8933   22.4700 O   0  0  0  0  0  0
  -23.5365  -32.1443   23.7515 O   0  0  0  0  0  0
  -30.5365  -20.5199   20.8349 C   0  0  0  0  0  0
  -28.3016  -19.8013   20.0991 C   0  0  0  0  0  0
  -30.4793  -21.7067   19.8531 C   0  0  0  0  0  0
  -28.2220  -21.0394   19.1626 C   0  0  0  0  0  0
  -29.7537  -19.3160   20.2865 C   0  0  2  0  0  0
  -33.2896  -24.6614   17.4240 C   0  0  0  0  0  0
  -32.8599  -24.5834   19.8955 C   0  0  0  0  0  0
  -29.8615  -15.5395   22.6560 C   0  0  0  0  0  0
  -29.9130  -18.0490   21.1741 C   0  0  0  0  0  0
  -30.9424  -25.0923   18.2726 C   0  0  0  0  0  0
  -29.5910  -16.7053   20.4510 C   0  0  0  0  0  0
  -29.0088  -23.3419   18.6404 C   0  0  0  0  0  0
  -28.6588  -25.9131   18.8427 C   0  0  0  0  0  0
  -32.2533  -24.3109   18.5061 C   0  0  0  0  0  0
  -29.6525  -24.7200   19.0752 C   0  0  2  0  0  0
  -29.9435  -15.4648   21.1924 N   0  0  0  0  0  0
  -29.0945  -22.1800   19.5942 N   0  3  2  0  0  0
  -31.4658  -12.4386   19.1155 H   0  0  0  0  0  0
  -30.3527  -11.3055   19.8199 H   0  0  0  0  0  0
  -29.7431  -11.7598   17.4369 H   0  0  0  0  0  0
  -29.6548  -13.4783   17.7543 H   0  0  0  0  0  0
  -27.8417  -11.2894   18.8250 H   0  0  0  0  0  0
  -27.3574  -12.5984   17.7793 H   0  0  0  0  0  0
  -27.7101  -14.2337   19.5614 H   0  0  0  0  0  0
  -28.6746  -11.9062   21.3044 H   0  0  0  0  0  0
  -28.4078  -13.5215   21.8628 H   0  0  0  0  0  0
  -25.2667   -9.5738   22.4767 H   0  0  0  0  0  0
  -23.9959   -7.4647   22.7473 H   0  0  0  0  0  0
  -21.0761   -8.8740   19.9013 H   0  0  0  0  0  0
  -22.3554  -10.9658   19.6190 H   0  0  0  0  0  0
  -21.1998   -7.6119   23.9727 H   0  0  0  0  0  0
  -21.1494   -6.0501   25.9088 H   0  0  0  0  0  0
  -22.0585   -2.7588   23.2876 H   0  0  0  0  0  0
  -22.3958  -12.0020   22.4796 H   0  0  0  0  0  0
  -21.1103  -13.1554   22.2586 H   0  0  0  0  0  0
  -24.6907  -15.8513   20.5325 H   0  0  0  0  0  0
  -26.3032  -15.6128   20.0904 H   0  0  0  0  0  0
  -26.7127  -32.5523   23.1164 H   0  0  0  0  0  0
  -25.0059  -33.9780   25.0481 H   0  0  0  0  0  0
  -22.6908  -31.3169   21.4224 H   0  0  0  0  0  0
  -23.3745  -35.9653   23.3284 H   0  0  0  0  0  0
  -24.3582  -36.8946   22.2057 H   0  0  0  0  0  0
  -23.7218  -37.6517   23.6652 H   0  0  0  0  0  0
  -26.0514  -31.5954   20.5975 H   0  0  0  0  0  0
  -26.8238  -30.8776   21.9839 H   0  0  0  0  0  0
  -28.1043  -29.0882   21.1276 H   0  0  0  0  0  0
  -25.9392  -25.9477   19.0756 H   0  0  0  0  0  0
  -23.9332  -27.2993   19.0808 H   0  0  0  0  0  0
  -23.7179  -30.6163   19.4116 H   0  0  0  0  0  0
  -22.7261  -29.2661   19.8693 H   0  0  0  0  0  0
  -25.1262  -36.1982   25.0835 H   0  0  0  0  0  0
  -20.9967  -28.3238   24.1433 H   0  0  0  0  0  0
  -20.5636  -26.2287   23.3616 H   0  0  0  0  0  0
  -21.6627  -26.7434   22.1227 H   0  0  0  0  0  0
  -19.6893  -25.6304   21.1236 H   0  0  0  0  0  0
  -19.6683  -27.3208   20.6750 H   0  0  0  0  0  0
  -17.4191  -26.6700   21.3999 H   0  0  0  0  0  0
  -18.0300  -26.0066   22.9003 H   0  0  0  0  0  0
  -19.7923  -30.7255   24.2290 H   0  0  0  0  0  0
  -17.5006  -31.6264   24.5175 H   0  0  0  0  0  0
  -15.5342  -30.2991   23.7647 H   0  0  0  0  0  0
  -15.8662  -28.0830   22.7058 H   0  0  0  0  0  0
  -24.5915  -30.7073   25.7858 H   0  0  0  0  0  0
  -24.8950  -32.2887   26.4957 H   0  0  0  0  0  0
  -25.8110  -30.8901   27.0261 H   0  0  0  0  0  0
  -26.2809  -29.6809   24.1195 H   0  0  0  0  0  0
  -27.4071  -29.7275   25.4572 H   0  0  0  0  0  0
  -27.8653  -30.4347   23.9248 H   0  0  0  0  0  0
  -27.2732  -33.3606   26.2088 H   0  0  0  0  0  0
  -28.3848  -32.6886   25.0250 H   0  0  0  0  0  0
  -28.0806  -31.8415   26.5335 H   0  0  0  0  0  0
  -28.2591  -38.0111   24.7546 H   0  0  0  0  0  0
  -28.1100  -36.2651   24.6202 H   0  0  0  0  0  0
  -27.2331  -37.1364   25.8859 H   0  0  0  0  0  0
  -20.9315  -29.8768   21.6947 H   0  0  0  0  0  0
  -26.0177  -38.2880   24.1461 H   0  0  0  0  0  0
  -30.1428  -20.8280   21.8049 H   0  0  0  0  0  0
  -31.5797  -20.2495   21.0015 H   0  0  0  0  0  0
  -27.6877  -18.9941   19.6964 H   0  0  0  0  0  0
  -27.8610  -20.0526   21.0660 H   0  0  0  0  0  0
  -30.9452  -21.4148   18.9095 H   0  0  0  0  0  0
  -31.0604  -22.5192   20.2740 H   0  0  0  0  0  0
  -27.1845  -21.3719   19.1077 H   0  0  0  0  0  0
  -28.4939  -20.7355   18.1497 H   0  0  0  0  0  0
  -30.1728  -19.0735   19.3073 H   0  0  0  0  0  0
  -34.2022  -24.0748   17.5479 H   0  0  0  0  0  0
  -33.5716  -25.7148   17.4576 H   0  0  0  0  0  0
  -32.9092  -24.4535   16.4226 H   0  0  0  0  0  0
  -33.7792  -24.0146   20.0410 H   0  0  0  0  0  0
  -32.1868  -24.3239   20.7102 H   0  0  0  0  0  0
  -33.1089  -25.6380   20.0165 H   0  0  0  0  0  0
  -29.9027  -14.5586   23.1310 H   0  0  0  0  0  0
  -28.9299  -16.0130   22.9690 H   0  0  0  0  0  0
  -30.6963  -16.1161   23.0532 H   0  0  0  0  0  0
  -29.3041  -18.1702   22.0723 H   0  0  0  0  0  0
  -30.9468  -18.0031   21.5229 H   0  0  0  0  0  0
  -30.6963  -25.0493   17.2104 H   0  0  0  0  0  0
  -31.1828  -26.1398   18.4643 H   0  0  0  0  0  0
  -30.0890  -16.6977   19.4781 H   0  0  0  0  0  0
  -28.5245  -16.6612   20.2247 H   0  0  0  0  0  0
  -29.3889  -23.0453   17.6632 H   0  0  0  0  0  0
  -27.9392  -23.4843   18.4798 H   0  0  0  0  0  0
  -27.7746  -25.5629   18.3216 H   0  0  0  0  0  0
  -29.0651  -26.6274   18.1242 H   0  0  0  0  0  0
  -32.0624  -23.2502   18.3887 H   0  0  0  0  0  0
  -29.8780  -24.6928   20.1409 H   0  0  0  0  0  0
  -28.7206  -22.5000   20.4755 H   0  0  0  0  0  0
  1 25  1  0  0  0
  1 30  2  0  0  0
  1 86  1  0  0  0
  2  3  1  0  0  0
  2 25  1  0  0  0
  2 88  1  0  0  0
  2 89  1  0  0  0
  3  4  1  0  0  0
  3 90  1  0  0  0
  3 91  1  0  0  0
  4  5  1  0  0  0
  4 92  1  0  0  0
  4 93  1  0  0  0
  5  6  1  0  0  0
  5 26  1  0  0  0
  5 94  1  0  0  0
  6 25  1  0  0  0
  6 95  1  0  0  0
  6 96  1  0  0  0
  7  8  2  0  0  0
  7 26  1  0  0  0
  7 29  1  0  0  0
  8  9  1  0  0  0
  8 22  1  0  0  0
  9 10  1  0  0  0
  9 27  2  0  0  0
 10 11  2  0  0  0
 10 15  1  0  0  0
 11 12  1  0  0  0
 11 97  1  0  0  0
 12 13  2  0  0  0
 12 98  1  0  0  0
 13 14  1  0  0  0
 13 31  1  0  0  0
 14 15  2  0  0  0
 14 99  1  0  0  0
 15100  1  0  0  0
 16 17  2  0  0  0
 16 21  1  0  0  0
 16 31  1  0  0  0
 17 18  1  0  0  0
 17101  1  0  0  0
 18 19  2  0  0  0
 18102  1  0  0  0
 19 20  1  0  0  0
 19 24  1  0  0  0
 20 21  2  0  0  0
 20103  1  0  0  0
 21 23  1  0  0  0
 22 28  1  0  0  0
 22 32  2  0  0  0
 26 27  1  0  0  0
 28104  1  0  0  0
 28105  1  0  0  0
 29106  1  0  0  0
 29107  1  0  0  0
 33 34  1  0  0  0
 33 66  1  0  0  0
 33 70  2  0  0  0
 34 36  1  0  0  0
 34 59  1  0  0  0
 34108  1  0  0  0
 35 44  2  0  0  0
 35 45  1  0  0  0
 35 68  1  0  0  0
 36 56  1  0  0  0
 36109  1  0  0  0
 37 39  1  0  0  0
 37 47  1  0  0  0
 37 66  1  0  0  0
 37110  1  0  0  0
 38 43  2  0  0  0
 38 46  1  0  0  0
 38 47  1  0  0  0
 39 64  1  0  0  0
 39 67  2  0  0  0
 40 52  1  0  0  0
 40 53  2  0  0  0
 40 58  1  0  0  0
 41111  1  0  0  0
 41112  1  0  0  0
 41113  1  0  0  0
 41 48  1  0  0  0
 42 43  1  0  0  0
 42 66  1  0  0  0
 42114  1  0  0  0
 42115  1  0  0  0
 43 44  1  0  0  0
 44116  1  0  0  0
 45 46  2  0  0  0
 45117  1  0  0  0
 46118  1  0  0  0
 47119  1  0  0  0
 47120  1  0  0  0
 48 56  1  0  0  0
 48 65  1  0  0  0
 48121  1  0  0  0
 49 50  1  0  0  0
 49 53  1  0  0  0
 49 64  1  0  0  0
 49122  1  0  0  0
 50 51  1  0  0  0
 50123  1  0  0  0
 50124  1  0  0  0
 51 52  1  0  0  0
 51125  1  0  0  0
 51126  1  0  0  0
 52127  1  0  0  0
 52128  1  0  0  0
 53 54  1  0  0  0
 54 55  2  0  0  0
 54129  1  0  0  0
 55 57  1  0  0  0
 55130  1  0  0  0
 56 69  2  0  0  0
 57 58  2  0  0  0
 57131  1  0  0  0
 58132  1  0  0  0
 59 60  1  0  0  0
 59 61  1  0  0  0
 59 62  1  0  0  0
 60133  1  0  0  0
 60134  1  0  0  0
 60135  1  0  0  0
 61136  1  0  0  0
 61137  1  0  0  0
 61138  1  0  0  0
 62139  1  0  0  0
 62140  1  0  0  0
 62141  1  0  0  0
 63 65  1  0  0  0
 63142  1  0  0  0
 63143  1  0  0  0
 63144  1  0  0  0
 64145  1  0  0  0
 65146  1  0  0  0
 68 83  1  0  0  0
 71 73  1  0  0  0
 71 75  1  0  0  0
 71147  1  0  0  0
 71148  1  0  0  0
 72 74  1  0  0  0
 72 75  1  0  0  0
 72149  1  0  0  0
 72150  1  0  0  0
 73 87  1  0  0  0
 73151  1  0  0  0
 73152  1  0  0  0
 74 87  1  0  0  0
 74153  1  0  0  0
 74154  1  0  0  0
 75 79  1  0  0  0
 75155  1  0  0  0
 76156  1  0  0  0
 76157  1  0  0  0
 76158  1  0  0  0
 76 84  1  0  0  0
 77 84  1  0  0  0
 77159  1  0  0  0
 77160  1  0  0  0
 77161  1  0  0  0
 78 86  1  0  0  0
 78162  1  0  0  0
 78163  1  0  0  0
 78164  1  0  0  0
 79 81  1  0  0  0
 79165  1  0  0  0
 79166  1  0  0  0
 80 84  1  0  0  0
 80167  1  0  0  0
 80168  1  0  0  0
 80 85  1  0  0  0
 81 86  1  0  0  0
 81169  1  0  0  0
 81170  1  0  0  0
 82 85  1  0  0  0
 82171  1  0  0  0
 82172  1  0  0  0
 82 87  1  0  0  0
 83 85  1  0  0  0
 83173  1  0  0  0
 83174  1  0  0  0
 84175  1  0  0  0
 85176  1  0  0  0
 87177  1  0  0  0
M  CHG  1  87   1
M  ISO  4   1 100  68 101  83 101  86 100
M  END
> <chiral flag>
0

> <version>
0

> <s_m_source_file>
/data/baiqing/PycharmProjects/Reinvent-master-3.2/result/LINK_invent/BTK/process_docking_weight1_custom_sum_contain_oxygen_bond_distance_aromatic_linkinvent_7_9_3/rearranged_h_0114.sdf

> <i_m_source_file_index>
48

> <r_mmod_Potential_Energy-OPLS-2005>
139.845245361328

> <r_mmod_Stretch_Energy-OPLS-2005>
48.9944190979004

> <r_mmod_Bend_Energy-OPLS-2005>
125.134490966797

> <r_mmod_Torsional_Energy-OPLS-2005>
363.507507324219

> <r_mmod_Improper_Torsional_Energy-OPLS-2005>
6.47908687591553

> <r_mmod_Van_der_Waal_Energy-OPLS-2005>
152.192428588867

> <r_mmod_Electrostatic_Energy-OPLS-2005>
-161.456726074219

> <r_mmod_Solvation_Energy-OPLS-2005>
-408.673126220703

> <b_mmod_Minimization_Converged-OPLS-2005>
0

> <r_mmod_RMS_Derivative-OPLS-2005>
3.84406542778015

$$$$
48
                    3D
 Structure written by MMmdl.
152159  0  0  1  0            999 V2000
  -30.4452  -15.2490   20.3798 C   0  0  0  0  0  0
  -30.4477  -12.7940   19.5334 C   0  0  0  0  0  0
  -29.5422  -12.5735   18.2934 C   0  0  0  0  0  0
  -28.0932  -12.2899   18.7265 C   0  0  0  0  0  0
  -27.6207  -13.2664   19.8320 C   0  0  2  0  0  0
  -28.6537  -13.4262   20.9700 C   0  0  0  0  0  0
  -25.2423  -13.8216   20.5705 C   0  0  0  0  0  0
  -24.1771  -13.0424   20.9229 C   0  0  0  0  0  0
  -24.6411  -11.6915   20.8759 C   0  0  0  0  0  0
  -23.9075  -10.4292   21.0396 C   0  0  0  0  0  0
  -24.3641   -9.4209   21.9177 C   0  0  0  0  0  0
  -23.6317   -8.2239   22.0753 C   0  0  0  0  0  0
  -22.4290   -8.0281   21.3543 C   0  0  0  0  0  0
  -21.9927   -9.0235   20.4633 C   0  0  0  0  0  0
  -22.7246  -10.2126   20.3042 C   0  0  0  0  0  0
  -21.6842   -6.0742   22.5287 C   0  0  0  0  0  0
  -21.4015   -6.5649   23.8223 C   0  0  0  0  0  0
  -21.3648   -5.6803   24.9187 C   0  0  0  0  0  0
  -21.6041   -4.3063   24.7235 C   0  0  0  0  0  0
  -21.8819   -3.8151   23.4363 C   0  0  0  0  0  0
  -21.9198   -4.6967   22.3416 C   0  0  0  0  0  0
  -22.7788  -13.5180   21.1886 C   0  0  0  0  0  0
  -22.1654   -4.2142   21.1000 F   0  0  0  0  0  0
  -21.5631   -3.4560   25.7753 F   0  0  0  0  0  0
  -29.8909  -13.9357   20.3545 N   0  0  0  0  0  0
  -26.2865  -12.9486   20.3239 N   0  0  0  0  0  0
  -25.9354  -11.6595   20.5731 N   0  0  0  0  0  0
  -22.0436  -12.8158   22.0442 N   0  0  0  0  0  0
  -25.4086  -15.1943   20.4091 N   0  0  0  0  0  0
  -31.6546  -15.2592   20.1077 O   0  0  0  0  0  0
  -21.6640   -6.8882   21.4244 O   0  0  0  0  0  0
  -22.3457  -14.5465   20.6712 O   0  0  0  0  0  0
  -24.6642  -31.8206   23.1688 C   0  0  0  0  0  0
  -25.9309  -32.4562   23.8167 C   0  0  1  0  0  0
  -27.2374  -26.9354   20.1923 C   0  0  0  0  0  0
  -25.5972  -33.8388   24.2063 N   0  0  0  0  0  0
  -23.4803  -30.4307   21.5152 C   0  0  2  0  0  0
  -24.9362  -28.8155   20.1089 C   0  0  0  0  0  0
  -22.7686  -29.4414   22.4749 C   0  0  0  0  0  0
  -18.0329  -28.1418   22.8454 C   0  0  0  0  0  0
  -24.1479  -36.7206   23.2643 C   0  0  0  0  0  0
  -26.0461  -30.6311   21.3992 C   0  0  0  0  0  0
  -26.1141  -29.2198   20.7485 C   0  0  0  0  0  0
  -27.2516  -28.2976   20.7712 C   0  0  0  0  0  0
  -26.0336  -26.6817   19.4938 C   0  0  0  0  0  0
  -24.9231  -27.5687   19.4602 C   0  0  0  0  0  0
  -23.7187  -29.7402   20.1415 C   0  0  0  0  0  0
  -25.4126  -36.2950   24.0282 C   0  0  1  0  0  0
  -20.5956  -28.3738   23.1177 C   0  0  2  0  0  0
  -20.6796  -26.9412   22.5404 C   0  0  0  0  0  0
  -19.5769  -26.6371   21.5209 C   0  0  0  0  0  0
  -18.1949  -26.7957   22.1614 C   0  0  0  0  0  0
  -19.1599  -28.8898   23.2799 C   0  0  0  0  0  0
  -18.9506  -30.1500   23.8806 C   0  0  0  0  0  0
  -17.6500  -30.6587   24.0564 C   0  0  0  0  0  0
  -25.9098  -34.9333   23.4996 C   0  0  0  0  0  0
  -16.5379  -29.9084   23.6356 C   0  0  0  0  0  0
  -16.7315  -28.6535   23.0324 C   0  0  0  0  0  0
  -26.4563  -31.6535   25.0719 C   0  0  0  0  0  0
  -25.3687  -31.3799   26.1384 C   0  0  0  0  0  0
  -27.0475  -30.2904   24.6452 C   0  0  0  0  0  0
  -27.6038  -32.4373   25.7520 C   0  0  0  0  0  0
  -27.5562  -37.1754   24.8468 C   0  0  0  0  0  0
  -21.4349  -29.3037   22.3528 N   0  0  0  0  0  0
  -26.4262  -37.3704   23.9410 N   0  0  0  0  0  0
  -24.7513  -30.9871   22.0821 N   0  0  0  0  0  0
  -23.4232  -28.7997   23.3006 O   0  0  0  0  0  0
  -28.2596  -25.8588   20.3345 O   0  0  0  0  0  0
  -26.5725  -34.8881   22.4605 O   0  0  0  0  0  0
  -23.5714  -32.1172   23.6777 O   0  0  0  0  0  0
  -29.7724  -23.0234   21.6919 C   0  0  0  0  0  0
  -27.3586  -22.3884   21.4612 C   0  0  0  0  0  0
  -29.1609  -21.0995   19.9913 C   0  0  0  0  0  0
  -28.2886  -24.2705   19.8884 C   0  0  0  0  0  0
  -29.8764  -18.1463   20.1781 C   0  0  0  0  0  0
  -28.6529  -22.6907   20.6852 C   0  0  0  0  0  0
  -29.6792  -16.5114   20.5126 N   0  0  0  0  0  0
  -29.1286  -19.5663   20.6524 N   0  3  0  0  0  0
  -31.4674  -12.9950   19.1994 H   0  0  0  0  0  0
  -30.5179  -11.8805   20.1248 H   0  0  0  0  0  0
  -29.9211  -11.7499   17.6861 H   0  0  0  0  0  0
  -29.5705  -13.4625   17.6619 H   0  0  0  0  0  0
  -28.0649  -11.2712   19.1124 H   0  0  0  0  0  0
  -27.4199  -12.3149   17.8675 H   0  0  0  0  0  0
  -27.5449  -14.2332   19.3355 H   0  0  0  0  0  0
  -28.8188  -12.4829   21.4917 H   0  0  0  0  0  0
  -28.2956  -14.1316   21.7201 H   0  0  0  0  0  0
  -25.2792   -9.5681   22.4747 H   0  0  0  0  0  0
  -24.0021   -7.4626   22.7486 H   0  0  0  0  0  0
  -21.0854   -8.8742   19.8937 H   0  0  0  0  0  0
  -22.3692  -10.9662   19.6155 H   0  0  0  0  0  0
  -21.1997   -7.6159   23.9724 H   0  0  0  0  0  0
  -21.1459   -6.0540   25.9088 H   0  0  0  0  0  0
  -22.0607   -2.7611   23.2871 H   0  0  0  0  0  0
  -22.4093  -11.9869   22.4894 H   0  0  0  0  0  0
  -21.1024  -13.1141   22.2573 H   0  0  0  0  0  0
  -24.6349  -15.8443   20.4945 H   0  0  0  0  0  0
  -26.2405  -15.6197   20.0204 H   0  0  0  0  0  0
  -26.7372  -32.5073   23.0883 H   0  0  0  0  0  0
  -25.0057  -33.9459   25.0162 H   0  0  0  0  0  0
  -22.7971  -31.2634   21.3437 H   0  0  0  0  0  0
  -23.3739  -35.9541   23.3283 H   0  0  0  0  0  0
  -24.3547  -36.8906   22.2066 H   0  0  0  0  0  0
  -23.7246  -37.6382   23.6735 H   0  0  0  0  0  0
  -26.2216  -31.3716   20.6186 H   0  0  0  0  0  0
  -26.9071  -30.6918   22.0544 H   0  0  0  0  0  0
  -28.1350  -28.5988   21.3166 H   0  0  0  0  0  0
  -25.9100  -25.7266   19.0051 H   0  0  0  0  0  0
  -24.0299  -27.2549   18.9398 H   0  0  0  0  0  0
  -23.8649  -30.5080   19.3808 H   0  0  0  0  0  0
  -22.8295  -29.1883   19.8290 H   0  0  0  0  0  0
  -25.1324  -36.1744   25.0772 H   0  0  0  0  0  0
  -21.0020  -28.3342   24.1303 H   0  0  0  0  0  0
  -20.5661  -26.2353   23.3655 H   0  0  0  0  0  0
  -21.6668  -26.7392   22.1213 H   0  0  0  0  0  0
  -19.6935  -25.6269   21.1274 H   0  0  0  0  0  0
  -19.6717  -27.3148   20.6719 H   0  0  0  0  0  0
  -17.4222  -26.6672   21.4007 H   0  0  0  0  0  0
  -18.0334  -26.0128   22.9034 H   0  0  0  0  0  0
  -19.7989  -30.7347   24.2104 H   0  0  0  0  0  0
  -17.5058  -31.6257   24.5185 H   0  0  0  0  0  0
  -15.5371  -30.2948   23.7756 H   0  0  0  0  0  0
  -15.8725  -28.0855   22.7017 H   0  0  0  0  0  0
  -24.5855  -30.7164   25.7697 H   0  0  0  0  0  0
  -24.8885  -32.3005   26.4700 H   0  0  0  0  0  0
  -25.7909  -30.9043   27.0240 H   0  0  0  0  0  0
  -26.3153  -29.6569   24.1428 H   0  0  0  0  0  0
  -27.3988  -29.7291   25.5113 H   0  0  0  0  0  0
  -27.9094  -30.4107   23.9891 H   0  0  0  0  0  0
  -27.2580  -33.3721   26.1951 H   0  0  0  0  0  0
  -28.3908  -32.6869   25.0390 H   0  0  0  0  0  0
  -28.0635  -31.8619   26.5568 H   0  0  0  0  0  0
  -28.2554  -38.0071   24.7517 H   0  0  0  0  0  0
  -28.1088  -36.2604   24.6287 H   0  0  0  0  0  0
  -27.2294  -37.1387   25.8874 H   0  0  0  0  0  0
  -20.9589  -29.8759   21.6685 H   0  0  0  0  0  0
  -26.0110  -38.2756   24.1445 H   0  0  0  0  0  0
  -29.9995  -22.1768   22.3411 H   0  0  0  0  0  0
  -29.5058  -23.8623   22.3372 H   0  0  0  0  0  0
  -30.6954  -23.2925   21.1762 H   0  0  0  0  0  0
  -27.4715  -21.5528   22.1522 H   0  0  0  0  0  0
  -26.5466  -22.1453   20.7759 H   0  0  0  0  0  0
  -27.0359  -23.2473   22.0483 H   0  0  0  0  0  0
  -30.1983  -21.2380   19.6800 H   0  0  0  0  0  0
  -28.6259  -21.0018   19.0465 H   0  0  0  0  0  0
  -27.3485  -24.1064   19.3635 H   0  0  0  0  0  0
  -29.0209  -24.3023   19.0807 H   0  0  0  0  0  0
  -30.9341  -18.3301   20.3740 H   0  0  0  0  0  0
  -29.8098  -18.1789   19.0901 H   0  0  0  0  0  0
  -28.7303  -16.3078   20.7875 H   0  0  0  0  0  0
  -29.4055  -19.6907   21.6127 H   0  0  0  0  0  0
  -28.1462  -19.3500   20.6832 H   0  0  0  0  0  0
  1 25  1  0  0  0
  1 30  2  0  0  0
  1 77  1  0  0  0
  2  3  1  0  0  0
  2 25  1  0  0  0
  2 79  1  0  0  0
  2 80  1  0  0  0
  3  4  1  0  0  0
  3 81  1  0  0  0
  3 82  1  0  0  0
  4  5  1  0  0  0
  4 83  1  0  0  0
  4 84  1  0  0  0
  5  6  1  0  0  0
  5 26  1  0  0  0
  5 85  1  0  0  0
  6 25  1  0  0  0
  6 86  1  0  0  0
  6 87  1  0  0  0
  7  8  2  0  0  0
  7 26  1  0  0  0
  7 29  1  0  0  0
  8  9  1  0  0  0
  8 22  1  0  0  0
  9 10  1  0  0  0
  9 27  2  0  0  0
 10 11  2  0  0  0
 10 15  1  0  0  0
 11 12  1  0  0  0
 11 88  1  0  0  0
 12 13  2  0  0  0
 12 89  1  0  0  0
 13 14  1  0  0  0
 13 31  1  0  0  0
 14 15  2  0  0  0
 14 90  1  0  0  0
 15 91  1  0  0  0
 16 17  2  0  0  0
 16 21  1  0  0  0
 16 31  1  0  0  0
 17 18  1  0  0  0
 17 92  1  0  0  0
 18 19  2  0  0  0
 18 93  1  0  0  0
 19 20  1  0  0  0
 19 24  1  0  0  0
 20 21  2  0  0  0
 20 94  1  0  0  0
 21 23  1  0  0  0
 22 28  1  0  0  0
 22 32  2  0  0  0
 26 27  1  0  0  0
 28 95  1  0  0  0
 28 96  1  0  0  0
 29 97  1  0  0  0
 29 98  1  0  0  0
 33 34  1  0  0  0
 33 66  1  0  0  0
 33 70  2  0  0  0
 34 36  1  0  0  0
 34 59  1  0  0  0
 34 99  1  0  0  0
 35 44  2  0  0  0
 35 45  1  0  0  0
 35 68  1  0  0  0
 36 56  1  0  0  0
 36100  1  0  0  0
 37 39  1  0  0  0
 37 47  1  0  0  0
 37 66  1  0  0  0
 37101  1  0  0  0
 38 43  2  0  0  0
 38 46  1  0  0  0
 38 47  1  0  0  0
 39 64  1  0  0  0
 39 67  2  0  0  0
 40 52  1  0  0  0
 40 53  2  0  0  0
 40 58  1  0  0  0
 41102  1  0  0  0
 41103  1  0  0  0
 41104  1  0  0  0
 41 48  1  0  0  0
 42 43  1  0  0  0
 42 66  1  0  0  0
 42105  1  0  0  0
 42106  1  0  0  0
 43 44  1  0  0  0
 44107  1  0  0  0
 45 46  2  0  0  0
 45108  1  0  0  0
 46109  1  0  0  0
 47110  1  0  0  0
 47111  1  0  0  0
 48 56  1  0  0  0
 48 65  1  0  0  0
 48112  1  0  0  0
 49 50  1  0  0  0
 49 53  1  0  0  0
 49 64  1  0  0  0
 49113  1  0  0  0
 50 51  1  0  0  0
 50114  1  0  0  0
 50115  1  0  0  0
 51 52  1  0  0  0
 51116  1  0  0  0
 51117  1  0  0  0
 52118  1  0  0  0
 52119  1  0  0  0
 53 54  1  0  0  0
 54 55  2  0  0  0
 54120  1  0  0  0
 55 57  1  0  0  0
 55121  1  0  0  0
 56 69  2  0  0  0
 57 58  2  0  0  0
 57122  1  0  0  0
 58123  1  0  0  0
 59 60  1  0  0  0
 59 61  1  0  0  0
 59 62  1  0  0  0
 60124  1  0  0  0
 60125  1  0  0  0
 60126  1  0  0  0
 61127  1  0  0  0
 61128  1  0  0  0
 61129  1  0  0  0
 62130  1  0  0  0
 62131  1  0  0  0
 62132  1  0  0  0
 63 65  1  0  0  0
 63133  1  0  0  0
 63134  1  0  0  0
 63135  1  0  0  0
 64136  1  0  0  0
 65137  1  0  0  0
 68 74  1  0  0  0
 71138  1  0  0  0
 71139  1  0  0  0
 71140  1  0  0  0
 71 76  1  0  0  0
 72 76  1  0  0  0
 72141  1  0  0  0
 72142  1  0  0  0
 72143  1  0  0  0
 73 76  1  0  0  0
 73 78  1  0  0  0
 73144  1  0  0  0
 73145  1  0  0  0
 74 76  1  0  0  0
 74146  1  0  0  0
 74147  1  0  0  0
 75 77  1  0  0  0
 75 78  1  0  0  0
 75148  1  0  0  0
 75149  1  0  0  0
 77150  1  0  0  0
 78151  1  0  0  0
 78152  1  0  0  0
M  CHG  1  78   1
M  ISO  4   1 100  68 101  74 101  77 100
M  END
> <chiral flag>
0

> <version>
0

> <s_m_source_file>
/data/baiqing/PycharmProjects/Reinvent-master-3.2/result/LINK_invent/BTK/process_docking_weight1_custom_sum_contain_oxygen_bond_distance_aromatic_linkinvent_7_9_3/rearranged_h_0114.sdf

> <i_m_source_file_index>
49

> <r_mmod_Potential_Energy-OPLS-2005>
1046.53991699219

> <r_mmod_Stretch_Energy-OPLS-2005>
606.114868164062

> <r_mmod_Bend_Energy-OPLS-2005>
443.123992919922

> <r_mmod_Torsional_Energy-OPLS-2005>
231.737075805664

> <r_mmod_Improper_Torsional_Energy-OPLS-2005>
4.32335376739502

> <r_mmod_Van_der_Waal_Energy-OPLS-2005>
107.158180236816

> <r_mmod_Electrostatic_Energy-OPLS-2005>
-285.554504394531

> <r_mmod_Solvation_Energy-OPLS-2005>
-501.691253662109

> <b_mmod_Minimization_Converged-OPLS-2005>
0

> <r_mmod_RMS_Derivative-OPLS-2005>
3.6381664276123

$$$$
49
                    3D
 Structure written by MMmdl.
162170  0  0  1  0            999 V2000
  -30.5614  -14.8194   20.4290 C   0  0  0  0  0  0
  -30.4322  -12.4955   19.4931 C   0  0  0  0  0  0
  -29.5185  -12.5272   18.2461 C   0  0  0  0  0  0
  -28.0458  -12.3312   18.6526 C   0  0  0  0  0  0
  -27.6384  -13.2345   19.8472 C   0  0  2  0  0  0
  -28.6764  -13.1953   20.9905 C   0  0  0  0  0  0
  -25.2511  -13.8193   20.5690 C   0  0  0  0  0  0
  -24.1798  -13.0431   20.9187 C   0  0  0  0  0  0
  -24.6398  -11.6910   20.8735 C   0  0  0  0  0  0
  -23.9069  -10.4300   21.0426 C   0  0  0  0  0  0
  -24.3620   -9.4217   21.9203 C   0  0  0  0  0  0
  -23.6295   -8.2252   22.0777 C   0  0  0  0  0  0
  -22.4289   -8.0287   21.3552 C   0  0  0  0  0  0
  -21.9927   -9.0252   20.4632 C   0  0  0  0  0  0
  -22.7254  -10.2131   20.3049 C   0  0  0  0  0  0
  -21.6851   -6.0741   22.5288 C   0  0  0  0  0  0
  -21.4019   -6.5654   23.8218 C   0  0  0  0  0  0
  -21.3657   -5.6811   24.9187 C   0  0  0  0  0  0
  -21.6030   -4.3072   24.7229 C   0  0  0  0  0  0
  -21.8828   -3.8156   23.4361 C   0  0  0  0  0  0
  -21.9203   -4.6970   22.3415 C   0  0  0  0  0  0
  -22.7836  -13.5220   21.1860 C   0  0  0  0  0  0
  -22.1671   -4.2159   21.0993 F   0  0  0  0  0  0
  -21.5615   -3.4555   25.7741 F   0  0  0  0  0  0
  -29.9752  -13.5671   20.4165 N   0  0  0  0  0  0
  -26.2918  -12.9393   20.3237 N   0  0  0  0  0  0
  -25.9326  -11.6540   20.5718 N   0  0  0  0  0  0
  -22.0489  -12.8182   22.0385 N   0  0  0  0  0  0
  -25.4225  -15.1913   20.4128 N   0  0  0  0  0  0
  -31.7394  -14.9278   20.0746 O   0  0  0  0  0  0
  -21.6647   -6.8886   21.4250 O   0  0  0  0  0  0
  -22.3518  -14.5517   20.6705 O   0  0  0  0  0  0
  -24.6368  -31.8498   23.1927 C   0  0  0  0  0  0
  -25.9173  -32.4720   23.8307 C   0  0  1  0  0  0
  -27.2218  -27.2135   20.1367 C   0  0  0  0  0  0
  -25.5957  -33.8527   24.2227 N   0  0  0  0  0  0
  -23.4359  -30.4687   21.5373 C   0  0  2  0  0  0
  -24.8819  -28.9007   20.1077 C   0  0  0  0  0  0
  -22.7523  -29.4580   22.4903 C   0  0  0  0  0  0
  -18.0295  -28.1400   22.8494 C   0  0  0  0  0  0
  -24.1488  -36.7251   23.2646 C   0  0  0  0  0  0
  -25.9843  -30.7445   21.3803 C   0  0  0  0  0  0
  -26.0529  -29.3634   20.7197 C   0  0  0  0  0  0
  -27.2225  -28.5331   20.7192 C   0  0  0  0  0  0
  -26.0335  -26.8277   19.4846 C   0  0  0  0  0  0
  -24.8800  -27.6440   19.4769 C   0  0  0  0  0  0
  -23.6534  -29.7931   20.1565 C   0  0  0  0  0  0
  -25.4126  -36.3053   24.0328 C   0  0  1  0  0  0
  -20.5899  -28.3728   23.1251 C   0  0  2  0  0  0
  -20.6771  -26.9438   22.5406 C   0  0  0  0  0  0
  -19.5738  -26.6392   21.5220 C   0  0  0  0  0  0
  -18.1922  -26.7946   22.1630 C   0  0  0  0  0  0
  -19.1552  -28.8884   23.2859 C   0  0  0  0  0  0
  -18.9467  -30.1487   23.8882 C   0  0  0  0  0  0
  -17.6460  -30.6605   24.0570 C   0  0  0  0  0  0
  -25.9078  -34.9426   23.5086 C   0  0  0  0  0  0
  -16.5352  -29.9096   23.6348 C   0  0  0  0  0  0
  -16.7277  -28.6504   23.0382 C   0  0  0  0  0  0
  -26.4521  -31.6569   25.0731 C   0  0  0  0  0  0
  -25.3713  -31.3703   26.1420 C   0  0  0  0  0  0
  -27.0413  -30.2984   24.6279 C   0  0  0  0  0  0
  -27.6058  -32.4338   25.7511 C   0  0  0  0  0  0
  -27.5585  -37.1773   24.8470 C   0  0  0  0  0  0
  -21.4231  -29.3059   22.3629 N   0  0  0  0  0  0
  -26.4288  -37.3766   23.9426 N   0  0  0  0  0  0
  -24.7049  -31.0416   22.0918 N   0  0  0  0  0  0
  -23.4189  -28.8156   23.3057 O   0  0  0  0  0  0
  -28.3237  -26.3224   20.2451 O   0  0  0  0  0  0
  -26.5658  -34.8907   22.4659 O   0  0  0  0  0  0
  -23.5517  -32.1347   23.7198 O   0  0  0  0  0  0
  -29.9928  -22.6795   19.8158 C   0  0  0  0  0  0
  -27.5935  -22.2384   20.0447 C   0  0  0  0  0  0
  -29.7402  -24.1957   20.2342 C   0  0  0  0  0  0
  -27.3779  -23.7704   20.4928 C   0  0  0  0  0  0
  -28.9934  -21.5543   20.3335 C   0  0  1  0  0  0
  -28.3547  -24.8438   19.8672 C   0  0  1  0  0  0
  -29.9003  -19.0184   21.9995 C   0  0  0  0  0  0
  -30.1457  -20.0580   18.6094 C   0  0  0  0  0  0
  -29.8868  -17.3701   19.9756 C   0  0  0  0  0  0
  -29.2593  -18.7699   20.6233 C   0  0  2  0  0  0
  -29.7574  -15.9540   20.6018 N   0  0  0  0  0  0
  -29.1973  -20.0891   19.7552 N   0  3  1  0  0  0
  -31.4748  -12.6216   19.1974 H   0  0  0  0  0  0
  -30.3755  -11.5230   19.9858 H   0  0  0  0  0  0
  -29.8154  -11.7567   17.5335 H   0  0  0  0  0  0
  -29.6339  -13.4816   17.7284 H   0  0  0  0  0  0
  -27.9124  -11.2820   18.9186 H   0  0  0  0  0  0
  -27.3933  -12.5144   17.7988 H   0  0  0  0  0  0
  -27.6241  -14.2503   19.4531 H   0  0  0  0  0  0
  -28.7234  -12.2045   21.4413 H   0  0  0  0  0  0
  -28.3951  -13.8825   21.7910 H   0  0  0  0  0  0
  -25.2778   -9.5689   22.4765 H   0  0  0  0  0  0
  -24.0005   -7.4649   22.7509 H   0  0  0  0  0  0
  -21.0869   -8.8758   19.8916 H   0  0  0  0  0  0
  -22.3736  -10.9661   19.6133 H   0  0  0  0  0  0
  -21.2024   -7.6164   23.9715 H   0  0  0  0  0  0
  -21.1457   -6.0550   25.9080 H   0  0  0  0  0  0
  -22.0606   -2.7614   23.2868 H   0  0  0  0  0  0
  -22.4149  -11.9848   22.4754 H   0  0  0  0  0  0
  -21.1080  -13.1154   22.2569 H   0  0  0  0  0  0
  -24.6524  -15.8426   20.5143 H   0  0  0  0  0  0
  -26.2614  -15.6232   20.0483 H   0  0  0  0  0  0
  -26.7248  -32.5342   23.1055 H   0  0  0  0  0  0
  -25.0118  -33.9645   25.0383 H   0  0  0  0  0  0
  -22.7362  -31.2944   21.3879 H   0  0  0  0  0  0
  -23.3789  -35.9539   23.3269 H   0  0  0  0  0  0
  -24.3572  -36.8928   22.2066 H   0  0  0  0  0  0
  -23.7185  -37.6408   23.6714 H   0  0  0  0  0  0
  -26.1408  -31.5038   20.6126 H   0  0  0  0  0  0
  -26.8549  -30.7855   22.0233 H   0  0  0  0  0  0
  -28.1182  -28.8828   21.2140 H   0  0  0  0  0  0
  -25.9763  -25.8661   18.9978 H   0  0  0  0  0  0
  -23.9839  -27.2854   18.9886 H   0  0  0  0  0  0
  -23.7764  -30.5657   19.3973 H   0  0  0  0  0  0
  -22.7692  -29.2277   19.8573 H   0  0  0  0  0  0
  -25.1301  -36.1897   25.0816 H   0  0  0  0  0  0
  -20.9991  -28.3321   24.1371 H   0  0  0  0  0  0
  -20.5695  -26.2341   23.3622 H   0  0  0  0  0  0
  -21.6632  -26.7468   22.1188 H   0  0  0  0  0  0
  -19.6894  -25.6303   21.1261 H   0  0  0  0  0  0
  -19.6653  -27.3190   20.6742 H   0  0  0  0  0  0
  -17.4188  -26.6730   21.4026 H   0  0  0  0  0  0
  -18.0290  -26.0085   22.9014 H   0  0  0  0  0  0
  -19.7939  -30.7320   24.2230 H   0  0  0  0  0  0
  -17.5014  -31.6277   24.5186 H   0  0  0  0  0  0
  -15.5352  -30.2998   23.7680 H   0  0  0  0  0  0
  -15.8670  -28.0819   22.7125 H   0  0  0  0  0  0
  -24.5914  -30.7037   25.7710 H   0  0  0  0  0  0
  -24.8870  -32.2857   26.4830 H   0  0  0  0  0  0
  -25.8000  -30.8875   27.0211 H   0  0  0  0  0  0
  -26.3021  -29.6680   24.1316 H   0  0  0  0  0  0
  -27.4089  -29.7307   25.4841 H   0  0  0  0  0  0
  -27.8902  -30.4260   23.9555 H   0  0  0  0  0  0
  -27.2669  -33.3671   26.2025 H   0  0  0  0  0  0
  -28.3892  -32.6844   25.0342 H   0  0  0  0  0  0
  -28.0707  -31.8507   26.5474 H   0  0  0  0  0  0
  -28.2570  -38.0110   24.7610 H   0  0  0  0  0  0
  -28.1128  -36.2647   24.6217 H   0  0  0  0  0  0
  -27.2304  -37.1307   25.8870 H   0  0  0  0  0  0
  -20.9446  -29.8736   21.6774 H   0  0  0  0  0  0
  -26.0170  -38.2834   24.1463 H   0  0  0  0  0  0
  -31.0038  -22.4100   20.1253 H   0  0  0  0  0  0
  -30.0138  -22.6921   18.7278 H   0  0  0  0  0  0
  -27.3947  -22.1784   18.9733 H   0  0  0  0  0  0
  -26.8174  -21.6341   20.5158 H   0  0  0  0  0  0
  -30.5290  -24.8024   19.7874 H   0  0  0  0  0  0
  -29.8913  -24.2831   21.3107 H   0  0  0  0  0  0
  -27.4432  -23.8266   21.5805 H   0  0  0  0  0  0
  -26.3497  -24.0432   20.2604 H   0  0  0  0  0  0
  -29.1063  -21.5055   21.4151 H   0  0  0  0  0  0
  -28.2405  -24.8100   18.7829 H   0  0  0  0  0  0
  -30.0214  -18.0841   22.5472 H   0  0  0  0  0  0
  -29.2781  -19.6591   22.6228 H   0  0  0  0  0  0
  -30.8828  -19.4791   21.9105 H   0  0  0  0  0  0
  -29.8402  -20.7598   17.8326 H   0  0  0  0  0  0
  -30.1781  -19.0997   18.0977 H   0  0  0  0  0  0
  -31.1591  -20.3048   18.9248 H   0  0  0  0  0  0
  -30.9493  -17.5359   19.7920 H   0  0  0  0  0  0
  -29.4382  -17.2423   18.9898 H   0  0  0  0  0  0
  -28.2104  -18.5450   20.8252 H   0  0  0  0  0  0
  -28.8402  -15.7453   20.9663 H   0  0  0  0  0  0
  -28.3208  -19.9422   19.2750 H   0  0  0  0  0  0
  1 25  1  0  0  0
  1 30  2  0  0  0
  1 81  1  0  0  0
  2  3  1  0  0  0
  2 25  1  0  0  0
  2 83  1  0  0  0
  2 84  1  0  0  0
  3  4  1  0  0  0
  3 85  1  0  0  0
  3 86  1  0  0  0
  4  5  1  0  0  0
  4 87  1  0  0  0
  4 88  1  0  0  0
  5  6  1  0  0  0
  5 26  1  0  0  0
  5 89  1  0  0  0
  6 25  1  0  0  0
  6 90  1  0  0  0
  6 91  1  0  0  0
  7  8  2  0  0  0
  7 26  1  0  0  0
  7 29  1  0  0  0
  8  9  1  0  0  0
  8 22  1  0  0  0
  9 10  1  0  0  0
  9 27  2  0  0  0
 10 11  2  0  0  0
 10 15  1  0  0  0
 11 12  1  0  0  0
 11 92  1  0  0  0
 12 13  2  0  0  0
 12 93  1  0  0  0
 13 14  1  0  0  0
 13 31  1  0  0  0
 14 15  2  0  0  0
 14 94  1  0  0  0
 15 95  1  0  0  0
 16 17  2  0  0  0
 16 21  1  0  0  0
 16 31  1  0  0  0
 17 18  1  0  0  0
 17 96  1  0  0  0
 18 19  2  0  0  0
 18 97  1  0  0  0
 19 20  1  0  0  0
 19 24  1  0  0  0
 20 21  2  0  0  0
 20 98  1  0  0  0
 21 23  1  0  0  0
 22 28  1  0  0  0
 22 32  2  0  0  0
 26 27  1  0  0  0
 28 99  1  0  0  0
 28100  1  0  0  0
 29101  1  0  0  0
 29102  1  0  0  0
 33 34  1  0  0  0
 33 66  1  0  0  0
 33 70  2  0  0  0
 34 36  1  0  0  0
 34 59  1  0  0  0
 34103  1  0  0  0
 35 44  2  0  0  0
 35 45  1  0  0  0
 35 68  1  0  0  0
 36 56  1  0  0  0
 36104  1  0  0  0
 37 39  1  0  0  0
 37 47  1  0  0  0
 37 66  1  0  0  0
 37105  1  0  0  0
 38 43  2  0  0  0
 38 46  1  0  0  0
 38 47  1  0  0  0
 39 64  1  0  0  0
 39 67  2  0  0  0
 40 52  1  0  0  0
 40 53  2  0  0  0
 40 58  1  0  0  0
 41106  1  0  0  0
 41107  1  0  0  0
 41108  1  0  0  0
 41 48  1  0  0  0
 42 43  1  0  0  0
 42 66  1  0  0  0
 42109  1  0  0  0
 42110  1  0  0  0
 43 44  1  0  0  0
 44111  1  0  0  0
 45 46  2  0  0  0
 45112  1  0  0  0
 46113  1  0  0  0
 47114  1  0  0  0
 47115  1  0  0  0
 48 56  1  0  0  0
 48 65  1  0  0  0
 48116  1  0  0  0
 49 50  1  0  0  0
 49 53  1  0  0  0
 49 64  1  0  0  0
 49117  1  0  0  0
 50 51  1  0  0  0
 50118  1  0  0  0
 50119  1  0  0  0
 51 52  1  0  0  0
 51120  1  0  0  0
 51121  1  0  0  0
 52122  1  0  0  0
 52123  1  0  0  0
 53 54  1  0  0  0
 54 55  2  0  0  0
 54124  1  0  0  0
 55 57  1  0  0  0
 55125  1  0  0  0
 56 69  2  0  0  0
 57 58  2  0  0  0
 57126  1  0  0  0
 58127  1  0  0  0
 59 60  1  0  0  0
 59 61  1  0  0  0
 59 62  1  0  0  0
 60128  1  0  0  0
 60129  1  0  0  0
 60130  1  0  0  0
 61131  1  0  0  0
 61132  1  0  0  0
 61133  1  0  0  0
 62134  1  0  0  0
 62135  1  0  0  0
 62136  1  0  0  0
 63 65  1  0  0  0
 63137  1  0  0  0
 63138  1  0  0  0
 63139  1  0  0  0
 64140  1  0  0  0
 65141  1  0  0  0
 68 76  1  0  0  0
 71 73  1  0  0  0
 71142  1  0  0  0
 71143  1  0  0  0
 71 75  1  0  0  0
 72 74  1  0  0  0
 72 75  1  0  0  0
 72144  1  0  0  0
 72145  1  0  0  0
 73 76  1  0  0  0
 73146  1  0  0  0
 73147  1  0  0  0
 74 76  1  0  0  0
 74148  1  0  0  0
 74149  1  0  0  0
 75 82  1  0  0  0
 75150  1  0  0  0
 76151  1  0  0  0
 77152  1  0  0  0
 77153  1  0  0  0
 77154  1  0  0  0
 77 80  1  0  0  0
 78155  1  0  0  0
 78156  1  0  0  0
 78157  1  0  0  0
 78 82  1  0  0  0
 79 80  1  0  0  0
 79 81  1  0  0  0
 79158  1  0  0  0
 79159  1  0  0  0
 80 82  1  0  0  0
 80160  1  0  0  0
 81161  1  0  0  0
 82162  1  0  0  0
M  CHG  1  82   1
M  ISO  4   1 100  68 101  76 101  81 100
M  END
> <chiral flag>
0

> <version>
0

> <s_m_source_file>
/data/baiqing/PycharmProjects/Reinvent-master-3.2/result/LINK_invent/BTK/process_docking_weight1_custom_sum_contain_oxygen_bond_distance_aromatic_linkinvent_7_9_3/rearranged_h_0114.sdf

> <i_m_source_file_index>
50

> <r_mmod_Potential_Energy-OPLS-2005>
198.108871459961

> <r_mmod_Stretch_Energy-OPLS-2005>
176.441970825195

> <r_mmod_Bend_Energy-OPLS-2005>
242.921981811523

> <r_mmod_Torsional_Energy-OPLS-2005>
257.908660888672

> <r_mmod_Improper_Torsional_Energy-OPLS-2005>
6.63216781616211

> <r_mmod_Van_der_Waal_Energy-OPLS-2005>
124.67887878418

> <r_mmod_Electrostatic_Energy-OPLS-2005>
-271.356353759766

> <r_mmod_Solvation_Energy-OPLS-2005>
-457.785675048828

> <b_mmod_Minimization_Converged-OPLS-2005>
0

> <r_mmod_RMS_Derivative-OPLS-2005>
2.26153707504272

$$$$
50
                    3D
 Structure written by MMmdl.
159167  0  0  1  0            999 V2000
  -30.5004  -15.0829   20.3897 C   0  0  0  0  0  0
  -30.4404  -12.6789   19.5138 C   0  0  0  0  0  0
  -29.5306  -12.5511   18.2693 C   0  0  0  0  0  0
  -28.0686  -12.3098   18.6889 C   0  0  0  0  0  0
  -27.6221  -13.2605   19.8304 C   0  0  2  0  0  0
  -28.6604  -13.3539   20.9685 C   0  0  0  0  0  0
  -25.2433  -13.8230   20.5714 C   0  0  0  0  0  0
  -24.1768  -13.0441   20.9237 C   0  0  0  0  0  0
  -24.6401  -11.6933   20.8755 C   0  0  0  0  0  0
  -23.9090  -10.4298   21.0405 C   0  0  0  0  0  0
  -24.3638   -9.4210   21.9182 C   0  0  0  0  0  0
  -23.6308   -8.2245   22.0757 C   0  0  0  0  0  0
  -22.4290   -8.0285   21.3549 C   0  0  0  0  0  0
  -21.9931   -9.0257   20.4648 C   0  0  0  0  0  0
  -22.7261  -10.2132   20.3054 C   0  0  0  0  0  0
  -21.6855   -6.0741   22.5286 C   0  0  0  0  0  0
  -21.4012   -6.5645   23.8219 C   0  0  0  0  0  0
  -21.3656   -5.6795   24.9179 C   0  0  0  0  0  0
  -21.6043   -4.3057   24.7227 C   0  0  0  0  0  0
  -21.8816   -3.8148   23.4349 C   0  0  0  0  0  0
  -21.9193   -4.6969   22.3409 C   0  0  0  0  0  0
  -22.7786  -13.5209   21.1882 C   0  0  0  0  0  0
  -22.1661   -4.2154   21.0986 F   0  0  0  0  0  0
  -21.5629   -3.4541   25.7736 F   0  0  0  0  0  0
  -29.9184  -13.8026   20.3572 N   0  0  0  0  0  0
  -26.2859  -12.9480   20.3221 N   0  0  0  0  0  0
  -25.9333  -11.6600   20.5720 N   0  0  0  0  0  0
  -22.0435  -12.8203   22.0434 N   0  0  0  0  0  0
  -25.4074  -15.1957   20.4128 N   0  0  0  0  0  0
  -31.7134  -15.1082   20.1491 O   0  0  0  0  0  0
  -21.6649   -6.8885   21.4249 O   0  0  0  0  0  0
  -22.3469  -14.5504   20.6710 O   0  0  0  0  0  0
  -24.6523  -31.8344   23.1788 C   0  0  0  0  0  0
  -25.9251  -32.4646   23.8214 C   0  0  1  0  0  0
  -27.2164  -27.0384   20.1671 C   0  0  0  0  0  0
  -25.5969  -33.8454   24.2135 N   0  0  0  0  0  0
  -23.4610  -30.4507   21.5254 C   0  0  2  0  0  0
  -24.9105  -28.8559   20.1116 C   0  0  0  0  0  0
  -22.7613  -29.4505   22.4812 C   0  0  0  0  0  0
  -18.0316  -28.1412   22.8482 C   0  0  0  0  0  0
  -24.1489  -36.7231   23.2644 C   0  0  0  0  0  0
  -26.0222  -30.6768   21.3907 C   0  0  0  0  0  0
  -26.0909  -29.2770   20.7363 C   0  0  0  0  0  0
  -27.2409  -28.3872   20.7416 C   0  0  0  0  0  0
  -26.0084  -26.7421   19.4973 C   0  0  0  0  0  0
  -24.8874  -27.6051   19.4752 C   0  0  0  0  0  0
  -23.6935  -29.7720   20.1481 C   0  0  0  0  0  0
  -25.4124  -36.3001   24.0312 C   0  0  1  0  0  0
  -20.5937  -28.3743   23.1214 C   0  0  2  0  0  0
  -20.6796  -26.9435   22.5403 C   0  0  0  0  0  0
  -19.5767  -26.6387   21.5217 C   0  0  0  0  0  0
  -18.1949  -26.7953   22.1624 C   0  0  0  0  0  0
  -19.1576  -28.8894   23.2840 C   0  0  0  0  0  0
  -18.9494  -30.1485   23.8875 C   0  0  0  0  0  0
  -17.6485  -30.6606   24.0563 C   0  0  0  0  0  0
  -25.9083  -34.9385   23.5039 C   0  0  0  0  0  0
  -16.5372  -29.9106   23.6341 C   0  0  0  0  0  0
  -16.7298  -28.6520   23.0367 C   0  0  0  0  0  0
  -26.4544  -31.6550   25.0695 C   0  0  0  0  0  0
  -25.3707  -31.3776   26.1376 C   0  0  0  0  0  0
  -27.0418  -30.2935   24.6330 C   0  0  0  0  0  0
  -27.6053  -32.4339   25.7493 C   0  0  0  0  0  0
  -27.5569  -37.1776   24.8467 C   0  0  0  0  0  0
  -21.4292  -29.3056   22.3571 N   0  0  0  0  0  0
  -26.4277  -37.3726   23.9414 N   0  0  0  0  0  0
  -24.7325  -31.0116   22.0863 N   0  0  0  0  0  0
  -23.4214  -28.8057   23.2994 O   0  0  0  0  0  0
  -28.2691  -26.0222   20.2261 O   0  0  0  0  0  0
  -26.5671  -34.8899   22.4620 O   0  0  0  0  0  0
  -23.5623  -32.1256   23.6958 O   0  0  0  0  0  0
  -29.0530  -21.8952   19.1714 C   0  0  0  0  0  0
  -28.1320  -21.8689   21.3575 C   0  0  0  0  0  0
  -29.1512  -23.5438   19.2594 C   0  0  0  0  0  0
  -28.2357  -23.5095   21.4415 C   0  0  0  0  0  0
  -29.1468  -20.9643   20.4846 C   0  0  1  0  0  0
  -28.1173  -24.4252   20.1304 C   0  0  1  0  0  0
  -27.6801  -18.9066   19.6433 C   0  0  0  0  0  0
  -30.6852  -18.0767   18.9042 C   0  0  0  0  0  0
  -28.9253  -19.2200   20.4851 C   0  0  1  0  0  0
  -30.0392  -17.8991   20.2875 C   0  0  1  0  0  0
  -29.7310  -16.3119   20.4800 N   0  0  0  0  0  0
  -31.4700  -12.8520   19.1972 H   0  0  0  0  0  0
  -30.4598  -11.7461   20.0796 H   0  0  0  0  0  0
  -29.8801  -11.7435   17.6237 H   0  0  0  0  0  0
  -29.5939  -13.4659   17.6771 H   0  0  0  0  0  0
  -27.9888  -11.2747   19.0214 H   0  0  0  0  0  0
  -27.4051  -12.4051   17.8285 H   0  0  0  0  0  0
  -27.5644  -14.2489   19.3727 H   0  0  0  0  0  0
  -28.7815  -12.3966   21.4778 H   0  0  0  0  0  0
  -28.3355  -14.0694   21.7253 H   0  0  0  0  0  0
  -25.2784   -9.5689   22.4756 H   0  0  0  0  0  0
  -24.0019   -7.4638   22.7477 H   0  0  0  0  0  0
  -21.0861   -8.8777   19.8951 H   0  0  0  0  0  0
  -22.3725  -10.9671   19.6160 H   0  0  0  0  0  0
  -21.2002   -7.6154   23.9725 H   0  0  0  0  0  0
  -21.1480   -6.0524   25.9082 H   0  0  0  0  0  0
  -22.0596   -2.7612   23.2848 H   0  0  0  0  0  0
  -22.4064  -11.9883   22.4847 H   0  0  0  0  0  0
  -21.1031  -13.1201   22.2592 H   0  0  0  0  0  0
  -24.6348  -15.8442   20.5195 H   0  0  0  0  0  0
  -26.2441  -15.6345   20.0525 H   0  0  0  0  0  0
  -26.7310  -32.5215   23.0929 H   0  0  0  0  0  0
  -25.0103  -33.9552   25.0278 H   0  0  0  0  0  0
  -22.7690  -31.2793   21.3623 H   0  0  0  0  0  0
  -23.3759  -35.9554   23.3291 H   0  0  0  0  0  0
  -24.3569  -36.8881   22.2060 H   0  0  0  0  0  0
  -23.7232  -37.6417   23.6696 H   0  0  0  0  0  0
  -26.1860  -31.4227   20.6118 H   0  0  0  0  0  0
  -26.8895  -30.7329   22.0363 H   0  0  0  0  0  0
  -28.1399  -28.7074   21.2496 H   0  0  0  0  0  0
  -25.8972  -25.7954   18.9921 H   0  0  0  0  0  0
  -23.9893  -27.2803   18.9675 H   0  0  0  0  0  0
  -23.8428  -30.5421   19.3904 H   0  0  0  0  0  0
  -22.8050  -29.2210   19.8335 H   0  0  0  0  0  0
  -25.1319  -36.1814   25.0804 H   0  0  0  0  0  0
  -21.0032  -28.3339   24.1331 H   0  0  0  0  0  0
  -20.5676  -26.2361   23.3634 H   0  0  0  0  0  0
  -21.6662  -26.7428   22.1202 H   0  0  0  0  0  0
  -19.6926  -25.6288   21.1268 H   0  0  0  0  0  0
  -19.6709  -27.3175   20.6732 H   0  0  0  0  0  0
  -17.4219  -26.6701   21.4023 H   0  0  0  0  0  0
  -18.0344  -26.0102   22.9025 H   0  0  0  0  0  0
  -19.7965  -30.7308   24.2237 H   0  0  0  0  0  0
  -17.5042  -31.6282   24.5169 H   0  0  0  0  0  0
  -15.5373  -30.3002   23.7678 H   0  0  0  0  0  0
  -15.8698  -28.0829   22.7101 H   0  0  0  0  0  0
  -24.5899  -30.7107   25.7700 H   0  0  0  0  0  0
  -24.8881  -32.2969   26.4703 H   0  0  0  0  0  0
  -25.7972  -30.9016   27.0215 H   0  0  0  0  0  0
  -26.3049  -29.6639   24.1322 H   0  0  0  0  0  0
  -27.3991  -29.7261   25.4934 H   0  0  0  0  0  0
  -27.8981  -30.4156   23.9692 H   0  0  0  0  0  0
  -27.2635  -33.3682   26.1964 H   0  0  0  0  0  0
  -28.3927  -32.6826   25.0366 H   0  0  0  0  0  0
  -28.0646  -31.8526   26.5497 H   0  0  0  0  0  0
  -28.2578  -38.0079   24.7509 H   0  0  0  0  0  0
  -28.1074  -36.2610   24.6304 H   0  0  0  0  0  0
  -27.2291  -37.1431   25.8869 H   0  0  0  0  0  0
  -20.9514  -29.8774   21.6745 H   0  0  0  0  0  0
  -26.0137  -38.2789   24.1418 H   0  0  0  0  0  0
  -29.8255  -21.5562   18.4802 H   0  0  0  0  0  0
  -28.1142  -21.6615   18.6685 H   0  0  0  0  0  0
  -27.1199  -21.6398   21.0222 H   0  0  0  0  0  0
  -28.1681  -21.4930   22.3804 H   0  0  0  0  0  0
  -29.1145  -23.9264   18.2394 H   0  0  0  0  0  0
  -30.1568  -23.7859   19.6058 H   0  0  0  0  0  0
  -29.1815  -23.7502   21.9287 H   0  0  0  0  0  0
  -27.4707  -23.8522   22.1391 H   0  0  0  0  0  0
  -30.1368  -21.1247   20.9147 H   0  0  0  0  0  0
  -27.1316  -24.2275   19.7143 H   0  0  0  0  0  0
  -26.8428  -19.5508   19.9127 H   0  0  0  0  0  0
  -27.3542  -17.8764   19.7822 H   0  0  0  0  0  0
  -27.8775  -19.0515   18.5814 H   0  0  0  0  0  0
  -31.0291  -19.1017   18.7623 H   0  0  0  0  0  0
  -29.9769  -17.8533   18.1054 H   0  0  0  0  0  0
  -31.5493  -17.4261   18.7675 H   0  0  0  0  0  0
  -28.6068  -19.0545   21.5153 H   0  0  0  0  0  0
  -30.8265  -18.0908   21.0183 H   0  0  0  0  0  0
  -28.7592  -16.1262   20.6786 H   0  0  0  0  0  0
  1 25  1  0  0  0
  1 30  2  0  0  0
  1 81  1  0  0  0
  2  3  1  0  0  0
  2 25  1  0  0  0
  2 82  1  0  0  0
  2 83  1  0  0  0
  3  4  1  0  0  0
  3 84  1  0  0  0
  3 85  1  0  0  0
  4  5  1  0  0  0
  4 86  1  0  0  0
  4 87  1  0  0  0
  5  6  1  0  0  0
  5 26  1  0  0  0
  5 88  1  0  0  0
  6 25  1  0  0  0
  6 89  1  0  0  0
  6 90  1  0  0  0
  7  8  2  0  0  0
  7 26  1  0  0  0
  7 29  1  0  0  0
  8  9  1  0  0  0
  8 22  1  0  0  0
  9 10  1  0  0  0
  9 27  2  0  0  0
 10 11  2  0  0  0
 10 15  1  0  0  0
 11 12  1  0  0  0
 11 91  1  0  0  0
 12 13  2  0  0  0
 12 92  1  0  0  0
 13 14  1  0  0  0
 13 31  1  0  0  0
 14 15  2  0  0  0
 14 93  1  0  0  0
 15 94  1  0  0  0
 16 17  2  0  0  0
 16 21  1  0  0  0
 16 31  1  0  0  0
 17 18  1  0  0  0
 17 95  1  0  0  0
 18 19  2  0  0  0
 18 96  1  0  0  0
 19 20  1  0  0  0
 19 24  1  0  0  0
 20 21  2  0  0  0
 20 97  1  0  0  0
 21 23  1  0  0  0
 22 28  1  0  0  0
 22 32  2  0  0  0
 26 27  1  0  0  0
 28 98  1  0  0  0
 28 99  1  0  0  0
 29100  1  0  0  0
 29101  1  0  0  0
 33 34  1  0  0  0
 33 66  1  0  0  0
 33 70  2  0  0  0
 34 36  1  0  0  0
 34 59  1  0  0  0
 34102  1  0  0  0
 35 44  2  0  0  0
 35 45  1  0  0  0
 35 68  1  0  0  0
 36 56  1  0  0  0
 36103  1  0  0  0
 37 39  1  0  0  0
 37 47  1  0  0  0
 37 66  1  0  0  0
 37104  1  0  0  0
 38 43  2  0  0  0
 38 46  1  0  0  0
 38 47  1  0  0  0
 39 64  1  0  0  0
 39 67  2  0  0  0
 40 52  1  0  0  0
 40 53  2  0  0  0
 40 58  1  0  0  0
 41105  1  0  0  0
 41106  1  0  0  0
 41107  1  0  0  0
 41 48  1  0  0  0
 42 43  1  0  0  0
 42 66  1  0  0  0
 42108  1  0  0  0
 42109  1  0  0  0
 43 44  1  0  0  0
 44110  1  0  0  0
 45 46  2  0  0  0
 45111  1  0  0  0
 46112  1  0  0  0
 47113  1  0  0  0
 47114  1  0  0  0
 48 56  1  0  0  0
 48 65  1  0  0  0
 48115  1  0  0  0
 49 50  1  0  0  0
 49 53  1  0  0  0
 49 64  1  0  0  0
 49116  1  0  0  0
 50 51  1  0  0  0
 50117  1  0  0  0
 50118  1  0  0  0
 51 52  1  0  0  0
 51119  1  0  0  0
 51120  1  0  0  0
 52121  1  0  0  0
 52122  1  0  0  0
 53 54  1  0  0  0
 54 55  2  0  0  0
 54123  1  0  0  0
 55 57  1  0  0  0
 55124  1  0  0  0
 56 69  2  0  0  0
 57 58  2  0  0  0
 57125  1  0  0  0
 58126  1  0  0  0
 59 60  1  0  0  0
 59 61  1  0  0  0
 59 62  1  0  0  0
 60127  1  0  0  0
 60128  1  0  0  0
 60129  1  0  0  0
 61130  1  0  0  0
 61131  1  0  0  0
 61132  1  0  0  0
 62133  1  0  0  0
 62134  1  0  0  0
 62135  1  0  0  0
 63 65  1  0  0  0
 63136  1  0  0  0
 63137  1  0  0  0
 63138  1  0  0  0
 64139  1  0  0  0
 65140  1  0  0  0
 68 76  1  0  0  0
 71 73  1  0  0  0
 71141  1  0  0  0
 71142  1  0  0  0
 71 75  1  0  0  0
 72 74  1  0  0  0
 72 75  1  0  0  0
 72143  1  0  0  0
 72144  1  0  0  0
 73 76  1  0  0  0
 73145  1  0  0  0
 73146  1  0  0  0
 74 76  1  0  0  0
 74147  1  0  0  0
 74148  1  0  0  0
 75 79  1  0  0  0
 75149  1  0  0  0
 76150  1  0  0  0
 77151  1  0  0  0
 77152  1  0  0  0
 77153  1  0  0  0
 77 79  1  0  0  0
 78154  1  0  0  0
 78155  1  0  0  0
 78156  1  0  0  0
 78 80  1  0  0  0
 79 80  1  0  0  0
 79157  1  0  0  0
 80 81  1  0  0  0
 80158  1  0  0  0
 81159  1  0  0  0
M  ISO  4   1 100  68 101  76 101  81 100
M  END
> <chiral flag>
0

> <version>
0

> <s_m_source_file>
/data/baiqing/PycharmProjects/Reinvent-master-3.2/result/LINK_invent/BTK/process_docking_weight1_custom_sum_contain_oxygen_bond_distance_aromatic_linkinvent_7_9_3/rearranged_h_0114.sdf

> <i_m_source_file_index>
51

> <r_mmod_Potential_Energy-OPLS-2005>
814.880737304688

> <r_mmod_Stretch_Energy-OPLS-2005>
377.765899658203

> <r_mmod_Bend_Energy-OPLS-2005>
363.841339111328

> <r_mmod_Torsional_Energy-OPLS-2005>
246.087203979492

> <r_mmod_Improper_Torsional_Energy-OPLS-2005>
4.29588508605957

> <r_mmod_Van_der_Waal_Energy-OPLS-2005>
108.723083496094

> <r_mmod_Electrostatic_Energy-OPLS-2005>
-378.612091064453

> <r_mmod_Solvation_Energy-OPLS-2005>
-197.216934204102

> <b_mmod_Minimization_Converged-OPLS-2005>
0

> <r_mmod_RMS_Derivative-OPLS-2005>
1.20040571689606

$$$$
51
                    3D
 Structure written by MMmdl.
149156  0  0  1  0            999 V2000
  -30.1742  -16.0038   20.2901 C   0  0  0  0  0  0
  -30.3930  -13.3505   19.5702 C   0  0  0  0  0  0
  -29.5691  -12.7686   18.3744 C   0  0  0  0  0  0
  -28.1697  -12.3318   18.8219 C   0  0  0  0  0  0
  -27.5875  -13.3550   19.8175 C   0  0  2  0  0  0
  -28.5715  -13.8373   20.9226 C   0  0  0  0  0  0
  -25.2263  -13.8355   20.5849 C   0  0  0  0  0  0
  -24.1695  -13.0441   20.9309 C   0  0  0  0  0  0
  -24.6461  -11.6969   20.8747 C   0  0  0  0  0  0
  -23.9161  -10.4301   21.0349 C   0  0  0  0  0  0
  -24.3673   -9.4216   21.9147 C   0  0  0  0  0  0
  -23.6326   -8.2264   22.0739 C   0  0  0  0  0  0
  -22.4305   -8.0296   21.3533 C   0  0  0  0  0  0
  -21.9954   -9.0270   20.4628 C   0  0  0  0  0  0
  -22.7308  -10.2135   20.3023 C   0  0  0  0  0  0
  -21.6872   -6.0751   22.5272 C   0  0  0  0  0  0
  -21.4028   -6.5648   23.8208 C   0  0  0  0  0  0
  -21.3659   -5.6795   24.9166 C   0  0  0  0  0  0
  -21.6040   -4.3059   24.7211 C   0  0  0  0  0  0
  -21.8820   -3.8155   23.4335 C   0  0  0  0  0  0
  -21.9198   -4.6977   22.3394 C   0  0  0  0  0  0
  -22.7699  -13.5132   21.1932 C   0  0  0  0  0  0
  -22.1660   -4.2159   21.0970 F   0  0  0  0  0  0
  -21.5625   -3.4544   25.7723 F   0  0  0  0  0  0
  -29.6994  -14.5680   20.2624 N   0  0  0  0  0  0
  -26.2776  -12.9783   20.3304 N   0  0  0  0  0  0
  -25.9430  -11.6799   20.5681 N   0  0  0  0  0  0
  -22.0383  -12.8106   22.0490 N   0  0  0  0  0  0
  -25.3796  -15.2110   20.4303 N   0  0  0  0  0  0
  -31.4038  -15.8824   20.0772 O   0  0  0  0  0  0
  -21.6656   -6.8898   21.4238 O   0  0  0  0  0  0
  -22.3352  -14.5419   20.6757 O   0  0  0  0  0  0
  -24.7088  -31.7682   23.1300 C   0  0  0  0  0  0
  -25.9545  -32.4307   23.7938 C   0  0  1  0  0  0
  -27.2395  -26.4406   20.2342 C   0  0  0  0  0  0
  -25.6025  -33.8148   24.1800 N   0  0  0  0  0  0
  -23.5474  -30.3581   21.4891 C   0  0  2  0  0  0
  -25.0095  -28.6487   20.1200 C   0  0  0  0  0  0
  -22.7884  -29.4138   22.4632 C   0  0  0  0  0  0
  -18.0361  -28.1437   22.8446 C   0  0  0  0  0  0
  -24.1500  -36.7083   23.2657 C   0  0  0  0  0  0
  -26.1366  -30.4123   21.4370 C   0  0  0  0  0  0
  -26.1982  -28.9488   20.7937 C   0  0  0  0  0  0
  -27.2797  -27.8787   20.8192 C   0  0  0  0  0  0
  -26.0286  -26.4331   19.4717 C   0  0  0  0  0  0
  -24.9806  -27.4207   19.4328 C   0  0  0  0  0  0
  -23.8167  -29.6337   20.1344 C   0  0  0  0  0  0
  -25.4157  -36.2794   24.0262 C   0  0  1  0  0  0
  -20.6007  -28.3803   23.1105 C   0  0  2  0  0  0
  -20.6810  -26.9438   22.5417 C   0  0  0  0  0  0
  -19.5787  -26.6360   21.5230 C   0  0  0  0  0  0
  -18.1973  -26.7959   22.1628 C   0  0  0  0  0  0
  -19.1629  -28.8952   23.2748 C   0  0  0  0  0  0
  -18.9530  -30.1533   23.8797 C   0  0  0  0  0  0
  -17.6516  -30.6607   24.0547 C   0  0  0  0  0  0
  -25.9154  -34.9195   23.4885 C   0  0  0  0  0  0
  -16.5409  -29.9083   23.6358 C   0  0  0  0  0  0
  -16.7340  -28.6513   23.0366 C   0  0  0  0  0  0
  -26.4646  -31.6444   25.0660 C   0  0  0  0  0  0
  -25.3649  -31.3822   26.1230 C   0  0  0  0  0  0
  -27.0607  -30.2752   24.6728 C   0  0  0  0  0  0
  -27.6045  -32.4353   25.7497 C   0  0  0  0  0  0
  -27.5554  -37.1697   24.8464 C   0  0  0  0  0  0
  -21.4503  -29.2994   22.3390 N   0  0  0  0  0  0
  -26.4253  -37.3588   23.9410 N   0  0  0  0  0  0
  -24.8238  -30.8865   22.0707 N   0  0  0  0  0  0
  -23.4202  -28.7787   23.3097 O   0  0  0  0  0  0
  -28.1589  -25.0956   20.3584 O   0  0  0  0  0  0
  -26.5824  -34.8827   22.4522 O   0  0  0  0  0  0
  -23.6050  -32.0885   23.6081 O   0  0  0  0  0  0
  -30.5495  -19.5390   19.0655 C   0  0  0  0  0  0
  -28.3018  -23.2558   18.5315 C   0  0  0  0  0  0
  -26.6652  -22.9809   20.4159 C   0  0  0  0  0  0
  -28.8883  -21.3071   20.5458 C   0  0  0  0  0  0
  -29.3114  -19.3321   19.9448 C   0  0  2  0  0  0
  -28.1380  -23.2196   20.0552 C   0  0  0  0  0  0
  -29.4276  -17.4709   20.3837 N   0  0  0  0  0  0
  -31.3658  -13.6464   19.1791 H   0  0  0  0  0  0
  -30.6209  -12.5648   20.2921 H   0  0  0  0  0  0
  -30.1003  -11.9345   17.9160 H   0  0  0  0  0  0
  -29.4779  -13.5365   17.6052 H   0  0  0  0  0  0
  -28.2561  -11.3576   19.3052 H   0  0  0  0  0  0
  -27.5093  -12.2015   17.9632 H   0  0  0  0  0  0
  -27.4060  -14.2333   19.1954 H   0  0  0  0  0  0
  -28.9025  -13.0161   21.5608 H   0  0  0  0  0  0
  -28.0648  -14.5427   21.5832 H   0  0  0  0  0  0
  -25.2801   -9.5709   22.4746 H   0  0  0  0  0  0
  -24.0020   -7.4667   22.7479 H   0  0  0  0  0  0
  -21.0877   -8.8803   19.8944 H   0  0  0  0  0  0
  -22.3743  -10.9679   19.6147 H   0  0  0  0  0  0
  -21.2030   -7.6157   23.9721 H   0  0  0  0  0  0
  -21.1476   -6.0516   25.9070 H   0  0  0  0  0  0
  -22.0596   -2.7621   23.2828 H   0  0  0  0  0  0
  -22.4044  -11.9796   22.4897 H   0  0  0  0  0  0
  -21.0981  -13.1083   22.2682 H   0  0  0  0  0  0
  -24.6097  -15.8582   20.5617 H   0  0  0  0  0  0
  -26.2226  -15.6616   20.1000 H   0  0  0  0  0  0
  -26.7647  -32.4709   23.0656 H   0  0  0  0  0  0
  -25.0068  -33.9147   24.9884 H   0  0  0  0  0  0
  -22.8870  -31.2014   21.2769 H   0  0  0  0  0  0
  -23.3785  -35.9388   23.3237 H   0  0  0  0  0  0
  -24.3569  -36.8837   22.2088 H   0  0  0  0  0  0
  -23.7242  -37.6225   23.6805 H   0  0  0  0  0  0
  -26.3648  -31.1168   20.6360 H   0  0  0  0  0  0
  -26.9795  -30.4921   22.1100 H   0  0  0  0  0  0
  -28.1581  -28.1197   21.4008 H   0  0  0  0  0  0
  -25.8288  -25.5404   18.8993 H   0  0  0  0  0  0
  -24.0990  -27.1837   18.8516 H   0  0  0  0  0  0
  -24.0139  -30.3838   19.3674 H   0  0  0  0  0  0
  -22.9175  -29.1123   19.8036 H   0  0  0  0  0  0
  -25.1377  -36.1512   25.0748 H   0  0  0  0  0  0
  -21.0086  -28.3445   24.1234 H   0  0  0  0  0  0
  -20.5659  -26.2434   23.3703 H   0  0  0  0  0  0
  -21.6670  -26.7333   22.1250 H   0  0  0  0  0  0
  -19.6940  -25.6244   21.1325 H   0  0  0  0  0  0
  -19.6747  -27.3117   20.6717 H   0  0  0  0  0  0
  -17.4249  -26.6713   21.4026 H   0  0  0  0  0  0
  -18.0342  -26.0123   22.9040 H   0  0  0  0  0  0
  -19.8004  -30.7374   24.2127 H   0  0  0  0  0  0
  -17.5061  -31.6279   24.5164 H   0  0  0  0  0  0
  -15.5403  -30.2952   23.7728 H   0  0  0  0  0  0
  -15.8747  -28.0797   22.7127 H   0  0  0  0  0  0
  -24.5899  -30.7106   25.7525 H   0  0  0  0  0  0
  -24.8783  -32.3058   26.4365 H   0  0  0  0  0  0
  -25.7785  -30.9184   27.0192 H   0  0  0  0  0  0
  -26.3370  -29.6309   24.1737 H   0  0  0  0  0  0
  -27.3950  -29.7274   25.5546 H   0  0  0  0  0  0
  -27.9377  -30.3822   24.0346 H   0  0  0  0  0  0
  -27.2562  -33.3757   26.1775 H   0  0  0  0  0  0
  -28.4015  -32.6743   25.0443 H   0  0  0  0  0  0
  -28.0536  -31.8686   26.5664 H   0  0  0  0  0  0
  -28.2506  -38.0052   24.7524 H   0  0  0  0  0  0
  -28.1116  -36.2572   24.6266 H   0  0  0  0  0  0
  -27.2281  -37.1285   25.8869 H   0  0  0  0  0  0
  -20.9868  -29.8611   21.6385 H   0  0  0  0  0  0
  -26.0053  -38.2618   24.1441 H   0  0  0  0  0  0
  -31.4357  -19.7097   19.6776 H   0  0  0  0  0  0
  -30.4255  -20.4048   18.4141 H   0  0  0  0  0  0
  -30.7421  -18.6746   18.4290 H   0  0  0  0  0  0
  -28.0467  -22.2950   18.0825 H   0  0  0  0  0  0
  -29.3322  -23.4843   18.2613 H   0  0  0  0  0  0
  -27.6639  -24.0105   18.0715 H   0  0  0  0  0  0
  -26.3491  -21.9720   20.1489 H   0  0  0  0  0  0
  -25.9883  -23.6664   19.9148 H   0  0  0  0  0  0
  -26.5156  -23.0992   21.4889 H   0  0  0  0  0  0
  -29.8850  -21.6009   20.8769 H   0  0  0  0  0  0
  -28.3765  -21.1237   21.4898 H   0  0  0  0  0  0
  -28.4800  -19.2195   19.2469 H   0  0  0  0  0  0
  -28.5010  -17.2229   20.7035 H   0  0  0  0  0  0
  1 25  1  0  0  0
  1 30  2  0  0  0
  1 77  1  0  0  0
  2  3  1  0  0  0
  2 25  1  0  0  0
  2 78  1  0  0  0
  2 79  1  0  0  0
  3  4  1  0  0  0
  3 80  1  0  0  0
  3 81  1  0  0  0
  4  5  1  0  0  0
  4 82  1  0  0  0
  4 83  1  0  0  0
  5  6  1  0  0  0
  5 26  1  0  0  0
  5 84  1  0  0  0
  6 25  1  0  0  0
  6 85  1  0  0  0
  6 86  1  0  0  0
  7  8  2  0  0  0
  7 26  1  0  0  0
  7 29  1  0  0  0
  8  9  1  0  0  0
  8 22  1  0  0  0
  9 10  1  0  0  0
  9 27  2  0  0  0
 10 11  2  0  0  0
 10 15  1  0  0  0
 11 12  1  0  0  0
 11 87  1  0  0  0
 12 13  2  0  0  0
 12 88  1  0  0  0
 13 14  1  0  0  0
 13 31  1  0  0  0
 14 15  2  0  0  0
 14 89  1  0  0  0
 15 90  1  0  0  0
 16 17  2  0  0  0
 16 21  1  0  0  0
 16 31  1  0  0  0
 17 18  1  0  0  0
 17 91  1  0  0  0
 18 19  2  0  0  0
 18 92  1  0  0  0
 19 20  1  0  0  0
 19 24  1  0  0  0
 20 21  2  0  0  0
 20 93  1  0  0  0
 21 23  1  0  0  0
 22 28  1  0  0  0
 22 32  2  0  0  0
 26 27  1  0  0  0
 28 94  1  0  0  0
 28 95  1  0  0  0
 29 96  1  0  0  0
 29 97  1  0  0  0
 33 34  1  0  0  0
 33 66  1  0  0  0
 33 70  2  0  0  0
 34 36  1  0  0  0
 34 59  1  0  0  0
 34 98  1  0  0  0
 35 44  2  0  0  0
 35 45  1  0  0  0
 35 68  1  0  0  0
 36 56  1  0  0  0
 36 99  1  0  0  0
 37 39  1  0  0  0
 37 47  1  0  0  0
 37 66  1  0  0  0
 37100  1  0  0  0
 38 43  2  0  0  0
 38 46  1  0  0  0
 38 47  1  0  0  0
 39 64  1  0  0  0
 39 67  2  0  0  0
 40 52  1  0  0  0
 40 53  2  0  0  0
 40 58  1  0  0  0
 41101  1  0  0  0
 41102  1  0  0  0
 41103  1  0  0  0
 41 48  1  0  0  0
 42 43  1  0  0  0
 42 66  1  0  0  0
 42104  1  0  0  0
 42105  1  0  0  0
 43 44  1  0  0  0
 44106  1  0  0  0
 45 46  2  0  0  0
 45107  1  0  0  0
 46108  1  0  0  0
 47109  1  0  0  0
 47110  1  0  0  0
 48 56  1  0  0  0
 48 65  1  0  0  0
 48111  1  0  0  0
 49 50  1  0  0  0
 49 53  1  0  0  0
 49 64  1  0  0  0
 49112  1  0  0  0
 50 51  1  0  0  0
 50113  1  0  0  0
 50114  1  0  0  0
 51 52  1  0  0  0
 51115  1  0  0  0
 51116  1  0  0  0
 52117  1  0  0  0
 52118  1  0  0  0
 53 54  1  0  0  0
 54 55  2  0  0  0
 54119  1  0  0  0
 55 57  1  0  0  0
 55120  1  0  0  0
 56 69  2  0  0  0
 57 58  2  0  0  0
 57121  1  0  0  0
 58122  1  0  0  0
 59 60  1  0  0  0
 59 61  1  0  0  0
 59 62  1  0  0  0
 60123  1  0  0  0
 60124  1  0  0  0
 60125  1  0  0  0
 61126  1  0  0  0
 61127  1  0  0  0
 61128  1  0  0  0
 62129  1  0  0  0
 62130  1  0  0  0
 62131  1  0  0  0
 63 65  1  0  0  0
 63132  1  0  0  0
 63133  1  0  0  0
 63134  1  0  0  0
 64135  1  0  0  0
 65136  1  0  0  0
 68 76  1  0  0  0
 71137  1  0  0  0
 71138  1  0  0  0
 71139  1  0  0  0
 71 75  1  0  0  0
 72140  1  0  0  0
 72141  1  0  0  0
 72142  1  0  0  0
 72 76  1  0  0  0
 73 76  1  0  0  0
 73143  1  0  0  0
 73144  1  0  0  0
 73145  1  0  0  0
 74 75  1  0  0  0
 74 76  1  0  0  0
 74146  1  0  0  0
 74147  1  0  0  0
 75 77  1  0  0  0
 75148  1  0  0  0
 77149  1  0  0  0
M  ISO  4   1 100  68 101  76 101  77 100
M  END
> <chiral flag>
0

> <version>
0

> <s_m_source_file>
/data/baiqing/PycharmProjects/Reinvent-master-3.2/result/LINK_invent/BTK/process_docking_weight1_custom_sum_contain_oxygen_bond_distance_aromatic_linkinvent_7_9_3/rearranged_h_0114.sdf

> <i_m_source_file_index>
52

> <r_mmod_Potential_Energy-OPLS-2005>
4181.0068359375

> <r_mmod_Stretch_Energy-OPLS-2005>
1946.62243652344

> <r_mmod_Bend_Energy-OPLS-2005>
904.196472167969

> <r_mmod_Torsional_Energy-OPLS-2005>
233.144592285156

> <r_mmod_Improper_Torsional_Energy-OPLS-2005>
3.96930551528931

> <r_mmod_Van_der_Waal_Energy-OPLS-2005>
110.648086547852

> <r_mmod_Electrostatic_Energy-OPLS-2005>
-343.378692626953

> <r_mmod_Solvation_Energy-OPLS-2005>
-213.844512939453

> <b_mmod_Minimization_Converged-OPLS-2005>
0

> <r_mmod_RMS_Derivative-OPLS-2005>
1.67691659927368

$$$$
52
                    3D
 Structure written by MMmdl.
155163  0  0  1  0            999 V2000
  -30.5085  -15.0144   20.3915 C   0  0  0  0  0  0
  -30.4495  -12.6323   19.4864 C   0  0  0  0  0  0
  -29.5287  -12.5417   18.2464 C   0  0  0  0  0  0
  -28.0598  -12.3208   18.6632 C   0  0  0  0  0  0
  -27.6271  -13.2531   19.8255 C   0  0  2  0  0  0
  -28.6724  -13.3033   20.9588 C   0  0  0  0  0  0
  -25.2450  -13.8213   20.5676 C   0  0  0  0  0  0
  -24.1785  -13.0429   20.9212 C   0  0  0  0  0  0
  -24.6411  -11.6917   20.8732 C   0  0  0  0  0  0
  -23.9084  -10.4292   21.0404 C   0  0  0  0  0  0
  -24.3635   -9.4212   21.9187 C   0  0  0  0  0  0
  -23.6305   -8.2249   22.0751 C   0  0  0  0  0  0
  -22.4283   -8.0292   21.3543 C   0  0  0  0  0  0
  -21.9919   -9.0265   20.4645 C   0  0  0  0  0  0
  -22.7251  -10.2141   20.3054 C   0  0  0  0  0  0
  -21.6856   -6.0740   22.5279 C   0  0  0  0  0  0
  -21.4022   -6.5641   23.8216 C   0  0  0  0  0  0
  -21.3653   -5.6787   24.9176 C   0  0  0  0  0  0
  -21.6040   -4.3048   24.7226 C   0  0  0  0  0  0
  -21.8817   -3.8145   23.4346 C   0  0  0  0  0  0
  -21.9194   -4.6964   22.3403 C   0  0  0  0  0  0
  -22.7803  -13.5201   21.1870 C   0  0  0  0  0  0
  -22.1664   -4.2152   21.0973 F   0  0  0  0  0  0
  -21.5624   -3.4531   25.7735 F   0  0  0  0  0  0
  -29.9379  -13.7369   20.3501 N   0  0  0  0  0  0
  -26.2881  -12.9455   20.3178 N   0  0  0  0  0  0
  -25.9349  -11.6578   20.5689 N   0  0  0  0  0  0
  -22.0448  -12.8201   22.0429 N   0  0  0  0  0  0
  -25.4075  -15.1946   20.4104 N   0  0  0  0  0  0
  -31.7251  -15.0810   20.1791 O   0  0  0  0  0  0
  -21.6640   -6.8894   21.4241 O   0  0  0  0  0  0
  -22.3482  -14.5502   20.6702 O   0  0  0  0  0  0
  -24.6484  -31.8407   23.1819 C   0  0  0  0  0  0
  -25.9239  -32.4672   23.8231 C   0  0  1  0  0  0
  -27.2164  -27.0872   20.1490 C   0  0  0  0  0  0
  -25.5969  -33.8475   24.2159 N   0  0  0  0  0  0
  -23.4525  -30.4587   21.5293 C   0  0  2  0  0  0
  -24.9013  -28.8794   20.1069 C   0  0  0  0  0  0
  -22.7593  -29.4529   22.4830 C   0  0  0  0  0  0
  -18.0318  -28.1397   22.8475 C   0  0  0  0  0  0
  -24.1491  -36.7242   23.2645 C   0  0  0  0  0  0
  -26.0119  -30.6992   21.3858 C   0  0  0  0  0  0
  -26.0818  -29.3053   20.7279 C   0  0  0  0  0  0
  -27.2370  -28.4274   20.7305 C   0  0  0  0  0  0
  -26.0004  -26.7731   19.5003 C   0  0  0  0  0  0
  -24.8784  -27.6281   19.4747 C   0  0  0  0  0  0
  -23.6795  -29.7858   20.1494 C   0  0  0  0  0  0
  -25.4120  -36.3013   24.0315 C   0  0  1  0  0  0
  -20.5933  -28.3730   23.1224 C   0  0  2  0  0  0
  -20.6795  -26.9432   22.5395 C   0  0  0  0  0  0
  -19.5770  -26.6383   21.5203 C   0  0  0  0  0  0
  -18.1954  -26.7936   22.1618 C   0  0  0  0  0  0
  -19.1572  -28.8879   23.2846 C   0  0  0  0  0  0
  -18.9479  -30.1470   23.8877 C   0  0  0  0  0  0
  -17.6472  -30.6593   24.0546 C   0  0  0  0  0  0
  -25.9076  -34.9394   23.5046 C   0  0  0  0  0  0
  -16.5367  -29.9078   23.6335 C   0  0  0  0  0  0
  -16.7299  -28.6495   23.0362 C   0  0  0  0  0  0
  -26.4541  -31.6552   25.0685 C   0  0  0  0  0  0
  -25.3712  -31.3739   26.1365 C   0  0  0  0  0  0
  -27.0405  -30.2945   24.6282 C   0  0  0  0  0  0
  -27.6073  -32.4317   25.7479 C   0  0  0  0  0  0
  -27.5572  -37.1777   24.8465 C   0  0  0  0  0  0
  -21.4278  -29.3044   22.3582 N   0  0  0  0  0  0
  -26.4279  -37.3730   23.9414 N   0  0  0  0  0  0
  -24.7248  -31.0227   22.0865 N   0  0  0  0  0  0
  -23.4221  -28.8085   23.3004 O   0  0  0  0  0  0
  -28.2670  -26.0812   20.2392 O   0  0  0  0  0  0
  -26.5670  -34.8911   22.4630 O   0  0  0  0  0  0
  -23.5599  -32.1297   23.7022 O   0  0  0  0  0  0
  -31.0019  -18.4837   20.7484 C   0  0  0  0  0  0
  -28.9017  -18.7714   20.1620 C   0  0  0  0  0  0
  -29.8375  -17.7271   20.4191 C   0  0  0  0  0  0
  -30.7456  -19.8562   20.6940 C   0  0  0  0  0  0
  -31.7207  -20.9424   20.9985 C   0  0  0  0  0  0
  -28.2730  -24.6036   18.2812 C   0  0  0  0  0  0
  -28.6534  -21.5379   20.0034 C   0  0  0  0  0  0
  -28.1348  -24.5622   19.8182 C   0  0  1  0  0  0
  -29.0106  -23.1856   20.3831 C   0  0  2  0  0  0
  -29.4157  -20.1354   20.3071 N   0  0  0  0  0  0
  -29.6715  -16.1828   20.4201 N   0  0  0  0  0  0
  -30.3341  -23.4444   19.9458 O   0  0  0  0  0  0
  -31.4787  -12.8108   19.1699 H   0  0  0  0  0  0
  -30.4625  -11.6875   20.0320 H   0  0  0  0  0  0
  -29.8603  -11.7384   17.5868 H   0  0  0  0  0  0
  -29.6073  -13.4638   17.6677 H   0  0  0  0  0  0
  -27.9553  -11.2788   18.9681 H   0  0  0  0  0  0
  -27.3991  -12.4552   17.8053 H   0  0  0  0  0  0
  -27.5798  -14.2511   19.3888 H   0  0  0  0  0  0
  -28.7766  -12.3321   21.4447 H   0  0  0  0  0  0
  -28.3645  -14.0082   21.7329 H   0  0  0  0  0  0
  -25.2801   -9.5683   22.4737 H   0  0  0  0  0  0
  -24.0017   -7.4636   22.7466 H   0  0  0  0  0  0
  -21.0850   -8.8787   19.8955 H   0  0  0  0  0  0
  -22.3728  -10.9670   19.6142 H   0  0  0  0  0  0
  -21.2028   -7.6153   23.9721 H   0  0  0  0  0  0
  -21.1470   -6.0518   25.9073 H   0  0  0  0  0  0
  -22.0606   -2.7609   23.2838 H   0  0  0  0  0  0
  -22.4075  -11.9897   22.4867 H   0  0  0  0  0  0
  -21.1056  -13.1209   22.2591 H   0  0  0  0  0  0
  -24.6287  -15.8370   20.5148 H   0  0  0  0  0  0
  -26.2396  -15.6397   20.0461 H   0  0  0  0  0  0
  -26.7295  -32.5261   23.0949 H   0  0  0  0  0  0
  -25.0113  -33.9574   25.0308 H   0  0  0  0  0  0
  -22.7567  -31.2854   21.3723 H   0  0  0  0  0  0
  -23.3757  -35.9569   23.3279 H   0  0  0  0  0  0
  -24.3578  -36.8903   22.2066 H   0  0  0  0  0  0
  -23.7244  -37.6429   23.6698 H   0  0  0  0  0  0
  -26.1709  -31.4493   20.6096 H   0  0  0  0  0  0
  -26.8810  -30.7525   22.0293 H   0  0  0  0  0  0
  -28.1328  -28.7485   21.2432 H   0  0  0  0  0  0
  -25.8623  -25.8124   19.0308 H   0  0  0  0  0  0
  -23.9784  -27.2928   18.9784 H   0  0  0  0  0  0
  -23.8125  -30.5563   19.3889 H   0  0  0  0  0  0
  -22.7928  -29.2285   19.8422 H   0  0  0  0  0  0
  -25.1310  -36.1825   25.0807 H   0  0  0  0  0  0
  -21.0034  -28.3318   24.1340 H   0  0  0  0  0  0
  -20.5685  -26.2347   23.3617 H   0  0  0  0  0  0
  -21.6663  -26.7432   22.1197 H   0  0  0  0  0  0
  -19.6933  -25.6283   21.1256 H   0  0  0  0  0  0
  -19.6700  -27.3167   20.6709 H   0  0  0  0  0  0
  -17.4222  -26.6676   21.4025 H   0  0  0  0  0  0
  -18.0358  -26.0086   22.9025 H   0  0  0  0  0  0
  -19.7947  -30.7291   24.2249 H   0  0  0  0  0  0
  -17.5020  -31.6270   24.5145 H   0  0  0  0  0  0
  -15.5365  -30.2966   23.7664 H   0  0  0  0  0  0
  -15.8701  -28.0789   22.7113 H   0  0  0  0  0  0
  -24.5921  -30.7060   25.7666 H   0  0  0  0  0  0
  -24.8863  -32.2913   26.4714 H   0  0  0  0  0  0
  -25.7983  -30.8961   27.0189 H   0  0  0  0  0  0
  -26.3016  -29.6663   24.1287 H   0  0  0  0  0  0
  -27.4011  -29.7253   25.4858 H   0  0  0  0  0  0
  -27.8930  -30.4176   23.9597 H   0  0  0  0  0  0
  -27.2680  -33.3659   26.1967 H   0  0  0  0  0  0
  -28.3929  -32.6806   25.0331 H   0  0  0  0  0  0
  -28.0683  -31.8492   26.5466 H   0  0  0  0  0  0
  -28.2569  -38.0091   24.7512 H   0  0  0  0  0  0
  -28.1087  -36.2619   24.6277 H   0  0  0  0  0  0
  -27.2296  -37.1403   25.8870 H   0  0  0  0  0  0
  -20.9502  -29.8752   21.6741 H   0  0  0  0  0  0
  -26.0138  -38.2801   24.1398 H   0  0  0  0  0  0
  -31.9612  -18.0647   21.0256 H   0  0  0  0  0  0
  -27.8656  -18.6720   19.8644 H   0  0  0  0  0  0
  -32.6324  -20.5360   21.4367 H   0  0  0  0  0  0
  -31.3086  -21.6530   21.7145 H   0  0  0  0  0  0
  -32.0097  -21.4739   20.0924 H   0  0  0  0  0  0
  -29.2436  -25.0032   17.9878 H   0  0  0  0  0  0
  -27.5247  -25.2345   17.8081 H   0  0  0  0  0  0
  -28.1707  -23.6132   17.8392 H   0  0  0  0  0  0
  -28.5204  -21.5290   18.9212 H   0  0  0  0  0  0
  -27.6432  -21.3820   20.3832 H   0  0  0  0  0  0
  -27.1031  -24.2996   20.0532 H   0  0  0  0  0  0
  -29.0131  -23.2422   21.4729 H   0  0  0  0  0  0
  -28.7033  -15.9032   20.4187 H   0  0  0  0  0  0
  -30.2862  -23.6448   19.0169 H   0  0  0  0  0  0
  1 25  1  0  0  0
  1 30  2  0  0  0
  1 81  1  0  0  0
  2  3  1  0  0  0
  2 25  1  0  0  0
  2 83  1  0  0  0
  2 84  1  0  0  0
  3  4  1  0  0  0
  3 85  1  0  0  0
  3 86  1  0  0  0
  4  5  1  0  0  0
  4 87  1  0  0  0
  4 88  1  0  0  0
  5  6  1  0  0  0
  5 26  1  0  0  0
  5 89  1  0  0  0
  6 25  1  0  0  0
  6 90  1  0  0  0
  6 91  1  0  0  0
  7  8  2  0  0  0
  7 26  1  0  0  0
  7 29  1  0  0  0
  8  9  1  0  0  0
  8 22  1  0  0  0
  9 10  1  0  0  0
  9 27  2  0  0  0
 10 11  2  0  0  0
 10 15  1  0  0  0
 11 12  1  0  0  0
 11 92  1  0  0  0
 12 13  2  0  0  0
 12 93  1  0  0  0
 13 14  1  0  0  0
 13 31  1  0  0  0
 14 15  2  0  0  0
 14 94  1  0  0  0
 15 95  1  0  0  0
 16 17  2  0  0  0
 16 21  1  0  0  0
 16 31  1  0  0  0
 17 18  1  0  0  0
 17 96  1  0  0  0
 18 19  2  0  0  0
 18 97  1  0  0  0
 19 20  1  0  0  0
 19 24  1  0  0  0
 20 21  2  0  0  0
 20 98  1  0  0  0
 21 23  1  0  0  0
 22 28  1  0  0  0
 22 32  2  0  0  0
 26 27  1  0  0  0
 28 99  1  0  0  0
 28100  1  0  0  0
 29101  1  0  0  0
 29102  1  0  0  0
 33 34  1  0  0  0
 33 66  1  0  0  0
 33 70  2  0  0  0
 34 36  1  0  0  0
 34 59  1  0  0  0
 34103  1  0  0  0
 35 44  2  0  0  0
 35 45  1  0  0  0
 35 68  1  0  0  0
 36 56  1  0  0  0
 36104  1  0  0  0
 37 39  1  0  0  0
 37 47  1  0  0  0
 37 66  1  0  0  0
 37105  1  0  0  0
 38 43  2  0  0  0
 38 46  1  0  0  0
 38 47  1  0  0  0
 39 64  1  0  0  0
 39 67  2  0  0  0
 40 52  1  0  0  0
 40 53  2  0  0  0
 40 58  1  0  0  0
 41106  1  0  0  0
 41107  1  0  0  0
 41108  1  0  0  0
 41 48  1  0  0  0
 42 43  1  0  0  0
 42 66  1  0  0  0
 42109  1  0  0  0
 42110  1  0  0  0
 43 44  1  0  0  0
 44111  1  0  0  0
 45 46  2  0  0  0
 45112  1  0  0  0
 46113  1  0  0  0
 47114  1  0  0  0
 47115  1  0  0  0
 48 56  1  0  0  0
 48 65  1  0  0  0
 48116  1  0  0  0
 49 50  1  0  0  0
 49 53  1  0  0  0
 49 64  1  0  0  0
 49117  1  0  0  0
 50 51  1  0  0  0
 50118  1  0  0  0
 50119  1  0  0  0
 51 52  1  0  0  0
 51120  1  0  0  0
 51121  1  0  0  0
 52122  1  0  0  0
 52123  1  0  0  0
 53 54  1  0  0  0
 54 55  2  0  0  0
 54124  1  0  0  0
 55 57  1  0  0  0
 55125  1  0  0  0
 56 69  2  0  0  0
 57 58  2  0  0  0
 57126  1  0  0  0
 58127  1  0  0  0
 59 60  1  0  0  0
 59 61  1  0  0  0
 59 62  1  0  0  0
 60128  1  0  0  0
 60129  1  0  0  0
 60130  1  0  0  0
 61131  1  0  0  0
 61132  1  0  0  0
 61133  1  0  0  0
 62134  1  0  0  0
 62135  1  0  0  0
 62136  1  0  0  0
 63 65  1  0  0  0
 63137  1  0  0  0
 63138  1  0  0  0
 63139  1  0  0  0
 64140  1  0  0  0
 65141  1  0  0  0
 68 78  1  0  0  0
 71 73  1  0  0  0
 71 74  2  0  0  0
 71142  1  0  0  0
 72 73  2  0  0  0
 72 80  1  0  0  0
 72143  1  0  0  0
 73 81  1  0  0  0
 74 75  1  0  0  0
 74 80  1  0  0  0
 75144  1  0  0  0
 75145  1  0  0  0
 75146  1  0  0  0
 76147  1  0  0  0
 76148  1  0  0  0
 76149  1  0  0  0
 76 78  1  0  0  0
 77 79  1  0  0  0
 77 80  1  0  0  0
 77150  1  0  0  0
 77151  1  0  0  0
 78 79  1  0  0  0
 78152  1  0  0  0
 79 82  1  0  0  0
 79153  1  0  0  0
 81154  1  0  0  0
 82155  1  0  0  0
M  ISO  4   1 100  68 101  78 101  81 100
M  END
> <chiral flag>
0

> <version>
0

> <s_m_source_file>
/data/baiqing/PycharmProjects/Reinvent-master-3.2/result/LINK_invent/BTK/process_docking_weight1_custom_sum_contain_oxygen_bond_distance_aromatic_linkinvent_7_9_3/rearranged_h_0114.sdf

> <i_m_source_file_index>
53

> <r_mmod_Potential_Energy-OPLS-2005>
644.237670898438

> <r_mmod_Stretch_Energy-OPLS-2005>
323.927459716797

> <r_mmod_Bend_Energy-OPLS-2005>
310.508087158203

> <r_mmod_Torsional_Energy-OPLS-2005>
229.624038696289

> <r_mmod_Improper_Torsional_Energy-OPLS-2005>
6.06150102615356

> <r_mmod_Van_der_Waal_Energy-OPLS-2005>
111.151748657227

> <r_mmod_Electrostatic_Energy-OPLS-2005>
-338.76416015625

> <r_mmod_Solvation_Energy-OPLS-2005>
-239.005630493164

> <b_mmod_Minimization_Converged-OPLS-2005>
0

> <r_mmod_RMS_Derivative-OPLS-2005>
1.87381780147552

$$$$
53
                    3D
 Structure written by MMmdl.
170178  0  0  1  0            999 V2000
  -30.5185  -14.7784   20.4454 C   0  0  0  0  0  0
  -30.4313  -12.4682   19.4674 C   0  0  0  0  0  0
  -29.5037  -12.5083   18.2314 C   0  0  0  0  0  0
  -28.0270  -12.3322   18.6397 C   0  0  0  0  0  0
  -27.6321  -13.2244   19.8430 C   0  0  2  0  0  0
  -28.6708  -13.1425   20.9820 C   0  0  0  0  0  0
  -25.2458  -13.8185   20.5622 C   0  0  0  0  0  0
  -24.1774  -13.0454   20.9171 C   0  0  0  0  0  0
  -24.6355  -11.6915   20.8703 C   0  0  0  0  0  0
  -23.9045  -10.4301   21.0389 C   0  0  0  0  0  0
  -24.3608   -9.4209   21.9150 C   0  0  0  0  0  0
  -23.6300   -8.2242   22.0740 C   0  0  0  0  0  0
  -22.4285   -8.0262   21.3545 C   0  0  0  0  0  0
  -21.9902   -9.0223   20.4644 C   0  0  0  0  0  0
  -22.7215  -10.2107   20.3049 C   0  0  0  0  0  0
  -21.6858   -6.0726   22.5270 C   0  0  0  0  0  0
  -21.4031   -6.5639   23.8201 C   0  0  0  0  0  0
  -21.3660   -5.6795   24.9168 C   0  0  0  0  0  0
  -21.6039   -4.3054   24.7231 C   0  0  0  0  0  0
  -21.8823   -3.8137   23.4356 C   0  0  0  0  0  0
  -21.9214   -4.6954   22.3411 C   0  0  0  0  0  0
  -22.7808  -13.5199   21.1846 C   0  0  0  0  0  0
  -22.1664   -4.2129   21.0995 F   0  0  0  0  0  0
  -21.5621   -3.4545   25.7750 F   0  0  0  0  0  0
  -29.9660  -13.5154   20.4094 N   0  0  0  0  0  0
  -26.2867  -12.9367   20.3196 N   0  0  0  0  0  0
  -25.9275  -11.6522   20.5731 N   0  0  0  0  0  0
  -22.0512  -12.8196   22.0438 N   0  0  0  0  0  0
  -25.4171  -15.1926   20.3994 N   0  0  0  0  0  0
  -31.6984  -14.9314   20.1172 O   0  0  0  0  0  0
  -21.6663   -6.8855   21.4230 O   0  0  0  0  0  0
  -22.3477  -14.5501   20.6679 O   0  0  0  0  0  0
  -24.6336  -31.8469   23.1876 C   0  0  0  0  0  0
  -25.9133  -32.4683   23.8230 C   0  0  1  0  0  0
  -27.1973  -27.1915   20.1765 C   0  0  0  0  0  0
  -25.5905  -33.8493   24.2160 N   0  0  0  0  0  0
  -23.4314  -30.4687   21.5284 C   0  0  2  0  0  0
  -24.8756  -28.8897   20.1282 C   0  0  0  0  0  0
  -22.7496  -29.4544   22.4801 C   0  0  0  0  0  0
  -18.0303  -28.1417   22.8419 C   0  0  0  0  0  0
  -24.1503  -36.7266   23.2647 C   0  0  0  0  0  0
  -25.9819  -30.7446   21.3725 C   0  0  0  0  0  0
  -26.0506  -29.3561   20.7301 C   0  0  0  0  0  0
  -27.2189  -28.5214   20.7324 C   0  0  0  0  0  0
  -26.0005  -26.7899   19.5597 C   0  0  0  0  0  0
  -24.8567  -27.6169   19.5307 C   0  0  0  0  0  0
  -23.6571  -29.7944   20.1507 C   0  0  0  0  0  0
  -25.4108  -36.3017   24.0346 C   0  0  1  0  0  0
  -20.5907  -28.3692   23.1253 C   0  0  2  0  0  0
  -20.6772  -26.9365   22.5448 C   0  0  0  0  0  0
  -19.5778  -26.6353   21.5224 C   0  0  0  0  0  0
  -18.1947  -26.7970   22.1564 C   0  0  0  0  0  0
  -19.1569  -28.8847   23.2850 C   0  0  0  0  0  0
  -18.9508  -30.1434   23.8875 C   0  0  0  0  0  0
  -17.6525  -30.6602   24.0522 C   0  0  0  0  0  0
  -25.9052  -34.9402   23.5080 C   0  0  0  0  0  0
  -16.5396  -29.9098   23.6348 C   0  0  0  0  0  0
  -16.7289  -28.6539   23.0314 C   0  0  0  0  0  0
  -26.4482  -31.6576   25.0666 C   0  0  0  0  0  0
  -25.3672  -31.3871   26.1401 C   0  0  0  0  0  0
  -27.0283  -30.2959   24.6228 C   0  0  0  0  0  0
  -27.6062  -32.4306   25.7410 C   0  0  0  0  0  0
  -27.5567  -37.1753   24.8458 C   0  0  0  0  0  0
  -21.4211  -29.3035   22.3599 N   0  0  0  0  0  0
  -26.4259  -37.3741   23.9452 N   0  0  0  0  0  0
  -24.7003  -31.0379   22.0844 N   0  0  0  0  0  0
  -23.4255  -28.8106   23.2879 O   0  0  0  0  0  0
  -28.3395  -26.3857   20.0002 O   0  0  0  0  0  0
  -26.5647  -34.8903   22.4661 O   0  0  0  0  0  0
  -23.5480  -32.1285   23.7136 O   0  0  0  0  0  0
  -26.7198  -23.5954   21.3591 C   0  0  0  0  0  0
  -28.4277  -22.3318   20.2475 C   0  0  0  0  0  0
  -27.8801  -23.6387   20.5820 C   0  0  0  0  0  0
  -26.0911  -22.3728   21.7015 C   0  0  0  0  0  0
  -26.4924  -21.0965   21.1481 C   0  0  0  0  0  0
  -27.8214  -21.0350   20.5413 C   0  0  0  0  0  0
  -25.0296  -22.5191   22.7908 C   0  0  0  0  0  0
  -29.4417  -25.1983   21.8496 C   0  0  0  0  0  0
  -23.9419  -20.3950   21.1625 C   0  0  0  0  0  0
  -25.5417  -18.9036   22.2361 C   0  0  0  0  0  0
  -25.4371  -19.2177   19.6901 C   0  0  0  0  0  0
  -28.6907  -18.4465   20.8434 C   0  0  0  0  0  0
  -29.7819  -17.3565   20.2845 C   0  0  0  0  0  0
  -28.7177  -25.0042   20.5153 C   0  0  2  0  0  0
  -25.4264  -19.9182   21.0736 C   0  0  0  0  0  0
  -28.5765  -19.8251   20.1782 N   0  0  0  0  0  0
  -29.6484  -15.8579   20.6262 N   0  0  0  0  0  0
  -31.4708  -12.6147   19.1646 H   0  0  0  0  0  0
  -30.3954  -11.4885   19.9427 H   0  0  0  0  0  0
  -29.7812  -11.7333   17.5161 H   0  0  0  0  0  0
  -29.6308  -13.4611   17.7151 H   0  0  0  0  0  0
  -27.8695  -11.2820   18.8879 H   0  0  0  0  0  0
  -27.3772  -12.5354   17.7896 H   0  0  0  0  0  0
  -27.6261  -14.2479   19.4664 H   0  0  0  0  0  0
  -28.7177  -12.1363   21.4000 H   0  0  0  0  0  0
  -28.4036  -13.8050   21.8086 H   0  0  0  0  0  0
  -25.2754   -9.5708   22.4700 H   0  0  0  0  0  0
  -24.0020   -7.4663   22.7462 H   0  0  0  0  0  0
  -21.0830   -8.8733   19.8976 H   0  0  0  0  0  0
  -22.3641  -10.9636   19.6164 H   0  0  0  0  0  0
  -21.2027   -7.6140   23.9698 H   0  0  0  0  0  0
  -21.1463   -6.0525   25.9059 H   0  0  0  0  0  0
  -22.0611   -2.7596   23.2879 H   0  0  0  0  0  0
  -22.4187  -11.9867   22.4801 H   0  0  0  0  0  0
  -21.1123  -13.1158   22.2683 H   0  0  0  0  0  0
  -24.6387  -15.8382   20.4808 H   0  0  0  0  0  0
  -26.2496  -15.6245   20.0199 H   0  0  0  0  0  0
  -26.7164  -32.5330   23.0915 H   0  0  0  0  0  0
  -25.0054  -33.9639   25.0316 H   0  0  0  0  0  0
  -22.7290  -31.2904   21.3700 H   0  0  0  0  0  0
  -23.3768  -35.9591   23.3286 H   0  0  0  0  0  0
  -24.3557  -36.8887   22.2053 H   0  0  0  0  0  0
  -23.7308  -37.6477   23.6682 H   0  0  0  0  0  0
  -26.1365  -31.4954   20.5948 H   0  0  0  0  0  0
  -26.8542  -30.7910   22.0138 H   0  0  0  0  0  0
  -28.1392  -28.8818   21.1676 H   0  0  0  0  0  0
  -25.9513  -25.8235   19.0718 H   0  0  0  0  0  0
  -23.9553  -27.2540   19.0601 H   0  0  0  0  0  0
  -23.7977  -30.5591   19.3887 H   0  0  0  0  0  0
  -22.7750  -29.2358   19.8359 H   0  0  0  0  0  0
  -25.1283  -36.1819   25.0829 H   0  0  0  0  0  0
  -20.9977  -28.3267   24.1387 H   0  0  0  0  0  0
  -20.5673  -26.2232   23.3643 H   0  0  0  0  0  0
  -21.6655  -26.7404   22.1225 H   0  0  0  0  0  0
  -19.6952  -25.6272   21.1260 H   0  0  0  0  0  0
  -19.6813  -27.3132   20.6748 H   0  0  0  0  0  0
  -17.4221  -26.6732   21.3940 H   0  0  0  0  0  0
  -18.0263  -26.0162   22.8992 H   0  0  0  0  0  0
  -19.8009  -30.7203   24.2248 H   0  0  0  0  0  0
  -17.5123  -31.6298   24.5089 H   0  0  0  0  0  0
  -15.5409  -30.2987   23.7716 H   0  0  0  0  0  0
  -15.8696  -28.0854   22.7043 H   0  0  0  0  0  0
  -24.6020  -30.6951   25.7879 H   0  0  0  0  0  0
  -24.8675  -32.3074   26.4427 H   0  0  0  0  0  0
  -25.7984  -30.9485   27.0425 H   0  0  0  0  0  0
  -26.2867  -29.6717   24.1243 H   0  0  0  0  0  0
  -27.3905  -29.7205   25.4761 H   0  0  0  0  0  0
  -27.8761  -30.4170   23.9496 H   0  0  0  0  0  0
  -27.2741  -33.3700   26.1844 H   0  0  0  0  0  0
  -28.3923  -32.6696   25.0233 H   0  0  0  0  0  0
  -28.0671  -31.8540   26.5441 H   0  0  0  0  0  0
  -28.2505  -38.0096   24.7430 H   0  0  0  0  0  0
  -28.1122  -36.2611   24.6324 H   0  0  0  0  0  0
  -27.2283  -37.1424   25.8852 H   0  0  0  0  0  0
  -20.9349  -29.8821   21.6883 H   0  0  0  0  0  0
  -26.0122  -38.2796   24.1514 H   0  0  0  0  0  0
  -26.3637  -24.5228   21.7841 H   0  0  0  0  0  0
  -29.4045  -22.3253   19.7829 H   0  0  0  0  0  0
  -24.0184  -22.6175   22.4079 H   0  0  0  0  0  0
  -25.1993  -23.4180   23.3869 H   0  0  0  0  0  0
  -25.0721  -21.6866   23.4920 H   0  0  0  0  0  0
  -30.0374  -24.3180   22.0889 H   0  0  0  0  0  0
  -28.7319  -25.3468   22.6604 H   0  0  0  0  0  0
  -30.1095  -26.0570   21.8230 H   0  0  0  0  0  0
  -23.5928  -20.4910   22.1932 H   0  0  0  0  0  0
  -23.2260  -19.7022   20.7126 H   0  0  0  0  0  0
  -23.7893  -21.3528   20.6626 H   0  0  0  0  0  0
  -25.2799  -19.3731   23.1859 H   0  0  0  0  0  0
  -26.5211  -18.4571   22.3764 H   0  0  0  0  0  0
  -24.8312  -18.0866   22.0908 H   0  0  0  0  0  0
  -25.1645  -19.9138   18.8990 H   0  0  0  0  0  0
  -24.7000  -18.4122   19.6522 H   0  0  0  0  0  0
  -26.3775  -18.7643   19.4016 H   0  0  0  0  0  0
  -28.8718  -18.5960   21.9102 H   0  0  0  0  0  0
  -27.7186  -17.9621   20.7745 H   0  0  0  0  0  0
  -30.7903  -17.6846   20.5405 H   0  0  0  0  0  0
  -29.7484  -17.4067   19.1964 H   0  0  0  0  0  0
  -29.5043  -24.7412   19.8027 H   0  0  0  0  0  0
  -29.2644  -19.9676   19.4427 H   0  0  0  0  0  0
  -28.7107  -15.5726   20.8656 H   0  0  0  0  0  0
  1 25  1  0  0  0
  1 30  2  0  0  0
  1 87  1  0  0  0
  2  3  1  0  0  0
  2 25  1  0  0  0
  2 88  1  0  0  0
  2 89  1  0  0  0
  3  4  1  0  0  0
  3 90  1  0  0  0
  3 91  1  0  0  0
  4  5  1  0  0  0
  4 92  1  0  0  0
  4 93  1  0  0  0
  5  6  1  0  0  0
  5 26  1  0  0  0
  5 94  1  0  0  0
  6 25  1  0  0  0
  6 95  1  0  0  0
  6 96  1  0  0  0
  7  8  2  0  0  0
  7 26  1  0  0  0
  7 29  1  0  0  0
  8  9  1  0  0  0
  8 22  1  0  0  0
  9 10  1  0  0  0
  9 27  2  0  0  0
 10 11  2  0  0  0
 10 15  1  0  0  0
 11 12  1  0  0  0
 11 97  1  0  0  0
 12 13  2  0  0  0
 12 98  1  0  0  0
 13 14  1  0  0  0
 13 31  1  0  0  0
 14 15  2  0  0  0
 14 99  1  0  0  0
 15100  1  0  0  0
 16 17  2  0  0  0
 16 21  1  0  0  0
 16 31  1  0  0  0
 17 18  1  0  0  0
 17101  1  0  0  0
 18 19  2  0  0  0
 18102  1  0  0  0
 19 20  1  0  0  0
 19 24  1  0  0  0
 20 21  2  0  0  0
 20103  1  0  0  0
 21 23  1  0  0  0
 22 28  1  0  0  0
 22 32  2  0  0  0
 26 27  1  0  0  0
 28104  1  0  0  0
 28105  1  0  0  0
 29106  1  0  0  0
 29107  1  0  0  0
 33 34  1  0  0  0
 33 66  1  0  0  0
 33 70  2  0  0  0
 34 36  1  0  0  0
 34 59  1  0  0  0
 34108  1  0  0  0
 35 44  2  0  0  0
 35 45  1  0  0  0
 35 68  1  0  0  0
 36 56  1  0  0  0
 36109  1  0  0  0
 37 39  1  0  0  0
 37 47  1  0  0  0
 37 66  1  0  0  0
 37110  1  0  0  0
 38 43  2  0  0  0
 38 46  1  0  0  0
 38 47  1  0  0  0
 39 64  1  0  0  0
 39 67  2  0  0  0
 40 52  1  0  0  0
 40 53  2  0  0  0
 40 58  1  0  0  0
 41111  1  0  0  0
 41112  1  0  0  0
 41113  1  0  0  0
 41 48  1  0  0  0
 42 43  1  0  0  0
 42 66  1  0  0  0
 42114  1  0  0  0
 42115  1  0  0  0
 43 44  1  0  0  0
 44116  1  0  0  0
 45 46  2  0  0  0
 45117  1  0  0  0
 46118  1  0  0  0
 47119  1  0  0  0
 47120  1  0  0  0
 48 56  1  0  0  0
 48 65  1  0  0  0
 48121  1  0  0  0
 49 50  1  0  0  0
 49 53  1  0  0  0
 49 64  1  0  0  0
 49122  1  0  0  0
 50 51  1  0  0  0
 50123  1  0  0  0
 50124  1  0  0  0
 51 52  1  0  0  0
 51125  1  0  0  0
 51126  1  0  0  0
 52127  1  0  0  0
 52128  1  0  0  0
 53 54  1  0  0  0
 54 55  2  0  0  0
 54129  1  0  0  0
 55 57  1  0  0  0
 55130  1  0  0  0
 56 69  2  0  0  0
 57 58  2  0  0  0
 57131  1  0  0  0
 58132  1  0  0  0
 59 60  1  0  0  0
 59 61  1  0  0  0
 59 62  1  0  0  0
 60133  1  0  0  0
 60134  1  0  0  0
 60135  1  0  0  0
 61136  1  0  0  0
 61137  1  0  0  0
 61138  1  0  0  0
 62139  1  0  0  0
 62140  1  0  0  0
 62141  1  0  0  0
 63 65  1  0  0  0
 63142  1  0  0  0
 63143  1  0  0  0
 63144  1  0  0  0
 64145  1  0  0  0
 65146  1  0  0  0
 68 84  1  0  0  0
 71 73  2  0  0  0
 71 74  1  0  0  0
 71147  1  0  0  0
 72 73  1  0  0  0
 72 76  2  0  0  0
 72148  1  0  0  0
 73 84  1  0  0  0
 74 75  2  0  0  0
 74 77  1  0  0  0
 75 76  1  0  0  0
 75 85  1  0  0  0
 76 86  1  0  0  0
 77149  1  0  0  0
 77150  1  0  0  0
 77151  1  0  0  0
 78152  1  0  0  0
 78153  1  0  0  0
 78154  1  0  0  0
 78 84  1  0  0  0
 79155  1  0  0  0
 79156  1  0  0  0
 79157  1  0  0  0
 79 85  1  0  0  0
 80 85  1  0  0  0
 80158  1  0  0  0
 80159  1  0  0  0
 80160  1  0  0  0
 81 85  1  0  0  0
 81161  1  0  0  0
 81162  1  0  0  0
 81163  1  0  0  0
 82 83  1  0  0  0
 82 86  1  0  0  0
 82164  1  0  0  0
 82165  1  0  0  0
 83 87  1  0  0  0
 83166  1  0  0  0
 83167  1  0  0  0
 84168  1  0  0  0
 86169  1  0  0  0
 87170  1  0  0  0
M  ISO  4   1 100  68 101  84 101  87 100
M  END
> <chiral flag>
0

> <version>
0

> <s_m_source_file>
/data/baiqing/PycharmProjects/Reinvent-master-3.2/result/LINK_invent/BTK/process_docking_weight1_custom_sum_contain_oxygen_bond_distance_aromatic_linkinvent_7_9_3/rearranged_h_0114.sdf

> <i_m_source_file_index>
54

> <r_mmod_Potential_Energy-OPLS-2005>
364.180999755859

> <r_mmod_Stretch_Energy-OPLS-2005>
168.630493164062

> <r_mmod_Bend_Energy-OPLS-2005>
286.094848632812

> <r_mmod_Torsional_Energy-OPLS-2005>
282.820129394531

> <r_mmod_Improper_Torsional_Energy-OPLS-2005>
12.8245964050293

> <r_mmod_Van_der_Waal_Energy-OPLS-2005>
147.912460327148

> <r_mmod_Electrostatic_Energy-OPLS-2005>
-433.507537841797

> <r_mmod_Solvation_Energy-OPLS-2005>
-205.182403564453

> <b_mmod_Minimization_Converged-OPLS-2005>
0

> <r_mmod_RMS_Derivative-OPLS-2005>
7.51369953155518

$$$$
54
                    3D
 Structure written by MMmdl.
150158  0  0  1  0            999 V2000
  -30.5874  -14.6637   20.4996 C   0  0  0  0  0  0
  -30.4399  -12.4066   19.4527 C   0  0  0  0  0  0
  -29.5168  -12.5340   18.2190 C   0  0  0  0  0  0
  -28.0340  -12.3696   18.6194 C   0  0  0  0  0  0
  -27.6529  -13.2181   19.8636 C   0  0  2  0  0  0
  -28.6951  -13.0585   20.9920 C   0  0  0  0  0  0
  -25.2565  -13.8161   20.5686 C   0  0  0  0  0  0
  -24.1827  -13.0441   20.9197 C   0  0  0  0  0  0
  -24.6391  -11.6908   20.8720 C   0  0  0  0  0  0
  -23.9048  -10.4298   21.0399 C   0  0  0  0  0  0
  -24.3605   -9.4226   21.9173 C   0  0  0  0  0  0
  -23.6298   -8.2253   22.0754 C   0  0  0  0  0  0
  -22.4279   -8.0290   21.3559 C   0  0  0  0  0  0
  -21.9908   -9.0254   20.4661 C   0  0  0  0  0  0
  -22.7215  -10.2136   20.3057 C   0  0  0  0  0  0
  -21.6855   -6.0740   22.5279 C   0  0  0  0  0  0
  -21.4016   -6.5640   23.8217 C   0  0  0  0  0  0
  -21.3654   -5.6795   24.9175 C   0  0  0  0  0  0
  -21.6045   -4.3056   24.7222 C   0  0  0  0  0  0
  -21.8812   -3.8154   23.4346 C   0  0  0  0  0  0
  -21.9187   -4.6973   22.3397 C   0  0  0  0  0  0
  -22.7845  -13.5252   21.1837 C   0  0  0  0  0  0
  -22.1666   -4.2159   21.0976 F   0  0  0  0  0  0
  -21.5626   -3.4536   25.7731 F   0  0  0  0  0  0
  -30.0057  -13.4209   20.4339 N   0  0  0  0  0  0
  -26.2983  -12.9348   20.3287 N   0  0  0  0  0  0
  -25.9317  -11.6500   20.5697 N   0  0  0  0  0  0
  -22.0460  -12.8277   22.0391 N   0  0  0  0  0  0
  -25.4269  -15.1885   20.4085 N   0  0  0  0  0  0
  -31.7558  -14.8262   20.1291 O   0  0  0  0  0  0
  -21.6658   -6.8880   21.4244 O   0  0  0  0  0  0
  -22.3542  -14.5550   20.6652 O   0  0  0  0  0  0
  -24.6257  -31.8607   23.2020 C   0  0  0  0  0  0
  -25.9108  -32.4783   23.8346 C   0  0  1  0  0  0
  -27.2215  -27.3164   20.1145 C   0  0  0  0  0  0
  -25.5925  -33.8585   24.2274 N   0  0  0  0  0  0
  -23.4184  -30.4838   21.5463 C   0  0  2  0  0  0
  -24.8625  -28.9370   20.1119 C   0  0  0  0  0  0
  -22.7461  -29.4627   22.4955 C   0  0  0  0  0  0
  -18.0285  -28.1369   22.8481 C   0  0  0  0  0  0
  -24.1488  -36.7302   23.2637 C   0  0  0  0  0  0
  -25.9587  -30.7884   21.3718 C   0  0  0  0  0  0
  -26.0322  -29.4143   20.7179 C   0  0  0  0  0  0
  -27.2133  -28.6142   20.7134 C   0  0  0  0  0  0
  -26.0304  -26.8968   19.4786 C   0  0  0  0  0  0
  -24.8637  -27.6825   19.4871 C   0  0  0  0  0  0
  -23.6300  -29.8154   20.1623 C   0  0  0  0  0  0
  -25.4107  -36.3089   24.0328 C   0  0  1  0  0  0
  -20.5887  -28.3681   23.1284 C   0  0  2  0  0  0
  -20.6780  -26.9406   22.5414 C   0  0  0  0  0  0
  -19.5752  -26.6368   21.5215 C   0  0  0  0  0  0
  -18.1933  -26.7915   22.1624 C   0  0  0  0  0  0
  -19.1540  -28.8841   23.2873 C   0  0  0  0  0  0
  -18.9465  -30.1449   23.8871 C   0  0  0  0  0  0
  -17.6467  -30.6579   24.0558 C   0  0  0  0  0  0
  -25.9052  -34.9453   23.5100 C   0  0  0  0  0  0
  -16.5356  -29.9073   23.6327 C   0  0  0  0  0  0
  -16.7273  -28.6494   23.0345 C   0  0  0  0  0  0
  -26.4480  -31.6590   25.0717 C   0  0  0  0  0  0
  -25.3711  -31.3743   26.1450 C   0  0  0  0  0  0
  -27.0342  -30.3024   24.6164 C   0  0  0  0  0  0
  -27.6037  -32.4323   25.7498 C   0  0  0  0  0  0
  -27.5576  -37.1806   24.8454 C   0  0  0  0  0  0
  -21.4188  -29.3036   22.3679 N   0  0  0  0  0  0
  -26.4282  -37.3784   23.9410 N   0  0  0  0  0  0
  -24.6866  -31.0614   22.0966 N   0  0  0  0  0  0
  -23.4190  -28.8177   23.3033 O   0  0  0  0  0  0
  -28.3397  -26.4670   20.1709 O   0  0  0  0  0  0
  -26.5623  -34.8931   22.4671 O   0  0  0  0  0  0
  -23.5420  -32.1418   23.7335 O   0  0  0  0  0  0
  -28.6307  -19.3406   21.0174 C   0  0  0  0  0  0
  -28.6493  -17.9097   21.0477 C   0  0  0  0  0  0
  -30.9068  -19.2383   20.3438 C   0  0  0  0  0  0
  -29.7951  -20.0628   20.6640 C   0  0  0  0  0  0
  -29.8190  -17.1600   20.7301 C   0  0  0  0  0  0
  -29.9638  -21.5930   20.8003 C   0  0  0  0  0  0
  -29.2570  -24.0150   20.4934 C   0  0  0  0  0  0
  -28.1396  -25.0110   19.9615 C   0  0  0  0  0  0
  -30.9203  -17.8666   20.3648 N   0  0  0  0  0  0
  -29.7393  -15.6989   20.8275 N   0  0  0  0  0  0
  -29.0448  -22.5172   20.3765 N   0  0  0  0  0  0
  -31.0179  -21.9906   21.2999 O   0  0  0  0  0  0
  -31.4848  -12.5331   19.1647 H   0  0  0  0  0  0
  -30.3682  -11.4049   19.8800 H   0  0  0  0  0  0
  -29.7907  -11.7978   17.4612 H   0  0  0  0  0  0
  -29.6621  -13.5118   17.7553 H   0  0  0  0  0  0
  -27.8563  -11.3142   18.8216 H   0  0  0  0  0  0
  -27.3891  -12.6310   17.7802 H   0  0  0  0  0  0
  -27.6704  -14.2574   19.5368 H   0  0  0  0  0  0
  -28.7115  -12.0294   21.3581 H   0  0  0  0  0  0
  -28.4393  -13.6731   21.8555 H   0  0  0  0  0  0
  -25.2752   -9.5725   22.4740 H   0  0  0  0  0  0
  -24.0021   -7.4652   22.7481 H   0  0  0  0  0  0
  -21.0831   -8.8758   19.8976 H   0  0  0  0  0  0
  -22.3657  -10.9671   19.6171 H   0  0  0  0  0  0
  -21.2021   -7.6150   23.9720 H   0  0  0  0  0  0
  -21.1480   -6.0525   25.9075 H   0  0  0  0  0  0
  -22.0596   -2.7621   23.2831 H   0  0  0  0  0  0
  -22.4061  -11.9964   22.4842 H   0  0  0  0  0  0
  -21.1076  -13.1338   22.2534 H   0  0  0  0  0  0
  -24.6495  -15.8339   20.4991 H   0  0  0  0  0  0
  -26.2519  -15.6223   20.0142 H   0  0  0  0  0  0
  -26.7177  -32.5449   23.1098 H   0  0  0  0  0  0
  -25.0085  -33.9730   25.0425 H   0  0  0  0  0  0
  -22.7120  -31.3042   21.4032 H   0  0  0  0  0  0
  -23.3753  -35.9634   23.3290 H   0  0  0  0  0  0
  -24.3581  -36.8937   22.2057 H   0  0  0  0  0  0
  -23.7249  -37.6500   23.6672 H   0  0  0  0  0  0
  -26.0846  -31.5463   20.5973 H   0  0  0  0  0  0
  -26.8414  -30.8426   21.9972 H   0  0  0  0  0  0
  -28.1058  -28.9728   21.2074 H   0  0  0  0  0  0
  -25.9705  -25.9425   18.9775 H   0  0  0  0  0  0
  -23.9677  -27.3076   19.0119 H   0  0  0  0  0  0
  -23.7425  -30.5881   19.4021 H   0  0  0  0  0  0
  -22.7507  -29.2410   19.8656 H   0  0  0  0  0  0
  -25.1287  -36.1942   25.0820 H   0  0  0  0  0  0
  -20.9975  -28.3265   24.1405 H   0  0  0  0  0  0
  -20.5691  -26.2294   23.3616 H   0  0  0  0  0  0
  -21.6652  -26.7446   22.1209 H   0  0  0  0  0  0
  -19.6928  -25.6275   21.1244 H   0  0  0  0  0  0
  -19.6693  -27.3179   20.6743 H   0  0  0  0  0  0
  -17.4217  -26.6667   21.4014 H   0  0  0  0  0  0
  -18.0327  -26.0044   22.9004 H   0  0  0  0  0  0
  -19.7947  -30.7274   24.2218 H   0  0  0  0  0  0
  -17.5027  -31.6255   24.5165 H   0  0  0  0  0  0
  -15.5359  -30.2975   23.7653 H   0  0  0  0  0  0
  -15.8677  -28.0813   22.7053 H   0  0  0  0  0  0
  -24.5853  -30.7130   25.7781 H   0  0  0  0  0  0
  -24.8939  -32.2925   26.4888 H   0  0  0  0  0  0
  -25.8021  -30.8901   27.0226 H   0  0  0  0  0  0
  -26.2935  -29.6775   24.1170 H   0  0  0  0  0  0
  -27.4046  -29.7270   25.4661 H   0  0  0  0  0  0
  -27.8787  -30.4334   23.9395 H   0  0  0  0  0  0
  -27.2639  -33.3616   26.2085 H   0  0  0  0  0  0
  -28.3845  -32.6902   25.0328 H   0  0  0  0  0  0
  -28.0714  -31.8448   26.5413 H   0  0  0  0  0  0
  -28.2581  -38.0116   24.7519 H   0  0  0  0  0  0
  -28.1083  -36.2652   24.6246 H   0  0  0  0  0  0
  -27.2299  -37.1412   25.8855 H   0  0  0  0  0  0
  -20.9365  -29.8760   21.6898 H   0  0  0  0  0  0
  -26.0163  -38.2860   24.1410 H   0  0  0  0  0  0
  -27.7361  -19.8701   21.3139 H   0  0  0  0  0  0
  -27.7444  -17.3978   21.3477 H   0  0  0  0  0  0
  -31.8525  -19.6951   20.0900 H   0  0  0  0  0  0
  -29.4284  -24.2398   21.5467 H   0  0  0  0  0  0
  -30.1915  -24.2576   19.9849 H   0  0  0  0  0  0
  -27.2048  -24.7095   20.4355 H   0  0  0  0  0  0
  -28.0200  -24.8476   18.8900 H   0  0  0  0  0  0
  -28.8349  -15.3638   21.1176 H   0  0  0  0  0  0
  -28.1976  -22.1915   19.9299 H   0  0  0  0  0  0
  1 25  1  0  0  0
  1 30  2  0  0  0
  1 80  1  0  0  0
  2  3  1  0  0  0
  2 25  1  0  0  0
  2 83  1  0  0  0
  2 84  1  0  0  0
  3  4  1  0  0  0
  3 85  1  0  0  0
  3 86  1  0  0  0
  4  5  1  0  0  0
  4 87  1  0  0  0
  4 88  1  0  0  0
  5  6  1  0  0  0
  5 26  1  0  0  0
  5 89  1  0  0  0
  6 25  1  0  0  0
  6 90  1  0  0  0
  6 91  1  0  0  0
  7  8  2  0  0  0
  7 26  1  0  0  0
  7 29  1  0  0  0
  8  9  1  0  0  0
  8 22  1  0  0  0
  9 10  1  0  0  0
  9 27  2  0  0  0
 10 11  2  0  0  0
 10 15  1  0  0  0
 11 12  1  0  0  0
 11 92  1  0  0  0
 12 13  2  0  0  0
 12 93  1  0  0  0
 13 14  1  0  0  0
 13 31  1  0  0  0
 14 15  2  0  0  0
 14 94  1  0  0  0
 15 95  1  0  0  0
 16 17  2  0  0  0
 16 21  1  0  0  0
 16 31  1  0  0  0
 17 18  1  0  0  0
 17 96  1  0  0  0
 18 19  2  0  0  0
 18 97  1  0  0  0
 19 20  1  0  0  0
 19 24  1  0  0  0
 20 21  2  0  0  0
 20 98  1  0  0  0
 21 23  1  0  0  0
 22 28  1  0  0  0
 22 32  2  0  0  0
 26 27  1  0  0  0
 28 99  1  0  0  0
 28100  1  0  0  0
 29101  1  0  0  0
 29102  1  0  0  0
 33 34  1  0  0  0
 33 66  1  0  0  0
 33 70  2  0  0  0
 34 36  1  0  0  0
 34 59  1  0  0  0
 34103  1  0  0  0
 35 44  2  0  0  0
 35 45  1  0  0  0
 35 68  1  0  0  0
 36 56  1  0  0  0
 36104  1  0  0  0
 37 39  1  0  0  0
 37 47  1  0  0  0
 37 66  1  0  0  0
 37105  1  0  0  0
 38 43  2  0  0  0
 38 46  1  0  0  0
 38 47  1  0  0  0
 39 64  1  0  0  0
 39 67  2  0  0  0
 40 52  1  0  0  0
 40 53  2  0  0  0
 40 58  1  0  0  0
 41106  1  0  0  0
 41107  1  0  0  0
 41108  1  0  0  0
 41 48  1  0  0  0
 42 43  1  0  0  0
 42 66  1  0  0  0
 42109  1  0  0  0
 42110  1  0  0  0
 43 44  1  0  0  0
 44111  1  0  0  0
 45 46  2  0  0  0
 45112  1  0  0  0
 46113  1  0  0  0
 47114  1  0  0  0
 47115  1  0  0  0
 48 56  1  0  0  0
 48 65  1  0  0  0
 48116  1  0  0  0
 49 50  1  0  0  0
 49 53  1  0  0  0
 49 64  1  0  0  0
 49117  1  0  0  0
 50 51  1  0  0  0
 50118  1  0  0  0
 50119  1  0  0  0
 51 52  1  0  0  0
 51120  1  0  0  0
 51121  1  0  0  0
 52122  1  0  0  0
 52123  1  0  0  0
 53 54  1  0  0  0
 54 55  2  0  0  0
 54124  1  0  0  0
 55 57  1  0  0  0
 55125  1  0  0  0
 56 69  2  0  0  0
 57 58  2  0  0  0
 57126  1  0  0  0
 58127  1  0  0  0
 59 60  1  0  0  0
 59 61  1  0  0  0
 59 62  1  0  0  0
 60128  1  0  0  0
 60129  1  0  0  0
 60130  1  0  0  0
 61131  1  0  0  0
 61132  1  0  0  0
 61133  1  0  0  0
 62134  1  0  0  0
 62135  1  0  0  0
 62136  1  0  0  0
 63 65  1  0  0  0
 63137  1  0  0  0
 63138  1  0  0  0
 63139  1  0  0  0
 64140  1  0  0  0
 65141  1  0  0  0
 68 78  1  0  0  0
 71 72  2  0  0  0
 71 74  1  0  0  0
 71142  1  0  0  0
 72 75  1  0  0  0
 72143  1  0  0  0
 73 74  2  0  0  0
 73 79  1  0  0  0
 73144  1  0  0  0
 74 76  1  0  0  0
 75 79  2  0  0  0
 75 80  1  0  0  0
 76 81  1  0  0  0
 76 82  2  0  0  0
 77 78  1  0  0  0
 77 81  1  0  0  0
 77145  1  0  0  0
 77146  1  0  0  0
 78147  1  0  0  0
 78148  1  0  0  0
 80149  1  0  0  0
 81150  1  0  0  0
M  ISO  4   1 100  68 101  78 101  80 100
M  END
> <chiral flag>
0

> <version>
0

> <s_m_source_file>
/data/baiqing/PycharmProjects/Reinvent-master-3.2/result/LINK_invent/BTK/process_docking_weight1_custom_sum_contain_oxygen_bond_distance_aromatic_linkinvent_7_9_3/rearranged_h_0114.sdf

> <i_m_source_file_index>
55

> <r_mmod_Potential_Energy-OPLS-2005>
-143.662307739258

> <r_mmod_Stretch_Energy-OPLS-2005>
80.82568359375

> <r_mmod_Bend_Energy-OPLS-2005>
144.426895141602

> <r_mmod_Torsional_Energy-OPLS-2005>
213.520751953125

> <r_mmod_Improper_Torsional_Energy-OPLS-2005>
5.48925399780273

> <r_mmod_Van_der_Waal_Energy-OPLS-2005>
148.701873779297

> <r_mmod_Electrostatic_Energy-OPLS-2005>
-519.663024902344

> <r_mmod_Solvation_Energy-OPLS-2005>
-269.953674316406

> <b_mmod_Minimization_Converged-OPLS-2005>
0

> <r_mmod_RMS_Derivative-OPLS-2005>
2.77162981033325

$$$$
55
                    3D
 Structure written by MMmdl.
150159  0  0  1  0            999 V2000
  -30.2442  -15.7724   20.3462 C   0  0  0  0  0  0
  -30.4199  -13.1998   19.5116 C   0  0  0  0  0  0
  -29.5553  -12.6807   18.3226 C   0  0  0  0  0  0
  -28.1412  -12.2917   18.7812 C   0  0  0  0  0  0
  -27.5902  -13.3131   19.7979 C   0  0  2  0  0  0
  -28.6043  -13.7101   20.8965 C   0  0  0  0  0  0
  -25.2301  -13.8253   20.5748 C   0  0  0  0  0  0
  -24.1716  -13.0411   20.9311 C   0  0  0  0  0  0
  -24.6434  -11.6930   20.8785 C   0  0  0  0  0  0
  -23.9134  -10.4282   21.0409 C   0  0  0  0  0  0
  -24.3661   -9.4194   21.9191 C   0  0  0  0  0  0
  -23.6316   -8.2239   22.0758 C   0  0  0  0  0  0
  -22.4297   -8.0287   21.3547 C   0  0  0  0  0  0
  -21.9950   -9.0266   20.4646 C   0  0  0  0  0  0
  -22.7300  -10.2133   20.3058 C   0  0  0  0  0  0
  -21.6858   -6.0742   22.5278 C   0  0  0  0  0  0
  -21.4017   -6.5643   23.8211 C   0  0  0  0  0  0
  -21.3660   -5.6795   24.9172 C   0  0  0  0  0  0
  -21.6044   -4.3057   24.7222 C   0  0  0  0  0  0
  -21.8818   -3.8151   23.4343 C   0  0  0  0  0  0
  -21.9194   -4.6969   22.3400 C   0  0  0  0  0  0
  -22.7727  -13.5147   21.1933 C   0  0  0  0  0  0
  -22.1661   -4.2153   21.0978 F   0  0  0  0  0  0
  -21.5627   -3.4540   25.7734 F   0  0  0  0  0  0
  -29.7390  -14.3894   20.2125 N   0  0  0  0  0  0
  -26.2771  -12.9607   20.3203 N   0  0  0  0  0  0
  -25.9383  -11.6678   20.5699 N   0  0  0  0  0  0
  -22.0390  -12.8130   22.0486 N   0  0  0  0  0  0
  -25.3811  -15.1972   20.4029 N   0  0  0  0  0  0
  -31.4899  -15.6882   20.3265 O   0  0  0  0  0  0
  -21.6648   -6.8891   21.4243 O   0  0  0  0  0  0
  -22.3407  -14.5446   20.6763 O   0  0  0  0  0  0
  -24.6937  -31.7898   23.1444 C   0  0  0  0  0  0
  -25.9473  -32.4417   23.8020 C   0  0  1  0  0  0
  -27.2266  -26.5925   20.2505 C   0  0  0  0  0  0
  -25.6015  -33.8246   24.1905 N   0  0  0  0  0  0
  -23.5239  -30.3880   21.5028 C   0  0  2  0  0  0
  -24.9793  -28.6991   20.1427 C   0  0  0  0  0  0
  -22.7810  -29.4270   22.4713 C   0  0  0  0  0  0
  -18.0351  -28.1427   22.8456 C   0  0  0  0  0  0
  -24.1497  -36.7127   23.2653 C   0  0  0  0  0  0
  -26.1099  -30.4875   21.4257 C   0  0  0  0  0  0
  -26.1735  -29.0347   20.7934 C   0  0  0  0  0  0
  -27.2829  -28.0175   20.8024 C   0  0  0  0  0  0
  -25.9965  -26.4963   19.5437 C   0  0  0  0  0  0
  -24.9344  -27.4537   19.4950 C   0  0  0  0  0  0
  -23.7852  -29.6720   20.1468 C   0  0  0  0  0  0
  -25.4150  -36.2863   24.0275 C   0  0  1  0  0  0
  -20.5988  -28.3789   23.1133 C   0  0  2  0  0  0
  -20.6812  -26.9443   22.5402 C   0  0  0  0  0  0
  -19.5782  -26.6374   21.5219 C   0  0  0  0  0  0
  -18.1970  -26.7955   22.1624 C   0  0  0  0  0  0
  -19.1618  -28.8937   23.2771 C   0  0  0  0  0  0
  -18.9520  -30.1518   23.8815 C   0  0  0  0  0  0
  -17.6508  -30.6605   24.0552 C   0  0  0  0  0  0
  -25.9135  -34.9258   23.4930 C   0  0  0  0  0  0
  -16.5397  -29.9084   23.6354 C   0  0  0  0  0  0
  -16.7330  -28.6509   23.0369 C   0  0  0  0  0  0
  -26.4616  -31.6479   25.0676 C   0  0  0  0  0  0
  -25.3656  -31.3828   26.1274 C   0  0  0  0  0  0
  -27.0558  -30.2805   24.6639 C   0  0  0  0  0  0
  -27.6048  -32.4355   25.7503 C   0  0  0  0  0  0
  -27.5561  -37.1722   24.8468 C   0  0  0  0  0  0
  -21.4449  -29.3025   22.3452 N   0  0  0  0  0  0
  -26.4266  -37.3636   23.9410 N   0  0  0  0  0  0
  -24.8008  -30.9243   22.0764 N   0  0  0  0  0  0
  -23.4206  -28.7883   23.3103 O   0  0  0  0  0  0
  -28.2210  -25.3756   20.0829 O   0  0  0  0  0  0
  -26.5781  -34.8854   22.4551 O   0  0  0  0  0  0
  -23.5934  -32.1021   23.6334 O   0  0  0  0  0  0
  -29.3060  -20.4100   20.1313 C   0  0  0  0  0  0
  -27.4826  -21.3195   21.3436 C   0  0  0  0  0  0
  -28.5219  -21.7986   20.5226 C   0  0  0  0  0  0
  -29.0999  -18.8353   20.5432 C   0  0  0  0  0  0
  -28.0114  -18.9226   21.4580 C   0  0  0  0  0  0
  -27.1858  -17.7545   23.6701 C   0  0  0  0  0  0
  -28.4043  -17.0090   23.2039 C   0  0  0  0  0  0
  -27.5166  -17.7054   22.1894 C   0  0  0  0  0  0
  -28.6961  -23.7048   20.6125 C   0  0  0  0  0  0
  -27.2748  -20.0365   21.7699 N   0  0  0  0  0  0
  -29.4801  -17.1515   20.1337 N   0  0  0  0  0  0
  -31.3899  -13.5074   19.1188 H   0  0  0  0  0  0
  -30.6399  -12.3953   20.2156 H   0  0  0  0  0  0
  -30.0420  -11.8336   17.8373 H   0  0  0  0  0  0
  -29.4836  -13.4660   17.5683 H   0  0  0  0  0  0
  -28.1994  -11.3092   19.2512 H   0  0  0  0  0  0
  -27.4711  -12.1873   17.9270 H   0  0  0  0  0  0
  -27.4289  -14.2112   19.1996 H   0  0  0  0  0  0
  -28.9115  -12.8551   21.5008 H   0  0  0  0  0  0
  -28.1377  -14.4167   21.5818 H   0  0  0  0  0  0
  -25.2798   -9.5662   22.4778 H   0  0  0  0  0  0
  -24.0009   -7.4632   22.7486 H   0  0  0  0  0  0
  -21.0879   -8.8801   19.8954 H   0  0  0  0  0  0
  -22.3764  -10.9679   19.6172 H   0  0  0  0  0  0
  -21.2011   -7.6151   23.9716 H   0  0  0  0  0  0
  -21.1482   -6.0524   25.9075 H   0  0  0  0  0  0
  -22.0597   -2.7613   23.2842 H   0  0  0  0  0  0
  -22.4029  -11.9806   22.4879 H   0  0  0  0  0  0
  -21.0999  -13.1129   22.2684 H   0  0  0  0  0  0
  -24.5875  -15.8249   20.4701 H   0  0  0  0  0  0
  -26.1849  -15.6194   19.9604 H   0  0  0  0  0  0
  -26.7563  -32.4870   23.0734 H   0  0  0  0  0  0
  -25.0076  -33.9267   25.0002 H   0  0  0  0  0  0
  -22.8554  -31.2277   21.3018 H   0  0  0  0  0  0
  -23.3776  -35.9438   23.3255 H   0  0  0  0  0  0
  -24.3567  -36.8848   22.2079 H   0  0  0  0  0  0
  -23.7241  -37.6282   23.6769 H   0  0  0  0  0  0
  -26.3186  -31.1967   20.6237 H   0  0  0  0  0  0
  -26.9598  -30.5685   22.0906 H   0  0  0  0  0  0
  -28.1990  -28.3057   21.2982 H   0  0  0  0  0  0
  -25.8255  -25.5721   19.0099 H   0  0  0  0  0  0
  -24.0407  -27.1865   18.9478 H   0  0  0  0  0  0
  -23.9773  -30.4235   19.3803 H   0  0  0  0  0  0
  -22.8871  -29.1465   19.8175 H   0  0  0  0  0  0
  -25.1364  -36.1605   25.0765 H   0  0  0  0  0  0
  -21.0066  -28.3412   24.1259 H   0  0  0  0  0  0
  -20.5672  -26.2417   23.3671 H   0  0  0  0  0  0
  -21.6673  -26.7377   22.1224 H   0  0  0  0  0  0
  -19.6937  -25.6266   21.1295 H   0  0  0  0  0  0
  -19.6723  -27.3150   20.6721 H   0  0  0  0  0  0
  -17.4240  -26.6703   21.4025 H   0  0  0  0  0  0
  -18.0350  -26.0119   22.9039 H   0  0  0  0  0  0
  -19.7995  -30.7363   24.2141 H   0  0  0  0  0  0
  -17.5055  -31.6277   24.5173 H   0  0  0  0  0  0
  -15.5391  -30.2957   23.7726 H   0  0  0  0  0  0
  -15.8732  -28.0800   22.7119 H   0  0  0  0  0  0
  -24.5878  -30.7134   25.7579 H   0  0  0  0  0  0
  -24.8806  -32.3059   26.4455 H   0  0  0  0  0  0
  -25.7818  -30.9157   27.0208 H   0  0  0  0  0  0
  -26.3294  -29.6393   24.1635 H   0  0  0  0  0  0
  -27.3952  -29.7282   25.5411 H   0  0  0  0  0  0
  -27.9287  -30.3902   24.0204 H   0  0  0  0  0  0
  -27.2582  -33.3744   26.1829 H   0  0  0  0  0  0
  -28.3993  -32.6766   25.0429 H   0  0  0  0  0  0
  -28.0561  -31.8643   26.5624 H   0  0  0  0  0  0
  -28.2539  -38.0054   24.7524 H   0  0  0  0  0  0
  -28.1095  -36.2576   24.6284 H   0  0  0  0  0  0
  -27.2278  -37.1345   25.8870 H   0  0  0  0  0  0
  -20.9777  -29.8664   21.6489 H   0  0  0  0  0  0
  -26.0078  -38.2676   24.1427 H   0  0  0  0  0  0
  -30.1424  -20.5681   19.4667 H   0  0  0  0  0  0
  -26.8116  -22.0385   21.7900 H   0  0  0  0  0  0
  -27.3463  -18.6904   24.2020 H   0  0  0  0  0  0
  -26.3457  -17.1573   24.0179 H   0  0  0  0  0  0
  -28.3617  -15.9256   23.2757 H   0  0  0  0  0  0
  -29.3751  -17.4537   23.4140 H   0  0  0  0  0  0
  -26.8879  -17.0918   21.5516 H   0  0  0  0  0  0
  -29.7655  -23.7736   20.4137 H   0  0  0  0  0  0
  -28.6351  -23.8425   21.6925 H   0  0  0  0  0  0
  -28.6136  -16.7845   19.7651 H   0  0  0  0  0  0
  1 25  1  0  0  0
  1 30  2  0  0  0
  1 81  1  0  0  0
  2  3  1  0  0  0
  2 25  1  0  0  0
  2 82  1  0  0  0
  2 83  1  0  0  0
  3  4  1  0  0  0
  3 84  1  0  0  0
  3 85  1  0  0  0
  4  5  1  0  0  0
  4 86  1  0  0  0
  4 87  1  0  0  0
  5  6  1  0  0  0
  5 26  1  0  0  0
  5 88  1  0  0  0
  6 25  1  0  0  0
  6 89  1  0  0  0
  6 90  1  0  0  0
  7  8  2  0  0  0
  7 26  1  0  0  0
  7 29  1  0  0  0
  8  9  1  0  0  0
  8 22  1  0  0  0
  9 10  1  0  0  0
  9 27  2  0  0  0
 10 11  2  0  0  0
 10 15  1  0  0  0
 11 12  1  0  0  0
 11 91  1  0  0  0
 12 13  2  0  0  0
 12 92  1  0  0  0
 13 14  1  0  0  0
 13 31  1  0  0  0
 14 15  2  0  0  0
 14 93  1  0  0  0
 15 94  1  0  0  0
 16 17  2  0  0  0
 16 21  1  0  0  0
 16 31  1  0  0  0
 17 18  1  0  0  0
 17 95  1  0  0  0
 18 19  2  0  0  0
 18 96  1  0  0  0
 19 20  1  0  0  0
 19 24  1  0  0  0
 20 21  2  0  0  0
 20 97  1  0  0  0
 21 23  1  0  0  0
 22 28  1  0  0  0
 22 32  2  0  0  0
 26 27  1  0  0  0
 28 98  1  0  0  0
 28 99  1  0  0  0
 29100  1  0  0  0
 29101  1  0  0  0
 33 34  1  0  0  0
 33 66  1  0  0  0
 33 70  2  0  0  0
 34 36  1  0  0  0
 34 59  1  0  0  0
 34102  1  0  0  0
 35 44  2  0  0  0
 35 45  1  0  0  0
 35 68  1  0  0  0
 36 56  1  0  0  0
 36103  1  0  0  0
 37 39  1  0  0  0
 37 47  1  0  0  0
 37 66  1  0  0  0
 37104  1  0  0  0
 38 43  2  0  0  0
 38 46  1  0  0  0
 38 47  1  0  0  0
 39 64  1  0  0  0
 39 67  2  0  0  0
 40 52  1  0  0  0
 40 53  2  0  0  0
 40 58  1  0  0  0
 41105  1  0  0  0
 41106  1  0  0  0
 41107  1  0  0  0
 41 48  1  0  0  0
 42 43  1  0  0  0
 42 66  1  0  0  0
 42108  1  0  0  0
 42109  1  0  0  0
 43 44  1  0  0  0
 44110  1  0  0  0
 45 46  2  0  0  0
 45111  1  0  0  0
 46112  1  0  0  0
 47113  1  0  0  0
 47114  1  0  0  0
 48 56  1  0  0  0
 48 65  1  0  0  0
 48115  1  0  0  0
 49 50  1  0  0  0
 49 53  1  0  0  0
 49 64  1  0  0  0
 49116  1  0  0  0
 50 51  1  0  0  0
 50117  1  0  0  0
 50118  1  0  0  0
 51 52  1  0  0  0
 51119  1  0  0  0
 51120  1  0  0  0
 52121  1  0  0  0
 52122  1  0  0  0
 53 54  1  0  0  0
 54 55  2  0  0  0
 54123  1  0  0  0
 55 57  1  0  0  0
 55124  1  0  0  0
 56 69  2  0  0  0
 57 58  2  0  0  0
 57125  1  0  0  0
 58126  1  0  0  0
 59 60  1  0  0  0
 59 61  1  0  0  0
 59 62  1  0  0  0
 60127  1  0  0  0
 60128  1  0  0  0
 60129  1  0  0  0
 61130  1  0  0  0
 61131  1  0  0  0
 61132  1  0  0  0
 62133  1  0  0  0
 62134  1  0  0  0
 62135  1  0  0  0
 63 65  1  0  0  0
 63136  1  0  0  0
 63137  1  0  0  0
 63138  1  0  0  0
 64139  1  0  0  0
 65140  1  0  0  0
 68 79  1  0  0  0
 71 73  2  0  0  0
 71 74  1  0  0  0
 71141  1  0  0  0
 72 73  1  0  0  0
 72 80  2  0  0  0
 72142  1  0  0  0
 73 79  1  0  0  0
 74 75  2  0  0  0
 74 81  1  0  0  0
 75 80  1  0  0  0
 75 78  1  0  0  0
 76 77  1  0  0  0
 76 78  1  0  0  0
 76143  1  0  0  0
 76144  1  0  0  0
 77 78  1  0  0  0
 77145  1  0  0  0
 77146  1  0  0  0
 78147  1  0  0  0
 79148  1  0  0  0
 79149  1  0  0  0
 81150  1  0  0  0
M  ISO  4   1 100  68 101  79 101  81 100
M  END
> <chiral flag>
0

> <version>
0

> <s_m_source_file>
/data/baiqing/PycharmProjects/Reinvent-master-3.2/result/LINK_invent/BTK/process_docking_weight1_custom_sum_contain_oxygen_bond_distance_aromatic_linkinvent_7_9_3/rearranged_h_0114.sdf

> <i_m_source_file_index>
56

> <r_mmod_Potential_Energy-OPLS-2005>
3014.03955078125

> <r_mmod_Stretch_Energy-OPLS-2005>
1262.33715820312

> <r_mmod_Bend_Energy-OPLS-2005>
881.669555664062

> <r_mmod_Torsional_Energy-OPLS-2005>
334.531585693359

> <r_mmod_Improper_Torsional_Energy-OPLS-2005>
22.5965671539307

> <r_mmod_Van_der_Waal_Energy-OPLS-2005>
121.672859191895

> <r_mmod_Electrostatic_Energy-OPLS-2005>
-503.699188232422

> <r_mmod_Solvation_Energy-OPLS-2005>
-222.411437988281

> <b_mmod_Minimization_Converged-OPLS-2005>
0

> <r_mmod_RMS_Derivative-OPLS-2005>
0.606140494346619

$$$$
56
                    3D
 Structure written by MMmdl.
171180  0  0  1  0            999 V2000
  -30.6339  -14.7702   20.4714 C   0  0  0  0  0  0
  -30.4149  -12.4791   19.4700 C   0  0  0  0  0  0
  -29.4975  -12.5012   18.2307 C   0  0  0  0  0  0
  -28.0280  -12.3201   18.6516 C   0  0  0  0  0  0
  -27.6301  -13.2381   19.8387 C   0  0  2  0  0  0
  -28.6750  -13.2152   20.9738 C   0  0  0  0  0  0
  -25.2462  -13.8215   20.5700 C   0  0  0  0  0  0
  -24.1775  -13.0444   20.9221 C   0  0  0  0  0  0
  -24.6377  -11.6925   20.8758 C   0  0  0  0  0  0
  -23.9069  -10.4295   21.0414 C   0  0  0  0  0  0
  -24.3623   -9.4208   21.9187 C   0  0  0  0  0  0
  -23.6300   -8.2245   22.0756 C   0  0  0  0  0  0
  -22.4280   -8.0284   21.3548 C   0  0  0  0  0  0
  -21.9918   -9.0255   20.4646 C   0  0  0  0  0  0
  -22.7248  -10.2135   20.3056 C   0  0  0  0  0  0
  -21.6855   -6.0740   22.5283 C   0  0  0  0  0  0
  -21.4015   -6.5643   23.8213 C   0  0  0  0  0  0
  -21.3655   -5.6797   24.9179 C   0  0  0  0  0  0
  -21.6043   -4.3062   24.7229 C   0  0  0  0  0  0
  -21.8819   -3.8152   23.4349 C   0  0  0  0  0  0
  -21.9191   -4.6968   22.3407 C   0  0  0  0  0  0
  -22.7798  -13.5213   21.1885 C   0  0  0  0  0  0
  -22.1661   -4.2154   21.0984 F   0  0  0  0  0  0
  -21.5624   -3.4542   25.7740 F   0  0  0  0  0  0
  -29.9648  -13.5671   20.3741 N   0  0  0  0  0  0
  -26.2877  -12.9429   20.3251 N   0  0  0  0  0  0
  -25.9303  -11.6567   20.5752 N   0  0  0  0  0  0
  -22.0452  -12.8189   22.0435 N   0  0  0  0  0  0
  -25.4128  -15.1942   20.4125 N   0  0  0  0  0  0
  -31.8243  -14.8016   20.1426 O   0  0  0  0  0  0
  -21.6642   -6.8884   21.4246 O   0  0  0  0  0  0
  -22.3481  -14.5521   20.6742 O   0  0  0  0  0  0
  -24.6328  -31.8529   23.1936 C   0  0  0  0  0  0
  -25.9153  -32.4720   23.8287 C   0  0  1  0  0  0
  -27.2127  -27.2374   20.1472 C   0  0  0  0  0  0
  -25.5947  -33.8529   24.2213 N   0  0  0  0  0  0
  -23.4295  -30.4727   21.5379 C   0  0  2  0  0  0
  -24.8778  -28.9127   20.1096 C   0  0  0  0  0  0
  -22.7509  -29.4581   22.4894 C   0  0  0  0  0  0
  -18.0300  -28.1388   22.8466 C   0  0  0  0  0  0
  -24.1504  -36.7272   23.2640 C   0  0  0  0  0  0
  -25.9760  -30.7589   21.3763 C   0  0  0  0  0  0
  -26.0478  -29.3785   20.7221 C   0  0  0  0  0  0
  -27.2201  -28.5540   20.7256 C   0  0  0  0  0  0
  -26.0305  -26.8493   19.4875 C   0  0  0  0  0  0
  -24.8748  -27.6582   19.4792 C   0  0  0  0  0  0
  -23.6491  -29.8029   20.1552 C   0  0  0  0  0  0
  -25.4125  -36.3035   24.0312 C   0  0  1  0  0  0
  -20.5901  -28.3696   23.1266 C   0  0  2  0  0  0
  -20.6792  -26.9409   22.5412 C   0  0  0  0  0  0
  -19.5766  -26.6378   21.5217 C   0  0  0  0  0  0
  -18.1940  -26.7928   22.1613 C   0  0  0  0  0  0
  -19.1550  -28.8860   23.2858 C   0  0  0  0  0  0
  -18.9474  -30.1460   23.8871 C   0  0  0  0  0  0
  -17.6473  -30.6583   24.0564 C   0  0  0  0  0  0
  -25.9075  -34.9417   23.5064 C   0  0  0  0  0  0
  -16.5364  -29.9079   23.6344 C   0  0  0  0  0  0
  -16.7290  -28.6511   23.0337 C   0  0  0  0  0  0
  -26.4507  -31.6555   25.0694 C   0  0  0  0  0  0
  -25.3708  -31.3725   26.1401 C   0  0  0  0  0  0
  -27.0369  -30.2966   24.6203 C   0  0  0  0  0  0
  -27.6047  -32.4318   25.7465 C   0  0  0  0  0  0
  -27.5577  -37.1771   24.8452 C   0  0  0  0  0  0
  -21.4219  -29.3030   22.3644 N   0  0  0  0  0  0
  -26.4283  -37.3742   23.9409 N   0  0  0  0  0  0
  -24.6986  -31.0474   22.0921 N   0  0  0  0  0  0
  -23.4199  -28.8137   23.3010 O   0  0  0  0  0  0
  -28.3032  -26.3320   20.1800 O   0  0  0  0  0  0
  -26.5652  -34.8896   22.4636 O   0  0  0  0  0  0
  -23.5475  -32.1378   23.7215 O   0  0  0  0  0  0
  -31.5714  -16.9375   22.2335 C   0  0  0  0  0  0
  -30.8374  -19.6101   21.9790 C   0  0  0  0  0  0
  -32.2748  -17.8979   22.9781 C   0  0  0  0  0  0
  -30.1203  -18.6648   21.2010 C   0  0  0  0  0  0
  -31.8792  -19.2379   22.8359 C   0  0  0  0  0  0
  -30.5127  -17.2266   21.3224 C   0  0  0  0  0  0
  -33.3488  -17.8983   23.9271 C   0  0  0  0  0  0
  -33.5593  -16.2146   25.7875 C   0  0  0  0  0  0
  -26.9267  -24.7194   21.6032 C   0  0  0  0  0  0
  -32.7484  -21.3476   23.9865 C   0  0  0  0  0  0
  -28.9848  -19.3833   20.3565 C   0  0  0  0  0  0
  -34.1038  -16.7091   24.4422 C   0  0  0  0  0  0
  -29.1167  -20.9467   19.8302 C   0  0  0  0  0  0
  -28.5643  -23.5765   19.9174 C   0  0  0  0  0  0
  -28.2068  -24.9280   20.7705 C   0  0  1  0  0  0
  -33.5981  -19.1170   24.3477 N   0  0  0  0  0  0
  -32.7168  -19.9274   23.7018 N   0  0  0  0  0  0
  -29.9532  -15.9734   20.7273 N   0  0  0  0  0  0
  -28.6520  -22.1914   20.6300 N   0  3  0  0  0  0
  -31.4562  -12.5880   19.1637 H   0  0  0  0  0  0
  -30.3554  -11.5141   19.9765 H   0  0  0  0  0  0
  -29.7840  -11.7139   17.5322 H   0  0  0  0  0  0
  -29.6171  -13.4450   17.6963 H   0  0  0  0  0  0
  -27.8952  -11.2753   18.9336 H   0  0  0  0  0  0
  -27.3662  -12.4904   17.8008 H   0  0  0  0  0  0
  -27.6102  -14.2506   19.4342 H   0  0  0  0  0  0
  -28.7222  -12.2332   21.4471 H   0  0  0  0  0  0
  -28.4057  -13.9253   21.7579 H   0  0  0  0  0  0
  -25.2765   -9.5689   22.4767 H   0  0  0  0  0  0
  -24.0010   -7.4636   22.7472 H   0  0  0  0  0  0
  -21.0850   -8.8779   19.8946 H   0  0  0  0  0  0
  -22.3709  -10.9680   19.6165 H   0  0  0  0  0  0
  -21.2011   -7.6148   23.9722 H   0  0  0  0  0  0
  -21.1474   -6.0525   25.9080 H   0  0  0  0  0  0
  -22.0598   -2.7614   23.2851 H   0  0  0  0  0  0
  -22.4079  -11.9846   22.4806 H   0  0  0  0  0  0
  -21.1068  -13.1200   22.2655 H   0  0  0  0  0  0
  -24.6411  -15.8429   20.5205 H   0  0  0  0  0  0
  -26.2557  -15.6388   20.0734 H   0  0  0  0  0  0
  -26.7211  -32.5375   23.1026 H   0  0  0  0  0  0
  -25.0092  -33.9663   25.0354 H   0  0  0  0  0  0
  -22.7259  -31.2952   21.3879 H   0  0  0  0  0  0
  -23.3752  -35.9615   23.3291 H   0  0  0  0  0  0
  -24.3607  -36.8925   22.2058 H   0  0  0  0  0  0
  -23.7271  -37.6472   23.6695 H   0  0  0  0  0  0
  -26.1165  -31.5165   20.6040 H   0  0  0  0  0  0
  -26.8515  -30.8084   22.0115 H   0  0  0  0  0  0
  -28.1173  -28.9045   21.2148 H   0  0  0  0  0  0
  -25.9888  -25.8889   18.9939 H   0  0  0  0  0  0
  -23.9809  -27.3006   18.9881 H   0  0  0  0  0  0
  -23.7739  -30.5796   19.3991 H   0  0  0  0  0  0
  -22.7658  -29.2381   19.8501 H   0  0  0  0  0  0
  -25.1301  -36.1860   25.0795 H   0  0  0  0  0  0
  -20.9983  -28.3287   24.1392 H   0  0  0  0  0  0
  -20.5705  -26.2302   23.3617 H   0  0  0  0  0  0
  -21.6656  -26.7447   22.1182 H   0  0  0  0  0  0
  -19.6939  -25.6292   21.1245 H   0  0  0  0  0  0
  -19.6712  -27.3187   20.6742 H   0  0  0  0  0  0
  -17.4212  -26.6683   21.4010 H   0  0  0  0  0  0
  -18.0331  -26.0066   22.9002 H   0  0  0  0  0  0
  -19.7950  -30.7288   24.2205 H   0  0  0  0  0  0
  -17.5031  -31.6258   24.5176 H   0  0  0  0  0  0
  -15.5363  -30.2966   23.7689 H   0  0  0  0  0  0
  -15.8693  -28.0841   22.7033 H   0  0  0  0  0  0
  -24.5906  -30.7043   25.7734 H   0  0  0  0  0  0
  -24.8863  -32.2898   26.4759 H   0  0  0  0  0  0
  -25.7992  -30.8957   27.0220 H   0  0  0  0  0  0
  -26.2963  -29.6683   24.1239 H   0  0  0  0  0  0
  -27.4063  -29.7262   25.4736 H   0  0  0  0  0  0
  -27.8827  -30.4239   23.9440 H   0  0  0  0  0  0
  -27.2659  -33.3652   26.1972 H   0  0  0  0  0  0
  -28.3881  -32.6822   25.0298 H   0  0  0  0  0  0
  -28.0685  -31.8486   26.5434 H   0  0  0  0  0  0
  -28.2533  -38.0122   24.7547 H   0  0  0  0  0  0
  -28.1122  -36.2646   24.6210 H   0  0  0  0  0  0
  -27.2308  -37.1349   25.8856 H   0  0  0  0  0  0
  -20.9416  -29.8764   21.6848 H   0  0  0  0  0  0
  -26.0148  -38.2798   24.1447 H   0  0  0  0  0  0
  -31.8947  -15.9255   22.4203 H   0  0  0  0  0  0
  -30.5958  -20.6583   21.9547 H   0  0  0  0  0  0
  -34.1092  -15.3388   26.1321 H   0  0  0  0  0  0
  -32.5072  -15.9375   25.7064 H   0  0  0  0  0  0
  -33.6440  -16.9856   26.5539 H   0  0  0  0  0  0
  -27.0124  -23.8403   22.2406 H   0  0  0  0  0  0
  -26.0510  -24.5720   20.9735 H   0  0  0  0  0  0
  -26.7366  -25.5651   22.2655 H   0  0  0  0  0  0
  -31.7507  -21.7717   23.8780 H   0  0  0  0  0  0
  -33.4254  -21.8485   23.2945 H   0  0  0  0  0  0
  -33.0881  -21.5217   25.0084 H   0  0  0  0  0  0
  -28.0459  -19.2731   20.8998 H   0  0  0  0  0  0
  -28.8633  -18.7629   19.4679 H   0  0  0  0  0  0
  -35.1623  -16.9501   24.5470 H   0  0  0  0  0  0
  -34.0599  -15.8953   23.7176 H   0  0  0  0  0  0
  -28.5107  -20.9888   18.9242 H   0  0  0  0  0  0
  -30.1365  -21.1150   19.4827 H   0  0  0  0  0  0
  -29.5249  -23.7445   19.4299 H   0  0  0  0  0  0
  -27.8386  -23.4855   19.1086 H   0  0  0  0  0  0
  -29.0017  -24.9693   21.5155 H   0  0  0  0  0  0
  -28.9471  -15.9282   20.6652 H   0  0  0  0  0  0
  -29.2568  -22.2904   21.4289 H   0  0  0  0  0  0
  -27.7338  -21.9793   20.9888 H   0  0  0  0  0  0
  1 25  1  0  0  0
  1 30  2  0  0  0
  1 88  1  0  0  0
  2  3  1  0  0  0
  2 25  1  0  0  0
  2 90  1  0  0  0
  2 91  1  0  0  0
  3  4  1  0  0  0
  3 92  1  0  0  0
  3 93  1  0  0  0
  4  5  1  0  0  0
  4 94  1  0  0  0
  4 95  1  0  0  0
  5  6  1  0  0  0
  5 26  1  0  0  0
  5 96  1  0  0  0
  6 25  1  0  0  0
  6 97  1  0  0  0
  6 98  1  0  0  0
  7  8  2  0  0  0
  7 26  1  0  0  0
  7 29  1  0  0  0
  8  9  1  0  0  0
  8 22  1  0  0  0
  9 10  1  0  0  0
  9 27  2  0  0  0
 10 11  2  0  0  0
 10 15  1  0  0  0
 11 12  1  0  0  0
 11 99  1  0  0  0
 12 13  2  0  0  0
 12100  1  0  0  0
 13 14  1  0  0  0
 13 31  1  0  0  0
 14 15  2  0  0  0
 14101  1  0  0  0
 15102  1  0  0  0
 16 17  2  0  0  0
 16 21  1  0  0  0
 16 31  1  0  0  0
 17 18  1  0  0  0
 17103  1  0  0  0
 18 19  2  0  0  0
 18104  1  0  0  0
 19 20  1  0  0  0
 19 24  1  0  0  0
 20 21  2  0  0  0
 20105  1  0  0  0
 21 23  1  0  0  0
 22 28  1  0  0  0
 22 32  2  0  0  0
 26 27  1  0  0  0
 28106  1  0  0  0
 28107  1  0  0  0
 29108  1  0  0  0
 29109  1  0  0  0
 33 34  1  0  0  0
 33 66  1  0  0  0
 33 70  2  0  0  0
 34 36  1  0  0  0
 34 59  1  0  0  0
 34110  1  0  0  0
 35 44  2  0  0  0
 35 45  1  0  0  0
 35 68  1  0  0  0
 36 56  1  0  0  0
 36111  1  0  0  0
 37 39  1  0  0  0
 37 47  1  0  0  0
 37 66  1  0  0  0
 37112  1  0  0  0
 38 43  2  0  0  0
 38 46  1  0  0  0
 38 47  1  0  0  0
 39 64  1  0  0  0
 39 67  2  0  0  0
 40 52  1  0  0  0
 40 53  2  0  0  0
 40 58  1  0  0  0
 41113  1  0  0  0
 41114  1  0  0  0
 41115  1  0  0  0
 41 48  1  0  0  0
 42 43  1  0  0  0
 42 66  1  0  0  0
 42116  1  0  0  0
 42117  1  0  0  0
 43 44  1  0  0  0
 44118  1  0  0  0
 45 46  2  0  0  0
 45119  1  0  0  0
 46120  1  0  0  0
 47121  1  0  0  0
 47122  1  0  0  0
 48 56  1  0  0  0
 48 65  1  0  0  0
 48123  1  0  0  0
 49 50  1  0  0  0
 49 53  1  0  0  0
 49 64  1  0  0  0
 49124  1  0  0  0
 50 51  1  0  0  0
 50125  1  0  0  0
 50126  1  0  0  0
 51 52  1  0  0  0
 51127  1  0  0  0
 51128  1  0  0  0
 52129  1  0  0  0
 52130  1  0  0  0
 53 54  1  0  0  0
 54 55  2  0  0  0
 54131  1  0  0  0
 55 57  1  0  0  0
 55132  1  0  0  0
 56 69  2  0  0  0
 57 58  2  0  0  0
 57133  1  0  0  0
 58134  1  0  0  0
 59 60  1  0  0  0
 59 61  1  0  0  0
 59 62  1  0  0  0
 60135  1  0  0  0
 60136  1  0  0  0
 60137  1  0  0  0
 61138  1  0  0  0
 61139  1  0  0  0
 61140  1  0  0  0
 62141  1  0  0  0
 62142  1  0  0  0
 62143  1  0  0  0
 63 65  1  0  0  0
 63144  1  0  0  0
 63145  1  0  0  0
 63146  1  0  0  0
 64147  1  0  0  0
 65148  1  0  0  0
 68 85  1  0  0  0
 71 73  2  0  0  0
 71 76  1  0  0  0
 71149  1  0  0  0
 72 74  1  0  0  0
 72 75  2  0  0  0
 72150  1  0  0  0
 73 75  1  0  0  0
 73 77  1  0  0  0
 74 76  2  0  0  0
 74 81  1  0  0  0
 75 87  1  0  0  0
 76 88  1  0  0  0
 77 82  1  0  0  0
 77 86  2  0  0  0
 78 82  1  0  0  0
 78151  1  0  0  0
 78152  1  0  0  0
 78153  1  0  0  0
 79154  1  0  0  0
 79155  1  0  0  0
 79156  1  0  0  0
 79 85  1  0  0  0
 80 87  1  0  0  0
 80157  1  0  0  0
 80158  1  0  0  0
 80159  1  0  0  0
 81 83  1  0  0  0
 81160  1  0  0  0
 81161  1  0  0  0
 82162  1  0  0  0
 82163  1  0  0  0
 83 89  1  0  0  0
 83164  1  0  0  0
 83165  1  0  0  0
 84 85  1  0  0  0
 84 89  1  0  0  0
 84166  1  0  0  0
 84167  1  0  0  0
 85168  1  0  0  0
 86 87  1  0  0  0
 88169  1  0  0  0
 89170  1  0  0  0
 89171  1  0  0  0
M  CHG  1  89   1
M  ISO  4   1 100  68 101  85 101  88 100
M  END
> <chiral flag>
0

> <version>
0

> <s_m_source_file>
/data/baiqing/PycharmProjects/Reinvent-master-3.2/result/LINK_invent/BTK/process_docking_weight1_custom_sum_contain_oxygen_bond_distance_aromatic_linkinvent_7_9_3/rearranged_h_0114.sdf

> <i_m_source_file_index>
57

> <r_mmod_Potential_Energy-OPLS-2005>
144.784606933594

> <r_mmod_Stretch_Energy-OPLS-2005>
167.323822021484

> <r_mmod_Bend_Energy-OPLS-2005>
237.535736083984

> <r_mmod_Torsional_Energy-OPLS-2005>
261.856292724609

> <r_mmod_Improper_Torsional_Energy-OPLS-2005>
4.85773801803589

> <r_mmod_Van_der_Waal_Energy-OPLS-2005>
136.587936401367

> <r_mmod_Electrostatic_Energy-OPLS-2005>
-273.972625732422

> <r_mmod_Solvation_Energy-OPLS-2005>
-488.5791015625

> <b_mmod_Minimization_Converged-OPLS-2005>
0

> <r_mmod_RMS_Derivative-OPLS-2005>
1.70335936546326

$$$$
57
                    3D
 Structure written by MMmdl.
176184  0  0  1  0            999 V2000
  -30.7041  -14.4505   20.6650 C   0  0  0  0  0  0
  -30.4453  -12.3300   19.4182 C   0  0  0  0  0  0
  -29.5004  -12.4886   18.2077 C   0  0  0  0  0  0
  -28.0321  -12.3137   18.6415 C   0  0  0  0  0  0
  -27.6668  -13.1876   19.8694 C   0  0  2  0  0  0
  -28.6960  -12.9671   20.9948 C   0  0  0  0  0  0
  -25.2616  -13.8134   20.5644 C   0  0  0  0  0  0
  -24.1852  -13.0424   20.9113 C   0  0  0  0  0  0
  -24.6394  -11.6880   20.8722 C   0  0  0  0  0  0
  -23.9088  -10.4280   21.0452 C   0  0  0  0  0  0
  -24.3634   -9.4175   21.9222 C   0  0  0  0  0  0
  -23.6269   -8.2239   22.0791 C   0  0  0  0  0  0
  -22.4236   -8.0305   21.3592 C   0  0  0  0  0  0
  -21.9893   -9.0306   20.4690 C   0  0  0  0  0  0
  -22.7256  -10.2149   20.3100 C   0  0  0  0  0  0
  -21.6841   -6.0733   22.5325 C   0  0  0  0  0  0
  -21.3998   -6.5640   23.8229 C   0  0  0  0  0  0
  -21.3644   -5.6786   24.9214 C   0  0  0  0  0  0
  -21.6041   -4.3056   24.7245 C   0  0  0  0  0  0
  -21.8800   -3.8131   23.4371 C   0  0  0  0  0  0
  -21.9166   -4.6967   22.3428 C   0  0  0  0  0  0
  -22.7895  -13.5285   21.1753 C   0  0  0  0  0  0
  -22.1653   -4.2144   21.1000 F   0  0  0  0  0  0
  -21.5619   -3.4531   25.7757 F   0  0  0  0  0  0
  -30.0312  -13.2904   20.4500 N   0  0  0  0  0  0
  -26.3036  -12.9273   20.3298 N   0  0  0  0  0  0
  -25.9294  -11.6445   20.5736 N   0  0  0  0  0  0
  -22.0502  -12.8376   22.0367 N   0  0  0  0  0  0
  -25.4275  -15.1856   20.4104 N   0  0  0  0  0  0
  -31.8114  -14.6920   20.1756 O   0  0  0  0  0  0
  -21.6606   -6.8906   21.4276 O   0  0  0  0  0  0
  -22.3626  -14.5618   20.6606 O   0  0  0  0  0  0
  -24.6193  -31.8727   23.2043 C   0  0  0  0  0  0
  -25.9083  -32.4859   23.8348 C   0  0  1  0  0  0
  -27.2303  -27.4215   20.0760 C   0  0  0  0  0  0
  -25.5911  -33.8637   24.2342 N   0  0  0  0  0  0
  -23.4098  -30.4971   21.5496 C   0  0  2  0  0  0
  -24.8478  -28.9647   20.1102 C   0  0  0  0  0  0
  -22.7428  -29.4739   22.4996 C   0  0  0  0  0  0
  -18.0306  -28.1368   22.8509 C   0  0  0  0  0  0
  -24.1489  -36.7322   23.2639 C   0  0  0  0  0  0
  -25.9411  -30.8241   21.3696 C   0  0  0  0  0  0
  -26.0087  -29.4609   20.7126 C   0  0  0  0  0  0
  -27.1985  -28.6930   20.6969 C   0  0  0  0  0  0
  -26.0467  -26.9538   19.4521 C   0  0  0  0  0  0
  -24.8618  -27.7104   19.4798 C   0  0  0  0  0  0
  -23.6118  -29.8334   20.1646 C   0  0  0  0  0  0
  -25.4097  -36.3164   24.0381 C   0  0  1  0  0  0
  -20.5892  -28.3691   23.1289 C   0  0  2  0  0  0
  -20.6775  -26.9420   22.5407 C   0  0  0  0  0  0
  -19.5773  -26.6375   21.5202 C   0  0  0  0  0  0
  -18.1959  -26.7925   22.1626 C   0  0  0  0  0  0
  -19.1555  -28.8842   23.2908 C   0  0  0  0  0  0
  -18.9472  -30.1444   23.8933 C   0  0  0  0  0  0
  -17.6479  -30.6572   24.0583 C   0  0  0  0  0  0
  -25.9026  -34.9514   23.5174 C   0  0  0  0  0  0
  -16.5370  -29.9089   23.6324 C   0  0  0  0  0  0
  -16.7300  -28.6497   23.0350 C   0  0  0  0  0  0
  -26.4457  -31.6602   25.0665 C   0  0  0  0  0  0
  -25.3660  -31.3749   26.1367 C   0  0  0  0  0  0
  -27.0252  -30.3029   24.6069 C   0  0  0  0  0  0
  -27.6109  -32.4226   25.7386 C   0  0  0  0  0  0
  -27.5614  -37.1806   24.8473 C   0  0  0  0  0  0
  -21.4166  -29.3058   22.3682 N   0  0  0  0  0  0
  -26.4335  -37.3802   23.9408 N   0  0  0  0  0  0
  -24.6758  -31.0788   22.1000 N   0  0  0  0  0  0
  -23.4159  -28.8323   23.3100 O   0  0  0  0  0  0
  -28.4021  -26.6815   20.0899 O   0  0  0  0  0  0
  -26.5586  -34.9002   22.4735 O   0  0  0  0  0  0
  -23.5380  -32.1487   23.7434 O   0  0  0  0  0  0
  -32.3547  -19.3619   20.1300 C   0  0  0  0  0  0
  -31.3008  -19.8057   19.3239 C   0  0  0  0  0  0
  -32.1484  -18.2920   21.0237 C   0  0  0  0  0  0
  -30.0512  -19.1647   19.4079 C   0  0  0  0  0  0
  -30.8643  -17.6908   21.0437 C   0  0  0  0  0  0
  -33.1436  -18.4864   23.3349 C   0  0  0  0  0  0
  -34.6907  -18.0931   21.3776 C   0  0  0  0  0  0
  -29.3581  -19.7274   17.0465 C   0  0  0  0  0  0
  -27.7312  -18.6017   18.4997 C   0  0  0  0  0  0
  -30.4992  -16.5731   22.0231 C   0  0  0  0  0  0
  -29.6428  -24.5304   19.9779 C   0  0  0  0  0  0
  -29.0896  -22.3495   18.7611 C   0  0  0  0  0  0
  -28.3233  -25.2928   19.7183 C   0  0  0  0  0  0
  -33.2830  -17.8364   21.9464 C   0  0  0  0  0  0
  -28.2929  -21.0271   19.0097 C   0  0  1  0  0  0
  -28.8804  -19.6504   18.5198 C   0  0  0  0  0  0
  -29.8467  -18.1255   20.2603 N   0  0  0  0  0  0
  -30.0369  -15.3274   21.4234 N   0  0  0  0  0  0
  -29.4755  -23.0436   20.0217 N   0  3  0  0  0  0
  -27.9237  -20.9657   20.2934 F   0  0  0  0  0  0
  -31.4814  -12.4711   19.1013 H   0  0  0  0  0  0
  -30.4036  -11.3213   19.8294 H   0  0  0  0  0  0
  -29.7590  -11.7590   17.4382 H   0  0  0  0  0  0
  -29.6346  -13.4694   17.7503 H   0  0  0  0  0  0
  -27.8910  -11.2612   18.8965 H   0  0  0  0  0  0
  -27.3663  -12.5251   17.8054 H   0  0  0  0  0  0
  -27.7199  -14.2307   19.5578 H   0  0  0  0  0  0
  -28.6844  -11.9303   21.3303 H   0  0  0  0  0  0
  -28.4194  -13.5492   21.8742 H   0  0  0  0  0  0
  -25.2807   -9.5567   22.4776 H   0  0  0  0  0  0
  -23.9931   -7.4602   22.7514 H   0  0  0  0  0  0
  -21.0812   -8.8905   19.9003 H   0  0  0  0  0  0
  -22.3819  -10.9720   19.6193 H   0  0  0  0  0  0
  -21.2017   -7.6135   23.9758 H   0  0  0  0  0  0
  -21.1477   -6.0514   25.9120 H   0  0  0  0  0  0
  -22.0573   -2.7596   23.2892 H   0  0  0  0  0  0
  -22.4115  -12.0074   22.4830 H   0  0  0  0  0  0
  -21.1157  -13.1543   22.2578 H   0  0  0  0  0  0
  -24.6479  -15.8238   20.5228 H   0  0  0  0  0  0
  -26.2784  -15.6487   20.1177 H   0  0  0  0  0  0
  -26.7154  -32.5586   23.1105 H   0  0  0  0  0  0
  -25.0042  -33.9747   25.0480 H   0  0  0  0  0  0
  -22.7109  -31.3241   21.4106 H   0  0  0  0  0  0
  -23.3796  -35.9615   23.3324 H   0  0  0  0  0  0
  -24.3627  -36.8868   22.2051 H   0  0  0  0  0  0
  -23.7160  -37.6515   23.6600 H   0  0  0  0  0  0
  -26.0624  -31.5938   20.6059 H   0  0  0  0  0  0
  -26.8236  -30.8727   21.9938 H   0  0  0  0  0  0
  -28.0937  -29.0679   21.1716 H   0  0  0  0  0  0
  -26.0099  -26.0140   18.9192 H   0  0  0  0  0  0
  -23.9725  -27.3307   18.9950 H   0  0  0  0  0  0
  -23.7208  -30.6081   19.4063 H   0  0  0  0  0  0
  -22.7296  -29.2594   19.8753 H   0  0  0  0  0  0
  -25.1266  -36.2113   25.0882 H   0  0  0  0  0  0
  -21.0008  -28.3257   24.1397 H   0  0  0  0  0  0
  -20.5662  -26.2322   23.3605 H   0  0  0  0  0  0
  -21.6654  -26.7426   22.1229 H   0  0  0  0  0  0
  -19.6954  -25.6278   21.1263 H   0  0  0  0  0  0
  -19.6703  -27.3169   20.6713 H   0  0  0  0  0  0
  -17.4199  -26.6685   21.4041 H   0  0  0  0  0  0
  -18.0358  -26.0059   22.9013 H   0  0  0  0  0  0
  -19.7947  -30.7254   24.2287 H   0  0  0  0  0  0
  -17.5034  -31.6261   24.5162 H   0  0  0  0  0  0
  -15.5385  -30.2995   23.7577 H   0  0  0  0  0  0
  -15.8704  -28.0807   22.7027 H   0  0  0  0  0  0
  -24.5871  -30.7078   25.7662 H   0  0  0  0  0  0
  -24.8772  -32.2909   26.4711 H   0  0  0  0  0  0
  -25.7903  -30.8945   27.0186 H   0  0  0  0  0  0
  -26.2787  -29.6794   24.1129 H   0  0  0  0  0  0
  -27.4028  -29.7276   25.4538 H   0  0  0  0  0  0
  -27.8649  -30.4357   23.9233 H   0  0  0  0  0  0
  -27.2867  -33.3554   26.2020 H   0  0  0  0  0  0
  -28.3854  -32.6687   25.0105 H   0  0  0  0  0  0
  -28.0863  -31.8262   26.5191 H   0  0  0  0  0  0
  -28.2630  -38.0097   24.7526 H   0  0  0  0  0  0
  -28.1121  -36.2644   24.6297 H   0  0  0  0  0  0
  -27.2381  -37.1440   25.8887 H   0  0  0  0  0  0
  -20.9352  -29.8734   21.6841 H   0  0  0  0  0  0
  -26.0308  -38.2945   24.1283 H   0  0  0  0  0  0
  -33.3062  -19.8653   20.0526 H   0  0  0  0  0  0
  -31.4781  -20.6300   18.6507 H   0  0  0  0  0  0
  -32.1944  -18.2460   23.8126 H   0  0  0  0  0  0
  -33.2127  -19.5734   23.2726 H   0  0  0  0  0  0
  -33.9281  -18.1498   24.0113 H   0  0  0  0  0  0
  -34.8150  -17.6113   20.4056 H   0  0  0  0  0  0
  -35.4509  -17.6811   22.0417 H   0  0  0  0  0  0
  -34.9086  -19.1566   21.2676 H   0  0  0  0  0  0
  -29.7255  -18.7579   16.7067 H   0  0  0  0  0  0
  -30.1772  -20.4271   16.8937 H   0  0  0  0  0  0
  -28.5532  -20.0275   16.3750 H   0  0  0  0  0  0
  -28.0872  -17.6120   18.2108 H   0  0  0  0  0  0
  -26.9540  -18.8718   17.7838 H   0  0  0  0  0  0
  -27.2520  -18.4997   19.4738 H   0  0  0  0  0  0
  -29.6757  -16.9465   22.6313 H   0  0  0  0  0  0
  -31.2786  -16.3443   22.7465 H   0  0  0  0  0  0
  -30.0346  -24.8216   20.9533 H   0  0  0  0  0  0
  -30.4041  -24.8286   19.2539 H   0  0  0  0  0  0
  -28.4415  -23.0054   18.1811 H   0  0  0  0  0  0
  -29.9634  -22.2091   18.1309 H   0  0  0  0  0  0
  -27.5197  -24.8130   20.2818 H   0  0  0  0  0  0
  -28.0843  -25.2155   18.6547 H   0  0  0  0  0  0
  -33.2244  -16.7532   22.0397 H   0  0  0  0  0  0
  -27.3479  -21.1596   18.4798 H   0  0  0  0  0  0
  -29.1074  -15.0517   21.6899 H   0  0  0  0  0  0
  -28.7750  -22.7927   20.7051 H   0  0  0  0  0  0
  -30.3425  -22.6400   20.3453 H   0  0  0  0  0  0
  1 25  1  0  0  0
  1 30  2  0  0  0
  1 88  1  0  0  0
  2  3  1  0  0  0
  2 25  1  0  0  0
  2 91  1  0  0  0
  2 92  1  0  0  0
  3  4  1  0  0  0
  3 93  1  0  0  0
  3 94  1  0  0  0
  4  5  1  0  0  0
  4 95  1  0  0  0
  4 96  1  0  0  0
  5  6  1  0  0  0
  5 26  1  0  0  0
  5 97  1  0  0  0
  6 25  1  0  0  0
  6 98  1  0  0  0
  6 99  1  0  0  0
  7  8  2  0  0  0
  7 26  1  0  0  0
  7 29  1  0  0  0
  8  9  1  0  0  0
  8 22  1  0  0  0
  9 10  1  0  0  0
  9 27  2  0  0  0
 10 11  2  0  0  0
 10 15  1  0  0  0
 11 12  1  0  0  0
 11100  1  0  0  0
 12 13  2  0  0  0
 12101  1  0  0  0
 13 14  1  0  0  0
 13 31  1  0  0  0
 14 15  2  0  0  0
 14102  1  0  0  0
 15103  1  0  0  0
 16 17  2  0  0  0
 16 21  1  0  0  0
 16 31  1  0  0  0
 17 18  1  0  0  0
 17104  1  0  0  0
 18 19  2  0  0  0
 18105  1  0  0  0
 19 20  1  0  0  0
 19 24  1  0  0  0
 20 21  2  0  0  0
 20106  1  0  0  0
 21 23  1  0  0  0
 22 28  1  0  0  0
 22 32  2  0  0  0
 26 27  1  0  0  0
 28107  1  0  0  0
 28108  1  0  0  0
 29109  1  0  0  0
 29110  1  0  0  0
 33 34  1  0  0  0
 33 66  1  0  0  0
 33 70  2  0  0  0
 34 36  1  0  0  0
 34 59  1  0  0  0
 34111  1  0  0  0
 35 44  2  0  0  0
 35 45  1  0  0  0
 35 68  1  0  0  0
 36 56  1  0  0  0
 36112  1  0  0  0
 37 39  1  0  0  0
 37 47  1  0  0  0
 37 66  1  0  0  0
 37113  1  0  0  0
 38 43  2  0  0  0
 38 46  1  0  0  0
 38 47  1  0  0  0
 39 64  1  0  0  0
 39 67  2  0  0  0
 40 52  1  0  0  0
 40 53  2  0  0  0
 40 58  1  0  0  0
 41114  1  0  0  0
 41115  1  0  0  0
 41116  1  0  0  0
 41 48  1  0  0  0
 42 43  1  0  0  0
 42 66  1  0  0  0
 42117  1  0  0  0
 42118  1  0  0  0
 43 44  1  0  0  0
 44119  1  0  0  0
 45 46  2  0  0  0
 45120  1  0  0  0
 46121  1  0  0  0
 47122  1  0  0  0
 47123  1  0  0  0
 48 56  1  0  0  0
 48 65  1  0  0  0
 48124  1  0  0  0
 49 50  1  0  0  0
 49 53  1  0  0  0
 49 64  1  0  0  0
 49125  1  0  0  0
 50 51  1  0  0  0
 50126  1  0  0  0
 50127  1  0  0  0
 51 52  1  0  0  0
 51128  1  0  0  0
 51129  1  0  0  0
 52130  1  0  0  0
 52131  1  0  0  0
 53 54  1  0  0  0
 54 55  2  0  0  0
 54132  1  0  0  0
 55 57  1  0  0  0
 55133  1  0  0  0
 56 69  2  0  0  0
 57 58  2  0  0  0
 57134  1  0  0  0
 58135  1  0  0  0
 59 60  1  0  0  0
 59 61  1  0  0  0
 59 62  1  0  0  0
 60136  1  0  0  0
 60137  1  0  0  0
 60138  1  0  0  0
 61139  1  0  0  0
 61140  1  0  0  0
 61141  1  0  0  0
 62142  1  0  0  0
 62143  1  0  0  0
 62144  1  0  0  0
 63 65  1  0  0  0
 63145  1  0  0  0
 63146  1  0  0  0
 63147  1  0  0  0
 64148  1  0  0  0
 65149  1  0  0  0
 68 83  1  0  0  0
 71 72  2  0  0  0
 71 73  1  0  0  0
 71150  1  0  0  0
 72 74  1  0  0  0
 72151  1  0  0  0
 73 75  2  0  0  0
 73 84  1  0  0  0
 74 86  1  0  0  0
 74 87  2  0  0  0
 75 80  1  0  0  0
 75 87  1  0  0  0
 76152  1  0  0  0
 76153  1  0  0  0
 76154  1  0  0  0
 76 84  1  0  0  0
 77 84  1  0  0  0
 77155  1  0  0  0
 77156  1  0  0  0
 77157  1  0  0  0
 78158  1  0  0  0
 78159  1  0  0  0
 78160  1  0  0  0
 78 86  1  0  0  0
 79 86  1  0  0  0
 79161  1  0  0  0
 79162  1  0  0  0
 79163  1  0  0  0
 80 88  1  0  0  0
 80164  1  0  0  0
 80165  1  0  0  0
 81 83  1  0  0  0
 81 89  1  0  0  0
 81166  1  0  0  0
 81167  1  0  0  0
 82 85  1  0  0  0
 82 89  1  0  0  0
 82168  1  0  0  0
 82169  1  0  0  0
 83170  1  0  0  0
 83171  1  0  0  0
 84172  1  0  0  0
 85 86  1  0  0  0
 85 90  1  0  0  0
 85173  1  0  0  0
 88174  1  0  0  0
 89175  1  0  0  0
 89176  1  0  0  0
M  CHG  1  89   1
M  ISO  4   1 100  68 101  83 101  88 100
M  END
> <chiral flag>
0

> <version>
0

> <s_m_source_file>
/data/baiqing/PycharmProjects/Reinvent-master-3.2/result/LINK_invent/BTK/process_docking_weight1_custom_sum_contain_oxygen_bond_distance_aromatic_linkinvent_7_9_3/rearranged_h_0114.sdf

> <i_m_source_file_index>
58

> <r_mmod_Potential_Energy-OPLS-2005>
-444.734558105469

> <r_mmod_Stretch_Energy-OPLS-2005>
43.9474792480469

> <r_mmod_Bend_Energy-OPLS-2005>
121.172508239746

> <r_mmod_Torsional_Energy-OPLS-2005>
227.393112182617

> <r_mmod_Improper_Torsional_Energy-OPLS-2005>
2.03039503097534

> <r_mmod_Van_der_Waal_Energy-OPLS-2005>
172.972473144531

> <r_mmod_Electrostatic_Energy-OPLS-2005>
-578.431274414062

> <r_mmod_Solvation_Energy-OPLS-2005>
-449.027587890625

> <b_mmod_Minimization_Converged-OPLS-2005>
0

> <r_mmod_RMS_Derivative-OPLS-2005>
6.29154205322266

$$$$
58
                    3D
 Structure written by MMmdl.
170179  0  0  1  0            999 V2000
  -30.6700  -14.4850   20.5468 C   0  0  0  0  0  0
  -30.4298  -12.3061   19.4261 C   0  0  0  0  0  0
  -29.4979  -12.5035   18.2099 C   0  0  0  0  0  0
  -28.0179  -12.3658   18.6178 C   0  0  0  0  0  0
  -27.6636  -13.2013   19.8769 C   0  0  2  0  0  0
  -28.7056  -12.9770   20.9987 C   0  0  0  0  0  0
  -25.2608  -13.8144   20.5689 C   0  0  0  0  0  0
  -24.1852  -13.0427   20.9174 C   0  0  0  0  0  0
  -24.6399  -11.6892   20.8718 C   0  0  0  0  0  0
  -23.9061  -10.4279   21.0397 C   0  0  0  0  0  0
  -24.3610   -9.4197   21.9183 C   0  0  0  0  0  0
  -23.6292   -8.2233   22.0762 C   0  0  0  0  0  0
  -22.4278   -8.0273   21.3548 C   0  0  0  0  0  0
  -21.9908   -9.0238   20.4645 C   0  0  0  0  0  0
  -22.7228  -10.2124   20.3049 C   0  0  0  0  0  0
  -21.6850   -6.0734   22.5276 C   0  0  0  0  0  0
  -21.4003   -6.5641   23.8207 C   0  0  0  0  0  0
  -21.3657   -5.6799   24.9174 C   0  0  0  0  0  0
  -21.6043   -4.3060   24.7228 C   0  0  0  0  0  0
  -21.8821   -3.8155   23.4346 C   0  0  0  0  0  0
  -21.9193   -4.6964   22.3399 C   0  0  0  0  0  0
  -22.7879  -13.5227   21.1843 C   0  0  0  0  0  0
  -22.1661   -4.2150   21.0979 F   0  0  0  0  0  0
  -21.5637   -3.4546   25.7738 F   0  0  0  0  0  0
  -30.0378  -13.2850   20.4529 N   0  0  0  0  0  0
  -26.3043  -12.9302   20.3366 N   0  0  0  0  0  0
  -25.9323  -11.6466   20.5757 N   0  0  0  0  0  0
  -22.0521  -12.8210   22.0394 N   0  0  0  0  0  0
  -25.4327  -15.1864   20.4106 N   0  0  0  0  0  0
  -31.7918  -14.6976   20.0807 O   0  0  0  0  0  0
  -21.6636   -6.8877   21.4242 O   0  0  0  0  0  0
  -22.3560  -14.5533   20.6706 O   0  0  0  0  0  0
  -24.6178  -31.8686   23.2119 C   0  0  0  0  0  0
  -25.9078  -32.4819   23.8415 C   0  0  1  0  0  0
  -27.2295  -27.4182   20.0888 C   0  0  0  0  0  0
  -25.5944  -33.8617   24.2348 N   0  0  0  0  0  0
  -23.4045  -30.4957   21.5521 C   0  0  2  0  0  0
  -24.8484  -28.9657   20.1116 C   0  0  0  0  0  0
  -22.7417  -29.4678   22.4976 C   0  0  0  0  0  0
  -18.0265  -28.1388   22.8489 C   0  0  0  0  0  0
  -24.1481  -36.7283   23.2644 C   0  0  0  0  0  0
  -25.9384  -30.8275   21.3701 C   0  0  0  0  0  0
  -26.0118  -29.4637   20.7114 C   0  0  0  0  0  0
  -27.2027  -28.6964   20.7007 C   0  0  0  0  0  0
  -26.0430  -26.9484   19.4738 C   0  0  0  0  0  0
  -24.8599  -27.7069   19.4918 C   0  0  0  0  0  0
  -23.6123  -29.8353   20.1642 C   0  0  0  0  0  0
  -25.4110  -36.3098   24.0336 C   0  0  1  0  0  0
  -20.5855  -28.3694   23.1292 C   0  0  2  0  0  0
  -20.6760  -26.9428   22.5412 C   0  0  0  0  0  0
  -19.5736  -26.6391   21.5212 C   0  0  0  0  0  0
  -18.1904  -26.7943   22.1597 C   0  0  0  0  0  0
  -19.1518  -28.8852   23.2886 C   0  0  0  0  0  0
  -18.9450  -30.1454   23.8910 C   0  0  0  0  0  0
  -17.6459  -30.6610   24.0553 C   0  0  0  0  0  0
  -25.9050  -34.9467   23.5130 C   0  0  0  0  0  0
  -16.5347  -29.9109   23.6335 C   0  0  0  0  0  0
  -16.7254  -28.6515   23.0372 C   0  0  0  0  0  0
  -26.4501  -31.6599   25.0747 C   0  0  0  0  0  0
  -25.3785  -31.3761   26.1527 C   0  0  0  0  0  0
  -27.0270  -30.3004   24.6160 C   0  0  0  0  0  0
  -27.6127  -32.4283   25.7467 C   0  0  0  0  0  0
  -27.5562  -37.1802   24.8485 C   0  0  0  0  0  0
  -21.4138  -29.3065   22.3711 N   0  0  0  0  0  0
  -26.4293  -37.3784   23.9408 N   0  0  0  0  0  0
  -24.6715  -31.0782   22.1023 N   0  0  0  0  0  0
  -23.4173  -28.8204   23.3024 O   0  0  0  0  0  0
  -28.3862  -26.6465   20.1384 O   0  0  0  0  0  0
  -26.5594  -34.8919   22.4677 O   0  0  0  0  0  0
  -23.5368  -32.1447   23.7508 O   0  0  0  0  0  0
  -29.5159  -24.0163   21.4447 C   0  0  0  0  0  0
  -28.6919  -22.8087   19.5274 C   0  0  0  0  0  0
  -29.8907  -22.7945   22.0462 C   0  0  0  0  0  0
  -28.8710  -24.0386   20.1932 C   0  0  0  0  0  0
  -29.6032  -21.5304   21.4379 C   0  0  0  0  0  0
  -29.0710  -21.5634   20.1080 C   0  0  0  0  0  0
  -30.6355  -22.8985   23.3655 C   0  0  0  0  0  0
  -31.2905  -21.5780   23.7540 C   0  0  0  0  0  0
  -30.3128  -20.4201   23.5547 C   0  0  1  0  0  0
  -29.1186  -20.4984   24.5274 C   0  0  0  0  0  0
  -28.4835  -20.4022   18.0617 C   0  0  0  0  0  0
  -28.3486  -25.3323   19.5362 C   0  0  0  0  0  0
  -29.3570  -18.9817   21.7799 C   0  0  0  0  0  0
  -29.8860  -16.8512   20.3566 C   0  0  0  0  0  0
  -30.4453  -18.0100   21.2326 C   0  0  2  0  0  0
  -29.8809  -20.3152   22.1562 N   0  0  0  0  0  0
  -29.8896  -15.5003   20.9678 N   0  0  0  0  0  0
  -31.1244  -17.4049   22.3155 O   0  0  0  0  0  0
  -28.9661  -20.3812   19.3989 O   0  0  0  0  0  0
  -31.4731  -12.4173   19.1235 H   0  0  0  0  0  0
  -30.3409  -11.2922   19.8201 H   0  0  0  0  0  0
  -29.7378  -11.7824   17.4275 H   0  0  0  0  0  0
  -29.6658  -13.4896   17.7749 H   0  0  0  0  0  0
  -27.8217  -11.3103   18.8081 H   0  0  0  0  0  0
  -27.3718  -12.6491   17.7858 H   0  0  0  0  0  0
  -27.7076  -14.2477   19.5788 H   0  0  0  0  0  0
  -28.6812  -11.9391   21.3333 H   0  0  0  0  0  0
  -28.4711  -13.5738   21.8818 H   0  0  0  0  0  0
  -25.2759   -9.5673   22.4755 H   0  0  0  0  0  0
  -23.9999   -7.4628   22.7485 H   0  0  0  0  0  0
  -21.0846   -8.8750   19.8950 H   0  0  0  0  0  0
  -22.3687  -10.9663   19.6157 H   0  0  0  0  0  0
  -21.1984   -7.6145   23.9706 H   0  0  0  0  0  0
  -21.1481   -6.0536   25.9078 H   0  0  0  0  0  0
  -22.0603   -2.7616   23.2852 H   0  0  0  0  0  0
  -22.4152  -11.9857   22.4744 H   0  0  0  0  0  0
  -21.1144  -13.1234   22.2610 H   0  0  0  0  0  0
  -24.6671  -15.8414   20.5230 H   0  0  0  0  0  0
  -26.2822  -15.6264   20.0824 H   0  0  0  0  0  0
  -26.7159  -32.5517   23.1188 H   0  0  0  0  0  0
  -25.0159  -33.9801   25.0532 H   0  0  0  0  0  0
  -22.6937  -31.3132   21.4178 H   0  0  0  0  0  0
  -23.3783  -35.9570   23.3252 H   0  0  0  0  0  0
  -24.3590  -36.8972   22.2072 H   0  0  0  0  0  0
  -23.7176  -37.6432   23.6718 H   0  0  0  0  0  0
  -26.0622  -31.5972   20.6065 H   0  0  0  0  0  0
  -26.8223  -30.8726   21.9950 H   0  0  0  0  0  0
  -28.0987  -29.0746   21.1728 H   0  0  0  0  0  0
  -26.0005  -25.9850   18.9869 H   0  0  0  0  0  0
  -23.9654  -27.3154   19.0271 H   0  0  0  0  0  0
  -23.7243  -30.6145   19.4094 H   0  0  0  0  0  0
  -22.7347  -29.2598   19.8624 H   0  0  0  0  0  0
  -25.1290  -36.1962   25.0831 H   0  0  0  0  0  0
  -20.9929  -28.3283   24.1419 H   0  0  0  0  0  0
  -20.5679  -26.2313   23.3609 H   0  0  0  0  0  0
  -21.6632  -26.7478   22.1209 H   0  0  0  0  0  0
  -19.6900  -25.6294   21.1263 H   0  0  0  0  0  0
  -19.6684  -27.3185   20.6728 H   0  0  0  0  0  0
  -17.4184  -26.6717   21.3981 H   0  0  0  0  0  0
  -18.0271  -26.0074   22.8975 H   0  0  0  0  0  0
  -19.7931  -30.7251   24.2302 H   0  0  0  0  0  0
  -17.5029  -31.6301   24.5126 H   0  0  0  0  0  0
  -15.5358  -30.3025   23.7669 H   0  0  0  0  0  0
  -15.8635  -28.0843   22.7110 H   0  0  0  0  0  0
  -24.5831  -30.7271   25.7856 H   0  0  0  0  0  0
  -24.9155  -32.2957   26.5109 H   0  0  0  0  0  0
  -25.8124  -30.8771   27.0201 H   0  0  0  0  0  0
  -26.2765  -29.6762   24.1296 H   0  0  0  0  0  0
  -27.4062  -29.7279   25.4637 H   0  0  0  0  0  0
  -27.8631  -30.4254   23.9274 H   0  0  0  0  0  0
  -27.2862  -33.3698   26.1893 H   0  0  0  0  0  0
  -28.4006  -32.6618   25.0294 H   0  0  0  0  0  0
  -28.0682  -31.8454   26.5483 H   0  0  0  0  0  0
  -28.2646  -38.0027   24.7438 H   0  0  0  0  0  0
  -28.0984  -36.2553   24.6438 H   0  0  0  0  0  0
  -27.2269  -37.1624   25.8889 H   0  0  0  0  0  0
  -20.9308  -29.8827   21.6956 H   0  0  0  0  0  0
  -26.0174  -38.2864   24.1384 H   0  0  0  0  0  0
  -29.7134  -24.9494   21.9544 H   0  0  0  0  0  0
  -28.2467  -22.8539   18.5459 H   0  0  0  0  0  0
  -29.9398  -23.2230   24.1395 H   0  0  0  0  0  0
  -31.4018  -23.6708   23.2890 H   0  0  0  0  0  0
  -31.6504  -21.6189   24.7828 H   0  0  0  0  0  0
  -32.1699  -21.4129   23.1298 H   0  0  0  0  0  0
  -30.8621  -19.5104   23.8010 H   0  0  0  0  0  0
  -28.4531  -21.3298   24.2931 H   0  0  0  0  0  0
  -29.4620  -20.6337   25.5533 H   0  0  0  0  0  0
  -28.5181  -19.5896   24.5144 H   0  0  0  0  0  0
  -28.4538  -19.3817   17.6792 H   0  0  0  0  0  0
  -29.1403  -20.9785   17.4085 H   0  0  0  0  0  0
  -27.4680  -20.7975   18.0019 H   0  0  0  0  0  0
  -27.6516  -25.1007   20.3462 H   0  0  0  0  0  0
  -29.4234  -25.4892   19.4361 H   0  0  0  0  0  0
  -28.9046  -18.5126   22.6544 H   0  0  0  0  0  0
  -28.5091  -19.0590   21.1048 H   0  0  0  0  0  0
  -30.4475  -16.8288   19.4201 H   0  0  0  0  0  0
  -28.8645  -17.0775   20.0457 H   0  0  0  0  0  0
  -31.1558  -18.5806   20.6312 H   0  0  0  0  0  0
  -29.0079  -15.2043   21.3635 H   0  0  0  0  0  0
  -30.7845  -16.5136   22.3352 H   0  0  0  0  0  0
  1 25  1  0  0  0
  1 30  2  0  0  0
  1 87  1  0  0  0
  2  3  1  0  0  0
  2 25  1  0  0  0
  2 90  1  0  0  0
  2 91  1  0  0  0
  3  4  1  0  0  0
  3 92  1  0  0  0
  3 93  1  0  0  0
  4  5  1  0  0  0
  4 94  1  0  0  0
  4 95  1  0  0  0
  5  6  1  0  0  0
  5 26  1  0  0  0
  5 96  1  0  0  0
  6 25  1  0  0  0
  6 97  1  0  0  0
  6 98  1  0  0  0
  7  8  2  0  0  0
  7 26  1  0  0  0
  7 29  1  0  0  0
  8  9  1  0  0  0
  8 22  1  0  0  0
  9 10  1  0  0  0
  9 27  2  0  0  0
 10 11  2  0  0  0
 10 15  1  0  0  0
 11 12  1  0  0  0
 11 99  1  0  0  0
 12 13  2  0  0  0
 12100  1  0  0  0
 13 14  1  0  0  0
 13 31  1  0  0  0
 14 15  2  0  0  0
 14101  1  0  0  0
 15102  1  0  0  0
 16 17  2  0  0  0
 16 21  1  0  0  0
 16 31  1  0  0  0
 17 18  1  0  0  0
 17103  1  0  0  0
 18 19  2  0  0  0
 18104  1  0  0  0
 19 20  1  0  0  0
 19 24  1  0  0  0
 20 21  2  0  0  0
 20105  1  0  0  0
 21 23  1  0  0  0
 22 28  1  0  0  0
 22 32  2  0  0  0
 26 27  1  0  0  0
 28106  1  0  0  0
 28107  1  0  0  0
 29108  1  0  0  0
 29109  1  0  0  0
 33 34  1  0  0  0
 33 66  1  0  0  0
 33 70  2  0  0  0
 34 36  1  0  0  0
 34 59  1  0  0  0
 34110  1  0  0  0
 35 44  2  0  0  0
 35 45  1  0  0  0
 35 68  1  0  0  0
 36 56  1  0  0  0
 36111  1  0  0  0
 37 39  1  0  0  0
 37 47  1  0  0  0
 37 66  1  0  0  0
 37112  1  0  0  0
 38 43  2  0  0  0
 38 46  1  0  0  0
 38 47  1  0  0  0
 39 64  1  0  0  0
 39 67  2  0  0  0
 40 52  1  0  0  0
 40 53  2  0  0  0
 40 58  1  0  0  0
 41113  1  0  0  0
 41114  1  0  0  0
 41115  1  0  0  0
 41 48  1  0  0  0
 42 43  1  0  0  0
 42 66  1  0  0  0
 42116  1  0  0  0
 42117  1  0  0  0
 43 44  1  0  0  0
 44118  1  0  0  0
 45 46  2  0  0  0
 45119  1  0  0  0
 46120  1  0  0  0
 47121  1  0  0  0
 47122  1  0  0  0
 48 56  1  0  0  0
 48 65  1  0  0  0
 48123  1  0  0  0
 49 50  1  0  0  0
 49 53  1  0  0  0
 49 64  1  0  0  0
 49124  1  0  0  0
 50 51  1  0  0  0
 50125  1  0  0  0
 50126  1  0  0  0
 51 52  1  0  0  0
 51127  1  0  0  0
 51128  1  0  0  0
 52129  1  0  0  0
 52130  1  0  0  0
 53 54  1  0  0  0
 54 55  2  0  0  0
 54131  1  0  0  0
 55 57  1  0  0  0
 55132  1  0  0  0
 56 69  2  0  0  0
 57 58  2  0  0  0
 57133  1  0  0  0
 58134  1  0  0  0
 59 60  1  0  0  0
 59 61  1  0  0  0
 59 62  1  0  0  0
 60135  1  0  0  0
 60136  1  0  0  0
 60137  1  0  0  0
 61138  1  0  0  0
 61139  1  0  0  0
 61140  1  0  0  0
 62141  1  0  0  0
 62142  1  0  0  0
 62143  1  0  0  0
 63 65  1  0  0  0
 63144  1  0  0  0
 63145  1  0  0  0
 63146  1  0  0  0
 64147  1  0  0  0
 65148  1  0  0  0
 68 82  1  0  0  0
 71 73  2  0  0  0
 71 74  1  0  0  0
 71149  1  0  0  0
 72 74  2  0  0  0
 72 76  1  0  0  0
 72150  1  0  0  0
 73 75  1  0  0  0
 73 77  1  0  0  0
 74 82  1  0  0  0
 75 76  2  0  0  0
 75 86  1  0  0  0
 76 89  1  0  0  0
 77 78  1  0  0  0
 77151  1  0  0  0
 77152  1  0  0  0
 78 79  1  0  0  0
 78153  1  0  0  0
 78154  1  0  0  0
 79 80  1  0  0  0
 79 86  1  0  0  0
 79155  1  0  0  0
 80156  1  0  0  0
 80157  1  0  0  0
 80158  1  0  0  0
 81 89  1  0  0  0
 81159  1  0  0  0
 81160  1  0  0  0
 81161  1  0  0  0
 82162  1  0  0  0
 82163  1  0  0  0
 83 85  1  0  0  0
 83 86  1  0  0  0
 83164  1  0  0  0
 83165  1  0  0  0
 84 85  1  0  0  0
 84 87  1  0  0  0
 84166  1  0  0  0
 84167  1  0  0  0
 85 88  1  0  0  0
 85168  1  0  0  0
 87169  1  0  0  0
 88170  1  0  0  0
M  ISO  4   1 100  68 101  82 101  87 100
M  END
> <chiral flag>
0

> <version>
0

> <s_m_source_file>
/data/baiqing/PycharmProjects/Reinvent-master-3.2/result/LINK_invent/BTK/process_docking_weight1_custom_sum_contain_oxygen_bond_distance_aromatic_linkinvent_7_9_3/rearranged_h_0114.sdf

> <i_m_source_file_index>
59

> <r_mmod_Potential_Energy-OPLS-2005>
140.204742431641

> <r_mmod_Stretch_Energy-OPLS-2005>
52.0104064941406

> <r_mmod_Bend_Energy-OPLS-2005>
335.887023925781

> <r_mmod_Torsional_Energy-OPLS-2005>
283.369110107422

> <r_mmod_Improper_Torsional_Energy-OPLS-2005>
8.94083690643311

> <r_mmod_Van_der_Waal_Energy-OPLS-2005>
194.745651245117

> <r_mmod_Electrostatic_Energy-OPLS-2005>
-506.544708251953

> <r_mmod_Solvation_Energy-OPLS-2005>
-244.252090454102

> <b_mmod_Minimization_Converged-OPLS-2005>
0

> <r_mmod_RMS_Derivative-OPLS-2005>
2.01185250282288

$$$$
59
                    3D
 Structure written by MMmdl.
162170  0  0  1  0            999 V2000
  -30.6529  -14.4946   20.5988 C   0  0  0  0  0  0
  -30.4419  -12.3319   19.4086 C   0  0  0  0  0  0
  -29.5016  -12.5246   18.1993 C   0  0  0  0  0  0
  -28.0217  -12.3722   18.6100 C   0  0  0  0  0  0
  -27.6653  -13.1970   19.8758 C   0  0  2  0  0  0
  -28.7068  -12.9444   20.9890 C   0  0  0  0  0  0
  -25.2621  -13.8132   20.5673 C   0  0  0  0  0  0
  -24.1864  -13.0426   20.9173 C   0  0  0  0  0  0
  -24.6402  -11.6891   20.8730 C   0  0  0  0  0  0
  -23.9066  -10.4282   21.0402 C   0  0  0  0  0  0
  -24.3613   -9.4202   21.9185 C   0  0  0  0  0  0
  -23.6291   -8.2240   22.0750 C   0  0  0  0  0  0
  -22.4271   -8.0278   21.3552 C   0  0  0  0  0  0
  -21.9909   -9.0251   20.4644 C   0  0  0  0  0  0
  -22.7232  -10.2131   20.3059 C   0  0  0  0  0  0
  -21.6850   -6.0742   22.5289 C   0  0  0  0  0  0
  -21.4001   -6.5644   23.8221 C   0  0  0  0  0  0
  -21.3666   -5.6795   24.9178 C   0  0  0  0  0  0
  -21.6039   -4.3058   24.7222 C   0  0  0  0  0  0
  -21.8821   -3.8155   23.4343 C   0  0  0  0  0  0
  -21.9186   -4.6973   22.3402 C   0  0  0  0  0  0
  -22.7894  -13.5250   21.1838 C   0  0  0  0  0  0
  -22.1660   -4.2159   21.0983 F   0  0  0  0  0  0
  -21.5633   -3.4544   25.7742 F   0  0  0  0  0  0
  -30.0355  -13.2894   20.4478 N   0  0  0  0  0  0
  -26.3042  -12.9275   20.3348 N   0  0  0  0  0  0
  -25.9325  -11.6446   20.5735 N   0  0  0  0  0  0
  -22.0523  -12.8242   22.0382 N   0  0  0  0  0  0
  -25.4376  -15.1835   20.4078 N   0  0  0  0  0  0
  -31.7590  -14.7542   20.1177 O   0  0  0  0  0  0
  -21.6637   -6.8877   21.4248 O   0  0  0  0  0  0
  -22.3588  -14.5566   20.6695 O   0  0  0  0  0  0
  -24.6159  -31.8667   23.2099 C   0  0  0  0  0  0
  -25.9042  -32.4823   23.8396 C   0  0  1  0  0  0
  -27.2374  -27.4294   20.0948 C   0  0  0  0  0  0
  -25.5897  -33.8621   24.2328 N   0  0  0  0  0  0
  -23.4064  -30.4886   21.5502 C   0  0  2  0  0  0
  -24.8543  -28.9503   20.1180 C   0  0  0  0  0  0
  -22.7419  -29.4646   22.4986 C   0  0  0  0  0  0
  -18.0279  -28.1382   22.8487 C   0  0  0  0  0  0
  -24.1494  -36.7306   23.2638 C   0  0  0  0  0  0
  -25.9346  -30.8285   21.3660 C   0  0  0  0  0  0
  -26.0144  -29.4614   20.7155 C   0  0  0  0  0  0
  -27.2115  -28.7062   20.7043 C   0  0  0  0  0  0
  -26.0629  -26.9315   19.4961 C   0  0  0  0  0  0
  -24.8726  -27.6826   19.5093 C   0  0  0  0  0  0
  -23.6166  -29.8184   20.1659 C   0  0  0  0  0  0
  -25.4115  -36.3114   24.0342 C   0  0  1  0  0  0
  -20.5871  -28.3669   23.1325 C   0  0  2  0  0  0
  -20.6775  -26.9407   22.5419 C   0  0  0  0  0  0
  -19.5755  -26.6388   21.5218 C   0  0  0  0  0  0
  -18.1927  -26.7927   22.1623 C   0  0  0  0  0  0
  -19.1529  -28.8839   23.2904 C   0  0  0  0  0  0
  -18.9457  -30.1438   23.8918 C   0  0  0  0  0  0
  -17.6460  -30.6588   24.0564 C   0  0  0  0  0  0
  -25.9047  -34.9482   23.5139 C   0  0  0  0  0  0
  -16.5348  -29.9091   23.6335 C   0  0  0  0  0  0
  -16.7265  -28.6512   23.0349 C   0  0  0  0  0  0
  -26.4467  -31.6591   25.0713 C   0  0  0  0  0  0
  -25.3741  -31.3685   26.1464 C   0  0  0  0  0  0
  -27.0290  -30.3043   24.6059 C   0  0  0  0  0  0
  -27.6060  -32.4289   25.7461 C   0  0  0  0  0  0
  -27.5593  -37.1800   24.8464 C   0  0  0  0  0  0
  -21.4148  -29.3032   22.3731 N   0  0  0  0  0  0
  -26.4304  -37.3799   23.9421 N   0  0  0  0  0  0
  -24.6706  -31.0764   22.1006 N   0  0  0  0  0  0
  -23.4181  -28.8194   23.3044 O   0  0  0  0  0  0
  -28.3712  -26.6487   20.0742 O   0  0  0  0  0  0
  -26.5602  -34.8917   22.4699 O   0  0  0  0  0  0
  -23.5345  -32.1419   23.7490 O   0  0  0  0  0  0
  -29.3943  -22.4614   19.2268 C   0  0  0  0  0  0
  -29.8898  -22.1595   21.5843 C   0  0  0  0  0  0
  -28.9437  -23.7800   19.4869 C   0  0  0  0  0  0
  -29.4359  -23.4722   21.8425 C   0  0  0  0  0  0
  -29.8800  -21.6357   20.2724 C   0  0  0  0  0  0
  -28.9661  -24.3031   20.8003 C   0  0  0  0  0  0
  -31.2976  -17.1545   22.2590 C   0  0  0  0  0  0
  -28.7935  -17.1739   22.4271 C   0  0  0  0  0  0
  -30.4221  -20.2218   19.9928 C   0  0  0  0  0  0
  -28.4287  -25.6993   21.1505 C   0  0  0  0  0  0
  -29.8943  -17.7361   20.1959 C   0  0  0  0  0  0
  -29.9883  -16.8659   21.4956 C   0  0  0  0  0  0
  -29.8774  -15.4173   21.2099 N   0  0  0  0  0  0
  -29.5076  -19.1540   20.4623 N   0  3  0  0  0  0
  -31.4812  -12.4701   19.1056 H   0  0  0  0  0  0
  -30.3747  -11.3121   19.7897 H   0  0  0  0  0  0
  -29.7465  -11.8094   17.4125 H   0  0  0  0  0  0
  -29.6590  -13.5153   17.7689 H   0  0  0  0  0  0
  -27.8358  -11.3134   18.7934 H   0  0  0  0  0  0
  -27.3717  -12.6551   17.7805 H   0  0  0  0  0  0
  -27.7164  -14.2495   19.5959 H   0  0  0  0  0  0
  -28.6961  -11.8939   21.2828 H   0  0  0  0  0  0
  -28.4538  -13.4919   21.8982 H   0  0  0  0  0  0
  -25.2765   -9.5683   22.4747 H   0  0  0  0  0  0
  -24.0006   -7.4634   22.7475 H   0  0  0  0  0  0
  -21.0844   -8.8773   19.8955 H   0  0  0  0  0  0
  -22.3702  -10.9668   19.6164 H   0  0  0  0  0  0
  -21.1987   -7.6151   23.9727 H   0  0  0  0  0  0
  -21.1485   -6.0525   25.9083 H   0  0  0  0  0  0
  -22.0588   -2.7619   23.2846 H   0  0  0  0  0  0
  -22.4121  -11.9892   22.4768 H   0  0  0  0  0  0
  -21.1144  -13.1278   22.2573 H   0  0  0  0  0  0
  -24.6722  -15.8392   20.5172 H   0  0  0  0  0  0
  -26.2828  -15.6178   20.0622 H   0  0  0  0  0  0
  -26.7106  -32.5537   23.1156 H   0  0  0  0  0  0
  -25.0050  -33.9771   25.0473 H   0  0  0  0  0  0
  -22.6961  -31.3056   21.4074 H   0  0  0  0  0  0
  -23.3763  -35.9633   23.3306 H   0  0  0  0  0  0
  -24.3595  -36.8925   22.2053 H   0  0  0  0  0  0
  -23.7233  -37.6508   23.6645 H   0  0  0  0  0  0
  -26.0479  -31.5930   20.5965 H   0  0  0  0  0  0
  -26.8221  -30.8827   21.9847 H   0  0  0  0  0  0
  -28.1091  -29.0902   21.1697 H   0  0  0  0  0  0
  -26.0715  -25.9571   19.0283 H   0  0  0  0  0  0
  -23.9771  -27.2811   19.0543 H   0  0  0  0  0  0
  -23.7263  -30.5915   19.4040 H   0  0  0  0  0  0
  -22.7410  -29.2386   19.8703 H   0  0  0  0  0  0
  -25.1290  -36.1987   25.0834 H   0  0  0  0  0  0
  -20.9945  -28.3231   24.1455 H   0  0  0  0  0  0
  -20.5714  -26.2267   23.3605 H   0  0  0  0  0  0
  -21.6637  -26.7468   22.1190 H   0  0  0  0  0  0
  -19.6932  -25.6311   21.1229 H   0  0  0  0  0  0
  -19.6709  -27.3209   20.6767 H   0  0  0  0  0  0
  -17.4203  -26.6688   21.4008 H   0  0  0  0  0  0
  -18.0320  -26.0052   22.9007 H   0  0  0  0  0  0
  -19.7937  -30.7248   24.2293 H   0  0  0  0  0  0
  -17.5020  -31.6270   24.5156 H   0  0  0  0  0  0
  -15.5357  -30.3002   23.7647 H   0  0  0  0  0  0
  -15.8664  -28.0839   22.7059 H   0  0  0  0  0  0
  -24.5915  -30.7034   25.7795 H   0  0  0  0  0  0
  -24.8916  -32.2823   26.4931 H   0  0  0  0  0  0
  -25.8089  -30.8833   27.0213 H   0  0  0  0  0  0
  -26.2804  -29.6810   24.1141 H   0  0  0  0  0  0
  -27.4121  -29.7274   25.4493 H   0  0  0  0  0  0
  -27.8623  -30.4390   23.9156 H   0  0  0  0  0  0
  -27.2712  -33.3603   26.2040 H   0  0  0  0  0  0
  -28.3857  -32.6826   25.0261 H   0  0  0  0  0  0
  -28.0726  -31.8394   26.5368 H   0  0  0  0  0  0
  -28.2593  -38.0111   24.7530 H   0  0  0  0  0  0
  -28.1103  -36.2644   24.6261 H   0  0  0  0  0  0
  -27.2302  -37.1404   25.8861 H   0  0  0  0  0  0
  -20.9326  -29.8738   21.6933 H   0  0  0  0  0  0
  -26.0205  -38.2887   24.1420 H   0  0  0  0  0  0
  -29.3716  -22.0891   18.2111 H   0  0  0  0  0  0
  -30.2482  -21.5571   22.4082 H   0  0  0  0  0  0
  -28.5725  -24.3877   18.6732 H   0  0  0  0  0  0
  -29.4450  -23.8435   22.8587 H   0  0  0  0  0  0
  -31.3856  -18.2062   22.5317 H   0  0  0  0  0  0
  -32.1788  -16.9050   21.6677 H   0  0  0  0  0  0
  -31.3501  -16.5794   23.1843 H   0  0  0  0  0  0
  -28.8174  -18.1929   22.8151 H   0  0  0  0  0  0
  -28.7881  -16.5186   23.3002 H   0  0  0  0  0  0
  -27.8370  -17.0382   21.9182 H   0  0  0  0  0  0
  -31.3931  -20.1069   20.4780 H   0  0  0  0  0  0
  -30.5978  -20.1052   18.9224 H   0  0  0  0  0  0
  -29.0643  -26.1292   21.9269 H   0  0  0  0  0  0
  -27.4486  -25.5535   21.6097 H   0  0  0  0  0  0
  -29.1410  -17.3222   19.5249 H   0  0  0  0  0  0
  -30.8337  -17.6917   19.6434 H   0  0  0  0  0  0
  -29.0004  -15.0199   21.5088 H   0  0  0  0  0  0
  -28.6153  -19.3117   20.0224 H   0  0  0  0  0  0
  -29.3682  -19.2600   21.4522 H   0  0  0  0  0  0
  1 25  1  0  0  0
  1 30  2  0  0  0
  1 83  1  0  0  0
  2  3  1  0  0  0
  2 25  1  0  0  0
  2 85  1  0  0  0
  2 86  1  0  0  0
  3  4  1  0  0  0
  3 87  1  0  0  0
  3 88  1  0  0  0
  4  5  1  0  0  0
  4 89  1  0  0  0
  4 90  1  0  0  0
  5  6  1  0  0  0
  5 26  1  0  0  0
  5 91  1  0  0  0
  6 25  1  0  0  0
  6 92  1  0  0  0
  6 93  1  0  0  0
  7  8  2  0  0  0
  7 26  1  0  0  0
  7 29  1  0  0  0
  8  9  1  0  0  0
  8 22  1  0  0  0
  9 10  1  0  0  0
  9 27  2  0  0  0
 10 11  2  0  0  0
 10 15  1  0  0  0
 11 12  1  0  0  0
 11 94  1  0  0  0
 12 13  2  0  0  0
 12 95  1  0  0  0
 13 14  1  0  0  0
 13 31  1  0  0  0
 14 15  2  0  0  0
 14 96  1  0  0  0
 15 97  1  0  0  0
 16 17  2  0  0  0
 16 21  1  0  0  0
 16 31  1  0  0  0
 17 18  1  0  0  0
 17 98  1  0  0  0
 18 19  2  0  0  0
 18 99  1  0  0  0
 19 20  1  0  0  0
 19 24  1  0  0  0
 20 21  2  0  0  0
 20100  1  0  0  0
 21 23  1  0  0  0
 22 28  1  0  0  0
 22 32  2  0  0  0
 26 27  1  0  0  0
 28101  1  0  0  0
 28102  1  0  0  0
 29103  1  0  0  0
 29104  1  0  0  0
 33 34  1  0  0  0
 33 66  1  0  0  0
 33 70  2  0  0  0
 34 36  1  0  0  0
 34 59  1  0  0  0
 34105  1  0  0  0
 35 44  2  0  0  0
 35 45  1  0  0  0
 35 68  1  0  0  0
 36 56  1  0  0  0
 36106  1  0  0  0
 37 39  1  0  0  0
 37 47  1  0  0  0
 37 66  1  0  0  0
 37107  1  0  0  0
 38 43  2  0  0  0
 38 46  1  0  0  0
 38 47  1  0  0  0
 39 64  1  0  0  0
 39 67  2  0  0  0
 40 52  1  0  0  0
 40 53  2  0  0  0
 40 58  1  0  0  0
 41108  1  0  0  0
 41109  1  0  0  0
 41110  1  0  0  0
 41 48  1  0  0  0
 42 43  1  0  0  0
 42 66  1  0  0  0
 42111  1  0  0  0
 42112  1  0  0  0
 43 44  1  0  0  0
 44113  1  0  0  0
 45 46  2  0  0  0
 45114  1  0  0  0
 46115  1  0  0  0
 47116  1  0  0  0
 47117  1  0  0  0
 48 56  1  0  0  0
 48 65  1  0  0  0
 48118  1  0  0  0
 49 50  1  0  0  0
 49 53  1  0  0  0
 49 64  1  0  0  0
 49119  1  0  0  0
 50 51  1  0  0  0
 50120  1  0  0  0
 50121  1  0  0  0
 51 52  1  0  0  0
 51122  1  0  0  0
 51123  1  0  0  0
 52124  1  0  0  0
 52125  1  0  0  0
 53 54  1  0  0  0
 54 55  2  0  0  0
 54126  1  0  0  0
 55 57  1  0  0  0
 55127  1  0  0  0
 56 69  2  0  0  0
 57 58  2  0  0  0
 57128  1  0  0  0
 58129  1  0  0  0
 59 60  1  0  0  0
 59 61  1  0  0  0
 59 62  1  0  0  0
 60130  1  0  0  0
 60131  1  0  0  0
 60132  1  0  0  0
 61133  1  0  0  0
 61134  1  0  0  0
 61135  1  0  0  0
 62136  1  0  0  0
 62137  1  0  0  0
 62138  1  0  0  0
 63 65  1  0  0  0
 63139  1  0  0  0
 63140  1  0  0  0
 63141  1  0  0  0
 64142  1  0  0  0
 65143  1  0  0  0
 68 80  1  0  0  0
 71 73  2  0  0  0
 71 75  1  0  0  0
 71144  1  0  0  0
 72 74  1  0  0  0
 72 75  2  0  0  0
 72145  1  0  0  0
 73 76  1  0  0  0
 73146  1  0  0  0
 74 76  2  0  0  0
 74147  1  0  0  0
 75 79  1  0  0  0
 76 80  1  0  0  0
 77148  1  0  0  0
 77149  1  0  0  0
 77150  1  0  0  0
 77 82  1  0  0  0
 78 82  1  0  0  0
 78151  1  0  0  0
 78152  1  0  0  0
 78153  1  0  0  0
 79 84  1  0  0  0
 79154  1  0  0  0
 79155  1  0  0  0
 80156  1  0  0  0
 80157  1  0  0  0
 81 82  1  0  0  0
 81 84  1  0  0  0
 81158  1  0  0  0
 81159  1  0  0  0
 82 83  1  0  0  0
 83160  1  0  0  0
 84161  1  0  0  0
 84162  1  0  0  0
M  CHG  1  84   1
M  ISO  4   1 100  68 101  80 101  83 100
M  END
> <chiral flag>
0

> <version>
0

> <s_m_source_file>
/data/baiqing/PycharmProjects/Reinvent-master-3.2/result/LINK_invent/BTK/process_docking_weight1_custom_sum_contain_oxygen_bond_distance_aromatic_linkinvent_7_9_3/rearranged_h_0114.sdf

> <i_m_source_file_index>
60

> <r_mmod_Potential_Energy-OPLS-2005>
-241.954391479492

> <r_mmod_Stretch_Energy-OPLS-2005>
40.4986343383789

> <r_mmod_Bend_Energy-OPLS-2005>
107.607772827148

> <r_mmod_Torsional_Energy-OPLS-2005>
247.799758911133

> <r_mmod_Improper_Torsional_Energy-OPLS-2005>
3.3047308921814

> <r_mmod_Van_der_Waal_Energy-OPLS-2005>
142.190032958984

> <r_mmod_Electrostatic_Energy-OPLS-2005>
-333.575744628906

> <r_mmod_Solvation_Energy-OPLS-2005>
-464.521697998047

> <b_mmod_Minimization_Converged-OPLS-2005>
0

> <r_mmod_RMS_Derivative-OPLS-2005>
2.10609269142151

$$$$
60
                    3D
 Structure written by MMmdl.
164172  0  0  1  0            999 V2000
  -30.7179  -14.4043   20.6760 C   0  0  0  0  0  0
  -30.4270  -12.3048   19.3961 C   0  0  0  0  0  0
  -29.4952  -12.5426   18.1908 C   0  0  0  0  0  0
  -28.0139  -12.3974   18.5962 C   0  0  0  0  0  0
  -27.6673  -13.2014   19.8777 C   0  0  2  0  0  0
  -28.7017  -12.9187   20.9880 C   0  0  0  0  0  0
  -25.2610  -13.8138   20.5648 C   0  0  0  0  0  0
  -24.1843  -13.0433   20.9123 C   0  0  0  0  0  0
  -24.6381  -11.6892   20.8690 C   0  0  0  0  0  0
  -23.9047  -10.4283   21.0372 C   0  0  0  0  0  0
  -24.3605   -9.4214   21.9166 C   0  0  0  0  0  0
  -23.6284   -8.2247   22.0745 C   0  0  0  0  0  0
  -22.4272   -8.0272   21.3540 C   0  0  0  0  0  0
  -21.9897   -9.0237   20.4637 C   0  0  0  0  0  0
  -22.7217  -10.2118   20.3028 C   0  0  0  0  0  0
  -21.6862   -6.0731   22.5279 C   0  0  0  0  0  0
  -21.4010   -6.5632   23.8216 C   0  0  0  0  0  0
  -21.3659   -5.6783   24.9176 C   0  0  0  0  0  0
  -21.6041   -4.3041   24.7223 C   0  0  0  0  0  0
  -21.8820   -3.8140   23.4345 C   0  0  0  0  0  0
  -21.9186   -4.6961   22.3403 C   0  0  0  0  0  0
  -22.7871  -13.5245   21.1806 C   0  0  0  0  0  0
  -22.1663   -4.2145   21.0984 F   0  0  0  0  0  0
  -21.5625   -3.4525   25.7739 F   0  0  0  0  0  0
  -30.0441  -13.2408   20.4635 N   0  0  0  0  0  0
  -26.3046  -12.9299   20.3334 N   0  0  0  0  0  0
  -25.9304  -11.6465   20.5697 N   0  0  0  0  0  0
  -22.0501  -12.8253   22.0365 N   0  0  0  0  0  0
  -25.4358  -15.1858   20.4098 N   0  0  0  0  0  0
  -31.7692  -14.6848   20.0906 O   0  0  0  0  0  0
  -21.6635   -6.8874   21.4240 O   0  0  0  0  0  0
  -22.3568  -14.5560   20.6664 O   0  0  0  0  0  0
  -24.6111  -31.8702   23.2145 C   0  0  0  0  0  0
  -25.9016  -32.4836   23.8418 C   0  0  1  0  0  0
  -27.2464  -27.4608   20.0938 C   0  0  0  0  0  0
  -25.5873  -33.8631   24.2349 N   0  0  0  0  0  0
  -23.3992  -30.4931   21.5531 C   0  0  2  0  0  0
  -24.8498  -28.9562   20.1238 C   0  0  0  0  0  0
  -22.7387  -29.4663   22.5013 C   0  0  0  0  0  0
  -18.0262  -28.1358   22.8470 C   0  0  0  0  0  0
  -24.1479  -36.7338   23.2637 C   0  0  0  0  0  0
  -25.9243  -30.8395   21.3665 C   0  0  0  0  0  0
  -26.0058  -29.4695   20.7272 C   0  0  0  0  0  0
  -27.2068  -28.7244   20.7259 C   0  0  0  0  0  0
  -26.0796  -26.9606   19.4812 C   0  0  0  0  0  0
  -24.8780  -27.6949   19.5041 C   0  0  0  0  0  0
  -23.6101  -29.8219   20.1688 C   0  0  0  0  0  0
  -25.4094  -36.3134   24.0348 C   0  0  1  0  0  0
  -20.5850  -28.3654   23.1319 C   0  0  2  0  0  0
  -20.6756  -26.9397   22.5413 C   0  0  0  0  0  0
  -19.5745  -26.6380   21.5186 C   0  0  0  0  0  0
  -18.1916  -26.7905   22.1593 C   0  0  0  0  0  0
  -19.1503  -28.8823   23.2898 C   0  0  0  0  0  0
  -18.9438  -30.1429   23.8915 C   0  0  0  0  0  0
  -17.6441  -30.6582   24.0534 C   0  0  0  0  0  0
  -25.9016  -34.9485   23.5147 C   0  0  0  0  0  0
  -16.5337  -29.9086   23.6289 C   0  0  0  0  0  0
  -16.7251  -28.6484   23.0343 C   0  0  0  0  0  0
  -26.4464  -31.6590   25.0720 C   0  0  0  0  0  0
  -25.3748  -31.3637   26.1470 C   0  0  0  0  0  0
  -27.0291  -30.3042   24.6071 C   0  0  0  0  0  0
  -27.6063  -32.4279   25.7493 C   0  0  0  0  0  0
  -27.5582  -37.1812   24.8455 C   0  0  0  0  0  0
  -21.4120  -29.3025   22.3735 N   0  0  0  0  0  0
  -26.4275  -37.3825   23.9427 N   0  0  0  0  0  0
  -24.6630  -31.0807   22.1048 N   0  0  0  0  0  0
  -23.4164  -28.8195   23.3048 O   0  0  0  0  0  0
  -28.3901  -26.7080   19.9796 O   0  0  0  0  0  0
  -26.5591  -34.8934   22.4717 O   0  0  0  0  0  0
  -23.5317  -32.1453   23.7550 O   0  0  0  0  0  0
  -29.7004  -18.4213   23.4164 C   0  0  0  0  0  0
  -31.5388  -18.7184   21.8566 C   0  0  0  0  0  0
  -29.5345  -17.0971   22.9636 C   0  0  0  0  0  0
  -31.3648  -17.3959   21.3922 C   0  0  0  0  0  0
  -30.7133  -19.2424   22.8762 C   0  0  0  0  0  0
  -30.3703  -16.5624   21.9589 C   0  0  0  0  0  0
  -30.4441  -24.8777   19.0009 C   0  0  0  0  0  0
  -30.9267  -20.6575   23.4247 C   0  0  0  0  0  0
  -30.6356  -22.9602   20.3697 C   0  0  0  0  0  0
  -29.4263  -24.9056   21.2142 C   0  0  0  0  0  0
  -31.3124  -22.3119   21.6007 C   0  0  0  0  0  0
  -29.1428  -26.4324   21.1590 C   0  0  0  0  0  0
  -30.1336  -15.2065   21.5868 N   0  0  0  0  0  0
  -30.5569  -24.4314   20.3928 N   0  0  0  0  0  0
  -30.3536  -21.7051   22.5510 N   0  3  0  0  0  0
  -31.4703  -12.4196   19.0977 H   0  0  0  0  0  0
  -30.3319  -11.2782   19.7524 H   0  0  0  0  0  0
  -29.7351  -11.8482   17.3844 H   0  0  0  0  0  0
  -29.6660  -13.5434   17.7899 H   0  0  0  0  0  0
  -27.8088  -11.3384   18.7554 H   0  0  0  0  0  0
  -27.3705  -12.7115   17.7730 H   0  0  0  0  0  0
  -27.7296  -14.2599   19.6222 H   0  0  0  0  0  0
  -28.6718  -11.8638   21.2646 H   0  0  0  0  0  0
  -28.4385  -13.4522   21.9012 H   0  0  0  0  0  0
  -25.2761   -9.5693   22.4723 H   0  0  0  0  0  0
  -23.9994   -7.4648   22.7472 H   0  0  0  0  0  0
  -21.0824   -8.8750   19.8956 H   0  0  0  0  0  0
  -22.3680  -10.9641   19.6109 H   0  0  0  0  0  0
  -21.2008   -7.6142   23.9720 H   0  0  0  0  0  0
  -21.1476   -6.0511   25.9083 H   0  0  0  0  0  0
  -22.0595   -2.7600   23.2845 H   0  0  0  0  0  0
  -22.4106  -11.9921   22.4771 H   0  0  0  0  0  0
  -21.1117  -13.1289   22.2548 H   0  0  0  0  0  0
  -24.6730  -15.8456   20.5157 H   0  0  0  0  0  0
  -26.3032  -15.6253   20.1273 H   0  0  0  0  0  0
  -26.7080  -32.5581   23.1183 H   0  0  0  0  0  0
  -24.9997  -33.9798   25.0480 H   0  0  0  0  0  0
  -22.6871  -31.3086   21.4119 H   0  0  0  0  0  0
  -23.3745  -35.9663   23.3289 H   0  0  0  0  0  0
  -24.3588  -36.8976   22.2055 H   0  0  0  0  0  0
  -23.7209  -37.6533   23.6657 H   0  0  0  0  0  0
  -26.0272  -31.6008   20.5916 H   0  0  0  0  0  0
  -26.8155  -30.9059   21.9785 H   0  0  0  0  0  0
  -28.1021  -29.1269   21.1796 H   0  0  0  0  0  0
  -26.1063  -26.0017   18.9834 H   0  0  0  0  0  0
  -23.9919  -27.2944   19.0306 H   0  0  0  0  0  0
  -23.7235  -30.5958   19.4078 H   0  0  0  0  0  0
  -22.7357  -29.2409   19.8707 H   0  0  0  0  0  0
  -25.1259  -36.2007   25.0838 H   0  0  0  0  0  0
  -20.9926  -28.3212   24.1448 H   0  0  0  0  0  0
  -20.5646  -26.2264   23.3597 H   0  0  0  0  0  0
  -21.6634  -26.7463   22.1203 H   0  0  0  0  0  0
  -19.6931  -25.6292   21.1219 H   0  0  0  0  0  0
  -19.6688  -27.3183   20.6705 H   0  0  0  0  0  0
  -17.4192  -26.6644   21.3991 H   0  0  0  0  0  0
  -18.0343  -26.0036   22.8990 H   0  0  0  0  0  0
  -19.7923  -30.7207   24.2331 H   0  0  0  0  0  0
  -17.5009  -31.6270   24.5121 H   0  0  0  0  0  0
  -15.5336  -30.3000   23.7607 H   0  0  0  0  0  0
  -15.8636  -28.0801   22.7086 H   0  0  0  0  0  0
  -24.5952  -30.6963   25.7778 H   0  0  0  0  0  0
  -24.8898  -32.2754   26.4960 H   0  0  0  0  0  0
  -25.8128  -30.8768   27.0199 H   0  0  0  0  0  0
  -26.2822  -29.6796   24.1163 H   0  0  0  0  0  0
  -27.4106  -29.7276   25.4509 H   0  0  0  0  0  0
  -27.8636  -30.4358   23.9185 H   0  0  0  0  0  0
  -27.2716  -33.3579   26.2113 H   0  0  0  0  0  0
  -28.3869  -32.6842   25.0309 H   0  0  0  0  0  0
  -28.0735  -31.8357   26.5375 H   0  0  0  0  0  0
  -28.2570  -38.0147   24.7576 H   0  0  0  0  0  0
  -28.1114  -36.2685   24.6184 H   0  0  0  0  0  0
  -27.2321  -37.1351   25.8862 H   0  0  0  0  0  0
  -20.9299  -29.8749   21.6947 H   0  0  0  0  0  0
  -26.0173  -38.2902   24.1468 H   0  0  0  0  0  0
  -29.0526  -18.7942   24.1985 H   0  0  0  0  0  0
  -32.3251  -19.3188   21.4239 H   0  0  0  0  0  0
  -28.7562  -16.4900   23.4072 H   0  0  0  0  0  0
  -32.0160  -17.0452   20.6057 H   0  0  0  0  0  0
  -31.2600  -24.4887   18.3877 H   0  0  0  0  0  0
  -30.5057  -25.9633   18.9187 H   0  0  0  0  0  0
  -29.5062  -24.5522   18.5472 H   0  0  0  0  0  0
  -31.9857  -20.8367   23.6158 H   0  0  0  0  0  0
  -30.4353  -20.7285   24.3973 H   0  0  0  0  0  0
  -29.6633  -22.5093   20.1576 H   0  0  0  0  0  0
  -31.2620  -22.6708   19.5225 H   0  0  0  0  0  0
  -28.5099  -24.3710   20.9567 H   0  0  0  0  0  0
  -29.6486  -24.6496   22.2503 H   0  0  0  0  0  0
  -31.9639  -23.0164   22.1198 H   0  0  0  0  0  0
  -31.9728  -21.5307   21.2286 H   0  0  0  0  0  0
  -30.0682  -27.0083   21.1622 H   0  0  0  0  0  0
  -28.5842  -26.7220   22.0524 H   0  0  0  0  0  0
  -29.3373  -14.7747   22.0303 H   0  0  0  0  0  0
  -30.0001  -22.4353   23.1455 H   0  0  0  0  0  0
  -29.5768  -21.3015   22.0571 H   0  0  0  0  0  0
  1 25  1  0  0  0
  1 30  2  0  0  0
  1 83  1  0  0  0
  2  3  1  0  0  0
  2 25  1  0  0  0
  2 86  1  0  0  0
  2 87  1  0  0  0
  3  4  1  0  0  0
  3 88  1  0  0  0
  3 89  1  0  0  0
  4  5  1  0  0  0
  4 90  1  0  0  0
  4 91  1  0  0  0
  5  6  1  0  0  0
  5 26  1  0  0  0
  5 92  1  0  0  0
  6 25  1  0  0  0
  6 93  1  0  0  0
  6 94  1  0  0  0
  7  8  2  0  0  0
  7 26  1  0  0  0
  7 29  1  0  0  0
  8  9  1  0  0  0
  8 22  1  0  0  0
  9 10  1  0  0  0
  9 27  2  0  0  0
 10 11  2  0  0  0
 10 15  1  0  0  0
 11 12  1  0  0  0
 11 95  1  0  0  0
 12 13  2  0  0  0
 12 96  1  0  0  0
 13 14  1  0  0  0
 13 31  1  0  0  0
 14 15  2  0  0  0
 14 97  1  0  0  0
 15 98  1  0  0  0
 16 17  2  0  0  0
 16 21  1  0  0  0
 16 31  1  0  0  0
 17 18  1  0  0  0
 17 99  1  0  0  0
 18 19  2  0  0  0
 18100  1  0  0  0
 19 20  1  0  0  0
 19 24  1  0  0  0
 20 21  2  0  0  0
 20101  1  0  0  0
 21 23  1  0  0  0
 22 28  1  0  0  0
 22 32  2  0  0  0
 26 27  1  0  0  0
 28102  1  0  0  0
 28103  1  0  0  0
 29104  1  0  0  0
 29105  1  0  0  0
 33 34  1  0  0  0
 33 66  1  0  0  0
 33 70  2  0  0  0
 34 36  1  0  0  0
 34 59  1  0  0  0
 34106  1  0  0  0
 35 44  2  0  0  0
 35 45  1  0  0  0
 35 68  1  0  0  0
 36 56  1  0  0  0
 36107  1  0  0  0
 37 39  1  0  0  0
 37 47  1  0  0  0
 37 66  1  0  0  0
 37108  1  0  0  0
 38 43  2  0  0  0
 38 46  1  0  0  0
 38 47  1  0  0  0
 39 64  1  0  0  0
 39 67  2  0  0  0
 40 52  1  0  0  0
 40 53  2  0  0  0
 40 58  1  0  0  0
 41109  1  0  0  0
 41110  1  0  0  0
 41111  1  0  0  0
 41 48  1  0  0  0
 42 43  1  0  0  0
 42 66  1  0  0  0
 42112  1  0  0  0
 42113  1  0  0  0
 43 44  1  0  0  0
 44114  1  0  0  0
 45 46  2  0  0  0
 45115  1  0  0  0
 46116  1  0  0  0
 47117  1  0  0  0
 47118  1  0  0  0
 48 56  1  0  0  0
 48 65  1  0  0  0
 48119  1  0  0  0
 49 50  1  0  0  0
 49 53  1  0  0  0
 49 64  1  0  0  0
 49120  1  0  0  0
 50 51  1  0  0  0
 50121  1  0  0  0
 50122  1  0  0  0
 51 52  1  0  0  0
 51123  1  0  0  0
 51124  1  0  0  0
 52125  1  0  0  0
 52126  1  0  0  0
 53 54  1  0  0  0
 54 55  2  0  0  0
 54127  1  0  0  0
 55 57  1  0  0  0
 55128  1  0  0  0
 56 69  2  0  0  0
 57 58  2  0  0  0
 57129  1  0  0  0
 58130  1  0  0  0
 59 60  1  0  0  0
 59 61  1  0  0  0
 59 62  1  0  0  0
 60131  1  0  0  0
 60132  1  0  0  0
 60133  1  0  0  0
 61134  1  0  0  0
 61135  1  0  0  0
 61136  1  0  0  0
 62137  1  0  0  0
 62138  1  0  0  0
 62139  1  0  0  0
 63 65  1  0  0  0
 63140  1  0  0  0
 63141  1  0  0  0
 63142  1  0  0  0
 64143  1  0  0  0
 65144  1  0  0  0
 68 82  1  0  0  0
 71 73  2  0  0  0
 71 75  1  0  0  0
 71145  1  0  0  0
 72 74  1  0  0  0
 72 75  2  0  0  0
 72146  1  0  0  0
 73 76  1  0  0  0
 73147  1  0  0  0
 74 76  2  0  0  0
 74148  1  0  0  0
 75 78  1  0  0  0
 76 83  1  0  0  0
 77 84  1  0  0  0
 77149  1  0  0  0
 77150  1  0  0  0
 77151  1  0  0  0
 78 85  1  0  0  0
 78152  1  0  0  0
 78153  1  0  0  0
 79 81  1  0  0  0
 79 84  1  0  0  0
 79154  1  0  0  0
 79155  1  0  0  0
 80 82  1  0  0  0
 80 84  1  0  0  0
 80156  1  0  0  0
 80157  1  0  0  0
 81 85  1  0  0  0
 81158  1  0  0  0
 81159  1  0  0  0
 82160  1  0  0  0
 82161  1  0  0  0
 83162  1  0  0  0
 85163  1  0  0  0
 85164  1  0  0  0
M  CHG  1  85   1
M  ISO  4   1 100  68 101  82 101  83 100
M  END
> <chiral flag>
0

> <version>
0

> <s_m_source_file>
/data/baiqing/PycharmProjects/Reinvent-master-3.2/result/LINK_invent/BTK/process_docking_weight1_custom_sum_contain_oxygen_bond_distance_aromatic_linkinvent_7_9_3/rearranged_h_0114.sdf

> <i_m_source_file_index>
61

> <r_mmod_Potential_Energy-OPLS-2005>
-199.31867980957

> <r_mmod_Stretch_Energy-OPLS-2005>
37.4398498535156

> <r_mmod_Bend_Energy-OPLS-2005>
114.417945861816

> <r_mmod_Torsional_Energy-OPLS-2005>
228.499221801758

> <r_mmod_Improper_Torsional_Energy-OPLS-2005>
2.03483819961548

> <r_mmod_Van_der_Waal_Energy-OPLS-2005>
159.814788818359

> <r_mmod_Electrostatic_Energy-OPLS-2005>
-274.786560058594

> <r_mmod_Solvation_Energy-OPLS-2005>
-474.033203125

> <b_mmod_Minimization_Converged-OPLS-2005>
0

> <r_mmod_RMS_Derivative-OPLS-2005>
2.45825576782227

$$$$
61
                    3D
 Structure written by MMmdl.
167175  0  0  1  0            999 V2000
  -30.7148  -14.4298   20.5730 C   0  0  0  0  0  0
  -30.4173  -12.2817   19.4131 C   0  0  0  0  0  0
  -29.4878  -12.5055   18.2016 C   0  0  0  0  0  0
  -28.0102  -12.3757   18.6187 C   0  0  0  0  0  0
  -27.6663  -13.2057   19.8863 C   0  0  2  0  0  0
  -28.7105  -12.9625   21.0011 C   0  0  0  0  0  0
  -25.2620  -13.8167   20.5737 C   0  0  0  0  0  0
  -24.1859  -13.0439   20.9189 C   0  0  0  0  0  0
  -24.6409  -11.6904   20.8762 C   0  0  0  0  0  0
  -23.9067  -10.4290   21.0409 C   0  0  0  0  0  0
  -24.3613   -9.4209   21.9189 C   0  0  0  0  0  0
  -23.6301   -8.2234   22.0747 C   0  0  0  0  0  0
  -22.4279   -8.0271   21.3540 C   0  0  0  0  0  0
  -21.9909   -9.0250   20.4640 C   0  0  0  0  0  0
  -22.7235  -10.2136   20.3066 C   0  0  0  0  0  0
  -21.6852   -6.0744   22.5275 C   0  0  0  0  0  0
  -21.4022   -6.5642   23.8217 C   0  0  0  0  0  0
  -21.3648   -5.6792   24.9172 C   0  0  0  0  0  0
  -21.6048   -4.3051   24.7225 C   0  0  0  0  0  0
  -21.8811   -3.8145   23.4344 C   0  0  0  0  0  0
  -21.9194   -4.6975   22.3400 C   0  0  0  0  0  0
  -22.7883  -13.5243   21.1853 C   0  0  0  0  0  0
  -22.1661   -4.2144   21.0989 F   0  0  0  0  0  0
  -21.5614   -3.4540   25.7747 F   0  0  0  0  0  0
  -30.0436  -13.2557   20.4493 N   0  0  0  0  0  0
  -26.3055  -12.9334   20.3438 N   0  0  0  0  0  0
  -25.9336  -11.6490   20.5802 N   0  0  0  0  0  0
  -22.0517  -12.8236   22.0406 N   0  0  0  0  0  0
  -25.4316  -15.1881   20.4110 N   0  0  0  0  0  0
  -31.8212  -14.6294   20.0638 O   0  0  0  0  0  0
  -21.6624   -6.8885   21.4243 O   0  0  0  0  0  0
  -22.3564  -14.5532   20.6668 O   0  0  0  0  0  0
  -24.6137  -31.8682   23.2085 C   0  0  0  0  0  0
  -25.9036  -32.4842   23.8375 C   0  0  1  0  0  0
  -27.2394  -27.4375   20.0937 C   0  0  0  0  0  0
  -25.5895  -33.8635   24.2322 N   0  0  0  0  0  0
  -23.4000  -30.4905   21.5491 C   0  0  2  0  0  0
  -24.8468  -28.9570   20.1128 C   0  0  0  0  0  0
  -22.7395  -29.4674   22.5003 C   0  0  0  0  0  0
  -18.0261  -28.1385   22.8525 C   0  0  0  0  0  0
  -24.1469  -36.7270   23.2642 C   0  0  0  0  0  0
  -25.9286  -30.8358   21.3620 C   0  0  0  0  0  0
  -26.0042  -29.4709   20.7066 C   0  0  0  0  0  0
  -27.1989  -28.7179   20.6931 C   0  0  0  0  0  0
  -26.0607  -26.9401   19.4894 C   0  0  0  0  0  0
  -24.8706  -27.6938   19.4959 C   0  0  0  0  0  0
  -23.6063  -29.8195   20.1652 C   0  0  0  0  0  0
  -25.4101  -36.3115   24.0346 C   0  0  1  0  0  0
  -20.5866  -28.3659   23.1341 C   0  0  2  0  0  0
  -20.6749  -26.9399   22.5441 C   0  0  0  0  0  0
  -19.5719  -26.6398   21.5232 C   0  0  0  0  0  0
  -18.1891  -26.7939   22.1652 C   0  0  0  0  0  0
  -19.1518  -28.8835   23.2934 C   0  0  0  0  0  0
  -18.9449  -30.1443   23.8939 C   0  0  0  0  0  0
  -17.6451  -30.6598   24.0566 C   0  0  0  0  0  0
  -25.9034  -34.9490   23.5128 C   0  0  0  0  0  0
  -16.5339  -29.9097   23.6338 C   0  0  0  0  0  0
  -16.7250  -28.6517   23.0365 C   0  0  0  0  0  0
  -26.4476  -31.6629   25.0703 C   0  0  0  0  0  0
  -25.3740  -31.3703   26.1438 C   0  0  0  0  0  0
  -27.0304  -30.3074   24.6087 C   0  0  0  0  0  0
  -27.6070  -32.4324   25.7456 C   0  0  0  0  0  0
  -27.5564  -37.1783   24.8482 C   0  0  0  0  0  0
  -21.4132  -29.3022   22.3734 N   0  0  0  0  0  0
  -26.4285  -37.3800   23.9427 N   0  0  0  0  0  0
  -24.6643  -31.0803   22.0964 N   0  0  0  0  0  0
  -23.4173  -28.8228   23.3052 O   0  0  0  0  0  0
  -28.4380  -26.7494   20.1442 O   0  0  0  0  0  0
  -26.5614  -34.8934   22.4703 O   0  0  0  0  0  0
  -23.5335  -32.1436   23.7486 O   0  0  0  0  0  0
  -26.9521  -19.5793   21.0130 C   0  0  0  0  0  0
  -27.5492  -18.4526   21.5065 C   0  0  0  0  0  0
  -29.1202  -20.0235   21.2869 C   0  0  0  0  0  0
  -27.9464  -20.5855   20.8582 C   0  0  0  0  0  0
  -28.5673  -24.8782   18.5913 C   0  0  0  0  0  0
  -31.1186  -18.5059   22.7907 C   0  0  0  0  0  0
  -29.2991  -16.9368   23.3891 C   0  0  0  0  0  0
  -27.7503  -21.9871   20.3134 C   0  0  0  0  0  0
  -27.9355  -23.0697   21.3992 C   0  0  0  0  0  0
  -30.3903  -16.8482   21.0414 C   0  0  0  0  0  0
  -28.5482  -25.3098   20.0640 C   0  0  1  0  0  0
  -27.5966  -24.5490   21.0404 C   0  0  2  0  0  0
  -29.8981  -17.7525   22.2177 C   0  0  0  0  0  0
  -28.8934  -18.7181   21.7179 N   0  0  0  0  0  0
  -30.0307  -15.4273   21.1486 N   0  0  0  0  0  0
  -27.7549  -25.2529   22.2564 O   0  0  0  0  0  0
  -31.4607  -12.3729   19.1076 H   0  0  0  0  0  0
  -30.3094  -11.2666   19.7984 H   0  0  0  0  0  0
  -29.7143  -11.7862   17.4131 H   0  0  0  0  0  0
  -29.6635  -13.4944   17.7748 H   0  0  0  0  0  0
  -27.8159  -11.3194   18.8054 H   0  0  0  0  0  0
  -27.3572  -12.6626   17.7920 H   0  0  0  0  0  0
  -27.7171  -14.2571   19.6050 H   0  0  0  0  0  0
  -28.6825  -11.9225   21.3299 H   0  0  0  0  0  0
  -28.4858  -13.5510   21.8916 H   0  0  0  0  0  0
  -25.2760   -9.5663   22.4762 H   0  0  0  0  0  0
  -23.9986   -7.4626   22.7462 H   0  0  0  0  0  0
  -21.0831   -8.8788   19.8960 H   0  0  0  0  0  0
  -22.3698  -10.9684   19.6166 H   0  0  0  0  0  0
  -21.2027   -7.6152   23.9718 H   0  0  0  0  0  0
  -21.1472   -6.0525   25.9075 H   0  0  0  0  0  0
  -22.0604   -2.7606   23.2850 H   0  0  0  0  0  0
  -22.4137  -11.9921   22.4835 H   0  0  0  0  0  0
  -21.1125  -13.1253   22.2590 H   0  0  0  0  0  0
  -24.6574  -15.8368   20.5095 H   0  0  0  0  0  0
  -26.2697  -15.6230   20.0494 H   0  0  0  0  0  0
  -26.7096  -32.5555   23.1117 H   0  0  0  0  0  0
  -25.0034  -33.9802   25.0462 H   0  0  0  0  0  0
  -22.6885  -31.3057   21.4087 H   0  0  0  0  0  0
  -23.3755  -35.9577   23.3356 H   0  0  0  0  0  0
  -24.3542  -36.8836   22.2042 H   0  0  0  0  0  0
  -23.7181  -37.6466   23.6628 H   0  0  0  0  0  0
  -26.0456  -31.6042   20.5958 H   0  0  0  0  0  0
  -26.8139  -30.8841   21.9849 H   0  0  0  0  0  0
  -28.0923  -29.1191   21.1544 H   0  0  0  0  0  0
  -26.0312  -25.9789   19.0078 H   0  0  0  0  0  0
  -23.9822  -27.2956   19.0261 H   0  0  0  0  0  0
  -23.7005  -30.5876   19.3968 H   0  0  0  0  0  0
  -22.7338  -29.2297   19.8809 H   0  0  0  0  0  0
  -25.1269  -36.1975   25.0836 H   0  0  0  0  0  0
  -20.9960  -28.3209   24.1459 H   0  0  0  0  0  0
  -20.5631  -26.2255   23.3615 H   0  0  0  0  0  0
  -21.6608  -26.7419   22.1226 H   0  0  0  0  0  0
  -19.6854  -25.6306   21.1229 H   0  0  0  0  0  0
  -19.6653  -27.3236   20.6776 H   0  0  0  0  0  0
  -17.4162  -26.6708   21.4048 H   0  0  0  0  0  0
  -18.0282  -26.0066   22.9035 H   0  0  0  0  0  0
  -19.7914  -30.7249   24.2337 H   0  0  0  0  0  0
  -17.5000  -31.6288   24.5142 H   0  0  0  0  0  0
  -15.5337  -30.3009   23.7638 H   0  0  0  0  0  0
  -15.8654  -28.0832   22.7082 H   0  0  0  0  0  0
  -24.5920  -30.7067   25.7723 H   0  0  0  0  0  0
  -24.8931  -32.2851   26.4901 H   0  0  0  0  0  0
  -25.8088  -30.8822   27.0173 H   0  0  0  0  0  0
  -26.2840  -29.6819   24.1173 H   0  0  0  0  0  0
  -27.4087  -29.7321   25.4546 H   0  0  0  0  0  0
  -27.8676  -30.4372   23.9227 H   0  0  0  0  0  0
  -27.2724  -33.3607   26.2078 H   0  0  0  0  0  0
  -28.3863  -32.6898   25.0278 H   0  0  0  0  0  0
  -28.0765  -31.8417   26.5322 H   0  0  0  0  0  0
  -28.2629  -38.0033   24.7527 H   0  0  0  0  0  0
  -28.1013  -36.2577   24.6335 H   0  0  0  0  0  0
  -27.2291  -37.1476   25.8887 H   0  0  0  0  0  0
  -20.9279  -29.8728   21.6958 H   0  0  0  0  0  0
  -26.0176  -38.2876   24.1436 H   0  0  0  0  0  0
  -25.9016  -19.6610   20.7685 H   0  0  0  0  0  0
  -27.1257  -17.4808   21.7253 H   0  0  0  0  0  0
  -30.1083  -20.4600   21.3221 H   0  0  0  0  0  0
  -28.8768  -23.8451   18.4690 H   0  0  0  0  0  0
  -29.3101  -25.4750   18.0599 H   0  0  0  0  0  0
  -27.6155  -24.9930   18.0775 H   0  0  0  0  0  0
  -31.8354  -17.8102   23.2271 H   0  0  0  0  0  0
  -30.8308  -19.2099   23.5726 H   0  0  0  0  0  0
  -31.6629  -19.0568   22.0241 H   0  0  0  0  0  0
  -28.9663  -17.5954   24.1911 H   0  0  0  0  0  0
  -30.0372  -16.2559   23.8166 H   0  0  0  0  0  0
  -28.4423  -16.3329   23.0979 H   0  0  0  0  0  0
  -26.7680  -22.0607   19.8446 H   0  0  0  0  0  0
  -28.4832  -22.1039   19.5218 H   0  0  0  0  0  0
  -28.9529  -23.0030   21.7888 H   0  0  0  0  0  0
  -27.2842  -22.7788   22.2266 H   0  0  0  0  0  0
  -31.4727  -16.9417   20.9308 H   0  0  0  0  0  0
  -29.9895  -17.2093   20.0921 H   0  0  0  0  0  0
  -29.5596  -25.1113   20.4215 H   0  0  0  0  0  0
  -26.5531  -24.6281   20.7401 H   0  0  0  0  0  0
  -29.1382  -15.2011   21.5606 H   0  0  0  0  0  0
  -27.8271  -26.1739   22.0017 H   0  0  0  0  0  0
  1 25  1  0  0  0
  1 30  2  0  0  0
  1 85  1  0  0  0
  2  3  1  0  0  0
  2 25  1  0  0  0
  2 87  1  0  0  0
  2 88  1  0  0  0
  3  4  1  0  0  0
  3 89  1  0  0  0
  3 90  1  0  0  0
  4  5  1  0  0  0
  4 91  1  0  0  0
  4 92  1  0  0  0
  5  6  1  0  0  0
  5 26  1  0  0  0
  5 93  1  0  0  0
  6 25  1  0  0  0
  6 94  1  0  0  0
  6 95  1  0  0  0
  7  8  2  0  0  0
  7 26  1  0  0  0
  7 29  1  0  0  0
  8  9  1  0  0  0
  8 22  1  0  0  0
  9 10  1  0  0  0
  9 27  2  0  0  0
 10 11  2  0  0  0
 10 15  1  0  0  0
 11 12  1  0  0  0
 11 96  1  0  0  0
 12 13  2  0  0  0
 12 97  1  0  0  0
 13 14  1  0  0  0
 13 31  1  0  0  0
 14 15  2  0  0  0
 14 98  1  0  0  0
 15 99  1  0  0  0
 16 17  2  0  0  0
 16 21  1  0  0  0
 16 31  1  0  0  0
 17 18  1  0  0  0
 17100  1  0  0  0
 18 19  2  0  0  0
 18101  1  0  0  0
 19 20  1  0  0  0
 19 24  1  0  0  0
 20 21  2  0  0  0
 20102  1  0  0  0
 21 23  1  0  0  0
 22 28  1  0  0  0
 22 32  2  0  0  0
 26 27  1  0  0  0
 28103  1  0  0  0
 28104  1  0  0  0
 29105  1  0  0  0
 29106  1  0  0  0
 33 34  1  0  0  0
 33 66  1  0  0  0
 33 70  2  0  0  0
 34 36  1  0  0  0
 34 59  1  0  0  0
 34107  1  0  0  0
 35 44  2  0  0  0
 35 45  1  0  0  0
 35 68  1  0  0  0
 36 56  1  0  0  0
 36108  1  0  0  0
 37 39  1  0  0  0
 37 47  1  0  0  0
 37 66  1  0  0  0
 37109  1  0  0  0
 38 43  2  0  0  0
 38 46  1  0  0  0
 38 47  1  0  0  0
 39 64  1  0  0  0
 39 67  2  0  0  0
 40 52  1  0  0  0
 40 53  2  0  0  0
 40 58  1  0  0  0
 41110  1  0  0  0
 41111  1  0  0  0
 41112  1  0  0  0
 41 48  1  0  0  0
 42 43  1  0  0  0
 42 66  1  0  0  0
 42113  1  0  0  0
 42114  1  0  0  0
 43 44  1  0  0  0
 44115  1  0  0  0
 45 46  2  0  0  0
 45116  1  0  0  0
 46117  1  0  0  0
 47118  1  0  0  0
 47119  1  0  0  0
 48 56  1  0  0  0
 48 65  1  0  0  0
 48120  1  0  0  0
 49 50  1  0  0  0
 49 53  1  0  0  0
 49 64  1  0  0  0
 49121  1  0  0  0
 50 51  1  0  0  0
 50122  1  0  0  0
 50123  1  0  0  0
 51 52  1  0  0  0
 51124  1  0  0  0
 51125  1  0  0  0
 52126  1  0  0  0
 52127  1  0  0  0
 53 54  1  0  0  0
 54 55  2  0  0  0
 54128  1  0  0  0
 55 57  1  0  0  0
 55129  1  0  0  0
 56 69  2  0  0  0
 57 58  2  0  0  0
 57130  1  0  0  0
 58131  1  0  0  0
 59 60  1  0  0  0
 59 61  1  0  0  0
 59 62  1  0  0  0
 60132  1  0  0  0
 60133  1  0  0  0
 60134  1  0  0  0
 61135  1  0  0  0
 61136  1  0  0  0
 61137  1  0  0  0
 62138  1  0  0  0
 62139  1  0  0  0
 62140  1  0  0  0
 63 65  1  0  0  0
 63141  1  0  0  0
 63142  1  0  0  0
 63143  1  0  0  0
 64144  1  0  0  0
 65145  1  0  0  0
 68 81  1  0  0  0
 71 72  2  0  0  0
 71 74  1  0  0  0
 71146  1  0  0  0
 72 84  1  0  0  0
 72147  1  0  0  0
 73 74  2  0  0  0
 73 84  1  0  0  0
 73148  1  0  0  0
 74 78  1  0  0  0
 75149  1  0  0  0
 75150  1  0  0  0
 75151  1  0  0  0
 75 81  1  0  0  0
 76152  1  0  0  0
 76153  1  0  0  0
 76154  1  0  0  0
 76 83  1  0  0  0
 77 83  1  0  0  0
 77155  1  0  0  0
 77156  1  0  0  0
 77157  1  0  0  0
 78 79  1  0  0  0
 78158  1  0  0  0
 78159  1  0  0  0
 79 82  1  0  0  0
 79160  1  0  0  0
 79161  1  0  0  0
 80 83  1  0  0  0
 80 85  1  0  0  0
 80162  1  0  0  0
 80163  1  0  0  0
 81 82  1  0  0  0
 81164  1  0  0  0
 82 86  1  0  0  0
 82165  1  0  0  0
 83 84  1  0  0  0
 85166  1  0  0  0
 86167  1  0  0  0
M  ISO  4   1 100  68 101  81 101  85 100
M  END
> <chiral flag>
0

> <version>
0

> <s_m_source_file>
/data/baiqing/PycharmProjects/Reinvent-master-3.2/result/LINK_invent/BTK/process_docking_weight1_custom_sum_contain_oxygen_bond_distance_aromatic_linkinvent_7_9_3/rearranged_h_0114.sdf

> <i_m_source_file_index>
62

> <r_mmod_Potential_Energy-OPLS-2005>
-96.9336090087891

> <r_mmod_Stretch_Energy-OPLS-2005>
39.564453125

> <r_mmod_Bend_Energy-OPLS-2005>
129.549224853516

> <r_mmod_Torsional_Energy-OPLS-2005>
270.33984375

> <r_mmod_Improper_Torsional_Energy-OPLS-2005>
4.18240785598755

> <r_mmod_Van_der_Waal_Energy-OPLS-2005>
144.352386474609

> <r_mmod_Electrostatic_Energy-OPLS-2005>
-487.257537841797

> <r_mmod_Solvation_Energy-OPLS-2005>
-208.934020996094

> <b_mmod_Minimization_Converged-OPLS-2005>
0

> <r_mmod_RMS_Derivative-OPLS-2005>
4.2520170211792

$$$$
62
                    3D
 Structure written by MMmdl.
164172  0  0  1  0            999 V2000
  -30.6563  -14.6795   20.5549 C   0  0  0  0  0  0
  -30.4142  -12.4429   19.4756 C   0  0  0  0  0  0
  -29.4997  -12.5035   18.2329 C   0  0  0  0  0  0
  -28.0278  -12.3272   18.6419 C   0  0  0  0  0  0
  -27.6349  -13.2251   19.8442 C   0  0  2  0  0  0
  -28.6681  -13.1732   20.9867 C   0  0  0  0  0  0
  -25.2496  -13.8175   20.5640 C   0  0  0  0  0  0
  -24.1799  -13.0473   20.9137 C   0  0  0  0  0  0
  -24.6346  -11.6913   20.8668 C   0  0  0  0  0  0
  -23.9005  -10.4315   21.0364 C   0  0  0  0  0  0
  -24.3562   -9.4260   21.9176 C   0  0  0  0  0  0
  -23.6265   -8.2288   22.0781 C   0  0  0  0  0  0
  -22.4256   -8.0271   21.3568 C   0  0  0  0  0  0
  -21.9859   -9.0232   20.4687 C   0  0  0  0  0  0
  -22.7160  -10.2119   20.3068 C   0  0  0  0  0  0
  -21.6868   -6.0712   22.5271 C   0  0  0  0  0  0
  -21.3988   -6.5637   23.8189 C   0  0  0  0  0  0
  -21.3629   -5.6800   24.9164 C   0  0  0  0  0  0
  -21.6039   -4.3070   24.7221 C   0  0  0  0  0  0
  -21.8829   -3.8147   23.4362 C   0  0  0  0  0  0
  -21.9220   -4.6941   22.3413 C   0  0  0  0  0  0
  -22.7841  -13.5247   21.1874 C   0  0  0  0  0  0
  -22.1702   -4.2112   21.0991 F   0  0  0  0  0  0
  -21.5616   -3.4578   25.7756 F   0  0  0  0  0  0
  -29.9685  -13.5008   20.4080 N   0  0  0  0  0  0
  -26.2892  -12.9349   20.3213 N   0  0  0  0  0  0
  -25.9263  -11.6500   20.5675 N   0  0  0  0  0  0
  -22.0546  -12.8197   22.0407 N   0  0  0  0  0  0
  -25.4350  -15.1868   20.4008 N   0  0  0  0  0  0
  -31.8759  -14.6888   20.3639 O   0  0  0  0  0  0
  -21.6680   -6.8831   21.4228 O   0  0  0  0  0  0
  -22.3530  -14.5620   20.6820 O   0  0  0  0  0  0
  -24.6267  -31.8609   23.1903 C   0  0  0  0  0  0
  -25.9122  -32.4765   23.8257 C   0  0  1  0  0  0
  -27.2240  -27.2913   20.1733 C   0  0  0  0  0  0
  -25.5942  -33.8561   24.2206 N   0  0  0  0  0  0
  -23.4191  -30.4768   21.5367 C   0  0  2  0  0  0
  -24.8744  -28.9292   20.0984 C   0  0  0  0  0  0
  -22.7489  -29.4630   22.4944 C   0  0  0  0  0  0
  -18.0287  -28.1367   22.8504 C   0  0  0  0  0  0
  -24.1482  -36.7369   23.2636 C   0  0  0  0  0  0
  -25.9586  -30.7839   21.3598 C   0  0  0  0  0  0
  -26.0352  -29.4041   20.7231 C   0  0  0  0  0  0
  -27.2092  -28.5941   20.7531 C   0  0  0  0  0  0
  -26.0549  -26.8822   19.4899 C   0  0  0  0  0  0
  -24.8929  -27.6783   19.4604 C   0  0  0  0  0  0
  -23.6284  -29.7956   20.1571 C   0  0  0  0  0  0
  -25.4102  -36.3080   24.0294 C   0  0  1  0  0  0
  -20.5892  -28.3703   23.1285 C   0  0  2  0  0  0
  -20.6800  -26.9429   22.5419 C   0  0  0  0  0  0
  -19.5754  -26.6366   21.5243 C   0  0  0  0  0  0
  -18.1933  -26.7929   22.1625 C   0  0  0  0  0  0
  -19.1544  -28.8851   23.2882 C   0  0  0  0  0  0
  -18.9452  -30.1458   23.8858 C   0  0  0  0  0  0
  -17.6442  -30.6577   24.0557 C   0  0  0  0  0  0
  -25.9031  -34.9443   23.5050 C   0  0  0  0  0  0
  -16.5340  -29.9076   23.6340 C   0  0  0  0  0  0
  -16.7281  -28.6491   23.0371 C   0  0  0  0  0  0
  -26.4406  -31.6586   25.0641 C   0  0  0  0  0  0
  -25.3554  -31.3796   26.1310 C   0  0  0  0  0  0
  -27.0261  -30.3010   24.6117 C   0  0  0  0  0  0
  -27.5937  -32.4364   25.7451 C   0  0  0  0  0  0
  -27.5563  -37.1812   24.8429 C   0  0  0  0  0  0
  -21.4200  -29.3069   22.3699 N   0  0  0  0  0  0
  -26.4269  -37.3779   23.9377 N   0  0  0  0  0  0
  -24.6883  -31.0583   22.0877 N   0  0  0  0  0  0
  -23.4229  -28.8190   23.3021 O   0  0  0  0  0  0
  -28.3214  -26.4152   20.2621 O   0  0  0  0  0  0
  -26.5572  -34.8929   22.4603 O   0  0  0  0  0  0
  -23.5420  -32.1441   23.7187 O   0  0  0  0  0  0
  -30.4250  -16.4526   18.9573 C   0  0  0  0  0  0
  -29.3304  -16.9377   21.0849 C   0  0  0  0  0  0
  -31.4385  -17.6209   19.1772 C   0  0  0  0  0  0
  -29.6136  -18.4627   20.5906 C   0  0  1  0  0  0
  -29.9513  -22.4884   22.6394 C   0  0  0  0  0  0
  -28.1781  -21.2165   19.5873 C   0  0  0  0  0  0
  -29.0933  -19.7976   21.3675 C   0  0  0  0  0  0
  -29.1578  -23.8748   20.6220 C   0  0  0  0  0  0
  -28.0707  -25.0447   20.8053 C   0  0  0  0  0  0
  -28.9959  -22.4632   21.4263 C   0  0  1  0  0  0
  -29.9744  -15.8465   20.2237 N   0  0  0  0  0  0
  -29.1829  -21.1556   20.6589 N   0  0  0  0  0  0
  -31.0664  -18.4874   20.3345 N   0  3  0  0  0  0
  -31.4566  -12.5630   19.1811 H   0  0  0  0  0  0
  -30.3468  -11.4641   19.9547 H   0  0  0  0  0  0
  -29.7818  -11.7330   17.5144 H   0  0  0  0  0  0
  -29.6310  -13.4573   17.7156 H   0  0  0  0  0  0
  -27.8818  -11.2782   18.8940 H   0  0  0  0  0  0
  -27.3727  -12.5327   17.7955 H   0  0  0  0  0  0
  -27.6294  -14.2452   19.4598 H   0  0  0  0  0  0
  -28.6854  -12.1876   21.4516 H   0  0  0  0  0  0
  -28.4006  -13.8808   21.7718 H   0  0  0  0  0  0
  -25.2692   -9.5769   22.4749 H   0  0  0  0  0  0
  -24.0019   -7.4676   22.7481 H   0  0  0  0  0  0
  -21.0823   -8.8683   19.8976 H   0  0  0  0  0  0
  -22.3574  -10.9636   19.6177 H   0  0  0  0  0  0
  -21.1944   -7.6138   23.9636 H   0  0  0  0  0  0
  -21.1432   -6.0576   25.9043 H   0  0  0  0  0  0
  -22.0627   -2.7611   23.2898 H   0  0  0  0  0  0
  -22.4219  -11.9741   22.4535 H   0  0  0  0  0  0
  -21.1220  -13.1247   22.2837 H   0  0  0  0  0  0
  -24.6727  -15.8531   20.4477 H   0  0  0  0  0  0
  -26.2953  -15.5888   20.0494 H   0  0  0  0  0  0
  -26.7193  -32.5401   23.1042 H   0  0  0  0  0  0
  -25.0212  -33.9686   25.0433 H   0  0  0  0  0  0
  -22.7110  -31.2964   21.3900 H   0  0  0  0  0  0
  -23.3667  -35.9770   23.3268 H   0  0  0  0  0  0
  -24.3598  -36.9044   22.2058 H   0  0  0  0  0  0
  -23.7305  -37.6597   23.6707 H   0  0  0  0  0  0
  -26.0661  -31.5226   20.5631 H   0  0  0  0  0  0
  -26.8478  -30.8626   21.9701 H   0  0  0  0  0  0
  -28.0936  -28.9418   21.2663 H   0  0  0  0  0  0
  -26.0247  -25.9266   18.9845 H   0  0  0  0  0  0
  -24.0149  -27.3203   18.9429 H   0  0  0  0  0  0
  -23.7069  -30.5551   19.3781 H   0  0  0  0  0  0
  -22.7527  -29.2002   19.8887 H   0  0  0  0  0  0
  -25.1274  -36.1919   25.0768 H   0  0  0  0  0  0
  -20.9961  -28.3263   24.1416 H   0  0  0  0  0  0
  -20.5782  -26.2285   23.3613 H   0  0  0  0  0  0
  -21.6671  -26.7504   22.1151 H   0  0  0  0  0  0
  -19.6921  -25.6282   21.1264 H   0  0  0  0  0  0
  -19.6685  -27.3173   20.6769 H   0  0  0  0  0  0
  -17.4244  -26.6728   21.3993 H   0  0  0  0  0  0
  -18.0274  -26.0031   22.8948 H   0  0  0  0  0  0
  -19.7917  -30.7302   24.2198 H   0  0  0  0  0  0
  -17.4995  -31.6265   24.5178 H   0  0  0  0  0  0
  -15.5354  -30.2952   23.7692 H   0  0  0  0  0  0
  -15.8670  -28.0796   22.7103 H   0  0  0  0  0  0
  -24.5746  -30.7152   25.7599 H   0  0  0  0  0  0
  -24.8682  -32.2994   26.4577 H   0  0  0  0  0  0
  -25.7709  -30.9047   27.0195 H   0  0  0  0  0  0
  -26.2827  -29.6757   24.1156 H   0  0  0  0  0  0
  -27.4010  -29.7276   25.4608 H   0  0  0  0  0  0
  -27.8655  -30.4319   23.9274 H   0  0  0  0  0  0
  -27.2515  -33.3733   26.1897 H   0  0  0  0  0  0
  -28.3776  -32.6854   25.0278 H   0  0  0  0  0  0
  -28.0535  -31.8567   26.5473 H   0  0  0  0  0  0
  -28.2530  -38.0155   24.7541 H   0  0  0  0  0  0
  -28.1099  -36.2690   24.6171 H   0  0  0  0  0  0
  -27.2278  -37.1371   25.8825 H   0  0  0  0  0  0
  -20.9380  -29.8848   21.6955 H   0  0  0  0  0  0
  -26.0135  -38.2846   24.1364 H   0  0  0  0  0  0
  -30.8237  -15.7113   18.2624 H   0  0  0  0  0  0
  -29.5301  -16.8097   18.4506 H   0  0  0  0  0  0
  -28.2550  -16.7500   21.1202 H   0  0  0  0  0  0
  -29.6752  -16.8163   22.1137 H   0  0  0  0  0  0
  -31.4577  -18.2388   18.2755 H   0  0  0  0  0  0
  -32.4586  -17.2394   19.2942 H   0  0  0  0  0  0
  -29.1310  -18.5639   19.6225 H   0  0  0  0  0  0
  -29.8354  -23.4154   23.2058 H   0  0  0  0  0  0
  -30.9950  -22.4303   22.3260 H   0  0  0  0  0  0
  -29.7597  -21.6885   23.3515 H   0  0  0  0  0  0
  -27.9837  -20.2646   19.1018 H   0  0  0  0  0  0
  -28.4866  -21.9048   18.7996 H   0  0  0  0  0  0
  -27.2127  -21.5706   19.9591 H   0  0  0  0  0  0
  -29.6167  -19.8435   22.3217 H   0  0  0  0  0  0
  -28.0424  -19.6377   21.6285 H   0  0  0  0  0  0
  -30.1307  -24.2944   20.8882 H   0  0  0  0  0  0
  -29.2536  -23.7088   19.5519 H   0  0  0  0  0  0
  -27.8690  -25.1596   21.8734 H   0  0  0  0  0  0
  -27.1444  -24.6527   20.3910 H   0  0  0  0  0  0
  -27.9907  -22.4496   21.8497 H   0  0  0  0  0  0
  -31.3915  -19.4348   20.2158 H   0  0  0  0  0  0
  -31.5173  -18.1275   21.1605 H   0  0  0  0  0  0
  1 25  1  0  0  0
  1 30  2  0  0  0
  1 81  1  0  0  0
  2  3  1  0  0  0
  2 25  1  0  0  0
  2 84  1  0  0  0
  2 85  1  0  0  0
  3  4  1  0  0  0
  3 86  1  0  0  0
  3 87  1  0  0  0
  4  5  1  0  0  0
  4 88  1  0  0  0
  4 89  1  0  0  0
  5  6  1  0  0  0
  5 26  1  0  0  0
  5 90  1  0  0  0
  6 25  1  0  0  0
  6 91  1  0  0  0
  6 92  1  0  0  0
  7  8  2  0  0  0
  7 26  1  0  0  0
  7 29  1  0  0  0
  8  9  1  0  0  0
  8 22  1  0  0  0
  9 10  1  0  0  0
  9 27  2  0  0  0
 10 11  2  0  0  0
 10 15  1  0  0  0
 11 12  1  0  0  0
 11 93  1  0  0  0
 12 13  2  0  0  0
 12 94  1  0  0  0
 13 14  1  0  0  0
 13 31  1  0  0  0
 14 15  2  0  0  0
 14 95  1  0  0  0
 15 96  1  0  0  0
 16 17  2  0  0  0
 16 21  1  0  0  0
 16 31  1  0  0  0
 17 18  1  0  0  0
 17 97  1  0  0  0
 18 19  2  0  0  0
 18 98  1  0  0  0
 19 20  1  0  0  0
 19 24  1  0  0  0
 20 21  2  0  0  0
 20 99  1  0  0  0
 21 23  1  0  0  0
 22 28  1  0  0  0
 22 32  2  0  0  0
 26 27  1  0  0  0
 28100  1  0  0  0
 28101  1  0  0  0
 29102  1  0  0  0
 29103  1  0  0  0
 33 34  1  0  0  0
 33 66  1  0  0  0
 33 70  2  0  0  0
 34 36  1  0  0  0
 34 59  1  0  0  0
 34104  1  0  0  0
 35 44  2  0  0  0
 35 45  1  0  0  0
 35 68  1  0  0  0
 36 56  1  0  0  0
 36105  1  0  0  0
 37 39  1  0  0  0
 37 47  1  0  0  0
 37 66  1  0  0  0
 37106  1  0  0  0
 38 43  2  0  0  0
 38 46  1  0  0  0
 38 47  1  0  0  0
 39 64  1  0  0  0
 39 67  2  0  0  0
 40 52  1  0  0  0
 40 53  2  0  0  0
 40 58  1  0  0  0
 41107  1  0  0  0
 41108  1  0  0  0
 41109  1  0  0  0
 41 48  1  0  0  0
 42 43  1  0  0  0
 42 66  1  0  0  0
 42110  1  0  0  0
 42111  1  0  0  0
 43 44  1  0  0  0
 44112  1  0  0  0
 45 46  2  0  0  0
 45113  1  0  0  0
 46114  1  0  0  0
 47115  1  0  0  0
 47116  1  0  0  0
 48 56  1  0  0  0
 48 65  1  0  0  0
 48117  1  0  0  0
 49 50  1  0  0  0
 49 53  1  0  0  0
 49 64  1  0  0  0
 49118  1  0  0  0
 50 51  1  0  0  0
 50119  1  0  0  0
 50120  1  0  0  0
 51 52  1  0  0  0
 51121  1  0  0  0
 51122  1  0  0  0
 52123  1  0  0  0
 52124  1  0  0  0
 53 54  1  0  0  0
 54 55  2  0  0  0
 54125  1  0  0  0
 55 57  1  0  0  0
 55126  1  0  0  0
 56 69  2  0  0  0
 57 58  2  0  0  0
 57127  1  0  0  0
 58128  1  0  0  0
 59 60  1  0  0  0
 59 61  1  0  0  0
 59 62  1  0  0  0
 60129  1  0  0  0
 60130  1  0  0  0
 60131  1  0  0  0
 61132  1  0  0  0
 61133  1  0  0  0
 61134  1  0  0  0
 62135  1  0  0  0
 62136  1  0  0  0
 62137  1  0  0  0
 63 65  1  0  0  0
 63138  1  0  0  0
 63139  1  0  0  0
 63140  1  0  0  0
 64141  1  0  0  0
 65142  1  0  0  0
 68 79  1  0  0  0
 71 73  1  0  0  0
 71 81  1  0  0  0
 71143  1  0  0  0
 71144  1  0  0  0
 72 74  1  0  0  0
 72 81  1  0  0  0
 72145  1  0  0  0
 72146  1  0  0  0
 73 83  1  0  0  0
 73147  1  0  0  0
 73148  1  0  0  0
 74 77  1  0  0  0
 74 83  1  0  0  0
 74149  1  0  0  0
 75150  1  0  0  0
 75151  1  0  0  0
 75152  1  0  0  0
 75 80  1  0  0  0
 76 82  1  0  0  0
 76153  1  0  0  0
 76154  1  0  0  0
 76155  1  0  0  0
 77 82  1  0  0  0
 77156  1  0  0  0
 77157  1  0  0  0
 78 79  1  0  0  0
 78 80  1  0  0  0
 78158  1  0  0  0
 78159  1  0  0  0
 79160  1  0  0  0
 79161  1  0  0  0
 80 82  1  0  0  0
 80162  1  0  0  0
 83163  1  0  0  0
 83164  1  0  0  0
M  CHG  1  83   1
M  ISO  4   1 100  68 101  79 101  81 100
M  END
> <chiral flag>
0

> <version>
0

> <s_m_source_file>
/data/baiqing/PycharmProjects/Reinvent-master-3.2/result/LINK_invent/BTK/process_docking_weight1_custom_sum_contain_oxygen_bond_distance_aromatic_linkinvent_7_9_3/rearranged_h_0114.sdf

> <i_m_source_file_index>
63

> <r_mmod_Potential_Energy-OPLS-2005>
275.021270751953

> <r_mmod_Stretch_Energy-OPLS-2005>
130.996520996094

> <r_mmod_Bend_Energy-OPLS-2005>
185.801422119141

> <r_mmod_Torsional_Energy-OPLS-2005>
417.548553466797

> <r_mmod_Improper_Torsional_Energy-OPLS-2005>
27.9550876617432

> <r_mmod_Van_der_Waal_Energy-OPLS-2005>
148.038864135742

> <r_mmod_Electrostatic_Energy-OPLS-2005>
-284.089935302734

> <r_mmod_Solvation_Energy-OPLS-2005>
-430.001739501953

> <b_mmod_Minimization_Converged-OPLS-2005>
0

> <r_mmod_RMS_Derivative-OPLS-2005>
8.14375877380371

$$$$
63
                    3D
 Structure written by MMmdl.
160169  0  0  1  0            999 V2000
  -30.6527  -14.5690   20.5213 C   0  0  0  0  0  0
  -30.4309  -12.3524   19.4457 C   0  0  0  0  0  0
  -29.5055  -12.5063   18.2195 C   0  0  0  0  0  0
  -28.0269  -12.3543   18.6275 C   0  0  0  0  0  0
  -27.6557  -13.2135   19.8656 C   0  0  2  0  0  0
  -28.6974  -13.0448   20.9952 C   0  0  0  0  0  0
  -25.2579  -13.8172   20.5691 C   0  0  0  0  0  0
  -24.1832  -13.0444   20.9186 C   0  0  0  0  0  0
  -24.6384  -11.6906   20.8717 C   0  0  0  0  0  0
  -23.9048  -10.4292   21.0389 C   0  0  0  0  0  0
  -24.3605   -9.4218   21.9173 C   0  0  0  0  0  0
  -23.6292   -8.2248   22.0756 C   0  0  0  0  0  0
  -22.4275   -8.0279   21.3546 C   0  0  0  0  0  0
  -21.9896   -9.0246   20.4646 C   0  0  0  0  0  0
  -22.7210  -10.2131   20.3049 C   0  0  0  0  0  0
  -21.6863   -6.0723   22.5274 C   0  0  0  0  0  0
  -21.4013   -6.5625   23.8203 C   0  0  0  0  0  0
  -21.3669   -5.6783   24.9171 C   0  0  0  0  0  0
  -21.6053   -4.3049   24.7224 C   0  0  0  0  0  0
  -21.8817   -3.8133   23.4344 C   0  0  0  0  0  0
  -21.9197   -4.6947   22.3399 C   0  0  0  0  0  0
  -22.7856  -13.5236   21.1845 C   0  0  0  0  0  0
  -22.1669   -4.2132   21.0980 F   0  0  0  0  0  0
  -21.5638   -3.4536   25.7742 F   0  0  0  0  0  0
  -30.0203  -13.3623   20.4372 N   0  0  0  0  0  0
  -26.2996  -12.9343   20.3320 N   0  0  0  0  0  0
  -25.9309  -11.6497   20.5727 N   0  0  0  0  0  0
  -22.0498  -12.8229   22.0407 N   0  0  0  0  0  0
  -25.4313  -15.1899   20.4104 N   0  0  0  0  0  0
  -31.8063  -14.7338   20.1166 O   0  0  0  0  0  0
  -21.6648   -6.8869   21.4242 O   0  0  0  0  0  0
  -22.3531  -14.5528   20.6680 O   0  0  0  0  0  0
  -24.6192  -31.8646   23.2047 C   0  0  0  0  0  0
  -25.9068  -32.4804   23.8361 C   0  0  1  0  0  0
  -27.2269  -27.3843   20.1134 C   0  0  0  0  0  0
  -25.5905  -33.8602   24.2300 N   0  0  0  0  0  0
  -23.4095  -30.4866   21.5462 C   0  0  2  0  0  0
  -24.8556  -28.9449   20.1133 C   0  0  0  0  0  0
  -22.7432  -29.4650   22.4968 C   0  0  0  0  0  0
  -18.0279  -28.1367   22.8494 C   0  0  0  0  0  0
  -24.1491  -36.7310   23.2636 C   0  0  0  0  0  0
  -25.9418  -30.8173   21.3621 C   0  0  0  0  0  0
  -26.0201  -29.4480   20.7089 C   0  0  0  0  0  0
  -27.2128  -28.6786   20.6962 C   0  0  0  0  0  0
  -26.0461  -26.9073   19.5096 C   0  0  0  0  0  0
  -24.8662  -27.6773   19.5063 C   0  0  0  0  0  0
  -23.6192  -29.8167   20.1620 C   0  0  0  0  0  0
  -25.4114  -36.3104   24.0334 C   0  0  1  0  0  0
  -20.5875  -28.3667   23.1303 C   0  0  2  0  0  0
  -20.6772  -26.9398   22.5416 C   0  0  0  0  0  0
  -19.5749  -26.6378   21.5210 C   0  0  0  0  0  0
  -18.1928  -26.7919   22.1620 C   0  0  0  0  0  0
  -19.1531  -28.8830   23.2899 C   0  0  0  0  0  0
  -18.9453  -30.1435   23.8908 C   0  0  0  0  0  0
  -17.6461  -30.6585   24.0554 C   0  0  0  0  0  0
  -25.9042  -34.9471   23.5118 C   0  0  0  0  0  0
  -16.5352  -29.9084   23.6319 C   0  0  0  0  0  0
  -16.7272  -28.6495   23.0355 C   0  0  0  0  0  0
  -26.4460  -31.6594   25.0711 C   0  0  0  0  0  0
  -25.3704  -31.3721   26.1444 C   0  0  0  0  0  0
  -27.0286  -30.3031   24.6102 C   0  0  0  0  0  0
  -27.6033  -32.4308   25.7482 C   0  0  0  0  0  0
  -27.5585  -37.1810   24.8462 C   0  0  0  0  0  0
  -21.4156  -29.3034   22.3706 N   0  0  0  0  0  0
  -26.4294  -37.3792   23.9408 N   0  0  0  0  0  0
  -24.6758  -31.0715   22.0959 N   0  0  0  0  0  0
  -23.4189  -28.8193   23.3028 O   0  0  0  0  0  0
  -28.3610  -26.5873   20.1256 O   0  0  0  0  0  0
  -26.5614  -34.8925   22.4684 O   0  0  0  0  0  0
  -23.5378  -32.1412   23.7427 O   0  0  0  0  0  0
  -29.7092  -17.6200   19.3244 C   0  0  0  0  0  0
  -29.4577  -17.9843   21.7526 C   0  0  0  0  0  0
  -29.5177  -24.8268   21.2334 C   0  0  0  0  0  0
  -29.9713  -19.1449   19.1356 C   0  0  0  0  0  0
  -29.7210  -19.5145   21.5450 C   0  0  0  0  0  0
  -28.9344  -24.0191   20.0980 C   0  0  2  0  0  0
  -30.1637  -17.0849   20.7028 C   0  0  1  0  0  0
  -28.1809  -25.2480   20.6679 C   0  0  2  0  0  0
  -28.5590  -22.5299   20.3636 C   0  0  0  0  0  0
  -29.6634  -21.4840   19.9615 C   0  0  0  0  0  0
  -29.8719  -15.6268   20.8717 N   0  0  0  0  0  0
  -29.3520  -20.0164   20.1841 N   0  3  1  0  0  0
  -31.4760  -12.4619   19.1488 H   0  0  0  0  0  0
  -30.3456  -11.3510   19.8705 H   0  0  0  0  0  0
  -29.7613  -11.7678   17.4578 H   0  0  0  0  0  0
  -29.6615  -13.4850   17.7611 H   0  0  0  0  0  0
  -27.8496  -11.2997   18.8427 H   0  0  0  0  0  0
  -27.3787  -12.6039   17.7872 H   0  0  0  0  0  0
  -27.6809  -14.2526   19.5369 H   0  0  0  0  0  0
  -28.6924  -12.0201   21.3694 H   0  0  0  0  0  0
  -28.4518  -13.6765   21.8514 H   0  0  0  0  0  0
  -25.2761   -9.5698   22.4726 H   0  0  0  0  0  0
  -24.0017   -7.4634   22.7457 H   0  0  0  0  0  0
  -21.0840   -8.8740   19.8934 H   0  0  0  0  0  0
  -22.3673  -10.9658   19.6143 H   0  0  0  0  0  0
  -21.1999   -7.6131   23.9700 H   0  0  0  0  0  0
  -21.1507   -6.0518   25.9073 H   0  0  0  0  0  0
  -22.0591   -2.7595   23.2850 H   0  0  0  0  0  0
  -22.4134  -11.9917   22.4834 H   0  0  0  0  0  0
  -21.1101  -13.1229   22.2579 H   0  0  0  0  0  0
  -24.6630  -15.8449   20.5122 H   0  0  0  0  0  0
  -26.2795  -15.6251   20.0730 H   0  0  0  0  0  0
  -26.7134  -32.5503   23.1119 H   0  0  0  0  0  0
  -25.0046  -33.9752   25.0437 H   0  0  0  0  0  0
  -22.7001  -31.3048   21.4038 H   0  0  0  0  0  0
  -23.3755  -35.9643   23.3301 H   0  0  0  0  0  0
  -24.3588  -36.8925   22.2051 H   0  0  0  0  0  0
  -23.7237  -37.6512   23.6650 H   0  0  0  0  0  0
  -26.0597  -31.5824   20.5935 H   0  0  0  0  0  0
  -26.8279  -30.8711   21.9838 H   0  0  0  0  0  0
  -28.1125  -29.0623   21.1563 H   0  0  0  0  0  0
  -26.0343  -25.9318   19.0452 H   0  0  0  0  0  0
  -23.9720  -27.2837   19.0429 H   0  0  0  0  0  0
  -23.7290  -30.5900   19.3999 H   0  0  0  0  0  0
  -22.7417  -29.2378   19.8685 H   0  0  0  0  0  0
  -25.1293  -36.1967   25.0828 H   0  0  0  0  0  0
  -20.9966  -28.3234   24.1425 H   0  0  0  0  0  0
  -20.5675  -26.2273   23.3607 H   0  0  0  0  0  0
  -21.6638  -26.7438   22.1207 H   0  0  0  0  0  0
  -19.6913  -25.6287   21.1245 H   0  0  0  0  0  0
  -19.6694  -27.3184   20.6736 H   0  0  0  0  0  0
  -17.4202  -26.6672   21.4018 H   0  0  0  0  0  0
  -18.0320  -26.0053   22.9004 H   0  0  0  0  0  0
  -19.7928  -30.7243   24.2291 H   0  0  0  0  0  0
  -17.5016  -31.6268   24.5144 H   0  0  0  0  0  0
  -15.5355  -30.2990   23.7634 H   0  0  0  0  0  0
  -15.8669  -28.0816   22.7074 H   0  0  0  0  0  0
  -24.5882  -30.7067   25.7775 H   0  0  0  0  0  0
  -24.8880  -32.2882   26.4868 H   0  0  0  0  0  0
  -25.8034  -30.8902   27.0220 H   0  0  0  0  0  0
  -26.2841  -29.6818   24.1110 H   0  0  0  0  0  0
  -27.3993  -29.7251   25.4578 H   0  0  0  0  0  0
  -27.8709  -30.4347   23.9305 H   0  0  0  0  0  0
  -27.2652  -33.3590   26.2101 H   0  0  0  0  0  0
  -28.3825  -32.6896   25.0304 H   0  0  0  0  0  0
  -28.0718  -31.8402   26.5359 H   0  0  0  0  0  0
  -28.2602  -38.0106   24.7516 H   0  0  0  0  0  0
  -28.1080  -36.2639   24.6283 H   0  0  0  0  0  0
  -27.2307  -37.1463   25.8865 H   0  0  0  0  0  0
  -20.9324  -29.8740   21.6913 H   0  0  0  0  0  0
  -26.0188  -38.2879   24.1403 H   0  0  0  0  0  0
  -30.2257  -17.0743   18.5338 H   0  0  0  0  0  0
  -28.6471  -17.4171   19.1776 H   0  0  0  0  0  0
  -28.3820  -17.8020   21.7363 H   0  0  0  0  0  0
  -29.7882  -17.7039   22.7543 H   0  0  0  0  0  0
  -30.3862  -25.4444   21.0105 H   0  0  0  0  0  0
  -29.5117  -24.3923   22.2322 H   0  0  0  0  0  0
  -29.5971  -19.4434   18.1552 H   0  0  0  0  0  0
  -31.0471  -19.3229   19.1180 H   0  0  0  0  0  0
  -30.7798  -19.7133   21.7212 H   0  0  0  0  0  0
  -29.1754  -20.0865   22.2961 H   0  0  0  0  0  0
  -29.3545  -24.1823   19.1061 H   0  0  0  0  0  0
  -31.2419  -17.2333   20.7975 H   0  0  0  0  0  0
  -27.3106  -25.1169   21.3111 H   0  0  0  0  0  0
  -27.6443  -22.3179   19.8097 H   0  0  0  0  0  0
  -28.3051  -22.4143   21.4183 H   0  0  0  0  0  0
  -30.6032  -21.7332   20.4548 H   0  0  0  0  0  0
  -29.8564  -21.6355   18.8985 H   0  0  0  0  0  0
  -28.9452  -15.3837   21.1888 H   0  0  0  0  0  0
  -28.3528  -19.9158   20.0801 H   0  0  0  0  0  0
  1 25  1  0  0  0
  1 30  2  0  0  0
  1 81  1  0  0  0
  2  3  1  0  0  0
  2 25  1  0  0  0
  2 83  1  0  0  0
  2 84  1  0  0  0
  3  4  1  0  0  0
  3 85  1  0  0  0
  3 86  1  0  0  0
  4  5  1  0  0  0
  4 87  1  0  0  0
  4 88  1  0  0  0
  5  6  1  0  0  0
  5 26  1  0  0  0
  5 89  1  0  0  0
  6 25  1  0  0  0
  6 90  1  0  0  0
  6 91  1  0  0  0
  7  8  2  0  0  0
  7 26  1  0  0  0
  7 29  1  0  0  0
  8  9  1  0  0  0
  8 22  1  0  0  0
  9 10  1  0  0  0
  9 27  2  0  0  0
 10 11  2  0  0  0
 10 15  1  0  0  0
 11 12  1  0  0  0
 11 92  1  0  0  0
 12 13  2  0  0  0
 12 93  1  0  0  0
 13 14  1  0  0  0
 13 31  1  0  0  0
 14 15  2  0  0  0
 14 94  1  0  0  0
 15 95  1  0  0  0
 16 17  2  0  0  0
 16 21  1  0  0  0
 16 31  1  0  0  0
 17 18  1  0  0  0
 17 96  1  0  0  0
 18 19  2  0  0  0
 18 97  1  0  0  0
 19 20  1  0  0  0
 19 24  1  0  0  0
 20 21  2  0  0  0
 20 98  1  0  0  0
 21 23  1  0  0  0
 22 28  1  0  0  0
 22 32  2  0  0  0
 26 27  1  0  0  0
 28 99  1  0  0  0
 28100  1  0  0  0
 29101  1  0  0  0
 29102  1  0  0  0
 33 34  1  0  0  0
 33 66  1  0  0  0
 33 70  2  0  0  0
 34 36  1  0  0  0
 34 59  1  0  0  0
 34103  1  0  0  0
 35 44  2  0  0  0
 35 45  1  0  0  0
 35 68  1  0  0  0
 36 56  1  0  0  0
 36104  1  0  0  0
 37 39  1  0  0  0
 37 47  1  0  0  0
 37 66  1  0  0  0
 37105  1  0  0  0
 38 43  2  0  0  0
 38 46  1  0  0  0
 38 47  1  0  0  0
 39 64  1  0  0  0
 39 67  2  0  0  0
 40 52  1  0  0  0
 40 53  2  0  0  0
 40 58  1  0  0  0
 41106  1  0  0  0
 41107  1  0  0  0
 41108  1  0  0  0
 41 48  1  0  0  0
 42 43  1  0  0  0
 42 66  1  0  0  0
 42109  1  0  0  0
 42110  1  0  0  0
 43 44  1  0  0  0
 44111  1  0  0  0
 45 46  2  0  0  0
 45112  1  0  0  0
 46113  1  0  0  0
 47114  1  0  0  0
 47115  1  0  0  0
 48 56  1  0  0  0
 48 65  1  0  0  0
 48116  1  0  0  0
 49 50  1  0  0  0
 49 53  1  0  0  0
 49 64  1  0  0  0
 49117  1  0  0  0
 50 51  1  0  0  0
 50118  1  0  0  0
 50119  1  0  0  0
 51 52  1  0  0  0
 51120  1  0  0  0
 51121  1  0  0  0
 52122  1  0  0  0
 52123  1  0  0  0
 53 54  1  0  0  0
 54 55  2  0  0  0
 54124  1  0  0  0
 55 57  1  0  0  0
 55125  1  0  0  0
 56 69  2  0  0  0
 57 58  2  0  0  0
 57126  1  0  0  0
 58127  1  0  0  0
 59 60  1  0  0  0
 59 61  1  0  0  0
 59 62  1  0  0  0
 60128  1  0  0  0
 60129  1  0  0  0
 60130  1  0  0  0
 61131  1  0  0  0
 61132  1  0  0  0
 61133  1  0  0  0
 62134  1  0  0  0
 62135  1  0  0  0
 62136  1  0  0  0
 63 65  1  0  0  0
 63137  1  0  0  0
 63138  1  0  0  0
 63139  1  0  0  0
 64140  1  0  0  0
 65141  1  0  0  0
 68 78  1  0  0  0
 71 74  1  0  0  0
 71 77  1  0  0  0
 71142  1  0  0  0
 71143  1  0  0  0
 72 75  1  0  0  0
 72 77  1  0  0  0
 72144  1  0  0  0
 72145  1  0  0  0
 73 76  1  0  0  0
 73 78  1  0  0  0
 73146  1  0  0  0
 73147  1  0  0  0
 74 82  1  0  0  0
 74148  1  0  0  0
 74149  1  0  0  0
 75 82  1  0  0  0
 75150  1  0  0  0
 75151  1  0  0  0
 76 78  1  0  0  0
 76 79  1  0  0  0
 76152  1  0  0  0
 77 81  1  0  0  0
 77153  1  0  0  0
 78154  1  0  0  0
 79 80  1  0  0  0
 79155  1  0  0  0
 79156  1  0  0  0
 80157  1  0  0  0
 80158  1  0  0  0
 80 82  1  0  0  0
 81159  1  0  0  0
 82160  1  0  0  0
M  CHG  1  82   1
M  ISO  4   1 100  68 101  78 101  81 100
M  END
> <chiral flag>
0

> <version>
0

> <s_m_source_file>
/data/baiqing/PycharmProjects/Reinvent-master-3.2/result/LINK_invent/BTK/process_docking_weight1_custom_sum_contain_oxygen_bond_distance_aromatic_linkinvent_7_9_3/rearranged_h_0114.sdf

> <i_m_source_file_index>
64

> <r_mmod_Potential_Energy-OPLS-2005>
-61.1167640686035

> <r_mmod_Stretch_Energy-OPLS-2005>
54.7870674133301

> <r_mmod_Bend_Energy-OPLS-2005>
116.213768005371

> <r_mmod_Torsional_Energy-OPLS-2005>
286.757232666016

> <r_mmod_Improper_Torsional_Energy-OPLS-2005>
4.97954940795898

> <r_mmod_Van_der_Waal_Energy-OPLS-2005>
124.854751586914

> <r_mmod_Electrostatic_Energy-OPLS-2005>
-219.559631347656

> <r_mmod_Solvation_Energy-OPLS-2005>
-456.164123535156

> <b_mmod_Minimization_Converged-OPLS-2005>
0

> <r_mmod_RMS_Derivative-OPLS-2005>
1.63029968738556

$$$$
64
                    3D
 Structure written by MMmdl.
150158  0  0  1  0            999 V2000
  -30.3817  -15.4323   20.3471 C   0  0  0  0  0  0
  -30.4372  -12.9289   19.5307 C   0  0  0  0  0  0
  -29.5460  -12.6105   18.3009 C   0  0  0  0  0  0
  -28.1027  -12.3017   18.7328 C   0  0  0  0  0  0
  -27.6052  -13.2908   19.8145 C   0  0  2  0  0  0
  -28.6332  -13.5390   20.9404 C   0  0  0  0  0  0
  -25.2364  -13.8262   20.5750 C   0  0  0  0  0  0
  -24.1735  -13.0433   20.9267 C   0  0  0  0  0  0
  -24.6410  -11.6938   20.8764 C   0  0  0  0  0  0
  -23.9110  -10.4292   21.0401 C   0  0  0  0  0  0
  -24.3653   -9.4208   21.9178 C   0  0  0  0  0  0
  -23.6314   -8.2248   22.0748 C   0  0  0  0  0  0
  -22.4296   -8.0290   21.3546 C   0  0  0  0  0  0
  -21.9937   -9.0264   20.4645 C   0  0  0  0  0  0
  -22.7277  -10.2135   20.3049 C   0  0  0  0  0  0
  -21.6863   -6.0740   22.5278 C   0  0  0  0  0  0
  -21.4021   -6.5640   23.8212 C   0  0  0  0  0  0
  -21.3662   -5.6793   24.9173 C   0  0  0  0  0  0
  -21.6046   -4.3053   24.7222 C   0  0  0  0  0  0
  -21.8818   -3.8148   23.4344 C   0  0  0  0  0  0
  -21.9194   -4.6966   22.3399 C   0  0  0  0  0  0
  -22.7747  -13.5178   21.1906 C   0  0  0  0  0  0
  -22.1662   -4.2151   21.0977 F   0  0  0  0  0  0
  -21.5632   -3.4536   25.7736 F   0  0  0  0  0  0
  -29.8401  -14.0966   20.2984 N   0  0  0  0  0  0
  -26.2801  -12.9565   20.3200 N   0  0  0  0  0  0
  -25.9353  -11.6655   20.5694 N   0  0  0  0  0  0
  -22.0404  -12.8172   22.0466 N   0  0  0  0  0  0
  -25.3960  -15.2003   20.4176 N   0  0  0  0  0  0
  -31.6123  -15.4059   20.1810 O   0  0  0  0  0  0
  -21.6652   -6.8890   21.4242 O   0  0  0  0  0  0
  -22.3423  -14.5472   20.6735 O   0  0  0  0  0  0
  -24.6736  -31.8114   23.1597 C   0  0  0  0  0  0
  -25.9369  -32.4523   23.8112 C   0  0  1  0  0  0
  -27.2302  -26.8165   20.1990 C   0  0  0  0  0  0
  -25.5989  -33.8343   24.2013 N   0  0  0  0  0  0
  -23.4950  -30.4167   21.5110 C   0  0  2  0  0  0
  -24.9523  -28.7790   20.1153 C   0  0  0  0  0  0
  -22.7719  -29.4378   22.4745 C   0  0  0  0  0  0
  -18.0326  -28.1415   22.8457 C   0  0  0  0  0  0
  -24.1497  -36.7180   23.2650 C   0  0  0  0  0  0
  -26.0703  -30.5806   21.4081 C   0  0  0  0  0  0
  -26.1383  -29.1581   20.7555 C   0  0  0  0  0  0
  -27.2667  -28.2014   20.7676 C   0  0  0  0  0  0
  -26.0117  -26.6166   19.5075 C   0  0  0  0  0  0
  -24.9210  -27.5311   19.4698 C   0  0  0  0  0  0
  -23.7428  -29.7201   20.1433 C   0  0  0  0  0  0
  -25.4144  -36.2933   24.0291 C   0  0  1  0  0  0
  -20.5958  -28.3773   23.1162 C   0  0  2  0  0  0
  -20.6806  -26.9443   22.5405 C   0  0  0  0  0  0
  -19.5783  -26.6374   21.5215 C   0  0  0  0  0  0
  -18.1962  -26.7943   22.1619 C   0  0  0  0  0  0
  -19.1592  -28.8919   23.2791 C   0  0  0  0  0  0
  -18.9498  -30.1500   23.8837 C   0  0  0  0  0  0
  -17.6492  -30.6605   24.0547 C   0  0  0  0  0  0
  -25.9115  -34.9316   23.4982 C   0  0  0  0  0  0
  -16.5380  -29.9089   23.6346 C   0  0  0  0  0  0
  -16.7306  -28.6508   23.0366 C   0  0  0  0  0  0
  -26.4579  -31.6511   25.0689 C   0  0  0  0  0  0
  -25.3677  -31.3800   26.1327 C   0  0  0  0  0  0
  -27.0496  -30.2858   24.6516 C   0  0  0  0  0  0
  -27.6046  -32.4349   25.7501 C   0  0  0  0  0  0
  -27.5569  -37.1747   24.8464 C   0  0  0  0  0  0
  -21.4379  -29.3037   22.3495 N   0  0  0  0  0  0
  -26.4277  -37.3682   23.9403 N   0  0  0  0  0  0
  -24.7685  -30.9666   22.0791 N   0  0  0  0  0  0
  -23.4209  -28.7966   23.3045 O   0  0  0  0  0  0
  -28.2188  -25.6598   20.2766 O   0  0  0  0  0  0
  -26.5743  -34.8870   22.4590 O   0  0  0  0  0  0
  -23.5781  -32.1135   23.6618 O   0  0  0  0  0  0
  -29.4478  -21.2540   19.2301 C   0  0  0  0  0  0
  -28.2680  -21.0029   21.2108 C   0  0  0  0  0  0
  -29.3540  -19.5311   19.1811 C   0  0  0  0  0  0
  -29.0476  -19.4986   21.4961 C   0  0  0  0  0  0
  -28.8550  -22.3163   20.3804 C   0  0  2  0  0  0
  -29.7508  -18.4681   20.3918 C   0  0  1  0  0  0
  -27.9919  -23.9759   20.1192 C   0  0  0  0  0  0
  -29.6056  -16.7408   20.3911 N   0  0  0  0  0  0
  -31.4453  -13.1599   19.1845 H   0  0  0  0  0  0
  -30.5456  -12.0509   20.1702 H   0  0  0  0  0  0
  -29.9585  -11.7748   17.7340 H   0  0  0  0  0  0
  -29.5479  -13.4690   17.6281 H   0  0  0  0  0  0
  -28.0849  -11.2863   19.1292 H   0  0  0  0  0  0
  -27.4359  -12.3068   17.8690 H   0  0  0  0  0  0
  -27.4956  -14.2382   19.2857 H   0  0  0  0  0  0
  -28.8423  -12.6289   21.5043 H   0  0  0  0  0  0
  -28.2403  -14.2647   21.6540 H   0  0  0  0  0  0
  -25.2792   -9.5686   22.4761 H   0  0  0  0  0  0
  -24.0019   -7.4645   22.7471 H   0  0  0  0  0  0
  -21.0864   -8.8791   19.8959 H   0  0  0  0  0  0
  -22.3729  -10.9681   19.6169 H   0  0  0  0  0  0
  -21.2008   -7.6148   23.9717 H   0  0  0  0  0  0
  -21.1491   -6.0519   25.9077 H   0  0  0  0  0  0
  -22.0592   -2.7609   23.2841 H   0  0  0  0  0  0
  -22.4025  -11.9857   22.4896 H   0  0  0  0  0  0
  -21.1002  -13.1172   22.2633 H   0  0  0  0  0  0
  -24.6211  -15.8452   20.5267 H   0  0  0  0  0  0
  -26.2287  -15.6443   20.0540 H   0  0  0  0  0  0
  -26.7446  -32.5027   23.0825 H   0  0  0  0  0  0
  -25.0059  -33.9401   25.0112 H   0  0  0  0  0  0
  -22.8146  -31.2509   21.3287 H   0  0  0  0  0  0
  -23.3775  -35.9492   23.3273 H   0  0  0  0  0  0
  -24.3566  -36.8872   22.2070 H   0  0  0  0  0  0
  -23.7238  -37.6346   23.6740 H   0  0  0  0  0  0
  -26.2648  -31.3139   20.6240 H   0  0  0  0  0  0
  -26.9247  -30.6418   22.0706 H   0  0  0  0  0  0
  -28.1611  -28.4935   21.2993 H   0  0  0  0  0  0
  -25.8670  -25.6662   19.0144 H   0  0  0  0  0  0
  -24.0223  -27.2331   18.9469 H   0  0  0  0  0  0
  -23.9077  -30.4823   19.3815 H   0  0  0  0  0  0
  -22.8508  -29.1794   19.8227 H   0  0  0  0  0  0
  -25.1348  -36.1713   25.0783 H   0  0  0  0  0  0
  -21.0033  -28.3388   24.1288 H   0  0  0  0  0  0
  -20.5684  -26.2389   23.3654 H   0  0  0  0  0  0
  -21.6666  -26.7410   22.1209 H   0  0  0  0  0  0
  -19.6944  -25.6266   21.1289 H   0  0  0  0  0  0
  -19.6724  -27.3146   20.6714 H   0  0  0  0  0  0
  -17.4228  -26.6669   21.4024 H   0  0  0  0  0  0
  -18.0359  -26.0104   22.9037 H   0  0  0  0  0  0
  -19.7976  -30.7328   24.2182 H   0  0  0  0  0  0
  -17.5046  -31.6280   24.5159 H   0  0  0  0  0  0
  -15.5379  -30.2973   23.7714 H   0  0  0  0  0  0
  -15.8700  -28.0807   22.7126 H   0  0  0  0  0  0
  -24.5848  -30.7172   25.7619 H   0  0  0  0  0  0
  -24.8887  -32.3019   26.4630 H   0  0  0  0  0  0
  -25.7873  -30.9022   27.0189 H   0  0  0  0  0  0
  -26.3191  -29.6493   24.1509 H   0  0  0  0  0  0
  -27.3959  -29.7273   25.5223 H   0  0  0  0  0  0
  -27.9160  -30.4001   23.9999 H   0  0  0  0  0  0
  -27.2588  -33.3690   26.1939 H   0  0  0  0  0  0
  -28.3927  -32.6849   25.0388 H   0  0  0  0  0  0
  -28.0640  -31.8578   26.5536 H   0  0  0  0  0  0
  -28.2564  -38.0065   24.7516 H   0  0  0  0  0  0
  -28.1092  -36.2589   24.6293 H   0  0  0  0  0  0
  -27.2282  -37.1385   25.8867 H   0  0  0  0  0  0
  -20.9664  -29.8694   21.6577 H   0  0  0  0  0  0
  -26.0119  -38.2736   24.1411 H   0  0  0  0  0  0
  -29.0248  -21.5901   18.2833 H   0  0  0  0  0  0
  -30.5072  -21.4957   19.1338 H   0  0  0  0  0  0
  -27.9726  -21.3777   22.1908 H   0  0  0  0  0  0
  -27.3170  -20.7556   20.7361 H   0  0  0  0  0  0
  -29.9309  -19.2221   18.3092 H   0  0  0  0  0  0
  -28.3250  -19.2986   18.9040 H   0  0  0  0  0  0
  -28.3170  -18.8925   22.0331 H   0  0  0  0  0  0
  -29.8117  -19.6947   22.2493 H   0  0  0  0  0  0
  -29.7263  -22.6107   20.9672 H   0  0  0  0  0  0
  -30.8274  -18.5949   20.5149 H   0  0  0  0  0  0
  -27.0928  -23.8518   20.7237 H   0  0  0  0  0  0
  -27.6116  -23.8962   19.1011 H   0  0  0  0  0  0
  -28.6281  -16.4949   20.4537 H   0  0  0  0  0  0
  1 25  1  0  0  0
  1 30  2  0  0  0
  1 78  1  0  0  0
  2  3  1  0  0  0
  2 25  1  0  0  0
  2 79  1  0  0  0
  2 80  1  0  0  0
  3  4  1  0  0  0
  3 81  1  0  0  0
  3 82  1  0  0  0
  4  5  1  0  0  0
  4 83  1  0  0  0
  4 84  1  0  0  0
  5  6  1  0  0  0
  5 26  1  0  0  0
  5 85  1  0  0  0
  6 25  1  0  0  0
  6 86  1  0  0  0
  6 87  1  0  0  0
  7  8  2  0  0  0
  7 26  1  0  0  0
  7 29  1  0  0  0
  8  9  1  0  0  0
  8 22  1  0  0  0
  9 10  1  0  0  0
  9 27  2  0  0  0
 10 11  2  0  0  0
 10 15  1  0  0  0
 11 12  1  0  0  0
 11 88  1  0  0  0
 12 13  2  0  0  0
 12 89  1  0  0  0
 13 14  1  0  0  0
 13 31  1  0  0  0
 14 15  2  0  0  0
 14 90  1  0  0  0
 15 91  1  0  0  0
 16 17  2  0  0  0
 16 21  1  0  0  0
 16 31  1  0  0  0
 17 18  1  0  0  0
 17 92  1  0  0  0
 18 19  2  0  0  0
 18 93  1  0  0  0
 19 20  1  0  0  0
 19 24  1  0  0  0
 20 21  2  0  0  0
 20 94  1  0  0  0
 21 23  1  0  0  0
 22 28  1  0  0  0
 22 32  2  0  0  0
 26 27  1  0  0  0
 28 95  1  0  0  0
 28 96  1  0  0  0
 29 97  1  0  0  0
 29 98  1  0  0  0
 33 34  1  0  0  0
 33 66  1  0  0  0
 33 70  2  0  0  0
 34 36  1  0  0  0
 34 59  1  0  0  0
 34 99  1  0  0  0
 35 44  2  0  0  0
 35 45  1  0  0  0
 35 68  1  0  0  0
 36 56  1  0  0  0
 36100  1  0  0  0
 37 39  1  0  0  0
 37 47  1  0  0  0
 37 66  1  0  0  0
 37101  1  0  0  0
 38 43  2  0  0  0
 38 46  1  0  0  0
 38 47  1  0  0  0
 39 64  1  0  0  0
 39 67  2  0  0  0
 40 52  1  0  0  0
 40 53  2  0  0  0
 40 58  1  0  0  0
 41102  1  0  0  0
 41103  1  0  0  0
 41104  1  0  0  0
 41 48  1  0  0  0
 42 43  1  0  0  0
 42 66  1  0  0  0
 42105  1  0  0  0
 42106  1  0  0  0
 43 44  1  0  0  0
 44107  1  0  0  0
 45 46  2  0  0  0
 45108  1  0  0  0
 46109  1  0  0  0
 47110  1  0  0  0
 47111  1  0  0  0
 48 56  1  0  0  0
 48 65  1  0  0  0
 48112  1  0  0  0
 49 50  1  0  0  0
 49 53  1  0  0  0
 49 64  1  0  0  0
 49113  1  0  0  0
 50 51  1  0  0  0
 50114  1  0  0  0
 50115  1  0  0  0
 51 52  1  0  0  0
 51116  1  0  0  0
 51117  1  0  0  0
 52118  1  0  0  0
 52119  1  0  0  0
 53 54  1  0  0  0
 54 55  2  0  0  0
 54120  1  0  0  0
 55 57  1  0  0  0
 55121  1  0  0  0
 56 69  2  0  0  0
 57 58  2  0  0  0
 57122  1  0  0  0
 58123  1  0  0  0
 59 60  1  0  0  0
 59 61  1  0  0  0
 59 62  1  0  0  0
 60124  1  0  0  0
 60125  1  0  0  0
 60126  1  0  0  0
 61127  1  0  0  0
 61128  1  0  0  0
 61129  1  0  0  0
 62130  1  0  0  0
 62131  1  0  0  0
 62132  1  0  0  0
 63 65  1  0  0  0
 63133  1  0  0  0
 63134  1  0  0  0
 63135  1  0  0  0
 64136  1  0  0  0
 65137  1  0  0  0
 68 77  1  0  0  0
 71 73  1  0  0  0
 71 75  1  0  0  0
 71138  1  0  0  0
 71139  1  0  0  0
 72 74  1  0  0  0
 72 75  1  0  0  0
 72140  1  0  0  0
 72141  1  0  0  0
 73 76  1  0  0  0
 73142  1  0  0  0
 73143  1  0  0  0
 74 76  1  0  0  0
 74144  1  0  0  0
 74145  1  0  0  0
 75 77  1  0  0  0
 75146  1  0  0  0
 76 78  1  0  0  0
 76147  1  0  0  0
 77148  1  0  0  0
 77149  1  0  0  0
 78150  1  0  0  0
M  ISO  4   1 100  68 101  77 101  78 100
M  END
> <chiral flag>
0

> <version>
0

> <s_m_source_file>
/data/baiqing/PycharmProjects/Reinvent-master-3.2/result/LINK_invent/BTK/process_docking_weight1_custom_sum_contain_oxygen_bond_distance_aromatic_linkinvent_7_9_3/rearranged_h_0114.sdf

> <i_m_source_file_index>
65

> <r_mmod_Potential_Energy-OPLS-2005>
1843.72436523438

> <r_mmod_Stretch_Energy-OPLS-2005>
766.142822265625

> <r_mmod_Bend_Energy-OPLS-2005>
614.167846679688

> <r_mmod_Torsional_Energy-OPLS-2005>
256.347564697266

> <r_mmod_Improper_Torsional_Energy-OPLS-2005>
3.77656579017639

> <r_mmod_Van_der_Waal_Energy-OPLS-2005>
116.92699432373

> <r_mmod_Electrostatic_Energy-OPLS-2005>
-350.118438720703

> <r_mmod_Solvation_Energy-OPLS-2005>
-209.585876464844

> <b_mmod_Minimization_Converged-OPLS-2005>
0

> <r_mmod_RMS_Derivative-OPLS-2005>
1.24485099315643

$$$$
65
                    3D
 Structure written by MMmdl.
170179  0  0  1  0            999 V2000
  -28.8236  -16.4671   20.7862 C   0  0  0  0  0  0
  -30.0202  -13.9350   19.7681 C   0  0  0  0  0  0
  -29.4944  -13.0185   18.5650 C   0  0  0  0  0  0
  -28.1704  -12.3379   18.9058 C   0  0  0  0  0  0
  -27.4313  -13.2998   19.8370 C   0  0  2  0  0  0
  -28.1964  -13.7940   21.0678 C   0  0  0  0  0  0
  -25.1412  -13.8116   20.5529 C   0  0  0  0  0  0
  -24.1024  -13.0260   20.9347 C   0  0  0  0  0  0
  -24.5794  -11.6799   20.8814 C   0  0  0  0  0  0
  -23.8703  -10.4190   21.0496 C   0  0  0  0  0  0
  -24.3425   -9.4149   21.9210 C   0  0  0  0  0  0
  -23.6203   -8.2135   22.0722 C   0  0  0  0  0  0
  -22.4190   -8.0149   21.3517 C   0  0  0  0  0  0
  -21.9744   -9.0075   20.4617 C   0  0  0  0  0  0
  -22.6955  -10.2001   20.3073 C   0  0  0  0  0  0
  -21.6820   -6.0665   22.5282 C   0  0  0  0  0  0
  -21.3982   -6.5602   23.8198 C   0  0  0  0  0  0
  -21.3649   -5.6765   24.9169 C   0  0  0  0  0  0
  -21.6047   -4.3026   24.7238 C   0  0  0  0  0  0
  -21.8834   -3.8104   23.4369 C   0  0  0  0  0  0
  -21.9187   -4.6907   22.3418 C   0  0  0  0  0  0
  -22.7186  -13.5070   21.2117 C   0  0  0  0  0  0
  -22.1663   -4.2100   21.0991 F   0  0  0  0  0  0
  -21.5637   -3.4521   25.7755 F   0  0  0  0  0  0
  -28.9591  -14.9148   20.5237 N   0  0  0  0  0  0
  -26.1495  -12.9214   20.2709 N   0  0  0  0  0  0
  -25.8578  -11.6387   20.5455 N   0  0  0  0  0  0
  -21.9955  -12.8040   22.0721 N   0  0  0  0  0  0
  -25.3226  -15.1897   20.3871 N   0  0  0  0  0  0
  -30.1037  -16.5828   20.5938 O   0  0  0  0  0  0
  -21.6580   -6.8755   21.4223 O   0  0  0  0  0  0
  -22.2966  -14.5419   20.6957 O   0  0  0  0  0  0
  -24.7048  -31.9443   23.1715 C   0  0  0  0  0  0
  -25.9661  -32.5190   23.8524 C   0  0  1  0  0  0
  -27.0159  -27.2368   20.1845 C   0  0  0  0  0  0
  -25.6305  -33.8854   24.2547 N   0  0  0  0  0  0
  -23.6136  -30.6083   21.4762 C   0  0  2  0  0  0
  -24.9375  -29.1191   19.9707 C   0  0  0  0  0  0
  -23.3665  -29.3964   22.3307 C   0  0  0  0  0  0
  -18.3040  -27.1763   23.1155 C   0  0  0  0  0  0
  -24.1493  -36.7344   23.2620 C   0  0  0  0  0  0
  -26.1059  -30.8269   21.3827 C   0  0  0  0  0  0
  -26.0926  -29.4589   20.6932 C   0  0  0  0  0  0
  -27.1455  -28.5134   20.8094 C   0  0  0  0  0  0
  -25.9433  -27.0463   19.2970 C   0  0  0  0  0  0
  -24.8550  -27.9137   19.2720 C   0  0  0  0  0  0
  -23.7961  -30.1016   20.0255 C   0  0  0  0  0  0
  -25.4122  -36.3248   24.0362 C   0  0  1  0  0  0
  -21.7122  -27.6465   22.6410 C   0  0  2  0  0  0
  -21.6007  -26.5776   21.0772 C   0  0  0  0  0  0
  -19.9151  -25.7847   20.8620 C   0  0  0  0  0  0
  -18.5007  -26.0026   21.9601 C   0  0  0  0  0  0
  -19.5719  -27.7198   23.7514 C   0  0  0  0  0  0
  -18.9245  -28.8518   24.5987 C   0  0  0  0  0  0
  -17.7998  -29.7259   24.3661 C   0  0  0  0  0  0
  -25.9135  -34.9666   23.5199 C   0  0  0  0  0  0
  -16.8132  -29.2627   23.5188 C   0  0  0  0  0  0
  -17.0516  -27.9597   23.0073 C   0  0  0  0  0  0
  -26.4599  -31.6707   25.0871 C   0  0  0  0  0  0
  -25.3583  -31.3749   26.1327 C   0  0  0  0  0  0
  -27.0463  -30.3148   24.6323 C   0  0  0  0  0  0
  -27.6103  -32.4293   25.7853 C   0  0  0  0  0  0
  -27.5612  -37.1869   24.8488 C   0  0  0  0  0  0
  -22.4033  -28.6795   21.8946 N   0  0  0  0  0  0
  -26.4318  -37.3922   23.9442 N   0  0  0  0  0  0
  -24.8259  -31.2060   22.0315 N   0  0  0  0  0  0
  -23.9002  -29.1256   23.3963 O   0  0  0  0  0  0
  -27.7721  -26.1156   20.5197 O   0  0  0  0  0  0
  -26.5533  -34.9097   22.4669 O   0  0  0  0  0  0
  -23.6004  -32.1583   23.7034 O   0  0  0  0  0  0
  -22.2215  -21.2205   21.9298 C   0  0  0  0  0  0
  -21.7526  -22.5746   22.2326 C   0  0  0  0  0  0
  -23.5325  -20.6029   21.7739 C   0  0  0  0  0  0
  -22.4769  -23.7902   22.4833 C   0  0  0  0  0  0
  -24.8268  -21.1999   21.8399 C   0  0  0  0  0  0
  -24.1214  -22.9211   22.1804 C   0  0  0  0  0  0
  -19.8786  -28.0528   21.5210 C   0  0  0  0  0  0
  -21.4735  -26.3577   24.6831 C   0  0  0  0  0  0
  -20.2494  -29.6876   22.4952 C   0  0  0  0  0  0
  -21.6612  -28.2436   25.0129 C   0  0  0  0  0  0
  -21.0169  -25.5550   23.0302 C   0  0  0  0  0  0
  -27.6666  -23.8728   19.4989 C   0  0  0  0  0  0
  -26.5511  -19.6838   21.4935 C   0  0  0  0  0  0
  -26.5089  -23.9610   21.8613 C   0  0  0  0  0  0
  -27.0030  -24.7816   20.5557 C   0  0  1  0  0  0
  -27.5011  -17.7274   21.1080 N   0  0  0  0  0  0
  -21.2050  -29.6374   24.0080 N   0  3  0  0  0  0
  -25.0649  -23.9890   22.1967 O   0  0  0  0  0  0
  -30.8067  -14.5638   19.3424 H   0  0  0  0  0  0
  -30.5578  -13.3263   20.4960 H   0  0  0  0  0  0
  -30.2457  -12.2895   18.2603 H   0  0  0  0  0  0
  -29.3243  -13.6672   17.7050 H   0  0  0  0  0  0
  -28.3516  -11.3907   19.4157 H   0  0  0  0  0  0
  -27.5895  -12.1179   18.0093 H   0  0  0  0  0  0
  -27.2373  -14.1410   19.1684 H   0  0  0  0  0  0
  -28.7604  -13.0147   21.5826 H   0  0  0  0  0  0
  -27.5333  -14.2111   21.8261 H   0  0  0  0  0  0
  -25.2575   -9.5703   22.4744 H   0  0  0  0  0  0
  -23.9977   -7.4533   22.7405 H   0  0  0  0  0  0
  -21.0688   -8.8521   19.8915 H   0  0  0  0  0  0
  -22.3381  -10.9527   19.6188 H   0  0  0  0  0  0
  -21.1952   -7.6105   23.9686 H   0  0  0  0  0  0
  -21.1461   -6.0498   25.9072 H   0  0  0  0  0  0
  -22.0631   -2.7569   23.2872 H   0  0  0  0  0  0
  -22.3634  -11.9696   22.5030 H   0  0  0  0  0  0
  -21.0580  -13.1008   22.3047 H   0  0  0  0  0  0
  -24.4854  -15.7634   20.3782 H   0  0  0  0  0  0
  -25.9673  -15.4603   19.6564 H   0  0  0  0  0  0
  -26.7912  -32.5829   23.1453 H   0  0  0  0  0  0
  -25.0529  -33.9899   25.0763 H   0  0  0  0  0  0
  -22.7780  -31.3087   21.5177 H   0  0  0  0  0  0
  -23.3831  -35.9601   23.3292 H   0  0  0  0  0  0
  -24.3617  -36.8924   22.2035 H   0  0  0  0  0  0
  -23.7131  -37.6522   23.6587 H   0  0  0  0  0  0
  -26.3394  -31.5726   20.6235 H   0  0  0  0  0  0
  -26.9552  -30.8162   22.0575 H   0  0  0  0  0  0
  -27.9786  -28.7087   21.4700 H   0  0  0  0  0  0
  -25.8567  -26.1722   18.6699 H   0  0  0  0  0  0
  -23.9876  -27.6747   18.6733 H   0  0  0  0  0  0
  -24.0631  -30.9470   19.3879 H   0  0  0  0  0  0
  -22.8776  -29.6944   19.5947 H   0  0  0  0  0  0
  -25.1268  -36.2138   25.0847 H   0  0  0  0  0  0
  -22.6392  -27.2223   23.0553 H   0  0  0  0  0  0
  -22.4030  -25.8392   21.0430 H   0  0  0  0  0  0
  -21.8805  -27.1052   20.1585 H   0  0  0  0  0  0
  -20.0408  -24.7169   20.6755 H   0  0  0  0  0  0
  -19.5709  -26.1106   19.8804 H   0  0  0  0  0  0
  -17.6435  -26.0956   21.2953 H   0  0  0  0  0  0
  -18.2876  -25.0526   22.4522 H   0  0  0  0  0  0
  -19.4395  -29.2542   25.4530 H   0  0  0  0  0  0
  -17.6415  -30.6143   24.9633 H   0  0  0  0  0  0
  -15.8865  -29.7949   23.3514 H   0  0  0  0  0  0
  -16.2654  -27.5439   22.3899 H   0  0  0  0  0  0
  -24.5844  -30.7173   25.7364 H   0  0  0  0  0  0
  -24.8687  -32.2860   26.4769 H   0  0  0  0  0  0
  -25.7663  -30.8754   27.0125 H   0  0  0  0  0  0
  -26.3206  -29.7073   24.0948 H   0  0  0  0  0  0
  -27.3745  -29.7203   25.4856 H   0  0  0  0  0  0
  -27.9200  -30.4464   23.9941 H   0  0  0  0  0  0
  -27.2752  -33.3613   26.2411 H   0  0  0  0  0  0
  -28.4047  -32.6815   25.0818 H   0  0  0  0  0  0
  -28.0612  -31.8347   26.5799 H   0  0  0  0  0  0
  -28.2653  -38.0156   24.7605 H   0  0  0  0  0  0
  -28.1103  -36.2708   24.6252 H   0  0  0  0  0  0
  -27.2342  -37.1447   25.8895 H   0  0  0  0  0  0
  -22.0576  -28.8735   20.9630 H   0  0  0  0  0  0
  -26.0240  -38.3009   24.1492 H   0  0  0  0  0  0
  -21.4171  -20.5106   21.7983 H   0  0  0  0  0  0
  -20.6761  -22.6691   22.2665 H   0  0  0  0  0  0
  -23.5294  -19.5408   21.5710 H   0  0  0  0  0  0
  -20.2775  -28.3365   20.5377 H   0  0  0  0  0  0
  -18.8764  -28.1232   21.0808 H   0  0  0  0  0  0
  -20.7732  -25.9776   25.4271 H   0  0  0  0  0  0
  -22.4153  -25.9034   24.9975 H   0  0  0  0  0  0
  -19.3326  -30.2554   22.5875 H   0  0  0  0  0  0
  -20.7139  -30.4068   21.8150 H   0  0  0  0  0  0
  -22.7048  -28.3934   25.2840 H   0  0  0  0  0  0
  -21.2343  -28.4052   25.9999 H   0  0  0  0  0  0
  -20.1902  -24.9332   23.3654 H   0  0  0  0  0  0
  -28.0148  -22.9217   19.9039 H   0  0  0  0  0  0
  -28.5268  -24.3532   19.0367 H   0  0  0  0  0  0
  -26.9659  -23.6400   18.6924 H   0  0  0  0  0  0
  -27.0129  -19.8280   22.4679 H   0  0  0  0  0  0
  -27.1657  -20.2939   20.8307 H   0  0  0  0  0  0
  -27.0646  -24.2933   22.7400 H   0  0  0  0  0  0
  -26.8033  -22.9152   21.7746 H   0  0  0  0  0  0
  -26.0012  -24.8758   20.1613 H   0  0  0  0  0  0
  -26.7017  -17.1052   21.1272 H   0  0  0  0  0  0
  -20.8006  -30.3280   24.6198 H   0  0  0  0  0  0
  -22.1113  -30.0161   23.7666 H   0  0  0  0  0  0
  1 25  1  0  0  0
  1 30  2  0  0  0
  1 86  1  0  0  0
  2  3  1  0  0  0
  2 25  1  0  0  0
  2 89  1  0  0  0
  2 90  1  0  0  0
  3  4  1  0  0  0
  3 91  1  0  0  0
  3 92  1  0  0  0
  4  5  1  0  0  0
  4 93  1  0  0  0
  4 94  1  0  0  0
  5  6  1  0  0  0
  5 26  1  0  0  0
  5 95  1  0  0  0
  6 25  1  0  0  0
  6 96  1  0  0  0
  6 97  1  0  0  0
  7  8  2  0  0  0
  7 26  1  0  0  0
  7 29  1  0  0  0
  8  9  1  0  0  0
  8 22  1  0  0  0
  9 10  1  0  0  0
  9 27  2  0  0  0
 10 11  2  0  0  0
 10 15  1  0  0  0
 11 12  1  0  0  0
 11 98  1  0  0  0
 12 13  2  0  0  0
 12 99  1  0  0  0
 13 14  1  0  0  0
 13 31  1  0  0  0
 14 15  2  0  0  0
 14100  1  0  0  0
 15101  1  0  0  0
 16 17  2  0  0  0
 16 21  1  0  0  0
 16 31  1  0  0  0
 17 18  1  0  0  0
 17102  1  0  0  0
 18 19  2  0  0  0
 18103  1  0  0  0
 19 20  1  0  0  0
 19 24  1  0  0  0
 20 21  2  0  0  0
 20104  1  0  0  0
 21 23  1  0  0  0
 22 28  1  0  0  0
 22 32  2  0  0  0
 26 27  1  0  0  0
 28105  1  0  0  0
 28106  1  0  0  0
 29107  1  0  0  0
 29108  1  0  0  0
 33 34  1  0  0  0
 33 66  1  0  0  0
 33 70  2  0  0  0
 34 36  1  0  0  0
 34 59  1  0  0  0
 34109  1  0  0  0
 35 44  2  0  0  0
 35 45  1  0  0  0
 35 68  1  0  0  0
 36 56  1  0  0  0
 36110  1  0  0  0
 37 39  1  0  0  0
 37 47  1  0  0  0
 37 66  1  0  0  0
 37111  1  0  0  0
 38 43  2  0  0  0
 38 46  1  0  0  0
 38 47  1  0  0  0
 39 64  1  0  0  0
 39 67  2  0  0  0
 40 52  1  0  0  0
 40 53  2  0  0  0
 40 58  1  0  0  0
 41112  1  0  0  0
 41113  1  0  0  0
 41114  1  0  0  0
 41 48  1  0  0  0
 42 43  1  0  0  0
 42 66  1  0  0  0
 42115  1  0  0  0
 42116  1  0  0  0
 43 44  1  0  0  0
 44117  1  0  0  0
 45 46  2  0  0  0
 45118  1  0  0  0
 46119  1  0  0  0
 47120  1  0  0  0
 47121  1  0  0  0
 48 56  1  0  0  0
 48 65  1  0  0  0
 48122  1  0  0  0
 49 50  1  0  0  0
 49 53  1  0  0  0
 49 64  1  0  0  0
 49123  1  0  0  0
 50 51  1  0  0  0
 50124  1  0  0  0
 50125  1  0  0  0
 51 52  1  0  0  0
 51126  1  0  0  0
 51127  1  0  0  0
 52128  1  0  0  0
 52129  1  0  0  0
 53 54  1  0  0  0
 54 55  2  0  0  0
 54130  1  0  0  0
 55 57  1  0  0  0
 55131  1  0  0  0
 56 69  2  0  0  0
 57 58  2  0  0  0
 57132  1  0  0  0
 58133  1  0  0  0
 59 60  1  0  0  0
 59 61  1  0  0  0
 59 62  1  0  0  0
 60134  1  0  0  0
 60135  1  0  0  0
 60136  1  0  0  0
 61137  1  0  0  0
 61138  1  0  0  0
 61139  1  0  0  0
 62140  1  0  0  0
 62141  1  0  0  0
 62142  1  0  0  0
 63 65  1  0  0  0
 63143  1  0  0  0
 63144  1  0  0  0
 63145  1  0  0  0
 64146  1  0  0  0
 65147  1  0  0  0
 68 85  1  0  0  0
 71 72  2  0  0  0
 71 73  1  0  0  0
 71148  1  0  0  0
 72 74  1  0  0  0
 72149  1  0  0  0
 73 75  2  0  0  0
 73150  1  0  0  0
 74 76  2  0  0  0
 74 81  1  0  0  0
 75 76  1  0  0  0
 75 83  1  0  0  0
 76 88  1  0  0  0
 77 79  1  0  0  0
 77 81  1  0  0  0
 77151  1  0  0  0
 77152  1  0  0  0
 78 80  1  0  0  0
 78 81  1  0  0  0
 78153  1  0  0  0
 78154  1  0  0  0
 79 87  1  0  0  0
 79155  1  0  0  0
 79156  1  0  0  0
 80 87  1  0  0  0
 80157  1  0  0  0
 80158  1  0  0  0
 81159  1  0  0  0
 82160  1  0  0  0
 82161  1  0  0  0
 82162  1  0  0  0
 82 85  1  0  0  0
 83 86  1  0  0  0
 83163  1  0  0  0
 83164  1  0  0  0
 84 85  1  0  0  0
 84 88  1  0  0  0
 84165  1  0  0  0
 84166  1  0  0  0
 85167  1  0  0  0
 86168  1  0  0  0
 87169  1  0  0  0
 87170  1  0  0  0
M  CHG  1  87   1
M  ISO  4   1 100  68 101  85 101  86 100
M  END
> <chiral flag>
0

> <version>
0

> <s_m_source_file>
/data/baiqing/PycharmProjects/Reinvent-master-3.2/result/LINK_invent/BTK/process_docking_weight1_custom_sum_contain_oxygen_bond_distance_aromatic_linkinvent_7_9_3/rearranged_h_0114.sdf

> <i_m_source_file_index>
66

> <r_mmod_Potential_Energy-OPLS-2005>
17944.625

> <r_mmod_Stretch_Energy-OPLS-2005>
9673.6318359375

> <r_mmod_Bend_Energy-OPLS-2005>
1736.56213378906

> <r_mmod_Torsional_Energy-OPLS-2005>
493.176544189453

> <r_mmod_Improper_Torsional_Energy-OPLS-2005>
27.5190849304199

> <r_mmod_Van_der_Waal_Energy-OPLS-2005>
2565.36962890625

> <r_mmod_Electrostatic_Energy-OPLS-2005>
-389.908447265625

> <r_mmod_Solvation_Energy-OPLS-2005>
-401.378875732422

> <b_mmod_Minimization_Converged-OPLS-2005>
0

> <r_mmod_RMS_Derivative-OPLS-2005>
9.44985580444336

$$$$
66
                    3D
 Structure written by MMmdl.
163171  0  0  1  0            999 V2000
  -30.7203  -14.4760   20.5360 C   0  0  0  0  0  0
  -30.4111  -12.3003   19.4366 C   0  0  0  0  0  0
  -29.4921  -12.4886   18.2122 C   0  0  0  0  0  0
  -28.0139  -12.3558   18.6239 C   0  0  0  0  0  0
  -27.6565  -13.2088   19.8703 C   0  0  2  0  0  0
  -28.6993  -13.0310   20.9984 C   0  0  0  0  0  0
  -25.2554  -13.8155   20.5681 C   0  0  0  0  0  0
  -24.1818  -13.0445   20.9244 C   0  0  0  0  0  0
  -24.6359  -11.6906   20.8749 C   0  0  0  0  0  0
  -23.9013  -10.4301   21.0404 C   0  0  0  0  0  0
  -24.3579   -9.4223   21.9184 C   0  0  0  0  0  0
  -23.6281   -8.2253   22.0764 C   0  0  0  0  0  0
  -22.4271   -8.0276   21.3551 C   0  0  0  0  0  0
  -21.9878   -9.0246   20.4661 C   0  0  0  0  0  0
  -22.7183  -10.2134   20.3056 C   0  0  0  0  0  0
  -21.6858   -6.0727   22.5267 C   0  0  0  0  0  0
  -21.4017   -6.5637   23.8193 C   0  0  0  0  0  0
  -21.3656   -5.6790   24.9153 C   0  0  0  0  0  0
  -21.6050   -4.3054   24.7211 C   0  0  0  0  0  0
  -21.8820   -3.8141   23.4327 C   0  0  0  0  0  0
  -21.9195   -4.6960   22.3383 C   0  0  0  0  0  0
  -22.7830  -13.5247   21.1882 C   0  0  0  0  0  0
  -22.1671   -4.2146   21.0967 F   0  0  0  0  0  0
  -21.5620   -3.4541   25.7723 F   0  0  0  0  0  0
  -30.0286  -13.3108   20.4362 N   0  0  0  0  0  0
  -26.2985  -12.9329   20.3339 N   0  0  0  0  0  0
  -25.9285  -11.6497   20.5763 N   0  0  0  0  0  0
  -22.0439  -12.8251   22.0425 N   0  0  0  0  0  0
  -25.4283  -15.1859   20.3919 N   0  0  0  0  0  0
  -31.8681  -14.6029   20.1013 O   0  0  0  0  0  0
  -21.6644   -6.8879   21.4232 O   0  0  0  0  0  0
  -22.3549  -14.5553   20.6695 O   0  0  0  0  0  0
  -24.6172  -31.8686   23.2104 C   0  0  0  0  0  0
  -25.9060  -32.4829   23.8399 C   0  0  1  0  0  0
  -27.2266  -27.4174   20.0896 C   0  0  0  0  0  0
  -25.5909  -33.8624   24.2333 N   0  0  0  0  0  0
  -23.4041  -30.4966   21.5513 C   0  0  2  0  0  0
  -24.8467  -28.9646   20.1157 C   0  0  0  0  0  0
  -22.7416  -29.4682   22.4970 C   0  0  0  0  0  0
  -18.0281  -28.1368   22.8497 C   0  0  0  0  0  0
  -24.1485  -36.7314   23.2638 C   0  0  0  0  0  0
  -25.9380  -30.8301   21.3663 C   0  0  0  0  0  0
  -26.0126  -29.4658   20.7083 C   0  0  0  0  0  0
  -27.2052  -28.7017   20.6890 C   0  0  0  0  0  0
  -26.0325  -26.9402   19.4933 C   0  0  0  0  0  0
  -24.8524  -27.7008   19.5086 C   0  0  0  0  0  0
  -23.6118  -29.8344   20.1649 C   0  0  0  0  0  0
  -25.4107  -36.3119   24.0341 C   0  0  1  0  0  0
  -20.5874  -28.3670   23.1298 C   0  0  2  0  0  0
  -20.6766  -26.9401   22.5407 C   0  0  0  0  0  0
  -19.5744  -26.6376   21.5208 C   0  0  0  0  0  0
  -18.1926  -26.7914   22.1625 C   0  0  0  0  0  0
  -19.1529  -28.8832   23.2901 C   0  0  0  0  0  0
  -18.9460  -30.1435   23.8915 C   0  0  0  0  0  0
  -17.6464  -30.6578   24.0564 C   0  0  0  0  0  0
  -25.9035  -34.9481   23.5136 C   0  0  0  0  0  0
  -16.5355  -29.9081   23.6323 C   0  0  0  0  0  0
  -16.7272  -28.6494   23.0356 C   0  0  0  0  0  0
  -26.4473  -31.6608   25.0737 C   0  0  0  0  0  0
  -25.3733  -31.3738   26.1483 C   0  0  0  0  0  0
  -27.0297  -30.3041   24.6137 C   0  0  0  0  0  0
  -27.6044  -32.4332   25.7503 C   0  0  0  0  0  0
  -27.5579  -37.1819   24.8472 C   0  0  0  0  0  0
  -21.4141  -29.3051   22.3708 N   0  0  0  0  0  0
  -26.4303  -37.3796   23.9400 N   0  0  0  0  0  0
  -24.6717  -31.0785   22.1006 N   0  0  0  0  0  0
  -23.4187  -28.8208   23.3004 O   0  0  0  0  0  0
  -28.3884  -26.6598   20.1103 O   0  0  0  0  0  0
  -26.5597  -34.8932   22.4695 O   0  0  0  0  0  0
  -23.5360  -32.1439   23.7488 O   0  0  0  0  0  0
  -28.2055  -22.2497   19.3021 C   0  0  0  0  0  0
  -28.4361  -20.9049   19.2714 C   0  0  0  0  0  0
  -29.2826  -22.8874   19.9863 C   0  0  0  0  0  0
  -30.1009  -21.8696   20.4270 C   0  0  0  0  0  0
  -31.3749  -21.9577   21.2112 C   0  0  0  0  0  0
  -30.6662  -24.8332   19.2130 C   0  0  0  0  0  0
  -30.2992  -19.3388   19.9934 C   0  0  0  0  0  0
  -30.5900  -16.9310   20.7570 C   0  0  0  0  0  0
  -28.2472  -25.2452   19.8508 C   0  0  0  0  0  0
  -29.5150  -24.3986   20.1355 C   0  0  1  0  0  0
  -29.6317  -18.1681   20.7863 C   0  0  2  0  0  0
  -29.6137  -20.6467   19.9503 N   0  0  0  0  0  0
  -30.0320  -15.5669   20.9352 N   0  0  0  0  0  0
  -28.2830  -17.8509   20.2791 N   0  3  0  0  0  0
  -31.4586  -12.3722   19.1391 H   0  0  0  0  0  0
  -30.2946  -11.2999   19.8553 H   0  0  0  0  0  0
  -29.7340  -11.7510   17.4450 H   0  0  0  0  0  0
  -29.6614  -13.4676   17.7617 H   0  0  0  0  0  0
  -27.8230  -11.3007   18.8262 H   0  0  0  0  0  0
  -27.3638  -12.6239   17.7910 H   0  0  0  0  0  0
  -27.6914  -14.2498   19.5510 H   0  0  0  0  0  0
  -28.6705  -12.0112   21.3862 H   0  0  0  0  0  0
  -28.4721  -13.6783   21.8466 H   0  0  0  0  0  0
  -25.2731   -9.5715   22.4734 H   0  0  0  0  0  0
  -23.9999   -7.4649   22.7471 H   0  0  0  0  0  0
  -21.0813   -8.8732   19.8977 H   0  0  0  0  0  0
  -22.3625  -10.9649   19.6146 H   0  0  0  0  0  0
  -21.2016   -7.6152   23.9688 H   0  0  0  0  0  0
  -21.1485   -6.0532   25.9055 H   0  0  0  0  0  0
  -22.0606   -2.7608   23.2817 H   0  0  0  0  0  0
  -22.4048  -11.9932   22.4853 H   0  0  0  0  0  0
  -21.1048  -13.1280   22.2602 H   0  0  0  0  0  0
  -24.5814  -15.7448   20.3683 H   0  0  0  0  0  0
  -26.0955  -15.4815   19.6928 H   0  0  0  0  0  0
  -26.7135  -32.5533   23.1164 H   0  0  0  0  0  0
  -25.0061  -33.9782   25.0482 H   0  0  0  0  0  0
  -22.6959  -31.3165   21.4143 H   0  0  0  0  0  0
  -23.3738  -35.9658   23.3344 H   0  0  0  0  0  0
  -24.3574  -36.8877   22.2044 H   0  0  0  0  0  0
  -23.7255  -37.6540   23.6620 H   0  0  0  0  0  0
  -26.0603  -31.6013   20.6038 H   0  0  0  0  0  0
  -26.8219  -30.8746   21.9906 H   0  0  0  0  0  0
  -28.1046  -29.0883   21.1479 H   0  0  0  0  0  0
  -25.9780  -25.9773   19.0090 H   0  0  0  0  0  0
  -23.9550  -27.3062   19.0518 H   0  0  0  0  0  0
  -23.7235  -30.6112   19.4073 H   0  0  0  0  0  0
  -22.7344  -29.2576   19.8666 H   0  0  0  0  0  0
  -25.1284  -36.1991   25.0838 H   0  0  0  0  0  0
  -20.9988  -28.3243   24.1409 H   0  0  0  0  0  0
  -20.5651  -26.2291   23.3605 H   0  0  0  0  0  0
  -21.6640  -26.7423   22.1217 H   0  0  0  0  0  0
  -19.6899  -25.6289   21.1235 H   0  0  0  0  0  0
  -19.6672  -27.3187   20.6738 H   0  0  0  0  0  0
  -17.4193  -26.6672   21.4030 H   0  0  0  0  0  0
  -18.0326  -26.0046   22.9013 H   0  0  0  0  0  0
  -19.7940  -30.7242   24.2298 H   0  0  0  0  0  0
  -17.5022  -31.6261   24.5155 H   0  0  0  0  0  0
  -15.5355  -30.2991   23.7622 H   0  0  0  0  0  0
  -15.8677  -28.0809   22.7068 H   0  0  0  0  0  0
  -24.5899  -30.7090   25.7829 H   0  0  0  0  0  0
  -24.8935  -32.2905   26.4921 H   0  0  0  0  0  0
  -25.8076  -30.8916   27.0251 H   0  0  0  0  0  0
  -26.2852  -29.6820   24.1156 H   0  0  0  0  0  0
  -27.4009  -29.7264   25.4614 H   0  0  0  0  0  0
  -27.8717  -30.4339   23.9334 H   0  0  0  0  0  0
  -27.2651  -33.3617   26.2106 H   0  0  0  0  0  0
  -28.3840  -32.6915   25.0328 H   0  0  0  0  0  0
  -28.0728  -31.8448   26.5403 H   0  0  0  0  0  0
  -28.2630  -38.0082   24.7483 H   0  0  0  0  0  0
  -28.1041  -36.2618   24.6347 H   0  0  0  0  0  0
  -27.2298  -37.1533   25.8877 H   0  0  0  0  0  0
  -20.9291  -29.8811   21.6969 H   0  0  0  0  0  0
  -26.0198  -38.2885   24.1363 H   0  0  0  0  0  0
  -27.3677  -22.7311   18.8159 H   0  0  0  0  0  0
  -27.8786  -20.1259   18.7685 H   0  0  0  0  0  0
  -31.4518  -22.9095   21.7366 H   0  0  0  0  0  0
  -32.2417  -21.8734   20.5562 H   0  0  0  0  0  0
  -31.4384  -21.1733   21.9647 H   0  0  0  0  0  0
  -31.5924  -24.3126   19.4573 H   0  0  0  0  0  0
  -30.8580  -25.9037   19.2943 H   0  0  0  0  0  0
  -30.4333  -24.6182   18.1690 H   0  0  0  0  0  0
  -30.4378  -19.0285   18.9569 H   0  0  0  0  0  0
  -31.3113  -19.4827   20.3706 H   0  0  0  0  0  0
  -31.3918  -17.0807   21.4821 H   0  0  0  0  0  0
  -31.0850  -16.9444   19.7838 H   0  0  0  0  0  0
  -27.4397  -24.8504   20.4708 H   0  0  0  0  0  0
  -27.9658  -25.1043   18.8061 H   0  0  0  0  0  0
  -29.8120  -24.5821   21.1692 H   0  0  0  0  0  0
  -29.5143  -18.4873   21.8229 H   0  0  0  0  0  0
  -29.1166  -15.4285   21.3337 H   0  0  0  0  0  0
  -28.3222  -17.4616   19.3535 H   0  0  0  0  0  0
  -27.7392  -18.6972   20.2500 H   0  0  0  0  0  0
  -27.8082  -17.2157   20.8957 H   0  0  0  0  0  0
  1 25  1  0  0  0
  1 30  2  0  0  0
  1 83  1  0  0  0
  2  3  1  0  0  0
  2 25  1  0  0  0
  2 85  1  0  0  0
  2 86  1  0  0  0
  3  4  1  0  0  0
  3 87  1  0  0  0
  3 88  1  0  0  0
  4  5  1  0  0  0
  4 89  1  0  0  0
  4 90  1  0  0  0
  5  6  1  0  0  0
  5 26  1  0  0  0
  5 91  1  0  0  0
  6 25  1  0  0  0
  6 92  1  0  0  0
  6 93  1  0  0  0
  7  8  2  0  0  0
  7 26  1  0  0  0
  7 29  1  0  0  0
  8  9  1  0  0  0
  8 22  1  0  0  0
  9 10  1  0  0  0
  9 27  2  0  0  0
 10 11  2  0  0  0
 10 15  1  0  0  0
 11 12  1  0  0  0
 11 94  1  0  0  0
 12 13  2  0  0  0
 12 95  1  0  0  0
 13 14  1  0  0  0
 13 31  1  0  0  0
 14 15  2  0  0  0
 14 96  1  0  0  0
 15 97  1  0  0  0
 16 17  2  0  0  0
 16 21  1  0  0  0
 16 31  1  0  0  0
 17 18  1  0  0  0
 17 98  1  0  0  0
 18 19  2  0  0  0
 18 99  1  0  0  0
 19 20  1  0  0  0
 19 24  1  0  0  0
 20 21  2  0  0  0
 20100  1  0  0  0
 21 23  1  0  0  0
 22 28  1  0  0  0
 22 32  2  0  0  0
 26 27  1  0  0  0
 28101  1  0  0  0
 28102  1  0  0  0
 29103  1  0  0  0
 29104  1  0  0  0
 33 34  1  0  0  0
 33 66  1  0  0  0
 33 70  2  0  0  0
 34 36  1  0  0  0
 34 59  1  0  0  0
 34105  1  0  0  0
 35 44  2  0  0  0
 35 45  1  0  0  0
 35 68  1  0  0  0
 36 56  1  0  0  0
 36106  1  0  0  0
 37 39  1  0  0  0
 37 47  1  0  0  0
 37 66  1  0  0  0
 37107  1  0  0  0
 38 43  2  0  0  0
 38 46  1  0  0  0
 38 47  1  0  0  0
 39 64  1  0  0  0
 39 67  2  0  0  0
 40 52  1  0  0  0
 40 53  2  0  0  0
 40 58  1  0  0  0
 41108  1  0  0  0
 41109  1  0  0  0
 41110  1  0  0  0
 41 48  1  0  0  0
 42 43  1  0  0  0
 42 66  1  0  0  0
 42111  1  0  0  0
 42112  1  0  0  0
 43 44  1  0  0  0
 44113  1  0  0  0
 45 46  2  0  0  0
 45114  1  0  0  0
 46115  1  0  0  0
 47116  1  0  0  0
 47117  1  0  0  0
 48 56  1  0  0  0
 48 65  1  0  0  0
 48118  1  0  0  0
 49 50  1  0  0  0
 49 53  1  0  0  0
 49 64  1  0  0  0
 49119  1  0  0  0
 50 51  1  0  0  0
 50120  1  0  0  0
 50121  1  0  0  0
 51 52  1  0  0  0
 51122  1  0  0  0
 51123  1  0  0  0
 52124  1  0  0  0
 52125  1  0  0  0
 53 54  1  0  0  0
 54 55  2  0  0  0
 54126  1  0  0  0
 55 57  1  0  0  0
 55127  1  0  0  0
 56 69  2  0  0  0
 57 58  2  0  0  0
 57128  1  0  0  0
 58129  1  0  0  0
 59 60  1  0  0  0
 59 61  1  0  0  0
 59 62  1  0  0  0
 60130  1  0  0  0
 60131  1  0  0  0
 60132  1  0  0  0
 61133  1  0  0  0
 61134  1  0  0  0
 61135  1  0  0  0
 62136  1  0  0  0
 62137  1  0  0  0
 62138  1  0  0  0
 63 65  1  0  0  0
 63139  1  0  0  0
 63140  1  0  0  0
 63141  1  0  0  0
 64142  1  0  0  0
 65143  1  0  0  0
 68 79  1  0  0  0
 71 72  2  0  0  0
 71 73  1  0  0  0
 71144  1  0  0  0
 72 82  1  0  0  0
 72145  1  0  0  0
 73 74  2  0  0  0
 73 80  1  0  0  0
 74 75  1  0  0  0
 74 82  1  0  0  0
 75146  1  0  0  0
 75147  1  0  0  0
 75148  1  0  0  0
 76149  1  0  0  0
 76150  1  0  0  0
 76151  1  0  0  0
 76 80  1  0  0  0
 77 81  1  0  0  0
 77 82  1  0  0  0
 77152  1  0  0  0
 77153  1  0  0  0
 78 81  1  0  0  0
 78 83  1  0  0  0
 78154  1  0  0  0
 78155  1  0  0  0
 79 80  1  0  0  0
 79156  1  0  0  0
 79157  1  0  0  0
 80158  1  0  0  0
 81 84  1  0  0  0
 81159  1  0  0  0
 83160  1  0  0  0
 84161  1  0  0  0
 84162  1  0  0  0
 84163  1  0  0  0
M  CHG  1  84   1
M  ISO  4   1 100  68 101  79 101  83 100
M  END
> <chiral flag>
0

> <version>
0

> <s_m_source_file>
/data/baiqing/PycharmProjects/Reinvent-master-3.2/result/LINK_invent/BTK/process_docking_weight1_custom_sum_contain_oxygen_bond_distance_aromatic_linkinvent_7_9_3/rearranged_h_0114.sdf

> <i_m_source_file_index>
67

> <r_mmod_Potential_Energy-OPLS-2005>
-343.729888916016

> <r_mmod_Stretch_Energy-OPLS-2005>
41.9715156555176

> <r_mmod_Bend_Energy-OPLS-2005>
106.450942993164

> <r_mmod_Torsional_Energy-OPLS-2005>
258.057556152344

> <r_mmod_Improper_Torsional_Energy-OPLS-2005>
9.76114082336426

> <r_mmod_Van_der_Waal_Energy-OPLS-2005>
138.321960449219

> <r_mmod_Electrostatic_Energy-OPLS-2005>
-388.885620117188

> <r_mmod_Solvation_Energy-OPLS-2005>
-526.493591308594

> <b_mmod_Minimization_Converged-OPLS-2005>
0

> <r_mmod_RMS_Derivative-OPLS-2005>
2.06442928314209

$$$$
67
                    3D
 Structure written by MMmdl.
178187  0  0  1  0            999 V2000
  -30.3231  -15.2151   20.4759 C   0  0  0  0  0  0
  -30.4922  -12.8087   19.4884 C   0  0  0  0  0  0
  -29.5429  -12.6094   18.2636 C   0  0  0  0  0  0
  -28.0694  -12.3745   18.6715 C   0  0  0  0  0  0
  -27.6419  -13.2516   19.8714 C   0  0  2  0  0  0
  -28.7157  -13.1633   20.9766 C   0  0  0  0  0  0
  -25.2483  -13.8124   20.5679 C   0  0  0  0  0  0
  -24.1812  -13.0336   20.9172 C   0  0  0  0  0  0
  -24.6445  -11.6846   20.8727 C   0  0  0  0  0  0
  -23.9091  -10.4231   21.0404 C   0  0  0  0  0  0
  -24.3614   -9.4171   21.9225 C   0  0  0  0  0  0
  -23.6301   -8.2204   22.0749 C   0  0  0  0  0  0
  -22.4297   -8.0260   21.3523 C   0  0  0  0  0  0
  -21.9942   -9.0218   20.4634 C   0  0  0  0  0  0
  -22.7250  -10.2093   20.3046 C   0  0  0  0  0  0
  -21.6813   -6.0756   22.5283 C   0  0  0  0  0  0
  -21.4023   -6.5663   23.8239 C   0  0  0  0  0  0
  -21.3646   -5.6802   24.9185 C   0  0  0  0  0  0
  -21.6033   -4.3082   24.7235 C   0  0  0  0  0  0
  -21.8826   -3.8178   23.4347 C   0  0  0  0  0  0
  -21.9164   -4.6999   22.3400 C   0  0  0  0  0  0
  -22.7854  -13.5102   21.1769 C   0  0  0  0  0  0
  -22.1619   -4.2197   21.0977 F   0  0  0  0  0  0
  -21.5635   -3.4546   25.7736 F   0  0  0  0  0  0
  -29.9084  -13.8447   20.4266 N   0  0  0  0  0  0
  -26.2984  -12.9390   20.3395 N   0  0  0  0  0  0
  -25.9426  -11.6524   20.5871 N   0  0  0  0  0  0
  -22.0549  -12.8106   22.0375 N   0  0  0  0  0  0
  -25.4091  -15.1855   20.4135 N   0  0  0  0  0  0
  -31.4960  -15.3775   20.0849 O   0  0  0  0  0  0
  -21.6613   -6.8907   21.4256 O   0  0  0  0  0  0
  -22.3561  -14.5452   20.6693 O   0  0  0  0  0  0
  -24.6562  -31.8258   23.1773 C   0  0  0  0  0  0
  -25.9276  -32.4611   23.8213 C   0  0  1  0  0  0
  -27.2261  -26.9804   20.1857 C   0  0  0  0  0  0
  -25.5963  -33.8425   24.2106 N   0  0  0  0  0  0
  -23.4686  -30.4392   21.5254 C   0  0  2  0  0  0
  -24.9255  -28.8342   20.1193 C   0  0  0  0  0  0
  -22.7621  -29.4455   22.4825 C   0  0  0  0  0  0
  -18.0293  -28.1383   22.8448 C   0  0  0  0  0  0
  -24.1493  -36.7207   23.2643 C   0  0  0  0  0  0
  -26.0346  -30.6542   21.3986 C   0  0  0  0  0  0
  -26.1084  -29.2484   20.7427 C   0  0  0  0  0  0
  -27.2549  -28.3413   20.7519 C   0  0  0  0  0  0
  -26.0129  -26.7020   19.5191 C   0  0  0  0  0  0
  -24.8992  -27.5794   19.4875 C   0  0  0  0  0  0
  -23.7068  -29.7534   20.1526 C   0  0  0  0  0  0
  -25.4136  -36.2986   24.0300 C   0  0  1  0  0  0
  -20.5917  -28.3725   23.1185 C   0  0  2  0  0  0
  -20.6777  -26.9419   22.5390 C   0  0  0  0  0  0
  -19.5767  -26.6364   21.5189 C   0  0  0  0  0  0
  -18.1945  -26.7907   22.1593 C   0  0  0  0  0  0
  -19.1557  -28.8876   23.2802 C   0  0  0  0  0  0
  -18.9473  -30.1472   23.8842 C   0  0  0  0  0  0
  -17.6477  -30.6593   24.0539 C   0  0  0  0  0  0
  -25.9095  -34.9364   23.5029 C   0  0  0  0  0  0
  -16.5365  -29.9081   23.6352 C   0  0  0  0  0  0
  -16.7280  -28.6491   23.0376 C   0  0  0  0  0  0
  -26.4540  -31.6553   25.0725 C   0  0  0  0  0  0
  -25.3686  -31.3790   26.1406 C   0  0  0  0  0  0
  -27.0415  -30.2920   24.6440 C   0  0  0  0  0  0
  -27.6049  -32.4336   25.7523 C   0  0  0  0  0  0
  -27.5579  -37.1755   24.8455 C   0  0  0  0  0  0
  -21.4289  -29.3031   22.3553 N   0  0  0  0  0  0
  -26.4283  -37.3727   23.9411 N   0  0  0  0  0  0
  -24.7404  -30.9999   22.0872 N   0  0  0  0  0  0
  -23.4191  -28.8033   23.3061 O   0  0  0  0  0  0
  -28.2525  -25.9148   20.2538 O   0  0  0  0  0  0
  -26.5703  -34.8885   22.4623 O   0  0  0  0  0  0
  -23.5644  -32.1225   23.6889 O   0  0  0  0  0  0
  -28.2831  -16.2412   21.6930 C   0  0  0  0  0  0
  -27.8908  -17.2484   22.5227 C   0  0  0  0  0  0
  -28.7725  -18.3310   22.2984 C   0  0  0  0  0  0
  -29.3626  -18.1325   21.0672 C   0  0  0  0  0  0
  -26.7050  -17.2621   23.4377 C   0  0  0  0  0  0
  -28.8842  -19.5475   23.2245 C   0  0  0  0  0  0
  -31.0933  -20.1405   21.0163 C   0  0  0  0  0  0
  -31.3278  -19.7074   22.4784 C   0  0  0  0  0  0
  -29.7717  -19.6509   20.3843 C   0  0  2  0  0  0
  -25.9170  -14.4817   26.6512 C   0  0  0  0  0  0
  -26.0063  -12.5171   25.0780 C   0  0  0  0  0  0
  -28.7332  -21.1157   20.3098 C   0  0  0  0  0  0
  -29.0481  -22.8707   20.3336 C   0  0  0  0  0  0
  -26.6674  -14.8188   24.2312 C   0  0  0  0  0  0
  -27.9989  -24.3049   20.1857 C   0  0  0  0  0  0
  -25.7148  -14.0305   25.1844 C   0  0  0  0  0  0
  -29.4568  -16.5592   20.9926 N   0  0  0  0  0  0
  -26.3327  -16.2409   24.2207 N   0  0  0  0  0  0
  -30.2465  -20.1057   23.4129 N   0  3  0  0  0  0
  -24.3008  -14.2663   24.8068 N   0  3  0  0  0  0
  -26.0917  -18.3185   23.5751 O   0  0  0  0  0  0
  -31.4752  -13.1140   19.1221 H   0  0  0  0  0  0
  -30.6792  -11.8609   19.9986 H   0  0  0  0  0  0
  -29.8906  -11.7782   17.6471 H   0  0  0  0  0  0
  -29.5937  -13.4930   17.6241 H   0  0  0  0  0  0
  -27.9575  -11.3260   18.9422 H   0  0  0  0  0  0
  -27.4091  -12.5465   17.8209 H   0  0  0  0  0  0
  -27.6150  -14.2782   19.5042 H   0  0  0  0  0  0
  -28.9111  -12.1092   21.1852 H   0  0  0  0  0  0
  -28.4316  -13.5136   21.9628 H   0  0  0  0  0  0
  -25.2724   -9.5661   22.4869 H   0  0  0  0  0  0
  -24.0009   -7.4603   22.7441 H   0  0  0  0  0  0
  -21.0885   -8.8725   19.8955 H   0  0  0  0  0  0
  -22.3672  -10.9621   19.6181 H   0  0  0  0  0  0
  -21.2069   -7.6190   23.9732 H   0  0  0  0  0  0
  -21.1428   -6.0567   25.9058 H   0  0  0  0  0  0
  -22.0629   -2.7650   23.2825 H   0  0  0  0  0  0
  -22.3836  -11.9389   22.4261 H   0  0  0  0  0  0
  -21.1117  -13.1112   22.2387 H   0  0  0  0  0  0
  -24.6096  -15.8115   20.4255 H   0  0  0  0  0  0
  -26.2364  -15.6162   20.0180 H   0  0  0  0  0  0
  -26.7333  -32.5181   23.0925 H   0  0  0  0  0  0
  -25.0058  -33.9522   25.0220 H   0  0  0  0  0  0
  -22.7795  -31.2694   21.3553 H   0  0  0  0  0  0
  -23.3789  -35.9504   23.3254 H   0  0  0  0  0  0
  -24.3580  -36.8904   22.2069 H   0  0  0  0  0  0
  -23.7222  -37.6363   23.6733 H   0  0  0  0  0  0
  -26.2058  -31.3996   20.6207 H   0  0  0  0  0  0
  -26.8951  -30.7106   22.0537 H   0  0  0  0  0  0
  -28.1527  -28.6618   21.2624 H   0  0  0  0  0  0
  -25.8918  -25.7434   19.0389 H   0  0  0  0  0  0
  -23.9964  -27.2532   18.9883 H   0  0  0  0  0  0
  -23.8545  -30.5169   19.3886 H   0  0  0  0  0  0
  -22.8195  -29.1966   19.8435 H   0  0  0  0  0  0
  -25.1335  -36.1774   25.0792 H   0  0  0  0  0  0
  -20.9978  -28.3333   24.1320 H   0  0  0  0  0  0
  -20.5611  -26.2363   23.3623 H   0  0  0  0  0  0
  -21.6652  -26.7387   22.1237 H   0  0  0  0  0  0
  -19.6939  -25.6260   21.1258 H   0  0  0  0  0  0
  -19.6715  -27.3133   20.6677 H   0  0  0  0  0  0
  -17.4213  -26.6616   21.4011 H   0  0  0  0  0  0
  -18.0377  -26.0069   22.8998 H   0  0  0  0  0  0
  -19.7973  -30.7268   24.2199 H   0  0  0  0  0  0
  -17.5057  -31.6268   24.5128 H   0  0  0  0  0  0
  -15.5377  -30.2961   23.7711 H   0  0  0  0  0  0
  -15.8668  -28.0778   22.7152 H   0  0  0  0  0  0
  -24.5886  -30.7116   25.7730 H   0  0  0  0  0  0
  -24.8862  -32.2979   26.4737 H   0  0  0  0  0  0
  -25.7942  -30.9031   27.0256 H   0  0  0  0  0  0
  -26.3072  -29.6628   24.1406 H   0  0  0  0  0  0
  -27.3886  -29.7262   25.5098 H   0  0  0  0  0  0
  -27.9041  -30.4088   23.9884 H   0  0  0  0  0  0
  -27.2648  -33.3679   26.2016 H   0  0  0  0  0  0
  -28.3924  -32.6835   25.0393 H   0  0  0  0  0  0
  -28.0670  -31.8527   26.5523 H   0  0  0  0  0  0
  -28.2542  -38.0099   24.7561 H   0  0  0  0  0  0
  -28.1116  -36.2629   24.6199 H   0  0  0  0  0  0
  -27.2297  -37.1310   25.8853 H   0  0  0  0  0  0
  -20.9538  -29.8713   21.6667 H   0  0  0  0  0  0
  -26.0116  -38.2767   24.1469 H   0  0  0  0  0  0
  -27.8038  -15.3001   21.6182 H   0  0  0  0  0  0
  -28.5833  -19.2259   24.2212 H   0  0  0  0  0  0
  -28.1790  -20.3329   22.9852 H   0  0  0  0  0  0
  -31.9179  -19.7391   20.4284 H   0  0  0  0  0  0
  -31.1886  -21.2228   20.9304 H   0  0  0  0  0  0
  -32.2484  -20.1721   22.8381 H   0  0  0  0  0  0
  -31.5032  -18.6329   22.5444 H   0  0  0  0  0  0
  -30.0014  -19.4511   19.3343 H   0  0  0  0  0  0
  -26.9565  -14.3599   26.9646 H   0  0  0  0  0  0
  -25.3076  -13.8883   27.3355 H   0  0  0  0  0  0
  -25.6476  -15.5271   26.8131 H   0  0  0  0  0  0
  -27.0178  -12.2774   25.4114 H   0  0  0  0  0  0
  -25.9045  -12.1514   24.0569 H   0  0  0  0  0  0
  -25.3237  -11.9321   25.6967 H   0  0  0  0  0  0
  -27.9545  -20.9835   21.0511 H   0  0  0  0  0  0
  -28.1613  -20.9653   19.3954 H   0  0  0  0  0  0
  -29.8106  -23.0189   19.5716 H   0  0  0  0  0  0
  -29.5785  -23.0380   21.2712 H   0  0  0  0  0  0
  -26.5644  -14.4161   23.2224 H   0  0  0  0  0  0
  -27.7091  -14.6886   24.5253 H   0  0  0  0  0  0
  -27.2211  -24.1501   20.9362 H   0  0  0  0  0  0
  -27.4826  -24.1541   19.2385 H   0  0  0  0  0  0
  -25.6890  -16.5377   24.9389 H   0  0  0  0  0  0
  -30.5398  -19.8032   24.3263 H   0  0  0  0  0  0
  -30.1889  -21.1089   23.4621 H   0  0  0  0  0  0
  -23.6813  -13.7391   25.3994 H   0  0  0  0  0  0
  -24.1362  -13.9867   23.8562 H   0  0  0  0  0  0
  -24.0444  -15.2353   24.8866 H   0  0  0  0  0  0
  1 25  1  0  0  0
  1 30  2  0  0  0
  1 87  1  0  0  0
  2  3  1  0  0  0
  2 25  1  0  0  0
  2 92  1  0  0  0
  2 93  1  0  0  0
  3  4  1  0  0  0
  3 94  1  0  0  0
  3 95  1  0  0  0
  4  5  1  0  0  0
  4 96  1  0  0  0
  4 97  1  0  0  0
  5  6  1  0  0  0
  5 26  1  0  0  0
  5 98  1  0  0  0
  6 25  1  0  0  0
  6 99  1  0  0  0
  6100  1  0  0  0
  7  8  2  0  0  0
  7 26  1  0  0  0
  7 29  1  0  0  0
  8  9  1  0  0  0
  8 22  1  0  0  0
  9 10  1  0  0  0
  9 27  2  0  0  0
 10 11  2  0  0  0
 10 15  1  0  0  0
 11 12  1  0  0  0
 11101  1  0  0  0
 12 13  2  0  0  0
 12102  1  0  0  0
 13 14  1  0  0  0
 13 31  1  0  0  0
 14 15  2  0  0  0
 14103  1  0  0  0
 15104  1  0  0  0
 16 17  2  0  0  0
 16 21  1  0  0  0
 16 31  1  0  0  0
 17 18  1  0  0  0
 17105  1  0  0  0
 18 19  2  0  0  0
 18106  1  0  0  0
 19 20  1  0  0  0
 19 24  1  0  0  0
 20 21  2  0  0  0
 20107  1  0  0  0
 21 23  1  0  0  0
 22 28  1  0  0  0
 22 32  2  0  0  0
 26 27  1  0  0  0
 28108  1  0  0  0
 28109  1  0  0  0
 29110  1  0  0  0
 29111  1  0  0  0
 33 34  1  0  0  0
 33 66  1  0  0  0
 33 70  2  0  0  0
 34 36  1  0  0  0
 34 59  1  0  0  0
 34112  1  0  0  0
 35 44  2  0  0  0
 35 45  1  0  0  0
 35 68  1  0  0  0
 36 56  1  0  0  0
 36113  1  0  0  0
 37 39  1  0  0  0
 37 47  1  0  0  0
 37 66  1  0  0  0
 37114  1  0  0  0
 38 43  2  0  0  0
 38 46  1  0  0  0
 38 47  1  0  0  0
 39 64  1  0  0  0
 39 67  2  0  0  0
 40 52  1  0  0  0
 40 53  2  0  0  0
 40 58  1  0  0  0
 41115  1  0  0  0
 41116  1  0  0  0
 41117  1  0  0  0
 41 48  1  0  0  0
 42 43  1  0  0  0
 42 66  1  0  0  0
 42118  1  0  0  0
 42119  1  0  0  0
 43 44  1  0  0  0
 44120  1  0  0  0
 45 46  2  0  0  0
 45121  1  0  0  0
 46122  1  0  0  0
 47123  1  0  0  0
 47124  1  0  0  0
 48 56  1  0  0  0
 48 65  1  0  0  0
 48125  1  0  0  0
 49 50  1  0  0  0
 49 53  1  0  0  0
 49 64  1  0  0  0
 49126  1  0  0  0
 50 51  1  0  0  0
 50127  1  0  0  0
 50128  1  0  0  0
 51 52  1  0  0  0
 51129  1  0  0  0
 51130  1  0  0  0
 52131  1  0  0  0
 52132  1  0  0  0
 53 54  1  0  0  0
 54 55  2  0  0  0
 54133  1  0  0  0
 55 57  1  0  0  0
 55134  1  0  0  0
 56 69  2  0  0  0
 57 58  2  0  0  0
 57135  1  0  0  0
 58136  1  0  0  0
 59 60  1  0  0  0
 59 61  1  0  0  0
 59 62  1  0  0  0
 60137  1  0  0  0
 60138  1  0  0  0
 60139  1  0  0  0
 61140  1  0  0  0
 61141  1  0  0  0
 61142  1  0  0  0
 62143  1  0  0  0
 62144  1  0  0  0
 62145  1  0  0  0
 63 65  1  0  0  0
 63146  1  0  0  0
 63147  1  0  0  0
 63148  1  0  0  0
 64149  1  0  0  0
 65150  1  0  0  0
 68 85  1  0  0  0
 71 72  2  0  0  0
 71 87  1  0  0  0
 71151  1  0  0  0
 72 73  1  0  0  0
 72 75  1  0  0  0
 73 74  2  0  0  0
 73 76  1  0  0  0
 74 79  1  0  0  0
 74 87  1  0  0  0
 75 88  1  0  0  0
 75 91  2  0  0  0
 76 89  1  0  0  0
 76152  1  0  0  0
 76153  1  0  0  0
 77 78  1  0  0  0
 77 79  1  0  0  0
 77154  1  0  0  0
 77155  1  0  0  0
 78 89  1  0  0  0
 78156  1  0  0  0
 78157  1  0  0  0
 79 82  1  0  0  0
 79158  1  0  0  0
 80159  1  0  0  0
 80160  1  0  0  0
 80161  1  0  0  0
 80 86  1  0  0  0
 81 86  1  0  0  0
 81162  1  0  0  0
 81163  1  0  0  0
 81164  1  0  0  0
 82 83  1  0  0  0
 82165  1  0  0  0
 82166  1  0  0  0
 83 85  1  0  0  0
 83167  1  0  0  0
 83168  1  0  0  0
 84 86  1  0  0  0
 84 88  1  0  0  0
 84169  1  0  0  0
 84170  1  0  0  0
 85171  1  0  0  0
 85172  1  0  0  0
 86 90  1  0  0  0
 88173  1  0  0  0
 89174  1  0  0  0
 89175  1  0  0  0
 90176  1  0  0  0
 90177  1  0  0  0
 90178  1  0  0  0
M  CHG  2  89   1  90   1
M  ISO  4   1 100  68 101  85 101  87 100
M  END
> <chiral flag>
0

> <version>
0

> <s_m_source_file>
/data/baiqing/PycharmProjects/Reinvent-master-3.2/result/LINK_invent/BTK/process_docking_weight1_custom_sum_contain_oxygen_bond_distance_aromatic_linkinvent_7_9_3/rearranged_h_0114.sdf

> <i_m_source_file_index>
68

> <r_mmod_Potential_Energy-OPLS-2005>
1039.76782226562

> <r_mmod_Stretch_Energy-OPLS-2005>
628.588073730469

> <r_mmod_Bend_Energy-OPLS-2005>
555.943359375

> <r_mmod_Torsional_Energy-OPLS-2005>
369.315551757812

> <r_mmod_Improper_Torsional_Energy-OPLS-2005>
5.46842384338379

> <r_mmod_Van_der_Waal_Energy-OPLS-2005>
114.529022216797

> <r_mmod_Electrostatic_Energy-OPLS-2005>
-93.9104766845703

> <r_mmod_Solvation_Energy-OPLS-2005>
-937.470947265625

> <b_mmod_Minimization_Converged-OPLS-2005>
0

> <r_mmod_RMS_Derivative-OPLS-2005>
4.95977354049683

$$$$
68
                    3D
 Structure written by MMmdl.
172180  0  0  1  0            999 V2000
  -30.6013  -14.7368   20.4525 C   0  0  0  0  0  0
  -30.4413  -12.4409   19.4917 C   0  0  0  0  0  0
  -29.5274  -12.5141   18.2479 C   0  0  0  0  0  0
  -28.0435  -12.3560   18.6410 C   0  0  0  0  0  0
  -27.6491  -13.2344   19.8592 C   0  0  2  0  0  0
  -28.6917  -13.1428   20.9981 C   0  0  0  0  0  0
  -25.2522  -13.8214   20.5683 C   0  0  0  0  0  0
  -24.1808  -13.0458   20.9201 C   0  0  0  0  0  0
  -24.6398  -11.6939   20.8747 C   0  0  0  0  0  0
  -23.9070  -10.4318   21.0394 C   0  0  0  0  0  0
  -24.3614   -9.4236   21.9169 C   0  0  0  0  0  0
  -23.6293   -8.2275   22.0749 C   0  0  0  0  0  0
  -22.4282   -8.0292   21.3538 C   0  0  0  0  0  0
  -21.9912   -9.0278   20.4648 C   0  0  0  0  0  0
  -22.7235  -10.2153   20.3046 C   0  0  0  0  0  0
  -21.6863   -6.0734   22.5282 C   0  0  0  0  0  0
  -21.4019   -6.5629   23.8220 C   0  0  0  0  0  0
  -21.3668   -5.6778   24.9181 C   0  0  0  0  0  0
  -21.6053   -4.3046   24.7221 C   0  0  0  0  0  0
  -21.8819   -3.8136   23.4346 C   0  0  0  0  0  0
  -21.9193   -4.6963   22.3400 C   0  0  0  0  0  0
  -22.7811  -13.5247   21.1826 C   0  0  0  0  0  0
  -22.1655   -4.2134   21.0986 F   0  0  0  0  0  0
  -21.5631   -3.4533   25.7737 F   0  0  0  0  0  0
  -29.9998  -13.4974   20.4320 N   0  0  0  0  0  0
  -26.2967  -12.9423   20.3294 N   0  0  0  0  0  0
  -25.9340  -11.6563   20.5746 N   0  0  0  0  0  0
  -22.0422  -12.8287   22.0391 N   0  0  0  0  0  0
  -25.4189  -15.1946   20.4079 N   0  0  0  0  0  0
  -31.7673  -14.8667   20.0729 O   0  0  0  0  0  0
  -21.6656   -6.8881   21.4240 O   0  0  0  0  0  0
  -22.3504  -14.5532   20.6635 O   0  0  0  0  0  0
  -24.6316  -31.8550   23.1974 C   0  0  0  0  0  0
  -25.9142  -32.4745   23.8322 C   0  0  1  0  0  0
  -27.2143  -27.2637   20.1178 C   0  0  0  0  0  0
  -25.5940  -33.8551   24.2247 N   0  0  0  0  0  0
  -23.4275  -30.4791   21.5409 C   0  0  2  0  0  0
  -24.8727  -28.9267   20.1088 C   0  0  0  0  0  0
  -22.7503  -29.4609   22.4901 C   0  0  0  0  0  0
  -18.0296  -28.1390   22.8481 C   0  0  0  0  0  0
  -24.1490  -36.7278   23.2639 C   0  0  0  0  0  0
  -25.9737  -30.7677   21.3769 C   0  0  0  0  0  0
  -26.0451  -29.3911   20.7173 C   0  0  0  0  0  0
  -27.2199  -28.5728   20.7099 C   0  0  0  0  0  0
  -26.0173  -26.8667   19.4805 C   0  0  0  0  0  0
  -24.8633  -27.6727   19.4811 C   0  0  0  0  0  0
  -23.6443  -29.8140   20.1570 C   0  0  0  0  0  0
  -25.4112  -36.3056   24.0318 C   0  0  1  0  0  0
  -20.5904  -28.3702   23.1266 C   0  0  2  0  0  0
  -20.6780  -26.9417   22.5413 C   0  0  0  0  0  0
  -19.5757  -26.6380   21.5215 C   0  0  0  0  0  0
  -18.1936  -26.7927   22.1626 C   0  0  0  0  0  0
  -19.1548  -28.8863   23.2866 C   0  0  0  0  0  0
  -18.9466  -30.1461   23.8884 C   0  0  0  0  0  0
  -17.6463  -30.6588   24.0559 C   0  0  0  0  0  0
  -25.9055  -34.9432   23.5084 C   0  0  0  0  0  0
  -16.5357  -29.9082   23.6333 C   0  0  0  0  0  0
  -16.7279  -28.6504   23.0348 C   0  0  0  0  0  0
  -26.4497  -31.6568   25.0718 C   0  0  0  0  0  0
  -25.3709  -31.3740   26.1433 C   0  0  0  0  0  0
  -27.0346  -30.2976   24.6218 C   0  0  0  0  0  0
  -27.6040  -32.4313   25.7505 C   0  0  0  0  0  0
  -27.5573  -37.1796   24.8459 C   0  0  0  0  0  0
  -21.4218  -29.3040   22.3649 N   0  0  0  0  0  0
  -26.4284  -37.3754   23.9402 N   0  0  0  0  0  0
  -24.6964  -31.0527   22.0941 N   0  0  0  0  0  0
  -23.4209  -28.8143   23.2992 O   0  0  0  0  0  0
  -28.3129  -26.3759   20.1760 O   0  0  0  0  0  0
  -26.5630  -34.8903   22.4651 O   0  0  0  0  0  0
  -23.5467  -32.1372   23.7273 O   0  0  0  0  0  0
  -29.1002  -21.6283   18.9645 C   0  0  0  0  0  0
  -29.2971  -20.2715   19.1176 C   0  0  0  0  0  0
  -29.2346  -22.3015   20.2183 C   0  0  0  0  0  0
  -29.4659  -21.2412   21.1063 C   0  0  0  0  0  0
  -29.6443  -21.3463   22.5891 C   0  0  0  0  0  0
  -32.0105  -26.9280   20.7535 C   0  0  0  0  0  0
  -30.8455  -25.8709   22.7482 C   0  0  0  0  0  0
  -31.2017  -18.5709   21.7810 C   0  0  0  0  0  0
  -29.8808  -17.2604   20.0767 C   0  0  0  0  0  0
  -31.7051  -24.3737   20.8105 C   0  0  0  0  0  0
  -28.0996  -24.8960   19.9819 C   0  0  0  0  0  0
  -29.2592  -23.8916   20.4737 C   0  0  2  0  0  0
  -31.8905  -25.6721   21.6362 C   0  0  0  0  0  0
  -29.8554  -18.5666   21.0337 C   0  0  2  0  0  0
  -29.5618  -19.9692   20.4460 N   0  0  0  0  0  0
  -29.8000  -15.8450   20.6687 N   0  0  0  0  0  0
  -30.5264  -24.4108   19.9201 N   0  3  0  0  0  0
  -31.4864  -12.5574   19.2030 H   0  0  0  0  0  0
  -30.3746  -11.4583   19.9618 H   0  0  0  0  0  0
  -29.8115  -11.7488   17.5248 H   0  0  0  0  0  0
  -29.6716  -13.4724   17.7482 H   0  0  0  0  0  0
  -27.8727  -11.3043   18.8713 H   0  0  0  0  0  0
  -27.4057  -12.5893   17.7882 H   0  0  0  0  0  0
  -27.6517  -14.2624   19.4977 H   0  0  0  0  0  0
  -28.7173  -12.1373   21.4209 H   0  0  0  0  0  0
  -28.4275  -13.8071   21.8208 H   0  0  0  0  0  0
  -25.2753   -9.5740   22.4735 H   0  0  0  0  0  0
  -24.0017   -7.4677   22.7478 H   0  0  0  0  0  0
  -21.0840   -8.8801   19.8957 H   0  0  0  0  0  0
  -22.3691  -10.9694   19.6155 H   0  0  0  0  0  0
  -21.2018   -7.6136   23.9718 H   0  0  0  0  0  0
  -21.1480   -6.0510   25.9084 H   0  0  0  0  0  0
  -22.0586   -2.7600   23.2848 H   0  0  0  0  0  0
  -22.4003  -12.0004   22.4904 H   0  0  0  0  0  0
  -21.1016  -13.1319   22.2484 H   0  0  0  0  0  0
  -24.6453  -15.8424   20.5142 H   0  0  0  0  0  0
  -26.2596  -15.6396   20.0613 H   0  0  0  0  0  0
  -26.7214  -32.5391   23.1066 H   0  0  0  0  0  0
  -25.0083  -33.9686   25.0393 H   0  0  0  0  0  0
  -22.7233  -31.3003   21.3959 H   0  0  0  0  0  0
  -23.3747  -35.9621   23.3298 H   0  0  0  0  0  0
  -24.3579  -36.8907   22.2056 H   0  0  0  0  0  0
  -23.7260  -37.6481   23.6671 H   0  0  0  0  0  0
  -26.1145  -31.5283   20.6076 H   0  0  0  0  0  0
  -26.8510  -30.8147   22.0104 H   0  0  0  0  0  0
  -28.1181  -28.9204   21.2009 H   0  0  0  0  0  0
  -25.9375  -25.9112   18.9833 H   0  0  0  0  0  0
  -23.9647  -27.3146   18.9984 H   0  0  0  0  0  0
  -23.7677  -30.5887   19.3990 H   0  0  0  0  0  0
  -22.7619  -29.2471   19.8553 H   0  0  0  0  0  0
  -25.1306  -36.1892   25.0812 H   0  0  0  0  0  0
  -21.0003  -28.3274   24.1384 H   0  0  0  0  0  0
  -20.5678  -26.2309   23.3615 H   0  0  0  0  0  0
  -21.6644  -26.7429   22.1207 H   0  0  0  0  0  0
  -19.6909  -25.6285   21.1247 H   0  0  0  0  0  0
  -19.6689  -27.3187   20.6741 H   0  0  0  0  0  0
  -17.4206  -26.6683   21.4024 H   0  0  0  0  0  0
  -18.0324  -26.0075   22.9029 H   0  0  0  0  0  0
  -19.7940  -30.7284   24.2247 H   0  0  0  0  0  0
  -17.5014  -31.6267   24.5161 H   0  0  0  0  0  0
  -15.5353  -30.2973   23.7662 H   0  0  0  0  0  0
  -15.8684  -28.0816   22.7059 H   0  0  0  0  0  0
  -24.5879  -30.7095   25.7757 H   0  0  0  0  0  0
  -24.8908  -32.2926   26.4821 H   0  0  0  0  0  0
  -25.8007  -30.8937   27.0233 H   0  0  0  0  0  0
  -26.2935  -29.6716   24.1237 H   0  0  0  0  0  0
  -27.4002  -29.7248   25.4750 H   0  0  0  0  0  0
  -27.8821  -30.4230   23.9475 H   0  0  0  0  0  0
  -27.2634  -33.3610   26.2073 H   0  0  0  0  0  0
  -28.3863  -32.6881   25.0352 H   0  0  0  0  0  0
  -28.0692  -31.8451   26.5439 H   0  0  0  0  0  0
  -28.2587  -38.0098   24.7497 H   0  0  0  0  0  0
  -28.1076  -36.2626   24.6295 H   0  0  0  0  0  0
  -27.2293  -37.1452   25.8864 H   0  0  0  0  0  0
  -20.9398  -29.8765   21.6861 H   0  0  0  0  0  0
  -26.0157  -38.2825   24.1401 H   0  0  0  0  0  0
  -28.9155  -22.1009   18.0093 H   0  0  0  0  0  0
  -29.2864  -19.4887   18.3705 H   0  0  0  0  0  0
  -29.1121  -22.2082   22.9894 H   0  0  0  0  0  0
  -30.6967  -21.4657   22.8458 H   0  0  0  0  0  0
  -29.2545  -20.4698   23.1071 H   0  0  0  0  0  0
  -32.2460  -27.8048   21.3576 H   0  0  0  0  0  0
  -31.0859  -27.1472   20.2183 H   0  0  0  0  0  0
  -32.8083  -26.8207   20.0171 H   0  0  0  0  0  0
  -31.1299  -26.6963   23.4017 H   0  0  0  0  0  0
  -30.7526  -24.9804   23.3720 H   0  0  0  0  0  0
  -29.8594  -26.1112   22.3516 H   0  0  0  0  0  0
  -31.4450  -17.5719   22.1430 H   0  0  0  0  0  0
  -31.2085  -19.2205   22.6520 H   0  0  0  0  0  0
  -32.0135  -18.8865   21.1247 H   0  0  0  0  0  0
  -30.7547  -17.3146   19.4271 H   0  0  0  0  0  0
  -29.0262  -17.3352   19.4042 H   0  0  0  0  0  0
  -31.6794  -23.4887   21.4484 H   0  0  0  0  0  0
  -32.5812  -24.2477   20.1715 H   0  0  0  0  0  0
  -27.1813  -24.6004   20.4917 H   0  0  0  0  0  0
  -27.9284  -24.7240   18.9186 H   0  0  0  0  0  0
  -29.2852  -24.0162   21.5539 H   0  0  0  0  0  0
  -32.8482  -25.5602   22.1463 H   0  0  0  0  0  0
  -29.0674  -18.3895   21.7676 H   0  0  0  0  0  0
  -28.8963  -15.6150   21.0533 H   0  0  0  0  0  0
  -30.7323  -23.8768   19.0914 H   0  0  0  0  0  0
  -30.3853  -25.3680   19.6345 H   0  0  0  0  0  0
  1 25  1  0  0  0
  1 30  2  0  0  0
  1 86  1  0  0  0
  2  3  1  0  0  0
  2 25  1  0  0  0
  2 88  1  0  0  0
  2 89  1  0  0  0
  3  4  1  0  0  0
  3 90  1  0  0  0
  3 91  1  0  0  0
  4  5  1  0  0  0
  4 92  1  0  0  0
  4 93  1  0  0  0
  5  6  1  0  0  0
  5 26  1  0  0  0
  5 94  1  0  0  0
  6 25  1  0  0  0
  6 95  1  0  0  0
  6 96  1  0  0  0
  7  8  2  0  0  0
  7 26  1  0  0  0
  7 29  1  0  0  0
  8  9  1  0  0  0
  8 22  1  0  0  0
  9 10  1  0  0  0
  9 27  2  0  0  0
 10 11  2  0  0  0
 10 15  1  0  0  0
 11 12  1  0  0  0
 11 97  1  0  0  0
 12 13  2  0  0  0
 12 98  1  0  0  0
 13 14  1  0  0  0
 13 31  1  0  0  0
 14 15  2  0  0  0
 14 99  1  0  0  0
 15100  1  0  0  0
 16 17  2  0  0  0
 16 21  1  0  0  0
 16 31  1  0  0  0
 17 18  1  0  0  0
 17101  1  0  0  0
 18 19  2  0  0  0
 18102  1  0  0  0
 19 20  1  0  0  0
 19 24  1  0  0  0
 20 21  2  0  0  0
 20103  1  0  0  0
 21 23  1  0  0  0
 22 28  1  0  0  0
 22 32  2  0  0  0
 26 27  1  0  0  0
 28104  1  0  0  0
 28105  1  0  0  0
 29106  1  0  0  0
 29107  1  0  0  0
 33 34  1  0  0  0
 33 66  1  0  0  0
 33 70  2  0  0  0
 34 36  1  0  0  0
 34 59  1  0  0  0
 34108  1  0  0  0
 35 44  2  0  0  0
 35 45  1  0  0  0
 35 68  1  0  0  0
 36 56  1  0  0  0
 36109  1  0  0  0
 37 39  1  0  0  0
 37 47  1  0  0  0
 37 66  1  0  0  0
 37110  1  0  0  0
 38 43  2  0  0  0
 38 46  1  0  0  0
 38 47  1  0  0  0
 39 64  1  0  0  0
 39 67  2  0  0  0
 40 52  1  0  0  0
 40 53  2  0  0  0
 40 58  1  0  0  0
 41111  1  0  0  0
 41112  1  0  0  0
 41113  1  0  0  0
 41 48  1  0  0  0
 42 43  1  0  0  0
 42 66  1  0  0  0
 42114  1  0  0  0
 42115  1  0  0  0
 43 44  1  0  0  0
 44116  1  0  0  0
 45 46  2  0  0  0
 45117  1  0  0  0
 46118  1  0  0  0
 47119  1  0  0  0
 47120  1  0  0  0
 48 56  1  0  0  0
 48 65  1  0  0  0
 48121  1  0  0  0
 49 50  1  0  0  0
 49 53  1  0  0  0
 49 64  1  0  0  0
 49122  1  0  0  0
 50 51  1  0  0  0
 50123  1  0  0  0
 50124  1  0  0  0
 51 52  1  0  0  0
 51125  1  0  0  0
 51126  1  0  0  0
 52127  1  0  0  0
 52128  1  0  0  0
 53 54  1  0  0  0
 54 55  2  0  0  0
 54129  1  0  0  0
 55 57  1  0  0  0
 55130  1  0  0  0
 56 69  2  0  0  0
 57 58  2  0  0  0
 57131  1  0  0  0
 58132  1  0  0  0
 59 60  1  0  0  0
 59 61  1  0  0  0
 59 62  1  0  0  0
 60133  1  0  0  0
 60134  1  0  0  0
 60135  1  0  0  0
 61136  1  0  0  0
 61137  1  0  0  0
 61138  1  0  0  0
 62139  1  0  0  0
 62140  1  0  0  0
 62141  1  0  0  0
 63 65  1  0  0  0
 63142  1  0  0  0
 63143  1  0  0  0
 63144  1  0  0  0
 64145  1  0  0  0
 65146  1  0  0  0
 68 81  1  0  0  0
 71 72  2  0  0  0
 71 73  1  0  0  0
 71147  1  0  0  0
 72 85  1  0  0  0
 72148  1  0  0  0
 73 74  2  0  0  0
 73 82  1  0  0  0
 74 75  1  0  0  0
 74 85  1  0  0  0
 75149  1  0  0  0
 75150  1  0  0  0
 75151  1  0  0  0
 76152  1  0  0  0
 76153  1  0  0  0
 76154  1  0  0  0
 76 83  1  0  0  0
 77 83  1  0  0  0
 77155  1  0  0  0
 77156  1  0  0  0
 77157  1  0  0  0
 78158  1  0  0  0
 78159  1  0  0  0
 78160  1  0  0  0
 78 84  1  0  0  0
 79 84  1  0  0  0
 79 86  1  0  0  0
 79161  1  0  0  0
 79162  1  0  0  0
 80 83  1  0  0  0
 80 87  1  0  0  0
 80163  1  0  0  0
 80164  1  0  0  0
 81165  1  0  0  0
 81166  1  0  0  0
 81 82  1  0  0  0
 82 87  1  0  0  0
 82167  1  0  0  0
 83168  1  0  0  0
 84 85  1  0  0  0
 84169  1  0  0  0
 86170  1  0  0  0
 87171  1  0  0  0
 87172  1  0  0  0
M  CHG  1  87   1
M  ISO  4   1 100  68 101  81 101  86 100
M  END
> <chiral flag>
0

> <version>
0

> <s_m_source_file>
/data/baiqing/PycharmProjects/Reinvent-master-3.2/result/LINK_invent/BTK/process_docking_weight1_custom_sum_contain_oxygen_bond_distance_aromatic_linkinvent_7_9_3/rearranged_h_0114.sdf

> <i_m_source_file_index>
69

> <r_mmod_Potential_Energy-OPLS-2005>
-19.3770599365234

> <r_mmod_Stretch_Energy-OPLS-2005>
127.185096740723

> <r_mmod_Bend_Energy-OPLS-2005>
173.248657226562

> <r_mmod_Torsional_Energy-OPLS-2005>
273.099700927734

> <r_mmod_Improper_Torsional_Energy-OPLS-2005>
7.2910623550415

> <r_mmod_Van_der_Waal_Energy-OPLS-2005>
106.173461914062

> <r_mmod_Electrostatic_Energy-OPLS-2005>
-374.114471435547

> <r_mmod_Solvation_Energy-OPLS-2005>
-414.252838134766

> <b_mmod_Minimization_Converged-OPLS-2005>
0

> <r_mmod_RMS_Derivative-OPLS-2005>
2.48821234703064

$$$$
69
                    3D
 Structure written by MMmdl.
168176  0  0  1  0            999 V2000
  -30.4797  -15.1865   20.3820 C   0  0  0  0  0  0
  -30.4383  -12.7540   19.5243 C   0  0  0  0  0  0
  -29.5318  -12.5575   18.2845 C   0  0  0  0  0  0
  -28.0782  -12.2960   18.7130 C   0  0  0  0  0  0
  -27.6152  -13.2688   19.8269 C   0  0  2  0  0  0
  -28.6511  -13.4168   20.9623 C   0  0  0  0  0  0
  -25.2407  -13.8233   20.5738 C   0  0  0  0  0  0
  -24.1749  -13.0434   20.9239 C   0  0  0  0  0  0
  -24.6392  -11.6926   20.8760 C   0  0  0  0  0  0
  -23.9087  -10.4285   21.0403 C   0  0  0  0  0  0
  -24.3631   -9.4200   21.9181 C   0  0  0  0  0  0
  -23.6296   -8.2240   22.0754 C   0  0  0  0  0  0
  -22.4284   -8.0278   21.3537 C   0  0  0  0  0  0
  -21.9926   -9.0249   20.4642 C   0  0  0  0  0  0
  -22.7260  -10.2124   20.3051 C   0  0  0  0  0  0
  -21.6856   -6.0734   22.5266 C   0  0  0  0  0  0
  -21.4018   -6.5634   23.8204 C   0  0  0  0  0  0
  -21.3660   -5.6784   24.9161 C   0  0  0  0  0  0
  -21.6047   -4.3046   24.7213 C   0  0  0  0  0  0
  -21.8822   -3.8142   23.4332 C   0  0  0  0  0  0
  -21.9196   -4.6960   22.3391 C   0  0  0  0  0  0
  -22.7768  -13.5190   21.1877 C   0  0  0  0  0  0
  -22.1665   -4.2146   21.0967 F   0  0  0  0  0  0
  -21.5629   -3.4534   25.7727 F   0  0  0  0  0  0
  -29.8949  -13.8961   20.3410 N   0  0  0  0  0  0
  -26.2833  -12.9499   20.3237 N   0  0  0  0  0  0
  -25.9331  -11.6609   20.5739 N   0  0  0  0  0  0
  -22.0429  -12.8176   22.0432 N   0  0  0  0  0  0
  -25.4051  -15.1967   20.4165 N   0  0  0  0  0  0
  -31.6961  -15.1850   20.1548 O   0  0  0  0  0  0
  -21.6644   -6.8878   21.4231 O   0  0  0  0  0  0
  -22.3448  -14.5490   20.6714 O   0  0  0  0  0  0
  -24.6582  -31.8297   23.1756 C   0  0  0  0  0  0
  -25.9281  -32.4622   23.8198 C   0  0  1  0  0  0
  -27.2093  -26.9737   20.1871 C   0  0  0  0  0  0
  -25.5968  -33.8432   24.2110 N   0  0  0  0  0  0
  -23.4695  -30.4437   21.5254 C   0  0  2  0  0  0
  -24.9233  -28.8439   20.1128 C   0  0  0  0  0  0
  -22.7631  -29.4472   22.4809 C   0  0  0  0  0  0
  -18.0304  -28.1421   22.8464 C   0  0  0  0  0  0
  -24.1496  -36.7229   23.2644 C   0  0  0  0  0  0
  -26.0358  -30.6526   21.3990 C   0  0  0  0  0  0
  -26.1055  -29.2457   20.7483 C   0  0  0  0  0  0
  -27.2479  -28.3306   20.7637 C   0  0  0  0  0  0
  -26.0079  -26.7284   19.4867 C   0  0  0  0  0  0
  -24.8986  -27.6051   19.4581 C   0  0  0  0  0  0
  -23.7057  -29.7641   20.1500 C   0  0  0  0  0  0
  -25.4129  -36.2988   24.0312 C   0  0  1  0  0  0
  -20.5928  -28.3750   23.1205 C   0  0  2  0  0  0
  -20.6793  -26.9440   22.5404 C   0  0  0  0  0  0
  -19.5770  -26.6386   21.5213 C   0  0  0  0  0  0
  -18.1941  -26.7952   22.1616 C   0  0  0  0  0  0
  -19.1565  -28.8904   23.2821 C   0  0  0  0  0  0
  -18.9478  -30.1490   23.8857 C   0  0  0  0  0  0
  -17.6474  -30.6604   24.0560 C   0  0  0  0  0  0
  -25.9092  -34.9371   23.5029 C   0  0  0  0  0  0
  -16.5366  -29.9097   23.6349 C   0  0  0  0  0  0
  -16.7289  -28.6521   23.0363 C   0  0  0  0  0  0
  -26.4558  -31.6540   25.0694 C   0  0  0  0  0  0
  -25.3705  -31.3754   26.1356 C   0  0  0  0  0  0
  -27.0448  -30.2924   24.6364 C   0  0  0  0  0  0
  -27.6067  -32.4330   25.7496 C   0  0  0  0  0  0
  -27.5566  -37.1760   24.8461 C   0  0  0  0  0  0
  -21.4305  -29.3056   22.3561 N   0  0  0  0  0  0
  -26.4271  -37.3720   23.9418 N   0  0  0  0  0  0
  -24.7424  -31.0008   22.0874 N   0  0  0  0  0  0
  -23.4204  -28.8024   23.3017 O   0  0  0  0  0  0
  -28.1985  -25.8700   20.2362 O   0  0  0  0  0  0
  -26.5691  -34.8895   22.4617 O   0  0  0  0  0  0
  -23.5660  -32.1239   23.6878 O   0  0  0  0  0  0
  -29.4037  -22.0995   21.2727 C   0  0  0  0  0  0
  -28.5510  -20.2615   19.4325 C   0  0  0  0  0  0
  -29.8347  -20.6760   21.3040 C   0  0  0  0  0  0
  -28.1083  -21.6834   19.4059 C   0  0  0  0  0  0
  -29.4385  -19.6102   20.3815 C   0  0  0  0  0  0
  -28.5188  -22.7527   20.3232 C   0  0  0  0  0  0
  -30.8074  -20.3078   22.4104 C   0  0  0  0  0  0
  -26.6009  -22.0973   15.1671 C   0  0  0  0  0  0
  -27.1921  -24.5213   15.3074 C   0  0  0  0  0  0
  -25.2070  -23.6610   16.5606 C   0  0  0  0  0  0
  -27.0780  -22.0270   18.3348 C   0  0  0  0  0  0
  -30.1648  -18.0315   20.2637 C   0  0  0  0  0  0
  -27.7778  -24.3189   20.4794 C   0  0  0  0  0  0
  -27.5809  -23.0603   17.3043 C   0  0  0  0  0  0
  -26.6391  -23.3220   16.1004 C   0  0  0  0  0  0
  -29.7410  -16.4558   20.4662 N   0  0  0  0  0  0
  -31.4619  -12.9415   19.1968 H   0  0  0  0  0  0
  -30.4843  -11.8414   20.1212 H   0  0  0  0  0  0
  -29.8978  -11.7309   17.6736 H   0  0  0  0  0  0
  -29.5735  -13.4482   17.6552 H   0  0  0  0  0  0
  -28.0270  -11.2707   19.0817 H   0  0  0  0  0  0
  -27.4071  -12.3449   17.8544 H   0  0  0  0  0  0
  -27.5398  -14.2412   19.3386 H   0  0  0  0  0  0
  -28.7991  -12.4748   21.4930 H   0  0  0  0  0  0
  -28.3042  -14.1410   21.7015 H   0  0  0  0  0  0
  -25.2772   -9.5673   22.4760 H   0  0  0  0  0  0
  -23.9993   -7.4638   22.7483 H   0  0  0  0  0  0
  -21.0858   -8.8776   19.8946 H   0  0  0  0  0  0
  -22.3721  -10.9665   19.6163 H   0  0  0  0  0  0
  -21.2015   -7.6145   23.9703 H   0  0  0  0  0  0
  -21.1483   -6.0515   25.9063 H   0  0  0  0  0  0
  -22.0607   -2.7606   23.2830 H   0  0  0  0  0  0
  -22.4073  -11.9849   22.4820 H   0  0  0  0  0  0
  -21.1042  -13.1180   22.2641 H   0  0  0  0  0  0
  -24.6334  -15.8459   20.5269 H   0  0  0  0  0  0
  -26.2439  -15.6364   20.0615 H   0  0  0  0  0  0
  -26.7342  -32.5187   23.0909 H   0  0  0  0  0  0
  -25.0087  -33.9529   25.0242 H   0  0  0  0  0  0
  -22.7815  -31.2747   21.3587 H   0  0  0  0  0  0
  -23.3770  -35.9542   23.3268 H   0  0  0  0  0  0
  -24.3569  -36.8914   22.2060 H   0  0  0  0  0  0
  -23.7234  -37.6403   23.6723 H   0  0  0  0  0  0
  -26.2026  -31.3921   20.6145 H   0  0  0  0  0  0
  -26.9023  -30.7146   22.0451 H   0  0  0  0  0  0
  -28.1425  -28.6331   21.2908 H   0  0  0  0  0  0
  -25.8940  -25.7966   18.9591 H   0  0  0  0  0  0
  -24.0061  -27.2977   18.9305 H   0  0  0  0  0  0
  -23.8528  -30.5337   19.3917 H   0  0  0  0  0  0
  -22.8174  -29.2133   19.8365 H   0  0  0  0  0  0
  -25.1318  -36.1789   25.0802 H   0  0  0  0  0  0
  -21.0003  -28.3353   24.1335 H   0  0  0  0  0  0
  -20.5679  -26.2361   23.3634 H   0  0  0  0  0  0
  -21.6655  -26.7435   22.1202 H   0  0  0  0  0  0
  -19.6940  -25.6283   21.1270 H   0  0  0  0  0  0
  -19.6725  -27.3171   20.6725 H   0  0  0  0  0  0
  -17.4215  -26.6686   21.4020 H   0  0  0  0  0  0
  -18.0342  -26.0113   22.9028 H   0  0  0  0  0  0
  -19.7954  -30.7313   24.2217 H   0  0  0  0  0  0
  -17.5030  -31.6283   24.5163 H   0  0  0  0  0  0
  -15.5363  -30.2991   23.7708 H   0  0  0  0  0  0
  -15.8685  -28.0830   22.7119 H   0  0  0  0  0  0
  -24.5939  -30.7049   25.7660 H   0  0  0  0  0  0
  -24.8830  -32.2939   26.4645 H   0  0  0  0  0  0
  -25.7952  -30.9020   27.0219 H   0  0  0  0  0  0
  -26.3104  -29.6604   24.1360 H   0  0  0  0  0  0
  -27.4020  -29.7264   25.4976 H   0  0  0  0  0  0
  -27.9029  -30.4145   23.9746 H   0  0  0  0  0  0
  -27.2678  -33.3705   26.1922 H   0  0  0  0  0  0
  -28.3963  -32.6758   25.0370 H   0  0  0  0  0  0
  -28.0644  -31.8538   26.5528 H   0  0  0  0  0  0
  -28.2545  -38.0089   24.7528 H   0  0  0  0  0  0
  -28.1098  -36.2612   24.6270 H   0  0  0  0  0  0
  -27.2282  -37.1385   25.8861 H   0  0  0  0  0  0
  -20.9536  -29.8772   21.6721 H   0  0  0  0  0  0
  -26.0127  -38.2780   24.1434 H   0  0  0  0  0  0
  -29.7638  -22.7336   22.0713 H   0  0  0  0  0  0
  -28.1834  -19.6207   18.6429 H   0  0  0  0  0  0
  -30.7699  -21.0243   23.2315 H   0  0  0  0  0  0
  -31.8285  -20.2860   22.0275 H   0  0  0  0  0  0
  -30.5751  -19.3282   22.8280 H   0  0  0  0  0  0
  -26.0264  -22.3065   14.2637 H   0  0  0  0  0  0
  -26.1385  -21.2327   15.6434 H   0  0  0  0  0  0
  -27.6036  -21.8029   14.8540 H   0  0  0  0  0  0
  -26.5921  -24.7300   14.4206 H   0  0  0  0  0  0
  -28.2146  -24.3420   14.9720 H   0  0  0  0  0  0
  -27.2000  -25.4293   15.9128 H   0  0  0  0  0  0
  -24.5728  -23.9379   15.7176 H   0  0  0  0  0  0
  -25.1969  -24.4949   17.2615 H   0  0  0  0  0  0
  -24.7212  -22.8158   17.0496 H   0  0  0  0  0  0
  -26.1747  -22.3805   18.8320 H   0  0  0  0  0  0
  -26.7759  -21.1153   17.8220 H   0  0  0  0  0  0
  -31.0781  -18.1100   20.8517 H   0  0  0  0  0  0
  -30.5442  -18.0347   19.2412 H   0  0  0  0  0  0
  -27.5050  -24.3291   21.5348 H   0  0  0  0  0  0
  -26.8141  -24.1953   19.9970 H   0  0  0  0  0  0
  -28.5510  -22.7309   16.9285 H   0  0  0  0  0  0
  -27.7761  -24.0052   17.8110 H   0  0  0  0  0  0
  -28.7523  -16.3254   20.6175 H   0  0  0  0  0  0
  1 25  1  0  0  0
  1 30  2  0  0  0
  1 86  1  0  0  0
  2  3  1  0  0  0
  2 25  1  0  0  0
  2 87  1  0  0  0
  2 88  1  0  0  0
  3  4  1  0  0  0
  3 89  1  0  0  0
  3 90  1  0  0  0
  4  5  1  0  0  0
  4 91  1  0  0  0
  4 92  1  0  0  0
  5  6  1  0  0  0
  5 26  1  0  0  0
  5 93  1  0  0  0
  6 25  1  0  0  0
  6 94  1  0  0  0
  6 95  1  0  0  0
  7  8  2  0  0  0
  7 26  1  0  0  0
  7 29  1  0  0  0
  8  9  1  0  0  0
  8 22  1  0  0  0
  9 10  1  0  0  0
  9 27  2  0  0  0
 10 11  2  0  0  0
 10 15  1  0  0  0
 11 12  1  0  0  0
 11 96  1  0  0  0
 12 13  2  0  0  0
 12 97  1  0  0  0
 13 14  1  0  0  0
 13 31  1  0  0  0
 14 15  2  0  0  0
 14 98  1  0  0  0
 15 99  1  0  0  0
 16 17  2  0  0  0
 16 21  1  0  0  0
 16 31  1  0  0  0
 17 18  1  0  0  0
 17100  1  0  0  0
 18 19  2  0  0  0
 18101  1  0  0  0
 19 20  1  0  0  0
 19 24  1  0  0  0
 20 21  2  0  0  0
 20102  1  0  0  0
 21 23  1  0  0  0
 22 28  1  0  0  0
 22 32  2  0  0  0
 26 27  1  0  0  0
 28103  1  0  0  0
 28104  1  0  0  0
 29105  1  0  0  0
 29106  1  0  0  0
 33 34  1  0  0  0
 33 66  1  0  0  0
 33 70  2  0  0  0
 34 36  1  0  0  0
 34 59  1  0  0  0
 34107  1  0  0  0
 35 44  2  0  0  0
 35 45  1  0  0  0
 35 68  1  0  0  0
 36 56  1  0  0  0
 36108  1  0  0  0
 37 39  1  0  0  0
 37 47  1  0  0  0
 37 66  1  0  0  0
 37109  1  0  0  0
 38 43  2  0  0  0
 38 46  1  0  0  0
 38 47  1  0  0  0
 39 64  1  0  0  0
 39 67  2  0  0  0
 40 52  1  0  0  0
 40 53  2  0  0  0
 40 58  1  0  0  0
 41110  1  0  0  0
 41111  1  0  0  0
 41112  1  0  0  0
 41 48  1  0  0  0
 42 43  1  0  0  0
 42 66  1  0  0  0
 42113  1  0  0  0
 42114  1  0  0  0
 43 44  1  0  0  0
 44115  1  0  0  0
 45 46  2  0  0  0
 45116  1  0  0  0
 46117  1  0  0  0
 47118  1  0  0  0
 47119  1  0  0  0
 48 56  1  0  0  0
 48 65  1  0  0  0
 48120  1  0  0  0
 49 50  1  0  0  0
 49 53  1  0  0  0
 49 64  1  0  0  0
 49121  1  0  0  0
 50 51  1  0  0  0
 50122  1  0  0  0
 50123  1  0  0  0
 51 52  1  0  0  0
 51124  1  0  0  0
 51125  1  0  0  0
 52126  1  0  0  0
 52127  1  0  0  0
 53 54  1  0  0  0
 54 55  2  0  0  0
 54128  1  0  0  0
 55 57  1  0  0  0
 55129  1  0  0  0
 56 69  2  0  0  0
 57 58  2  0  0  0
 57130  1  0  0  0
 58131  1  0  0  0
 59 60  1  0  0  0
 59 61  1  0  0  0
 59 62  1  0  0  0
 60132  1  0  0  0
 60133  1  0  0  0
 60134  1  0  0  0
 61135  1  0  0  0
 61136  1  0  0  0
 61137  1  0  0  0
 62138  1  0  0  0
 62139  1  0  0  0
 62140  1  0  0  0
 63 65  1  0  0  0
 63141  1  0  0  0
 63142  1  0  0  0
 63143  1  0  0  0
 64144  1  0  0  0
 65145  1  0  0  0
 68 83  1  0  0  0
 71 73  2  0  0  0
 71 76  1  0  0  0
 71146  1  0  0  0
 72 74  1  0  0  0
 72 75  2  0  0  0
 72147  1  0  0  0
 73 75  1  0  0  0
 73 77  1  0  0  0
 74 76  2  0  0  0
 74 81  1  0  0  0
 75 82  1  0  0  0
 76 83  1  0  0  0
 77148  1  0  0  0
 77149  1  0  0  0
 77150  1  0  0  0
 78151  1  0  0  0
 78152  1  0  0  0
 78153  1  0  0  0
 78 85  1  0  0  0
 79 85  1  0  0  0
 79154  1  0  0  0
 79155  1  0  0  0
 79156  1  0  0  0
 80 85  1  0  0  0
 80157  1  0  0  0
 80158  1  0  0  0
 80159  1  0  0  0
 81 84  1  0  0  0
 81160  1  0  0  0
 81161  1  0  0  0
 82 86  1  0  0  0
 82162  1  0  0  0
 82163  1  0  0  0
 83164  1  0  0  0
 83165  1  0  0  0
 84 85  1  0  0  0
 84166  1  0  0  0
 84167  1  0  0  0
 86168  1  0  0  0
M  ISO  4   1 100  68 101  83 101  86 100
M  END
> <chiral flag>
0

> <version>
0

> <s_m_source_file>
/data/baiqing/PycharmProjects/Reinvent-master-3.2/result/LINK_invent/BTK/process_docking_weight1_custom_sum_contain_oxygen_bond_distance_aromatic_linkinvent_7_9_3/rearranged_h_0114.sdf

> <i_m_source_file_index>
70

> <r_mmod_Potential_Energy-OPLS-2005>
1044.24584960938

> <r_mmod_Stretch_Energy-OPLS-2005>
453.611663818359

> <r_mmod_Bend_Energy-OPLS-2005>
415.528900146484

> <r_mmod_Torsional_Energy-OPLS-2005>
246.066619873047

> <r_mmod_Improper_Torsional_Energy-OPLS-2005>
9.62335872650146

> <r_mmod_Van_der_Waal_Energy-OPLS-2005>
134.111221313477

> <r_mmod_Electrostatic_Energy-OPLS-2005>
-400.026031494141

> <r_mmod_Solvation_Energy-OPLS-2005>
-201.369201660156

> <b_mmod_Minimization_Converged-OPLS-2005>
0

> <r_mmod_RMS_Derivative-OPLS-2005>
1.51756811141968

$$$$
70
                    3D
 Structure written by MMmdl.
165173  0  0  1  0            999 V2000
  -30.6733  -14.4499   20.5645 C   0  0  0  0  0  0
  -30.4242  -12.2832   19.4437 C   0  0  0  0  0  0
  -29.5137  -12.5034   18.2201 C   0  0  0  0  0  0
  -28.0334  -12.3632   18.6282 C   0  0  0  0  0  0
  -27.6681  -13.1952   19.8882 C   0  0  2  0  0  0
  -28.6968  -12.9547   21.0108 C   0  0  0  0  0  0
  -25.2661  -13.8100   20.5828 C   0  0  0  0  0  0
  -24.1878  -13.0403   20.9190 C   0  0  0  0  0  0
  -24.6394  -11.6866   20.8740 C   0  0  0  0  0  0
  -23.9073  -10.4292   21.0432 C   0  0  0  0  0  0
  -24.3604   -9.4201   21.9237 C   0  0  0  0  0  0
  -23.6300   -8.2223   22.0808 C   0  0  0  0  0  0
  -22.4278   -8.0276   21.3579 C   0  0  0  0  0  0
  -21.9906   -9.0260   20.4658 C   0  0  0  0  0  0
  -22.7255  -10.2152   20.3086 C   0  0  0  0  0  0
  -21.6823   -6.0722   22.5315 C   0  0  0  0  0  0
  -21.4016   -6.5638   23.8256 C   0  0  0  0  0  0
  -21.3713   -5.6813   24.9220 C   0  0  0  0  0  0
  -21.6051   -4.3062   24.7269 C   0  0  0  0  0  0
  -21.8768   -3.8135   23.4386 C   0  0  0  0  0  0
  -21.9150   -4.6943   22.3436 C   0  0  0  0  0  0
  -22.7915  -13.5277   21.1889 C   0  0  0  0  0  0
  -22.1602   -4.2110   21.1022 F   0  0  0  0  0  0
  -21.5681   -3.4551   25.7786 F   0  0  0  0  0  0
  -30.0307  -13.2629   20.4622 N   0  0  0  0  0  0
  -26.3068  -12.9242   20.3409 N   0  0  0  0  0  0
  -25.9321  -11.6400   20.5714 N   0  0  0  0  0  0
  -22.0512  -12.8366   22.0441 N   0  0  0  0  0  0
  -25.4432  -15.1863   20.4512 N   0  0  0  0  0  0
  -31.8184  -14.6293   20.1373 O   0  0  0  0  0  0
  -21.6642   -6.8881   21.4286 O   0  0  0  0  0  0
  -22.3669  -14.5620   20.6726 O   0  0  0  0  0  0
  -24.6269  -31.8654   23.2101 C   0  0  0  0  0  0
  -25.9142  -32.4777   23.8382 C   0  0  1  0  0  0
  -27.2132  -27.3840   20.0260 C   0  0  0  0  0  0
  -25.5994  -33.8561   24.2330 N   0  0  0  0  0  0
  -23.4136  -30.4949   21.5531 C   0  0  2  0  0  0
  -24.8446  -28.9448   20.1355 C   0  0  0  0  0  0
  -22.7484  -29.4684   22.4990 C   0  0  0  0  0  0
  -18.0407  -28.1324   22.8420 C   0  0  0  0  0  0
  -24.1513  -36.7200   23.2625 C   0  0  0  0  0  0
  -25.9601  -30.7892   21.3904 C   0  0  0  0  0  0
  -26.0199  -29.4293   20.7226 C   0  0  0  0  0  0
  -27.2101  -28.6535   20.6634 C   0  0  0  0  0  0
  -25.9946  -26.9048   19.4960 C   0  0  0  0  0  0
  -24.8230  -27.6781   19.5389 C   0  0  0  0  0  0
  -23.6260  -29.8329   20.1720 C   0  0  0  0  0  0
  -25.4158  -36.3022   24.0319 C   0  0  1  0  0  0
  -20.5981  -28.3700   23.1320 C   0  0  2  0  0  0
  -20.6961  -26.9428   22.5389 C   0  0  0  0  0  0
  -19.5945  -26.6426   21.5191 C   0  0  0  0  0  0
  -18.2151  -26.7855   22.1658 C   0  0  0  0  0  0
  -19.1588  -28.8831   23.2878 C   0  0  0  0  0  0
  -18.9372  -30.1420   23.8872 C   0  0  0  0  0  0
  -17.6322  -30.6483   24.0468 C   0  0  0  0  0  0
  -25.9058  -34.9389   23.5086 C   0  0  0  0  0  0
  -16.5282  -29.8928   23.6134 C   0  0  0  0  0  0
  -16.7345  -28.6369   23.0179 C   0  0  0  0  0  0
  -26.4587  -31.6602   25.0752 C   0  0  0  0  0  0
  -25.3796  -31.3739   26.1453 C   0  0  0  0  0  0
  -27.0518  -30.3048   24.6245 C   0  0  0  0  0  0
  -27.6174  -32.4359   25.7473 C   0  0  0  0  0  0
  -27.5592  -37.1761   24.8474 C   0  0  0  0  0  0
  -21.4207  -29.3049   22.3681 N   0  0  0  0  0  0
  -26.4352  -37.3705   23.9386 N   0  0  0  0  0  0
  -24.6835  -31.0745   22.1008 N   0  0  0  0  0  0
  -23.4223  -28.8262   23.3089 O   0  0  0  0  0  0
  -28.3779  -26.6286   19.9272 O   0  0  0  0  0  0
  -26.5586  -34.8842   22.4623 O   0  0  0  0  0  0
  -23.5448  -32.1457   23.7456 O   0  0  0  0  0  0
  -31.5334  -18.9860   20.9004 C   0  0  0  0  0  0
  -29.0900  -19.1479   21.7139 C   0  0  0  0  0  0
  -31.2236  -17.5672   20.3883 C   0  0  0  0  0  0
  -28.8783  -17.7070   21.1891 C   0  0  0  0  0  0
  -30.3039  -19.9134   21.1061 C   0  0  2  0  0  0
  -30.1743  -16.8751   21.2861 C   0  0  1  0  0  0
  -27.3653  -23.4748   18.0440 C   0  0  0  0  0  0
  -29.9796  -20.8839   19.9203 C   0  0  0  0  0  0
  -29.3994  -22.2670   20.3903 C   0  0  0  0  0  0
  -28.4982  -25.6795   18.8197 C   0  0  0  0  0  0
  -28.2047  -24.1693   19.1537 C   0  0  2  0  0  0
  -29.9015  -15.4471   21.0355 N   0  0  0  0  0  0
  -29.4606  -23.3816   19.3961 N   0  3  0  0  0  0
  -31.4703  -12.3766   19.1586 H   0  0  0  0  0  0
  -30.3141  -11.2694   19.8357 H   0  0  0  0  0  0
  -29.7794  -11.7931   17.4364 H   0  0  0  0  0  0
  -29.6834  -13.4909   17.7916 H   0  0  0  0  0  0
  -27.8521  -11.3056   18.8261 H   0  0  0  0  0  0
  -27.3898  -12.6454   17.7944 H   0  0  0  0  0  0
  -27.7180  -14.2501   19.6144 H   0  0  0  0  0  0
  -28.6572  -11.9149   21.3345 H   0  0  0  0  0  0
  -28.4517  -13.5415   21.9026 H   0  0  0  0  0  0
  -25.2677   -9.5694   22.4895 H   0  0  0  0  0  0
  -23.9935   -7.4620   22.7571 H   0  0  0  0  0  0
  -21.0805   -8.8832   19.8971 H   0  0  0  0  0  0
  -22.3711  -10.9746   19.6243 H   0  0  0  0  0  0
  -21.2037   -7.6149   23.9763 H   0  0  0  0  0  0
  -21.1605   -6.0544   25.9142 H   0  0  0  0  0  0
  -22.0484   -2.7578   23.2911 H   0  0  0  0  0  0
  -22.3887  -11.9853   22.4657 H   0  0  0  0  0  0
  -21.1201  -13.1605   22.2696 H   0  0  0  0  0  0
  -24.6861  -15.8404   20.6283 H   0  0  0  0  0  0
  -26.3283  -15.6444   20.2773 H   0  0  0  0  0  0
  -26.7141  -32.5424   23.1034 H   0  0  0  0  0  0
  -25.0379  -33.9760   25.0637 H   0  0  0  0  0  0
  -22.7023  -31.3104   21.4115 H   0  0  0  0  0  0
  -23.3814  -35.9496   23.3338 H   0  0  0  0  0  0
  -24.3560  -36.8782   22.2017 H   0  0  0  0  0  0
  -23.7240  -37.6386   23.6634 H   0  0  0  0  0  0
  -26.1258  -31.5556   20.6329 H   0  0  0  0  0  0
  -26.8291  -30.8106   22.0390 H   0  0  0  0  0  0
  -28.1306  -29.0322   21.0875 H   0  0  0  0  0  0
  -25.9233  -25.9264   19.0505 H   0  0  0  0  0  0
  -23.9033  -27.2863   19.1212 H   0  0  0  0  0  0
  -23.7600  -30.6069   19.4198 H   0  0  0  0  0  0
  -22.7395  -29.2747   19.8614 H   0  0  0  0  0  0
  -25.1333  -36.1839   25.0828 H   0  0  0  0  0  0
  -21.0066  -28.3302   24.1430 H   0  0  0  0  0  0
  -20.5978  -26.2283   23.3572 H   0  0  0  0  0  0
  -21.6827  -26.7533   22.1117 H   0  0  0  0  0  0
  -19.7096  -25.6361   21.1123 H   0  0  0  0  0  0
  -19.6931  -27.3386   20.6828 H   0  0  0  0  0  0
  -17.4348  -26.6354   21.4155 H   0  0  0  0  0  0
  -18.0765  -26.0114   22.9225 H   0  0  0  0  0  0
  -19.7793  -30.7351   24.2261 H   0  0  0  0  0  0
  -17.4742  -31.6198   24.5005 H   0  0  0  0  0  0
  -15.5236  -30.2750   23.7271 H   0  0  0  0  0  0
  -15.8856  -28.0622   22.6802 H   0  0  0  0  0  0
  -24.5972  -30.7102   25.7695 H   0  0  0  0  0  0
  -24.8983  -32.2913   26.4833 H   0  0  0  0  0  0
  -25.8064  -30.8861   27.0225 H   0  0  0  0  0  0
  -26.3120  -29.6686   24.1353 H   0  0  0  0  0  0
  -27.4334  -29.7412   25.4772 H   0  0  0  0  0  0
  -27.8921  -30.4401   23.9449 H   0  0  0  0  0  0
  -27.2862  -33.3732   26.1977 H   0  0  0  0  0  0
  -28.3993  -32.6832   25.0255 H   0  0  0  0  0  0
  -28.0857  -31.8528   26.5418 H   0  0  0  0  0  0
  -28.2598  -38.0067   24.7532 H   0  0  0  0  0  0
  -28.1124  -36.2583   24.6360 H   0  0  0  0  0  0
  -27.2268  -37.1437   25.8869 H   0  0  0  0  0  0
  -20.9374  -29.8649   21.6788 H   0  0  0  0  0  0
  -26.0212  -38.2751   24.1474 H   0  0  0  0  0  0
  -32.2781  -19.4529   20.2541 H   0  0  0  0  0  0
  -32.0220  -18.8689   21.8652 H   0  0  0  0  0  0
  -29.2363  -19.0769   22.7921 H   0  0  0  0  0  0
  -28.1826  -19.7368   21.5847 H   0  0  0  0  0  0
  -32.1660  -17.0158   20.3810 H   0  0  0  0  0  0
  -30.8718  -17.6173   19.3561 H   0  0  0  0  0  0
  -28.5055  -17.7197   20.1652 H   0  0  0  0  0  0
  -28.0901  -17.2315   21.7770 H   0  0  0  0  0  0
  -30.6404  -20.5847   21.8981 H   0  0  0  0  0  0
  -30.5220  -16.9128   22.3190 H   0  0  0  0  0  0
  -26.4505  -24.0219   17.8128 H   0  0  0  0  0  0
  -27.0684  -22.4665   18.3446 H   0  0  0  0  0  0
  -27.9181  -23.3723   17.1090 H   0  0  0  0  0  0
  -29.3184  -20.3908   19.2021 H   0  0  0  0  0  0
  -30.9005  -21.0812   19.3668 H   0  0  0  0  0  0
  -30.0136  -22.6366   21.2138 H   0  0  0  0  0  0
  -28.3988  -22.1463   20.8074 H   0  0  0  0  0  0
  -27.8683  -25.9898   17.9799 H   0  0  0  0  0  0
  -29.4960  -25.7776   18.3912 H   0  0  0  0  0  0
  -27.6076  -24.1662   20.0659 H   0  0  0  0  0  0
  -28.9853  -15.1311   21.3243 H   0  0  0  0  0  0
  -29.8708  -23.0657   18.5295 H   0  0  0  0  0  0
  -30.1330  -24.0268   19.7844 H   0  0  0  0  0  0
  1 25  1  0  0  0
  1 30  2  0  0  0
  1 82  1  0  0  0
  2  3  1  0  0  0
  2 25  1  0  0  0
  2 84  1  0  0  0
  2 85  1  0  0  0
  3  4  1  0  0  0
  3 86  1  0  0  0
  3 87  1  0  0  0
  4  5  1  0  0  0
  4 88  1  0  0  0
  4 89  1  0  0  0
  5  6  1  0  0  0
  5 26  1  0  0  0
  5 90  1  0  0  0
  6 25  1  0  0  0
  6 91  1  0  0  0
  6 92  1  0  0  0
  7  8  2  0  0  0
  7 26  1  0  0  0
  7 29  1  0  0  0
  8  9  1  0  0  0
  8 22  1  0  0  0
  9 10  1  0  0  0
  9 27  2  0  0  0
 10 11  2  0  0  0
 10 15  1  0  0  0
 11 12  1  0  0  0
 11 93  1  0  0  0
 12 13  2  0  0  0
 12 94  1  0  0  0
 13 14  1  0  0  0
 13 31  1  0  0  0
 14 15  2  0  0  0
 14 95  1  0  0  0
 15 96  1  0  0  0
 16 17  2  0  0  0
 16 21  1  0  0  0
 16 31  1  0  0  0
 17 18  1  0  0  0
 17 97  1  0  0  0
 18 19  2  0  0  0
 18 98  1  0  0  0
 19 20  1  0  0  0
 19 24  1  0  0  0
 20 21  2  0  0  0
 20 99  1  0  0  0
 21 23  1  0  0  0
 22 28  1  0  0  0
 22 32  2  0  0  0
 26 27  1  0  0  0
 28100  1  0  0  0
 28101  1  0  0  0
 29102  1  0  0  0
 29103  1  0  0  0
 33 34  1  0  0  0
 33 66  1  0  0  0
 33 70  2  0  0  0
 34 36  1  0  0  0
 34 59  1  0  0  0
 34104  1  0  0  0
 35 44  2  0  0  0
 35 45  1  0  0  0
 35 68  1  0  0  0
 36 56  1  0  0  0
 36105  1  0  0  0
 37 39  1  0  0  0
 37 47  1  0  0  0
 37 66  1  0  0  0
 37106  1  0  0  0
 38 43  2  0  0  0
 38 46  1  0  0  0
 38 47  1  0  0  0
 39 64  1  0  0  0
 39 67  2  0  0  0
 40 52  1  0  0  0
 40 53  2  0  0  0
 40 58  1  0  0  0
 41107  1  0  0  0
 41108  1  0  0  0
 41109  1  0  0  0
 41 48  1  0  0  0
 42 43  1  0  0  0
 42 66  1  0  0  0
 42110  1  0  0  0
 42111  1  0  0  0
 43 44  1  0  0  0
 44112  1  0  0  0
 45 46  2  0  0  0
 45113  1  0  0  0
 46114  1  0  0  0
 47115  1  0  0  0
 47116  1  0  0  0
 48 56  1  0  0  0
 48 65  1  0  0  0
 48117  1  0  0  0
 49 50  1  0  0  0
 49 53  1  0  0  0
 49 64  1  0  0  0
 49118  1  0  0  0
 50 51  1  0  0  0
 50119  1  0  0  0
 50120  1  0  0  0
 51 52  1  0  0  0
 51121  1  0  0  0
 51122  1  0  0  0
 52123  1  0  0  0
 52124  1  0  0  0
 53 54  1  0  0  0
 54 55  2  0  0  0
 54125  1  0  0  0
 55 57  1  0  0  0
 55126  1  0  0  0
 56 69  2  0  0  0
 57 58  2  0  0  0
 57127  1  0  0  0
 58128  1  0  0  0
 59 60  1  0  0  0
 59 61  1  0  0  0
 59 62  1  0  0  0
 60129  1  0  0  0
 60130  1  0  0  0
 60131  1  0  0  0
 61132  1  0  0  0
 61133  1  0  0  0
 61134  1  0  0  0
 62135  1  0  0  0
 62136  1  0  0  0
 62137  1  0  0  0
 63 65  1  0  0  0
 63138  1  0  0  0
 63139  1  0  0  0
 63140  1  0  0  0
 64141  1  0  0  0
 65142  1  0  0  0
 68 80  1  0  0  0
 71 73  1  0  0  0
 71 75  1  0  0  0
 71143  1  0  0  0
 71144  1  0  0  0
 72 74  1  0  0  0
 72 75  1  0  0  0
 72145  1  0  0  0
 72146  1  0  0  0
 73 76  1  0  0  0
 73147  1  0  0  0
 73148  1  0  0  0
 74 76  1  0  0  0
 74149  1  0  0  0
 74150  1  0  0  0
 75 78  1  0  0  0
 75151  1  0  0  0
 76 82  1  0  0  0
 76152  1  0  0  0
 77153  1  0  0  0
 77154  1  0  0  0
 77155  1  0  0  0
 77 81  1  0  0  0
 78 79  1  0  0  0
 78156  1  0  0  0
 78157  1  0  0  0
 79 83  1  0  0  0
 79158  1  0  0  0
 79159  1  0  0  0
 80 81  1  0  0  0
 80160  1  0  0  0
 80161  1  0  0  0
 81 83  1  0  0  0
 81162  1  0  0  0
 82163  1  0  0  0
 83164  1  0  0  0
 83165  1  0  0  0
M  CHG  1  83   1
M  ISO  4   1 100  68 101  80 101  82 100
M  END
> <chiral flag>
0

> <version>
0

> <s_m_source_file>
/data/baiqing/PycharmProjects/Reinvent-master-3.2/result/LINK_invent/BTK/process_docking_weight1_custom_sum_contain_oxygen_bond_distance_aromatic_linkinvent_7_9_3/rearranged_h_0114.sdf

> <i_m_source_file_index>
71

> <r_mmod_Potential_Energy-OPLS-2005>
-70.4405975341797

> <r_mmod_Stretch_Energy-OPLS-2005>
48.4864501953125

> <r_mmod_Bend_Energy-OPLS-2005>
131.527160644531

> <r_mmod_Torsional_Energy-OPLS-2005>
258.328521728516

> <r_mmod_Improper_Torsional_Energy-OPLS-2005>
3.25774621963501

> <r_mmod_Van_der_Waal_Energy-OPLS-2005>
140.767105102539

> <r_mmod_Electrostatic_Energy-OPLS-2005>
-235.161087036133

> <r_mmod_Solvation_Energy-OPLS-2005>
-439.451446533203

> <b_mmod_Minimization_Converged-OPLS-2005>
0

> <r_mmod_RMS_Derivative-OPLS-2005>
7.95120048522949

$$$$
71
                    3D
 Structure written by MMmdl.
168177  0  0  1  0            999 V2000
  -30.6688  -14.8493   20.4712 C   0  0  0  0  0  0
  -30.4313  -12.5119   19.5493 C   0  0  0  0  0  0
  -29.5380  -12.5441   18.2861 C   0  0  0  0  0  0
  -28.0596  -12.3638   18.6720 C   0  0  0  0  0  0
  -27.6425  -13.2644   19.8606 C   0  0  2  0  0  0
  -28.6757  -13.2866   21.0150 C   0  0  0  0  0  0
  -25.2537  -13.8282   20.5760 C   0  0  0  0  0  0
  -24.1822  -13.0501   20.9175 C   0  0  0  0  0  0
  -24.6424  -11.6974   20.8733 C   0  0  0  0  0  0
  -23.9109  -10.4339   21.0374 C   0  0  0  0  0  0
  -24.3613   -9.4243   21.9150 C   0  0  0  0  0  0
  -23.6249   -8.2309   22.0780 C   0  0  0  0  0  0
  -22.4225   -8.0323   21.3595 C   0  0  0  0  0  0
  -21.9924   -9.0299   20.4632 C   0  0  0  0  0  0
  -22.7309  -10.2140   20.3033 C   0  0  0  0  0  0
  -21.6822   -6.0720   22.5294 C   0  0  0  0  0  0
  -21.4008   -6.5649   23.8209 C   0  0  0  0  0  0
  -21.3650   -5.6802   24.9182 C   0  0  0  0  0  0
  -21.6058   -4.3063   24.7209 C   0  0  0  0  0  0
  -21.8802   -3.8169   23.4320 C   0  0  0  0  0  0
  -21.9231   -4.6980   22.3406 C   0  0  0  0  0  0
  -22.7879  -13.5219   21.1935 C   0  0  0  0  0  0
  -22.1710   -4.2138   21.1009 F   0  0  0  0  0  0
  -21.5637   -3.4534   25.7748 F   0  0  0  0  0  0
  -29.9962  -13.6231   20.4510 N   0  0  0  0  0  0
  -26.2938  -12.9552   20.3277 N   0  0  0  0  0  0
  -25.9356  -11.6658   20.5719 N   0  0  0  0  0  0
  -22.0548  -12.8098   22.0400 N   0  0  0  0  0  0
  -25.4290  -15.2010   20.4229 N   0  0  0  0  0  0
  -31.7520  -14.9023   19.8793 O   0  0  0  0  0  0
  -21.6648   -6.8878   21.4257 O   0  0  0  0  0  0
  -22.3498  -14.5523   20.6791 O   0  0  0  0  0  0
  -24.6414  -31.8483   23.1918 C   0  0  0  0  0  0
  -25.9193  -32.4738   23.8321 C   0  0  1  0  0  0
  -27.2475  -27.1626   20.1606 C   0  0  0  0  0  0
  -25.5960  -33.8517   24.2232 N   0  0  0  0  0  0
  -23.4452  -30.4624   21.5421 C   0  0  2  0  0  0
  -24.9056  -28.8951   20.1140 C   0  0  0  0  0  0
  -22.7585  -29.4520   22.4923 C   0  0  0  0  0  0
  -18.0299  -28.1409   22.8460 C   0  0  0  0  0  0
  -24.1487  -36.7246   23.2638 C   0  0  0  0  0  0
  -26.0035  -30.7314   21.3895 C   0  0  0  0  0  0
  -26.0828  -29.3437   20.7302 C   0  0  0  0  0  0
  -27.2542  -28.4974   20.7311 C   0  0  0  0  0  0
  -26.0437  -26.8264   19.4889 C   0  0  0  0  0  0
  -24.8985  -27.6487   19.4721 C   0  0  0  0  0  0
  -23.6730  -29.7848   20.1618 C   0  0  0  0  0  0
  -25.4121  -36.3054   24.0333 C   0  0  1  0  0  0
  -20.5905  -28.3714   23.1262 C   0  0  2  0  0  0
  -20.6793  -26.9425   22.5386 C   0  0  0  0  0  0
  -19.5755  -26.6391   21.5204 C   0  0  0  0  0  0
  -18.1924  -26.7947   22.1620 C   0  0  0  0  0  0
  -19.1551  -28.8895   23.2832 C   0  0  0  0  0  0
  -18.9479  -30.1500   23.8845 C   0  0  0  0  0  0
  -17.6462  -30.6619   24.0559 C   0  0  0  0  0  0
  -25.9062  -34.9429   23.5091 C   0  0  0  0  0  0
  -16.5341  -29.9100   23.6374 C   0  0  0  0  0  0
  -16.7263  -28.6505   23.0399 C   0  0  0  0  0  0
  -26.4505  -31.6594   25.0742 C   0  0  0  0  0  0
  -25.3695  -31.3767   26.1438 C   0  0  0  0  0  0
  -27.0455  -30.3020   24.6337 C   0  0  0  0  0  0
  -27.6036  -32.4386   25.7546 C   0  0  0  0  0  0
  -27.5619  -37.1748   24.8460 C   0  0  0  0  0  0
  -21.4285  -29.3038   22.3676 N   0  0  0  0  0  0
  -26.4285  -37.3795   23.9459 N   0  0  0  0  0  0
  -24.7194  -31.0334   22.0977 N   0  0  0  0  0  0
  -23.4242  -28.8047   23.3035 O   0  0  0  0  0  0
  -28.3057  -26.1814   20.2309 O   0  0  0  0  0  0
  -26.5654  -34.8952   22.4662 O   0  0  0  0  0  0
  -23.5509  -32.1306   23.7093 O   0  0  0  0  0  0
  -29.3989  -20.9562   19.6610 C   0  0  0  0  0  0
  -29.7124  -20.4391   20.9661 C   0  0  0  0  0  0
  -28.9518  -22.3265   19.4260 C   0  0  0  0  0  0
  -29.5803  -21.4994   21.9439 C   0  0  0  0  0  0
  -28.8248  -23.3059   20.4775 C   0  0  0  0  0  0
  -32.1786  -16.6085   22.5492 C   0  0  0  0  0  0
  -31.7650  -19.0021   21.6767 C   0  0  0  0  0  0
  -30.7056  -16.1062   22.4969 C   0  0  0  0  0  0
  -29.9652  -17.4688   20.5174 C   0  0  0  0  0  0
  -30.2362  -18.9006   21.3571 C   0  0  2  0  0  0
  -32.3510  -18.1189   22.8212 C   0  0  2  0  0  0
  -28.5562  -22.7035   18.0004 C   0  0  0  0  0  0
  -29.8864  -21.2478   23.4226 C   0  0  0  0  0  0
  -27.9152  -24.6910   20.3921 C   0  0  0  0  0  0
  -29.1656  -22.8078   21.7126 N   0  0  0  0  0  0
  -30.1986  -16.0218   21.1155 N   0  0  0  0  0  0
  -33.7879  -18.4316   23.0423 N   0  3  0  0  0  0
  -31.4822  -12.5856   19.2692 H   0  0  0  0  0  0
  -30.3488  -11.5481   20.0631 H   0  0  0  0  0  0
  -29.8268  -11.7741   17.5700 H   0  0  0  0  0  0
  -29.6754  -13.5053   17.7955 H   0  0  0  0  0  0
  -27.9020  -11.3155   18.9238 H   0  0  0  0  0  0
  -27.4251  -12.5802   17.8129 H   0  0  0  0  0  0
  -27.6195  -14.2696   19.4453 H   0  0  0  0  0  0
  -28.7030  -12.3326   21.5390 H   0  0  0  0  0  0
  -28.3642  -14.0235   21.7565 H   0  0  0  0  0  0
  -25.2776   -9.5686   22.4670 H   0  0  0  0  0  0
  -23.9966   -7.4668   22.7466 H   0  0  0  0  0  0
  -21.0944   -8.8751   19.8803 H   0  0  0  0  0  0
  -22.3796  -10.9636   19.6097 H   0  0  0  0  0  0
  -21.1952   -7.6146   23.9671 H   0  0  0  0  0  0
  -21.1513   -6.0570   25.9070 H   0  0  0  0  0  0
  -22.0584   -2.7628   23.2844 H   0  0  0  0  0  0
  -22.4195  -11.9642   22.4630 H   0  0  0  0  0  0
  -21.1086  -13.0981   22.2575 H   0  0  0  0  0  0
  -24.6791  -15.8768   20.5357 H   0  0  0  0  0  0
  -26.3001  -15.6226   20.1197 H   0  0  0  0  0  0
  -26.7252  -32.5371   23.1055 H   0  0  0  0  0  0
  -25.0198  -33.9653   25.0434 H   0  0  0  0  0  0
  -22.7384  -31.2820   21.3834 H   0  0  0  0  0  0
  -23.3859  -35.9476   23.3158 H   0  0  0  0  0  0
  -24.3544  -36.9027   22.2083 H   0  0  0  0  0  0
  -23.7120  -37.6344   23.6750 H   0  0  0  0  0  0
  -26.1651  -31.4927   20.6237 H   0  0  0  0  0  0
  -26.8679  -30.7708   22.0382 H   0  0  0  0  0  0
  -28.1474  -28.8428   21.2353 H   0  0  0  0  0  0
  -25.9461  -25.8914   18.9618 H   0  0  0  0  0  0
  -24.0022  -27.3028   18.9725 H   0  0  0  0  0  0
  -23.7964  -30.5552   19.3967 H   0  0  0  0  0  0
  -22.7948  -29.2079   19.8654 H   0  0  0  0  0  0
  -25.1267  -36.1895   25.0810 H   0  0  0  0  0  0
  -20.9926  -28.3290   24.1417 H   0  0  0  0  0  0
  -20.5713  -26.2313   23.3579 H   0  0  0  0  0  0
  -21.6676  -26.7472   22.1189 H   0  0  0  0  0  0
  -19.6931  -25.6311   21.1266 H   0  0  0  0  0  0
  -19.6694  -27.3130   20.6676 H   0  0  0  0  0  0
  -17.4196  -26.6717   21.3996 H   0  0  0  0  0  0
  -18.0283  -26.0063   22.9006 H   0  0  0  0  0  0
  -19.7951  -30.7369   24.2141 H   0  0  0  0  0  0
  -17.5028  -31.6288   24.5194 H   0  0  0  0  0  0
  -15.5343  -30.3017   23.7713 H   0  0  0  0  0  0
  -15.8643  -28.0790   22.7179 H   0  0  0  0  0  0
  -24.5865  -30.7123   25.7739 H   0  0  0  0  0  0
  -24.8886  -32.2954   26.4817 H   0  0  0  0  0  0
  -25.7977  -30.8973   27.0251 H   0  0  0  0  0  0
  -26.3132  -29.6686   24.1328 H   0  0  0  0  0  0
  -27.4093  -29.7344   25.4914 H   0  0  0  0  0  0
  -27.8989  -30.4287   23.9685 H   0  0  0  0  0  0
  -27.2617  -33.3733   26.1997 H   0  0  0  0  0  0
  -28.3915  -32.6860   25.0420 H   0  0  0  0  0  0
  -28.0640  -31.8606   26.5578 H   0  0  0  0  0  0
  -28.2509  -38.0186   24.7748 H   0  0  0  0  0  0
  -28.1269  -36.2722   24.6015 H   0  0  0  0  0  0
  -27.2351  -37.1042   25.8862 H   0  0  0  0  0  0
  -20.9514  -29.8780   21.6868 H   0  0  0  0  0  0
  -26.0170  -38.2851   24.1580 H   0  0  0  0  0  0
  -29.4733  -20.2775   18.8215 H   0  0  0  0  0  0
  -32.7112  -16.3751   21.6195 H   0  0  0  0  0  0
  -32.7008  -16.0430   23.3322 H   0  0  0  0  0  0
  -31.9991  -20.0258   21.9482 H   0  0  0  0  0  0
  -32.3216  -18.8372   20.7516 H   0  0  0  0  0  0
  -30.0440  -16.6888   23.1346 H   0  0  0  0  0  0
  -30.6851  -15.1092   22.9452 H   0  0  0  0  0  0
  -30.5329  -17.5187   19.5846 H   0  0  0  0  0  0
  -28.9182  -17.4700   20.2098 H   0  0  0  0  0  0
  -29.6964  -18.7360   22.2914 H   0  0  0  0  0  0
  -31.8396  -18.3422   23.7617 H   0  0  0  0  0  0
  -28.7936  -21.8885   17.3074 H   0  0  0  0  0  0
  -29.0877  -23.5938   17.6553 H   0  0  0  0  0  0
  -27.4798  -22.8739   17.9254 H   0  0  0  0  0  0
  -29.2369  -20.4666   23.8307 H   0  0  0  0  0  0
  -29.7251  -22.1472   24.0301 H   0  0  0  0  0  0
  -30.9256  -20.9485   23.5838 H   0  0  0  0  0  0
  -27.3111  -24.6740   21.2971 H   0  0  0  0  0  0
  -27.2238  -24.4430   19.5956 H   0  0  0  0  0  0
  -34.3336  -18.3981   22.1953 H   0  0  0  0  0  0
  -34.2019  -17.7907   23.6967 H   0  0  0  0  0  0
  -33.9070  -19.3477   23.4344 H   0  0  0  0  0  0
  1 25  1  0  0  0
  1 30  2  0  0  0
  1 86  1  0  0  0
  2  3  1  0  0  0
  2 25  1  0  0  0
  2 88  1  0  0  0
  2 89  1  0  0  0
  3  4  1  0  0  0
  3 90  1  0  0  0
  3 91  1  0  0  0
  4  5  1  0  0  0
  4 92  1  0  0  0
  4 93  1  0  0  0
  5  6  1  0  0  0
  5 26  1  0  0  0
  5 94  1  0  0  0
  6 25  1  0  0  0
  6 95  1  0  0  0
  6 96  1  0  0  0
  7  8  2  0  0  0
  7 26  1  0  0  0
  7 29  1  0  0  0
  8  9  1  0  0  0
  8 22  1  0  0  0
  9 10  1  0  0  0
  9 27  2  0  0  0
 10 11  2  0  0  0
 10 15  1  0  0  0
 11 12  1  0  0  0
 11 97  1  0  0  0
 12 13  2  0  0  0
 12 98  1  0  0  0
 13 14  1  0  0  0
 13 31  1  0  0  0
 14 15  2  0  0  0
 14 99  1  0  0  0
 15100  1  0  0  0
 16 17  2  0  0  0
 16 21  1  0  0  0
 16 31  1  0  0  0
 17 18  1  0  0  0
 17101  1  0  0  0
 18 19  2  0  0  0
 18102  1  0  0  0
 19 20  1  0  0  0
 19 24  1  0  0  0
 20 21  2  0  0  0
 20103  1  0  0  0
 21 23  1  0  0  0
 22 28  1  0  0  0
 22 32  2  0  0  0
 26 27  1  0  0  0
 28104  1  0  0  0
 28105  1  0  0  0
 29106  1  0  0  0
 29107  1  0  0  0
 33 34  1  0  0  0
 33 66  1  0  0  0
 33 70  2  0  0  0
 34 36  1  0  0  0
 34 59  1  0  0  0
 34108  1  0  0  0
 35 44  2  0  0  0
 35 45  1  0  0  0
 35 68  1  0  0  0
 36 56  1  0  0  0
 36109  1  0  0  0
 37 39  1  0  0  0
 37 47  1  0  0  0
 37 66  1  0  0  0
 37110  1  0  0  0
 38 43  2  0  0  0
 38 46  1  0  0  0
 38 47  1  0  0  0
 39 64  1  0  0  0
 39 67  2  0  0  0
 40 52  1  0  0  0
 40 53  2  0  0  0
 40 58  1  0  0  0
 41111  1  0  0  0
 41112  1  0  0  0
 41113  1  0  0  0
 41 48  1  0  0  0
 42 43  1  0  0  0
 42 66  1  0  0  0
 42114  1  0  0  0
 42115  1  0  0  0
 43 44  1  0  0  0
 44116  1  0  0  0
 45 46  2  0  0  0
 45117  1  0  0  0
 46118  1  0  0  0
 47119  1  0  0  0
 47120  1  0  0  0
 48 56  1  0  0  0
 48 65  1  0  0  0
 48121  1  0  0  0
 49 50  1  0  0  0
 49 53  1  0  0  0
 49 64  1  0  0  0
 49122  1  0  0  0
 50 51  1  0  0  0
 50123  1  0  0  0
 50124  1  0  0  0
 51 52  1  0  0  0
 51125  1  0  0  0
 51126  1  0  0  0
 52127  1  0  0  0
 52128  1  0  0  0
 53 54  1  0  0  0
 54 55  2  0  0  0
 54129  1  0  0  0
 55 57  1  0  0  0
 55130  1  0  0  0
 56 69  2  0  0  0
 57 58  2  0  0  0
 57131  1  0  0  0
 58132  1  0  0  0
 59 60  1  0  0  0
 59 61  1  0  0  0
 59 62  1  0  0  0
 60133  1  0  0  0
 60134  1  0  0  0
 60135  1  0  0  0
 61136  1  0  0  0
 61137  1  0  0  0
 61138  1  0  0  0
 62139  1  0  0  0
 62140  1  0  0  0
 62141  1  0  0  0
 63 65  1  0  0  0
 63142  1  0  0  0
 63143  1  0  0  0
 63144  1  0  0  0
 64145  1  0  0  0
 65146  1  0  0  0
 68 84  1  0  0  0
 71 72  2  0  0  0
 71 73  1  0  0  0
 71147  1  0  0  0
 72 74  1  0  0  0
 72 80  1  0  0  0
 73 75  2  0  0  0
 73 82  1  0  0  0
 74 83  1  0  0  0
 74 85  2  0  0  0
 75 84  1  0  0  0
 75 85  1  0  0  0
 76 78  1  0  0  0
 76 81  1  0  0  0
 76148  1  0  0  0
 76149  1  0  0  0
 77 80  1  0  0  0
 77 81  1  0  0  0
 77150  1  0  0  0
 77151  1  0  0  0
 78 86  1  0  0  0
 78152  1  0  0  0
 78153  1  0  0  0
 79 80  1  0  0  0
 79 86  1  0  0  0
 79154  1  0  0  0
 79155  1  0  0  0
 80156  1  0  0  0
 81 87  1  0  0  0
 81157  1  0  0  0
 82158  1  0  0  0
 82159  1  0  0  0
 82160  1  0  0  0
 83161  1  0  0  0
 83162  1  0  0  0
 83163  1  0  0  0
 84164  1  0  0  0
 84165  1  0  0  0
 87166  1  0  0  0
 87167  1  0  0  0
 87168  1  0  0  0
M  CHG  1  87   1
M  ISO  4   1 100  68 101  84 101  86 100
M  END
> <chiral flag>
0

> <version>
0

> <s_m_source_file>
/data/baiqing/PycharmProjects/Reinvent-master-3.2/result/LINK_invent/BTK/process_docking_weight1_custom_sum_contain_oxygen_bond_distance_aromatic_linkinvent_7_9_3/rearranged_h_0114.sdf

> <i_m_source_file_index>
72

> <r_mmod_Potential_Energy-OPLS-2005>
348.362396240234

> <r_mmod_Stretch_Energy-OPLS-2005>
253.577926635742

> <r_mmod_Bend_Energy-OPLS-2005>
292.688293457031

> <r_mmod_Torsional_Energy-OPLS-2005>
347.544281005859

> <r_mmod_Improper_Torsional_Energy-OPLS-2005>
8.01638317108154

> <r_mmod_Van_der_Waal_Energy-OPLS-2005>
146.352523803711

> <r_mmod_Electrostatic_Energy-OPLS-2005>
-349.114379882812

> <r_mmod_Solvation_Energy-OPLS-2005>
-503.195281982422

> <b_mmod_Minimization_Converged-OPLS-2005>
0

> <r_mmod_RMS_Derivative-OPLS-2005>
10.140193939209

$$$$
72
                    3D
 Structure written by MMmdl.
183191  0  0  1  0            999 V2000
  -30.6857  -14.5845   20.5043 C   0  0  0  0  0  0
  -30.4245  -12.3582   19.4651 C   0  0  0  0  0  0
  -29.5070  -12.4960   18.2332 C   0  0  0  0  0  0
  -28.0315  -12.3353   18.6488 C   0  0  0  0  0  0
  -27.6523  -13.2201   19.8669 C   0  0  2  0  0  0
  -28.6946  -13.1000   20.9989 C   0  0  0  0  0  0
  -25.2585  -13.8218   20.5723 C   0  0  0  0  0  0
  -24.1837  -13.0483   20.9195 C   0  0  0  0  0  0
  -24.6392  -11.6950   20.8734 C   0  0  0  0  0  0
  -23.9063  -10.4350   21.0418 C   0  0  0  0  0  0
  -24.3623   -9.4260   21.9192 C   0  0  0  0  0  0
  -23.6313   -8.2287   22.0747 C   0  0  0  0  0  0
  -22.4294   -8.0329   21.3555 C   0  0  0  0  0  0
  -21.9930   -9.0302   20.4658 C   0  0  0  0  0  0
  -22.7240  -10.2184   20.3069 C   0  0  0  0  0  0
  -21.6870   -6.0775   22.5277 C   0  0  0  0  0  0
  -21.4013   -6.5654   23.8217 C   0  0  0  0  0  0
  -21.3649   -5.6785   24.9162 C   0  0  0  0  0  0
  -21.6042   -4.3055   24.7196 C   0  0  0  0  0  0
  -21.8828   -3.8170   23.4308 C   0  0  0  0  0  0
  -21.9206   -4.7008   22.3379 C   0  0  0  0  0  0
  -22.7865  -13.5294   21.1849 C   0  0  0  0  0  0
  -22.1686   -4.2197   21.0957 F   0  0  0  0  0  0
  -21.5624   -3.4531   25.7706 F   0  0  0  0  0  0
  -30.0111  -13.3987   20.4220 N   0  0  0  0  0  0
  -26.2994  -12.9383   20.3339 N   0  0  0  0  0  0
  -25.9311  -11.6544   20.5755 N   0  0  0  0  0  0
  -22.0485  -12.8288   22.0388 N   0  0  0  0  0  0
  -25.4367  -15.1934   20.4165 N   0  0  0  0  0  0
  -31.8736  -14.6692   20.1808 O   0  0  0  0  0  0
  -21.6653   -6.8918   21.4249 O   0  0  0  0  0  0
  -22.3568  -14.5599   20.6689 O   0  0  0  0  0  0
  -24.6238  -31.8604   23.2021 C   0  0  0  0  0  0
  -25.9096  -32.4770   23.8338 C   0  0  1  0  0  0
  -27.2167  -27.3278   20.0854 C   0  0  0  0  0  0
  -25.5928  -33.8573   24.2259 N   0  0  0  0  0  0
  -23.4143  -30.4860   21.5445 C   0  0  2  0  0  0
  -24.8557  -28.9401   20.1103 C   0  0  0  0  0  0
  -22.7449  -29.4630   22.4943 C   0  0  0  0  0  0
  -18.0285  -28.1376   22.8470 C   0  0  0  0  0  0
  -24.1487  -36.7293   23.2624 C   0  0  0  0  0  0
  -25.9555  -30.7874   21.3741 C   0  0  0  0  0  0
  -26.0241  -29.4163   20.7157 C   0  0  0  0  0  0
  -27.2020  -28.6153   20.7024 C   0  0  0  0  0  0
  -26.0102  -26.8892   19.4893 C   0  0  0  0  0  0
  -24.8472  -27.6802   19.4975 C   0  0  0  0  0  0
  -23.6252  -29.8196   20.1604 C   0  0  0  0  0  0
  -25.4105  -36.3071   24.0322 C   0  0  1  0  0  0
  -20.5874  -28.3678   23.1281 C   0  0  2  0  0  0
  -20.6764  -26.9409   22.5410 C   0  0  0  0  0  0
  -19.5757  -26.6383   21.5183 C   0  0  0  0  0  0
  -18.1929  -26.7927   22.1594 C   0  0  0  0  0  0
  -19.1530  -28.8842   23.2866 C   0  0  0  0  0  0
  -18.9463  -30.1442   23.8879 C   0  0  0  0  0  0
  -17.6467  -30.6591   24.0543 C   0  0  0  0  0  0
  -25.9050  -34.9440   23.5090 C   0  0  0  0  0  0
  -16.5356  -29.9085   23.6327 C   0  0  0  0  0  0
  -16.7271  -28.6501   23.0350 C   0  0  0  0  0  0
  -26.4489  -31.6580   25.0709 C   0  0  0  0  0  0
  -25.3741  -31.3772   26.1472 C   0  0  0  0  0  0
  -27.0280  -30.2978   24.6175 C   0  0  0  0  0  0
  -27.6074  -32.4291   25.7457 C   0  0  0  0  0  0
  -27.5596  -37.1765   24.8435 C   0  0  0  0  0  0
  -21.4172  -29.3037   22.3675 N   0  0  0  0  0  0
  -26.4275  -37.3775   23.9437 N   0  0  0  0  0  0
  -24.6825  -31.0626   22.0965 N   0  0  0  0  0  0
  -23.4188  -28.8165   23.2986 O   0  0  0  0  0  0
  -28.3637  -26.5216   20.1415 O   0  0  0  0  0  0
  -26.5623  -34.8920   22.4655 O   0  0  0  0  0  0
  -23.5409  -32.1405   23.7364 O   0  0  0  0  0  0
  -29.7617  -16.5372   19.4280 C   0  0  0  0  0  0
  -30.3137  -16.6173   21.8020 C   0  0  0  0  0  0
  -28.9632  -17.8717   19.5724 C   0  0  0  0  0  0
  -29.5839  -18.0035   21.9022 C   0  0  0  0  0  0
  -29.6865  -25.7803   18.3643 C   0  0  0  0  0  0
  -28.3069  -22.6837   17.8251 C   0  0  0  0  0  0
  -23.9510  -19.5681   18.1769 C   0  0  0  0  0  0
  -22.5095  -21.5587   18.3175 C   0  0  0  0  0  0
  -28.8955  -23.9340   19.9996 C   0  0  0  0  0  0
  -26.8797  -22.4304   19.8888 C   0  0  0  0  0  0
  -28.8071  -20.1233   20.7604 C   0  0  0  0  0  0
  -24.6765  -21.5445   19.4779 C   0  0  0  0  0  0
  -28.5451  -25.3332   19.2936 C   0  0  1  0  0  0
  -29.1978  -21.1953   19.6596 C   0  0  1  0  0  0
  -28.3453  -22.5508   19.3774 C   0  0  1  0  0  0
  -29.9524  -15.7360   20.6647 N   0  0  0  0  0  0
  -26.1005  -21.4195   19.1803 N   0  0  0  0  0  0
  -29.5038  -18.7745   20.6264 N   0  3  0  0  0  0
  -23.8955  -21.0410   18.3273 N   0  3  0  0  0  0
  -30.5773  -21.4827   19.8084 O   0  0  0  0  0  0
  -31.4730  -12.4432   19.1757 H   0  0  0  0  0  0
  -30.3234  -11.3706   19.9205 H   0  0  0  0  0  0
  -29.7736  -11.7556   17.4781 H   0  0  0  0  0  0
  -29.6522  -13.4711   17.7662 H   0  0  0  0  0  0
  -27.8795  -11.2841   18.8978 H   0  0  0  0  0  0
  -27.3712  -12.5508   17.8095 H   0  0  0  0  0  0
  -27.6679  -14.2500   19.5124 H   0  0  0  0  0  0
  -28.6874  -12.0922   21.4213 H   0  0  0  0  0  0
  -28.4543  -13.7743   21.8241 H   0  0  0  0  0  0
  -25.2771   -9.5779   22.4732 H   0  0  0  0  0  0
  -24.0073   -7.4688   22.7442 H   0  0  0  0  0  0
  -21.0872   -8.8820   19.8956 H   0  0  0  0  0  0
  -22.3706  -10.9724   19.6171 H   0  0  0  0  0  0
  -21.2002   -7.6158   23.9731 H   0  0  0  0  0  0
  -21.1452   -6.0501   25.9061 H   0  0  0  0  0  0
  -22.0612   -2.7645   23.2766 H   0  0  0  0  0  0
  -22.4068  -11.9930   22.4754 H   0  0  0  0  0  0
  -21.1127  -13.1372   22.2594 H   0  0  0  0  0  0
  -24.6863  -15.8605   20.5533 H   0  0  0  0  0  0
  -26.3008  -15.6226   20.1146 H   0  0  0  0  0  0
  -26.7150  -32.5422   23.1066 H   0  0  0  0  0  0
  -25.0076  -33.9702   25.0410 H   0  0  0  0  0  0
  -22.7066  -31.3059   21.4029 H   0  0  0  0  0  0
  -23.3769  -35.9596   23.3207 H   0  0  0  0  0  0
  -24.3596  -36.9005   22.2057 H   0  0  0  0  0  0
  -23.7221  -37.6459   23.6708 H   0  0  0  0  0  0
  -26.0884  -31.5462   20.6019 H   0  0  0  0  0  0
  -26.8366  -30.8333   22.0024 H   0  0  0  0  0  0
  -28.0976  -28.9695   21.1902 H   0  0  0  0  0  0
  -25.8989  -25.9162   19.0408 H   0  0  0  0  0  0
  -23.9427  -27.3012   19.0388 H   0  0  0  0  0  0
  -23.7417  -30.5916   19.3995 H   0  0  0  0  0  0
  -22.7449  -29.2473   19.8626 H   0  0  0  0  0  0
  -25.1279  -36.1883   25.0815 H   0  0  0  0  0  0
  -20.9963  -28.3245   24.1394 H   0  0  0  0  0  0
  -20.5617  -26.2289   23.3606 H   0  0  0  0  0  0
  -21.6638  -26.7406   22.1228 H   0  0  0  0  0  0
  -19.6910  -25.6277   21.1248 H   0  0  0  0  0  0
  -19.6716  -27.3161   20.6688 H   0  0  0  0  0  0
  -17.4199  -26.6651   21.3997 H   0  0  0  0  0  0
  -18.0345  -26.0079   22.9010 H   0  0  0  0  0  0
  -19.7943  -30.7252   24.2246 H   0  0  0  0  0  0
  -17.5036  -31.6266   24.5157 H   0  0  0  0  0  0
  -15.5357  -30.2976   23.7680 H   0  0  0  0  0  0
  -15.8669  -28.0817   22.7085 H   0  0  0  0  0  0
  -24.5834  -30.7208   25.7828 H   0  0  0  0  0  0
  -24.9035  -32.2976   26.4944 H   0  0  0  0  0  0
  -25.8073  -30.8903   27.0223 H   0  0  0  0  0  0
  -26.2827  -29.6763   24.1208 H   0  0  0  0  0  0
  -27.3944  -29.7216   25.4684 H   0  0  0  0  0  0
  -27.8729  -30.4204   23.9392 H   0  0  0  0  0  0
  -27.2708  -33.3578   26.2078 H   0  0  0  0  0  0
  -28.3862  -32.6881   25.0268 H   0  0  0  0  0  0
  -28.0781  -31.8397   26.5341 H   0  0  0  0  0  0
  -28.2536  -38.0135   24.7585 H   0  0  0  0  0  0
  -28.1172  -36.2681   24.6106 H   0  0  0  0  0  0
  -27.2355  -37.1233   25.8842 H   0  0  0  0  0  0
  -20.9342  -29.8780   21.6921 H   0  0  0  0  0  0
  -26.0145  -38.2828   24.1522 H   0  0  0  0  0  0
  -30.7402  -16.7701   19.0017 H   0  0  0  0  0  0
  -29.2629  -15.9129   18.6841 H   0  0  0  0  0  0
  -30.1308  -16.0663   22.7261 H   0  0  0  0  0  0
  -31.3906  -16.7992   21.7855 H   0  0  0  0  0  0
  -27.9180  -17.6440   19.7915 H   0  0  0  0  0  0
  -28.9641  -18.3785   18.6064 H   0  0  0  0  0  0
  -30.0974  -18.6124   22.6469 H   0  0  0  0  0  0
  -28.5724  -17.8471   22.2849 H   0  0  0  0  0  0
  -29.9932  -25.0030   17.6667 H   0  0  0  0  0  0
  -30.5649  -26.0689   18.9432 H   0  0  0  0  0  0
  -29.3929  -26.6456   17.7695 H   0  0  0  0  0  0
  -27.6164  -23.4463   17.4706 H   0  0  0  0  0  0
  -27.9642  -21.7667   17.3434 H   0  0  0  0  0  0
  -29.2895  -22.8967   17.4093 H   0  0  0  0  0  0
  -23.4253  -19.2469   17.2781 H   0  0  0  0  0  0
  -23.5013  -19.0666   19.0337 H   0  0  0  0  0  0
  -24.9807  -19.2224   18.0863 H   0  0  0  0  0  0
  -21.9862  -21.2500   17.4124 H   0  0  0  0  0  0
  -22.5036  -22.6489   18.3377 H   0  0  0  0  0  0
  -21.9425  -21.2022   19.1774 H   0  0  0  0  0  0
  -28.5649  -23.9867   21.0377 H   0  0  0  0  0  0
  -29.9790  -23.8871   20.0844 H   0  0  0  0  0  0
  -26.3934  -23.3971   19.7385 H   0  0  0  0  0  0
  -26.8558  -22.2489   20.9650 H   0  0  0  0  0  0
  -27.7340  -19.9371   20.7713 H   0  0  0  0  0  0
  -29.0332  -20.5506   21.7376 H   0  0  0  0  0  0
  -24.4156  -22.5941   19.6305 H   0  0  0  0  0  0
  -24.4156  -21.0162   20.3979 H   0  0  0  0  0  0
  -27.6966  -25.1822   18.6435 H   0  0  0  0  0  0
  -29.1465  -20.6188   18.7366 H   0  0  0  0  0  0
  -26.3980  -20.4905   19.4506 H   0  0  0  0  0  0
  -30.4525  -19.0095   20.3688 H   0  0  0  0  0  0
  -24.3329  -21.4329   17.5070 H   0  0  0  0  0  0
  -30.8399  -22.0298   19.0749 H   0  0  0  0  0  0
  1 25  1  0  0  0
  1 30  2  0  0  0
  1 86  1  0  0  0
  2  3  1  0  0  0
  2 25  1  0  0  0
  2 91  1  0  0  0
  2 92  1  0  0  0
  3  4  1  0  0  0
  3 93  1  0  0  0
  3 94  1  0  0  0
  4  5  1  0  0  0
  4 95  1  0  0  0
  4 96  1  0  0  0
  5  6  1  0  0  0
  5 26  1  0  0  0
  5 97  1  0  0  0
  6 25  1  0  0  0
  6 98  1  0  0  0
  6 99  1  0  0  0
  7  8  2  0  0  0
  7 26  1  0  0  0
  7 29  1  0  0  0
  8  9  1  0  0  0
  8 22  1  0  0  0
  9 10  1  0  0  0
  9 27  2  0  0  0
 10 11  2  0  0  0
 10 15  1  0  0  0
 11 12  1  0  0  0
 11100  1  0  0  0
 12 13  2  0  0  0
 12101  1  0  0  0
 13 14  1  0  0  0
 13 31  1  0  0  0
 14 15  2  0  0  0
 14102  1  0  0  0
 15103  1  0  0  0
 16 17  2  0  0  0
 16 21  1  0  0  0
 16 31  1  0  0  0
 17 18  1  0  0  0
 17104  1  0  0  0
 18 19  2  0  0  0
 18105  1  0  0  0
 19 20  1  0  0  0
 19 24  1  0  0  0
 20 21  2  0  0  0
 20106  1  0  0  0
 21 23  1  0  0  0
 22 28  1  0  0  0
 22 32  2  0  0  0
 26 27  1  0  0  0
 28107  1  0  0  0
 28108  1  0  0  0
 29109  1  0  0  0
 29110  1  0  0  0
 33 34  1  0  0  0
 33 66  1  0  0  0
 33 70  2  0  0  0
 34 36  1  0  0  0
 34 59  1  0  0  0
 34111  1  0  0  0
 35 44  2  0  0  0
 35 45  1  0  0  0
 35 68  1  0  0  0
 36 56  1  0  0  0
 36112  1  0  0  0
 37 39  1  0  0  0
 37 47  1  0  0  0
 37 66  1  0  0  0
 37113  1  0  0  0
 38 43  2  0  0  0
 38 46  1  0  0  0
 38 47  1  0  0  0
 39 64  1  0  0  0
 39 67  2  0  0  0
 40 52  1  0  0  0
 40 53  2  0  0  0
 40 58  1  0  0  0
 41114  1  0  0  0
 41115  1  0  0  0
 41116  1  0  0  0
 41 48  1  0  0  0
 42 43  1  0  0  0
 42 66  1  0  0  0
 42117  1  0  0  0
 42118  1  0  0  0
 43 44  1  0  0  0
 44119  1  0  0  0
 45 46  2  0  0  0
 45120  1  0  0  0
 46121  1  0  0  0
 47122  1  0  0  0
 47123  1  0  0  0
 48 56  1  0  0  0
 48 65  1  0  0  0
 48124  1  0  0  0
 49 50  1  0  0  0
 49 53  1  0  0  0
 49 64  1  0  0  0
 49125  1  0  0  0
 50 51  1  0  0  0
 50126  1  0  0  0
 50127  1  0  0  0
 51 52  1  0  0  0
 51128  1  0  0  0
 51129  1  0  0  0
 52130  1  0  0  0
 52131  1  0  0  0
 53 54  1  0  0  0
 54 55  2  0  0  0
 54132  1  0  0  0
 55 57  1  0  0  0
 55133  1  0  0  0
 56 69  2  0  0  0
 57 58  2  0  0  0
 57134  1  0  0  0
 58135  1  0  0  0
 59 60  1  0  0  0
 59 61  1  0  0  0
 59 62  1  0  0  0
 60136  1  0  0  0
 60137  1  0  0  0
 60138  1  0  0  0
 61139  1  0  0  0
 61140  1  0  0  0
 61141  1  0  0  0
 62142  1  0  0  0
 62143  1  0  0  0
 62144  1  0  0  0
 63 65  1  0  0  0
 63145  1  0  0  0
 63146  1  0  0  0
 63147  1  0  0  0
 64148  1  0  0  0
 65149  1  0  0  0
 68 83  1  0  0  0
 71 73  1  0  0  0
 71 86  1  0  0  0
 71150  1  0  0  0
 71151  1  0  0  0
 72 74  1  0  0  0
 72 86  1  0  0  0
 72152  1  0  0  0
 72153  1  0  0  0
 73 88  1  0  0  0
 73154  1  0  0  0
 73155  1  0  0  0
 74 88  1  0  0  0
 74156  1  0  0  0
 74157  1  0  0  0
 75158  1  0  0  0
 75159  1  0  0  0
 75160  1  0  0  0
 75 83  1  0  0  0
 76161  1  0  0  0
 76162  1  0  0  0
 76163  1  0  0  0
 76 85  1  0  0  0
 77164  1  0  0  0
 77165  1  0  0  0
 77166  1  0  0  0
 77 89  1  0  0  0
 78 89  1  0  0  0
 78167  1  0  0  0
 78168  1  0  0  0
 78169  1  0  0  0
 79 83  1  0  0  0
 79 85  1  0  0  0
 79170  1  0  0  0
 79171  1  0  0  0
 80 85  1  0  0  0
 80 87  1  0  0  0
 80172  1  0  0  0
 80173  1  0  0  0
 81 84  1  0  0  0
 81174  1  0  0  0
 81175  1  0  0  0
 81 88  1  0  0  0
 82 87  1  0  0  0
 82 89  1  0  0  0
 82176  1  0  0  0
 82177  1  0  0  0
 83178  1  0  0  0
 84 85  1  0  0  0
 84 90  1  0  0  0
 84179  1  0  0  0
 87180  1  0  0  0
 88181  1  0  0  0
 89182  1  0  0  0
 90183  1  0  0  0
M  CHG  2  88   1  89   1
M  ISO  4   1 100  68 101  83 101  86 100
M  END
> <chiral flag>
0

> <version>
0

> <s_m_source_file>
/data/baiqing/PycharmProjects/Reinvent-master-3.2/result/LINK_invent/BTK/process_docking_weight1_custom_sum_contain_oxygen_bond_distance_aromatic_linkinvent_7_9_3/rearranged_h_0114.sdf

> <i_m_source_file_index>
73

> <r_mmod_Potential_Energy-OPLS-2005>
129.873962402344

> <r_mmod_Stretch_Energy-OPLS-2005>
87.6116027832031

> <r_mmod_Bend_Energy-OPLS-2005>
179.972564697266

> <r_mmod_Torsional_Energy-OPLS-2005>
459.966979980469

> <r_mmod_Improper_Torsional_Energy-OPLS-2005>
11.4718971252441

> <r_mmod_Van_der_Waal_Energy-OPLS-2005>
144.108535766602

> <r_mmod_Electrostatic_Energy-OPLS-2005>
104.38557434082

> <r_mmod_Solvation_Energy-OPLS-2005>
-899.049072265625

> <b_mmod_Minimization_Converged-OPLS-2005>
0

> <r_mmod_RMS_Derivative-OPLS-2005>
3.40045380592346

$$$$
73
                    3D
 Structure written by MMmdl.
167175  0  0  1  0            999 V2000
  -31.5532  -15.0408   19.4970 C   0  0  0  0  0  0
  -30.6864  -13.9811   21.1484 C   0  0  0  0  0  0
  -28.4486  -11.7915   20.5132 C   0  0  0  0  0  0
  -27.6526  -12.0578   18.9164 C   0  0  0  0  0  0
  -27.2464  -13.6940   18.9168 C   0  0  2  0  0  0
  -28.6681  -15.2445   18.9498 C   0  0  0  0  0  0
  -25.1020  -14.0524   20.4968 C   0  0  0  0  0  0
  -24.0977  -13.2154   20.9530 C   0  0  0  0  0  0
  -24.5362  -11.8734   20.8711 C   0  0  0  0  0  0
  -23.8782  -10.5371   21.0369 C   0  0  0  0  0  0
  -24.3586   -9.5195   21.9016 C   0  0  0  0  0  0
  -23.6540   -8.2949   22.0610 C   0  0  0  0  0  0
  -22.4500   -8.0642   21.3489 C   0  0  0  0  0  0
  -22.0023   -9.0558   20.4573 C   0  0  0  0  0  0
  -22.7034  -10.2679   20.3034 C   0  0  0  0  0  0
  -21.7102   -6.0900   22.5245 C   0  0  0  0  0  0
  -21.4222   -6.5755   23.8192 C   0  0  0  0  0  0
  -21.3700   -5.6862   24.9112 C   0  0  0  0  0  0
  -21.6026   -4.3108   24.7157 C   0  0  0  0  0  0
  -21.8797   -3.8221   23.4270 C   0  0  0  0  0  0
  -21.9298   -4.7090   22.3358 C   0  0  0  0  0  0
  -22.7044  -13.6236   21.2423 C   0  0  0  0  0  0
  -22.1701   -4.2280   21.0927 F   0  0  0  0  0  0
  -21.5593   -3.4552   25.7652 F   0  0  0  0  0  0
  -30.3269  -15.2801   19.9862 N   0  0  0  0  0  0
  -26.0993  -13.2945   19.9747 N   0  0  0  0  0  0
  -25.7167  -11.9694   20.3580 N   0  0  0  0  0  0
  -22.0071  -12.8659   22.0809 N   0  0  0  0  0  0
  -25.2380  -15.4157   20.3494 N   0  0  0  0  0  0
  -32.5589  -15.3330   20.0963 O   0  0  0  0  0  0
  -21.7023   -6.9068   21.4170 O   0  0  0  0  0  0
  -22.2342  -14.6297   20.7216 O   0  0  0  0  0  0
  -24.7327  -31.7350   23.1091 C   0  0  0  0  0  0
  -25.9666  -32.4117   23.7795 C   0  0  1  0  0  0
  -27.0155  -26.0420   20.3651 C   0  0  0  0  0  0
  -25.6036  -33.7993   24.1611 N   0  0  0  0  0  0
  -23.5726  -30.3257   21.4783 C   0  0  2  0  0  0
  -24.9956  -28.5434   20.1288 C   0  0  0  0  0  0
  -22.7936  -29.3996   22.4548 C   0  0  0  0  0  0
  -18.0367  -28.1454   22.8434 C   0  0  0  0  0  0
  -24.1525  -36.7027   23.2660 C   0  0  0  0  0  0
  -26.1664  -30.2440   21.4775 C   0  0  0  0  0  0
  -26.1786  -28.7421   20.8442 C   0  0  0  0  0  0
  -27.1585  -27.5380   20.9095 C   0  0  0  0  0  0
  -25.8650  -26.2248   19.5216 C   0  0  0  0  0  0
  -24.9241  -27.3247   19.4272 C   0  0  0  0  0  0
  -23.8479  -29.5921   20.1271 C   0  0  0  0  0  0
  -25.4186  -36.2677   24.0218 C   0  0  1  0  0  0
  -20.6032  -28.3835   23.1069 C   0  0  2  0  0  0
  -20.6814  -26.9445   22.5431 C   0  0  0  0  0  0
  -19.5789  -26.6346   21.5251 C   0  0  0  0  0  0
  -18.1971  -26.7975   22.1623 C   0  0  0  0  0  0
  -19.1646  -28.8969   23.2730 C   0  0  0  0  0  0
  -18.9539  -30.1557   23.8773 C   0  0  0  0  0  0
  -17.6516  -30.6616   24.0548 C   0  0  0  0  0  0
  -25.9203  -34.9094   23.4797 C   0  0  0  0  0  0
  -16.5409  -29.9084   23.6363 C   0  0  0  0  0  0
  -16.7347  -28.6527   23.0357 C   0  0  0  0  0  0
  -26.4658  -31.6417   25.0657 C   0  0  0  0  0  0
  -25.3596  -31.3903   26.1168 C   0  0  0  0  0  0
  -27.0677  -30.2677   24.7056 C   0  0  0  0  0  0
  -27.6002  -32.4436   25.7479 C   0  0  0  0  0  0
  -27.5569  -37.1649   24.8447 C   0  0  0  0  0  0
  -21.4564  -29.2981   22.3311 N   0  0  0  0  0  0
  -26.4259  -37.3504   23.9397 N   0  0  0  0  0  0
  -24.8567  -30.8175   22.0707 N   0  0  0  0  0  0
  -23.4139  -28.7670   23.3107 O   0  0  0  0  0  0
  -27.7390  -24.4928   20.5363 O   0  0  0  0  0  0
  -26.5925  -34.8782   22.4478 O   0  0  0  0  0  0
  -23.6253  -32.0753   23.5689 O   0  0  0  0  0  0
  -30.7767  -11.5716   21.1774 C   0  0  0  0  0  0
  -28.7445  -13.3011   22.3598 C   0  0  0  0  0  0
  -29.8638  -12.0946   22.4315 C   0  0  0  0  0  0
  -30.6664  -12.1533   19.6733 C   0  0  0  0  0  0
  -28.4730  -14.1426   20.9841 C   0  0  0  0  0  0
  -29.7935   -9.8279   23.4894 C   0  0  0  0  0  0
  -29.2175  -11.8168   24.9112 C   0  0  0  0  0  0
  -29.0278  -16.6290   22.5542 C   0  0  0  0  0  0
  -31.8720  -12.6732   18.8351 C   0  0  0  0  0  0
  -28.0443  -20.2495   20.9586 C   0  0  0  0  0  0
  -27.5074  -22.4319   20.4377 C   0  0  0  0  0  0
  -30.0663  -11.3218   23.7296 C   0  0  0  0  0  0
  -28.1715  -16.3408   21.3065 C   0  0  1  0  0  0
  -29.5915  -13.2283   19.4186 N   0  0  0  0  0  0
  -31.6438  -14.1316   18.4922 N   0  0  0  0  0  0
  -27.9069  -18.2444   20.6269 N   0  3  0  0  0  0
  -31.7204  -13.6550   21.3627 H   0  0  0  0  0  0
  -30.6559  -14.5413   22.0917 H   0  0  0  0  0  0
  -27.7464  -11.5242   21.3034 H   0  0  0  0  0  0
  -28.7762  -10.7566   20.3517 H   0  0  0  0  0  0
  -26.9168  -11.3261   18.5678 H   0  0  0  0  0  0
  -28.3340  -11.8691   18.0814 H   0  0  0  0  0  0
  -26.7140  -13.8739   17.9829 H   0  0  0  0  0  0
  -28.1645  -16.2086   18.9167 H   0  0  0  0  0  0
  -29.0519  -15.2378   17.9276 H   0  0  0  0  0  0
  -25.2656   -9.6942   22.4608 H   0  0  0  0  0  0
  -24.0467   -7.5449   22.7318 H   0  0  0  0  0  0
  -21.1001   -8.8878   19.8844 H   0  0  0  0  0  0
  -22.3141  -11.0119   19.6247 H   0  0  0  0  0  0
  -21.2278   -7.6263   23.9720 H   0  0  0  0  0  0
  -21.1498   -6.0577   25.9032 H   0  0  0  0  0  0
  -22.0499   -2.7675   23.2723 H   0  0  0  0  0  0
  -22.4141  -12.0459   22.5007 H   0  0  0  0  0  0
  -21.0562  -13.1182   22.3033 H   0  0  0  0  0  0
  -25.7025  -15.6991   19.4968 H   0  0  0  0  0  0
  -24.3855  -15.9450   20.4925 H   0  0  0  0  0  0
  -26.7801  -32.4426   23.0536 H   0  0  0  0  0  0
  -24.9927  -33.8917   24.9583 H   0  0  0  0  0  0
  -22.9325  -31.1845   21.2575 H   0  0  0  0  0  0
  -23.3806  -35.9344   23.3173 H   0  0  0  0  0  0
  -24.3602  -36.8876   22.2120 H   0  0  0  0  0  0
  -23.7291  -37.6131   23.6898 H   0  0  0  0  0  0
  -26.4572  -30.9187   20.6686 H   0  0  0  0  0  0
  -26.9957  -30.2993   22.1704 H   0  0  0  0  0  0
  -28.0304  -27.7070   21.5290 H   0  0  0  0  0  0
  -25.5862  -25.3557   18.9402 H   0  0  0  0  0  0
  -24.0601  -27.1698   18.7950 H   0  0  0  0  0  0
  -24.0910  -30.3404   19.3709 H   0  0  0  0  0  0
  -22.9300  -29.1152   19.7746 H   0  0  0  0  0  0
  -25.1442  -36.1348   25.0708 H   0  0  0  0  0  0
  -21.0119  -28.3506   24.1196 H   0  0  0  0  0  0
  -20.5667  -26.2467   23.3747 H   0  0  0  0  0  0
  -21.6667  -26.7311   22.1257 H   0  0  0  0  0  0
  -19.6935  -25.6227   21.1351 H   0  0  0  0  0  0
  -19.6755  -27.3105   20.6751 H   0  0  0  0  0  0
  -17.4259  -26.6769   21.4007 H   0  0  0  0  0  0
  -18.0302  -26.0152   22.9043 H   0  0  0  0  0  0
  -19.8014  -30.7427   24.2080 H   0  0  0  0  0  0
  -17.5050  -31.6274   24.5202 H   0  0  0  0  0  0
  -15.5404  -30.2932   23.7750 H   0  0  0  0  0  0
  -15.8767  -28.0802   22.7108 H   0  0  0  0  0  0
  -24.5816  -30.7215   25.7449 H   0  0  0  0  0  0
  -24.8734  -32.3166   26.4238 H   0  0  0  0  0  0
  -25.7634  -30.9269   27.0181 H   0  0  0  0  0  0
  -26.3440  -29.6039   24.2289 H   0  0  0  0  0  0
  -27.4061  -29.7461   25.6033 H   0  0  0  0  0  0
  -27.9478  -30.3608   24.0690 H   0  0  0  0  0  0
  -27.2472  -33.3911   26.1578 H   0  0  0  0  0  0
  -28.4021  -32.6736   25.0451 H   0  0  0  0  0  0
  -28.0455  -31.8894   26.5749 H   0  0  0  0  0  0
  -28.2445  -38.0061   24.7520 H   0  0  0  0  0  0
  -28.1174  -36.2560   24.6219 H   0  0  0  0  0  0
  -27.2261  -37.1217   25.8831 H   0  0  0  0  0  0
  -20.9986  -29.8539   21.6240 H   0  0  0  0  0  0
  -26.0015  -38.2522   24.1407 H   0  0  0  0  0  0
  -31.5894  -10.8897   21.3898 H   0  0  0  0  0  0
  -28.2684  -13.6475   23.2663 H   0  0  0  0  0  0
  -30.4637   -9.4024   22.7447 H   0  0  0  0  0  0
  -28.7766   -9.6742   23.1286 H   0  0  0  0  0  0
  -29.9286   -9.2471   24.4014 H   0  0  0  0  0  0
  -29.3972  -12.8714   25.1116 H   0  0  0  0  0  0
  -29.4685  -11.2715   25.8233 H   0  0  0  0  0  0
  -28.1507  -11.6720   24.7284 H   0  0  0  0  0  0
  -28.9696  -15.8257   23.2890 H   0  0  0  0  0  0
  -28.6860  -17.5317   23.0608 H   0  0  0  0  0  0
  -30.0710  -16.7922   22.2896 H   0  0  0  0  0  0
  -32.8023  -12.5417   19.3886 H   0  0  0  0  0  0
  -31.9498  -12.0979   17.9112 H   0  0  0  0  0  0
  -27.8342  -20.2668   22.0308 H   0  0  0  0  0  0
  -29.1309  -20.3217   20.8997 H   0  0  0  0  0  0
  -26.4508  -22.4019   20.7100 H   0  0  0  0  0  0
  -27.4855  -22.3416   19.3510 H   0  0  0  0  0  0
  -31.1164  -11.4328   24.0112 H   0  0  0  0  0  0
  -27.1750  -16.2418   21.7275 H   0  0  0  0  0  0
  -30.7131  -14.1283   18.0915 H   0  0  0  0  0  0
  -28.3287  -18.1753   19.7146 H   0  0  0  0  0  0
  -26.9188  -18.1778   20.4329 H   0  0  0  0  0  0
  1 25  1  0  0  0
  1 30  2  0  0  0
  1 85  1  0  0  0
  2  3  1  0  0  0
  2 25  1  0  0  0
  2 87  1  0  0  0
  2 88  1  0  0  0
  3  4  1  0  0  0
  3 89  1  0  0  0
  3 90  1  0  0  0
  4  5  1  0  0  0
  4 91  1  0  0  0
  4 92  1  0  0  0
  5  6  1  0  0  0
  5 26  1  0  0  0
  5 93  1  0  0  0
  6 25  1  0  0  0
  6 94  1  0  0  0
  6 95  1  0  0  0
  7  8  2  0  0  0
  7 26  1  0  0  0
  7 29  1  0  0  0
  8  9  1  0  0  0
  8 22  1  0  0  0
  9 10  1  0  0  0
  9 27  2  0  0  0
 10 11  2  0  0  0
 10 15  1  0  0  0
 11 12  1  0  0  0
 11 96  1  0  0  0
 12 13  2  0  0  0
 12 97  1  0  0  0
 13 14  1  0  0  0
 13 31  1  0  0  0
 14 15  2  0  0  0
 14 98  1  0  0  0
 15 99  1  0  0  0
 16 17  2  0  0  0
 16 21  1  0  0  0
 16 31  1  0  0  0
 17 18  1  0  0  0
 17100  1  0  0  0
 18 19  2  0  0  0
 18101  1  0  0  0
 19 20  1  0  0  0
 19 24  1  0  0  0
 20 21  2  0  0  0
 20102  1  0  0  0
 21 23  1  0  0  0
 22 28  1  0  0  0
 22 32  2  0  0  0
 26 27  1  0  0  0
 28103  1  0  0  0
 28104  1  0  0  0
 29105  1  0  0  0
 29106  1  0  0  0
 33 34  1  0  0  0
 33 66  1  0  0  0
 33 70  2  0  0  0
 34 36  1  0  0  0
 34 59  1  0  0  0
 34107  1  0  0  0
 35 44  2  0  0  0
 35 45  1  0  0  0
 35 68  1  0  0  0
 36 56  1  0  0  0
 36108  1  0  0  0
 37 39  1  0  0  0
 37 47  1  0  0  0
 37 66  1  0  0  0
 37109  1  0  0  0
 38 43  2  0  0  0
 38 46  1  0  0  0
 38 47  1  0  0  0
 39 64  1  0  0  0
 39 67  2  0  0  0
 40 52  1  0  0  0
 40 53  2  0  0  0
 40 58  1  0  0  0
 41110  1  0  0  0
 41111  1  0  0  0
 41112  1  0  0  0
 41 48  1  0  0  0
 42 43  1  0  0  0
 42 66  1  0  0  0
 42113  1  0  0  0
 42114  1  0  0  0
 43 44  1  0  0  0
 44115  1  0  0  0
 45 46  2  0  0  0
 45116  1  0  0  0
 46117  1  0  0  0
 47118  1  0  0  0
 47119  1  0  0  0
 48 56  1  0  0  0
 48 65  1  0  0  0
 48120  1  0  0  0
 49 50  1  0  0  0
 49 53  1  0  0  0
 49 64  1  0  0  0
 49121  1  0  0  0
 50 51  1  0  0  0
 50122  1  0  0  0
 50123  1  0  0  0
 51 52  1  0  0  0
 51124  1  0  0  0
 51125  1  0  0  0
 52126  1  0  0  0
 52127  1  0  0  0
 53 54  1  0  0  0
 54 55  2  0  0  0
 54128  1  0  0  0
 55 57  1  0  0  0
 55129  1  0  0  0
 56 69  2  0  0  0
 57 58  2  0  0  0
 57130  1  0  0  0
 58131  1  0  0  0
 59 60  1  0  0  0
 59 61  1  0  0  0
 59 62  1  0  0  0
 60132  1  0  0  0
 60133  1  0  0  0
 60134  1  0  0  0
 61135  1  0  0  0
 61136  1  0  0  0
 61137  1  0  0  0
 62138  1  0  0  0
 62139  1  0  0  0
 62140  1  0  0  0
 63 65  1  0  0  0
 63141  1  0  0  0
 63142  1  0  0  0
 63143  1  0  0  0
 64144  1  0  0  0
 65145  1  0  0  0
 68 81  1  0  0  0
 71 73  2  0  0  0
 71 74  1  0  0  0
 71146  1  0  0  0
 72 73  1  0  0  0
 72 75  2  0  0  0
 72147  1  0  0  0
 73 82  1  0  0  0
 74 79  1  0  0  0
 74 84  2  0  0  0
 75 83  1  0  0  0
 75 84  1  0  0  0
 76148  1  0  0  0
 76149  1  0  0  0
 76150  1  0  0  0
 76 82  1  0  0  0
 77 82  1  0  0  0
 77151  1  0  0  0
 77152  1  0  0  0
 77153  1  0  0  0
 78154  1  0  0  0
 78155  1  0  0  0
 78156  1  0  0  0
 78 83  1  0  0  0
 79 85  1  0  0  0
 79157  1  0  0  0
 79158  1  0  0  0
 80 81  1  0  0  0
 80 86  1  0  0  0
 80159  1  0  0  0
 80160  1  0  0  0
 81161  1  0  0  0
 81162  1  0  0  0
 82163  1  0  0  0
 83 86  1  0  0  0
 83164  1  0  0  0
 85165  1  0  0  0
 86166  1  0  0  0
 86167  1  0  0  0
M  CHG  1  86   1
M  ISO  4   1 100  68 101  81 101  85 100
M  END
> <chiral flag>
0

> <version>
0

> <s_m_source_file>
/data/baiqing/PycharmProjects/Reinvent-master-3.2/result/LINK_invent/BTK/process_docking_weight1_custom_sum_contain_oxygen_bond_distance_aromatic_linkinvent_7_9_3/rearranged_h_0114.sdf

> <i_m_source_file_index>
74

> <r_mmod_Potential_Energy-OPLS-2005>
18060.072265625

> <r_mmod_Stretch_Energy-OPLS-2005>
9363.4755859375

> <r_mmod_Bend_Energy-OPLS-2005>
1472.84814453125

> <r_mmod_Torsional_Energy-OPLS-2005>
451.492797851562

> <r_mmod_Improper_Torsional_Energy-OPLS-2005>
58.1959037780762

> <r_mmod_Van_der_Waal_Energy-OPLS-2005>
3302.96704101562

> <r_mmod_Electrostatic_Energy-OPLS-2005>
-675.5751953125

> <r_mmod_Solvation_Energy-OPLS-2005>
-458.781799316406

> <b_mmod_Minimization_Converged-OPLS-2005>
0

> <r_mmod_RMS_Derivative-OPLS-2005>
8.87977981567383

$$$$
74
                    3D
 Structure written by MMmdl.
162170  0  0  1  0            999 V2000
  -30.3991  -15.3051   20.2703 C   0  0  0  0  0  0
  -30.4541  -12.8113   19.5120 C   0  0  0  0  0  0
  -29.5425  -12.4919   18.2971 C   0  0  0  0  0  0
  -28.0831  -12.2414   18.7322 C   0  0  0  0  0  0
  -27.6042  -13.2256   19.8261 C   0  0  2  0  0  0
  -28.6562  -13.4611   20.9337 C   0  0  0  0  0  0
  -25.2426  -13.8120   20.5871 C   0  0  0  0  0  0
  -24.1708  -13.0392   20.9313 C   0  0  0  0  0  0
  -24.6310  -11.6871   20.8843 C   0  0  0  0  0  0
  -23.9007  -10.4271   21.0457 C   0  0  0  0  0  0
  -24.3580   -9.4190   21.9213 C   0  0  0  0  0  0
  -23.6278   -8.2219   22.0753 C   0  0  0  0  0  0
  -22.4261   -8.0268   21.3542 C   0  0  0  0  0  0
  -21.9890   -9.0246   20.4650 C   0  0  0  0  0  0
  -22.7200  -10.2130   20.3084 C   0  0  0  0  0  0
  -21.6847   -6.0732   22.5287 C   0  0  0  0  0  0
  -21.4005   -6.5634   23.8219 C   0  0  0  0  0  0
  -21.3650   -5.6782   24.9180 C   0  0  0  0  0  0
  -21.6043   -4.3047   24.7231 C   0  0  0  0  0  0
  -21.8819   -3.8144   23.4351 C   0  0  0  0  0  0
  -21.9187   -4.6962   22.3407 C   0  0  0  0  0  0
  -22.7736  -13.5212   21.1911 C   0  0  0  0  0  0
  -22.1652   -4.2142   21.0984 F   0  0  0  0  0  0
  -21.5631   -3.4535   25.7742 F   0  0  0  0  0  0
  -29.8753  -13.9726   20.2766 N   0  0  0  0  0  0
  -26.2810  -12.9269   20.3418 N   0  0  0  0  0  0
  -25.9242  -11.6440   20.5884 N   0  0  0  0  0  0
  -22.0333  -12.8249   22.0454 N   0  0  0  0  0  0
  -25.4139  -15.1863   20.4347 N   0  0  0  0  0  0
  -31.6397  -15.3297   20.2353 O   0  0  0  0  0  0
  -21.6625   -6.8868   21.4247 O   0  0  0  0  0  0
  -22.3465  -14.5515   20.6709 O   0  0  0  0  0  0
  -24.6625  -31.8277   23.1743 C   0  0  0  0  0  0
  -25.9321  -32.4611   23.8203 C   0  0  1  0  0  0
  -27.2205  -26.9538   20.1828 C   0  0  0  0  0  0
  -25.6005  -33.8428   24.2105 N   0  0  0  0  0  0
  -23.4744  -30.4416   21.5216 C   0  0  2  0  0  0
  -24.9329  -28.8390   20.1037 C   0  0  0  0  0  0
  -22.7656  -29.4474   22.4781 C   0  0  0  0  0  0
  -18.0334  -28.1407   22.8481 C   0  0  0  0  0  0
  -24.1478  -36.7185   23.2644 C   0  0  0  0  0  0
  -26.0438  -30.6393   21.4087 C   0  0  0  0  0  0
  -26.1118  -29.2343   20.7493 C   0  0  0  0  0  0
  -27.2470  -28.3089   20.7711 C   0  0  0  0  0  0
  -26.0369  -26.7323   19.4452 C   0  0  0  0  0  0
  -24.9214  -27.6070   19.4319 C   0  0  0  0  0  0
  -23.7144  -29.7614   20.1447 C   0  0  0  0  0  0
  -25.4125  -36.2971   24.0300 C   0  0  1  0  0  0
  -20.5962  -28.3755   23.1180 C   0  0  2  0  0  0
  -20.6816  -26.9433   22.5407 C   0  0  0  0  0  0
  -19.5779  -26.6372   21.5225 C   0  0  0  0  0  0
  -18.1965  -26.7946   22.1635 C   0  0  0  0  0  0
  -19.1601  -28.8907   23.2825 C   0  0  0  0  0  0
  -18.9506  -30.1502   23.8846 C   0  0  0  0  0  0
  -17.6501  -30.6600   24.0563 C   0  0  0  0  0  0
  -25.9100  -34.9359   23.5015 C   0  0  0  0  0  0
  -16.5388  -29.9083   23.6351 C   0  0  0  0  0  0
  -16.7324  -28.6508   23.0369 C   0  0  0  0  0  0
  -26.4575  -31.6559   25.0724 C   0  0  0  0  0  0
  -25.3696  -31.3839   26.1370 C   0  0  0  0  0  0
  -27.0488  -30.2920   24.6499 C   0  0  0  0  0  0
  -27.6043  -32.4392   25.7536 C   0  0  0  0  0  0
  -27.5567  -37.1749   24.8475 C   0  0  0  0  0  0
  -21.4335  -29.3040   22.3506 N   0  0  0  0  0  0
  -26.4275  -37.3709   23.9419 N   0  0  0  0  0  0
  -24.7468  -30.9968   22.0876 N   0  0  0  0  0  0
  -23.4219  -28.8056   23.3028 O   0  0  0  0  0  0
  -28.2100  -25.8452   20.3029 O   0  0  0  0  0  0
  -26.5688  -34.8888   22.4593 O   0  0  0  0  0  0
  -23.5696  -32.1252   23.6829 O   0  0  0  0  0  0
  -29.1589  -17.1906   17.6617 C   0  0  0  0  0  0
  -29.5978  -18.4540   18.3566 C   0  0  0  0  0  0
  -28.7792  -16.2171   18.7759 C   0  0  0  0  0  0
  -29.3234  -18.2044   19.8370 C   0  0  1  0  0  0
  -25.3861  -23.7293   20.5727 C   0  0  0  0  0  0
  -26.7804  -24.6346   22.5269 C   0  0  0  0  0  0
  -29.5645  -19.7963   20.5899 C   0  0  0  0  0  0
  -29.0746  -22.8062   20.4386 C   0  0  0  0  0  0
  -26.7877  -23.8419   21.2097 C   0  0  0  0  0  0
  -27.9669  -24.2070   20.2396 C   0  0  2  0  0  0
  -29.5520  -16.5202   20.0111 N   0  0  0  0  0  0
  -28.7918  -21.1972   20.1166 N   0  3  0  0  0  0
  -31.4596  -13.0379   19.1567 H   0  0  0  0  0  0
  -30.5596  -11.9357   20.1560 H   0  0  0  0  0  0
  -29.9222  -11.6138   17.7719 H   0  0  0  0  0  0
  -29.5871  -13.3006   17.5695 H   0  0  0  0  0  0
  -28.0282  -11.2229   19.1190 H   0  0  0  0  0  0
  -27.4150  -12.2700   17.8699 H   0  0  0  0  0  0
  -27.4535  -14.1469   19.2881 H   0  0  0  0  0  0
  -28.8508  -12.5495   21.5011 H   0  0  0  0  0  0
  -28.2948  -14.2026   21.6484 H   0  0  0  0  0  0
  -25.2722   -9.5672   22.4791 H   0  0  0  0  0  0
  -23.9991   -7.4599   22.7463 H   0  0  0  0  0  0
  -21.0823   -8.8777   19.8952 H   0  0  0  0  0  0
  -22.3673  -10.9681   19.6203 H   0  0  0  0  0  0
  -21.1998   -7.6144   23.9724 H   0  0  0  0  0  0
  -21.1459   -6.0513   25.9079 H   0  0  0  0  0  0
  -22.0602   -2.7609   23.2860 H   0  0  0  0  0  0
  -22.3887  -11.9939   22.4932 H   0  0  0  0  0  0
  -21.0926  -13.1282   22.2547 H   0  0  0  0  0  0
  -24.6564  -15.8460   20.5789 H   0  0  0  0  0  0
  -26.2861  -15.6331   20.1886 H   0  0  0  0  0  0
  -26.7387  -32.5163   23.0918 H   0  0  0  0  0  0
  -25.0174  -33.9533   25.0268 H   0  0  0  0  0  0
  -22.7866  -31.2735   21.3542 H   0  0  0  0  0  0
  -23.3774  -35.9486   23.3296 H   0  0  0  0  0  0
  -24.3543  -36.8842   22.2062 H   0  0  0  0  0  0
  -23.7199  -37.6356   23.6702 H   0  0  0  0  0  0
  -26.2296  -31.3857   20.6345 H   0  0  0  0  0  0
  -26.8999  -30.6907   22.0705 H   0  0  0  0  0  0
  -28.1302  -28.6014   21.3200 H   0  0  0  0  0  0
  -25.9417  -25.8071   18.8969 H   0  0  0  0  0  0
  -24.0349  -27.3074   18.8894 H   0  0  0  0  0  0
  -23.8651  -30.5344   19.3899 H   0  0  0  0  0  0
  -22.8267  -29.2142   19.8244 H   0  0  0  0  0  0
  -25.1317  -36.1776   25.0794 H   0  0  0  0  0  0
  -21.0084  -28.3382   24.1293 H   0  0  0  0  0  0
  -20.5715  -26.2376   23.3658 H   0  0  0  0  0  0
  -21.6672  -26.7415   22.1199 H   0  0  0  0  0  0
  -19.6936  -25.6269   21.1291 H   0  0  0  0  0  0
  -19.6714  -27.3153   20.6734 H   0  0  0  0  0  0
  -17.4242  -26.6722   21.4032 H   0  0  0  0  0  0
  -18.0338  -26.0090   22.9029 H   0  0  0  0  0  0
  -19.7983  -30.7346   24.2178 H   0  0  0  0  0  0
  -17.5046  -31.6274   24.5167 H   0  0  0  0  0  0
  -15.5387  -30.2969   23.7688 H   0  0  0  0  0  0
  -15.8729  -28.0805   22.7099 H   0  0  0  0  0  0
  -24.5862  -30.7211   25.7675 H   0  0  0  0  0  0
  -24.8916  -32.3067   26.4670 H   0  0  0  0  0  0
  -25.7912  -30.9083   27.0232 H   0  0  0  0  0  0
  -26.3184  -29.6580   24.1466 H   0  0  0  0  0  0
  -27.3947  -29.7308   25.5193 H   0  0  0  0  0  0
  -27.9146  -30.4081   23.9975 H   0  0  0  0  0  0
  -27.2570  -33.3714   26.2007 H   0  0  0  0  0  0
  -28.3912  -32.6940   25.0421 H   0  0  0  0  0  0
  -28.0654  -31.8618   26.5562 H   0  0  0  0  0  0
  -28.2569  -38.0059   24.7519 H   0  0  0  0  0  0
  -28.1076  -36.2587   24.6302 H   0  0  0  0  0  0
  -27.2283  -37.1381   25.8877 H   0  0  0  0  0  0
  -20.9587  -29.8718   21.6618 H   0  0  0  0  0  0
  -26.0128  -38.2768   24.1444 H   0  0  0  0  0  0
  -29.9777  -16.7967   17.0575 H   0  0  0  0  0  0
  -28.3139  -17.3624   16.9922 H   0  0  0  0  0  0
  -29.0601  -19.3202   17.9673 H   0  0  0  0  0  0
  -30.6615  -18.6282   18.1952 H   0  0  0  0  0  0
  -27.7129  -16.2999   18.9896 H   0  0  0  0  0  0
  -28.9337  -15.2406   18.3252 H   0  0  0  0  0  0
  -28.2376  -18.2206   19.9596 H   0  0  0  0  0  0
  -24.7305  -23.1198   21.1960 H   0  0  0  0  0  0
  -25.4249  -23.2454   19.5965 H   0  0  0  0  0  0
  -24.8812  -24.6852   20.4611 H   0  0  0  0  0  0
  -26.1474  -24.1490   23.2683 H   0  0  0  0  0  0
  -26.4044  -25.6501   22.3960 H   0  0  0  0  0  0
  -27.7817  -24.7006   22.9517 H   0  0  0  0  0  0
  -30.6330  -20.0084   20.5448 H   0  0  0  0  0  0
  -29.3487  -19.6838   21.6529 H   0  0  0  0  0  0
  -29.4091  -22.8351   21.4763 H   0  0  0  0  0  0
  -29.9717  -23.0492   19.8682 H   0  0  0  0  0  0
  -26.9657  -22.8154   21.5272 H   0  0  0  0  0  0
  -27.6017  -24.0775   19.2208 H   0  0  0  0  0  0
  -27.8360  -21.0396   20.3896 H   0  0  0  0  0  0
  -28.7858  -21.1555   19.1112 H   0  0  0  0  0  0
  1 25  1  0  0  0
  1 30  2  0  0  0
  1 81  1  0  0  0
  2  3  1  0  0  0
  2 25  1  0  0  0
  2 83  1  0  0  0
  2 84  1  0  0  0
  3  4  1  0  0  0
  3 85  1  0  0  0
  3 86  1  0  0  0
  4  5  1  0  0  0
  4 87  1  0  0  0
  4 88  1  0  0  0
  5  6  1  0  0  0
  5 26  1  0  0  0
  5 89  1  0  0  0
  6 25  1  0  0  0
  6 90  1  0  0  0
  6 91  1  0  0  0
  7  8  2  0  0  0
  7 26  1  0  0  0
  7 29  1  0  0  0
  8  9  1  0  0  0
  8 22  1  0  0  0
  9 10  1  0  0  0
  9 27  2  0  0  0
 10 11  2  0  0  0
 10 15  1  0  0  0
 11 12  1  0  0  0
 11 92  1  0  0  0
 12 13  2  0  0  0
 12 93  1  0  0  0
 13 14  1  0  0  0
 13 31  1  0  0  0
 14 15  2  0  0  0
 14 94  1  0  0  0
 15 95  1  0  0  0
 16 17  2  0  0  0
 16 21  1  0  0  0
 16 31  1  0  0  0
 17 18  1  0  0  0
 17 96  1  0  0  0
 18 19  2  0  0  0
 18 97  1  0  0  0
 19 20  1  0  0  0
 19 24  1  0  0  0
 20 21  2  0  0  0
 20 98  1  0  0  0
 21 23  1  0  0  0
 22 28  1  0  0  0
 22 32  2  0  0  0
 26 27  1  0  0  0
 28 99  1  0  0  0
 28100  1  0  0  0
 29101  1  0  0  0
 29102  1  0  0  0
 33 34  1  0  0  0
 33 66  1  0  0  0
 33 70  2  0  0  0
 34 36  1  0  0  0
 34 59  1  0  0  0
 34103  1  0  0  0
 35 44  2  0  0  0
 35 45  1  0  0  0
 35 68  1  0  0  0
 36 56  1  0  0  0
 36104  1  0  0  0
 37 39  1  0  0  0
 37 47  1  0  0  0
 37 66  1  0  0  0
 37105  1  0  0  0
 38 43  2  0  0  0
 38 46  1  0  0  0
 38 47  1  0  0  0
 39 64  1  0  0  0
 39 67  2  0  0  0
 40 52  1  0  0  0
 40 53  2  0  0  0
 40 58  1  0  0  0
 41106  1  0  0  0
 41107  1  0  0  0
 41108  1  0  0  0
 41 48  1  0  0  0
 42 43  1  0  0  0
 42 66  1  0  0  0
 42109  1  0  0  0
 42110  1  0  0  0
 43 44  1  0  0  0
 44111  1  0  0  0
 45 46  2  0  0  0
 45112  1  0  0  0
 46113  1  0  0  0
 47114  1  0  0  0
 47115  1  0  0  0
 48 56  1  0  0  0
 48 65  1  0  0  0
 48116  1  0  0  0
 49 50  1  0  0  0
 49 53  1  0  0  0
 49 64  1  0  0  0
 49117  1  0  0  0
 50 51  1  0  0  0
 50118  1  0  0  0
 50119  1  0  0  0
 51 52  1  0  0  0
 51120  1  0  0  0
 51121  1  0  0  0
 52122  1  0  0  0
 52123  1  0  0  0
 53 54  1  0  0  0
 54 55  2  0  0  0
 54124  1  0  0  0
 55 57  1  0  0  0
 55125  1  0  0  0
 56 69  2  0  0  0
 57 58  2  0  0  0
 57126  1  0  0  0
 58127  1  0  0  0
 59 60  1  0  0  0
 59 61  1  0  0  0
 59 62  1  0  0  0
 60128  1  0  0  0
 60129  1  0  0  0
 60130  1  0  0  0
 61131  1  0  0  0
 61132  1  0  0  0
 61133  1  0  0  0
 62134  1  0  0  0
 62135  1  0  0  0
 62136  1  0  0  0
 63 65  1  0  0  0
 63137  1  0  0  0
 63138  1  0  0  0
 63139  1  0  0  0
 64140  1  0  0  0
 65141  1  0  0  0
 68 80  1  0  0  0
 71 72  1  0  0  0
 71 73  1  0  0  0
 71142  1  0  0  0
 71143  1  0  0  0
 72 74  1  0  0  0
 72144  1  0  0  0
 72145  1  0  0  0
 73 81  1  0  0  0
 73146  1  0  0  0
 73147  1  0  0  0
 74 77  1  0  0  0
 74 81  1  0  0  0
 74148  1  0  0  0
 75149  1  0  0  0
 75150  1  0  0  0
 75151  1  0  0  0
 75 79  1  0  0  0
 76 79  1  0  0  0
 76152  1  0  0  0
 76153  1  0  0  0
 76154  1  0  0  0
 77 82  1  0  0  0
 77155  1  0  0  0
 77156  1  0  0  0
 78 82  1  0  0  0
 78157  1  0  0  0
 78158  1  0  0  0
 78 80  1  0  0  0
 79 80  1  0  0  0
 79159  1  0  0  0
 80160  1  0  0  0
 82161  1  0  0  0
 82162  1  0  0  0
M  CHG  1  82   1
M  ISO  4   1 100  68 101  80 101  81 100
M  END
> <chiral flag>
0

> <version>
0

> <s_m_source_file>
/data/baiqing/PycharmProjects/Reinvent-master-3.2/result/LINK_invent/BTK/process_docking_weight1_custom_sum_contain_oxygen_bond_distance_aromatic_linkinvent_7_9_3/rearranged_h_0114.sdf

> <i_m_source_file_index>
75

> <r_mmod_Potential_Energy-OPLS-2005>
1601.60119628906

> <r_mmod_Stretch_Energy-OPLS-2005>
617.278015136719

> <r_mmod_Bend_Energy-OPLS-2005>
595.752868652344

> <r_mmod_Torsional_Energy-OPLS-2005>
372.304504394531

> <r_mmod_Improper_Torsional_Energy-OPLS-2005>
11.7375965118408

> <r_mmod_Van_der_Waal_Energy-OPLS-2005>
125.400444030762

> <r_mmod_Electrostatic_Energy-OPLS-2005>
-153.900863647461

> <r_mmod_Solvation_Energy-OPLS-2005>
-449.469787597656

> <b_mmod_Minimization_Converged-OPLS-2005>
0

> <r_mmod_RMS_Derivative-OPLS-2005>
2.67214202880859

$$$$
75
                    3D
 Structure written by MMmdl.
163171  0  0  1  0            999 V2000
  -30.6112  -14.8404   20.4352 C   0  0  0  0  0  0
  -30.4262  -12.5177   19.4855 C   0  0  0  0  0  0
  -29.5080  -12.5063   18.2446 C   0  0  0  0  0  0
  -28.0397  -12.3156   18.6665 C   0  0  0  0  0  0
  -27.6313  -13.2422   19.8417 C   0  0  2  0  0  0
  -28.6772  -13.2498   20.9764 C   0  0  0  0  0  0
  -25.2477  -13.8217   20.5734 C   0  0  0  0  0  0
  -24.1775  -13.0445   20.9217 C   0  0  0  0  0  0
  -24.6382  -11.6926   20.8758 C   0  0  0  0  0  0
  -23.9067  -10.4297   21.0410 C   0  0  0  0  0  0
  -24.3618   -9.4209   21.9185 C   0  0  0  0  0  0
  -23.6294   -8.2243   22.0754 C   0  0  0  0  0  0
  -22.4277   -8.0280   21.3543 C   0  0  0  0  0  0
  -21.9912   -9.0253   20.4644 C   0  0  0  0  0  0
  -22.7238  -10.2133   20.3057 C   0  0  0  0  0  0
  -21.6855   -6.0733   22.5275 C   0  0  0  0  0  0
  -21.4013   -6.5639   23.8208 C   0  0  0  0  0  0
  -21.3662   -5.6793   24.9171 C   0  0  0  0  0  0
  -21.6045   -4.3054   24.7221 C   0  0  0  0  0  0
  -21.8819   -3.8146   23.4343 C   0  0  0  0  0  0
  -21.9192   -4.6962   22.3399 C   0  0  0  0  0  0
  -22.7797  -13.5217   21.1876 C   0  0  0  0  0  0
  -22.1662   -4.2147   21.0976 F   0  0  0  0  0  0
  -21.5630   -3.4540   25.7736 F   0  0  0  0  0  0
  -29.9638  -13.6162   20.3745 N   0  0  0  0  0  0
  -26.2896  -12.9436   20.3293 N   0  0  0  0  0  0
  -25.9318  -11.6569   20.5772 N   0  0  0  0  0  0
  -22.0456  -12.8201   22.0437 N   0  0  0  0  0  0
  -25.4193  -15.1943   20.4192 N   0  0  0  0  0  0
  -31.8118  -14.8727   20.1444 O   0  0  0  0  0  0
  -21.6643   -6.8876   21.4237 O   0  0  0  0  0  0
  -22.3478  -14.5521   20.6724 O   0  0  0  0  0  0
  -24.6390  -31.8486   23.1930 C   0  0  0  0  0  0
  -25.9183  -32.4718   23.8295 C   0  0  1  0  0  0
  -27.2139  -27.1898   20.1334 C   0  0  0  0  0  0
  -25.5951  -33.8524   24.2218 N   0  0  0  0  0  0
  -23.4389  -30.4716   21.5380 C   0  0  2  0  0  0
  -24.8847  -28.9096   20.1086 C   0  0  0  0  0  0
  -22.7546  -29.4574   22.4878 C   0  0  0  0  0  0
  -18.0305  -28.1395   22.8486 C   0  0  0  0  0  0
  -24.1492  -36.7259   23.2644 C   0  0  0  0  0  0
  -25.9921  -30.7394   21.3831 C   0  0  0  0  0  0
  -26.0623  -29.3569   20.7220 C   0  0  0  0  0  0
  -27.2287  -28.5128   20.7183 C   0  0  0  0  0  0
  -26.0092  -26.8314   19.4868 C   0  0  0  0  0  0
  -24.8685  -27.6580   19.4780 C   0  0  0  0  0  0
  -23.6597  -29.8061   20.1550 C   0  0  0  0  0  0
  -25.4122  -36.3043   24.0324 C   0  0  1  0  0  0
  -20.5916  -28.3709   23.1248 C   0  0  2  0  0  0
  -20.6795  -26.9415   22.5407 C   0  0  0  0  0  0
  -19.5763  -26.6382   21.5218 C   0  0  0  0  0  0
  -18.1941  -26.7938   22.1623 C   0  0  0  0  0  0
  -19.1561  -28.8871   23.2860 C   0  0  0  0  0  0
  -18.9476  -30.1473   23.8876 C   0  0  0  0  0  0
  -17.6475  -30.6591   24.0562 C   0  0  0  0  0  0
  -25.9067  -34.9420   23.5076 C   0  0  0  0  0  0
  -16.5363  -29.9085   23.6336 C   0  0  0  0  0  0
  -16.7288  -28.6508   23.0354 C   0  0  0  0  0  0
  -26.4520  -31.6567   25.0716 C   0  0  0  0  0  0
  -25.3722  -31.3744   26.1424 C   0  0  0  0  0  0
  -27.0385  -30.2974   24.6264 C   0  0  0  0  0  0
  -27.6060  -32.4327   25.7491 C   0  0  0  0  0  0
  -27.5574  -37.1787   24.8466 C   0  0  0  0  0  0
  -21.4243  -29.3044   22.3625 N   0  0  0  0  0  0
  -26.4283  -37.3754   23.9414 N   0  0  0  0  0  0
  -24.7101  -31.0395   22.0932 N   0  0  0  0  0  0
  -23.4219  -28.8113   23.2997 O   0  0  0  0  0  0
  -28.2807  -26.2368   20.1932 O   0  0  0  0  0  0
  -26.5646  -34.8913   22.4647 O   0  0  0  0  0  0
  -23.5520  -32.1326   23.7186 O   0  0  0  0  0  0
  -29.8383  -20.7410   20.3475 C   0  0  0  0  0  0
  -28.7507  -18.3833   20.0364 C   0  0  0  0  0  0
  -29.3279  -16.9275   19.6167 C   0  0  0  0  0  0
  -30.3974  -17.0127   21.7218 C   0  0  0  0  0  0
  -30.8085  -18.5128   21.2857 C   0  0  2  0  0  0
  -30.5191  -19.5380   23.6519 C   0  0  0  0  0  0
  -32.7515  -18.5229   23.0146 C   0  0  0  0  0  0
  -28.6756  -21.8728   20.2452 C   0  0  0  0  0  0
  -29.0589  -23.4966   20.3134 C   0  0  0  0  0  0
  -27.9914  -24.7337   20.0520 C   0  0  0  0  0  0
  -31.4905  -19.2387   22.4956 C   0  0  0  0  0  0
  -29.7170  -19.3523   20.6417 N   0  0  0  0  0  0
  -29.9196  -16.0500   20.6853 N   0  0  0  0  0  0
  -30.9706  -21.2053   20.1976 O   0  0  0  0  0  0
  -31.4654  -12.6406   19.1764 H   0  0  0  0  0  0
  -30.3840  -11.5602   20.0073 H   0  0  0  0  0  0
  -29.8050  -11.7101   17.5603 H   0  0  0  0  0  0
  -29.6170  -13.4422   17.6943 H   0  0  0  0  0  0
  -27.9192  -11.2730   18.9634 H   0  0  0  0  0  0
  -27.3753  -12.4674   17.8151 H   0  0  0  0  0  0
  -27.6010  -14.2476   19.4241 H   0  0  0  0  0  0
  -28.7386  -12.2757   21.4639 H   0  0  0  0  0  0
  -28.3980  -13.9695   21.7477 H   0  0  0  0  0  0
  -25.2760   -9.5686   22.4763 H   0  0  0  0  0  0
  -24.0001   -7.4633   22.7475 H   0  0  0  0  0  0
  -21.0843   -8.8764   19.8952 H   0  0  0  0  0  0
  -22.3688  -10.9670   19.6168 H   0  0  0  0  0  0
  -21.2006   -7.6148   23.9708 H   0  0  0  0  0  0
  -21.1486   -6.0526   25.9073 H   0  0  0  0  0  0
  -22.0598   -2.7609   23.2842 H   0  0  0  0  0  0
  -22.4084  -11.9859   22.4805 H   0  0  0  0  0  0
  -21.1076  -13.1219   22.2668 H   0  0  0  0  0  0
  -24.6598  -15.8545   20.5435 H   0  0  0  0  0  0
  -26.2856  -15.6342   20.1364 H   0  0  0  0  0  0
  -26.7247  -32.5340   23.1026 H   0  0  0  0  0  0
  -25.0097  -33.9645   25.0365 H   0  0  0  0  0  0
  -22.7395  -31.2967   21.3893 H   0  0  0  0  0  0
  -23.3762  -35.9582   23.3294 H   0  0  0  0  0  0
  -24.3577  -36.8896   22.2059 H   0  0  0  0  0  0
  -23.7238  -37.6454   23.6679 H   0  0  0  0  0  0
  -26.1453  -31.4990   20.6153 H   0  0  0  0  0  0
  -26.8647  -30.7833   22.0232 H   0  0  0  0  0  0
  -28.1274  -28.8503   21.2154 H   0  0  0  0  0  0
  -25.9094  -25.8773   18.9937 H   0  0  0  0  0  0
  -23.9686  -27.3106   18.9891 H   0  0  0  0  0  0
  -23.7908  -30.5832   19.4006 H   0  0  0  0  0  0
  -22.7755  -29.2460   19.8451 H   0  0  0  0  0  0
  -25.1308  -36.1868   25.0814 H   0  0  0  0  0  0
  -21.0012  -28.3292   24.1368 H   0  0  0  0  0  0
  -20.5698  -26.2318   23.3623 H   0  0  0  0  0  0
  -21.6658  -26.7434   22.1194 H   0  0  0  0  0  0
  -19.6924  -25.6292   21.1252 H   0  0  0  0  0  0
  -19.6704  -27.3195   20.6752 H   0  0  0  0  0  0
  -17.4217  -26.6693   21.4019 H   0  0  0  0  0  0
  -18.0323  -26.0085   22.9019 H   0  0  0  0  0  0
  -19.7953  -30.7299   24.2227 H   0  0  0  0  0  0
  -17.5025  -31.6266   24.5172 H   0  0  0  0  0  0
  -15.5364  -30.2978   23.7682 H   0  0  0  0  0  0
  -15.8687  -28.0821   22.7072 H   0  0  0  0  0  0
  -24.5922  -30.7056   25.7758 H   0  0  0  0  0  0
  -24.8886  -32.2924   26.4777 H   0  0  0  0  0  0
  -25.8031  -30.8980   27.0241 H   0  0  0  0  0  0
  -26.2990  -29.6702   24.1275 H   0  0  0  0  0  0
  -27.4026  -29.7258   25.4810 H   0  0  0  0  0  0
  -27.8886  -30.4230   23.9554 H   0  0  0  0  0  0
  -27.2660  -33.3653   26.2007 H   0  0  0  0  0  0
  -28.3904  -32.6847   25.0337 H   0  0  0  0  0  0
  -28.0694  -31.8491   26.5456 H   0  0  0  0  0  0
  -28.2590  -38.0087   24.7512 H   0  0  0  0  0  0
  -28.1074  -36.2621   24.6290 H   0  0  0  0  0  0
  -27.2294  -37.1423   25.8868 H   0  0  0  0  0  0
  -20.9439  -29.8753   21.6812 H   0  0  0  0  0  0
  -26.0153  -38.2822   24.1421 H   0  0  0  0  0  0
  -27.9255  -18.2562   20.7383 H   0  0  0  0  0  0
  -28.3137  -18.8477   19.1506 H   0  0  0  0  0  0
  -30.0833  -17.0613   18.8399 H   0  0  0  0  0  0
  -28.5250  -16.3663   19.1399 H   0  0  0  0  0  0
  -29.6122  -17.0664   22.4762 H   0  0  0  0  0  0
  -31.2359  -16.5374   22.2277 H   0  0  0  0  0  0
  -31.5768  -18.4137   20.5160 H   0  0  0  0  0  0
  -29.6540  -20.1099   23.3160 H   0  0  0  0  0  0
  -31.0116  -20.1238   24.4288 H   0  0  0  0  0  0
  -30.1522  -18.6248   24.1204 H   0  0  0  0  0  0
  -33.4024  -18.2174   22.1940 H   0  0  0  0  0  0
  -32.5181  -17.6383   23.6068 H   0  0  0  0  0  0
  -33.3335  -19.1845   23.6572 H   0  0  0  0  0  0
  -27.9502  -21.6554   21.0292 H   0  0  0  0  0  0
  -28.1525  -21.6880   19.3070 H   0  0  0  0  0  0
  -29.8808  -23.6514   19.6142 H   0  0  0  0  0  0
  -29.5002  -23.6666   21.2950 H   0  0  0  0  0  0
  -27.1285  -24.5295   20.6869 H   0  0  0  0  0  0
  -27.6416  -24.5881   19.0301 H   0  0  0  0  0  0
  -31.8739  -20.1989   22.1595 H   0  0  0  0  0  0
  1 25  1  0  0  0
  1 30  2  0  0  0
  1 83  1  0  0  0
  2  3  1  0  0  0
  2 25  1  0  0  0
  2 85  1  0  0  0
  2 86  1  0  0  0
  3  4  1  0  0  0
  3 87  1  0  0  0
  3 88  1  0  0  0
  4  5  1  0  0  0
  4 89  1  0  0  0
  4 90  1  0  0  0
  5  6  1  0  0  0
  5 26  1  0  0  0
  5 91  1  0  0  0
  6 25  1  0  0  0
  6 92  1  0  0  0
  6 93  1  0  0  0
  7  8  2  0  0  0
  7 26  1  0  0  0
  7 29  1  0  0  0
  8  9  1  0  0  0
  8 22  1  0  0  0
  9 10  1  0  0  0
  9 27  2  0  0  0
 10 11  2  0  0  0
 10 15  1  0  0  0
 11 12  1  0  0  0
 11 94  1  0  0  0
 12 13  2  0  0  0
 12 95  1  0  0  0
 13 14  1  0  0  0
 13 31  1  0  0  0
 14 15  2  0  0  0
 14 96  1  0  0  0
 15 97  1  0  0  0
 16 17  2  0  0  0
 16 21  1  0  0  0
 16 31  1  0  0  0
 17 18  1  0  0  0
 17 98  1  0  0  0
 18 19  2  0  0  0
 18 99  1  0  0  0
 19 20  1  0  0  0
 19 24  1  0  0  0
 20 21  2  0  0  0
 20100  1  0  0  0
 21 23  1  0  0  0
 22 28  1  0  0  0
 22 32  2  0  0  0
 26 27  1  0  0  0
 28101  1  0  0  0
 28102  1  0  0  0
 29103  1  0  0  0
 29104  1  0  0  0
 33 34  1  0  0  0
 33 66  1  0  0  0
 33 70  2  0  0  0
 34 36  1  0  0  0
 34 59  1  0  0  0
 34105  1  0  0  0
 35 44  2  0  0  0
 35 45  1  0  0  0
 35 68  1  0  0  0
 36 56  1  0  0  0
 36106  1  0  0  0
 37 39  1  0  0  0
 37 47  1  0  0  0
 37 66  1  0  0  0
 37107  1  0  0  0
 38 43  2  0  0  0
 38 46  1  0  0  0
 38 47  1  0  0  0
 39 64  1  0  0  0
 39 67  2  0  0  0
 40 52  1  0  0  0
 40 53  2  0  0  0
 40 58  1  0  0  0
 41108  1  0  0  0
 41109  1  0  0  0
 41110  1  0  0  0
 41 48  1  0  0  0
 42 43  1  0  0  0
 42 66  1  0  0  0
 42111  1  0  0  0
 42112  1  0  0  0
 43 44  1  0  0  0
 44113  1  0  0  0
 45 46  2  0  0  0
 45114  1  0  0  0
 46115  1  0  0  0
 47116  1  0  0  0
 47117  1  0  0  0
 48 56  1  0  0  0
 48 65  1  0  0  0
 48118  1  0  0  0
 49 50  1  0  0  0
 49 53  1  0  0  0
 49 64  1  0  0  0
 49119  1  0  0  0
 50 51  1  0  0  0
 50120  1  0  0  0
 50121  1  0  0  0
 51 52  1  0  0  0
 51122  1  0  0  0
 51123  1  0  0  0
 52124  1  0  0  0
 52125  1  0  0  0
 53 54  1  0  0  0
 54 55  2  0  0  0
 54126  1  0  0  0
 55 57  1  0  0  0
 55127  1  0  0  0
 56 69  2  0  0  0
 57 58  2  0  0  0
 57128  1  0  0  0
 58129  1  0  0  0
 59 60  1  0  0  0
 59 61  1  0  0  0
 59 62  1  0  0  0
 60130  1  0  0  0
 60131  1  0  0  0
 60132  1  0  0  0
 61133  1  0  0  0
 61134  1  0  0  0
 61135  1  0  0  0
 62136  1  0  0  0
 62137  1  0  0  0
 62138  1  0  0  0
 63 65  1  0  0  0
 63139  1  0  0  0
 63140  1  0  0  0
 63141  1  0  0  0
 64142  1  0  0  0
 65143  1  0  0  0
 68 80  1  0  0  0
 71 78  1  0  0  0
 71 82  1  0  0  0
 71 84  2  0  0  0
 72 73  1  0  0  0
 72 82  1  0  0  0
 72144  1  0  0  0
 72145  1  0  0  0
 73 83  1  0  0  0
 73146  1  0  0  0
 73147  1  0  0  0
 74 83  1  0  0  0
 74148  1  0  0  0
 74149  1  0  0  0
 74 75  1  0  0  0
 75 81  1  0  0  0
 75 82  1  0  0  0
 75150  1  0  0  0
 76151  1  0  0  0
 76152  1  0  0  0
 76153  1  0  0  0
 76 81  1  0  0  0
 77 81  1  0  0  0
 77154  1  0  0  0
 77155  1  0  0  0
 77156  1  0  0  0
 78 79  1  0  0  0
 78157  1  0  0  0
 78158  1  0  0  0
 79 80  1  0  0  0
 79159  1  0  0  0
 79160  1  0  0  0
 80161  1  0  0  0
 80162  1  0  0  0
 81163  1  0  0  0
M  ISO  4   1 100  68 101  80 101  83 100
M  END
> <chiral flag>
0

> <version>
0

> <s_m_source_file>
/data/baiqing/PycharmProjects/Reinvent-master-3.2/result/LINK_invent/BTK/process_docking_weight1_custom_sum_contain_oxygen_bond_distance_aromatic_linkinvent_7_9_3/rearranged_h_0114.sdf

> <i_m_source_file_index>
76

> <r_mmod_Potential_Energy-OPLS-2005>
602.921081542969

> <r_mmod_Stretch_Energy-OPLS-2005>
195.376281738281

> <r_mmod_Bend_Energy-OPLS-2005>
233.857849121094

> <r_mmod_Torsional_Energy-OPLS-2005>
425.847778320312

> <r_mmod_Improper_Torsional_Energy-OPLS-2005>
7.38357734680176

> <r_mmod_Van_der_Waal_Energy-OPLS-2005>
135.144775390625

> <r_mmod_Electrostatic_Energy-OPLS-2005>
-316.067749023438

> <r_mmod_Solvation_Energy-OPLS-2005>
-214.222808837891

> <b_mmod_Minimization_Converged-OPLS-2005>
0

> <r_mmod_RMS_Derivative-OPLS-2005>
0.951842904090881

$$$$
76
                    3D
 Structure written by MMmdl.
162170  0  0  1  0            999 V2000
  -30.5854  -14.8301   20.3916 C   0  0  0  0  0  0
  -30.4246  -12.4922   19.4821 C   0  0  0  0  0  0
  -29.5027  -12.4933   18.2408 C   0  0  0  0  0  0
  -28.0358  -12.3103   18.6754 C   0  0  0  0  0  0
  -27.6356  -13.2384   19.8512 C   0  0  2  0  0  0
  -28.6890  -13.2140   20.9823 C   0  0  0  0  0  0
  -25.2477  -13.8224   20.5787 C   0  0  0  0  0  0
  -24.1791  -13.0421   20.9302 C   0  0  0  0  0  0
  -24.6401  -11.6910   20.8828 C   0  0  0  0  0  0
  -23.9091  -10.4281   21.0437 C   0  0  0  0  0  0
  -24.3622   -9.4177   21.9212 C   0  0  0  0  0  0
  -23.6302   -8.2220   22.0741 C   0  0  0  0  0  0
  -22.4280   -8.0267   21.3525 C   0  0  0  0  0  0
  -21.9935   -9.0264   20.4642 C   0  0  0  0  0  0
  -22.7275  -10.2125   20.3065 C   0  0  0  0  0  0
  -21.6849   -6.0731   22.5290 C   0  0  0  0  0  0
  -21.4019   -6.5641   23.8213 C   0  0  0  0  0  0
  -21.3664   -5.6781   24.9192 C   0  0  0  0  0  0
  -21.6030   -4.3050   24.7216 C   0  0  0  0  0  0
  -21.8825   -3.8132   23.4355 C   0  0  0  0  0  0
  -21.9187   -4.6972   22.3392 C   0  0  0  0  0  0
  -22.7819  -13.5174   21.1950 C   0  0  0  0  0  0
  -22.1653   -4.2141   21.0986 F   0  0  0  0  0  0
  -21.5616   -3.4527   25.7739 F   0  0  0  0  0  0
  -29.9709  -13.5876   20.3754 N   0  0  0  0  0  0
  -26.2910  -12.9424   20.3354 N   0  0  0  0  0  0
  -25.9324  -11.6559   20.5848 N   0  0  0  0  0  0
  -22.0472  -12.8134   22.0523 N   0  0  0  0  0  0
  -25.4075  -15.1949   20.4188 N   0  0  0  0  0  0
  -31.7844  -14.8983   20.1163 O   0  0  0  0  0  0
  -21.6624   -6.8879   21.4234 O   0  0  0  0  0  0
  -22.3503  -14.5491   20.6827 O   0  0  0  0  0  0
  -24.6316  -31.8479   23.1895 C   0  0  0  0  0  0
  -25.9159  -32.4693   23.8238 C   0  0  1  0  0  0
  -27.2355  -27.2236   20.1227 C   0  0  0  0  0  0
  -25.5944  -33.8511   24.2162 N   0  0  0  0  0  0
  -23.4303  -30.4673   21.5348 C   0  0  2  0  0  0
  -24.8804  -28.9061   20.1040 C   0  0  0  0  0  0
  -22.7508  -29.4563   22.4892 C   0  0  0  0  0  0
  -18.0273  -28.1424   22.8440 C   0  0  0  0  0  0
  -24.1485  -36.7282   23.2640 C   0  0  0  0  0  0
  -25.9789  -30.7562   21.3721 C   0  0  0  0  0  0
  -26.0554  -29.3766   20.7046 C   0  0  0  0  0  0
  -27.2351  -28.5543   20.6873 C   0  0  0  0  0  0
  -26.0286  -26.8262   19.5093 C   0  0  0  0  0  0
  -24.8793  -27.6425   19.4883 C   0  0  0  0  0  0
  -23.6519  -29.7999   20.1510 C   0  0  0  0  0  0
  -25.4123  -36.3058   24.0309 C   0  0  1  0  0  0
  -20.5873  -28.3709   23.1274 C   0  0  2  0  0  0
  -20.6771  -26.9426   22.5414 C   0  0  0  0  0  0
  -19.5754  -26.6398   21.5208 C   0  0  0  0  0  0
  -18.1924  -26.7958   22.1609 C   0  0  0  0  0  0
  -19.1521  -28.8890   23.2839 C   0  0  0  0  0  0
  -18.9463  -30.1506   23.8817 C   0  0  0  0  0  0
  -17.6447  -30.6593   24.0586 C   0  0  0  0  0  0
  -25.9082  -34.9430   23.5042 C   0  0  0  0  0  0
  -16.5334  -29.9098   23.6365 C   0  0  0  0  0  0
  -16.7259  -28.6567   23.0283 C   0  0  0  0  0  0
  -26.4543  -31.6511   25.0625 C   0  0  0  0  0  0
  -25.3764  -31.3643   26.1313 C   0  0  0  0  0  0
  -27.0388  -30.2884   24.6210 C   0  0  0  0  0  0
  -27.6079  -32.4264   25.7399 C   0  0  0  0  0  0
  -27.5571  -37.1797   24.8466 C   0  0  0  0  0  0
  -21.4207  -29.3028   22.3672 N   0  0  0  0  0  0
  -26.4273  -37.3781   23.9422 N   0  0  0  0  0  0
  -24.6996  -31.0414   22.0892 N   0  0  0  0  0  0
  -23.4196  -28.8093   23.3021 O   0  0  0  0  0  0
  -28.3580  -26.3442   20.1057 O   0  0  0  0  0  0
  -26.5646  -34.8940   22.4608 O   0  0  0  0  0  0
  -23.5482  -32.1304   23.7189 O   0  0  0  0  0  0
  -29.4246  -22.5789   21.1679 C   0  0  0  0  0  0
  -28.3950  -22.4270   18.8970 C   0  0  0  0  0  0
  -29.6043  -24.0958   20.6905 C   0  0  0  0  0  0
  -27.7138  -23.8789   19.1348 C   0  0  0  0  0  0
  -28.8100  -21.5292   20.1425 C   0  0  1  0  0  0
  -28.2708  -24.8246   20.2762 C   0  0  2  0  0  0
  -31.5224  -20.1236   18.1586 C   0  0  0  0  0  0
  -30.1567  -17.4543   20.0153 C   0  0  0  0  0  0
  -31.0756  -20.4849   19.5857 C   0  0  0  0  0  0
  -29.3315  -18.8222   20.4806 C   0  0  0  0  0  0
  -29.8092  -16.0005   20.4599 N   0  0  0  0  0  0
  -29.6231  -20.2190   19.8034 N   0  3  1  0  0  0
  -31.4686  -12.5995   19.1880 H   0  0  0  0  0  0
  -30.3589  -11.5288   19.9901 H   0  0  0  0  0  0
  -29.7863  -11.6932   17.5541 H   0  0  0  0  0  0
  -29.6140  -13.4286   17.6861 H   0  0  0  0  0  0
  -27.9371  -11.2734   18.9960 H   0  0  0  0  0  0
  -27.3544  -12.4303   17.8329 H   0  0  0  0  0  0
  -27.6158  -14.2493   19.4434 H   0  0  0  0  0  0
  -28.7560  -12.2219   21.4352 H   0  0  0  0  0  0
  -28.4308  -13.9040   21.7873 H   0  0  0  0  0  0
  -25.2738   -9.5650   22.4826 H   0  0  0  0  0  0
  -23.9997   -7.4592   22.7453 H   0  0  0  0  0  0
  -21.0845   -8.8805   19.8964 H   0  0  0  0  0  0
  -22.3741  -10.9684   19.6184 H   0  0  0  0  0  0
  -21.2037   -7.6147   23.9729 H   0  0  0  0  0  0
  -21.1468   -6.0509   25.9087 H   0  0  0  0  0  0
  -22.0600   -2.7597   23.2841 H   0  0  0  0  0  0
  -22.4034  -11.9705   22.4767 H   0  0  0  0  0  0
  -21.1114  -13.1173   22.2830 H   0  0  0  0  0  0
  -24.6231  -15.8298   20.5305 H   0  0  0  0  0  0
  -26.2323  -15.6442   20.0439 H   0  0  0  0  0  0
  -26.7185  -32.5338   23.0962 H   0  0  0  0  0  0
  -25.0111  -33.9633   25.0310 H   0  0  0  0  0  0
  -22.7245  -31.2878   21.3880 H   0  0  0  0  0  0
  -23.3756  -35.9610   23.3287 H   0  0  0  0  0  0
  -24.3585  -36.8911   22.2059 H   0  0  0  0  0  0
  -23.7223  -37.6468   23.6679 H   0  0  0  0  0  0
  -26.1193  -31.5351   20.6213 H   0  0  0  0  0  0
  -26.8496  -30.7922   22.0169 H   0  0  0  0  0  0
  -28.1426  -28.9350   21.1325 H   0  0  0  0  0  0
  -25.9570  -25.8660   19.0229 H   0  0  0  0  0  0
  -23.9940  -27.2751   18.9898 H   0  0  0  0  0  0
  -23.7764  -30.5771   19.3961 H   0  0  0  0  0  0
  -22.7698  -29.2377   19.8404 H   0  0  0  0  0  0
  -25.1328  -36.1885   25.0802 H   0  0  0  0  0  0
  -20.9909  -28.3276   24.1422 H   0  0  0  0  0  0
  -20.5671  -26.2312   23.3608 H   0  0  0  0  0  0
  -21.6652  -26.7477   22.1205 H   0  0  0  0  0  0
  -19.6910  -25.6309   21.1237 H   0  0  0  0  0  0
  -19.6696  -27.3217   20.6739 H   0  0  0  0  0  0
  -17.4198  -26.6640   21.4018 H   0  0  0  0  0  0
  -18.0341  -26.0136   22.9043 H   0  0  0  0  0  0
  -19.7953  -30.7377   24.2065 H   0  0  0  0  0  0
  -17.5023  -31.6245   24.5246 H   0  0  0  0  0  0
  -15.5337  -30.2977   23.7781 H   0  0  0  0  0  0
  -15.8661  -28.0950   22.6889 H   0  0  0  0  0  0
  -24.6025  -30.6910   25.7624 H   0  0  0  0  0  0
  -24.8882  -32.2777   26.4700 H   0  0  0  0  0  0
  -25.8103  -30.8845   27.0092 H   0  0  0  0  0  0
  -26.2979  -29.6565   24.1291 H   0  0  0  0  0  0
  -27.4017  -29.7257   25.4827 H   0  0  0  0  0  0
  -27.8909  -30.4045   23.9505 H   0  0  0  0  0  0
  -27.2684  -33.3611   26.1892 H   0  0  0  0  0  0
  -28.3941  -32.6706   25.0236 H   0  0  0  0  0  0
  -28.0687  -31.8409   26.5361 H   0  0  0  0  0  0
  -28.2588  -38.0091   24.7549 H   0  0  0  0  0  0
  -28.1043  -36.2631   24.6255 H   0  0  0  0  0  0
  -27.2295  -37.1428   25.8861 H   0  0  0  0  0  0
  -20.9351  -29.8796   21.6927 H   0  0  0  0  0  0
  -26.0133  -38.2850   24.1418 H   0  0  0  0  0  0
  -28.7298  -22.6452   22.0018 H   0  0  0  0  0  0
  -30.3393  -22.1996   21.6244 H   0  0  0  0  0  0
  -29.3025  -22.5896   18.3138 H   0  0  0  0  0  0
  -27.7579  -21.8432   18.2288 H   0  0  0  0  0  0
  -30.3014  -24.1133   19.8491 H   0  0  0  0  0  0
  -30.1078  -24.6651   21.4717 H   0  0  0  0  0  0
  -26.6464  -23.7480   19.3152 H   0  0  0  0  0  0
  -27.7582  -24.4256   18.1911 H   0  0  0  0  0  0
  -27.8717  -21.1807   20.5742 H   0  0  0  0  0  0
  -27.6101  -24.6897   21.1331 H   0  0  0  0  0  0
  -32.5686  -20.3798   17.9902 H   0  0  0  0  0  0
  -30.9510  -20.6659   17.4014 H   0  0  0  0  0  0
  -31.4386  -19.0512   17.9840 H   0  0  0  0  0  0
  -31.2134  -17.5996   20.2429 H   0  0  0  0  0  0
  -30.0986  -17.4220   18.9285 H   0  0  0  0  0  0
  -31.3298  -21.5312   19.7514 H   0  0  0  0  0  0
  -31.6668  -19.9334   20.3136 H   0  0  0  0  0  0
  -29.4553  -18.9277   21.5586 H   0  0  0  0  0  0
  -28.2677  -18.6207   20.3411 H   0  0  0  0  0  0
  -28.8267  -15.8369   20.6239 H   0  0  0  0  0  0
  -29.2957  -20.0394   18.8657 H   0  0  0  0  0  0
  1 25  1  0  0  0
  1 30  2  0  0  0
  1 81  1  0  0  0
  2  3  1  0  0  0
  2 25  1  0  0  0
  2 83  1  0  0  0
  2 84  1  0  0  0
  3  4  1  0  0  0
  3 85  1  0  0  0
  3 86  1  0  0  0
  4  5  1  0  0  0
  4 87  1  0  0  0
  4 88  1  0  0  0
  5  6  1  0  0  0
  5 26  1  0  0  0
  5 89  1  0  0  0
  6 25  1  0  0  0
  6 90  1  0  0  0
  6 91  1  0  0  0
  7  8  2  0  0  0
  7 26  1  0  0  0
  7 29  1  0  0  0
  8  9  1  0  0  0
  8 22  1  0  0  0
  9 10  1  0  0  0
  9 27  2  0  0  0
 10 11  2  0  0  0
 10 15  1  0  0  0
 11 12  1  0  0  0
 11 92  1  0  0  0
 12 13  2  0  0  0
 12 93  1  0  0  0
 13 14  1  0  0  0
 13 31  1  0  0  0
 14 15  2  0  0  0
 14 94  1  0  0  0
 15 95  1  0  0  0
 16 17  2  0  0  0
 16 21  1  0  0  0
 16 31  1  0  0  0
 17 18  1  0  0  0
 17 96  1  0  0  0
 18 19  2  0  0  0
 18 97  1  0  0  0
 19 20  1  0  0  0
 19 24  1  0  0  0
 20 21  2  0  0  0
 20 98  1  0  0  0
 21 23  1  0  0  0
 22 28  1  0  0  0
 22 32  2  0  0  0
 26 27  1  0  0  0
 28 99  1  0  0  0
 28100  1  0  0  0
 29101  1  0  0  0
 29102  1  0  0  0
 33 34  1  0  0  0
 33 66  1  0  0  0
 33 70  2  0  0  0
 34 36  1  0  0  0
 34 59  1  0  0  0
 34103  1  0  0  0
 35 44  2  0  0  0
 35 45  1  0  0  0
 35 68  1  0  0  0
 36 56  1  0  0  0
 36104  1  0  0  0
 37 39  1  0  0  0
 37 47  1  0  0  0
 37 66  1  0  0  0
 37105  1  0  0  0
 38 43  2  0  0  0
 38 46  1  0  0  0
 38 47  1  0  0  0
 39 64  1  0  0  0
 39 67  2  0  0  0
 40 52  1  0  0  0
 40 53  2  0  0  0
 40 58  1  0  0  0
 41106  1  0  0  0
 41107  1  0  0  0
 41108  1  0  0  0
 41 48  1  0  0  0
 42 43  1  0  0  0
 42 66  1  0  0  0
 42109  1  0  0  0
 42110  1  0  0  0
 43 44  1  0  0  0
 44111  1  0  0  0
 45 46  2  0  0  0
 45112  1  0  0  0
 46113  1  0  0  0
 47114  1  0  0  0
 47115  1  0  0  0
 48 56  1  0  0  0
 48 65  1  0  0  0
 48116  1  0  0  0
 49 50  1  0  0  0
 49 53  1  0  0  0
 49 64  1  0  0  0
 49117  1  0  0  0
 50 51  1  0  0  0
 50118  1  0  0  0
 50119  1  0  0  0
 51 52  1  0  0  0
 51120  1  0  0  0
 51121  1  0  0  0
 52122  1  0  0  0
 52123  1  0  0  0
 53 54  1  0  0  0
 54 55  2  0  0  0
 54124  1  0  0  0
 55 57  1  0  0  0
 55125  1  0  0  0
 56 69  2  0  0  0
 57 58  2  0  0  0
 57126  1  0  0  0
 58127  1  0  0  0
 59 60  1  0  0  0
 59 61  1  0  0  0
 59 62  1  0  0  0
 60128  1  0  0  0
 60129  1  0  0  0
 60130  1  0  0  0
 61131  1  0  0  0
 61132  1  0  0  0
 61133  1  0  0  0
 62134  1  0  0  0
 62135  1  0  0  0
 62136  1  0  0  0
 63 65  1  0  0  0
 63137  1  0  0  0
 63138  1  0  0  0
 63139  1  0  0  0
 64140  1  0  0  0
 65141  1  0  0  0
 68 76  1  0  0  0
 71 73  1  0  0  0
 71142  1  0  0  0
 71143  1  0  0  0
 71 75  1  0  0  0
 72 74  1  0  0  0
 72 75  1  0  0  0
 72144  1  0  0  0
 72145  1  0  0  0
 73 76  1  0  0  0
 73146  1  0  0  0
 73147  1  0  0  0
 74 76  1  0  0  0
 74148  1  0  0  0
 74149  1  0  0  0
 75 82  1  0  0  0
 75150  1  0  0  0
 76151  1  0  0  0
 77 79  1  0  0  0
 77152  1  0  0  0
 77153  1  0  0  0
 77154  1  0  0  0
 78 80  1  0  0  0
 78 81  1  0  0  0
 78155  1  0  0  0
 78156  1  0  0  0
 79157  1  0  0  0
 79158  1  0  0  0
 79 82  1  0  0  0
 80 82  1  0  0  0
 80159  1  0  0  0
 80160  1  0  0  0
 81161  1  0  0  0
 82162  1  0  0  0
M  CHG  1  82   1
M  ISO  4   1 100  68 101  76 101  81 100
M  END
> <chiral flag>
0

> <version>
0

> <s_m_source_file>
/data/baiqing/PycharmProjects/Reinvent-master-3.2/result/LINK_invent/BTK/process_docking_weight1_custom_sum_contain_oxygen_bond_distance_aromatic_linkinvent_7_9_3/rearranged_h_0114.sdf

> <i_m_source_file_index>
77

> <r_mmod_Potential_Energy-OPLS-2005>
241.071502685547

> <r_mmod_Stretch_Energy-OPLS-2005>
184.500534057617

> <r_mmod_Bend_Energy-OPLS-2005>
236.378723144531

> <r_mmod_Torsional_Energy-OPLS-2005>
284.551177978516

> <r_mmod_Improper_Torsional_Energy-OPLS-2005>
6.57205438613892

> <r_mmod_Van_der_Waal_Energy-OPLS-2005>
122.027587890625

> <r_mmod_Electrostatic_Energy-OPLS-2005>
-250.461837768555

> <r_mmod_Solvation_Energy-OPLS-2005>
-456.240692138672

> <b_mmod_Minimization_Converged-OPLS-2005>
0

> <r_mmod_RMS_Derivative-OPLS-2005>
6.44621610641479

$$$$
77
                    3D
 Structure written by MMmdl.
165173  0  0  1  0            999 V2000
  -30.6169  -14.7533   20.5465 C   0  0  0  0  0  0
  -30.4402  -12.4818   19.4673 C   0  0  0  0  0  0
  -29.5113  -12.5361   18.2314 C   0  0  0  0  0  0
  -28.0339  -12.3511   18.6330 C   0  0  0  0  0  0
  -27.6472  -13.2189   19.8572 C   0  0  2  0  0  0
  -28.6940  -13.0634   20.9805 C   0  0  0  0  0  0
  -25.2484  -13.8154   20.5607 C   0  0  0  0  0  0
  -24.1792  -13.0410   20.9179 C   0  0  0  0  0  0
  -24.6386  -11.6894   20.8727 C   0  0  0  0  0  0
  -23.9062  -10.4276   21.0402 C   0  0  0  0  0  0
  -24.3618   -9.4200   21.9187 C   0  0  0  0  0  0
  -23.6297   -8.2232   22.0751 C   0  0  0  0  0  0
  -22.4272   -8.0274   21.3547 C   0  0  0  0  0  0
  -21.9912   -9.0237   20.4642 C   0  0  0  0  0  0
  -22.7234  -10.2117   20.3052 C   0  0  0  0  0  0
  -21.6848   -6.0727   22.5274 C   0  0  0  0  0  0
  -21.4015   -6.5632   23.8204 C   0  0  0  0  0  0
  -21.3664   -5.6786   24.9165 C   0  0  0  0  0  0
  -21.6052   -4.3051   24.7219 C   0  0  0  0  0  0
  -21.8827   -3.8135   23.4342 C   0  0  0  0  0  0
  -21.9194   -4.6953   22.3398 C   0  0  0  0  0  0
  -22.7825  -13.5197   21.1865 C   0  0  0  0  0  0
  -22.1665   -4.2140   21.0973 F   0  0  0  0  0  0
  -21.5637   -3.4541   25.7736 F   0  0  0  0  0  0
  -29.9882  -13.5148   20.4440 N   0  0  0  0  0  0
  -26.2939  -12.9351   20.3256 N   0  0  0  0  0  0
  -25.9305  -11.6507   20.5717 N   0  0  0  0  0  0
  -22.0491  -12.8166   22.0421 N   0  0  0  0  0  0
  -25.4112  -15.1872   20.3907 N   0  0  0  0  0  0
  -31.7453  -14.8370   20.0504 O   0  0  0  0  0  0
  -21.6643   -6.8871   21.4235 O   0  0  0  0  0  0
  -22.3498  -14.5505   20.6720 O   0  0  0  0  0  0
  -24.6304  -31.8558   23.1984 C   0  0  0  0  0  0
  -25.9129  -32.4756   23.8331 C   0  0  1  0  0  0
  -27.2252  -27.2776   20.1301 C   0  0  0  0  0  0
  -25.5917  -33.8557   24.2252 N   0  0  0  0  0  0
  -23.4268  -30.4783   21.5409 C   0  0  2  0  0  0
  -24.8754  -28.9238   20.1127 C   0  0  0  0  0  0
  -22.7500  -29.4614   22.4912 C   0  0  0  0  0  0
  -18.0298  -28.1386   22.8480 C   0  0  0  0  0  0
  -24.1494  -36.7294   23.2642 C   0  0  0  0  0  0
  -25.9722  -30.7733   21.3760 C   0  0  0  0  0  0
  -26.0472  -29.3971   20.7192 C   0  0  0  0  0  0
  -27.2277  -28.5877   20.7134 C   0  0  0  0  0  0
  -26.0348  -26.8705   19.4917 C   0  0  0  0  0  0
  -24.8736  -27.6677   19.4869 C   0  0  0  0  0  0
  -23.6446  -29.8089   20.1588 C   0  0  0  0  0  0
  -25.4119  -36.3074   24.0328 C   0  0  1  0  0  0
  -20.5900  -28.3700   23.1264 C   0  0  2  0  0  0
  -20.6783  -26.9414   22.5408 C   0  0  0  0  0  0
  -19.5758  -26.6384   21.5209 C   0  0  0  0  0  0
  -18.1939  -26.7929   22.1625 C   0  0  0  0  0  0
  -19.1548  -28.8861   23.2868 C   0  0  0  0  0  0
  -18.9467  -30.1461   23.8888 C   0  0  0  0  0  0
  -17.6465  -30.6582   24.0564 C   0  0  0  0  0  0
  -25.9059  -34.9441   23.5100 C   0  0  0  0  0  0
  -16.5358  -29.9078   23.6329 C   0  0  0  0  0  0
  -16.7284  -28.6498   23.0346 C   0  0  0  0  0  0
  -26.4499  -31.6575   25.0720 C   0  0  0  0  0  0
  -25.3725  -31.3711   26.1440 C   0  0  0  0  0  0
  -27.0353  -30.2996   24.6207 C   0  0  0  0  0  0
  -27.6053  -32.4324   25.7483 C   0  0  0  0  0  0
  -27.5580  -37.1805   24.8463 C   0  0  0  0  0  0
  -21.4209  -29.3042   22.3648 N   0  0  0  0  0  0
  -26.4295  -37.3769   23.9405 N   0  0  0  0  0  0
  -24.6954  -31.0539   22.0946 N   0  0  0  0  0  0
  -23.4203  -28.8162   23.3017 O   0  0  0  0  0  0
  -28.3217  -26.3895   20.1442 O   0  0  0  0  0  0
  -26.5640  -34.8916   22.4678 O   0  0  0  0  0  0
  -23.5455  -32.1371   23.7287 O   0  0  0  0  0  0
  -27.4549  -20.0549   19.2282 C   0  0  0  0  0  0
  -26.8608  -22.7079   19.0717 C   0  0  0  0  0  0
  -28.4169  -20.9424   19.7698 C   0  0  0  0  0  0
  -28.0838  -22.3817   19.7032 C   0  0  0  0  0  0
  -26.2685  -20.5269   18.6551 C   0  0  0  0  0  0
  -25.2616  -19.5718   18.0479 C   0  0  0  0  0  0
  -28.6825  -16.0364   21.8902 C   0  0  0  0  0  0
  -31.0738  -16.4444   22.3625 C   0  0  0  0  0  0
  -28.9010  -23.6755   20.1293 C   0  0  0  0  0  0
  -29.7156  -20.1912   20.2626 C   0  0  0  0  0  0
  -30.0467  -17.4882   20.2806 C   0  0  0  0  0  0
  -28.0969  -24.9969   20.6549 C   0  0  0  0  0  0
  -30.0692  -16.1465   21.2215 C   0  0  0  0  0  0
  -25.9751  -21.8294   18.5754 N   0  0  0  0  0  0
  -29.5325  -18.8062   20.9065 N   0  3  0  0  0  0
  -31.4764  -12.6173   19.1543 H   0  0  0  0  0  0
  -30.4135  -11.4888   19.9185 H   0  0  0  0  0  0
  -29.7983  -11.7721   17.5070 H   0  0  0  0  0  0
  -29.6349  -13.4952   17.7268 H   0  0  0  0  0  0
  -27.8821  -11.2962   18.8650 H   0  0  0  0  0  0
  -27.3804  -12.5737   17.7885 H   0  0  0  0  0  0
  -27.6627  -14.2518   19.5109 H   0  0  0  0  0  0
  -28.7543  -12.0147   21.2758 H   0  0  0  0  0  0
  -28.3929  -13.5524   21.8954 H   0  0  0  0  0  0
  -25.2763   -9.5672   22.4758 H   0  0  0  0  0  0
  -24.0007   -7.4620   22.7463 H   0  0  0  0  0  0
  -21.0848   -8.8749   19.8944 H   0  0  0  0  0  0
  -22.3695  -10.9653   19.6158 H   0  0  0  0  0  0
  -21.2010   -7.6141   23.9704 H   0  0  0  0  0  0
  -21.1483   -6.0517   25.9069 H   0  0  0  0  0  0
  -22.0608   -2.7601   23.2838 H   0  0  0  0  0  0
  -22.4123  -11.9810   22.4763 H   0  0  0  0  0  0
  -21.1129  -13.1193   22.2703 H   0  0  0  0  0  0
  -24.6369  -15.8365   20.4825 H   0  0  0  0  0  0
  -26.2464  -15.6167   20.0176 H   0  0  0  0  0  0
  -26.7203  -32.5410   23.1074 H   0  0  0  0  0  0
  -25.0020  -33.9687   25.0367 H   0  0  0  0  0  0
  -22.7239  -31.3005   21.3944 H   0  0  0  0  0  0
  -23.3751  -35.9631   23.3299 H   0  0  0  0  0  0
  -24.3588  -36.8924   22.2058 H   0  0  0  0  0  0
  -23.7257  -37.6500   23.6671 H   0  0  0  0  0  0
  -26.1132  -31.5345   20.6071 H   0  0  0  0  0  0
  -26.8484  -30.8208   22.0103 H   0  0  0  0  0  0
  -28.1268  -28.9485   21.1920 H   0  0  0  0  0  0
  -25.9925  -25.9126   18.9958 H   0  0  0  0  0  0
  -23.9794  -27.3023   19.0009 H   0  0  0  0  0  0
  -23.7662  -30.5835   19.4002 H   0  0  0  0  0  0
  -22.7635  -29.2401   19.8568 H   0  0  0  0  0  0
  -25.1302  -36.1925   25.0822 H   0  0  0  0  0  0
  -20.9999  -28.3283   24.1384 H   0  0  0  0  0  0
  -20.5682  -26.2312   23.3616 H   0  0  0  0  0  0
  -21.6649  -26.7435   22.1204 H   0  0  0  0  0  0
  -19.6920  -25.6294   21.1238 H   0  0  0  0  0  0
  -19.6692  -27.3196   20.6740 H   0  0  0  0  0  0
  -17.4210  -26.6671   21.4029 H   0  0  0  0  0  0
  -18.0341  -26.0072   22.9024 H   0  0  0  0  0  0
  -19.7943  -30.7279   24.2249 H   0  0  0  0  0  0
  -17.5019  -31.6259   24.5171 H   0  0  0  0  0  0
  -15.5359  -30.2976   23.7657 H   0  0  0  0  0  0
  -15.8685  -28.0819   22.7056 H   0  0  0  0  0  0
  -24.5901  -30.7064   25.7759 H   0  0  0  0  0  0
  -24.8910  -32.2872   26.4875 H   0  0  0  0  0  0
  -25.8041  -30.8877   27.0211 H   0  0  0  0  0  0
  -26.2936  -29.6729   24.1244 H   0  0  0  0  0  0
  -27.4051  -29.7277   25.4725 H   0  0  0  0  0  0
  -27.8804  -30.4275   23.9438 H   0  0  0  0  0  0
  -27.2661  -33.3626   26.2051 H   0  0  0  0  0  0
  -28.3852  -32.6885   25.0300 H   0  0  0  0  0  0
  -28.0736  -31.8461   26.5397 H   0  0  0  0  0  0
  -28.2598  -38.0099   24.7503 H   0  0  0  0  0  0
  -28.1075  -36.2633   24.6294 H   0  0  0  0  0  0
  -27.2298  -37.1461   25.8864 H   0  0  0  0  0  0
  -20.9400  -29.8748   21.6829 H   0  0  0  0  0  0
  -26.0175  -38.2849   24.1383 H   0  0  0  0  0  0
  -27.6261  -18.9892   19.1956 H   0  0  0  0  0  0
  -26.5696  -23.7328   18.9122 H   0  0  0  0  0  0
  -25.1693  -18.6710   18.6539 H   0  0  0  0  0  0
  -25.5748  -19.2805   17.0454 H   0  0  0  0  0  0
  -24.2726  -20.0277   17.9776 H   0  0  0  0  0  0
  -28.3369  -16.9862   22.2922 H   0  0  0  0  0  0
  -28.7021  -15.3810   22.7594 H   0  0  0  0  0  0
  -27.9165  -15.7102   21.1950 H   0  0  0  0  0  0
  -30.7455  -17.2647   23.0009 H   0  0  0  0  0  0
  -32.0593  -16.7094   21.9743 H   0  0  0  0  0  0
  -31.2091  -15.5782   23.0127 H   0  0  0  0  0  0
  -29.4922  -23.9720   19.2625 H   0  0  0  0  0  0
  -29.6299  -23.3847   20.8860 H   0  0  0  0  0  0
  -30.2033  -20.8343   20.9952 H   0  0  0  0  0  0
  -30.4090  -20.1125   19.4254 H   0  0  0  0  0  0
  -29.4453  -17.2834   19.3936 H   0  0  0  0  0  0
  -31.0558  -17.6666   19.9070 H   0  0  0  0  0  0
  -28.3559  -25.0772   21.7111 H   0  0  0  0  0  0
  -27.0314  -24.7843   20.7187 H   0  0  0  0  0  0
  -28.5464  -18.7219   21.0865 H   0  0  0  0  0  0
  -29.9784  -18.8951   21.8036 H   0  0  0  0  0  0
  1 25  1  0  0  0
  1 30  2  0  0  0
  1 83  1  0  0  0
  2  3  1  0  0  0
  2 25  1  0  0  0
  2 86  1  0  0  0
  2 87  1  0  0  0
  3  4  1  0  0  0
  3 88  1  0  0  0
  3 89  1  0  0  0
  4  5  1  0  0  0
  4 90  1  0  0  0
  4 91  1  0  0  0
  5  6  1  0  0  0
  5 26  1  0  0  0
  5 92  1  0  0  0
  6 25  1  0  0  0
  6 93  1  0  0  0
  6 94  1  0  0  0
  7  8  2  0  0  0
  7 26  1  0  0  0
  7 29  1  0  0  0
  8  9  1  0  0  0
  8 22  1  0  0  0
  9 10  1  0  0  0
  9 27  2  0  0  0
 10 11  2  0  0  0
 10 15  1  0  0  0
 11 12  1  0  0  0
 11 95  1  0  0  0
 12 13  2  0  0  0
 12 96  1  0  0  0
 13 14  1  0  0  0
 13 31  1  0  0  0
 14 15  2  0  0  0
 14 97  1  0  0  0
 15 98  1  0  0  0
 16 17  2  0  0  0
 16 21  1  0  0  0
 16 31  1  0  0  0
 17 18  1  0  0  0
 17 99  1  0  0  0
 18 19  2  0  0  0
 18100  1  0  0  0
 19 20  1  0  0  0
 19 24  1  0  0  0
 20 21  2  0  0  0
 20101  1  0  0  0
 21 23  1  0  0  0
 22 28  1  0  0  0
 22 32  2  0  0  0
 26 27  1  0  0  0
 28102  1  0  0  0
 28103  1  0  0  0
 29104  1  0  0  0
 29105  1  0  0  0
 33 34  1  0  0  0
 33 66  1  0  0  0
 33 70  2  0  0  0
 34 36  1  0  0  0
 34 59  1  0  0  0
 34106  1  0  0  0
 35 44  2  0  0  0
 35 45  1  0  0  0
 35 68  1  0  0  0
 36 56  1  0  0  0
 36107  1  0  0  0
 37 39  1  0  0  0
 37 47  1  0  0  0
 37 66  1  0  0  0
 37108  1  0  0  0
 38 43  2  0  0  0
 38 46  1  0  0  0
 38 47  1  0  0  0
 39 64  1  0  0  0
 39 67  2  0  0  0
 40 52  1  0  0  0
 40 53  2  0  0  0
 40 58  1  0  0  0
 41109  1  0  0  0
 41110  1  0  0  0
 41111  1  0  0  0
 41 48  1  0  0  0
 42 43  1  0  0  0
 42 66  1  0  0  0
 42112  1  0  0  0
 42113  1  0  0  0
 43 44  1  0  0  0
 44114  1  0  0  0
 45 46  2  0  0  0
 45115  1  0  0  0
 46116  1  0  0  0
 47117  1  0  0  0
 47118  1  0  0  0
 48 56  1  0  0  0
 48 65  1  0  0  0
 48119  1  0  0  0
 49 50  1  0  0  0
 49 53  1  0  0  0
 49 64  1  0  0  0
 49120  1  0  0  0
 50 51  1  0  0  0
 50121  1  0  0  0
 50122  1  0  0  0
 51 52  1  0  0  0
 51123  1  0  0  0
 51124  1  0  0  0
 52125  1  0  0  0
 52126  1  0  0  0
 53 54  1  0  0  0
 54 55  2  0  0  0
 54127  1  0  0  0
 55 57  1  0  0  0
 55128  1  0  0  0
 56 69  2  0  0  0
 57 58  2  0  0  0
 57129  1  0  0  0
 58130  1  0  0  0
 59 60  1  0  0  0
 59 61  1  0  0  0
 59 62  1  0  0  0
 60131  1  0  0  0
 60132  1  0  0  0
 60133  1  0  0  0
 61134  1  0  0  0
 61135  1  0  0  0
 61136  1  0  0  0
 62137  1  0  0  0
 62138  1  0  0  0
 62139  1  0  0  0
 63 65  1  0  0  0
 63140  1  0  0  0
 63141  1  0  0  0
 63142  1  0  0  0
 64143  1  0  0  0
 65144  1  0  0  0
 68 82  1  0  0  0
 71 73  2  0  0  0
 71 75  1  0  0  0
 71145  1  0  0  0
 72 74  2  0  0  0
 72 84  1  0  0  0
 72146  1  0  0  0
 73 74  1  0  0  0
 73 80  1  0  0  0
 74 79  1  0  0  0
 75 76  1  0  0  0
 75 84  2  0  0  0
 76147  1  0  0  0
 76148  1  0  0  0
 76149  1  0  0  0
 77150  1  0  0  0
 77151  1  0  0  0
 77152  1  0  0  0
 77 83  1  0  0  0
 78 83  1  0  0  0
 78153  1  0  0  0
 78154  1  0  0  0
 78155  1  0  0  0
 79 82  1  0  0  0
 79156  1  0  0  0
 79157  1  0  0  0
 80 85  1  0  0  0
 80158  1  0  0  0
 80159  1  0  0  0
 81 83  1  0  0  0
 81 85  1  0  0  0
 81160  1  0  0  0
 81161  1  0  0  0
 82162  1  0  0  0
 82163  1  0  0  0
 85164  1  0  0  0
 85165  1  0  0  0
M  CHG  1  85   1
M  ISO  4   1 100  68 101  82 101  83 100
M  END
> <chiral flag>
0

> <version>
0

> <s_m_source_file>
/data/baiqing/PycharmProjects/Reinvent-master-3.2/result/LINK_invent/BTK/process_docking_weight1_custom_sum_contain_oxygen_bond_distance_aromatic_linkinvent_7_9_3/rearranged_h_0114.sdf

> <i_m_source_file_index>
78

> <r_mmod_Potential_Energy-OPLS-2005>
-99.4296875

> <r_mmod_Stretch_Energy-OPLS-2005>
146.17936706543

> <r_mmod_Bend_Energy-OPLS-2005>
224.289733886719

> <r_mmod_Torsional_Energy-OPLS-2005>
239.567245483398

> <r_mmod_Improper_Torsional_Energy-OPLS-2005>
2.40850448608398

> <r_mmod_Van_der_Waal_Energy-OPLS-2005>
155.554183959961

> <r_mmod_Electrostatic_Energy-OPLS-2005>
-462.231750488281

> <r_mmod_Solvation_Energy-OPLS-2005>
-479.508270263672

> <b_mmod_Minimization_Converged-OPLS-2005>
0

> <r_mmod_RMS_Derivative-OPLS-2005>
1.40034532546997

$$$$
78
                    3D
 Structure written by MMmdl.
170178  0  0  1  0            999 V2000
  -30.6941  -14.4831   20.3748 C   0  0  0  0  0  0
  -30.4235  -12.2455   19.4487 C   0  0  0  0  0  0
  -29.4990  -12.3419   18.2155 C   0  0  0  0  0  0
  -28.0109  -12.3002   18.6238 C   0  0  0  0  0  0
  -27.6531  -13.1944   19.8457 C   0  0  2  0  0  0
  -28.7047  -13.0717   20.9701 C   0  0  0  0  0  0
  -25.2601  -13.8125   20.5737 C   0  0  0  0  0  0
  -24.1823  -13.0432   20.9173 C   0  0  0  0  0  0
  -24.6363  -11.6893   20.8750 C   0  0  0  0  0  0
  -23.9035  -10.4286   21.0420 C   0  0  0  0  0  0
  -24.3589   -9.4200   21.9191 C   0  0  0  0  0  0
  -23.6270   -8.2233   22.0750 C   0  0  0  0  0  0
  -22.4257   -8.0271   21.3541 C   0  0  0  0  0  0
  -21.9892   -9.0248   20.4646 C   0  0  0  0  0  0
  -22.7211  -10.2129   20.3062 C   0  0  0  0  0  0
  -21.6852   -6.0724   22.5280 C   0  0  0  0  0  0
  -21.4018   -6.5626   23.8213 C   0  0  0  0  0  0
  -21.3663   -5.6781   24.9179 C   0  0  0  0  0  0
  -21.6043   -4.3046   24.7229 C   0  0  0  0  0  0
  -21.8819   -3.8132   23.4355 C   0  0  0  0  0  0
  -21.9191   -4.6950   22.3413 C   0  0  0  0  0  0
  -22.7846  -13.5261   21.1815 C   0  0  0  0  0  0
  -22.1653   -4.2133   21.0994 F   0  0  0  0  0  0
  -21.5629   -3.4532   25.7745 F   0  0  0  0  0  0
  -30.0276  -13.3044   20.3796 N   0  0  0  0  0  0
  -26.2999  -12.9281   20.3311 N   0  0  0  0  0  0
  -25.9288  -11.6461   20.5788 N   0  0  0  0  0  0
  -22.0454  -12.8290   22.0372 N   0  0  0  0  0  0
  -25.4361  -15.1846   20.4309 N   0  0  0  0  0  0
  -31.9207  -14.5696   20.2980 O   0  0  0  0  0  0
  -21.6628   -6.8865   21.4239 O   0  0  0  0  0  0
  -22.3554  -14.5571   20.6647 O   0  0  0  0  0  0
  -24.6073  -31.8731   23.2079 C   0  0  0  0  0  0
  -25.8990  -32.4838   23.8367 C   0  0  1  0  0  0
  -27.2421  -27.4910   20.1070 C   0  0  0  0  0  0
  -25.5857  -33.8626   24.2323 N   0  0  0  0  0  0
  -23.3925  -30.4937   21.5504 C   0  0  2  0  0  0
  -24.8421  -28.9640   20.1108 C   0  0  0  0  0  0
  -22.7374  -29.4680   22.5016 C   0  0  0  0  0  0
  -18.0263  -28.1373   22.8511 C   0  0  0  0  0  0
  -24.1483  -36.7343   23.2641 C   0  0  0  0  0  0
  -25.9132  -30.8616   21.3466 C   0  0  0  0  0  0
  -25.9960  -29.5014   20.6931 C   0  0  0  0  0  0
  -27.2022  -28.7786   20.6745 C   0  0  0  0  0  0
  -26.0814  -26.9537   19.5132 C   0  0  0  0  0  0
  -24.8783  -27.6900   19.5111 C   0  0  0  0  0  0
  -23.5957  -29.8175   20.1662 C   0  0  0  0  0  0
  -25.4111  -36.3131   24.0331 C   0  0  1  0  0  0
  -20.5852  -28.3654   23.1352 C   0  0  2  0  0  0
  -20.6757  -26.9400   22.5436 C   0  0  0  0  0  0
  -19.5737  -26.6397   21.5223 C   0  0  0  0  0  0
  -18.1915  -26.7924   22.1633 C   0  0  0  0  0  0
  -19.1514  -28.8827   23.2933 C   0  0  0  0  0  0
  -18.9451  -30.1440   23.8928 C   0  0  0  0  0  0
  -17.6453  -30.6590   24.0577 C   0  0  0  0  0  0
  -25.9023  -34.9483   23.5137 C   0  0  0  0  0  0
  -16.5345  -29.9100   23.6321 C   0  0  0  0  0  0
  -16.7253  -28.6513   23.0346 C   0  0  0  0  0  0
  -26.4430  -31.6572   25.0657 C   0  0  0  0  0  0
  -25.3716  -31.3673   26.1419 C   0  0  0  0  0  0
  -27.0231  -30.3021   24.5972 C   0  0  0  0  0  0
  -27.6035  -32.4244   25.7410 C   0  0  0  0  0  0
  -27.5596  -37.1822   24.8450 C   0  0  0  0  0  0
  -21.4109  -29.3032   22.3760 N   0  0  0  0  0  0
  -26.4319  -37.3805   23.9383 N   0  0  0  0  0  0
  -24.6565  -31.0881   22.0946 N   0  0  0  0  0  0
  -23.4186  -28.8237   23.3042 O   0  0  0  0  0  0
  -28.3976  -26.7548   20.1626 O   0  0  0  0  0  0
  -26.5602  -34.8916   22.4705 O   0  0  0  0  0  0
  -23.5285  -32.1447   23.7514 O   0  0  0  0  0  0
  -28.7372  -18.9406   20.5006 C   0  0  0  0  0  0
  -30.3762  -17.0843   21.6691 C   0  0  0  0  0  0
  -28.7297  -17.6412   19.9773 C   0  0  0  0  0  0
  -29.6544  -16.6991   20.5094 C   0  0  0  0  0  0
  -29.6024  -19.2618   21.5567 C   0  0  0  0  0  0
  -27.7811  -17.3653   18.8214 C   0  0  0  0  0  0
  -27.3470  -20.8267   22.7076 C   0  0  0  0  0  0
  -28.6721  -26.7657   22.6182 C   0  0  0  0  0  0
  -30.2300  -15.6692   18.3641 C   0  0  0  0  0  0
  -29.8466  -20.7238   21.8939 C   0  0  0  0  0  0
  -29.6591  -24.9480   21.1207 C   0  0  0  0  0  0
  -29.7359  -23.7833   22.1357 C   0  0  0  0  0  0
  -28.7255  -21.5181   22.6249 C   0  0  1  0  0  0
  -28.4903  -25.9295   21.3314 C   0  0  2  0  0  0
  -30.3559  -18.3351   22.1819 N   0  0  0  0  0  0
  -29.9739  -15.4869   19.8105 N   0  0  0  0  0  0
  -28.5701  -22.8705   22.0326 N   0  3  0  0  0  0
  -31.4710  -12.3285   19.1485 H   0  0  0  0  0  0
  -30.3219  -11.2729   19.9328 H   0  0  0  0  0  0
  -29.7088  -11.5066   17.5464 H   0  0  0  0  0  0
  -29.7096  -13.2268   17.6233 H   0  0  0  0  0  0
  -27.7840  -11.2590   18.8563 H   0  0  0  0  0  0
  -27.3808  -12.5585   17.7710 H   0  0  0  0  0  0
  -27.6650  -14.2192   19.4838 H   0  0  0  0  0  0
  -28.6720  -12.0834   21.4323 H   0  0  0  0  0  0
  -28.5011  -13.7957   21.7605 H   0  0  0  0  0  0
  -25.2736   -9.5669   22.4761 H   0  0  0  0  0  0
  -23.9972   -7.4631   22.7479 H   0  0  0  0  0  0
  -21.0811   -8.8767   19.8967 H   0  0  0  0  0  0
  -22.3667  -10.9660   19.6163 H   0  0  0  0  0  0
  -21.2006   -7.6132   23.9712 H   0  0  0  0  0  0
  -21.1485   -6.0514   25.9083 H   0  0  0  0  0  0
  -22.0592   -2.7590   23.2862 H   0  0  0  0  0  0
  -22.4050  -11.9978   22.4825 H   0  0  0  0  0  0
  -21.1051  -13.1318   22.2506 H   0  0  0  0  0  0
  -24.6847  -15.8437   20.5992 H   0  0  0  0  0  0
  -26.3220  -15.6290   20.2356 H   0  0  0  0  0  0
  -26.7084  -32.5577   23.1166 H   0  0  0  0  0  0
  -24.9979  -33.9784   25.0452 H   0  0  0  0  0  0
  -22.6775  -31.3076   21.4147 H   0  0  0  0  0  0
  -23.3731  -35.9698   23.3305 H   0  0  0  0  0  0
  -24.3586  -36.8946   22.2059 H   0  0  0  0  0  0
  -23.7238  -37.6557   23.6638 H   0  0  0  0  0  0
  -26.0121  -31.6311   20.5800 H   0  0  0  0  0  0
  -26.8054  -30.9155   21.9585 H   0  0  0  0  0  0
  -28.0952  -29.1920   21.1224 H   0  0  0  0  0  0
  -26.1051  -25.9679   19.0711 H   0  0  0  0  0  0
  -23.9917  -27.2700   19.0577 H   0  0  0  0  0  0
  -23.6880  -30.5875   19.4000 H   0  0  0  0  0  0
  -22.7251  -29.2236   19.8830 H   0  0  0  0  0  0
  -25.1300  -36.2025   25.0830 H   0  0  0  0  0  0
  -20.9959  -28.3220   24.1463 H   0  0  0  0  0  0
  -20.5668  -26.2249   23.3611 H   0  0  0  0  0  0
  -21.6628  -26.7451   22.1230 H   0  0  0  0  0  0
  -19.6897  -25.6312   21.1233 H   0  0  0  0  0  0
  -19.6684  -27.3220   20.6762 H   0  0  0  0  0  0
  -17.4197  -26.6684   21.4024 H   0  0  0  0  0  0
  -18.0313  -26.0056   22.9010 H   0  0  0  0  0  0
  -19.7931  -30.7254   24.2306 H   0  0  0  0  0  0
  -17.5013  -31.6265   24.5184 H   0  0  0  0  0  0
  -15.5344  -30.3017   23.7631 H   0  0  0  0  0  0
  -15.8648  -28.0850   22.7034 H   0  0  0  0  0  0
  -24.5804  -30.7127   25.7735 H   0  0  0  0  0  0
  -24.8983  -32.2845   26.4917 H   0  0  0  0  0  0
  -25.8071  -30.8775   27.0140 H   0  0  0  0  0  0
  -26.2776  -29.6827   24.0964 H   0  0  0  0  0  0
  -27.3963  -29.7204   25.4400 H   0  0  0  0  0  0
  -27.8626  -30.4368   23.9159 H   0  0  0  0  0  0
  -27.2678  -33.3508   26.2088 H   0  0  0  0  0  0
  -28.3790  -32.6880   25.0209 H   0  0  0  0  0  0
  -28.0755  -31.8298   26.5240 H   0  0  0  0  0  0
  -28.2626  -38.0115   24.7504 H   0  0  0  0  0  0
  -28.1084  -36.2640   24.6288 H   0  0  0  0  0  0
  -27.2291  -37.1473   25.8849 H   0  0  0  0  0  0
  -20.9250  -29.8737   21.6983 H   0  0  0  0  0  0
  -26.0221  -38.2901   24.1340 H   0  0  0  0  0  0
  -28.1377  -19.7093   20.0333 H   0  0  0  0  0  0
  -31.0856  -16.4243   22.1443 H   0  0  0  0  0  0
  -26.8653  -17.9456   18.9367 H   0  0  0  0  0  0
  -27.4894  -16.3204   18.7630 H   0  0  0  0  0  0
  -28.2357  -17.6501   17.8728 H   0  0  0  0  0  0
  -27.4163  -19.8530   23.1923 H   0  0  0  0  0  0
  -26.8977  -20.6817   21.7246 H   0  0  0  0  0  0
  -26.6475  -21.4210   23.2968 H   0  0  0  0  0  0
  -28.8143  -26.1364   23.4957 H   0  0  0  0  0  0
  -27.7962  -27.3771   22.8361 H   0  0  0  0  0  0
  -29.5353  -27.4281   22.5412 H   0  0  0  0  0  0
  -29.3466  -15.4201   17.7782 H   0  0  0  0  0  0
  -31.0415  -15.0494   17.9750 H   0  0  0  0  0  0
  -30.5121  -16.6957   18.1270 H   0  0  0  0  0  0
  -30.0804  -21.1947   20.9382 H   0  0  0  0  0  0
  -30.7682  -20.7985   22.4734 H   0  0  0  0  0  0
  -29.6021  -24.5347   20.1121 H   0  0  0  0  0  0
  -30.5968  -25.5050   21.1517 H   0  0  0  0  0  0
  -29.8264  -24.1433   23.1600 H   0  0  0  0  0  0
  -30.6597  -23.2411   21.9360 H   0  0  0  0  0  0
  -29.0521  -21.6512   23.6575 H   0  0  0  0  0  0
  -27.5657  -25.3553   21.4133 H   0  0  0  0  0  0
  -28.3394  -22.7596   21.0575 H   0  0  0  0  0  0
  -27.7810  -23.3120   22.4766 H   0  0  0  0  0  0
  1 25  1  0  0  0
  1 30  2  0  0  0
  1 86  1  0  0  0
  2  3  1  0  0  0
  2 25  1  0  0  0
  2 88  1  0  0  0
  2 89  1  0  0  0
  3  4  1  0  0  0
  3 90  1  0  0  0
  3 91  1  0  0  0
  4  5  1  0  0  0
  4 92  1  0  0  0
  4 93  1  0  0  0
  5  6  1  0  0  0
  5 26  1  0  0  0
  5 94  1  0  0  0
  6 25  1  0  0  0
  6 95  1  0  0  0
  6 96  1  0  0  0
  7  8  2  0  0  0
  7 26  1  0  0  0
  7 29  1  0  0  0
  8  9  1  0  0  0
  8 22  1  0  0  0
  9 10  1  0  0  0
  9 27  2  0  0  0
 10 11  2  0  0  0
 10 15  1  0  0  0
 11 12  1  0  0  0
 11 97  1  0  0  0
 12 13  2  0  0  0
 12 98  1  0  0  0
 13 14  1  0  0  0
 13 31  1  0  0  0
 14 15  2  0  0  0
 14 99  1  0  0  0
 15100  1  0  0  0
 16 17  2  0  0  0
 16 21  1  0  0  0
 16 31  1  0  0  0
 17 18  1  0  0  0
 17101  1  0  0  0
 18 19  2  0  0  0
 18102  1  0  0  0
 19 20  1  0  0  0
 19 24  1  0  0  0
 20 21  2  0  0  0
 20103  1  0  0  0
 21 23  1  0  0  0
 22 28  1  0  0  0
 22 32  2  0  0  0
 26 27  1  0  0  0
 28104  1  0  0  0
 28105  1  0  0  0
 29106  1  0  0  0
 29107  1  0  0  0
 33 34  1  0  0  0
 33 66  1  0  0  0
 33 70  2  0  0  0
 34 36  1  0  0  0
 34 59  1  0  0  0
 34108  1  0  0  0
 35 44  2  0  0  0
 35 45  1  0  0  0
 35 68  1  0  0  0
 36 56  1  0  0  0
 36109  1  0  0  0
 37 39  1  0  0  0
 37 47  1  0  0  0
 37 66  1  0  0  0
 37110  1  0  0  0
 38 43  2  0  0  0
 38 46  1  0  0  0
 38 47  1  0  0  0
 39 64  1  0  0  0
 39 67  2  0  0  0
 40 52  1  0  0  0
 40 53  2  0  0  0
 40 58  1  0  0  0
 41111  1  0  0  0
 41112  1  0  0  0
 41113  1  0  0  0
 41 48  1  0  0  0
 42 43  1  0  0  0
 42 66  1  0  0  0
 42114  1  0  0  0
 42115  1  0  0  0
 43 44  1  0  0  0
 44116  1  0  0  0
 45 46  2  0  0  0
 45117  1  0  0  0
 46118  1  0  0  0
 47119  1  0  0  0
 47120  1  0  0  0
 48 56  1  0  0  0
 48 65  1  0  0  0
 48121  1  0  0  0
 49 50  1  0  0  0
 49 53  1  0  0  0
 49 64  1  0  0  0
 49122  1  0  0  0
 50 51  1  0  0  0
 50123  1  0  0  0
 50124  1  0  0  0
 51 52  1  0  0  0
 51125  1  0  0  0
 51126  1  0  0  0
 52127  1  0  0  0
 52128  1  0  0  0
 53 54  1  0  0  0
 54 55  2  0  0  0
 54129  1  0  0  0
 55 57  1  0  0  0
 55130  1  0  0  0
 56 69  2  0  0  0
 57 58  2  0  0  0
 57131  1  0  0  0
 58132  1  0  0  0
 59 60  1  0  0  0
 59 61  1  0  0  0
 59 62  1  0  0  0
 60133  1  0  0  0
 60134  1  0  0  0
 60135  1  0  0  0
 61136  1  0  0  0
 61137  1  0  0  0
 61138  1  0  0  0
 62139  1  0  0  0
 62140  1  0  0  0
 62141  1  0  0  0
 63 65  1  0  0  0
 63142  1  0  0  0
 63143  1  0  0  0
 63144  1  0  0  0
 64145  1  0  0  0
 65146  1  0  0  0
 68 84  1  0  0  0
 71 73  2  0  0  0
 71 75  1  0  0  0
 71147  1  0  0  0
 72 74  2  0  0  0
 72 85  1  0  0  0
 72148  1  0  0  0
 73 74  1  0  0  0
 73 76  1  0  0  0
 74 86  1  0  0  0
 75 80  1  0  0  0
 75 85  2  0  0  0
 76149  1  0  0  0
 76150  1  0  0  0
 76151  1  0  0  0
 77152  1  0  0  0
 77153  1  0  0  0
 77154  1  0  0  0
 77 83  1  0  0  0
 78155  1  0  0  0
 78156  1  0  0  0
 78157  1  0  0  0
 78 84  1  0  0  0
 79 86  1  0  0  0
 79158  1  0  0  0
 79159  1  0  0  0
 79160  1  0  0  0
 80 83  1  0  0  0
 80161  1  0  0  0
 80162  1  0  0  0
 81 82  1  0  0  0
 81 84  1  0  0  0
 81163  1  0  0  0
 81164  1  0  0  0
 82 87  1  0  0  0
 82165  1  0  0  0
 82166  1  0  0  0
 83 87  1  0  0  0
 83167  1  0  0  0
 84168  1  0  0  0
 87169  1  0  0  0
 87170  1  0  0  0
M  CHG  1  87   1
M  ISO  4   1 100  68 101  84 101  86 100
M  END
> <chiral flag>
0

> <version>
0

> <s_m_source_file>
/data/baiqing/PycharmProjects/Reinvent-master-3.2/result/LINK_invent/BTK/process_docking_weight1_custom_sum_contain_oxygen_bond_distance_aromatic_linkinvent_7_9_3/rearranged_h_0114.sdf

> <i_m_source_file_index>
79

> <r_mmod_Potential_Energy-OPLS-2005>
-53.0738716125488

> <r_mmod_Stretch_Energy-OPLS-2005>
37.1188011169434

> <r_mmod_Bend_Energy-OPLS-2005>
109.341682434082

> <r_mmod_Torsional_Energy-OPLS-2005>
368.769134521484

> <r_mmod_Improper_Torsional_Energy-OPLS-2005>
26.563533782959

> <r_mmod_Van_der_Waal_Energy-OPLS-2005>
168.232955932617

> <r_mmod_Electrostatic_Energy-OPLS-2005>
-333.836547851562

> <r_mmod_Solvation_Energy-OPLS-2005>
-464.830505371094

> <b_mmod_Minimization_Converged-OPLS-2005>
0

> <r_mmod_RMS_Derivative-OPLS-2005>
2.19516491889954

$$$$
79
                    3D
 Structure written by MMmdl.
164173  0  0  1  0            999 V2000
  -30.6869  -14.5359   20.4426 C   0  0  0  0  0  0
  -30.4256  -12.3057   19.4423 C   0  0  0  0  0  0
  -29.5008  -12.4298   18.2124 C   0  0  0  0  0  0
  -28.0165  -12.3283   18.6297 C   0  0  0  0  0  0
  -27.6466  -13.2031   19.8607 C   0  0  2  0  0  0
  -28.7038  -13.0757   20.9828 C   0  0  0  0  0  0
  -25.2529  -13.8126   20.5751 C   0  0  0  0  0  0
  -24.1773  -13.0420   20.9223 C   0  0  0  0  0  0
  -24.6332  -11.6879   20.8799 C   0  0  0  0  0  0
  -23.9010  -10.4273   21.0448 C   0  0  0  0  0  0
  -24.3570   -9.4177   21.9207 C   0  0  0  0  0  0
  -23.6253   -8.2211   22.0750 C   0  0  0  0  0  0
  -22.4245   -8.0256   21.3537 C   0  0  0  0  0  0
  -21.9883   -9.0227   20.4653 C   0  0  0  0  0  0
  -22.7204  -10.2116   20.3073 C   0  0  0  0  0  0
  -21.6849   -6.0703   22.5273 C   0  0  0  0  0  0
  -21.4017   -6.5618   23.8207 C   0  0  0  0  0  0
  -21.3669   -5.6781   24.9182 C   0  0  0  0  0  0
  -21.6051   -4.3037   24.7247 C   0  0  0  0  0  0
  -21.8818   -3.8123   23.4368 C   0  0  0  0  0  0
  -21.9187   -4.6928   22.3412 C   0  0  0  0  0  0
  -22.7800  -13.5214   21.1875 C   0  0  0  0  0  0
  -22.1650   -4.2107   21.0989 F   0  0  0  0  0  0
  -21.5641   -3.4534   25.7770 F   0  0  0  0  0  0
  -30.0218  -13.3503   20.3928 N   0  0  0  0  0  0
  -26.2944  -12.9279   20.3394 N   0  0  0  0  0  0
  -25.9259  -11.6452   20.5847 N   0  0  0  0  0  0
  -22.0428  -12.8227   22.0442 N   0  0  0  0  0  0
  -25.4249  -15.1858   20.4187 N   0  0  0  0  0  0
  -31.8957  -14.6332   20.2281 O   0  0  0  0  0  0
  -21.6619   -6.8852   21.4239 O   0  0  0  0  0  0
  -22.3517  -14.5533   20.6717 O   0  0  0  0  0  0
  -24.6151  -31.8690   23.2087 C   0  0  0  0  0  0
  -25.9052  -32.4824   23.8390 C   0  0  1  0  0  0
  -27.2437  -27.4408   20.1223 C   0  0  0  0  0  0
  -25.5929  -33.8620   24.2340 N   0  0  0  0  0  0
  -23.4040  -30.4899   21.5477 C   0  0  2  0  0  0
  -24.8580  -28.9564   20.1063 C   0  0  0  0  0  0
  -22.7408  -29.4671   22.4987 C   0  0  0  0  0  0
  -18.0274  -28.1369   22.8491 C   0  0  0  0  0  0
  -24.1481  -36.7292   23.2635 C   0  0  0  0  0  0
  -25.9282  -30.8394   21.3588 C   0  0  0  0  0  0
  -26.0114  -29.4730   20.7110 C   0  0  0  0  0  0
  -27.2088  -28.7215   20.7202 C   0  0  0  0  0  0
  -26.0837  -26.9400   19.5015 C   0  0  0  0  0  0
  -24.8888  -27.6886   19.4960 C   0  0  0  0  0  0
  -23.6132  -29.8167   20.1628 C   0  0  0  0  0  0
  -25.4113  -36.3106   24.0337 C   0  0  1  0  0  0
  -20.5868  -28.3655   23.1315 C   0  0  2  0  0  0
  -20.6768  -26.9394   22.5419 C   0  0  0  0  0  0
  -19.5744  -26.6380   21.5217 C   0  0  0  0  0  0
  -18.1913  -26.7918   22.1618 C   0  0  0  0  0  0
  -19.1528  -28.8833   23.2896 C   0  0  0  0  0  0
  -18.9454  -30.1438   23.8904 C   0  0  0  0  0  0
  -17.6462  -30.6579   24.0567 C   0  0  0  0  0  0
  -25.9044  -34.9474   23.5135 C   0  0  0  0  0  0
  -16.5354  -29.9082   23.6324 C   0  0  0  0  0  0
  -16.7270  -28.6498   23.0349 C   0  0  0  0  0  0
  -26.4486  -31.6592   25.0709 C   0  0  0  0  0  0
  -25.3746  -31.3701   26.1462 C   0  0  0  0  0  0
  -27.0310  -30.3037   24.6049 C   0  0  0  0  0  0
  -27.6064  -32.4317   25.7469 C   0  0  0  0  0  0
  -27.5578  -37.1806   24.8473 C   0  0  0  0  0  0
  -21.4142  -29.3020   22.3710 N   0  0  0  0  0  0
  -26.4297  -37.3795   23.9418 N   0  0  0  0  0  0
  -24.6666  -31.0805   22.0974 N   0  0  0  0  0  0
  -23.4184  -28.8226   23.3041 O   0  0  0  0  0  0
  -28.3612  -26.6390   20.2006 O   0  0  0  0  0  0
  -26.5576  -34.8933   22.4676 O   0  0  0  0  0  0
  -23.5352  -32.1435   23.7489 O   0  0  0  0  0  0
  -28.6692  -21.3313   20.9346 C   0  0  0  0  0  0
  -30.2002  -22.1101   19.2186 C   0  0  0  0  0  0
  -28.7381  -22.6025   21.5531 C   0  0  0  0  0  0
  -30.2570  -23.3799   19.8271 C   0  0  0  0  0  0
  -29.4010  -21.0735   19.7550 C   0  0  0  0  0  0
  -29.5208  -23.6476   21.0027 C   0  0  0  0  0  0
  -29.2940  -17.4374   18.5057 C   0  0  0  0  0  0
  -29.7434  -16.0145   18.8362 C   0  0  0  0  0  0
  -30.1694  -18.1480   20.6691 C   0  0  0  0  0  0
  -29.8594  -16.7281   21.2450 C   0  0  0  0  0  0
  -30.9604  -25.7172   21.5534 C   0  0  0  0  0  0
  -29.1780  -19.8094   18.9177 C   0  0  0  0  0  0
  -28.4207  -25.9713   21.4770 C   0  0  0  0  0  0
  -29.6087  -25.0045   21.7220 C   0  0  1  0  0  0
  -29.4881  -18.4343   19.3975 N   0  0  0  0  0  0
  -29.9064  -15.6325   20.2537 N   0  0  0  0  0  0
  -28.7685  -17.6226   17.4029 O   0  0  0  0  0  0
  -31.4757  -12.3893   19.1496 H   0  0  0  0  0  0
  -30.3145  -11.3231   19.9027 H   0  0  0  0  0  0
  -29.7338  -11.6393   17.4974 H   0  0  0  0  0  0
  -29.6925  -13.3588   17.6790 H   0  0  0  0  0  0
  -27.8220  -11.2811   18.8589 H   0  0  0  0  0  0
  -27.3698  -12.5694   17.7849 H   0  0  0  0  0  0
  -27.6382  -14.2340   19.5216 H   0  0  0  0  0  0
  -28.6934  -12.0738   21.4138 H   0  0  0  0  0  0
  -28.4888  -13.7679   21.7994 H   0  0  0  0  0  0
  -25.2736   -9.5641   22.4758 H   0  0  0  0  0  0
  -23.9973   -7.4603   22.7448 H   0  0  0  0  0  0
  -21.0812   -8.8733   19.8965 H   0  0  0  0  0  0
  -22.3663  -10.9634   19.6160 H   0  0  0  0  0  0
  -21.1996   -7.6129   23.9703 H   0  0  0  0  0  0
  -21.1509   -6.0519   25.9083 H   0  0  0  0  0  0
  -22.0590   -2.7582   23.2890 H   0  0  0  0  0  0
  -22.4048  -11.9914   22.4866 H   0  0  0  0  0  0
  -21.1033  -13.1236   22.2631 H   0  0  0  0  0  0
  -24.6633  -15.8450   20.5371 H   0  0  0  0  0  0
  -26.2877  -15.6288   20.1339 H   0  0  0  0  0  0
  -26.7126  -32.5548   23.1157 H   0  0  0  0  0  0
  -25.0170  -33.9779   25.0546 H   0  0  0  0  0  0
  -22.6926  -31.3062   21.4050 H   0  0  0  0  0  0
  -23.3742  -35.9622   23.3319 H   0  0  0  0  0  0
  -24.3565  -36.8877   22.2043 H   0  0  0  0  0  0
  -23.7230  -37.6509   23.6622 H   0  0  0  0  0  0
  -26.0377  -31.6024   20.5874 H   0  0  0  0  0  0
  -26.8178  -30.8979   21.9721 H   0  0  0  0  0  0
  -28.0937  -29.1066   21.2051 H   0  0  0  0  0  0
  -26.0990  -25.9576   19.0521 H   0  0  0  0  0  0
  -24.0001  -27.2836   19.0322 H   0  0  0  0  0  0
  -23.7127  -30.5894   19.4014 H   0  0  0  0  0  0
  -22.7384  -29.2330   19.8714 H   0  0  0  0  0  0
  -25.1285  -36.1970   25.0828 H   0  0  0  0  0  0
  -20.9969  -28.3224   24.1438 H   0  0  0  0  0  0
  -20.5660  -26.2265   23.3600 H   0  0  0  0  0  0
  -21.6630  -26.7426   22.1207 H   0  0  0  0  0  0
  -19.6898  -25.6298   21.1218 H   0  0  0  0  0  0
  -19.6679  -27.3200   20.6754 H   0  0  0  0  0  0
  -17.4190  -26.6678   21.4006 H   0  0  0  0  0  0
  -18.0302  -26.0051   22.9006 H   0  0  0  0  0  0
  -19.7939  -30.7247   24.2258 H   0  0  0  0  0  0
  -17.5030  -31.6257   24.5165 H   0  0  0  0  0  0
  -15.5357  -30.2998   23.7641 H   0  0  0  0  0  0
  -15.8666  -28.0829   22.7056 H   0  0  0  0  0  0
  -24.5910  -30.7047   25.7819 H   0  0  0  0  0  0
  -24.8930  -32.2852   26.4911 H   0  0  0  0  0  0
  -25.8109  -30.8882   27.0215 H   0  0  0  0  0  0
  -26.2842  -29.6811   24.1101 H   0  0  0  0  0  0
  -27.4105  -29.7259   25.4487 H   0  0  0  0  0  0
  -27.8671  -30.4372   23.9178 H   0  0  0  0  0  0
  -27.2673  -33.3597   26.2079 H   0  0  0  0  0  0
  -28.3860  -32.6905   25.0291 H   0  0  0  0  0  0
  -28.0747  -31.8411   26.5354 H   0  0  0  0  0  0
  -28.2620  -38.0078   24.7527 H   0  0  0  0  0  0
  -28.1041  -36.2617   24.6295 H   0  0  0  0  0  0
  -27.2290  -37.1479   25.8872 H   0  0  0  0  0  0
  -20.9309  -29.8762   21.6941 H   0  0  0  0  0  0
  -26.0174  -38.2867   24.1421 H   0  0  0  0  0  0
  -28.0193  -20.5721   21.3469 H   0  0  0  0  0  0
  -30.7473  -21.9567   18.2987 H   0  0  0  0  0  0
  -28.1674  -22.7803   22.4537 H   0  0  0  0  0  0
  -30.8671  -24.1477   19.3706 H   0  0  0  0  0  0
  -29.0330  -15.3480   18.3595 H   0  0  0  0  0  0
  -30.6845  -15.8823   18.2954 H   0  0  0  0  0  0
  -31.2439  -18.2457   20.4983 H   0  0  0  0  0  0
  -29.9139  -18.8988   21.4160 H   0  0  0  0  0  0
  -30.5244  -16.5179   22.0853 H   0  0  0  0  0  0
  -28.8544  -16.7295   21.6682 H   0  0  0  0  0  0
  -31.7917  -25.0511   21.7923 H   0  0  0  0  0  0
  -31.0315  -26.5766   22.2215 H   0  0  0  0  0  0
  -31.0982  -26.0870   20.5393 H   0  0  0  0  0  0
  -29.7343  -19.9559   17.9884 H   0  0  0  0  0  0
  -28.1299  -19.8326   18.6199 H   0  0  0  0  0  0
  -28.4728  -26.7409   22.2508 H   0  0  0  0  0  0
  -27.4878  -25.4318   21.6570 H   0  0  0  0  0  0
  -29.5608  -24.7479   22.7829 H   0  0  0  0  0  0
  1 25  1  0  0  0
  1 30  2  0  0  0
  1 86  1  0  0  0
  2  3  1  0  0  0
  2 25  1  0  0  0
  2 88  1  0  0  0
  2 89  1  0  0  0
  3  4  1  0  0  0
  3 90  1  0  0  0
  3 91  1  0  0  0
  4  5  1  0  0  0
  4 92  1  0  0  0
  4 93  1  0  0  0
  5  6  1  0  0  0
  5 26  1  0  0  0
  5 94  1  0  0  0
  6 25  1  0  0  0
  6 95  1  0  0  0
  6 96  1  0  0  0
  7  8  2  0  0  0
  7 26  1  0  0  0
  7 29  1  0  0  0
  8  9  1  0  0  0
  8 22  1  0  0  0
  9 10  1  0  0  0
  9 27  2  0  0  0
 10 11  2  0  0  0
 10 15  1  0  0  0
 11 12  1  0  0  0
 11 97  1  0  0  0
 12 13  2  0  0  0
 12 98  1  0  0  0
 13 14  1  0  0  0
 13 31  1  0  0  0
 14 15  2  0  0  0
 14 99  1  0  0  0
 15100  1  0  0  0
 16 17  2  0  0  0
 16 21  1  0  0  0
 16 31  1  0  0  0
 17 18  1  0  0  0
 17101  1  0  0  0
 18 19  2  0  0  0
 18102  1  0  0  0
 19 20  1  0  0  0
 19 24  1  0  0  0
 20 21  2  0  0  0
 20103  1  0  0  0
 21 23  1  0  0  0
 22 28  1  0  0  0
 22 32  2  0  0  0
 26 27  1  0  0  0
 28104  1  0  0  0
 28105  1  0  0  0
 29106  1  0  0  0
 29107  1  0  0  0
 33 34  1  0  0  0
 33 66  1  0  0  0
 33 70  2  0  0  0
 34 36  1  0  0  0
 34 59  1  0  0  0
 34108  1  0  0  0
 35 44  2  0  0  0
 35 45  1  0  0  0
 35 68  1  0  0  0
 36 56  1  0  0  0
 36109  1  0  0  0
 37 39  1  0  0  0
 37 47  1  0  0  0
 37 66  1  0  0  0
 37110  1  0  0  0
 38 43  2  0  0  0
 38 46  1  0  0  0
 38 47  1  0  0  0
 39 64  1  0  0  0
 39 67  2  0  0  0
 40 52  1  0  0  0
 40 53  2  0  0  0
 40 58  1  0  0  0
 41111  1  0  0  0
 41112  1  0  0  0
 41113  1  0  0  0
 41 48  1  0  0  0
 42 43  1  0  0  0
 42 66  1  0  0  0
 42114  1  0  0  0
 42115  1  0  0  0
 43 44  1  0  0  0
 44116  1  0  0  0
 45 46  2  0  0  0
 45117  1  0  0  0
 46118  1  0  0  0
 47119  1  0  0  0
 47120  1  0  0  0
 48 56  1  0  0  0
 48 65  1  0  0  0
 48121  1  0  0  0
 49 50  1  0  0  0
 49 53  1  0  0  0
 49 64  1  0  0  0
 49122  1  0  0  0
 50 51  1  0  0  0
 50123  1  0  0  0
 50124  1  0  0  0
 51 52  1  0  0  0
 51125  1  0  0  0
 51126  1  0  0  0
 52127  1  0  0  0
 52128  1  0  0  0
 53 54  1  0  0  0
 54 55  2  0  0  0
 54129  1  0  0  0
 55 57  1  0  0  0
 55130  1  0  0  0
 56 69  2  0  0  0
 57 58  2  0  0  0
 57131  1  0  0  0
 58132  1  0  0  0
 59 60  1  0  0  0
 59 61  1  0  0  0
 59 62  1  0  0  0
 60133  1  0  0  0
 60134  1  0  0  0
 60135  1  0  0  0
 61136  1  0  0  0
 61137  1  0  0  0
 61138  1  0  0  0
 62139  1  0  0  0
 62140  1  0  0  0
 62141  1  0  0  0
 63 65  1  0  0  0
 63142  1  0  0  0
 63143  1  0  0  0
 63144  1  0  0  0
 64145  1  0  0  0
 65146  1  0  0  0
 68 83  1  0  0  0
 71 73  2  0  0  0
 71 75  1  0  0  0
 71147  1  0  0  0
 72 74  1  0  0  0
 72 75  2  0  0  0
 72148  1  0  0  0
 73 76  1  0  0  0
 73149  1  0  0  0
 74 76  2  0  0  0
 74150  1  0  0  0
 75 82  1  0  0  0
 76 84  1  0  0  0
 77 78  1  0  0  0
 77 85  1  0  0  0
 77 87  2  0  0  0
 78 86  1  0  0  0
 78151  1  0  0  0
 78152  1  0  0  0
 79 80  1  0  0  0
 79 85  1  0  0  0
 79153  1  0  0  0
 79154  1  0  0  0
 80 86  1  0  0  0
 80155  1  0  0  0
 80156  1  0  0  0
 81157  1  0  0  0
 81158  1  0  0  0
 81159  1  0  0  0
 81 84  1  0  0  0
 82 85  1  0  0  0
 82160  1  0  0  0
 82161  1  0  0  0
 83 84  1  0  0  0
 83162  1  0  0  0
 83163  1  0  0  0
 84164  1  0  0  0
M  ISO  4   1 100  68 101  83 101  86 100
M  END
> <chiral flag>
0

> <version>
0

> <s_m_source_file>
/data/baiqing/PycharmProjects/Reinvent-master-3.2/result/LINK_invent/BTK/process_docking_weight1_custom_sum_contain_oxygen_bond_distance_aromatic_linkinvent_7_9_3/rearranged_h_0114.sdf

> <i_m_source_file_index>
80

> <r_mmod_Potential_Energy-OPLS-2005>
160.260482788086

> <r_mmod_Stretch_Energy-OPLS-2005>
43.7818603515625

> <r_mmod_Bend_Energy-OPLS-2005>
128.352584838867

> <r_mmod_Torsional_Energy-OPLS-2005>
364.871429443359

> <r_mmod_Improper_Torsional_Energy-OPLS-2005>
18.1370544433594

> <r_mmod_Van_der_Waal_Energy-OPLS-2005>
158.548126220703

> <r_mmod_Electrostatic_Energy-OPLS-2005>
-372.309967041016

> <r_mmod_Solvation_Energy-OPLS-2005>
-211.753402709961

> <b_mmod_Minimization_Converged-OPLS-2005>
0

> <r_mmod_RMS_Derivative-OPLS-2005>
3.14899945259094

$$$$
80
                    3D
 Structure written by MMmdl.
162171  0  0  1  0            999 V2000
  -30.4778  -15.1407   20.2895 C   0  0  0  0  0  0
  -30.4350  -12.7141   19.4768 C   0  0  0  0  0  0
  -29.5183  -12.4964   18.2515 C   0  0  0  0  0  0
  -28.0538  -12.2793   18.6886 C   0  0  0  0  0  0
  -27.6067  -13.2239   19.8393 C   0  0  2  0  0  0
  -28.6650  -13.3944   20.9401 C   0  0  0  0  0  0
  -25.2404  -13.8071   20.5842 C   0  0  0  0  0  0
  -24.1701  -13.0323   20.9263 C   0  0  0  0  0  0
  -24.6300  -11.6804   20.8780 C   0  0  0  0  0  0
  -23.8977  -10.4214   21.0376 C   0  0  0  0  0  0
  -24.3561   -9.4161   21.9163 C   0  0  0  0  0  0
  -23.6269   -8.2187   22.0723 C   0  0  0  0  0  0
  -22.4251   -8.0216   21.3520 C   0  0  0  0  0  0
  -21.9857   -9.0175   20.4620 C   0  0  0  0  0  0
  -22.7154  -10.2061   20.3024 C   0  0  0  0  0  0
  -21.6832   -6.0705   22.5284 C   0  0  0  0  0  0
  -21.4005   -6.5614   23.8220 C   0  0  0  0  0  0
  -21.3674   -5.6765   24.9181 C   0  0  0  0  0  0
  -21.6047   -4.3026   24.7225 C   0  0  0  0  0  0
  -21.8833   -3.8117   23.4344 C   0  0  0  0  0  0
  -21.9194   -4.6937   22.3404 C   0  0  0  0  0  0
  -22.7753  -13.5167   21.1893 C   0  0  0  0  0  0
  -22.1668   -4.2122   21.0984 F   0  0  0  0  0  0
  -21.5642   -3.4511   25.7739 F   0  0  0  0  0  0
  -29.8838  -13.8634   20.2588 N   0  0  0  0  0  0
  -26.2786  -12.9235   20.3431 N   0  0  0  0  0  0
  -25.9242  -11.6397   20.5861 N   0  0  0  0  0  0
  -22.0373  -12.8198   22.0442 N   0  0  0  0  0  0
  -25.4108  -15.1813   20.4361 N   0  0  0  0  0  0
  -31.7172  -15.1235   20.2854 O   0  0  0  0  0  0
  -21.6602   -6.8827   21.4238 O   0  0  0  0  0  0
  -22.3509  -14.5508   20.6763 O   0  0  0  0  0  0
  -24.6531  -31.8363   23.1826 C   0  0  0  0  0  0
  -25.9295  -32.4645   23.8218 C   0  0  1  0  0  0
  -27.2158  -27.0576   20.1590 C   0  0  0  0  0  0
  -25.6040  -33.8446   24.2140 N   0  0  0  0  0  0
  -23.4578  -30.4564   21.5311 C   0  0  2  0  0  0
  -24.9070  -28.8707   20.1112 C   0  0  0  0  0  0
  -22.7594  -29.4544   22.4846 C   0  0  0  0  0  0
  -18.0303  -28.1426   22.8451 C   0  0  0  0  0  0
  -24.1489  -36.7217   23.2633 C   0  0  0  0  0  0
  -26.0193  -30.6849   21.3936 C   0  0  0  0  0  0
  -26.0888  -29.2894   20.7335 C   0  0  0  0  0  0
  -27.2425  -28.4020   20.7395 C   0  0  0  0  0  0
  -26.0058  -26.7699   19.4850 C   0  0  0  0  0  0
  -24.8835  -27.6265   19.4677 C   0  0  0  0  0  0
  -23.6862  -29.7802   20.1527 C   0  0  0  0  0  0
  -25.4123  -36.2979   24.0297 C   0  0  1  0  0  0
  -20.5916  -28.3767   23.1202 C   0  0  2  0  0  0
  -20.6789  -26.9466   22.5397 C   0  0  0  0  0  0
  -19.5780  -26.6399   21.5202 C   0  0  0  0  0  0
  -18.1959  -26.7965   22.1592 C   0  0  0  0  0  0
  -19.1558  -28.8907   23.2812 C   0  0  0  0  0  0
  -18.9484  -30.1510   23.8842 C   0  0  0  0  0  0
  -17.6481  -30.6614   24.0563 C   0  0  0  0  0  0
  -25.9104  -34.9377   23.5006 C   0  0  0  0  0  0
  -16.5374  -29.9103   23.6367 C   0  0  0  0  0  0
  -16.7286  -28.6532   23.0356 C   0  0  0  0  0  0
  -26.4600  -31.6545   25.0688 C   0  0  0  0  0  0
  -25.3766  -31.3778   26.1360 C   0  0  0  0  0  0
  -27.0484  -30.2923   24.6357 C   0  0  0  0  0  0
  -27.6128  -32.4306   25.7477 C   0  0  0  0  0  0
  -27.5581  -37.1732   24.8443 C   0  0  0  0  0  0
  -21.4289  -29.3067   22.3562 N   0  0  0  0  0  0
  -26.4254  -37.3728   23.9452 N   0  0  0  0  0  0
  -24.7299  -31.0152   22.0910 N   0  0  0  0  0  0
  -23.4199  -28.8106   23.3033 O   0  0  0  0  0  0
  -28.2319  -26.0037   20.2357 O   0  0  0  0  0  0
  -26.5672  -34.8905   22.4584 O   0  0  0  0  0  0
  -23.5631  -32.1270   23.7040 O   0  0  0  0  0  0
  -28.0853  -21.6849   20.4508 C   0  0  0  0  0  0
  -28.8312  -20.4092   20.4397 C   0  0  0  0  0  0
  -30.1885  -20.4581   20.2077 C   0  0  0  0  0  0
  -28.7013  -23.0184   20.2453 C   0  0  0  0  0  0
  -30.7600  -21.7610   20.0155 C   0  0  0  0  0  0
  -28.4411  -18.8680   20.6030 C   0  0  0  0  0  0
  -30.8384  -19.0148   20.1604 C   0  0  0  0  0  0
  -29.7683  -17.8871   20.6051 C   0  0  2  0  0  0
  -32.2455  -21.8846   19.7413 C   0  0  0  0  0  0
  -30.6689  -16.3681   17.5707 C   0  0  0  0  0  0
  -28.1866  -16.1278   17.9439 C   0  0  0  0  0  0
  -27.8407  -24.4688   20.0761 C   0  0  0  0  0  0
  -29.4980  -16.6799   18.5174 C   0  0  0  0  0  0
  -30.0564  -22.9596   20.0336 N   0  0  0  0  0  0
  -29.7607  -16.3885   19.9730 N   0  0  0  0  0  0
  -31.4574  -12.9077   19.1473 H   0  0  0  0  0  0
  -30.4840  -11.8106   20.0857 H   0  0  0  0  0  0
  -29.8647  -11.6429   17.6682 H   0  0  0  0  0  0
  -29.5887  -13.3516   17.5811 H   0  0  0  0  0  0
  -27.9658  -11.2442   19.0189 H   0  0  0  0  0  0
  -27.3820  -12.3764   17.8334 H   0  0  0  0  0  0
  -27.4998  -14.1997   19.4046 H   0  0  0  0  0  0
  -28.8314  -12.4679   21.4919 H   0  0  0  0  0  0
  -28.3302  -14.1406   21.6633 H   0  0  0  0  0  0
  -25.2678   -9.5691   22.4753 H   0  0  0  0  0  0
  -23.9981   -7.4573   22.7440 H   0  0  0  0  0  0
  -21.0772   -8.8672   19.8937 H   0  0  0  0  0  0
  -22.3567  -10.9609   19.6152 H   0  0  0  0  0  0
  -21.1994   -7.6121   23.9731 H   0  0  0  0  0  0
  -21.1493   -6.0474   25.9096 H   0  0  0  0  0  0
  -22.0613   -2.7574   23.2829 H   0  0  0  0  0  0
  -22.3969  -11.9863   22.4846 H   0  0  0  0  0  0
  -21.1023  -13.1316   22.2680 H   0  0  0  0  0  0
  -24.6428  -15.8335   20.5483 H   0  0  0  0  0  0
  -26.2806  -15.6243   20.1732 H   0  0  0  0  0  0
  -26.7354  -32.5218   23.0933 H   0  0  0  0  0  0
  -25.0214  -33.9539   25.0305 H   0  0  0  0  0  0
  -22.7689  -31.2875   21.3712 H   0  0  0  0  0  0
  -23.3790  -35.9504   23.3197 H   0  0  0  0  0  0
  -24.3603  -36.8960   22.2073 H   0  0  0  0  0  0
  -23.7186  -37.6355   23.6744 H   0  0  0  0  0  0
  -26.1808  -31.4342   20.6177 H   0  0  0  0  0  0
  -26.8877  -30.7378   22.0393 H   0  0  0  0  0  0
  -28.1383  -28.7197   21.2529 H   0  0  0  0  0  0
  -25.8787  -25.8247   18.9827 H   0  0  0  0  0  0
  -23.9833  -27.3006   18.9650 H   0  0  0  0  0  0
  -23.8274  -30.5511   19.3936 H   0  0  0  0  0  0
  -22.7985  -29.2253   19.8425 H   0  0  0  0  0  0
  -25.1309  -36.1739   25.0778 H   0  0  0  0  0  0
  -20.9999  -28.3353   24.1326 H   0  0  0  0  0  0
  -20.5677  -26.2391   23.3628 H   0  0  0  0  0  0
  -21.6651  -26.7472   22.1197 H   0  0  0  0  0  0
  -19.6948  -25.6290   21.1287 H   0  0  0  0  0  0
  -19.6730  -27.3167   20.6708 H   0  0  0  0  0  0
  -17.4235  -26.6696   21.3999 H   0  0  0  0  0  0
  -18.0372  -26.0117   22.8990 H   0  0  0  0  0  0
  -19.7970  -30.7333   24.2168 H   0  0  0  0  0  0
  -17.5059  -31.6298   24.5171 H   0  0  0  0  0  0
  -15.5382  -30.2996   23.7760 H   0  0  0  0  0  0
  -15.8677  -28.0866   22.7085 H   0  0  0  0  0  0
  -24.5976  -30.7086   25.7696 H   0  0  0  0  0  0
  -24.8914  -32.2962   26.4670 H   0  0  0  0  0  0
  -25.8017  -30.9040   27.0213 H   0  0  0  0  0  0
  -26.3130  -29.6605   24.1353 H   0  0  0  0  0  0
  -27.4056  -29.7270   25.4983 H   0  0  0  0  0  0
  -27.9060  -30.4141   23.9731 H   0  0  0  0  0  0
  -27.2751  -33.3654   26.1968 H   0  0  0  0  0  0
  -28.3998  -32.6776   25.0340 H   0  0  0  0  0  0
  -28.0741  -31.8468   26.5454 H   0  0  0  0  0  0
  -28.2485  -38.0136   24.7645 H   0  0  0  0  0  0
  -28.1173  -36.2680   24.6046 H   0  0  0  0  0  0
  -27.2335  -37.1105   25.8841 H   0  0  0  0  0  0
  -20.9532  -29.8727   21.6669 H   0  0  0  0  0  0
  -26.0078  -38.2747   24.1587 H   0  0  0  0  0  0
  -27.0137  -21.6437   20.5895 H   0  0  0  0  0  0
  -27.7538  -18.6016   19.8026 H   0  0  0  0  0  0
  -27.8908  -18.7382   21.5351 H   0  0  0  0  0  0
  -31.7200  -18.9874   20.8026 H   0  0  0  0  0  0
  -31.2004  -18.8468   19.1462 H   0  0  0  0  0  0
  -29.9696  -17.7145   21.6628 H   0  0  0  0  0  0
  -32.4840  -21.4709   18.7605 H   0  0  0  0  0  0
  -32.8201  -21.3410   20.4917 H   0  0  0  0  0  0
  -32.5666  -22.9276   19.7669 H   0  0  0  0  0  0
  -30.4641  -16.7715   16.5770 H   0  0  0  0  0  0
  -30.8274  -15.2963   17.4607 H   0  0  0  0  0  0
  -31.5991  -16.8213   17.9099 H   0  0  0  0  0  0
  -27.9699  -16.5866   16.9784 H   0  0  0  0  0  0
  -27.3251  -16.3317   18.5832 H   0  0  0  0  0  0
  -28.2584  -15.0689   17.7259 H   0  0  0  0  0  0
  -26.9535  -24.3361   20.6957 H   0  0  0  0  0  0
  -27.4845  -24.3916   19.0495 H   0  0  0  0  0  0
  -29.3548  -17.7509   18.3727 H   0  0  0  0  0  0
  1 25  1  0  0  0
  1 30  2  0  0  0
  1 85  1  0  0  0
  2  3  1  0  0  0
  2 25  1  0  0  0
  2 86  1  0  0  0
  2 87  1  0  0  0
  3  4  1  0  0  0
  3 88  1  0  0  0
  3 89  1  0  0  0
  4  5  1  0  0  0
  4 90  1  0  0  0
  4 91  1  0  0  0
  5  6  1  0  0  0
  5 26  1  0  0  0
  5 92  1  0  0  0
  6 25  1  0  0  0
  6 93  1  0  0  0
  6 94  1  0  0  0
  7  8  2  0  0  0
  7 26  1  0  0  0
  7 29  1  0  0  0
  8  9  1  0  0  0
  8 22  1  0  0  0
  9 10  1  0  0  0
  9 27  2  0  0  0
 10 11  2  0  0  0
 10 15  1  0  0  0
 11 12  1  0  0  0
 11 95  1  0  0  0
 12 13  2  0  0  0
 12 96  1  0  0  0
 13 14  1  0  0  0
 13 31  1  0  0  0
 14 15  2  0  0  0
 14 97  1  0  0  0
 15 98  1  0  0  0
 16 17  2  0  0  0
 16 21  1  0  0  0
 16 31  1  0  0  0
 17 18  1  0  0  0
 17 99  1  0  0  0
 18 19  2  0  0  0
 18100  1  0  0  0
 19 20  1  0  0  0
 19 24  1  0  0  0
 20 21  2  0  0  0
 20101  1  0  0  0
 21 23  1  0  0  0
 22 28  1  0  0  0
 22 32  2  0  0  0
 26 27  1  0  0  0
 28102  1  0  0  0
 28103  1  0  0  0
 29104  1  0  0  0
 29105  1  0  0  0
 33 34  1  0  0  0
 33 66  1  0  0  0
 33 70  2  0  0  0
 34 36  1  0  0  0
 34 59  1  0  0  0
 34106  1  0  0  0
 35 44  2  0  0  0
 35 45  1  0  0  0
 35 68  1  0  0  0
 36 56  1  0  0  0
 36107  1  0  0  0
 37 39  1  0  0  0
 37 47  1  0  0  0
 37 66  1  0  0  0
 37108  1  0  0  0
 38 43  2  0  0  0
 38 46  1  0  0  0
 38 47  1  0  0  0
 39 64  1  0  0  0
 39 67  2  0  0  0
 40 52  1  0  0  0
 40 53  2  0  0  0
 40 58  1  0  0  0
 41109  1  0  0  0
 41110  1  0  0  0
 41111  1  0  0  0
 41 48  1  0  0  0
 42 43  1  0  0  0
 42 66  1  0  0  0
 42112  1  0  0  0
 42113  1  0  0  0
 43 44  1  0  0  0
 44114  1  0  0  0
 45 46  2  0  0  0
 45115  1  0  0  0
 46116  1  0  0  0
 47117  1  0  0  0
 47118  1  0  0  0
 48 56  1  0  0  0
 48 65  1  0  0  0
 48119  1  0  0  0
 49 50  1  0  0  0
 49 53  1  0  0  0
 49 64  1  0  0  0
 49120  1  0  0  0
 50 51  1  0  0  0
 50121  1  0  0  0
 50122  1  0  0  0
 51 52  1  0  0  0
 51123  1  0  0  0
 51124  1  0  0  0
 52125  1  0  0  0
 52126  1  0  0  0
 53 54  1  0  0  0
 54 55  2  0  0  0
 54127  1  0  0  0
 55 57  1  0  0  0
 55128  1  0  0  0
 56 69  2  0  0  0
 57 58  2  0  0  0
 57129  1  0  0  0
 58130  1  0  0  0
 59 60  1  0  0  0
 59 61  1  0  0  0
 59 62  1  0  0  0
 60131  1  0  0  0
 60132  1  0  0  0
 60133  1  0  0  0
 61134  1  0  0  0
 61135  1  0  0  0
 61136  1  0  0  0
 62137  1  0  0  0
 62138  1  0  0  0
 62139  1  0  0  0
 63 65  1  0  0  0
 63140  1  0  0  0
 63141  1  0  0  0
 63142  1  0  0  0
 64143  1  0  0  0
 65144  1  0  0  0
 68 82  1  0  0  0
 71 72  2  0  0  0
 71 74  1  0  0  0
 71145  1  0  0  0
 72 73  1  0  0  0
 72 76  1  0  0  0
 73 75  2  0  0  0
 73 77  1  0  0  0
 74 82  1  0  0  0
 74 84  2  0  0  0
 75 79  1  0  0  0
 75 84  1  0  0  0
 76 78  1  0  0  0
 76146  1  0  0  0
 76147  1  0  0  0
 77 78  1  0  0  0
 77148  1  0  0  0
 77149  1  0  0  0
 78 85  1  0  0  0
 78150  1  0  0  0
 79151  1  0  0  0
 79152  1  0  0  0
 79153  1  0  0  0
 80154  1  0  0  0
 80155  1  0  0  0
 80156  1  0  0  0
 80 83  1  0  0  0
 81 83  1  0  0  0
 81157  1  0  0  0
 81158  1  0  0  0
 81159  1  0  0  0
 82160  1  0  0  0
 82161  1  0  0  0
 83 85  1  0  0  0
 83162  1  0  0  0
M  ISO  4   1 100  68 101  82 101  85 100
M  END
> <chiral flag>
0

> <version>
0

> <s_m_source_file>
/data/baiqing/PycharmProjects/Reinvent-master-3.2/result/LINK_invent/BTK/process_docking_weight1_custom_sum_contain_oxygen_bond_distance_aromatic_linkinvent_7_9_3/rearranged_h_0114.sdf

> <i_m_source_file_index>
81

> <r_mmod_Potential_Energy-OPLS-2005>
913.048461914062

> <r_mmod_Stretch_Energy-OPLS-2005>
337.857055664062

> <r_mmod_Bend_Energy-OPLS-2005>
364.148101806641

> <r_mmod_Torsional_Energy-OPLS-2005>
340.301483154297

> <r_mmod_Improper_Torsional_Energy-OPLS-2005>
12.8626375198364

> <r_mmod_Van_der_Waal_Energy-OPLS-2005>
135.722946166992

> <r_mmod_Electrostatic_Energy-OPLS-2005>
-389.403350830078

> <r_mmod_Solvation_Energy-OPLS-2005>
-216.781875610352

> <b_mmod_Minimization_Converged-OPLS-2005>
0

> <r_mmod_RMS_Derivative-OPLS-2005>
4.15021228790283

$$$$
81
                    3D
 Structure written by MMmdl.
155163  0  0  1  0            999 V2000
  -30.5019  -15.2020   20.3865 C   0  0  0  0  0  0
  -30.4334  -12.7689   19.5234 C   0  0  0  0  0  0
  -29.5306  -12.5638   18.2836 C   0  0  0  0  0  0
  -28.0794  -12.2963   18.7145 C   0  0  0  0  0  0
  -27.6137  -13.2739   19.8232 C   0  0  2  0  0  0
  -28.6497  -13.4431   20.9569 C   0  0  0  0  0  0
  -25.2396  -13.8256   20.5751 C   0  0  0  0  0  0
  -24.1746  -13.0442   20.9257 C   0  0  0  0  0  0
  -24.6394  -11.6935   20.8762 C   0  0  0  0  0  0
  -23.9085  -10.4293   21.0401 C   0  0  0  0  0  0
  -24.3630   -9.4206   21.9176 C   0  0  0  0  0  0
  -23.6307   -8.2243   22.0746 C   0  0  0  0  0  0
  -22.4287   -8.0281   21.3538 C   0  0  0  0  0  0
  -21.9923   -9.0256   20.4642 C   0  0  0  0  0  0
  -22.7253  -10.2135   20.3051 C   0  0  0  0  0  0
  -21.6860   -6.0733   22.5273 C   0  0  0  0  0  0
  -21.4019   -6.5631   23.8209 C   0  0  0  0  0  0
  -21.3664   -5.6785   24.9172 C   0  0  0  0  0  0
  -21.6047   -4.3050   24.7222 C   0  0  0  0  0  0
  -21.8819   -3.8141   23.4345 C   0  0  0  0  0  0
  -21.9193   -4.6958   22.3400 C   0  0  0  0  0  0
  -22.7761  -13.5198   21.1892 C   0  0  0  0  0  0
  -22.1657   -4.2143   21.0978 F   0  0  0  0  0  0
  -21.5629   -3.4537   25.7734 F   0  0  0  0  0  0
  -29.8902  -13.9225   20.3279 N   0  0  0  0  0  0
  -26.2826  -12.9531   20.3231 N   0  0  0  0  0  0
  -25.9332  -11.6632   20.5732 N   0  0  0  0  0  0
  -22.0409  -12.8196   22.0452 N   0  0  0  0  0  0
  -25.4037  -15.1991   20.4177 N   0  0  0  0  0  0
  -31.7237  -15.1438   20.1935 O   0  0  0  0  0  0
  -21.6642   -6.8883   21.4238 O   0  0  0  0  0  0
  -22.3444  -14.5491   20.6714 O   0  0  0  0  0  0
  -24.6602  -31.8284   23.1753 C   0  0  0  0  0  0
  -25.9299  -32.4615   23.8209 C   0  0  1  0  0  0
  -27.2153  -26.9633   20.1723 C   0  0  0  0  0  0
  -25.5979  -33.8427   24.2113 N   0  0  0  0  0  0
  -23.4738  -30.4440   21.5236 C   0  0  2  0  0  0
  -24.9264  -28.8444   20.1103 C   0  0  0  0  0  0
  -22.7659  -29.4472   22.4786 C   0  0  0  0  0  0
  -18.0322  -28.1405   22.8474 C   0  0  0  0  0  0
  -24.1493  -36.7217   23.2650 C   0  0  0  0  0  0
  -26.0426  -30.6449   21.4042 C   0  0  0  0  0  0
  -26.1099  -29.2406   20.7448 C   0  0  0  0  0  0
  -27.2483  -28.3194   20.7571 C   0  0  0  0  0  0
  -25.9992  -26.7187   19.4900 C   0  0  0  0  0  0
  -24.8940  -27.6014   19.4647 C   0  0  0  0  0  0
  -23.7126  -29.7680   20.1470 C   0  0  0  0  0  0
  -25.4131  -36.2987   24.0308 C   0  0  1  0  0  0
  -20.5947  -28.3753   23.1190 C   0  0  2  0  0  0
  -20.6797  -26.9438   22.5402 C   0  0  0  0  0  0
  -19.5769  -26.6377   21.5218 C   0  0  0  0  0  0
  -18.1952  -26.7937   22.1628 C   0  0  0  0  0  0
  -19.1585  -28.8898   23.2821 C   0  0  0  0  0  0
  -18.9494  -30.1487   23.8860 C   0  0  0  0  0  0
  -17.6489  -30.6597   24.0555 C   0  0  0  0  0  0
  -25.9092  -34.9363   23.5029 C   0  0  0  0  0  0
  -16.5378  -29.9088   23.6339 C   0  0  0  0  0  0
  -16.7305  -28.6504   23.0365 C   0  0  0  0  0  0
  -26.4555  -31.6548   25.0725 C   0  0  0  0  0  0
  -25.3691  -31.3792   26.1393 C   0  0  0  0  0  0
  -27.0456  -30.2920   24.6446 C   0  0  0  0  0  0
  -27.6045  -32.4359   25.7525 C   0  0  0  0  0  0
  -27.5565  -37.1772   24.8470 C   0  0  0  0  0  0
  -21.4330  -29.3052   22.3542 N   0  0  0  0  0  0
  -26.4283  -37.3713   23.9404 N   0  0  0  0  0  0
  -24.7467  -30.9979   22.0881 N   0  0  0  0  0  0
  -23.4224  -28.8031   23.3006 O   0  0  0  0  0  0
  -28.2044  -25.8551   20.2828 O   0  0  0  0  0  0
  -26.5698  -34.8888   22.4622 O   0  0  0  0  0  0
  -23.5680  -32.1240   23.6861 O   0  0  0  0  0  0
  -28.1708  -20.1410   20.5079 C   0  0  0  0  0  0
  -27.7277  -21.5572   20.4509 C   0  0  0  0  0  0
  -30.2870  -20.9357   20.1764 C   0  0  0  0  0  0
  -29.5366  -19.6821   20.3508 C   0  0  0  0  0  0
  -28.5618  -22.7377   20.2532 C   0  0  0  0  0  0
  -28.1473  -24.3862   18.2881 C   0  0  0  0  0  0
  -31.3055  -18.2175   21.5149 C   0  0  0  0  0  0
  -31.0846  -18.1210   19.0147 C   0  0  0  0  0  0
  -27.9575  -24.3123   19.8119 C   0  0  2  0  0  0
  -30.2995  -18.1007   20.3483 C   0  0  0  0  0  0
  -29.8694  -22.2951   20.1147 N   0  0  0  0  0  0
  -29.8084  -16.5129   20.4544 N   0  0  0  0  0  0
  -31.4567  -12.9488   19.1919 H   0  0  0  0  0  0
  -30.4803  -11.8610   20.1272 H   0  0  0  0  0  0
  -29.9034  -11.7398   17.6735 H   0  0  0  0  0  0
  -29.5673  -13.4546   17.6549 H   0  0  0  0  0  0
  -28.0341  -11.2736   19.0901 H   0  0  0  0  0  0
  -27.4097  -12.3356   17.8549 H   0  0  0  0  0  0
  -27.5330  -14.2418   19.3270 H   0  0  0  0  0  0
  -28.8033  -12.5110   21.5026 H   0  0  0  0  0  0
  -28.2990  -14.1786   21.6832 H   0  0  0  0  0  0
  -25.2774   -9.5693   22.4750 H   0  0  0  0  0  0
  -24.0008   -7.4644   22.7478 H   0  0  0  0  0  0
  -21.0845   -8.8783   19.8966 H   0  0  0  0  0  0
  -22.3701  -10.9670   19.6161 H   0  0  0  0  0  0
  -21.2012   -7.6139   23.9713 H   0  0  0  0  0  0
  -21.1486   -6.0512   25.9075 H   0  0  0  0  0  0
  -22.0595   -2.7603   23.2841 H   0  0  0  0  0  0
  -22.4027  -11.9885   22.4883 H   0  0  0  0  0  0
  -21.1018  -13.1214   22.2628 H   0  0  0  0  0  0
  -24.6333  -15.8498   20.5285 H   0  0  0  0  0  0
  -26.2463  -15.6391   20.0714 H   0  0  0  0  0  0
  -26.7373  -32.5159   23.0928 H   0  0  0  0  0  0
  -25.0070  -33.9518   25.0230 H   0  0  0  0  0  0
  -22.7858  -31.2755   21.3577 H   0  0  0  0  0  0
  -23.3756  -35.9546   23.3306 H   0  0  0  0  0  0
  -24.3568  -36.8861   22.2063 H   0  0  0  0  0  0
  -23.7249  -37.6410   23.6701 H   0  0  0  0  0  0
  -26.2223  -31.3882   20.6267 H   0  0  0  0  0  0
  -26.9039  -30.6970   22.0579 H   0  0  0  0  0  0
  -28.1395  -28.6169   21.2919 H   0  0  0  0  0  0
  -25.8396  -25.7737   18.9966 H   0  0  0  0  0  0
  -23.9935  -27.2886   18.9539 H   0  0  0  0  0  0
  -23.8693  -30.5404   19.3934 H   0  0  0  0  0  0
  -22.8234  -29.2232   19.8255 H   0  0  0  0  0  0
  -25.1329  -36.1791   25.0800 H   0  0  0  0  0  0
  -21.0042  -28.3354   24.1310 H   0  0  0  0  0  0
  -20.5681  -26.2374   23.3643 H   0  0  0  0  0  0
  -21.6660  -26.7419   22.1206 H   0  0  0  0  0  0
  -19.6925  -25.6277   21.1277 H   0  0  0  0  0  0
  -19.6696  -27.3161   20.6727 H   0  0  0  0  0  0
  -17.4222  -26.6687   21.4027 H   0  0  0  0  0  0
  -18.0341  -26.0087   22.9030 H   0  0  0  0  0  0
  -19.7972  -30.7307   24.2213 H   0  0  0  0  0  0
  -17.5044  -31.6275   24.5165 H   0  0  0  0  0  0
  -15.5378  -30.2977   23.7682 H   0  0  0  0  0  0
  -15.8704  -28.0806   22.7106 H   0  0  0  0  0  0
  -24.5860  -30.7163   25.7699 H   0  0  0  0  0  0
  -24.8903  -32.2998   26.4740 H   0  0  0  0  0  0
  -25.7930  -30.9000   27.0228 H   0  0  0  0  0  0
  -26.3129  -29.6589   24.1431 H   0  0  0  0  0  0
  -27.3975  -29.7287   25.5099 H   0  0  0  0  0  0
  -27.9073  -30.4110   23.9875 H   0  0  0  0  0  0
  -27.2605  -33.3683   26.2013 H   0  0  0  0  0  0
  -28.3901  -32.6888   25.0393 H   0  0  0  0  0  0
  -28.0670  -31.8556   26.5519 H   0  0  0  0  0  0
  -28.2596  -38.0053   24.7492 H   0  0  0  0  0  0
  -28.1052  -36.2584   24.6339 H   0  0  0  0  0  0
  -27.2283  -37.1467   25.8875 H   0  0  0  0  0  0
  -20.9575  -29.8758   21.6690 H   0  0  0  0  0  0
  -26.0136  -38.2781   24.1387 H   0  0  0  0  0  0
  -27.4107  -19.3869   20.6544 H   0  0  0  0  0  0
  -26.6622  -21.7303   20.5178 H   0  0  0  0  0  0
  -31.3562  -20.8550   20.0531 H   0  0  0  0  0  0
  -27.6807  -25.2606   17.8398 H   0  0  0  0  0  0
  -27.7327  -23.5026   17.8027 H   0  0  0  0  0  0
  -29.2089  -24.4265   18.0445 H   0  0  0  0  0  0
  -31.9420  -19.0975   21.4273 H   0  0  0  0  0  0
  -31.9841  -17.3677   21.5787 H   0  0  0  0  0  0
  -30.7857  -18.2907   22.4710 H   0  0  0  0  0  0
  -31.7310  -18.9931   18.9204 H   0  0  0  0  0  0
  -30.4031  -18.1300   18.1642 H   0  0  0  0  0  0
  -31.7435  -17.2654   18.8845 H   0  0  0  0  0  0
  -26.8955  -24.1714   20.0065 H   0  0  0  0  0  0
  -28.8110  -16.4096   20.5724 H   0  0  0  0  0  0
  1 25  1  0  0  0
  1 30  2  0  0  0
  1 82  1  0  0  0
  2  3  1  0  0  0
  2 25  1  0  0  0
  2 83  1  0  0  0
  2 84  1  0  0  0
  3  4  1  0  0  0
  3 85  1  0  0  0
  3 86  1  0  0  0
  4  5  1  0  0  0
  4 87  1  0  0  0
  4 88  1  0  0  0
  5  6  1  0  0  0
  5 26  1  0  0  0
  5 89  1  0  0  0
  6 25  1  0  0  0
  6 90  1  0  0  0
  6 91  1  0  0  0
  7  8  2  0  0  0
  7 26  1  0  0  0
  7 29  1  0  0  0
  8  9  1  0  0  0
  8 22  1  0  0  0
  9 10  1  0  0  0
  9 27  2  0  0  0
 10 11  2  0  0  0
 10 15  1  0  0  0
 11 12  1  0  0  0
 11 92  1  0  0  0
 12 13  2  0  0  0
 12 93  1  0  0  0
 13 14  1  0  0  0
 13 31  1  0  0  0
 14 15  2  0  0  0
 14 94  1  0  0  0
 15 95  1  0  0  0
 16 17  2  0  0  0
 16 21  1  0  0  0
 16 31  1  0  0  0
 17 18  1  0  0  0
 17 96  1  0  0  0
 18 19  2  0  0  0
 18 97  1  0  0  0
 19 20  1  0  0  0
 19 24  1  0  0  0
 20 21  2  0  0  0
 20 98  1  0  0  0
 21 23  1  0  0  0
 22 28  1  0  0  0
 22 32  2  0  0  0
 26 27  1  0  0  0
 28 99  1  0  0  0
 28100  1  0  0  0
 29101  1  0  0  0
 29102  1  0  0  0
 33 34  1  0  0  0
 33 66  1  0  0  0
 33 70  2  0  0  0
 34 36  1  0  0  0
 34 59  1  0  0  0
 34103  1  0  0  0
 35 44  2  0  0  0
 35 45  1  0  0  0
 35 68  1  0  0  0
 36 56  1  0  0  0
 36104  1  0  0  0
 37 39  1  0  0  0
 37 47  1  0  0  0
 37 66  1  0  0  0
 37105  1  0  0  0
 38 43  2  0  0  0
 38 46  1  0  0  0
 38 47  1  0  0  0
 39 64  1  0  0  0
 39 67  2  0  0  0
 40 52  1  0  0  0
 40 53  2  0  0  0
 40 58  1  0  0  0
 41106  1  0  0  0
 41107  1  0  0  0
 41108  1  0  0  0
 41 48  1  0  0  0
 42 43  1  0  0  0
 42 66  1  0  0  0
 42109  1  0  0  0
 42110  1  0  0  0
 43 44  1  0  0  0
 44111  1  0  0  0
 45 46  2  0  0  0
 45112  1  0  0  0
 46113  1  0  0  0
 47114  1  0  0  0
 47115  1  0  0  0
 48 56  1  0  0  0
 48 65  1  0  0  0
 48116  1  0  0  0
 49 50  1  0  0  0
 49 53  1  0  0  0
 49 64  1  0  0  0
 49117  1  0  0  0
 50 51  1  0  0  0
 50118  1  0  0  0
 50119  1  0  0  0
 51 52  1  0  0  0
 51120  1  0  0  0
 51121  1  0  0  0
 52122  1  0  0  0
 52123  1  0  0  0
 53 54  1  0  0  0
 54 55  2  0  0  0
 54124  1  0  0  0
 55 57  1  0  0  0
 55125  1  0  0  0
 56 69  2  0  0  0
 57 58  2  0  0  0
 57126  1  0  0  0
 58127  1  0  0  0
 59 60  1  0  0  0
 59 61  1  0  0  0
 59 62  1  0  0  0
 60128  1  0  0  0
 60129  1  0  0  0
 60130  1  0  0  0
 61131  1  0  0  0
 61132  1  0  0  0
 61133  1  0  0  0
 62134  1  0  0  0
 62135  1  0  0  0
 62136  1  0  0  0
 63 65  1  0  0  0
 63137  1  0  0  0
 63138  1  0  0  0
 63139  1  0  0  0
 64140  1  0  0  0
 65141  1  0  0  0
 68 79  1  0  0  0
 71 72  2  0  0  0
 71 74  1  0  0  0
 71142  1  0  0  0
 72 75  1  0  0  0
 72143  1  0  0  0
 73 74  2  0  0  0
 73 81  1  0  0  0
 73144  1  0  0  0
 74 80  1  0  0  0
 75 79  1  0  0  0
 75 81  2  0  0  0
 76145  1  0  0  0
 76146  1  0  0  0
 76147  1  0  0  0
 76 79  1  0  0  0
 77148  1  0  0  0
 77149  1  0  0  0
 77150  1  0  0  0
 77 80  1  0  0  0
 78 80  1  0  0  0
 78151  1  0  0  0
 78152  1  0  0  0
 78153  1  0  0  0
 79154  1  0  0  0
 80 82  1  0  0  0
 82155  1  0  0  0
M  ISO  4   1 100  68 101  79 101  82 100
M  END
> <chiral flag>
0

> <version>
0

> <s_m_source_file>
/data/baiqing/PycharmProjects/Reinvent-master-3.2/result/LINK_invent/BTK/process_docking_weight1_custom_sum_contain_oxygen_bond_distance_aromatic_linkinvent_7_9_3/rearranged_h_0114.sdf

> <i_m_source_file_index>
82

> <r_mmod_Potential_Energy-OPLS-2005>
1023.31121826172

> <r_mmod_Stretch_Energy-OPLS-2005>
489.559112548828

> <r_mmod_Bend_Energy-OPLS-2005>
456.365997314453

> <r_mmod_Torsional_Energy-OPLS-2005>
196.841979980469

> <r_mmod_Improper_Torsional_Energy-OPLS-2005>
6.93181657791138

> <r_mmod_Van_der_Waal_Energy-OPLS-2005>
144.132583618164

> <r_mmod_Electrostatic_Energy-OPLS-2005>
-452.651214599609

> <r_mmod_Solvation_Energy-OPLS-2005>
-219.440399169922

> <b_mmod_Minimization_Converged-OPLS-2005>
0

> <r_mmod_RMS_Derivative-OPLS-2005>
1.33793354034424

$$$$
82
                    3D
 Structure written by MMmdl.
144152  0  0  1  0            999 V2000
  -30.3348  -15.5667   20.3466 C   0  0  0  0  0  0
  -30.4245  -13.0334   19.5300 C   0  0  0  0  0  0
  -29.5438  -12.6383   18.3125 C   0  0  0  0  0  0
  -28.1136  -12.2969   18.7572 C   0  0  0  0  0  0
  -27.5966  -13.3020   19.8122 C   0  0  2  0  0  0
  -28.6173  -13.6120   20.9306 C   0  0  0  0  0  0
  -25.2342  -13.8287   20.5802 C   0  0  0  0  0  0
  -24.1715  -13.0441   20.9273 C   0  0  0  0  0  0
  -24.6406  -11.6947   20.8758 C   0  0  0  0  0  0
  -23.9109  -10.4296   21.0396 C   0  0  0  0  0  0
  -24.3648   -9.4209   21.9178 C   0  0  0  0  0  0
  -23.6312   -8.2249   22.0752 C   0  0  0  0  0  0
  -22.4292   -8.0287   21.3544 C   0  0  0  0  0  0
  -21.9936   -9.0262   20.4643 C   0  0  0  0  0  0
  -22.7276  -10.2135   20.3049 C   0  0  0  0  0  0
  -21.6859   -6.0741   22.5279 C   0  0  0  0  0  0
  -21.4019   -6.5643   23.8213 C   0  0  0  0  0  0
  -21.3661   -5.6794   24.9174 C   0  0  0  0  0  0
  -21.6044   -4.3057   24.7224 C   0  0  0  0  0  0
  -21.8818   -3.8150   23.4344 C   0  0  0  0  0  0
  -21.9194   -4.6968   22.3401 C   0  0  0  0  0  0
  -22.7729  -13.5174   21.1915 C   0  0  0  0  0  0
  -22.1662   -4.2153   21.0979 F   0  0  0  0  0  0
  -21.5627   -3.4540   25.7736 F   0  0  0  0  0  0
  -29.7978  -14.2142   20.2731 N   0  0  0  0  0  0
  -26.2775  -12.9601   20.3238 N   0  0  0  0  0  0
  -25.9351  -11.6677   20.5703 N   0  0  0  0  0  0
  -22.0397  -12.8147   22.0467 N   0  0  0  0  0  0
  -25.3982  -15.2030   20.4294 N   0  0  0  0  0  0
  -31.5689  -15.5001   20.1847 O   0  0  0  0  0  0
  -21.6649   -6.8888   21.4243 O   0  0  0  0  0  0
  -22.3402  -14.5473   20.6755 O   0  0  0  0  0  0
  -24.6812  -31.8027   23.1535 C   0  0  0  0  0  0
  -25.9406  -32.4481   23.8072 C   0  0  1  0  0  0
  -27.2239  -26.7311   20.2121 C   0  0  0  0  0  0
  -25.5995  -33.8304   24.1962 N   0  0  0  0  0  0
  -23.5056  -30.4057   21.5071 C   0  0  2  0  0  0
  -24.9615  -28.7510   20.1185 C   0  0  0  0  0  0
  -22.7752  -29.4331   22.4721 C   0  0  0  0  0  0
  -18.0336  -28.1420   22.8457 C   0  0  0  0  0  0
  -24.1495  -36.7159   23.2652 C   0  0  0  0  0  0
  -26.0847  -30.5455   21.4126 C   0  0  0  0  0  0
  -26.1506  -29.1132   20.7626 C   0  0  0  0  0  0
  -27.2689  -28.1309   20.7752 C   0  0  0  0  0  0
  -26.0013  -26.5688   19.5144 C   0  0  0  0  0  0
  -24.9240  -27.5038   19.4710 C   0  0  0  0  0  0
  -23.7572  -29.7037   20.1418 C   0  0  0  0  0  0
  -25.4144  -36.2903   24.0284 C   0  0  1  0  0  0
  -20.5970  -28.3777   23.1149 C   0  0  2  0  0  0
  -20.6803  -26.9439   22.5404 C   0  0  0  0  0  0
  -19.5780  -26.6372   21.5216 C   0  0  0  0  0  0
  -18.1962  -26.7948   22.1620 C   0  0  0  0  0  0
  -19.1602  -28.8923   23.2784 C   0  0  0  0  0  0
  -18.9508  -30.1507   23.8829 C   0  0  0  0  0  0
  -17.6498  -30.6603   24.0551 C   0  0  0  0  0  0
  -25.9123  -34.9292   23.4958 C   0  0  0  0  0  0
  -16.5388  -29.9086   23.6349 C   0  0  0  0  0  0
  -16.7316  -28.6508   23.0367 C   0  0  0  0  0  0
  -26.4593  -31.6505   25.0683 C   0  0  0  0  0  0
  -25.3666  -31.3814   26.1303 C   0  0  0  0  0  0
  -27.0521  -30.2847   24.6562 C   0  0  0  0  0  0
  -27.6045  -32.4360   25.7502 C   0  0  0  0  0  0
  -27.5564  -37.1737   24.8466 C   0  0  0  0  0  0
  -21.4403  -29.3029   22.3471 N   0  0  0  0  0  0
  -26.4272  -37.3662   23.9407 N   0  0  0  0  0  0
  -24.7805  -30.9502   22.0771 N   0  0  0  0  0  0
  -23.4209  -28.7931   23.3055 O   0  0  0  0  0  0
  -28.2008  -25.5346   20.2761 O   0  0  0  0  0  0
  -26.5760  -34.8866   22.4573 O   0  0  0  0  0  0
  -23.5839  -32.1087   23.6508 O   0  0  0  0  0  0
  -30.0396  -17.8618   21.4787 C   0  0  0  0  0  0
  -29.7551  -18.6422   20.2356 C   0  0  2  0  0  0
  -28.7224  -20.2323   20.3003 C   0  0  0  0  0  0
  -28.9880  -22.1426   20.2838 C   0  0  0  0  0  0
  -27.9974  -23.7985   20.2111 C   0  0  0  0  0  0
  -29.5930  -16.9310   20.4624 N   0  0  0  0  0  0
  -31.4218  -13.2849   19.1675 H   0  0  0  0  0  0
  -30.5707  -12.1814   20.1962 H   0  0  0  0  0  0
  -29.9844  -11.7962   17.7772 H   0  0  0  0  0  0
  -29.5148  -13.4700   17.6070 H   0  0  0  0  0  0
  -28.1296  -11.2948   19.1874 H   0  0  0  0  0  0
  -27.4420  -12.2537   17.8988 H   0  0  0  0  0  0
  -27.4661  -14.2304   19.2540 H   0  0  0  0  0  0
  -28.8640  -12.7241   21.5146 H   0  0  0  0  0  0
  -28.1976  -14.3365   21.6304 H   0  0  0  0  0  0
  -25.2788   -9.5685   22.4762 H   0  0  0  0  0  0
  -24.0015   -7.4642   22.7477 H   0  0  0  0  0  0
  -21.0866   -8.8787   19.8950 H   0  0  0  0  0  0
  -22.3733  -10.9675   19.6160 H   0  0  0  0  0  0
  -21.2014   -7.6152   23.9717 H   0  0  0  0  0  0
  -21.1483   -6.0524   25.9077 H   0  0  0  0  0  0
  -22.0596   -2.7612   23.2844 H   0  0  0  0  0  0
  -22.4041  -11.9821   22.4857 H   0  0  0  0  0  0
  -21.1004  -13.1140   22.2671 H   0  0  0  0  0  0
  -24.6358  -15.8589   20.5604 H   0  0  0  0  0  0
  -26.2605  -15.6497   20.1420 H   0  0  0  0  0  0
  -26.7486  -32.4961   23.0784 H   0  0  0  0  0  0
  -25.0058  -33.9347   25.0059 H   0  0  0  0  0  0
  -22.8294  -31.2424   21.3191 H   0  0  0  0  0  0
  -23.3775  -35.9469   23.3265 H   0  0  0  0  0  0
  -24.3564  -36.8868   22.2076 H   0  0  0  0  0  0
  -23.7237  -37.6318   23.6758 H   0  0  0  0  0  0
  -26.2846  -31.2724   20.6243 H   0  0  0  0  0  0
  -26.9369  -30.6120   22.0767 H   0  0  0  0  0  0
  -28.1663  -28.4147   21.3067 H   0  0  0  0  0  0
  -25.8405  -25.6233   19.0164 H   0  0  0  0  0  0
  -24.0254  -27.2180   18.9417 H   0  0  0  0  0  0
  -23.9305  -30.4639   19.3793 H   0  0  0  0  0  0
  -22.8623  -29.1690   19.8188 H   0  0  0  0  0  0
  -25.1353  -36.1669   25.0774 H   0  0  0  0  0  0
  -21.0054  -28.3401   24.1274 H   0  0  0  0  0  0
  -20.5668  -26.2401   23.3664 H   0  0  0  0  0  0
  -21.6665  -26.7385   22.1222 H   0  0  0  0  0  0
  -19.6936  -25.6264   21.1291 H   0  0  0  0  0  0
  -19.6723  -27.3144   20.6716 H   0  0  0  0  0  0
  -17.4232  -26.6691   21.4023 H   0  0  0  0  0  0
  -18.0351  -26.0107   22.9032 H   0  0  0  0  0  0
  -19.7983  -30.7341   24.2168 H   0  0  0  0  0  0
  -17.5048  -31.6276   24.5167 H   0  0  0  0  0  0
  -15.5385  -30.2966   23.7713 H   0  0  0  0  0  0
  -15.8717  -28.0802   22.7122 H   0  0  0  0  0  0
  -24.5875  -30.7137   25.7604 H   0  0  0  0  0  0
  -24.8827  -32.3033   26.4538 H   0  0  0  0  0  0
  -25.7850  -30.9102   27.0206 H   0  0  0  0  0  0
  -26.3233  -29.6467   24.1554 H   0  0  0  0  0  0
  -27.3960  -29.7285   25.5293 H   0  0  0  0  0  0
  -27.9208  -30.3979   24.0074 H   0  0  0  0  0  0
  -27.2587  -33.3729   26.1882 H   0  0  0  0  0  0
  -28.3958  -32.6813   25.0406 H   0  0  0  0  0  0
  -28.0600  -31.8621   26.5582 H   0  0  0  0  0  0
  -28.2551  -38.0060   24.7514 H   0  0  0  0  0  0
  -28.1090  -36.2583   24.6294 H   0  0  0  0  0  0
  -27.2279  -37.1374   25.8868 H   0  0  0  0  0  0
  -20.9702  -29.8686   21.6542 H   0  0  0  0  0  0
  -26.0101  -38.2710   24.1419 H   0  0  0  0  0  0
  -29.3574  -18.0013   22.3147 H   0  0  0  0  0  0
  -31.0834  -17.8012   21.7837 H   0  0  0  0  0  0
  -30.6053  -18.8384   19.5848 H   0  0  0  0  0  0
  -28.0745  -20.0758   21.1629 H   0  0  0  0  0  0
  -28.0440  -20.0948   19.4580 H   0  0  0  0  0  0
  -29.6095  -22.2905   21.1669 H   0  0  0  0  0  0
  -29.6912  -22.2670   19.4602 H   0  0  0  0  0  0
  -27.2505  -23.6563   20.9923 H   0  0  0  0  0  0
  -27.4228  -23.6889   19.2914 H   0  0  0  0  0  0
  1 25  1  0  0  0
  1 30  2  0  0  0
  1 76  1  0  0  0
  2  3  1  0  0  0
  2 25  1  0  0  0
  2 77  1  0  0  0
  2 78  1  0  0  0
  3  4  1  0  0  0
  3 79  1  0  0  0
  3 80  1  0  0  0
  4  5  1  0  0  0
  4 81  1  0  0  0
  4 82  1  0  0  0
  5  6  1  0  0  0
  5 26  1  0  0  0
  5 83  1  0  0  0
  6 25  1  0  0  0
  6 84  1  0  0  0
  6 85  1  0  0  0
  7  8  2  0  0  0
  7 26  1  0  0  0
  7 29  1  0  0  0
  8  9  1  0  0  0
  8 22  1  0  0  0
  9 10  1  0  0  0
  9 27  2  0  0  0
 10 11  2  0  0  0
 10 15  1  0  0  0
 11 12  1  0  0  0
 11 86  1  0  0  0
 12 13  2  0  0  0
 12 87  1  0  0  0
 13 14  1  0  0  0
 13 31  1  0  0  0
 14 15  2  0  0  0
 14 88  1  0  0  0
 15 89  1  0  0  0
 16 17  2  0  0  0
 16 21  1  0  0  0
 16 31  1  0  0  0
 17 18  1  0  0  0
 17 90  1  0  0  0
 18 19  2  0  0  0
 18 91  1  0  0  0
 19 20  1  0  0  0
 19 24  1  0  0  0
 20 21  2  0  0  0
 20 92  1  0  0  0
 21 23  1  0  0  0
 22 28  1  0  0  0
 22 32  2  0  0  0
 26 27  1  0  0  0
 28 93  1  0  0  0
 28 94  1  0  0  0
 29 95  1  0  0  0
 29 96  1  0  0  0
 33 34  1  0  0  0
 33 66  1  0  0  0
 33 70  2  0  0  0
 34 36  1  0  0  0
 34 59  1  0  0  0
 34 97  1  0  0  0
 35 44  2  0  0  0
 35 45  1  0  0  0
 35 68  1  0  0  0
 36 56  1  0  0  0
 36 98  1  0  0  0
 37 39  1  0  0  0
 37 47  1  0  0  0
 37 66  1  0  0  0
 37 99  1  0  0  0
 38 43  2  0  0  0
 38 46  1  0  0  0
 38 47  1  0  0  0
 39 64  1  0  0  0
 39 67  2  0  0  0
 40 52  1  0  0  0
 40 53  2  0  0  0
 40 58  1  0  0  0
 41100  1  0  0  0
 41101  1  0  0  0
 41102  1  0  0  0
 41 48  1  0  0  0
 42 43  1  0  0  0
 42 66  1  0  0  0
 42103  1  0  0  0
 42104  1  0  0  0
 43 44  1  0  0  0
 44105  1  0  0  0
 45 46  2  0  0  0
 45106  1  0  0  0
 46107  1  0  0  0
 47108  1  0  0  0
 47109  1  0  0  0
 48 56  1  0  0  0
 48 65  1  0  0  0
 48110  1  0  0  0
 49 50  1  0  0  0
 49 53  1  0  0  0
 49 64  1  0  0  0
 49111  1  0  0  0
 50 51  1  0  0  0
 50112  1  0  0  0
 50113  1  0  0  0
 51 52  1  0  0  0
 51114  1  0  0  0
 51115  1  0  0  0
 52116  1  0  0  0
 52117  1  0  0  0
 53 54  1  0  0  0
 54 55  2  0  0  0
 54118  1  0  0  0
 55 57  1  0  0  0
 55119  1  0  0  0
 56 69  2  0  0  0
 57 58  2  0  0  0
 57120  1  0  0  0
 58121  1  0  0  0
 59 60  1  0  0  0
 59 61  1  0  0  0
 59 62  1  0  0  0
 60122  1  0  0  0
 60123  1  0  0  0
 60124  1  0  0  0
 61125  1  0  0  0
 61126  1  0  0  0
 61127  1  0  0  0
 62128  1  0  0  0
 62129  1  0  0  0
 62130  1  0  0  0
 63 65  1  0  0  0
 63131  1  0  0  0
 63132  1  0  0  0
 63133  1  0  0  0
 64134  1  0  0  0
 65135  1  0  0  0
 68 75  1  0  0  0
 71 72  1  0  0  0
 71 76  1  0  0  0
 71136  1  0  0  0
 71137  1  0  0  0
 72 73  1  0  0  0
 72 76  1  0  0  0
 72138  1  0  0  0
 73 74  1  0  0  0
 73139  1  0  0  0
 73140  1  0  0  0
 74 75  1  0  0  0
 74141  1  0  0  0
 74142  1  0  0  0
 75143  1  0  0  0
 75144  1  0  0  0
M  ISO  4   1 100  68 101  75 101  76 100
M  END
> <chiral flag>
0

> <version>
0

> <s_m_source_file>
/data/baiqing/PycharmProjects/Reinvent-master-3.2/result/LINK_invent/BTK/process_docking_weight1_custom_sum_contain_oxygen_bond_distance_aromatic_linkinvent_7_9_3/rearranged_h_0114.sdf

> <i_m_source_file_index>
83

> <r_mmod_Potential_Energy-OPLS-2005>
2442.59130859375

> <r_mmod_Stretch_Energy-OPLS-2005>
1112.06115722656

> <r_mmod_Bend_Energy-OPLS-2005>
620.456420898438

> <r_mmod_Torsional_Energy-OPLS-2005>
299.412384033203

> <r_mmod_Improper_Torsional_Energy-OPLS-2005>
9.5925350189209

> <r_mmod_Van_der_Waal_Energy-OPLS-2005>
109.432060241699

> <r_mmod_Electrostatic_Energy-OPLS-2005>
-317.700286865234

> <r_mmod_Solvation_Energy-OPLS-2005>
-205.654998779297

> <b_mmod_Minimization_Converged-OPLS-2005>
1

> <r_mmod_RMS_Derivative-OPLS-2005>
0.0368149913847446

$$$$
83
                    3D
 Structure written by MMmdl.
172181  0  0  1  0            999 V2000
  -30.7067  -14.4173   20.5460 C   0  0  0  0  0  0
  -30.4179  -12.2588   19.4264 C   0  0  0  0  0  0
  -29.4974  -12.4959   18.2098 C   0  0  0  0  0  0
  -28.0153  -12.3713   18.6162 C   0  0  0  0  0  0
  -27.6673  -13.1990   19.8827 C   0  0  2  0  0  0
  -28.7064  -12.9568   21.0045 C   0  0  0  0  0  0
  -25.2608  -13.8137   20.5663 C   0  0  0  0  0  0
  -24.1853  -13.0430   20.9178 C   0  0  0  0  0  0
  -24.6394  -11.6896   20.8744 C   0  0  0  0  0  0
  -23.9052  -10.4290   21.0403 C   0  0  0  0  0  0
  -24.3610   -9.4209   21.9183 C   0  0  0  0  0  0
  -23.6290   -8.2240   22.0746 C   0  0  0  0  0  0
  -22.4272   -8.0276   21.3535 C   0  0  0  0  0  0
  -21.9905   -9.0249   20.4640 C   0  0  0  0  0  0
  -22.7227  -10.2134   20.3051 C   0  0  0  0  0  0
  -21.6848   -6.0738   22.5279 C   0  0  0  0  0  0
  -21.4007   -6.5637   23.8219 C   0  0  0  0  0  0
  -21.3664   -5.6789   24.9178 C   0  0  0  0  0  0
  -21.6047   -4.3050   24.7226 C   0  0  0  0  0  0
  -21.8818   -3.8147   23.4347 C   0  0  0  0  0  0
  -21.9191   -4.6967   22.3404 C   0  0  0  0  0  0
  -22.7879  -13.5241   21.1847 C   0  0  0  0  0  0
  -22.1659   -4.2151   21.0983 F   0  0  0  0  0  0
  -21.5637   -3.4536   25.7741 F   0  0  0  0  0  0
  -30.0475  -13.2346   20.4612 N   0  0  0  0  0  0
  -26.3049  -12.9298   20.3387 N   0  0  0  0  0  0
  -25.9319  -11.6466   20.5777 N   0  0  0  0  0  0
  -22.0507  -12.8238   22.0400 N   0  0  0  0  0  0
  -25.4329  -15.1844   20.4012 N   0  0  0  0  0  0
  -31.8289  -14.6002   20.0711 O   0  0  0  0  0  0
  -21.6632   -6.8877   21.4240 O   0  0  0  0  0  0
  -22.3579  -14.5559   20.6703 O   0  0  0  0  0  0
  -24.6093  -31.8698   23.2123 C   0  0  0  0  0  0
  -25.9009  -32.4830   23.8406 C   0  0  1  0  0  0
  -27.2451  -27.4886   20.0881 C   0  0  0  0  0  0
  -25.5883  -33.8629   24.2343 N   0  0  0  0  0  0
  -23.3953  -30.4920   21.5509 C   0  0  2  0  0  0
  -24.8452  -28.9587   20.1180 C   0  0  0  0  0  0
  -22.7378  -29.4671   22.5011 C   0  0  0  0  0  0
  -18.0256  -28.1380   22.8491 C   0  0  0  0  0  0
  -24.1485  -36.7327   23.2636 C   0  0  0  0  0  0
  -25.9173  -30.8526   21.3552 C   0  0  0  0  0  0
  -25.9995  -29.4890   20.7080 C   0  0  0  0  0  0
  -27.2049  -28.7606   20.6895 C   0  0  0  0  0  0
  -26.0793  -26.9519   19.5036 C   0  0  0  0  0  0
  -24.8770  -27.6870   19.5145 C   0  0  0  0  0  0
  -23.6021  -29.8175   20.1669 C   0  0  0  0  0  0
  -25.4097  -36.3118   24.0342 C   0  0  1  0  0  0
  -20.5845  -28.3656   23.1333 C   0  0  2  0  0  0
  -20.6751  -26.9395   22.5426 C   0  0  0  0  0  0
  -19.5737  -26.6386   21.5216 C   0  0  0  0  0  0
  -18.1910  -26.7929   22.1615 C   0  0  0  0  0  0
  -19.1507  -28.8830   23.2914 C   0  0  0  0  0  0
  -18.9443  -30.1441   23.8920 C   0  0  0  0  0  0
  -17.6451  -30.6591   24.0569 C   0  0  0  0  0  0
  -25.9020  -34.9481   23.5135 C   0  0  0  0  0  0
  -16.5339  -29.9094   23.6326 C   0  0  0  0  0  0
  -16.7250  -28.6513   23.0338 C   0  0  0  0  0  0
  -26.4460  -31.6598   25.0715 C   0  0  0  0  0  0
  -25.3755  -31.3694   26.1492 C   0  0  0  0  0  0
  -27.0272  -30.3044   24.6050 C   0  0  0  0  0  0
  -27.6044  -32.4310   25.7474 C   0  0  0  0  0  0
  -27.5586  -37.1806   24.8456 C   0  0  0  0  0  0
  -21.4109  -29.3033   22.3749 N   0  0  0  0  0  0
  -26.4284  -37.3800   23.9422 N   0  0  0  0  0  0
  -24.6588  -31.0842   22.0994 N   0  0  0  0  0  0
  -23.4170  -28.8210   23.3040 O   0  0  0  0  0  0
  -28.4246  -26.7977   20.0535 O   0  0  0  0  0  0
  -26.5581  -34.8927   22.4698 O   0  0  0  0  0  0
  -23.5301  -32.1422   23.7557 O   0  0  0  0  0  0
  -27.6822  -22.2637   19.6317 C   0  0  0  0  0  0
  -30.0008  -22.7933   19.0829 C   0  0  0  0  0  0
  -27.5469  -23.5133   20.2670 C   0  0  0  0  0  0
  -29.8633  -24.0423   19.7146 C   0  0  0  0  0  0
  -28.9126  -21.8953   19.0448 C   0  0  0  0  0  0
  -28.6400  -24.4013   20.3145 C   0  0  0  0  0  0
  -28.6950  -17.5791   20.7985 C   0  0  0  0  0  0
  -31.0020  -17.5524   19.9308 C   0  0  0  0  0  0
  -28.3353  -18.7021   19.8139 C   0  0  0  0  0  0
  -29.7580  -16.6775   20.1696 C   0  0  1  0  0  0
  -30.6985  -18.7142   18.9440 C   0  0  2  0  0  0
  -34.3021  -19.8108   17.7264 C   0  0  0  0  0  0
  -29.0666  -20.5391   18.3807 C   0  0  0  0  0  0
  -28.5103  -25.7429   21.0010 C   0  0  0  0  0  0
  -31.9740  -19.5876   18.7612 C   0  0  0  0  0  0
  -33.1501  -18.8614   18.0792 C   0  0  0  0  0  0
  -29.9419  -15.4434   20.9486 N   0  0  0  0  0  0
  -29.5063  -19.5206   19.3768 N   0  3  1  0  0  0
  -31.4663  -12.3360   19.1309 H   0  0  0  0  0  0
  -30.2933  -11.2436   19.8070 H   0  0  0  0  0  0
  -29.7269  -11.7797   17.4191 H   0  0  0  0  0  0
  -29.6827  -13.4861   17.7899 H   0  0  0  0  0  0
  -27.8109  -11.3155   18.7976 H   0  0  0  0  0  0
  -27.3705  -12.6645   17.7869 H   0  0  0  0  0  0
  -27.7186  -14.2495   19.5965 H   0  0  0  0  0  0
  -28.6622  -11.9200   21.3414 H   0  0  0  0  0  0
  -28.4811  -13.5574   21.8870 H   0  0  0  0  0  0
  -25.2755   -9.5685   22.4760 H   0  0  0  0  0  0
  -24.0001   -7.4630   22.7462 H   0  0  0  0  0  0
  -21.0834   -8.8763   19.8950 H   0  0  0  0  0  0
  -22.3679  -10.9671   19.6164 H   0  0  0  0  0  0
  -21.1988   -7.6143   23.9722 H   0  0  0  0  0  0
  -21.1489   -6.0517   25.9084 H   0  0  0  0  0  0
  -22.0595   -2.7608   23.2843 H   0  0  0  0  0  0
  -22.4095  -11.9887   22.4782 H   0  0  0  0  0  0
  -21.1130  -13.1280   22.2599 H   0  0  0  0  0  0
  -24.6587  -15.8338   20.4866 H   0  0  0  0  0  0
  -26.2710  -15.6108   20.0306 H   0  0  0  0  0  0
  -26.7088  -32.5566   23.1185 H   0  0  0  0  0  0
  -25.0059  -33.9795   25.0504 H   0  0  0  0  0  0
  -22.6827  -31.3074   21.4101 H   0  0  0  0  0  0
  -23.3745  -35.9665   23.3281 H   0  0  0  0  0  0
  -24.3589  -36.8955   22.2056 H   0  0  0  0  0  0
  -23.7234  -37.6527   23.6653 H   0  0  0  0  0  0
  -26.0167  -31.6179   20.5842 H   0  0  0  0  0  0
  -26.8098  -30.9130   21.9656 H   0  0  0  0  0  0
  -28.1022  -29.1721   21.1301 H   0  0  0  0  0  0
  -26.1090  -25.9785   19.0342 H   0  0  0  0  0  0
  -23.9890  -27.2729   19.0573 H   0  0  0  0  0  0
  -23.7025  -30.5879   19.4017 H   0  0  0  0  0  0
  -22.7297  -29.2289   19.8765 H   0  0  0  0  0  0
  -25.1269  -36.1983   25.0834 H   0  0  0  0  0  0
  -20.9932  -28.3217   24.1458 H   0  0  0  0  0  0
  -20.5643  -26.2264   23.3612 H   0  0  0  0  0  0
  -21.6625  -26.7443   22.1224 H   0  0  0  0  0  0
  -19.6899  -25.6297   21.1234 H   0  0  0  0  0  0
  -19.6686  -27.3204   20.6752 H   0  0  0  0  0  0
  -17.4185  -26.6678   21.4014 H   0  0  0  0  0  0
  -18.0310  -26.0068   22.9004 H   0  0  0  0  0  0
  -19.7919  -30.7243   24.2309 H   0  0  0  0  0  0
  -17.5007  -31.6275   24.5164 H   0  0  0  0  0  0
  -15.5341  -30.3010   23.7645 H   0  0  0  0  0  0
  -15.8641  -28.0849   22.7041 H   0  0  0  0  0  0
  -24.5924  -30.7032   25.7854 H   0  0  0  0  0  0
  -24.8953  -32.2847   26.4963 H   0  0  0  0  0  0
  -25.8146  -30.8865   27.0231 H   0  0  0  0  0  0
  -26.2789  -29.6822   24.1123 H   0  0  0  0  0  0
  -27.4075  -29.7260   25.4478 H   0  0  0  0  0  0
  -27.8610  -30.4368   23.9152 H   0  0  0  0  0  0
  -27.2664  -33.3597   26.2085 H   0  0  0  0  0  0
  -28.3842  -32.6890   25.0296 H   0  0  0  0  0  0
  -28.0726  -31.8412   26.5366 H   0  0  0  0  0  0
  -28.2580  -38.0126   24.7534 H   0  0  0  0  0  0
  -28.1104  -36.2660   24.6229 H   0  0  0  0  0  0
  -27.2316  -37.1393   25.8859 H   0  0  0  0  0  0
  -20.9265  -29.8767   21.6987 H   0  0  0  0  0  0
  -26.0176  -38.2877   24.1440 H   0  0  0  0  0  0
  -26.8339  -21.5935   19.5992 H   0  0  0  0  0  0
  -30.9477  -22.5368   18.6286 H   0  0  0  0  0  0
  -26.6029  -23.7885   20.7159 H   0  0  0  0  0  0
  -30.6992  -24.7277   19.7402 H   0  0  0  0  0  0
  -27.7952  -17.0091   21.0320 H   0  0  0  0  0  0
  -29.0481  -17.9985   21.7424 H   0  0  0  0  0  0
  -31.8013  -16.9534   19.5044 H   0  0  0  0  0  0
  -31.3843  -17.9377   20.8773 H   0  0  0  0  0  0
  -27.5872  -19.3519   20.2694 H   0  0  0  0  0  0
  -27.8607  -18.2549   18.9387 H   0  0  0  0  0  0
  -29.3896  -16.3460   19.1952 H   0  0  0  0  0  0
  -30.4439  -18.2733   17.9780 H   0  0  0  0  0  0
  -35.1214  -19.2689   17.2534 H   0  0  0  0  0  0
  -34.6986  -20.2995   18.6167 H   0  0  0  0  0  0
  -33.9791  -20.5886   17.0327 H   0  0  0  0  0  0
  -29.7474  -20.6281   17.5355 H   0  0  0  0  0  0
  -28.1177  -20.2616   17.9193 H   0  0  0  0  0  0
  -29.3994  -25.9088   21.6104 H   0  0  0  0  0  0
  -27.6694  -25.7298   21.6981 H   0  0  0  0  0  0
  -32.2985  -19.9774   19.7274 H   0  0  0  0  0  0
  -31.7639  -20.4632   18.1527 H   0  0  0  0  0  0
  -33.5377  -18.0724   18.7239 H   0  0  0  0  0  0
  -32.8028  -18.3725   17.1677 H   0  0  0  0  0  0
  -29.1244  -15.1470   21.4618 H   0  0  0  0  0  0
  -29.8010  -20.0517   20.1825 H   0  0  0  0  0  0
  1 25  1  0  0  0
  1 30  2  0  0  0
  1 87  1  0  0  0
  2  3  1  0  0  0
  2 25  1  0  0  0
  2 89  1  0  0  0
  2 90  1  0  0  0
  3  4  1  0  0  0
  3 91  1  0  0  0
  3 92  1  0  0  0
  4  5  1  0  0  0
  4 93  1  0  0  0
  4 94  1  0  0  0
  5  6  1  0  0  0
  5 26  1  0  0  0
  5 95  1  0  0  0
  6 25  1  0  0  0
  6 96  1  0  0  0
  6 97  1  0  0  0
  7  8  2  0  0  0
  7 26  1  0  0  0
  7 29  1  0  0  0
  8  9  1  0  0  0
  8 22  1  0  0  0
  9 10  1  0  0  0
  9 27  2  0  0  0
 10 11  2  0  0  0
 10 15  1  0  0  0
 11 12  1  0  0  0
 11 98  1  0  0  0
 12 13  2  0  0  0
 12 99  1  0  0  0
 13 14  1  0  0  0
 13 31  1  0  0  0
 14 15  2  0  0  0
 14100  1  0  0  0
 15101  1  0  0  0
 16 17  2  0  0  0
 16 21  1  0  0  0
 16 31  1  0  0  0
 17 18  1  0  0  0
 17102  1  0  0  0
 18 19  2  0  0  0
 18103  1  0  0  0
 19 20  1  0  0  0
 19 24  1  0  0  0
 20 21  2  0  0  0
 20104  1  0  0  0
 21 23  1  0  0  0
 22 28  1  0  0  0
 22 32  2  0  0  0
 26 27  1  0  0  0
 28105  1  0  0  0
 28106  1  0  0  0
 29107  1  0  0  0
 29108  1  0  0  0
 33 34  1  0  0  0
 33 66  1  0  0  0
 33 70  2  0  0  0
 34 36  1  0  0  0
 34 59  1  0  0  0
 34109  1  0  0  0
 35 44  2  0  0  0
 35 45  1  0  0  0
 35 68  1  0  0  0
 36 56  1  0  0  0
 36110  1  0  0  0
 37 39  1  0  0  0
 37 47  1  0  0  0
 37 66  1  0  0  0
 37111  1  0  0  0
 38 43  2  0  0  0
 38 46  1  0  0  0
 38 47  1  0  0  0
 39 64  1  0  0  0
 39 67  2  0  0  0
 40 52  1  0  0  0
 40 53  2  0  0  0
 40 58  1  0  0  0
 41112  1  0  0  0
 41113  1  0  0  0
 41114  1  0  0  0
 41 48  1  0  0  0
 42 43  1  0  0  0
 42 66  1  0  0  0
 42115  1  0  0  0
 42116  1  0  0  0
 43 44  1  0  0  0
 44117  1  0  0  0
 45 46  2  0  0  0
 45118  1  0  0  0
 46119  1  0  0  0
 47120  1  0  0  0
 47121  1  0  0  0
 48 56  1  0  0  0
 48 65  1  0  0  0
 48122  1  0  0  0
 49 50  1  0  0  0
 49 53  1  0  0  0
 49 64  1  0  0  0
 49123  1  0  0  0
 50 51  1  0  0  0
 50124  1  0  0  0
 50125  1  0  0  0
 51 52  1  0  0  0
 51126  1  0  0  0
 51127  1  0  0  0
 52128  1  0  0  0
 52129  1  0  0  0
 53 54  1  0  0  0
 54 55  2  0  0  0
 54130  1  0  0  0
 55 57  1  0  0  0
 55131  1  0  0  0
 56 69  2  0  0  0
 57 58  2  0  0  0
 57132  1  0  0  0
 58133  1  0  0  0
 59 60  1  0  0  0
 59 61  1  0  0  0
 59 62  1  0  0  0
 60134  1  0  0  0
 60135  1  0  0  0
 60136  1  0  0  0
 61137  1  0  0  0
 61138  1  0  0  0
 61139  1  0  0  0
 62140  1  0  0  0
 62141  1  0  0  0
 62142  1  0  0  0
 63 65  1  0  0  0
 63143  1  0  0  0
 63144  1  0  0  0
 63145  1  0  0  0
 64146  1  0  0  0
 65147  1  0  0  0
 68 84  1  0  0  0
 71 73  2  0  0  0
 71 75  1  0  0  0
 71148  1  0  0  0
 72 74  1  0  0  0
 72 75  2  0  0  0
 72149  1  0  0  0
 73 76  1  0  0  0
 73150  1  0  0  0
 74 76  2  0  0  0
 74151  1  0  0  0
 75 83  1  0  0  0
 76 84  1  0  0  0
 77 79  1  0  0  0
 77 80  1  0  0  0
 77152  1  0  0  0
 77153  1  0  0  0
 78 80  1  0  0  0
 78 81  1  0  0  0
 78154  1  0  0  0
 78155  1  0  0  0
 79 88  1  0  0  0
 79156  1  0  0  0
 79157  1  0  0  0
 80 87  1  0  0  0
 80158  1  0  0  0
 81 85  1  0  0  0
 81 88  1  0  0  0
 81159  1  0  0  0
 82 86  1  0  0  0
 82160  1  0  0  0
 82161  1  0  0  0
 82162  1  0  0  0
 83163  1  0  0  0
 83164  1  0  0  0
 83 88  1  0  0  0
 84165  1  0  0  0
 84166  1  0  0  0
 85 86  1  0  0  0
 85167  1  0  0  0
 85168  1  0  0  0
 86169  1  0  0  0
 86170  1  0  0  0
 87171  1  0  0  0
 88172  1  0  0  0
M  CHG  1  88   1
M  ISO  4   1 100  68 101  84 101  87 100
M  END
> <chiral flag>
0

> <version>
0

> <s_m_source_file>
/data/baiqing/PycharmProjects/Reinvent-master-3.2/result/LINK_invent/BTK/process_docking_weight1_custom_sum_contain_oxygen_bond_distance_aromatic_linkinvent_7_9_3/rearranged_h_0114.sdf

> <i_m_source_file_index>
84

> <r_mmod_Potential_Energy-OPLS-2005>
-51.2188529968262

> <r_mmod_Stretch_Energy-OPLS-2005>
35.238597869873

> <r_mmod_Bend_Energy-OPLS-2005>
99.2807769775391

> <r_mmod_Torsional_Energy-OPLS-2005>
294.463256835938

> <r_mmod_Improper_Torsional_Energy-OPLS-2005>
9.28189468383789

> <r_mmod_Van_der_Waal_Energy-OPLS-2005>
153.022308349609

> <r_mmod_Electrostatic_Energy-OPLS-2005>
-214.755813598633

> <r_mmod_Solvation_Energy-OPLS-2005>
-437.167419433594

> <b_mmod_Minimization_Converged-OPLS-2005>
0

> <r_mmod_RMS_Derivative-OPLS-2005>
1.05619037151337

$$$$
84
                    3D
 Structure written by MMmdl.
159167  0  0  1  0            999 V2000
  -30.4292  -15.0683   20.4074 C   0  0  0  0  0  0
  -30.4460  -12.6695   19.5058 C   0  0  0  0  0  0
  -29.5302  -12.5672   18.2636 C   0  0  0  0  0  0
  -28.0630  -12.3309   18.6735 C   0  0  0  0  0  0
  -27.6231  -13.2541   19.8379 C   0  0  2  0  0  0
  -28.6609  -13.2944   20.9748 C   0  0  0  0  0  0
  -25.2436  -13.8207   20.5695 C   0  0  0  0  0  0
  -24.1769  -13.0424   20.9234 C   0  0  0  0  0  0
  -24.6391  -11.6901   20.8742 C   0  0  0  0  0  0
  -23.9078  -10.4285   21.0401 C   0  0  0  0  0  0
  -24.3632   -9.4199   21.9174 C   0  0  0  0  0  0
  -23.6308   -8.2235   22.0735 C   0  0  0  0  0  0
  -22.4295   -8.0266   21.3541 C   0  0  0  0  0  0
  -21.9918   -9.0236   20.4639 C   0  0  0  0  0  0
  -22.7250  -10.2117   20.3065 C   0  0  0  0  0  0
  -21.6863   -6.0724   22.5268 C   0  0  0  0  0  0
  -21.4016   -6.5626   23.8196 C   0  0  0  0  0  0
  -21.3678   -5.6785   24.9153 C   0  0  0  0  0  0
  -21.6069   -4.3051   24.7224 C   0  0  0  0  0  0
  -21.8823   -3.8139   23.4341 C   0  0  0  0  0  0
  -21.9204   -4.6952   22.3395 C   0  0  0  0  0  0
  -22.7797  -13.5195   21.1896 C   0  0  0  0  0  0
  -22.1661   -4.2140   21.0974 F   0  0  0  0  0  0
  -21.5647   -3.4529   25.7736 F   0  0  0  0  0  0
  -29.9151  -13.7624   20.3765 N   0  0  0  0  0  0
  -26.2860  -12.9437   20.3238 N   0  0  0  0  0  0
  -25.9322  -11.6555   20.5702 N   0  0  0  0  0  0
  -22.0458  -12.8178   22.0462 N   0  0  0  0  0  0
  -25.4090  -15.1929   20.4052 N   0  0  0  0  0  0
  -31.6353  -15.1841   20.1559 O   0  0  0  0  0  0
  -21.6662   -6.8859   21.4222 O   0  0  0  0  0  0
  -22.3476  -14.5502   20.6734 O   0  0  0  0  0  0
  -24.6561  -31.8326   23.1779 C   0  0  0  0  0  0
  -25.9280  -32.4632   23.8228 C   0  0  1  0  0  0
  -27.1971  -27.0182   20.1680 C   0  0  0  0  0  0
  -25.5982  -33.8446   24.2118 N   0  0  0  0  0  0
  -23.4638  -30.4515   21.5258 C   0  0  2  0  0  0
  -24.9088  -28.8580   20.1125 C   0  0  0  0  0  0
  -22.7616  -29.4496   22.4794 C   0  0  0  0  0  0
  -18.0315  -28.1394   22.8472 C   0  0  0  0  0  0
  -24.1486  -36.7236   23.2631 C   0  0  0  0  0  0
  -26.0313  -30.6692   21.3921 C   0  0  0  0  0  0
  -26.0945  -29.2721   20.7307 C   0  0  0  0  0  0
  -27.2405  -28.3738   20.7317 C   0  0  0  0  0  0
  -25.9756  -26.7266   19.5237 C   0  0  0  0  0  0
  -24.8674  -27.6022   19.4917 C   0  0  0  0  0  0
  -23.6965  -29.7777   20.1480 C   0  0  0  0  0  0
  -25.4130  -36.2988   24.0286 C   0  0  1  0  0  0
  -20.5932  -28.3741   23.1175 C   0  0  2  0  0  0
  -20.6796  -26.9428   22.5377 C   0  0  0  0  0  0
  -19.5776  -26.6365   21.5189 C   0  0  0  0  0  0
  -18.1958  -26.7926   22.1605 C   0  0  0  0  0  0
  -19.1582  -28.8890   23.2811 C   0  0  0  0  0  0
  -18.9484  -30.1482   23.8853 C   0  0  0  0  0  0
  -17.6482  -30.6591   24.0552 C   0  0  0  0  0  0
  -25.9093  -34.9369   23.5012 C   0  0  0  0  0  0
  -16.5371  -29.9075   23.6339 C   0  0  0  0  0  0
  -16.7297  -28.6487   23.0360 C   0  0  0  0  0  0
  -26.4528  -31.6578   25.0747 C   0  0  0  0  0  0
  -25.3672  -31.3827   26.1413 C   0  0  0  0  0  0
  -27.0416  -30.2946   24.6474 C   0  0  0  0  0  0
  -27.6032  -32.4378   25.7558 C   0  0  0  0  0  0
  -27.5583  -37.1752   24.8432 C   0  0  0  0  0  0
  -21.4287  -29.3051   22.3544 N   0  0  0  0  0  0
  -26.4261  -37.3736   23.9418 N   0  0  0  0  0  0
  -24.7387  -31.0085   22.0869 N   0  0  0  0  0  0
  -23.4208  -28.8046   23.2996 O   0  0  0  0  0  0
  -28.2188  -25.9652   20.2573 O   0  0  0  0  0  0
  -26.5689  -34.8893   22.4600 O   0  0  0  0  0  0
  -23.5634  -32.1237   23.6934 O   0  0  0  0  0  0
  -29.8469  -20.4111   21.4235 C   0  0  0  0  0  0
  -28.5154  -20.2828   19.4003 C   0  0  0  0  0  0
  -30.4019  -18.9331   20.9556 C   0  0  0  0  0  0
  -28.3601  -18.6470   19.6466 C   0  0  0  0  0  0
  -28.7336  -21.2959   20.6292 C   0  0  2  0  0  0
  -29.3353  -17.8122   20.6319 C   0  0  1  0  0  0
  -29.0889  -23.4421   22.1036 C   0  0  0  0  0  0
  -28.0742  -24.2342   18.4782 C   0  0  0  0  0  0
  -28.9298  -23.0515   20.6227 C   0  0  2  0  0  0
  -28.0033  -24.3892   20.0044 C   0  0  1  0  0  0
  -29.5310  -16.1929   20.5414 N   0  0  0  0  0  0
  -31.4716  -12.8725   19.1934 H   0  0  0  0  0  0
  -30.4725  -11.7210   20.0468 H   0  0  0  0  0  0
  -29.8704  -11.7702   17.6042 H   0  0  0  0  0  0
  -29.6026  -13.4935   17.6933 H   0  0  0  0  0  0
  -27.9683  -11.2862   18.9718 H   0  0  0  0  0  0
  -27.4033  -12.4699   17.8168 H   0  0  0  0  0  0
  -27.5727  -14.2561   19.4100 H   0  0  0  0  0  0
  -28.7793  -12.3129   21.4352 H   0  0  0  0  0  0
  -28.3393  -13.9703   21.7686 H   0  0  0  0  0  0
  -25.2751   -9.5693   22.4758 H   0  0  0  0  0  0
  -24.0021   -7.4638   22.7463 H   0  0  0  0  0  0
  -21.0842   -8.8759   19.8951 H   0  0  0  0  0  0
  -22.3678  -10.9661   19.6202 H   0  0  0  0  0  0
  -21.1977   -7.6128   23.9689 H   0  0  0  0  0  0
  -21.1512   -6.0513   25.9065 H   0  0  0  0  0  0
  -22.0589   -2.7597   23.2847 H   0  0  0  0  0  0
  -22.4080  -11.9845   22.4867 H   0  0  0  0  0  0
  -21.1069  -13.1180   22.2661 H   0  0  0  0  0  0
  -24.6326  -15.8391   20.5085 H   0  0  0  0  0  0
  -26.2299  -15.6271   20.0054 H   0  0  0  0  0  0
  -26.7359  -32.5170   23.0954 H   0  0  0  0  0  0
  -25.0101  -33.9557   25.0238 H   0  0  0  0  0  0
  -22.7725  -31.2822   21.3625 H   0  0  0  0  0  0
  -23.3777  -35.9525   23.3185 H   0  0  0  0  0  0
  -24.3590  -36.9004   22.2070 H   0  0  0  0  0  0
  -23.7194  -37.6371   23.6763 H   0  0  0  0  0  0
  -26.2087  -31.4185   20.6192 H   0  0  0  0  0  0
  -26.8925  -30.7125   22.0483 H   0  0  0  0  0  0
  -28.1472  -28.6931   21.2230 H   0  0  0  0  0  0
  -25.8171  -25.7582   19.0756 H   0  0  0  0  0  0
  -23.9573  -27.2747   19.0094 H   0  0  0  0  0  0
  -23.8527  -30.5508   19.3941 H   0  0  0  0  0  0
  -22.8072  -29.2316   19.8292 H   0  0  0  0  0  0
  -25.1315  -36.1781   25.0772 H   0  0  0  0  0  0
  -21.0041  -28.3343   24.1283 H   0  0  0  0  0  0
  -20.5647  -26.2370   23.3619 H   0  0  0  0  0  0
  -21.6661  -26.7380   22.1196 H   0  0  0  0  0  0
  -19.6932  -25.6249   21.1285 H   0  0  0  0  0  0
  -19.6727  -27.3120   20.6681 H   0  0  0  0  0  0
  -17.4210  -26.6653   21.4017 H   0  0  0  0  0  0
  -18.0367  -26.0081   22.9023 H   0  0  0  0  0  0
  -19.7959  -30.7310   24.2205 H   0  0  0  0  0  0
  -17.5021  -31.6270   24.5151 H   0  0  0  0  0  0
  -15.5367  -30.2958   23.7683 H   0  0  0  0  0  0
  -15.8688  -28.0784   22.7113 H   0  0  0  0  0  0
  -24.5798  -30.7248   25.7695 H   0  0  0  0  0  0
  -24.8924  -32.3041   26.4805 H   0  0  0  0  0  0
  -25.7888  -30.8977   27.0226 H   0  0  0  0  0  0
  -26.3067  -29.6635   24.1448 H   0  0  0  0  0  0
  -27.3891  -29.7307   25.5144 H   0  0  0  0  0  0
  -27.9036  -30.4115   23.9904 H   0  0  0  0  0  0
  -27.2578  -33.3664   26.2115 H   0  0  0  0  0  0
  -28.3862  -32.6985   25.0427 H   0  0  0  0  0  0
  -28.0684  -31.8547   26.5511 H   0  0  0  0  0  0
  -28.2483  -38.0158   24.7604 H   0  0  0  0  0  0
  -28.1197  -36.2694   24.6086 H   0  0  0  0  0  0
  -27.2325  -37.1175   25.8832 H   0  0  0  0  0  0
  -20.9510  -29.8816   21.6752 H   0  0  0  0  0  0
  -26.0102  -38.2761   24.1543 H   0  0  0  0  0  0
  -30.7343  -21.0336   21.5264 H   0  0  0  0  0  0
  -29.4726  -20.2991   22.4433 H   0  0  0  0  0  0
  -27.6326  -20.6105   18.8480 H   0  0  0  0  0  0
  -29.3384  -20.4351   18.7013 H   0  0  0  0  0  0
  -31.0749  -18.5592   21.7265 H   0  0  0  0  0  0
  -31.0315  -19.0614   20.0736 H   0  0  0  0  0  0
  -28.4166  -18.1732   18.6639 H   0  0  0  0  0  0
  -27.3348  -18.4622   19.9762 H   0  0  0  0  0  0
  -27.8108  -21.1692   21.1964 H   0  0  0  0  0  0
  -28.7777  -17.8098   21.5707 H   0  0  0  0  0  0
  -29.7877  -22.7978   22.6352 H   0  0  0  0  0  0
  -28.1305  -23.3890   22.6252 H   0  0  0  0  0  0
  -29.4645  -24.4626   22.2027 H   0  0  0  0  0  0
  -27.8334  -23.2138   18.1767 H   0  0  0  0  0  0
  -29.0802  -24.4546   18.1207 H   0  0  0  0  0  0
  -27.3942  -24.8994   17.9489 H   0  0  0  0  0  0
  -29.9144  -23.1836   20.1728 H   0  0  0  0  0  0
  -26.9771  -24.1872   20.3191 H   0  0  0  0  0  0
  -28.6240  -15.7736   20.6861 H   0  0  0  0  0  0
  1 25  1  0  0  0
  1 30  2  0  0  0
  1 81  1  0  0  0
  2  3  1  0  0  0
  2 25  1  0  0  0
  2 82  1  0  0  0
  2 83  1  0  0  0
  3  4  1  0  0  0
  3 84  1  0  0  0
  3 85  1  0  0  0
  4  5  1  0  0  0
  4 86  1  0  0  0
  4 87  1  0  0  0
  5  6  1  0  0  0
  5 26  1  0  0  0
  5 88  1  0  0  0
  6 25  1  0  0  0
  6 89  1  0  0  0
  6 90  1  0  0  0
  7  8  2  0  0  0
  7 26  1  0  0  0
  7 29  1  0  0  0
  8  9  1  0  0  0
  8 22  1  0  0  0
  9 10  1  0  0  0
  9 27  2  0  0  0
 10 11  2  0  0  0
 10 15  1  0  0  0
 11 12  1  0  0  0
 11 91  1  0  0  0
 12 13  2  0  0  0
 12 92  1  0  0  0
 13 14  1  0  0  0
 13 31  1  0  0  0
 14 15  2  0  0  0
 14 93  1  0  0  0
 15 94  1  0  0  0
 16 17  2  0  0  0
 16 21  1  0  0  0
 16 31  1  0  0  0
 17 18  1  0  0  0
 17 95  1  0  0  0
 18 19  2  0  0  0
 18 96  1  0  0  0
 19 20  1  0  0  0
 19 24  1  0  0  0
 20 21  2  0  0  0
 20 97  1  0  0  0
 21 23  1  0  0  0
 22 28  1  0  0  0
 22 32  2  0  0  0
 26 27  1  0  0  0
 28 98  1  0  0  0
 28 99  1  0  0  0
 29100  1  0  0  0
 29101  1  0  0  0
 33 34  1  0  0  0
 33 66  1  0  0  0
 33 70  2  0  0  0
 34 36  1  0  0  0
 34 59  1  0  0  0
 34102  1  0  0  0
 35 44  2  0  0  0
 35 45  1  0  0  0
 35 68  1  0  0  0
 36 56  1  0  0  0
 36103  1  0  0  0
 37 39  1  0  0  0
 37 47  1  0  0  0
 37 66  1  0  0  0
 37104  1  0  0  0
 38 43  2  0  0  0
 38 46  1  0  0  0
 38 47  1  0  0  0
 39 64  1  0  0  0
 39 67  2  0  0  0
 40 52  1  0  0  0
 40 53  2  0  0  0
 40 58  1  0  0  0
 41105  1  0  0  0
 41106  1  0  0  0
 41107  1  0  0  0
 41 48  1  0  0  0
 42 43  1  0  0  0
 42 66  1  0  0  0
 42108  1  0  0  0
 42109  1  0  0  0
 43 44  1  0  0  0
 44110  1  0  0  0
 45 46  2  0  0  0
 45111  1  0  0  0
 46112  1  0  0  0
 47113  1  0  0  0
 47114  1  0  0  0
 48 56  1  0  0  0
 48 65  1  0  0  0
 48115  1  0  0  0
 49 50  1  0  0  0
 49 53  1  0  0  0
 49 64  1  0  0  0
 49116  1  0  0  0
 50 51  1  0  0  0
 50117  1  0  0  0
 50118  1  0  0  0
 51 52  1  0  0  0
 51119  1  0  0  0
 51120  1  0  0  0
 52121  1  0  0  0
 52122  1  0  0  0
 53 54  1  0  0  0
 54 55  2  0  0  0
 54123  1  0  0  0
 55 57  1  0  0  0
 55124  1  0  0  0
 56 69  2  0  0  0
 57 58  2  0  0  0
 57125  1  0  0  0
 58126  1  0  0  0
 59 60  1  0  0  0
 59 61  1  0  0  0
 59 62  1  0  0  0
 60127  1  0  0  0
 60128  1  0  0  0
 60129  1  0  0  0
 61130  1  0  0  0
 61131  1  0  0  0
 61132  1  0  0  0
 62133  1  0  0  0
 62134  1  0  0  0
 62135  1  0  0  0
 63 65  1  0  0  0
 63136  1  0  0  0
 63137  1  0  0  0
 63138  1  0  0  0
 64139  1  0  0  0
 65140  1  0  0  0
 68 80  1  0  0  0
 71 73  1  0  0  0
 71141  1  0  0  0
 71142  1  0  0  0
 71 75  1  0  0  0
 72 74  1  0  0  0
 72 75  1  0  0  0
 72143  1  0  0  0
 72144  1  0  0  0
 73 76  1  0  0  0
 73145  1  0  0  0
 73146  1  0  0  0
 74 76  1  0  0  0
 74147  1  0  0  0
 74148  1  0  0  0
 75 79  1  0  0  0
 75149  1  0  0  0
 76 81  1  0  0  0
 76150  1  0  0  0
 77151  1  0  0  0
 77152  1  0  0  0
 77153  1  0  0  0
 77 79  1  0  0  0
 78154  1  0  0  0
 78155  1  0  0  0
 78156  1  0  0  0
 78 80  1  0  0  0
 79 80  1  0  0  0
 79157  1  0  0  0
 80158  1  0  0  0
 81159  1  0  0  0
M  ISO  4   1 100  68 101  80 101  81 100
M  END
> <chiral flag>
0

> <version>
0

> <s_m_source_file>
/data/baiqing/PycharmProjects/Reinvent-master-3.2/result/LINK_invent/BTK/process_docking_weight1_custom_sum_contain_oxygen_bond_distance_aromatic_linkinvent_7_9_3/rearranged_h_0114.sdf

> <i_m_source_file_index>
85

> <r_mmod_Potential_Energy-OPLS-2005>
936.976196289062

> <r_mmod_Stretch_Energy-OPLS-2005>
388.042510986328

> <r_mmod_Bend_Energy-OPLS-2005>
446.749816894531

> <r_mmod_Torsional_Energy-OPLS-2005>
248.995346069336

> <r_mmod_Improper_Torsional_Energy-OPLS-2005>
4.2498083114624

> <r_mmod_Van_der_Waal_Energy-OPLS-2005>
114.999855041504

> <r_mmod_Electrostatic_Energy-OPLS-2005>
-371.607818603516

> <r_mmod_Solvation_Energy-OPLS-2005>
-201.062637329102

> <b_mmod_Minimization_Converged-OPLS-2005>
0

> <r_mmod_RMS_Derivative-OPLS-2005>
3.93737626075745

$$$$
85
                    3D
 Structure written by MMmdl.
154162  0  0  1  0            999 V2000
  -30.6615  -14.7318   20.4416 C   0  0  0  0  0  0
  -30.4230  -12.4478   19.4741 C   0  0  0  0  0  0
  -29.5032  -12.5099   18.2355 C   0  0  0  0  0  0
  -28.0309  -12.3389   18.6530 C   0  0  0  0  0  0
  -27.6421  -13.2407   19.8542 C   0  0  2  0  0  0
  -28.6927  -13.1915   20.9863 C   0  0  0  0  0  0
  -25.2502  -13.8212   20.5724 C   0  0  0  0  0  0
  -24.1804  -13.0449   20.9210 C   0  0  0  0  0  0
  -24.6409  -11.6928   20.8756 C   0  0  0  0  0  0
  -23.9089  -10.4298   21.0393 C   0  0  0  0  0  0
  -24.3630   -9.4212   21.9174 C   0  0  0  0  0  0
  -23.6297   -8.2244   22.0749 C   0  0  0  0  0  0
  -22.4274   -8.0286   21.3539 C   0  0  0  0  0  0
  -21.9924   -9.0265   20.4637 C   0  0  0  0  0  0
  -22.7258  -10.2136   20.3048 C   0  0  0  0  0  0
  -21.6861   -6.0729   22.5265 C   0  0  0  0  0  0
  -21.4019   -6.5636   23.8198 C   0  0  0  0  0  0
  -21.3668   -5.6791   24.9170 C   0  0  0  0  0  0
  -21.6035   -4.3051   24.7222 C   0  0  0  0  0  0
  -21.8825   -3.8140   23.4344 C   0  0  0  0  0  0
  -21.9195   -4.6952   22.3396 C   0  0  0  0  0  0
  -22.7817  -13.5205   21.1889 C   0  0  0  0  0  0
  -22.1661   -4.2138   21.0970 F   0  0  0  0  0  0
  -21.5638   -3.4538   25.7742 F   0  0  0  0  0  0
  -29.9967  -13.5247   20.3980 N   0  0  0  0  0  0
  -26.2956  -12.9450   20.3331 N   0  0  0  0  0  0
  -25.9354  -11.6580   20.5786 N   0  0  0  0  0  0
  -22.0489  -12.8165   22.0434 N   0  0  0  0  0  0
  -25.4164  -15.1947   20.4144 N   0  0  0  0  0  0
  -31.8580  -14.7600   20.1474 O   0  0  0  0  0  0
  -21.6640   -6.8875   21.4226 O   0  0  0  0  0  0
  -22.3488  -14.5513   20.6738 O   0  0  0  0  0  0
  -24.6298  -31.8567   23.2030 C   0  0  0  0  0  0
  -25.9138  -32.4776   23.8343 C   0  0  1  0  0  0
  -27.2206  -27.2690   20.1332 C   0  0  0  0  0  0
  -25.5960  -33.8570   24.2286 N   0  0  0  0  0  0
  -23.4269  -30.4814   21.5443 C   0  0  2  0  0  0
  -24.8766  -28.9390   20.1031 C   0  0  0  0  0  0
  -22.7512  -29.4583   22.4900 C   0  0  0  0  0  0
  -18.0290  -28.1394   22.8461 C   0  0  0  0  0  0
  -24.1498  -36.7283   23.2639 C   0  0  0  0  0  0
  -25.9728  -30.7724   21.3860 C   0  0  0  0  0  0
  -26.0455  -29.3965   20.7248 C   0  0  0  0  0  0
  -27.2151  -28.5722   20.7338 C   0  0  0  0  0  0
  -26.0371  -26.8934   19.4534 C   0  0  0  0  0  0
  -24.8793  -27.6962   19.4529 C   0  0  0  0  0  0
  -23.6467  -29.8255   20.1550 C   0  0  0  0  0  0
  -25.4123  -36.3079   24.0334 C   0  0  1  0  0  0
  -20.5887  -28.3701   23.1264 C   0  0  2  0  0  0
  -20.6780  -26.9406   22.5409 C   0  0  0  0  0  0
  -19.5762  -26.6378   21.5213 C   0  0  0  0  0  0
  -18.1926  -26.7939   22.1604 C   0  0  0  0  0  0
  -19.1545  -28.8858   23.2851 C   0  0  0  0  0  0
  -18.9469  -30.1445   23.8888 C   0  0  0  0  0  0
  -17.6466  -30.6590   24.0546 C   0  0  0  0  0  0
  -25.9051  -34.9448   23.5099 C   0  0  0  0  0  0
  -16.5349  -29.9085   23.6332 C   0  0  0  0  0  0
  -16.7276  -28.6506   23.0342 C   0  0  0  0  0  0
  -26.4523  -31.6601   25.0730 C   0  0  0  0  0  0
  -25.3748  -31.3708   26.1451 C   0  0  0  0  0  0
  -27.0393  -30.3025   24.6212 C   0  0  0  0  0  0
  -27.6086  -32.4331   25.7487 C   0  0  0  0  0  0
  -27.5584  -37.1787   24.8462 C   0  0  0  0  0  0
  -21.4213  -29.3043   22.3656 N   0  0  0  0  0  0
  -26.4296  -37.3782   23.9406 N   0  0  0  0  0  0
  -24.6944  -31.0549   22.1006 N   0  0  0  0  0  0
  -23.4234  -28.8104   23.2969 O   0  0  0  0  0  0
  -28.3147  -26.3748   20.2423 O   0  0  0  0  0  0
  -26.5611  -34.8924   22.4667 O   0  0  0  0  0  0
  -23.5457  -32.1379   23.7339 O   0  0  0  0  0  0
  -31.3071  -17.5918   19.3324 C   0  0  0  0  0  0
  -30.9363  -20.0222   19.4469 C   0  0  0  0  0  0
  -29.5699  -18.4963   20.7616 C   0  0  0  0  0  0
  -31.6432  -18.9098   18.9445 C   0  0  0  0  0  0
  -30.2760  -17.3217   20.2680 C   0  0  0  0  0  0
  -29.8637  -19.8653   20.3529 C   0  0  0  0  0  0
  -32.7957  -19.1372   17.9813 C   0  0  0  0  0  0
  -28.9260  -23.7242   20.6923 C   0  0  0  0  0  0
  -28.1607  -24.9142   19.9091 C   0  0  0  0  0  0
  -28.9022  -22.2327   20.0553 C   0  0  0  0  0  0
  -29.9467  -15.9101   20.6390 N   0  0  0  0  0  0
  -29.2016  -21.0165   20.8735 O   0  0  0  0  0  0
  -31.4655  -12.5469   19.1680 H   0  0  0  0  0  0
  -30.3472  -11.4761   19.9647 H   0  0  0  0  0  0
  -29.7805  -11.7364   17.5172 H   0  0  0  0  0  0
  -29.6296  -13.4653   17.7234 H   0  0  0  0  0  0
  -27.8852  -11.2911   18.9168 H   0  0  0  0  0  0
  -27.3715  -12.5315   17.8056 H   0  0  0  0  0  0
  -27.6318  -14.2600   19.4689 H   0  0  0  0  0  0
  -28.7255  -12.2034   21.4467 H   0  0  0  0  0  0
  -28.4370  -13.8920   21.7826 H   0  0  0  0  0  0
  -25.2778   -9.5682   22.4754 H   0  0  0  0  0  0
  -24.0004   -7.4636   22.7480 H   0  0  0  0  0  0
  -21.0854   -8.8782   19.8949 H   0  0  0  0  0  0
  -22.3715  -10.9674   19.6160 H   0  0  0  0  0  0
  -21.2009   -7.6148   23.9698 H   0  0  0  0  0  0
  -21.1489   -6.0524   25.9067 H   0  0  0  0  0  0
  -22.0597   -2.7600   23.2847 H   0  0  0  0  0  0
  -22.4136  -11.9809   22.4770 H   0  0  0  0  0  0
  -21.1119  -13.1162   22.2697 H   0  0  0  0  0  0
  -24.6454  -15.8457   20.5212 H   0  0  0  0  0  0
  -26.2635  -15.6372   20.0817 H   0  0  0  0  0  0
  -26.7205  -32.5447   23.1073 H   0  0  0  0  0  0
  -25.0133  -33.9684   25.0455 H   0  0  0  0  0  0
  -22.7218  -31.3029   21.4030 H   0  0  0  0  0  0
  -23.3769  -35.9602   23.3311 H   0  0  0  0  0  0
  -24.3565  -36.8906   22.2045 H   0  0  0  0  0  0
  -23.7232  -37.6477   23.6665 H   0  0  0  0  0  0
  -26.1095  -31.5378   20.6203 H   0  0  0  0  0  0
  -26.8495  -30.8193   22.0209 H   0  0  0  0  0  0
  -28.1026  -28.9057   21.2527 H   0  0  0  0  0  0
  -25.9668  -25.9602   18.9152 H   0  0  0  0  0  0
  -23.9909  -27.3509   18.9404 H   0  0  0  0  0  0
  -23.7750  -30.6096   19.4077 H   0  0  0  0  0  0
  -22.7646  -29.2627   19.8449 H   0  0  0  0  0  0
  -25.1290  -36.1936   25.0827 H   0  0  0  0  0  0
  -20.9941  -28.3320   24.1401 H   0  0  0  0  0  0
  -20.5720  -26.2293   23.3624 H   0  0  0  0  0  0
  -21.6654  -26.7469   22.1175 H   0  0  0  0  0  0
  -19.6936  -25.6290   21.1250 H   0  0  0  0  0  0
  -19.6740  -27.3195   20.6751 H   0  0  0  0  0  0
  -17.4205  -26.6671   21.3992 H   0  0  0  0  0  0
  -18.0296  -26.0088   22.9007 H   0  0  0  0  0  0
  -19.7951  -30.7212   24.2301 H   0  0  0  0  0  0
  -17.5050  -31.6291   24.5127 H   0  0  0  0  0  0
  -15.5358  -30.2984   23.7694 H   0  0  0  0  0  0
  -15.8662  -28.0836   22.7069 H   0  0  0  0  0  0
  -24.5954  -30.7032   25.7768 H   0  0  0  0  0  0
  -24.8888  -32.2850   26.4876 H   0  0  0  0  0  0
  -25.8064  -30.8890   27.0241 H   0  0  0  0  0  0
  -26.2992  -29.6709   24.1286 H   0  0  0  0  0  0
  -27.4147  -29.7337   25.4727 H   0  0  0  0  0  0
  -27.8844  -30.4303   23.9435 H   0  0  0  0  0  0
  -27.2749  -33.3674   26.2013 H   0  0  0  0  0  0
  -28.3927  -32.6810   25.0325 H   0  0  0  0  0  0
  -28.0740  -31.8482   26.5432 H   0  0  0  0  0  0
  -28.2580  -38.0104   24.7524 H   0  0  0  0  0  0
  -28.1091  -36.2616   24.6277 H   0  0  0  0  0  0
  -27.2278  -37.1443   25.8860 H   0  0  0  0  0  0
  -20.9400  -29.8802   21.6885 H   0  0  0  0  0  0
  -26.0184  -38.2851   24.1446 H   0  0  0  0  0  0
  -31.8687  -16.7860   18.8844 H   0  0  0  0  0  0
  -31.2582  -21.0110   19.1486 H   0  0  0  0  0  0
  -28.7765  -18.3470   21.4791 H   0  0  0  0  0  0
  -32.9155  -18.2979   17.2960 H   0  0  0  0  0  0
  -33.7286  -19.2595   18.5319 H   0  0  0  0  0  0
  -32.6370  -20.0367   17.3852 H   0  0  0  0  0  0
  -28.4989  -23.6735   21.6941 H   0  0  0  0  0  0
  -29.9652  -24.0151   20.8399 H   0  0  0  0  0  0
  -27.1169  -24.6263   20.0038 H   0  0  0  0  0  0
  -28.4022  -24.8188   18.8514 H   0  0  0  0  0  0
  -29.5003  -22.2509   19.1464 H   0  0  0  0  0  0
  -27.8835  -22.0648   19.7061 H   0  0  0  0  0  0
  -29.0142  -15.7714   20.9980 H   0  0  0  0  0  0
  1 25  1  0  0  0
  1 30  2  0  0  0
  1 81  1  0  0  0
  2  3  1  0  0  0
  2 25  1  0  0  0
  2 83  1  0  0  0
  2 84  1  0  0  0
  3  4  1  0  0  0
  3 85  1  0  0  0
  3 86  1  0  0  0
  4  5  1  0  0  0
  4 87  1  0  0  0
  4 88  1  0  0  0
  5  6  1  0  0  0
  5 26  1  0  0  0
  5 89  1  0  0  0
  6 25  1  0  0  0
  6 90  1  0  0  0
  6 91  1  0  0  0
  7  8  2  0  0  0
  7 26  1  0  0  0
  7 29  1  0  0  0
  8  9  1  0  0  0
  8 22  1  0  0  0
  9 10  1  0  0  0
  9 27  2  0  0  0
 10 11  2  0  0  0
 10 15  1  0  0  0
 11 12  1  0  0  0
 11 92  1  0  0  0
 12 13  2  0  0  0
 12 93  1  0  0  0
 13 14  1  0  0  0
 13 31  1  0  0  0
 14 15  2  0  0  0
 14 94  1  0  0  0
 15 95  1  0  0  0
 16 17  2  0  0  0
 16 21  1  0  0  0
 16 31  1  0  0  0
 17 18  1  0  0  0
 17 96  1  0  0  0
 18 19  2  0  0  0
 18 97  1  0  0  0
 19 20  1  0  0  0
 19 24  1  0  0  0
 20 21  2  0  0  0
 20 98  1  0  0  0
 21 23  1  0  0  0
 22 28  1  0  0  0
 22 32  2  0  0  0
 26 27  1  0  0  0
 28 99  1  0  0  0
 28100  1  0  0  0
 29101  1  0  0  0
 29102  1  0  0  0
 33 34  1  0  0  0
 33 66  1  0  0  0
 33 70  2  0  0  0
 34 36  1  0  0  0
 34 59  1  0  0  0
 34103  1  0  0  0
 35 44  2  0  0  0
 35 45  1  0  0  0
 35 68  1  0  0  0
 36 56  1  0  0  0
 36104  1  0  0  0
 37 39  1  0  0  0
 37 47  1  0  0  0
 37 66  1  0  0  0
 37105  1  0  0  0
 38 43  2  0  0  0
 38 46  1  0  0  0
 38 47  1  0  0  0
 39 64  1  0  0  0
 39 67  2  0  0  0
 40 52  1  0  0  0
 40 53  2  0  0  0
 40 58  1  0  0  0
 41106  1  0  0  0
 41107  1  0  0  0
 41108  1  0  0  0
 41 48  1  0  0  0
 42 43  1  0  0  0
 42 66  1  0  0  0
 42109  1  0  0  0
 42110  1  0  0  0
 43 44  1  0  0  0
 44111  1  0  0  0
 45 46  2  0  0  0
 45112  1  0  0  0
 46113  1  0  0  0
 47114  1  0  0  0
 47115  1  0  0  0
 48 56  1  0  0  0
 48 65  1  0  0  0
 48116  1  0  0  0
 49 50  1  0  0  0
 49 53  1  0  0  0
 49 64  1  0  0  0
 49117  1  0  0  0
 50 51  1  0  0  0
 50118  1  0  0  0
 50119  1  0  0  0
 51 52  1  0  0  0
 51120  1  0  0  0
 51121  1  0  0  0
 52122  1  0  0  0
 52123  1  0  0  0
 53 54  1  0  0  0
 54 55  2  0  0  0
 54124  1  0  0  0
 55 57  1  0  0  0
 55125  1  0  0  0
 56 69  2  0  0  0
 57 58  2  0  0  0
 57126  1  0  0  0
 58127  1  0  0  0
 59 60  1  0  0  0
 59 61  1  0  0  0
 59 62  1  0  0  0
 60128  1  0  0  0
 60129  1  0  0  0
 60130  1  0  0  0
 61131  1  0  0  0
 61132  1  0  0  0
 61133  1  0  0  0
 62134  1  0  0  0
 62135  1  0  0  0
 62136  1  0  0  0
 63 65  1  0  0  0
 63137  1  0  0  0
 63138  1  0  0  0
 63139  1  0  0  0
 64140  1  0  0  0
 65141  1  0  0  0
 68 79  1  0  0  0
 71 74  2  0  0  0
 71 75  1  0  0  0
 71142  1  0  0  0
 72 74  1  0  0  0
 72 76  2  0  0  0
 72143  1  0  0  0
 73 75  2  0  0  0
 73 76  1  0  0  0
 73144  1  0  0  0
 74 77  1  0  0  0
 75 81  1  0  0  0
 76 82  1  0  0  0
 77145  1  0  0  0
 77146  1  0  0  0
 77147  1  0  0  0
 78 79  1  0  0  0
 78 80  1  0  0  0
 78148  1  0  0  0
 78149  1  0  0  0
 79150  1  0  0  0
 79151  1  0  0  0
 80 82  1  0  0  0
 80152  1  0  0  0
 80153  1  0  0  0
 81154  1  0  0  0
M  ISO  4   1 100  68 101  79 101  81 100
M  END
> <chiral flag>
0

> <version>
0

> <s_m_source_file>
/data/baiqing/PycharmProjects/Reinvent-master-3.2/result/LINK_invent/BTK/process_docking_weight1_custom_sum_contain_oxygen_bond_distance_aromatic_linkinvent_7_9_3/rearranged_h_0114.sdf

> <i_m_source_file_index>
86

> <r_mmod_Potential_Energy-OPLS-2005>
198.695709228516

> <r_mmod_Stretch_Energy-OPLS-2005>
125.514579772949

> <r_mmod_Bend_Energy-OPLS-2005>
169.442169189453

> <r_mmod_Torsional_Energy-OPLS-2005>
231.04719543457

> <r_mmod_Improper_Torsional_Energy-OPLS-2005>
4.1432843208313

> <r_mmod_Van_der_Waal_Energy-OPLS-2005>
149.19563293457

> <r_mmod_Electrostatic_Energy-OPLS-2005>
-353.836517333984

> <r_mmod_Solvation_Energy-OPLS-2005>
-211.256118774414

> <b_mmod_Minimization_Converged-OPLS-2005>
0

> <r_mmod_RMS_Derivative-OPLS-2005>
3.17353343963623

$$$$
86
                    3D
 Structure written by MMmdl.
169177  0  0  1  0            999 V2000
  -30.6372  -14.6199   20.5221 C   0  0  0  0  0  0
  -30.4365  -12.3893   19.4411 C   0  0  0  0  0  0
  -29.5027  -12.5050   18.2168 C   0  0  0  0  0  0
  -28.0266  -12.3439   18.6331 C   0  0  0  0  0  0
  -27.6519  -13.2165   19.8608 C   0  0  2  0  0  0
  -28.6976  -13.0687   20.9876 C   0  0  0  0  0  0
  -25.2564  -13.8183   20.5682 C   0  0  0  0  0  0
  -24.1829  -13.0447   20.9186 C   0  0  0  0  0  0
  -24.6393  -11.6916   20.8737 C   0  0  0  0  0  0
  -23.9061  -10.4297   21.0403 C   0  0  0  0  0  0
  -24.3614   -9.4212   21.9181 C   0  0  0  0  0  0
  -23.6291   -8.2246   22.0752 C   0  0  0  0  0  0
  -22.4274   -8.0281   21.3542 C   0  0  0  0  0  0
  -21.9907   -9.0254   20.4645 C   0  0  0  0  0  0
  -22.7233  -10.2135   20.3053 C   0  0  0  0  0  0
  -21.6853   -6.0734   22.5278 C   0  0  0  0  0  0
  -21.4013   -6.5638   23.8210 C   0  0  0  0  0  0
  -21.3659   -5.6790   24.9173 C   0  0  0  0  0  0
  -21.6045   -4.3054   24.7223 C   0  0  0  0  0  0
  -21.8820   -3.8145   23.4344 C   0  0  0  0  0  0
  -21.9193   -4.6961   22.3401 C   0  0  0  0  0  0
  -22.7851  -13.5236   21.1853 C   0  0  0  0  0  0
  -22.1662   -4.2148   21.0979 F   0  0  0  0  0  0
  -21.5630   -3.4538   25.7735 F   0  0  0  0  0  0
  -30.0099  -13.4086   20.4176 N   0  0  0  0  0  0
  -26.2986  -12.9360   20.3315 N   0  0  0  0  0  0
  -25.9320  -11.6514   20.5755 N   0  0  0  0  0  0
  -22.0495  -12.8226   22.0411 N   0  0  0  0  0  0
  -25.4278  -15.1908   20.4103 N   0  0  0  0  0  0
  -31.8042  -14.7788   20.1561 O   0  0  0  0  0  0
  -21.6641   -6.8876   21.4239 O   0  0  0  0  0  0
  -22.3533  -14.5543   20.6704 O   0  0  0  0  0  0
  -24.6253  -31.8610   23.2038 C   0  0  0  0  0  0
  -25.9106  -32.4785   23.8360 C   0  0  1  0  0  0
  -27.2214  -27.3278   20.1110 C   0  0  0  0  0  0
  -25.5927  -33.8585   24.2285 N   0  0  0  0  0  0
  -23.4176  -30.4867   21.5468 C   0  0  2  0  0  0
  -24.8624  -28.9447   20.1122 C   0  0  0  0  0  0
  -22.7467  -29.4635   22.4939 C   0  0  0  0  0  0
  -18.0286  -28.1381   22.8491 C   0  0  0  0  0  0
  -24.1488  -36.7295   23.2640 C   0  0  0  0  0  0
  -25.9589  -30.7955   21.3727 C   0  0  0  0  0  0
  -26.0328  -29.4244   20.7132 C   0  0  0  0  0  0
  -27.2161  -28.6289   20.7011 C   0  0  0  0  0  0
  -26.0238  -26.8992   19.4902 C   0  0  0  0  0  0
  -24.8598  -27.6872   19.4927 C   0  0  0  0  0  0
  -23.6311  -29.8244   20.1612 C   0  0  0  0  0  0
  -25.4113  -36.3086   24.0332 C   0  0  1  0  0  0
  -20.5886  -28.3683   23.1286 C   0  0  2  0  0  0
  -20.6773  -26.9409   22.5407 C   0  0  0  0  0  0
  -19.5749  -26.6383   21.5210 C   0  0  0  0  0  0
  -18.1930  -26.7925   22.1625 C   0  0  0  0  0  0
  -19.1539  -28.8848   23.2884 C   0  0  0  0  0  0
  -18.9463  -30.1452   23.8898 C   0  0  0  0  0  0
  -17.6464  -30.6584   24.0566 C   0  0  0  0  0  0
  -25.9050  -34.9456   23.5107 C   0  0  0  0  0  0
  -16.5354  -29.9084   23.6331 C   0  0  0  0  0  0
  -16.7273  -28.6500   23.0353 C   0  0  0  0  0  0
  -26.4492  -31.6591   25.0724 C   0  0  0  0  0  0
  -25.3733  -31.3728   26.1458 C   0  0  0  0  0  0
  -27.0330  -30.3015   24.6168 C   0  0  0  0  0  0
  -27.6052  -32.4325   25.7493 C   0  0  0  0  0  0
  -27.5579  -37.1803   24.8468 C   0  0  0  0  0  0
  -21.4182  -29.3043   22.3683 N   0  0  0  0  0  0
  -26.4290  -37.3780   23.9412 N   0  0  0  0  0  0
  -24.6864  -31.0635   22.0982 N   0  0  0  0  0  0
  -23.4200  -28.8169   23.3006 O   0  0  0  0  0  0
  -28.3456  -26.4885   20.1494 O   0  0  0  0  0  0
  -26.5615  -34.8923   22.4671 O   0  0  0  0  0  0
  -23.5420  -32.1402   23.7374 O   0  0  0  0  0  0
  -29.1641  -18.1208   20.4540 C   0  0  0  0  0  0
  -30.1749  -20.3198   21.2992 C   0  0  0  0  0  0
  -28.1446  -20.3177   19.8605 C   0  0  0  0  0  0
  -30.3732  -21.8260   20.9005 C   0  0  0  0  0  0
  -28.4309  -21.8187   19.5029 C   0  0  0  0  0  0
  -31.0736  -16.5814   24.9757 C   0  0  0  0  0  0
  -32.7236  -16.8155   23.0840 C   0  0  0  0  0  0
  -30.2412  -17.3075   22.6969 C   0  0  0  0  0  0
  -29.3671  -24.0670   20.3142 C   0  0  0  0  0  0
  -28.1182  -25.0245   20.1228 C   0  0  0  0  0  0
  -30.1780  -17.1225   21.1533 C   0  0  1  0  0  0
  -31.2783  -16.4491   23.4589 C   0  0  0  0  0  0
  -29.2316  -19.5108   20.4916 N   0  0  0  0  0  0
  -29.8533  -15.6721   20.8938 N   0  0  0  0  0  0
  -29.1228  -22.5774   20.5768 N   0  3  0  0  0  0
  -28.2382  -17.5735   19.8444 O   0  0  0  0  0  0
  -31.4763  -12.5193   19.1361 H   0  0  0  0  0  0
  -30.3758  -11.3934   19.8826 H   0  0  0  0  0  0
  -29.7647  -11.7537   17.4707 H   0  0  0  0  0  0
  -29.6432  -13.4746   17.7365 H   0  0  0  0  0  0
  -27.8643  -11.2910   18.8664 H   0  0  0  0  0  0
  -27.3696  -12.5720   17.7931 H   0  0  0  0  0  0
  -27.6707  -14.2520   19.5200 H   0  0  0  0  0  0
  -28.7087  -12.0470   21.3701 H   0  0  0  0  0  0
  -28.4469  -13.7017   21.8403 H   0  0  0  0  0  0
  -25.2759   -9.5689   22.4755 H   0  0  0  0  0  0
  -24.0002   -7.4636   22.7470 H   0  0  0  0  0  0
  -21.0839   -8.8767   19.8951 H   0  0  0  0  0  0
  -22.3686  -10.9671   19.6163 H   0  0  0  0  0  0
  -21.2004   -7.6146   23.9713 H   0  0  0  0  0  0
  -21.1482   -6.0522   25.9076 H   0  0  0  0  0  0
  -22.0600   -2.7607   23.2844 H   0  0  0  0  0  0
  -22.4110  -11.9884   22.4793 H   0  0  0  0  0  0
  -21.1112  -13.1248   22.2619 H   0  0  0  0  0  0
  -24.6580  -15.8418   20.5193 H   0  0  0  0  0  0
  -26.2763  -15.6393   20.0844 H   0  0  0  0  0  0
  -26.7175  -32.5456   23.1108 H   0  0  0  0  0  0
  -25.0078  -33.9733   25.0433 H   0  0  0  0  0  0
  -22.7111  -31.3071   21.4054 H   0  0  0  0  0  0
  -23.3750  -35.9627   23.3304 H   0  0  0  0  0  0
  -24.3580  -36.8910   22.2053 H   0  0  0  0  0  0
  -23.7240  -37.6499   23.6658 H   0  0  0  0  0  0
  -26.0892  -31.5608   20.6063 H   0  0  0  0  0  0
  -26.8399  -30.8424   22.0012 H   0  0  0  0  0  0
  -28.1150  -28.9950   21.1773 H   0  0  0  0  0  0
  -25.9485  -25.9443   18.9943 H   0  0  0  0  0  0
  -23.9625  -27.3147   19.0174 H   0  0  0  0  0  0
  -23.7505  -30.6023   19.4063 H   0  0  0  0  0  0
  -22.7507  -29.2549   19.8581 H   0  0  0  0  0  0
  -25.1291  -36.1937   25.0824 H   0  0  0  0  0  0
  -20.9981  -28.3252   24.1405 H   0  0  0  0  0  0
  -20.5669  -26.2293   23.3604 H   0  0  0  0  0  0
  -21.6642  -26.7435   22.1202 H   0  0  0  0  0  0
  -19.6911  -25.6295   21.1235 H   0  0  0  0  0  0
  -19.6687  -27.3197   20.6744 H   0  0  0  0  0  0
  -17.4199  -26.6677   21.4027 H   0  0  0  0  0  0
  -18.0332  -26.0061   22.9016 H   0  0  0  0  0  0
  -19.7940  -30.7268   24.2264 H   0  0  0  0  0  0
  -17.5020  -31.6265   24.5166 H   0  0  0  0  0  0
  -15.5355  -30.2989   23.7654 H   0  0  0  0  0  0
  -15.8673  -28.0821   22.7068 H   0  0  0  0  0  0
  -24.5904  -30.7077   25.7796 H   0  0  0  0  0  0
  -24.8929  -32.2895   26.4887 H   0  0  0  0  0  0
  -25.8064  -30.8908   27.0231 H   0  0  0  0  0  0
  -26.2897  -29.6769   24.1199 H   0  0  0  0  0  0
  -27.4039  -29.7266   25.4663 H   0  0  0  0  0  0
  -27.8763  -30.4305   23.9380 H   0  0  0  0  0  0
  -27.2662  -33.3626   26.2067 H   0  0  0  0  0  0
  -28.3863  -32.6884   25.0322 H   0  0  0  0  0  0
  -28.0719  -31.8453   26.5412 H   0  0  0  0  0  0
  -28.2597  -38.0099   24.7510 H   0  0  0  0  0  0
  -28.1071  -36.2629   24.6292 H   0  0  0  0  0  0
  -27.2299  -37.1450   25.8872 H   0  0  0  0  0  0
  -20.9350  -29.8776   21.6910 H   0  0  0  0  0  0
  -26.0171  -38.2854   24.1413 H   0  0  0  0  0  0
  -29.7990  -20.3126   22.3226 H   0  0  0  0  0  0
  -31.1531  -19.8377   21.3213 H   0  0  0  0  0  0
  -27.8041  -19.8366   18.9419 H   0  0  0  0  0  0
  -27.2919  -20.2821   20.5402 H   0  0  0  0  0  0
  -31.0390  -21.8770   20.0372 H   0  0  0  0  0  0
  -30.9000  -22.3351   21.7087 H   0  0  0  0  0  0
  -27.4886  -22.3078   19.2547 H   0  0  0  0  0  0
  -29.0395  -21.8619   18.5981 H   0  0  0  0  0  0
  -31.7769  -15.9550   25.5260 H   0  0  0  0  0  0
  -30.0692  -16.2719   25.2674 H   0  0  0  0  0  0
  -31.2139  -17.6098   25.3110 H   0  0  0  0  0  0
  -33.4397  -16.2257   23.6575 H   0  0  0  0  0  0
  -32.9328  -17.8680   23.2789 H   0  0  0  0  0  0
  -32.9282  -16.6251   22.0307 H   0  0  0  0  0  0
  -29.2484  -17.0997   23.1003 H   0  0  0  0  0  0
  -30.4381  -18.3416   22.9595 H   0  0  0  0  0  0
  -29.9321  -24.4534   21.1628 H   0  0  0  0  0  0
  -30.0240  -24.1721   19.4501 H   0  0  0  0  0  0
  -27.3822  -24.7886   20.8927 H   0  0  0  0  0  0
  -27.6733  -24.7524   19.1667 H   0  0  0  0  0  0
  -31.1544  -17.3408   20.7204 H   0  0  0  0  0  0
  -31.1228  -15.3973   23.2200 H   0  0  0  0  0  0
  -28.8809  -15.4435   21.0298 H   0  0  0  0  0  0
  -28.5362  -22.5245   21.3979 H   0  0  0  0  0  0
  1 25  1  0  0  0
  1 30  2  0  0  0
  1 84  1  0  0  0
  2  3  1  0  0  0
  2 25  1  0  0  0
  2 87  1  0  0  0
  2 88  1  0  0  0
  3  4  1  0  0  0
  3 89  1  0  0  0
  3 90  1  0  0  0
  4  5  1  0  0  0
  4 91  1  0  0  0
  4 92  1  0  0  0
  5  6  1  0  0  0
  5 26  1  0  0  0
  5 93  1  0  0  0
  6 25  1  0  0  0
  6 94  1  0  0  0
  6 95  1  0  0  0
  7  8  2  0  0  0
  7 26  1  0  0  0
  7 29  1  0  0  0
  8  9  1  0  0  0
  8 22  1  0  0  0
  9 10  1  0  0  0
  9 27  2  0  0  0
 10 11  2  0  0  0
 10 15  1  0  0  0
 11 12  1  0  0  0
 11 96  1  0  0  0
 12 13  2  0  0  0
 12 97  1  0  0  0
 13 14  1  0  0  0
 13 31  1  0  0  0
 14 15  2  0  0  0
 14 98  1  0  0  0
 15 99  1  0  0  0
 16 17  2  0  0  0
 16 21  1  0  0  0
 16 31  1  0  0  0
 17 18  1  0  0  0
 17100  1  0  0  0
 18 19  2  0  0  0
 18101  1  0  0  0
 19 20  1  0  0  0
 19 24  1  0  0  0
 20 21  2  0  0  0
 20102  1  0  0  0
 21 23  1  0  0  0
 22 28  1  0  0  0
 22 32  2  0  0  0
 26 27  1  0  0  0
 28103  1  0  0  0
 28104  1  0  0  0
 29105  1  0  0  0
 29106  1  0  0  0
 33 34  1  0  0  0
 33 66  1  0  0  0
 33 70  2  0  0  0
 34 36  1  0  0  0
 34 59  1  0  0  0
 34107  1  0  0  0
 35 44  2  0  0  0
 35 45  1  0  0  0
 35 68  1  0  0  0
 36 56  1  0  0  0
 36108  1  0  0  0
 37 39  1  0  0  0
 37 47  1  0  0  0
 37 66  1  0  0  0
 37109  1  0  0  0
 38 43  2  0  0  0
 38 46  1  0  0  0
 38 47  1  0  0  0
 39 64  1  0  0  0
 39 67  2  0  0  0
 40 52  1  0  0  0
 40 53  2  0  0  0
 40 58  1  0  0  0
 41110  1  0  0  0
 41111  1  0  0  0
 41112  1  0  0  0
 41 48  1  0  0  0
 42 43  1  0  0  0
 42 66  1  0  0  0
 42113  1  0  0  0
 42114  1  0  0  0
 43 44  1  0  0  0
 44115  1  0  0  0
 45 46  2  0  0  0
 45116  1  0  0  0
 46117  1  0  0  0
 47118  1  0  0  0
 47119  1  0  0  0
 48 56  1  0  0  0
 48 65  1  0  0  0
 48120  1  0  0  0
 49 50  1  0  0  0
 49 53  1  0  0  0
 49 64  1  0  0  0
 49121  1  0  0  0
 50 51  1  0  0  0
 50122  1  0  0  0
 50123  1  0  0  0
 51 52  1  0  0  0
 51124  1  0  0  0
 51125  1  0  0  0
 52126  1  0  0  0
 52127  1  0  0  0
 53 54  1  0  0  0
 54 55  2  0  0  0
 54128  1  0  0  0
 55 57  1  0  0  0
 55129  1  0  0  0
 56 69  2  0  0  0
 57 58  2  0  0  0
 57130  1  0  0  0
 58131  1  0  0  0
 59 60  1  0  0  0
 59 61  1  0  0  0
 59 62  1  0  0  0
 60132  1  0  0  0
 60133  1  0  0  0
 60134  1  0  0  0
 61135  1  0  0  0
 61136  1  0  0  0
 61137  1  0  0  0
 62138  1  0  0  0
 62139  1  0  0  0
 62140  1  0  0  0
 63 65  1  0  0  0
 63141  1  0  0  0
 63142  1  0  0  0
 63143  1  0  0  0
 64144  1  0  0  0
 65145  1  0  0  0
 68 80  1  0  0  0
 71 81  1  0  0  0
 71 83  1  0  0  0
 71 86  2  0  0  0
 72 74  1  0  0  0
 72 83  1  0  0  0
 72146  1  0  0  0
 72147  1  0  0  0
 73 75  1  0  0  0
 73 83  1  0  0  0
 73148  1  0  0  0
 73149  1  0  0  0
 74 85  1  0  0  0
 74150  1  0  0  0
 74151  1  0  0  0
 75 85  1  0  0  0
 75152  1  0  0  0
 75153  1  0  0  0
 76154  1  0  0  0
 76155  1  0  0  0
 76156  1  0  0  0
 76 82  1  0  0  0
 77 82  1  0  0  0
 77157  1  0  0  0
 77158  1  0  0  0
 77159  1  0  0  0
 78 82  1  0  0  0
 78160  1  0  0  0
 78161  1  0  0  0
 78 81  1  0  0  0
 79 80  1  0  0  0
 79162  1  0  0  0
 79163  1  0  0  0
 79 85  1  0  0  0
 80164  1  0  0  0
 80165  1  0  0  0
 81 84  1  0  0  0
 81166  1  0  0  0
 82167  1  0  0  0
 84168  1  0  0  0
 85169  1  0  0  0
M  CHG  1  85   1
M  ISO  4   1 100  68 101  80 101  84 100
M  END
> <chiral flag>
0

> <version>
0

> <s_m_source_file>
/data/baiqing/PycharmProjects/Reinvent-master-3.2/result/LINK_invent/BTK/process_docking_weight1_custom_sum_contain_oxygen_bond_distance_aromatic_linkinvent_7_9_3/rearranged_h_0114.sdf

> <i_m_source_file_index>
87

> <r_mmod_Potential_Energy-OPLS-2005>
-20.3659858703613

> <r_mmod_Stretch_Energy-OPLS-2005>
82.0885467529297

> <r_mmod_Bend_Energy-OPLS-2005>
151.776443481445

> <r_mmod_Torsional_Energy-OPLS-2005>
337.505035400391

> <r_mmod_Improper_Torsional_Energy-OPLS-2005>
3.75844955444336

> <r_mmod_Van_der_Waal_Energy-OPLS-2005>
134.787643432617

> <r_mmod_Electrostatic_Energy-OPLS-2005>
-316.612121582031

> <r_mmod_Solvation_Energy-OPLS-2005>
-457.499725341797

> <b_mmod_Minimization_Converged-OPLS-2005>
0

> <r_mmod_RMS_Derivative-OPLS-2005>
0.378723114728928

$$$$
87
                    3D
 Structure written by MMmdl.
167175  0  0  1  0            999 V2000
  -30.7178  -14.4571   20.5958 C   0  0  0  0  0  0
  -30.4227  -12.3061   19.4184 C   0  0  0  0  0  0
  -29.4932  -12.5103   18.2047 C   0  0  0  0  0  0
  -28.0156  -12.3643   18.6186 C   0  0  0  0  0  0
  -27.6614  -13.2036   19.8746 C   0  0  2  0  0  0
  -28.7030  -12.9864   20.9950 C   0  0  0  0  0  0
  -25.2592  -13.8153   20.5677 C   0  0  0  0  0  0
  -24.1836  -13.0436   20.9170 C   0  0  0  0  0  0
  -24.6390  -11.6901   20.8731 C   0  0  0  0  0  0
  -23.9058  -10.4289   21.0403 C   0  0  0  0  0  0
  -24.3614   -9.4207   21.9183 C   0  0  0  0  0  0
  -23.6292   -8.2242   22.0753 C   0  0  0  0  0  0
  -22.4273   -8.0280   21.3546 C   0  0  0  0  0  0
  -21.9908   -9.0252   20.4648 C   0  0  0  0  0  0
  -22.7233  -10.2133   20.3055 C   0  0  0  0  0  0
  -21.6852   -6.0736   22.5282 C   0  0  0  0  0  0
  -21.4012   -6.5638   23.8215 C   0  0  0  0  0  0
  -21.3658   -5.6789   24.9176 C   0  0  0  0  0  0
  -21.6046   -4.3054   24.7226 C   0  0  0  0  0  0
  -21.8819   -3.8148   23.4345 C   0  0  0  0  0  0
  -21.9193   -4.6964   22.3402 C   0  0  0  0  0  0
  -22.7862  -13.5240   21.1841 C   0  0  0  0  0  0
  -22.1661   -4.2151   21.0979 F   0  0  0  0  0  0
  -21.5632   -3.4540   25.7739 F   0  0  0  0  0  0
  -30.0359  -13.2872   20.4439 N   0  0  0  0  0  0
  -26.3025  -12.9314   20.3369 N   0  0  0  0  0  0
  -25.9319  -11.6476   20.5767 N   0  0  0  0  0  0
  -22.0499  -12.8234   22.0397 N   0  0  0  0  0  0
  -25.4335  -15.1867   20.4075 N   0  0  0  0  0  0
  -31.8309  -14.6550   20.0976 O   0  0  0  0  0  0
  -21.6638   -6.8879   21.4243 O   0  0  0  0  0  0
  -22.3555  -14.5554   20.6702 O   0  0  0  0  0  0
  -24.6124  -31.8694   23.2117 C   0  0  0  0  0  0
  -25.9024  -32.4834   23.8413 C   0  0  1  0  0  0
  -27.2422  -27.4457   20.1067 C   0  0  0  0  0  0
  -25.5890  -33.8632   24.2349 N   0  0  0  0  0  0
  -23.4022  -30.4905   21.5506 C   0  0  2  0  0  0
  -24.8541  -28.9565   20.1184 C   0  0  0  0  0  0
  -22.7406  -29.4659   22.5004 C   0  0  0  0  0  0
  -18.0268  -28.1379   22.8492 C   0  0  0  0  0  0
  -24.1487  -36.7320   23.2638 C   0  0  0  0  0  0
  -25.9287  -30.8368   21.3668 C   0  0  0  0  0  0
  -26.0094  -29.4681   20.7243 C   0  0  0  0  0  0
  -27.2063  -28.7163   20.7286 C   0  0  0  0  0  0
  -26.0787  -26.9537   19.4841 C   0  0  0  0  0  0
  -24.8816  -27.6952   19.4978 C   0  0  0  0  0  0
  -23.6131  -29.8196   20.1660 C   0  0  0  0  0  0
  -25.4107  -36.3124   24.0341 C   0  0  1  0  0  0
  -20.5858  -28.3661   23.1327 C   0  0  2  0  0  0
  -20.6756  -26.9399   22.5424 C   0  0  0  0  0  0
  -19.5739  -26.6386   21.5217 C   0  0  0  0  0  0
  -18.1913  -26.7930   22.1617 C   0  0  0  0  0  0
  -19.1516  -28.8835   23.2908 C   0  0  0  0  0  0
  -18.9445  -30.1444   23.8918 C   0  0  0  0  0  0
  -17.6446  -30.6583   24.0568 C   0  0  0  0  0  0
  -25.9029  -34.9484   23.5144 C   0  0  0  0  0  0
  -16.5337  -29.9085   23.6328 C   0  0  0  0  0  0
  -16.7255  -28.6503   23.0350 C   0  0  0  0  0  0
  -26.4464  -31.6602   25.0727 C   0  0  0  0  0  0
  -25.3740  -31.3692   26.1481 C   0  0  0  0  0  0
  -27.0293  -30.3050   24.6091 C   0  0  0  0  0  0
  -27.6053  -32.4310   25.7478 C   0  0  0  0  0  0
  -27.5591  -37.1808   24.8457 C   0  0  0  0  0  0
  -21.4137  -29.3029   22.3736 N   0  0  0  0  0  0
  -26.4297  -37.3808   23.9410 N   0  0  0  0  0  0
  -24.6652  -31.0804   22.1016 N   0  0  0  0  0  0
  -23.4183  -28.8208   23.3046 O   0  0  0  0  0  0
  -28.3697  -26.6596   20.0552 O   0  0  0  0  0  0
  -26.5591  -34.8925   22.4705 O   0  0  0  0  0  0
  -23.5320  -32.1440   23.7516 O   0  0  0  0  0  0
  -29.5006  -17.0334   23.1263 C   0  0  0  0  0  0
  -30.0716  -18.4090   22.7159 C   0  0  0  0  0  0
  -30.1600  -17.8571   20.2309 C   0  0  0  0  0  0
  -30.2610  -15.8049   22.5694 C   0  0  0  0  0  0
  -29.4097  -16.5023   20.2838 C   0  0  0  0  0  0
  -29.6954  -18.8817   21.2943 C   0  0  2  0  0  0
  -30.9985  -25.4019   20.0605 C   0  0  0  0  0  0
  -30.1698  -22.7465   21.2446 C   0  0  0  0  0  0
  -29.4137  -21.3963   21.3921 C   0  0  0  0  0  0
  -28.9982  -26.3860   21.3077 C   0  0  0  0  0  0
  -29.9853  -25.1897   21.1997 C   0  0  1  0  0  0
  -30.0238  -15.4801   21.1539 N   0  0  0  0  0  0
  -29.2785  -23.9042   21.0711 N   0  0  0  0  0  0
  -30.2592  -20.2332   21.0122 N   0  3  0  0  0  0
  -31.4673  -12.4035   19.1170 H   0  0  0  0  0  0
  -30.3212  -11.2937   19.8122 H   0  0  0  0  0  0
  -29.7337  -11.7927   17.4194 H   0  0  0  0  0  0
  -29.6582  -13.5001   17.7752 H   0  0  0  0  0  0
  -27.8297  -11.3080   18.8158 H   0  0  0  0  0  0
  -27.3631  -12.6363   17.7882 H   0  0  0  0  0  0
  -27.7031  -14.2500   19.5751 H   0  0  0  0  0  0
  -28.6770  -11.9538   21.3457 H   0  0  0  0  0  0
  -28.4596  -13.5970   21.8650 H   0  0  0  0  0  0
  -25.2760   -9.5683   22.4755 H   0  0  0  0  0  0
  -24.0002   -7.4633   22.7469 H   0  0  0  0  0  0
  -21.0842   -8.8767   19.8953 H   0  0  0  0  0  0
  -22.3690  -10.9671   19.6165 H   0  0  0  0  0  0
  -21.2001   -7.6146   23.9723 H   0  0  0  0  0  0
  -21.1482   -6.0517   25.9080 H   0  0  0  0  0  0
  -22.0601   -2.7611   23.2847 H   0  0  0  0  0  0
  -22.4107  -11.9883   22.4770 H   0  0  0  0  0  0
  -21.1123  -13.1270   22.2612 H   0  0  0  0  0  0
  -24.6718  -15.8472   20.5187 H   0  0  0  0  0  0
  -26.2942  -15.6217   20.1027 H   0  0  0  0  0  0
  -26.7105  -32.5565   23.1191 H   0  0  0  0  0  0
  -25.0047  -33.9806   25.0498 H   0  0  0  0  0  0
  -22.6896  -31.3056   21.4091 H   0  0  0  0  0  0
  -23.3754  -35.9648   23.3300 H   0  0  0  0  0  0
  -24.3593  -36.8932   22.2054 H   0  0  0  0  0  0
  -23.7223  -37.6519   23.6646 H   0  0  0  0  0  0
  -26.0382  -31.5988   20.5937 H   0  0  0  0  0  0
  -26.8166  -30.8970   21.9838 H   0  0  0  0  0  0
  -28.0953  -29.1162   21.1956 H   0  0  0  0  0  0
  -26.1000  -25.9879   18.9991 H   0  0  0  0  0  0
  -23.9955  -27.2947   19.0245 H   0  0  0  0  0  0
  -23.7192  -30.5920   19.4032 H   0  0  0  0  0  0
  -22.7392  -29.2350   19.8724 H   0  0  0  0  0  0
  -25.1288  -36.2000   25.0836 H   0  0  0  0  0  0
  -20.9943  -28.3220   24.1449 H   0  0  0  0  0  0
  -20.5652  -26.2271   23.3614 H   0  0  0  0  0  0
  -21.6630  -26.7442   22.1221 H   0  0  0  0  0  0
  -19.6896  -25.6299   21.1238 H   0  0  0  0  0  0
  -19.6684  -27.3209   20.6757 H   0  0  0  0  0  0
  -17.4193  -26.6697   21.4007 H   0  0  0  0  0  0
  -18.0295  -26.0064   22.9001 H   0  0  0  0  0  0
  -19.7920  -30.7257   24.2300 H   0  0  0  0  0  0
  -17.4997  -31.6265   24.5162 H   0  0  0  0  0  0
  -15.5339  -30.2991   23.7639 H   0  0  0  0  0  0
  -15.8658  -28.0825   22.7059 H   0  0  0  0  0  0
  -24.5914  -30.7042   25.7811 H   0  0  0  0  0  0
  -24.8931  -32.2839   26.4957 H   0  0  0  0  0  0
  -25.8101  -30.8838   27.0222 H   0  0  0  0  0  0
  -26.2834  -29.6809   24.1154 H   0  0  0  0  0  0
  -27.4081  -29.7286   25.4542 H   0  0  0  0  0  0
  -27.8663  -30.4380   23.9230 H   0  0  0  0  0  0
  -27.2688  -33.3588   26.2117 H   0  0  0  0  0  0
  -28.3826  -32.6904   25.0276 H   0  0  0  0  0  0
  -28.0768  -31.8395   26.5338 H   0  0  0  0  0  0
  -28.2601  -38.0116   24.7541 H   0  0  0  0  0  0
  -28.1099  -36.2653   24.6243 H   0  0  0  0  0  0
  -27.2317  -37.1410   25.8862 H   0  0  0  0  0  0
  -20.9297  -29.8752   21.6961 H   0  0  0  0  0  0
  -26.0193  -38.2887   24.1424 H   0  0  0  0  0  0
  -28.4338  -16.9687   22.9080 H   0  0  0  0  0  0
  -29.5664  -16.9746   24.2135 H   0  0  0  0  0  0
  -31.1555  -18.3974   22.8365 H   0  0  0  0  0  0
  -29.7047  -19.1456   23.4316 H   0  0  0  0  0  0
  -29.9711  -18.2898   19.2472 H   0  0  0  0  0  0
  -31.2391  -17.7008   20.2805 H   0  0  0  0  0  0
  -29.9796  -14.9312   23.1598 H   0  0  0  0  0  0
  -31.3330  -15.9354   22.7329 H   0  0  0  0  0  0
  -29.3639  -16.1110   19.2648 H   0  0  0  0  0  0
  -28.3663  -16.6439   20.5665 H   0  0  0  0  0  0
  -28.6085  -18.9588   21.2222 H   0  0  0  0  0  0
  -31.4627  -26.3860   20.1421 H   0  0  0  0  0  0
  -30.5203  -25.3478   19.0821 H   0  0  0  0  0  0
  -31.8087  -24.6740   20.0822 H   0  0  0  0  0  0
  -30.8246  -22.6941   20.3741 H   0  0  0  0  0  0
  -30.8140  -22.8909   22.1143 H   0  0  0  0  0  0
  -28.5302  -21.3880   20.7515 H   0  0  0  0  0  0
  -29.0595  -21.2848   22.4177 H   0  0  0  0  0  0
  -29.5458  -27.2741   21.6261 H   0  0  0  0  0  0
  -28.2510  -26.1873   22.0790 H   0  0  0  0  0  0
  -30.5352  -25.1656   22.1429 H   0  0  0  0  0  0
  -28.5573  -23.8773   21.7888 H   0  0  0  0  0  0
  -30.4145  -20.3059   20.0197 H   0  0  0  0  0  0
  -31.1572  -20.3151   21.4601 H   0  0  0  0  0  0
  1 25  1  0  0  0
  1 30  2  0  0  0
  1 82  1  0  0  0
  2  3  1  0  0  0
  2 25  1  0  0  0
  2 85  1  0  0  0
  2 86  1  0  0  0
  3  4  1  0  0  0
  3 87  1  0  0  0
  3 88  1  0  0  0
  4  5  1  0  0  0
  4 89  1  0  0  0
  4 90  1  0  0  0
  5  6  1  0  0  0
  5 26  1  0  0  0
  5 91  1  0  0  0
  6 25  1  0  0  0
  6 92  1  0  0  0
  6 93  1  0  0  0
  7  8  2  0  0  0
  7 26  1  0  0  0
  7 29  1  0  0  0
  8  9  1  0  0  0
  8 22  1  0  0  0
  9 10  1  0  0  0
  9 27  2  0  0  0
 10 11  2  0  0  0
 10 15  1  0  0  0
 11 12  1  0  0  0
 11 94  1  0  0  0
 12 13  2  0  0  0
 12 95  1  0  0  0
 13 14  1  0  0  0
 13 31  1  0  0  0
 14 15  2  0  0  0
 14 96  1  0  0  0
 15 97  1  0  0  0
 16 17  2  0  0  0
 16 21  1  0  0  0
 16 31  1  0  0  0
 17 18  1  0  0  0
 17 98  1  0  0  0
 18 19  2  0  0  0
 18 99  1  0  0  0
 19 20  1  0  0  0
 19 24  1  0  0  0
 20 21  2  0  0  0
 20100  1  0  0  0
 21 23  1  0  0  0
 22 28  1  0  0  0
 22 32  2  0  0  0
 26 27  1  0  0  0
 28101  1  0  0  0
 28102  1  0  0  0
 29103  1  0  0  0
 29104  1  0  0  0
 33 34  1  0  0  0
 33 66  1  0  0  0
 33 70  2  0  0  0
 34 36  1  0  0  0
 34 59  1  0  0  0
 34105  1  0  0  0
 35 44  2  0  0  0
 35 45  1  0  0  0
 35 68  1  0  0  0
 36 56  1  0  0  0
 36106  1  0  0  0
 37 39  1  0  0  0
 37 47  1  0  0  0
 37 66  1  0  0  0
 37107  1  0  0  0
 38 43  2  0  0  0
 38 46  1  0  0  0
 38 47  1  0  0  0
 39 64  1  0  0  0
 39 67  2  0  0  0
 40 52  1  0  0  0
 40 53  2  0  0  0
 40 58  1  0  0  0
 41108  1  0  0  0
 41109  1  0  0  0
 41110  1  0  0  0
 41 48  1  0  0  0
 42 43  1  0  0  0
 42 66  1  0  0  0
 42111  1  0  0  0
 42112  1  0  0  0
 43 44  1  0  0  0
 44113  1  0  0  0
 45 46  2  0  0  0
 45114  1  0  0  0
 46115  1  0  0  0
 47116  1  0  0  0
 47117  1  0  0  0
 48 56  1  0  0  0
 48 65  1  0  0  0
 48118  1  0  0  0
 49 50  1  0  0  0
 49 53  1  0  0  0
 49 64  1  0  0  0
 49119  1  0  0  0
 50 51  1  0  0  0
 50120  1  0  0  0
 50121  1  0  0  0
 51 52  1  0  0  0
 51122  1  0  0  0
 51123  1  0  0  0
 52124  1  0  0  0
 52125  1  0  0  0
 53 54  1  0  0  0
 54 55  2  0  0  0
 54126  1  0  0  0
 55 57  1  0  0  0
 55127  1  0  0  0
 56 69  2  0  0  0
 57 58  2  0  0  0
 57128  1  0  0  0
 58129  1  0  0  0
 59 60  1  0  0  0
 59 61  1  0  0  0
 59 62  1  0  0  0
 60130  1  0  0  0
 60131  1  0  0  0
 60132  1  0  0  0
 61133  1  0  0  0
 61134  1  0  0  0
 61135  1  0  0  0
 62136  1  0  0  0
 62137  1  0  0  0
 62138  1  0  0  0
 63 65  1  0  0  0
 63139  1  0  0  0
 63140  1  0  0  0
 63141  1  0  0  0
 64142  1  0  0  0
 65143  1  0  0  0
 68 80  1  0  0  0
 71 72  1  0  0  0
 71 74  1  0  0  0
 71144  1  0  0  0
 71145  1  0  0  0
 72 76  1  0  0  0
 72146  1  0  0  0
 72147  1  0  0  0
 73 75  1  0  0  0
 73 76  1  0  0  0
 73148  1  0  0  0
 73149  1  0  0  0
 74 82  1  0  0  0
 74150  1  0  0  0
 74151  1  0  0  0
 75 82  1  0  0  0
 75152  1  0  0  0
 75153  1  0  0  0
 76 84  1  0  0  0
 76154  1  0  0  0
 77155  1  0  0  0
 77156  1  0  0  0
 77157  1  0  0  0
 77 81  1  0  0  0
 78 79  1  0  0  0
 78 83  1  0  0  0
 78158  1  0  0  0
 78159  1  0  0  0
 79 84  1  0  0  0
 79160  1  0  0  0
 79161  1  0  0  0
 80 81  1  0  0  0
 80162  1  0  0  0
 80163  1  0  0  0
 81 83  1  0  0  0
 81164  1  0  0  0
 83165  1  0  0  0
 84166  1  0  0  0
 84167  1  0  0  0
M  CHG  1  84   1
M  ISO  4   1 100  68 101  80 101  82 100
M  END
> <chiral flag>
0

> <version>
0

> <s_m_source_file>
/data/baiqing/PycharmProjects/Reinvent-master-3.2/result/LINK_invent/BTK/process_docking_weight1_custom_sum_contain_oxygen_bond_distance_aromatic_linkinvent_7_9_3/rearranged_h_0114.sdf

> <i_m_source_file_index>
88

> <r_mmod_Potential_Energy-OPLS-2005>
51.2311248779297

> <r_mmod_Stretch_Energy-OPLS-2005>
38.9486541748047

> <r_mmod_Bend_Energy-OPLS-2005>
103.606086730957

> <r_mmod_Torsional_Energy-OPLS-2005>
375.576080322266

> <r_mmod_Improper_Torsional_Energy-OPLS-2005>
5.16350555419922

> <r_mmod_Van_der_Waal_Energy-OPLS-2005>
129.172714233398

> <r_mmod_Electrostatic_Energy-OPLS-2005>
-159.190628051758

> <r_mmod_Solvation_Energy-OPLS-2005>
-452.613983154297

> <b_mmod_Minimization_Converged-OPLS-2005>
0

> <r_mmod_RMS_Derivative-OPLS-2005>
0.845154285430908

$$$$
88
                    3D
 Structure written by MMmdl.
156164  0  0  1  0            999 V2000
  -30.5284  -15.0213   20.3980 C   0  0  0  0  0  0
  -30.4320  -12.6370   19.5034 C   0  0  0  0  0  0
  -29.5205  -12.5419   18.2587 C   0  0  0  0  0  0
  -28.0568  -12.3140   18.6786 C   0  0  0  0  0  0
  -27.6224  -13.2571   19.8306 C   0  0  2  0  0  0
  -28.6633  -13.3283   20.9672 C   0  0  0  0  0  0
  -25.2435  -13.8237   20.5706 C   0  0  0  0  0  0
  -24.1767  -13.0446   20.9233 C   0  0  0  0  0  0
  -24.6397  -11.6930   20.8750 C   0  0  0  0  0  0
  -23.9088  -10.4296   21.0405 C   0  0  0  0  0  0
  -24.3639   -9.4214   21.9177 C   0  0  0  0  0  0
  -23.6311   -8.2252   22.0750 C   0  0  0  0  0  0
  -22.4291   -8.0291   21.3546 C   0  0  0  0  0  0
  -21.9933   -9.0258   20.4640 C   0  0  0  0  0  0
  -22.7267  -10.2133   20.3048 C   0  0  0  0  0  0
  -21.6864   -6.0739   22.5271 C   0  0  0  0  0  0
  -21.4025   -6.5636   23.8208 C   0  0  0  0  0  0
  -21.3668   -5.6785   24.9165 C   0  0  0  0  0  0
  -21.6052   -4.3050   24.7215 C   0  0  0  0  0  0
  -21.8823   -3.8145   23.4335 C   0  0  0  0  0  0
  -21.9200   -4.6966   22.3394 C   0  0  0  0  0  0
  -22.7785  -13.5200   21.1885 C   0  0  0  0  0  0
  -22.1662   -4.2148   21.0972 F   0  0  0  0  0  0
  -21.5634   -3.4536   25.7734 F   0  0  0  0  0  0
  -29.9260  -13.7580   20.3546 N   0  0  0  0  0  0
  -26.2855  -12.9476   20.3214 N   0  0  0  0  0  0
  -25.9331  -11.6597   20.5725 N   0  0  0  0  0  0
  -22.0440  -12.8182   22.0440 N   0  0  0  0  0  0
  -25.4092  -15.1968   20.4136 N   0  0  0  0  0  0
  -31.7427  -15.0449   20.1638 O   0  0  0  0  0  0
  -21.6659   -6.8887   21.4236 O   0  0  0  0  0  0
  -22.3459  -14.5501   20.6725 O   0  0  0  0  0  0
  -24.6488  -31.8388   23.1823 C   0  0  0  0  0  0
  -25.9232  -32.4668   23.8243 C   0  0  1  0  0  0
  -27.2171  -27.0799   20.1604 C   0  0  0  0  0  0
  -25.5963  -33.8476   24.2162 N   0  0  0  0  0  0
  -23.4559  -30.4546   21.5289 C   0  0  2  0  0  0
  -24.9063  -28.8694   20.1083 C   0  0  0  0  0  0
  -22.7596  -29.4517   22.4838 C   0  0  0  0  0  0
  -18.0311  -28.1397   22.8473 C   0  0  0  0  0  0
  -24.1495  -36.7244   23.2644 C   0  0  0  0  0  0
  -26.0150  -30.6940   21.3892 C   0  0  0  0  0  0
  -26.0848  -29.2996   20.7307 C   0  0  0  0  0  0
  -27.2394  -28.4212   20.7367 C   0  0  0  0  0  0
  -26.0140  -26.7636   19.4941 C   0  0  0  0  0  0
  -24.8872  -27.6179   19.4723 C   0  0  0  0  0  0
  -23.6855  -29.7782   20.1503 C   0  0  0  0  0  0
  -25.4132  -36.3022   24.0314 C   0  0  1  0  0  0
  -20.5927  -28.3731   23.1218 C   0  0  2  0  0  0
  -20.6791  -26.9426   22.5403 C   0  0  0  0  0  0
  -19.5765  -26.6376   21.5212 C   0  0  0  0  0  0
  -18.1947  -26.7934   22.1622 C   0  0  0  0  0  0
  -19.1570  -28.8884   23.2835 C   0  0  0  0  0  0
  -18.9483  -30.1478   23.8860 C   0  0  0  0  0  0
  -17.6475  -30.6586   24.0561 C   0  0  0  0  0  0
  -25.9081  -34.9396   23.5051 C   0  0  0  0  0  0
  -16.5368  -29.9075   23.6338 C   0  0  0  0  0  0
  -16.7295  -28.6498   23.0352 C   0  0  0  0  0  0
  -26.4533  -31.6547   25.0701 C   0  0  0  0  0  0
  -25.3689  -31.3744   26.1373 C   0  0  0  0  0  0
  -27.0412  -30.2938   24.6317 C   0  0  0  0  0  0
  -27.6053  -32.4319   25.7488 C   0  0  0  0  0  0
  -27.5581  -37.1782   24.8466 C   0  0  0  0  0  0
  -21.4282  -29.3047   22.3585 N   0  0  0  0  0  0
  -26.4297  -37.3739   23.9400 N   0  0  0  0  0  0
  -24.7269  -31.0187   22.0883 N   0  0  0  0  0  0
  -23.4208  -28.8074   23.3021 O   0  0  0  0  0  0
  -28.2578  -26.0671   20.2424 O   0  0  0  0  0  0
  -26.5674  -34.8902   22.4630 O   0  0  0  0  0  0
  -23.5588  -32.1299   23.7000 O   0  0  0  0  0  0
  -29.8610  -20.5119   20.6989 C   0  0  0  0  0  0
  -28.9714  -21.5666   20.3261 C   0  0  0  0  0  0
  -27.9976  -20.6974   19.7085 C   0  0  0  0  0  0
  -26.7270  -21.1438   19.0465 C   0  0  0  0  0  0
  -30.4352  -23.6361   19.9118 C   0  0  0  0  0  0
  -29.1835  -23.4439   22.0634 C   0  0  0  0  0  0
  -28.0292  -24.5095   20.0470 C   0  0  0  0  0  0
  -30.2981  -17.7635   20.3976 C   0  0  0  0  0  0
  -29.0868  -23.2495   20.5415 C   0  0  0  0  0  0
  -28.2916  -19.3562   19.7124 N   0  0  0  0  0  0
  -29.4786  -19.1527   20.3534 N   0  0  0  0  0  0
  -29.7887  -16.2522   20.4879 N   0  0  0  0  0  0
  -31.4645  -12.7945   19.1897 H   0  0  0  0  0  0
  -30.4281  -11.6963   20.0566 H   0  0  0  0  0  0
  -29.8544  -11.7364   17.6036 H   0  0  0  0  0  0
  -29.5962  -13.4637   17.6792 H   0  0  0  0  0  0
  -27.9653  -11.2756   18.9991 H   0  0  0  0  0  0
  -27.3928  -12.4278   17.8209 H   0  0  0  0  0  0
  -27.5721  -14.2503   19.3838 H   0  0  0  0  0  0
  -28.7694  -12.3660   21.4701 H   0  0  0  0  0  0
  -28.3507  -14.0467   21.7266 H   0  0  0  0  0  0
  -25.2778   -9.5703   22.4754 H   0  0  0  0  0  0
  -24.0028   -7.4657   22.7477 H   0  0  0  0  0  0
  -21.0866   -8.8779   19.8941 H   0  0  0  0  0  0
  -22.3723  -10.9675   19.6165 H   0  0  0  0  0  0
  -21.2008   -7.6144   23.9710 H   0  0  0  0  0  0
  -21.1490   -6.0511   25.9069 H   0  0  0  0  0  0
  -22.0592   -2.7606   23.2833 H   0  0  0  0  0  0
  -22.4074  -11.9859   22.4850 H   0  0  0  0  0  0
  -21.1048  -13.1185   22.2633 H   0  0  0  0  0  0
  -24.6398  -15.8480   20.5280 H   0  0  0  0  0  0
  -26.2489  -15.6394   20.0616 H   0  0  0  0  0  0
  -26.7298  -32.5254   23.0967 H   0  0  0  0  0  0
  -25.0089  -33.9579   25.0300 H   0  0  0  0  0  0
  -22.7617  -31.2820   21.3690 H   0  0  0  0  0  0
  -23.3771  -35.9560   23.3288 H   0  0  0  0  0  0
  -24.3584  -36.8896   22.2064 H   0  0  0  0  0  0
  -23.7235  -37.6426   23.6697 H   0  0  0  0  0  0
  -26.1765  -31.4459   20.6157 H   0  0  0  0  0  0
  -26.8825  -30.7460   22.0354 H   0  0  0  0  0  0
  -28.1359  -28.7441   21.2468 H   0  0  0  0  0  0
  -25.9142  -25.8057   19.0064 H   0  0  0  0  0  0
  -23.9880  -27.2842   18.9725 H   0  0  0  0  0  0
  -23.8260  -30.5506   19.3931 H   0  0  0  0  0  0
  -22.7990  -29.2227   19.8395 H   0  0  0  0  0  0
  -25.1322  -36.1852   25.0810 H   0  0  0  0  0  0
  -21.0020  -28.3328   24.1341 H   0  0  0  0  0  0
  -20.5687  -26.2344   23.3629 H   0  0  0  0  0  0
  -21.6657  -26.7422   22.1201 H   0  0  0  0  0  0
  -19.6921  -25.6278   21.1265 H   0  0  0  0  0  0
  -19.6702  -27.3169   20.6730 H   0  0  0  0  0  0
  -17.4219  -26.6689   21.4019 H   0  0  0  0  0  0
  -18.0336  -26.0082   22.9023 H   0  0  0  0  0  0
  -19.7957  -30.7314   24.2205 H   0  0  0  0  0  0
  -17.5021  -31.6261   24.5173 H   0  0  0  0  0  0
  -15.5363  -30.2959   23.7680 H   0  0  0  0  0  0
  -15.8701  -28.0805   22.7073 H   0  0  0  0  0  0
  -24.5880  -30.7092   25.7670 H   0  0  0  0  0  0
  -24.8866  -32.2926   26.4732 H   0  0  0  0  0  0
  -25.7944  -30.8947   27.0196 H   0  0  0  0  0  0
  -26.3045  -29.6631   24.1332 H   0  0  0  0  0  0
  -27.4018  -29.7271   25.4911 H   0  0  0  0  0  0
  -27.8951  -30.4163   23.9650 H   0  0  0  0  0  0
  -27.2647  -33.3642   26.2005 H   0  0  0  0  0  0
  -28.3893  -32.6845   25.0335 H   0  0  0  0  0  0
  -28.0690  -31.8486   26.5453 H   0  0  0  0  0  0
  -28.2587  -38.0090   24.7522 H   0  0  0  0  0  0
  -28.1094  -36.2621   24.6291 H   0  0  0  0  0  0
  -27.2297  -37.1417   25.8868 H   0  0  0  0  0  0
  -20.9505  -29.8754   21.6752 H   0  0  0  0  0  0
  -26.0163  -38.2808   24.1395 H   0  0  0  0  0  0
  -30.8172  -20.6313   21.1884 H   0  0  0  0  0  0
  -26.1574  -21.8065   19.6980 H   0  0  0  0  0  0
  -26.0828  -20.3031   18.7882 H   0  0  0  0  0  0
  -26.9392  -21.6900   18.1276 H   0  0  0  0  0  0
  -31.2581  -23.0451   20.3142 H   0  0  0  0  0  0
  -30.6750  -24.6858   20.0873 H   0  0  0  0  0  0
  -30.4161  -23.4811   18.8323 H   0  0  0  0  0  0
  -29.9825  -22.8468   22.5037 H   0  0  0  0  0  0
  -28.2496  -23.1566   22.5486 H   0  0  0  0  0  0
  -29.3761  -24.4859   22.3219 H   0  0  0  0  0  0
  -27.0610  -24.2904   20.4980 H   0  0  0  0  0  0
  -27.8708  -24.3768   18.9767 H   0  0  0  0  0  0
  -30.9943  -17.8680   21.2300 H   0  0  0  0  0  0
  -30.9412  -17.7854   19.5167 H   0  0  0  0  0  0
  -28.7929  -16.1496   20.6111 H   0  0  0  0  0  0
  1 25  1  0  0  0
  1 30  2  0  0  0
  1 82  1  0  0  0
  2  3  1  0  0  0
  2 25  1  0  0  0
  2 83  1  0  0  0
  2 84  1  0  0  0
  3  4  1  0  0  0
  3 85  1  0  0  0
  3 86  1  0  0  0
  4  5  1  0  0  0
  4 87  1  0  0  0
  4 88  1  0  0  0
  5  6  1  0  0  0
  5 26  1  0  0  0
  5 89  1  0  0  0
  6 25  1  0  0  0
  6 90  1  0  0  0
  6 91  1  0  0  0
  7  8  2  0  0  0
  7 26  1  0  0  0
  7 29  1  0  0  0
  8  9  1  0  0  0
  8 22  1  0  0  0
  9 10  1  0  0  0
  9 27  2  0  0  0
 10 11  2  0  0  0
 10 15  1  0  0  0
 11 12  1  0  0  0
 11 92  1  0  0  0
 12 13  2  0  0  0
 12 93  1  0  0  0
 13 14  1  0  0  0
 13 31  1  0  0  0
 14 15  2  0  0  0
 14 94  1  0  0  0
 15 95  1  0  0  0
 16 17  2  0  0  0
 16 21  1  0  0  0
 16 31  1  0  0  0
 17 18  1  0  0  0
 17 96  1  0  0  0
 18 19  2  0  0  0
 18 97  1  0  0  0
 19 20  1  0  0  0
 19 24  1  0  0  0
 20 21  2  0  0  0
 20 98  1  0  0  0
 21 23  1  0  0  0
 22 28  1  0  0  0
 22 32  2  0  0  0
 26 27  1  0  0  0
 28 99  1  0  0  0
 28100  1  0  0  0
 29101  1  0  0  0
 29102  1  0  0  0
 33 34  1  0  0  0
 33 66  1  0  0  0
 33 70  2  0  0  0
 34 36  1  0  0  0
 34 59  1  0  0  0
 34103  1  0  0  0
 35 44  2  0  0  0
 35 45  1  0  0  0
 35 68  1  0  0  0
 36 56  1  0  0  0
 36104  1  0  0  0
 37 39  1  0  0  0
 37 47  1  0  0  0
 37 66  1  0  0  0
 37105  1  0  0  0
 38 43  2  0  0  0
 38 46  1  0  0  0
 38 47  1  0  0  0
 39 64  1  0  0  0
 39 67  2  0  0  0
 40 52  1  0  0  0
 40 53  2  0  0  0
 40 58  1  0  0  0
 41106  1  0  0  0
 41107  1  0  0  0
 41108  1  0  0  0
 41 48  1  0  0  0
 42 43  1  0  0  0
 42 66  1  0  0  0
 42109  1  0  0  0
 42110  1  0  0  0
 43 44  1  0  0  0
 44111  1  0  0  0
 45 46  2  0  0  0
 45112  1  0  0  0
 46113  1  0  0  0
 47114  1  0  0  0
 47115  1  0  0  0
 48 56  1  0  0  0
 48 65  1  0  0  0
 48116  1  0  0  0
 49 50  1  0  0  0
 49 53  1  0  0  0
 49 64  1  0  0  0
 49117  1  0  0  0
 50 51  1  0  0  0
 50118  1  0  0  0
 50119  1  0  0  0
 51 52  1  0  0  0
 51120  1  0  0  0
 51121  1  0  0  0
 52122  1  0  0  0
 52123  1  0  0  0
 53 54  1  0  0  0
 54 55  2  0  0  0
 54124  1  0  0  0
 55 57  1  0  0  0
 55125  1  0  0  0
 56 69  2  0  0  0
 57 58  2  0  0  0
 57126  1  0  0  0
 58127  1  0  0  0
 59 60  1  0  0  0
 59 61  1  0  0  0
 59 62  1  0  0  0
 60128  1  0  0  0
 60129  1  0  0  0
 60130  1  0  0  0
 61131  1  0  0  0
 61132  1  0  0  0
 61133  1  0  0  0
 62134  1  0  0  0
 62135  1  0  0  0
 62136  1  0  0  0
 63 65  1  0  0  0
 63137  1  0  0  0
 63138  1  0  0  0
 63139  1  0  0  0
 64140  1  0  0  0
 65141  1  0  0  0
 68 77  1  0  0  0
 71 72  2  0  0  0
 71 81  1  0  0  0
 71142  1  0  0  0
 72 73  1  0  0  0
 72 79  1  0  0  0
 73 74  1  0  0  0
 73 80  2  0  0  0
 74143  1  0  0  0
 74144  1  0  0  0
 74145  1  0  0  0
 75146  1  0  0  0
 75147  1  0  0  0
 75148  1  0  0  0
 75 79  1  0  0  0
 76 79  1  0  0  0
 76149  1  0  0  0
 76150  1  0  0  0
 76151  1  0  0  0
 77 79  1  0  0  0
 77152  1  0  0  0
 77153  1  0  0  0
 78 81  1  0  0  0
 78 82  1  0  0  0
 78154  1  0  0  0
 78155  1  0  0  0
 80 81  1  0  0  0
 82156  1  0  0  0
M  ISO  4   1 100  68 101  77 101  82 100
M  END
> <chiral flag>
0

> <version>
0

> <s_m_source_file>
/data/baiqing/PycharmProjects/Reinvent-master-3.2/result/LINK_invent/BTK/process_docking_weight1_custom_sum_contain_oxygen_bond_distance_aromatic_linkinvent_7_9_3/rearranged_h_0114.sdf

> <i_m_source_file_index>
89

> <r_mmod_Potential_Energy-OPLS-2005>
520.702453613281

> <r_mmod_Stretch_Energy-OPLS-2005>
317.343170166016

> <r_mmod_Bend_Energy-OPLS-2005>
311.093780517578

> <r_mmod_Torsional_Energy-OPLS-2005>
216.889678955078

> <r_mmod_Improper_Torsional_Energy-OPLS-2005>
5.53560590744019

> <r_mmod_Van_der_Waal_Energy-OPLS-2005>
104.166038513184

> <r_mmod_Electrostatic_Energy-OPLS-2005>
-463.956420898438

> <r_mmod_Solvation_Energy-OPLS-2005>
-217.444778442383

> <b_mmod_Minimization_Converged-OPLS-2005>
0

> <r_mmod_RMS_Derivative-OPLS-2005>
1.36801886558533

$$$$
89
                    3D
 Structure written by MMmdl.
162170  0  0  1  0            999 V2000
  -30.5733  -14.7824   20.4313 C   0  0  0  0  0  0
  -30.4384  -12.4654   19.4942 C   0  0  0  0  0  0
  -29.5195  -12.5179   18.2504 C   0  0  0  0  0  0
  -28.0407  -12.3485   18.6536 C   0  0  0  0  0  0
  -27.6454  -13.2383   19.8631 C   0  0  2  0  0  0
  -28.6894  -13.1639   21.0012 C   0  0  0  0  0  0
  -25.2494  -13.8196   20.5715 C   0  0  0  0  0  0
  -24.1789  -13.0443   20.9210 C   0  0  0  0  0  0
  -24.6400  -11.6921   20.8733 C   0  0  0  0  0  0
  -23.9076  -10.4290   21.0390 C   0  0  0  0  0  0
  -24.3617   -9.4203   21.9179 C   0  0  0  0  0  0
  -23.6289   -8.2234   22.0752 C   0  0  0  0  0  0
  -22.4267   -8.0274   21.3548 C   0  0  0  0  0  0
  -21.9908   -9.0243   20.4649 C   0  0  0  0  0  0
  -22.7238  -10.2121   20.3054 C   0  0  0  0  0  0
  -21.6851   -6.0729   22.5281 C   0  0  0  0  0  0
  -21.4011   -6.5636   23.8218 C   0  0  0  0  0  0
  -21.3658   -5.6791   24.9188 C   0  0  0  0  0  0
  -21.6047   -4.3052   24.7236 C   0  0  0  0  0  0
  -21.8819   -3.8146   23.4353 C   0  0  0  0  0  0
  -21.9183   -4.6957   22.3407 C   0  0  0  0  0  0
  -22.7807  -13.5208   21.1881 C   0  0  0  0  0  0
  -22.1665   -4.2137   21.0989 F   0  0  0  0  0  0
  -21.5617   -3.4549   25.7754 F   0  0  0  0  0  0
  -29.9931  -13.5287   20.4302 N   0  0  0  0  0  0
  -26.2955  -12.9432   20.3338 N   0  0  0  0  0  0
  -25.9344  -11.6565   20.5761 N   0  0  0  0  0  0
  -22.0464  -12.8200   22.0433 N   0  0  0  0  0  0
  -25.4166  -15.1932   20.4128 N   0  0  0  0  0  0
  -31.7288  -14.9161   20.0204 O   0  0  0  0  0  0
  -21.6646   -6.8861   21.4236 O   0  0  0  0  0  0
  -22.3465  -14.5509   20.6729 O   0  0  0  0  0  0
  -24.6346  -31.8523   23.1988 C   0  0  0  0  0  0
  -25.9155  -32.4745   23.8348 C   0  0  1  0  0  0
  -27.2291  -27.2369   20.1144 C   0  0  0  0  0  0
  -25.5942  -33.8548   24.2278 N   0  0  0  0  0  0
  -23.4363  -30.4763   21.5400 C   0  0  2  0  0  0
  -24.8843  -28.9183   20.1144 C   0  0  0  0  0  0
  -22.7514  -29.4611   22.4880 C   0  0  0  0  0  0
  -18.0304  -28.1395   22.8469 C   0  0  0  0  0  0
  -24.1488  -36.7260   23.2650 C   0  0  0  0  0  0
  -25.9865  -30.7557   21.3863 C   0  0  0  0  0  0
  -26.0596  -29.3768   20.7230 C   0  0  0  0  0  0
  -27.2330  -28.5487   20.7126 C   0  0  0  0  0  0
  -26.0240  -26.8547   19.4825 C   0  0  0  0  0  0
  -24.8719  -27.6629   19.4908 C   0  0  0  0  0  0
  -23.6577  -29.8095   20.1585 C   0  0  0  0  0  0
  -25.4118  -36.3067   24.0345 C   0  0  1  0  0  0
  -20.5917  -28.3726   23.1227 C   0  0  2  0  0  0
  -20.6787  -26.9432   22.5399 C   0  0  0  0  0  0
  -19.5766  -26.6391   21.5199 C   0  0  0  0  0  0
  -18.1944  -26.7940   22.1608 C   0  0  0  0  0  0
  -19.1562  -28.8869   23.2851 C   0  0  0  0  0  0
  -18.9479  -30.1444   23.8890 C   0  0  0  0  0  0
  -17.6484  -30.6590   24.0549 C   0  0  0  0  0  0
  -25.9051  -34.9435   23.5108 C   0  0  0  0  0  0
  -16.5371  -29.9087   23.6331 C   0  0  0  0  0  0
  -16.7286  -28.6507   23.0356 C   0  0  0  0  0  0
  -26.4516  -31.6583   25.0747 C   0  0  0  0  0  0
  -25.3725  -31.3731   26.1453 C   0  0  0  0  0  0
  -27.0382  -30.2998   24.6278 C   0  0  0  0  0  0
  -27.6079  -32.4323   25.7499 C   0  0  0  0  0  0
  -27.5582  -37.1788   24.8473 C   0  0  0  0  0  0
  -21.4219  -29.3070   22.3595 N   0  0  0  0  0  0
  -26.4289  -37.3770   23.9420 N   0  0  0  0  0  0
  -24.7051  -31.0460   22.0978 N   0  0  0  0  0  0
  -23.4180  -28.8153   23.2997 O   0  0  0  0  0  0
  -28.3202  -26.3213   20.1570 O   0  0  0  0  0  0
  -26.5620  -34.8908   22.4676 O   0  0  0  0  0  0
  -23.5475  -32.1369   23.7249 O   0  0  0  0  0  0
  -31.2549  -18.8709   20.9015 C   0  0  0  0  0  0
  -30.9195  -21.2839   20.7941 C   0  0  0  0  0  0
  -31.7693  -20.1797   21.0589 C   0  0  0  0  0  0
  -29.9660  -18.6655   20.3951 C   0  0  0  0  0  0
  -29.6046  -21.0848   20.3385 C   0  0  0  0  0  0
  -34.1234  -19.5841   20.4192 C   0  0  0  0  0  0
  -33.5091  -19.8316   22.8488 C   0  0  0  0  0  0
  -33.7104  -21.8375   21.3710 C   0  0  0  0  0  0
  -29.5787  -17.1944   19.9076 C   0  0  0  0  0  0
  -28.0704  -24.8384   19.9243 C   0  0  0  0  0  0
  -29.1456  -23.6367   20.1986 C   0  0  0  0  0  0
  -33.2533  -20.3634   21.4270 C   0  0  0  0  0  0
  -29.1573  -19.7782   20.1320 N   0  0  0  0  0  0
  -29.7689  -15.8844   20.6904 N   0  0  0  0  0  0
  -28.7344  -22.1900   20.0565 O   0  0  0  0  0  0
  -31.4832  -12.5843   19.1998 H   0  0  0  0  0  0
  -30.3793  -11.4881   19.9765 H   0  0  0  0  0  0
  -29.7993  -11.7405   17.5378 H   0  0  0  0  0  0
  -29.6529  -13.4699   17.7331 H   0  0  0  0  0  0
  -27.8836  -11.2961   18.8959 H   0  0  0  0  0  0
  -27.3940  -12.5581   17.8002 H   0  0  0  0  0  0
  -27.6410  -14.2633   19.4931 H   0  0  0  0  0  0
  -28.7275  -12.1582   21.4225 H   0  0  0  0  0  0
  -28.4225  -13.8282   21.8247 H   0  0  0  0  0  0
  -25.2760   -9.5687   22.4756 H   0  0  0  0  0  0
  -23.9992   -7.4629   22.7481 H   0  0  0  0  0  0
  -21.0834   -8.8764   19.8957 H   0  0  0  0  0  0
  -22.3694  -10.9653   19.6160 H   0  0  0  0  0  0
  -21.2012   -7.6146   23.9718 H   0  0  0  0  0  0
  -21.1481   -6.0536   25.9086 H   0  0  0  0  0  0
  -22.0594   -2.7602   23.2880 H   0  0  0  0  0  0
  -22.4110  -11.9855   22.4788 H   0  0  0  0  0  0
  -21.1082  -13.1198   22.2650 H   0  0  0  0  0  0
  -24.6431  -15.8412   20.5193 H   0  0  0  0  0  0
  -26.2542  -15.6354   20.0593 H   0  0  0  0  0  0
  -26.7222  -32.5381   23.1082 H   0  0  0  0  0  0
  -25.0097  -33.9700   25.0432 H   0  0  0  0  0  0
  -22.7381  -31.3026   21.3898 H   0  0  0  0  0  0
  -23.3773  -35.9565   23.3291 H   0  0  0  0  0  0
  -24.3592  -36.8888   22.2067 H   0  0  0  0  0  0
  -23.7204  -37.6446   23.6672 H   0  0  0  0  0  0
  -26.1378  -31.5198   20.6221 H   0  0  0  0  0  0
  -26.8595  -30.7988   22.0263 H   0  0  0  0  0  0
  -28.1307  -28.8944   21.2061 H   0  0  0  0  0  0
  -25.9337  -25.9011   18.9841 H   0  0  0  0  0  0
  -23.9707  -27.3020   19.0166 H   0  0  0  0  0  0
  -23.7876  -30.5864   19.4037 H   0  0  0  0  0  0
  -22.7743  -29.2472   19.8505 H   0  0  0  0  0  0
  -25.1295  -36.1927   25.0840 H   0  0  0  0  0  0
  -21.0022  -28.3314   24.1343 H   0  0  0  0  0  0
  -20.5675  -26.2335   23.3621 H   0  0  0  0  0  0
  -21.6651  -26.7432   22.1199 H   0  0  0  0  0  0
  -19.6934  -25.6303   21.1232 H   0  0  0  0  0  0
  -19.6702  -27.3184   20.6721 H   0  0  0  0  0  0
  -17.4216  -26.6672   21.4012 H   0  0  0  0  0  0
  -18.0334  -26.0088   22.9011 H   0  0  0  0  0  0
  -19.7952  -30.7250   24.2277 H   0  0  0  0  0  0
  -17.5040  -31.6280   24.5130 H   0  0  0  0  0  0
  -15.5367  -30.2985   23.7672 H   0  0  0  0  0  0
  -15.8685  -28.0812   22.7102 H   0  0  0  0  0  0
  -24.5944  -30.7029   25.7785 H   0  0  0  0  0  0
  -24.8857  -32.2876   26.4845 H   0  0  0  0  0  0
  -25.8035  -30.8954   27.0259 H   0  0  0  0  0  0
  -26.2996  -29.6714   24.1283 H   0  0  0  0  0  0
  -27.4026  -29.7299   25.4839 H   0  0  0  0  0  0
  -27.8886  -30.4281   23.9575 H   0  0  0  0  0  0
  -27.2742  -33.3667   26.2026 H   0  0  0  0  0  0
  -28.3902  -32.6802   25.0311 H   0  0  0  0  0  0
  -28.0729  -31.8467   26.5440 H   0  0  0  0  0  0
  -28.2595  -38.0093   24.7531 H   0  0  0  0  0  0
  -28.1076  -36.2618   24.6278 H   0  0  0  0  0  0
  -27.2288  -37.1407   25.8874 H   0  0  0  0  0  0
  -20.9410  -29.8767   21.6777 H   0  0  0  0  0  0
  -26.0161  -38.2840   24.1435 H   0  0  0  0  0  0
  -31.8792  -18.0058   21.0719 H   0  0  0  0  0  0
  -31.2785  -22.2927   20.9165 H   0  0  0  0  0  0
  -33.9766  -18.5068   20.4884 H   0  0  0  0  0  0
  -35.1857  -19.7676   20.5748 H   0  0  0  0  0  0
  -33.8897  -19.8784   19.3953 H   0  0  0  0  0  0
  -33.2394  -18.7793   22.9487 H   0  0  0  0  0  0
  -32.9284  -20.3890   23.5843 H   0  0  0  0  0  0
  -34.5621  -19.9251   23.1171 H   0  0  0  0  0  0
  -33.5624  -22.2626   20.3767 H   0  0  0  0  0  0
  -34.7722  -21.9332   21.6025 H   0  0  0  0  0  0
  -33.1782  -22.4587   22.0917 H   0  0  0  0  0  0
  -30.0831  -17.0654   18.9479 H   0  0  0  0  0  0
  -28.5187  -17.2332   19.6538 H   0  0  0  0  0  0
  -27.1930  -24.5809   20.5183 H   0  0  0  0  0  0
  -27.7735  -24.7282   18.8805 H   0  0  0  0  0  0
  -29.5318  -23.7684   21.2084 H   0  0  0  0  0  0
  -29.9937  -23.7922   19.5286 H   0  0  0  0  0  0
  -28.9390  -15.6393   21.2063 H   0  0  0  0  0  0
  1 25  1  0  0  0
  1 30  2  0  0  0
  1 84  1  0  0  0
  2  3  1  0  0  0
  2 25  1  0  0  0
  2 86  1  0  0  0
  2 87  1  0  0  0
  3  4  1  0  0  0
  3 88  1  0  0  0
  3 89  1  0  0  0
  4  5  1  0  0  0
  4 90  1  0  0  0
  4 91  1  0  0  0
  5  6  1  0  0  0
  5 26  1  0  0  0
  5 92  1  0  0  0
  6 25  1  0  0  0
  6 93  1  0  0  0
  6 94  1  0  0  0
  7  8  2  0  0  0
  7 26  1  0  0  0
  7 29  1  0  0  0
  8  9  1  0  0  0
  8 22  1  0  0  0
  9 10  1  0  0  0
  9 27  2  0  0  0
 10 11  2  0  0  0
 10 15  1  0  0  0
 11 12  1  0  0  0
 11 95  1  0  0  0
 12 13  2  0  0  0
 12 96  1  0  0  0
 13 14  1  0  0  0
 13 31  1  0  0  0
 14 15  2  0  0  0
 14 97  1  0  0  0
 15 98  1  0  0  0
 16 17  2  0  0  0
 16 21  1  0  0  0
 16 31  1  0  0  0
 17 18  1  0  0  0
 17 99  1  0  0  0
 18 19  2  0  0  0
 18100  1  0  0  0
 19 20  1  0  0  0
 19 24  1  0  0  0
 20 21  2  0  0  0
 20101  1  0  0  0
 21 23  1  0  0  0
 22 28  1  0  0  0
 22 32  2  0  0  0
 26 27  1  0  0  0
 28102  1  0  0  0
 28103  1  0  0  0
 29104  1  0  0  0
 29105  1  0  0  0
 33 34  1  0  0  0
 33 66  1  0  0  0
 33 70  2  0  0  0
 34 36  1  0  0  0
 34 59  1  0  0  0
 34106  1  0  0  0
 35 44  2  0  0  0
 35 45  1  0  0  0
 35 68  1  0  0  0
 36 56  1  0  0  0
 36107  1  0  0  0
 37 39  1  0  0  0
 37 47  1  0  0  0
 37 66  1  0  0  0
 37108  1  0  0  0
 38 43  2  0  0  0
 38 46  1  0  0  0
 38 47  1  0  0  0
 39 64  1  0  0  0
 39 67  2  0  0  0
 40 52  1  0  0  0
 40 53  2  0  0  0
 40 58  1  0  0  0
 41109  1  0  0  0
 41110  1  0  0  0
 41111  1  0  0  0
 41 48  1  0  0  0
 42 43  1  0  0  0
 42 66  1  0  0  0
 42112  1  0  0  0
 42113  1  0  0  0
 43 44  1  0  0  0
 44114  1  0  0  0
 45 46  2  0  0  0
 45115  1  0  0  0
 46116  1  0  0  0
 47117  1  0  0  0
 47118  1  0  0  0
 48 56  1  0  0  0
 48 65  1  0  0  0
 48119  1  0  0  0
 49 50  1  0  0  0
 49 53  1  0  0  0
 49 64  1  0  0  0
 49120  1  0  0  0
 50 51  1  0  0  0
 50121  1  0  0  0
 50122  1  0  0  0
 51 52  1  0  0  0
 51123  1  0  0  0
 51124  1  0  0  0
 52125  1  0  0  0
 52126  1  0  0  0
 53 54  1  0  0  0
 54 55  2  0  0  0
 54127  1  0  0  0
 55 57  1  0  0  0
 55128  1  0  0  0
 56 69  2  0  0  0
 57 58  2  0  0  0
 57129  1  0  0  0
 58130  1  0  0  0
 59 60  1  0  0  0
 59 61  1  0  0  0
 59 62  1  0  0  0
 60131  1  0  0  0
 60132  1  0  0  0
 60133  1  0  0  0
 61134  1  0  0  0
 61135  1  0  0  0
 61136  1  0  0  0
 62137  1  0  0  0
 62138  1  0  0  0
 62139  1  0  0  0
 63 65  1  0  0  0
 63140  1  0  0  0
 63141  1  0  0  0
 63142  1  0  0  0
 64143  1  0  0  0
 65144  1  0  0  0
 68 80  1  0  0  0
 71 73  2  0  0  0
 71 74  1  0  0  0
 71145  1  0  0  0
 72 73  1  0  0  0
 72 75  2  0  0  0
 72146  1  0  0  0
 73 82  1  0  0  0
 74 79  1  0  0  0
 74 83  2  0  0  0
 75 83  1  0  0  0
 75 85  1  0  0  0
 76147  1  0  0  0
 76148  1  0  0  0
 76149  1  0  0  0
 76 82  1  0  0  0
 77 82  1  0  0  0
 77150  1  0  0  0
 77151  1  0  0  0
 77152  1  0  0  0
 78 82  1  0  0  0
 78153  1  0  0  0
 78154  1  0  0  0
 78155  1  0  0  0
 79 84  1  0  0  0
 79156  1  0  0  0
 79157  1  0  0  0
 80 81  1  0  0  0
 80158  1  0  0  0
 80159  1  0  0  0
 81 85  1  0  0  0
 81160  1  0  0  0
 81161  1  0  0  0
 84162  1  0  0  0
M  ISO  4   1 100  68 101  80 101  84 100
M  END
> <chiral flag>
0

> <version>
0

> <s_m_source_file>
/data/baiqing/PycharmProjects/Reinvent-master-3.2/result/LINK_invent/BTK/process_docking_weight1_custom_sum_contain_oxygen_bond_distance_aromatic_linkinvent_7_9_3/rearranged_h_0114.sdf

> <i_m_source_file_index>
90

> <r_mmod_Potential_Energy-OPLS-2005>
-119.726203918457

> <r_mmod_Stretch_Energy-OPLS-2005>
145.238082885742

> <r_mmod_Bend_Energy-OPLS-2005>
196.412139892578

> <r_mmod_Torsional_Energy-OPLS-2005>
223.170791625977

> <r_mmod_Improper_Torsional_Energy-OPLS-2005>
8.53408622741699

> <r_mmod_Van_der_Waal_Energy-OPLS-2005>
149.900207519531

> <r_mmod_Electrostatic_Energy-OPLS-2005>
-721.66357421875

> <r_mmod_Solvation_Energy-OPLS-2005>
-223.006576538086

> <b_mmod_Minimization_Converged-OPLS-2005>
0

> <r_mmod_RMS_Derivative-OPLS-2005>
2.91788268089294

$$$$
90
                    3D
 Structure written by MMmdl.
175184  0  0  1  0            999 V2000
  -30.6629  -14.5066   20.5596 C   0  0  0  0  0  0
  -30.4367  -12.3217   19.4314 C   0  0  0  0  0  0
  -29.5032  -12.5079   18.2148 C   0  0  0  0  0  0
  -28.0239  -12.3605   18.6264 C   0  0  0  0  0  0
  -27.6646  -13.2012   19.8809 C   0  0  2  0  0  0
  -28.7071  -12.9776   21.0025 C   0  0  0  0  0  0
  -25.2576  -13.8112   20.5628 C   0  0  0  0  0  0
  -24.1841  -13.0412   20.9190 C   0  0  0  0  0  0
  -24.6400  -11.6883   20.8763 C   0  0  0  0  0  0
  -23.9060  -10.4282   21.0431 C   0  0  0  0  0  0
  -24.3612   -9.4189   21.9198 C   0  0  0  0  0  0
  -23.6287   -8.2225   22.0761 C   0  0  0  0  0  0
  -22.4267   -8.0276   21.3550 C   0  0  0  0  0  0
  -21.9908   -9.0251   20.4649 C   0  0  0  0  0  0
  -22.7239  -10.2127   20.3069 C   0  0  0  0  0  0
  -21.6845   -6.0733   22.5283 C   0  0  0  0  0  0
  -21.4002   -6.5640   23.8216 C   0  0  0  0  0  0
  -21.3656   -5.6790   24.9181 C   0  0  0  0  0  0
  -21.6049   -4.3057   24.7227 C   0  0  0  0  0  0
  -21.8821   -3.8146   23.4348 C   0  0  0  0  0  0
  -21.9191   -4.6963   22.3402 C   0  0  0  0  0  0
  -22.7867  -13.5226   21.1840 C   0  0  0  0  0  0
  -22.1672   -4.2154   21.0980 F   0  0  0  0  0  0
  -21.5631   -3.4538   25.7738 F   0  0  0  0  0  0
  -30.0394  -13.2991   20.4580 N   0  0  0  0  0  0
  -26.3036  -12.9288   20.3384 N   0  0  0  0  0  0
  -25.9329  -11.6462   20.5805 N   0  0  0  0  0  0
  -22.0496  -12.8235   22.0400 N   0  0  0  0  0  0
  -25.4231  -15.1795   20.3860 N   0  0  0  0  0  0
  -31.7816  -14.7301   20.0886 O   0  0  0  0  0  0
  -21.6636   -6.8874   21.4241 O   0  0  0  0  0  0
  -22.3573  -14.5541   20.6689 O   0  0  0  0  0  0
  -24.6176  -31.8648   23.2086 C   0  0  0  0  0  0
  -25.9061  -32.4807   23.8392 C   0  0  1  0  0  0
  -27.2423  -27.4121   20.0831 C   0  0  0  0  0  0
  -25.5907  -33.8607   24.2319 N   0  0  0  0  0  0
  -23.4067  -30.4889   21.5488 C   0  0  2  0  0  0
  -24.8528  -28.9505   20.1128 C   0  0  0  0  0  0
  -22.7420  -29.4651   22.4979 C   0  0  0  0  0  0
  -18.0273  -28.1383   22.8505 C   0  0  0  0  0  0
  -24.1484  -36.7308   23.2638 C   0  0  0  0  0  0
  -25.9378  -30.8225   21.3639 C   0  0  0  0  0  0
  -26.0137  -29.4548   20.7105 C   0  0  0  0  0  0
  -27.2058  -28.6905   20.6969 C   0  0  0  0  0  0
  -26.0501  -26.9199   19.5011 C   0  0  0  0  0  0
  -24.8666  -27.6824   19.5087 C   0  0  0  0  0  0
  -23.6156  -29.8197   20.1635 C   0  0  0  0  0  0
  -25.4107  -36.3103   24.0332 C   0  0  1  0  0  0
  -20.5865  -28.3673   23.1315 C   0  0  2  0  0  0
  -20.6753  -26.9404   22.5421 C   0  0  0  0  0  0
  -19.5731  -26.6393   21.5217 C   0  0  0  0  0  0
  -18.1911  -26.7933   22.1629 C   0  0  0  0  0  0
  -19.1523  -28.8846   23.2907 C   0  0  0  0  0  0
  -18.9449  -30.1454   23.8916 C   0  0  0  0  0  0
  -17.6449  -30.6589   24.0575 C   0  0  0  0  0  0
  -25.9037  -34.9468   23.5123 C   0  0  0  0  0  0
  -16.5341  -29.9091   23.6330 C   0  0  0  0  0  0
  -16.7262  -28.6506   23.0357 C   0  0  0  0  0  0
  -26.4484  -31.6595   25.0731 C   0  0  0  0  0  0
  -25.3748  -31.3691   26.1475 C   0  0  0  0  0  0
  -27.0323  -30.3039   24.6121 C   0  0  0  0  0  0
  -27.6058  -32.4314   25.7497 C   0  0  0  0  0  0
  -27.5581  -37.1802   24.8465 C   0  0  0  0  0  0
  -21.4142  -29.3038   22.3718 N   0  0  0  0  0  0
  -26.4291  -37.3791   23.9413 N   0  0  0  0  0  0
  -24.6727  -31.0734   22.0992 N   0  0  0  0  0  0
  -23.4174  -28.8189   23.3031 O   0  0  0  0  0  0
  -28.4229  -26.6828   20.1169 O   0  0  0  0  0  0
  -26.5597  -34.8923   22.4682 O   0  0  0  0  0  0
  -23.5362  -32.1409   23.7467 O   0  0  0  0  0  0
  -30.6578  -22.5271   20.3394 C   0  0  0  0  0  0
  -30.3408  -23.8418   19.9225 C   0  0  0  0  0  0
  -27.9765  -23.3078   20.0110 C   0  0  0  0  0  0
  -29.6411  -21.5800   20.5924 C   0  0  0  0  0  0
  -28.2939  -21.9914   20.4395 C   0  0  0  0  0  0
  -28.9983  -24.2469   19.7383 C   0  0  0  0  0  0
  -27.1929  -20.9977   20.7637 C   0  0  0  0  0  0
  -30.0002  -20.1485   21.0715 C   0  0  0  0  0  0
  -27.6428  -19.9910   21.8522 C   0  0  2  0  0  0
  -26.7622  -21.6313   23.6701 C   0  0  0  0  0  0
  -28.2008  -19.7473   24.4154 C   0  0  0  0  0  0
  -29.2766  -17.0985   19.2515 C   0  0  0  0  0  0
  -27.8507  -17.0667   22.2377 C   0  0  0  0  0  0
  -28.6774  -25.6362   19.1554 C   0  0  0  0  0  0
  -27.9144  -20.6987   23.2387 C   0  0  0  0  0  0
  -29.8748  -16.9448   20.6679 C   0  0  1  0  0  0
  -29.1096  -17.8270   21.7358 C   0  0  1  0  0  0
  -29.8705  -15.5006   21.0159 N   0  0  0  0  0  0
  -28.8181  -19.2479   21.2697 N   0  3  2  0  0  0
  -31.4800  -12.4376   19.1301 H   0  0  0  0  0  0
  -30.3520  -11.3087   19.8283 H   0  0  0  0  0  0
  -29.7461  -11.7803   17.4386 H   0  0  0  0  0  0
  -29.6652  -13.4932   17.7742 H   0  0  0  0  0  0
  -27.8424  -11.3035   18.8265 H   0  0  0  0  0  0
  -27.3715  -12.6286   17.7945 H   0  0  0  0  0  0
  -27.7071  -14.2489   19.5832 H   0  0  0  0  0  0
  -28.6895  -11.9378   21.3322 H   0  0  0  0  0  0
  -28.4634  -13.5625   21.8905 H   0  0  0  0  0  0
  -25.2755   -9.5667   22.4774 H   0  0  0  0  0  0
  -23.9995   -7.4612   22.7478 H   0  0  0  0  0  0
  -21.0848   -8.8780   19.8942 H   0  0  0  0  0  0
  -22.3711  -10.9676   19.6186 H   0  0  0  0  0  0
  -21.1990   -7.6148   23.9723 H   0  0  0  0  0  0
  -21.1482   -6.0523   25.9085 H   0  0  0  0  0  0
  -22.0601   -2.7607   23.2854 H   0  0  0  0  0  0
  -22.4095  -11.9876   22.4765 H   0  0  0  0  0  0
  -21.1126  -13.1284   22.2620 H   0  0  0  0  0  0
  -24.6375  -15.8169   20.4515 H   0  0  0  0  0  0
  -26.2361  -15.5917   19.9503 H   0  0  0  0  0  0
  -26.7131  -32.5513   23.1154 H   0  0  0  0  0  0
  -25.0076  -33.9768   25.0478 H   0  0  0  0  0  0
  -22.6972  -31.3065   21.4074 H   0  0  0  0  0  0
  -23.3749  -35.9638   23.3301 H   0  0  0  0  0  0
  -24.3580  -36.8928   22.2054 H   0  0  0  0  0  0
  -23.7225  -37.6505   23.6659 H   0  0  0  0  0  0
  -26.0496  -31.5878   20.5944 H   0  0  0  0  0  0
  -26.8262  -30.8790   21.9818 H   0  0  0  0  0  0
  -28.1031  -29.0780   21.1594 H   0  0  0  0  0  0
  -25.9979  -25.9362   19.0602 H   0  0  0  0  0  0
  -23.9698  -27.2815   19.0566 H   0  0  0  0  0  0
  -23.7239  -30.5941   19.4031 H   0  0  0  0  0  0
  -22.7383  -29.2405   19.8686 H   0  0  0  0  0  0
  -25.1280  -36.1973   25.0824 H   0  0  0  0  0  0
  -20.9966  -28.3242   24.1432 H   0  0  0  0  0  0
  -20.5660  -26.2279   23.3609 H   0  0  0  0  0  0
  -21.6623  -26.7442   22.1216 H   0  0  0  0  0  0
  -19.6889  -25.6311   21.1228 H   0  0  0  0  0  0
  -19.6666  -27.3220   20.6761 H   0  0  0  0  0  0
  -17.4181  -26.6708   21.4028 H   0  0  0  0  0  0
  -18.0299  -26.0067   22.9017 H   0  0  0  0  0  0
  -19.7918  -30.7275   24.2288 H   0  0  0  0  0  0
  -17.4993  -31.6266   24.5180 H   0  0  0  0  0  0
  -15.5340  -30.2994   23.7632 H   0  0  0  0  0  0
  -15.8669  -28.0828   22.7060 H   0  0  0  0  0  0
  -24.5943  -30.7009   25.7818 H   0  0  0  0  0  0
  -24.8912  -32.2833   26.4922 H   0  0  0  0  0  0
  -25.8108  -30.8876   27.0235 H   0  0  0  0  0  0
  -26.2872  -29.6781   24.1192 H   0  0  0  0  0  0
  -27.4105  -29.7297   25.4590 H   0  0  0  0  0  0
  -27.8700  -30.4364   23.9268 H   0  0  0  0  0  0
  -27.2690  -33.3613   26.2092 H   0  0  0  0  0  0
  -28.3864  -32.6867   25.0319 H   0  0  0  0  0  0
  -28.0729  -31.8422   26.5399 H   0  0  0  0  0  0
  -28.2591  -38.0107   24.7532 H   0  0  0  0  0  0
  -28.1080  -36.2637   24.6271 H   0  0  0  0  0  0
  -27.2299  -37.1433   25.8867 H   0  0  0  0  0  0
  -20.9298  -29.8774   21.6954 H   0  0  0  0  0  0
  -26.0178  -38.2863   24.1436 H   0  0  0  0  0  0
  -31.6959  -22.2495   20.4630 H   0  0  0  0  0  0
  -31.1435  -24.5371   19.7194 H   0  0  0  0  0  0
  -26.9425  -23.5964   19.8764 H   0  0  0  0  0  0
  -26.9326  -20.4658   19.8468 H   0  0  0  0  0  0
  -26.2808  -21.5206   21.0503 H   0  0  0  0  0  0
  -30.5532  -20.2275   22.0079 H   0  0  0  0  0  0
  -30.6839  -19.7025   20.3483 H   0  0  0  0  0  0
  -26.7850  -19.3315   21.9671 H   0  0  0  0  0  0
  -26.6664  -22.4957   23.0127 H   0  0  0  0  0  0
  -26.9326  -22.0344   24.6690 H   0  0  0  0  0  0
  -25.8045  -21.1099   23.6880 H   0  0  0  0  0  0
  -29.0685  -19.1161   24.2473 H   0  0  0  0  0  0
  -27.3437  -19.1145   24.6446 H   0  0  0  0  0  0
  -28.4187  -20.3143   25.3212 H   0  0  0  0  0  0
  -29.3392  -18.1212   18.8817 H   0  0  0  0  0  0
  -28.2302  -16.7947   19.2163 H   0  0  0  0  0  0
  -29.8162  -16.4838   18.5287 H   0  0  0  0  0  0
  -28.0839  -16.0780   22.6297 H   0  0  0  0  0  0
  -27.1176  -16.9476   21.4425 H   0  0  0  0  0  0
  -27.3554  -17.5583   23.0685 H   0  0  0  0  0  0
  -27.9218  -25.5371   18.3791 H   0  0  0  0  0  0
  -29.5609  -25.9595   18.6032 H   0  0  0  0  0  0
  -28.7888  -21.3434   23.1482 H   0  0  0  0  0  0
  -30.9154  -17.2739   20.6319 H   0  0  0  0  0  0
  -29.7779  -17.9055   22.5930 H   0  0  0  0  0  0
  -29.0162  -15.1681   21.4364 H   0  0  0  0  0  0
  -28.5043  -19.0887   20.3242 H   0  0  0  0  0  0
  1 25  1  0  0  0
  1 30  2  0  0  0
  1 88  1  0  0  0
  2  3  1  0  0  0
  2 25  1  0  0  0
  2 90  1  0  0  0
  2 91  1  0  0  0
  3  4  1  0  0  0
  3 92  1  0  0  0
  3 93  1  0  0  0
  4  5  1  0  0  0
  4 94  1  0  0  0
  4 95  1  0  0  0
  5  6  1  0  0  0
  5 26  1  0  0  0
  5 96  1  0  0  0
  6 25  1  0  0  0
  6 97  1  0  0  0
  6 98  1  0  0  0
  7  8  2  0  0  0
  7 26  1  0  0  0
  7 29  1  0  0  0
  8  9  1  0  0  0
  8 22  1  0  0  0
  9 10  1  0  0  0
  9 27  2  0  0  0
 10 11  2  0  0  0
 10 15  1  0  0  0
 11 12  1  0  0  0
 11 99  1  0  0  0
 12 13  2  0  0  0
 12100  1  0  0  0
 13 14  1  0  0  0
 13 31  1  0  0  0
 14 15  2  0  0  0
 14101  1  0  0  0
 15102  1  0  0  0
 16 17  2  0  0  0
 16 21  1  0  0  0
 16 31  1  0  0  0
 17 18  1  0  0  0
 17103  1  0  0  0
 18 19  2  0  0  0
 18104  1  0  0  0
 19 20  1  0  0  0
 19 24  1  0  0  0
 20 21  2  0  0  0
 20105  1  0  0  0
 21 23  1  0  0  0
 22 28  1  0  0  0
 22 32  2  0  0  0
 26 27  1  0  0  0
 28106  1  0  0  0
 28107  1  0  0  0
 29108  1  0  0  0
 29109  1  0  0  0
 33 34  1  0  0  0
 33 66  1  0  0  0
 33 70  2  0  0  0
 34 36  1  0  0  0
 34 59  1  0  0  0
 34110  1  0  0  0
 35 44  2  0  0  0
 35 45  1  0  0  0
 35 68  1  0  0  0
 36 56  1  0  0  0
 36111  1  0  0  0
 37 39  1  0  0  0
 37 47  1  0  0  0
 37 66  1  0  0  0
 37112  1  0  0  0
 38 43  2  0  0  0
 38 46  1  0  0  0
 38 47  1  0  0  0
 39 64  1  0  0  0
 39 67  2  0  0  0
 40 52  1  0  0  0
 40 53  2  0  0  0
 40 58  1  0  0  0
 41113  1  0  0  0
 41114  1  0  0  0
 41115  1  0  0  0
 41 48  1  0  0  0
 42 43  1  0  0  0
 42 66  1  0  0  0
 42116  1  0  0  0
 42117  1  0  0  0
 43 44  1  0  0  0
 44118  1  0  0  0
 45 46  2  0  0  0
 45119  1  0  0  0
 46120  1  0  0  0
 47121  1  0  0  0
 47122  1  0  0  0
 48 56  1  0  0  0
 48 65  1  0  0  0
 48123  1  0  0  0
 49 50  1  0  0  0
 49 53  1  0  0  0
 49 64  1  0  0  0
 49124  1  0  0  0
 50 51  1  0  0  0
 50125  1  0  0  0
 50126  1  0  0  0
 51 52  1  0  0  0
 51127  1  0  0  0
 51128  1  0  0  0
 52129  1  0  0  0
 52130  1  0  0  0
 53 54  1  0  0  0
 54 55  2  0  0  0
 54131  1  0  0  0
 55 57  1  0  0  0
 55132  1  0  0  0
 56 69  2  0  0  0
 57 58  2  0  0  0
 57133  1  0  0  0
 58134  1  0  0  0
 59 60  1  0  0  0
 59 61  1  0  0  0
 59 62  1  0  0  0
 60135  1  0  0  0
 60136  1  0  0  0
 60137  1  0  0  0
 61138  1  0  0  0
 61139  1  0  0  0
 61140  1  0  0  0
 62141  1  0  0  0
 62142  1  0  0  0
 62143  1  0  0  0
 63 65  1  0  0  0
 63144  1  0  0  0
 63145  1  0  0  0
 63146  1  0  0  0
 64147  1  0  0  0
 65148  1  0  0  0
 68 84  1  0  0  0
 71 72  2  0  0  0
 71 74  1  0  0  0
 71149  1  0  0  0
 72 76  1  0  0  0
 72150  1  0  0  0
 73 75  1  0  0  0
 73 76  2  0  0  0
 73151  1  0  0  0
 74 75  2  0  0  0
 74 78  1  0  0  0
 75 77  1  0  0  0
 76 84  1  0  0  0
 77152  1  0  0  0
 77153  1  0  0  0
 77 79  1  0  0  0
 78154  1  0  0  0
 78155  1  0  0  0
 78 89  1  0  0  0
 79 85  1  0  0  0
 79 89  1  0  0  0
 79156  1  0  0  0
 80157  1  0  0  0
 80158  1  0  0  0
 80159  1  0  0  0
 80 85  1  0  0  0
 81 85  1  0  0  0
 81160  1  0  0  0
 81161  1  0  0  0
 81162  1  0  0  0
 82163  1  0  0  0
 82164  1  0  0  0
 82165  1  0  0  0
 82 86  1  0  0  0
 83166  1  0  0  0
 83167  1  0  0  0
 83168  1  0  0  0
 83 87  1  0  0  0
 84169  1  0  0  0
 84170  1  0  0  0
 85171  1  0  0  0
 86 87  1  0  0  0
 86 88  1  0  0  0
 86172  1  0  0  0
 87 89  1  0  0  0
 87173  1  0  0  0
 88174  1  0  0  0
 89175  1  0  0  0
M  CHG  1  89   1
M  ISO  4   1 100  68 101  84 101  88 100
M  END
> <chiral flag>
0

> <version>
0

> <s_m_source_file>
/data/baiqing/PycharmProjects/Reinvent-master-3.2/result/LINK_invent/BTK/process_docking_weight1_custom_sum_contain_oxygen_bond_distance_aromatic_linkinvent_7_9_3/rearranged_h_0114.sdf

> <i_m_source_file_index>
91

> <r_mmod_Potential_Energy-OPLS-2005>
-62.1062355041504

> <r_mmod_Stretch_Energy-OPLS-2005>
57.7792930603027

> <r_mmod_Bend_Energy-OPLS-2005>
134.000213623047

> <r_mmod_Torsional_Energy-OPLS-2005>
279.202728271484

> <r_mmod_Improper_Torsional_Energy-OPLS-2005>
6.98307657241821

> <r_mmod_Van_der_Waal_Energy-OPLS-2005>
162.55241394043

> <r_mmod_Electrostatic_Energy-OPLS-2005>
-284.046508789062

> <r_mmod_Solvation_Energy-OPLS-2005>
-435.104248046875

> <b_mmod_Minimization_Converged-OPLS-2005>
0

> <r_mmod_RMS_Derivative-OPLS-2005>
1.27058184146881

$$$$
91
                    3D
 Structure written by MMmdl.
166175  0  0  1  0            999 V2000
  -30.4425  -15.1378   20.3857 C   0  0  0  0  0  0
  -30.4308  -12.7139   19.5345 C   0  0  0  0  0  0
  -29.5296  -12.5890   18.2790 C   0  0  0  0  0  0
  -28.0560  -12.3658   18.6697 C   0  0  0  0  0  0
  -27.6195  -13.2735   19.8485 C   0  0  2  0  0  0
  -28.6558  -13.3493   20.9948 C   0  0  0  0  0  0
  -25.2361  -13.8223   20.5774 C   0  0  0  0  0  0
  -24.1715  -13.0385   20.9315 C   0  0  0  0  0  0
  -24.6399  -11.6894   20.8798 C   0  0  0  0  0  0
  -23.9076  -10.4246   21.0439 C   0  0  0  0  0  0
  -24.3593   -9.4127   21.9204 C   0  0  0  0  0  0
  -23.6274   -8.2150   22.0726 C   0  0  0  0  0  0
  -22.4257   -8.0227   21.3508 C   0  0  0  0  0  0
  -21.9908   -9.0218   20.4607 C   0  0  0  0  0  0
  -22.7262  -10.2094   20.3066 C   0  0  0  0  0  0
  -21.6775   -6.0719   22.5274 C   0  0  0  0  0  0
  -21.3986   -6.5619   23.8230 C   0  0  0  0  0  0
  -21.3692   -5.6773   24.9190 C   0  0  0  0  0  0
  -21.6090   -4.3040   24.7203 C   0  0  0  0  0  0
  -21.8810   -3.8139   23.4309 C   0  0  0  0  0  0
  -21.9150   -4.6964   22.3373 C   0  0  0  0  0  0
  -22.7721  -13.5123   21.1960 C   0  0  0  0  0  0
  -22.1572   -4.2155   21.0939 F   0  0  0  0  0  0
  -21.5700   -3.4521   25.7706 F   0  0  0  0  0  0
  -29.9134  -13.8279   20.4004 N   0  0  0  0  0  0
  -26.2810  -12.9512   20.3289 N   0  0  0  0  0  0
  -25.9338  -11.6603   20.5774 N   0  0  0  0  0  0
  -22.0331  -12.8113   22.0499 N   0  0  0  0  0  0
  -25.3977  -15.1959   20.4295 N   0  0  0  0  0  0
  -31.6145  -15.2150   20.0016 O   0  0  0  0  0  0
  -21.6561   -6.8880   21.4242 O   0  0  0  0  0  0
  -22.3378  -14.5419   20.6809 O   0  0  0  0  0  0
  -24.6581  -31.8308   23.1787 C   0  0  0  0  0  0
  -25.9306  -32.4621   23.8204 C   0  0  1  0  0  0
  -27.2306  -27.0169   20.1809 C   0  0  0  0  0  0
  -25.6029  -33.8439   24.2133 N   0  0  0  0  0  0
  -23.4672  -30.4434   21.5291 C   0  0  2  0  0  0
  -24.9186  -28.8459   20.1167 C   0  0  0  0  0  0
  -22.7628  -29.4451   22.4841 C   0  0  0  0  0  0
  -18.0305  -28.1352   22.8434 C   0  0  0  0  0  0
  -24.1486  -36.7187   23.2655 C   0  0  0  0  0  0
  -26.0319  -30.6664   21.3974 C   0  0  0  0  0  0
  -26.1024  -29.2680   20.7372 C   0  0  0  0  0  0
  -27.2549  -28.3757   20.7403 C   0  0  0  0  0  0
  -26.0140  -26.7185   19.5262 C   0  0  0  0  0  0
  -24.8932  -27.5849   19.4983 C   0  0  0  0  0  0
  -23.7037  -29.7682   20.1503 C   0  0  0  0  0  0
  -25.4138  -36.3000   24.0324 C   0  0  1  0  0  0
  -20.5920  -28.3681   23.1207 C   0  0  2  0  0  0
  -20.6760  -26.9351   22.5420 C   0  0  0  0  0  0
  -19.5764  -26.6312   21.5187 C   0  0  0  0  0  0
  -18.1939  -26.7883   22.1570 C   0  0  0  0  0  0
  -19.1568  -28.8827   23.2802 C   0  0  0  0  0  0
  -18.9481  -30.1424   23.8823 C   0  0  0  0  0  0
  -17.6491  -30.6549   24.0519 C   0  0  0  0  0  0
  -25.9104  -34.9377   23.5032 C   0  0  0  0  0  0
  -16.5375  -29.9048   23.6312 C   0  0  0  0  0  0
  -16.7301  -28.6461   23.0331 C   0  0  0  0  0  0
  -26.4564  -31.6562   25.0726 C   0  0  0  0  0  0
  -25.3703  -31.3812   26.1399 C   0  0  0  0  0  0
  -27.0485  -30.2947   24.6453 C   0  0  0  0  0  0
  -27.6064  -32.4375   25.7505 C   0  0  0  0  0  0
  -27.5569  -37.1770   24.8463 C   0  0  0  0  0  0
  -21.4297  -29.3017   22.3586 N   0  0  0  0  0  0
  -26.4269  -37.3750   23.9419 N   0  0  0  0  0  0
  -24.7394  -31.0037   22.0900 N   0  0  0  0  0  0
  -23.4190  -28.7993   23.3043 O   0  0  0  0  0  0
  -28.2829  -25.9885   20.2395 O   0  0  0  0  0  0
  -26.5653  -34.8897   22.4592 O   0  0  0  0  0  0
  -23.5667  -32.1265   23.6917 O   0  0  0  0  0  0
  -31.9170  -19.4821   19.6756 C   0  0  0  0  0  0
  -33.3078  -19.6860   19.6413 C   0  0  0  0  0  0
  -33.2482  -20.3741   21.9671 C   0  0  0  0  0  0
  -31.1624  -19.7089   20.8527 C   0  0  0  0  0  0
  -31.8469  -20.1755   22.0155 C   0  0  0  0  0  0
  -33.9762  -20.1350   20.7903 C   0  0  0  0  0  0
  -28.5359  -23.4423   21.4861 C   0  0  0  0  0  0
  -28.6964  -23.3606   19.1130 C   0  0  0  0  0  0
  -28.2638  -21.8029   21.4373 C   0  0  0  0  0  0
  -29.5408  -21.9588   19.4509 C   0  0  0  0  0  0
  -28.1153  -24.3765   20.2470 C   0  0  1  0  0  0
  -31.1310  -20.4861   23.3204 C   0  0  0  0  0  0
  -29.3835  -17.8618   20.0865 C   0  0  0  0  0  0
  -29.6395  -19.4632   20.7853 C   0  0  2  0  0  0
  -29.6317  -16.3260   20.6327 N   0  0  0  0  0  0
  -28.9070  -20.8937   20.3607 N   0  3  1  0  0  0
  -35.3149  -20.3455   20.7600 F   0  0  0  0  0  0
  -31.4623  -12.8937   19.2287 H   0  0  0  0  0  0
  -30.4406  -11.7719   20.0856 H   0  0  0  0  0  0
  -29.8762  -11.7739   17.6407 H   0  0  0  0  0  0
  -29.6114  -13.5020   17.6869 H   0  0  0  0  0  0
  -27.9346  -11.3156   18.9307 H   0  0  0  0  0  0
  -27.4042  -12.5463   17.8121 H   0  0  0  0  0  0
  -27.5637  -14.2743   19.4208 H   0  0  0  0  0  0
  -28.7874  -12.3879   21.4963 H   0  0  0  0  0  0
  -28.3085  -14.0484   21.7569 H   0  0  0  0  0  0
  -25.2691   -9.5542   22.4841 H   0  0  0  0  0  0
  -23.9986   -7.4492   22.7391 H   0  0  0  0  0  0
  -21.0867   -8.8749   19.8829 H   0  0  0  0  0  0
  -22.3769  -10.9644   19.6187 H   0  0  0  0  0  0
  -21.1951   -7.6125   23.9724 H   0  0  0  0  0  0
  -21.1566   -6.0489   25.9105 H   0  0  0  0  0  0
  -22.0590   -2.7597   23.2791 H   0  0  0  0  0  0
  -22.3894  -11.9775   22.4938 H   0  0  0  0  0  0
  -21.0959  -13.1161   22.2679 H   0  0  0  0  0  0
  -24.6418  -15.8515   20.5967 H   0  0  0  0  0  0
  -26.2415  -15.6373   20.0866 H   0  0  0  0  0  0
  -26.7391  -32.5167   23.0925 H   0  0  0  0  0  0
  -25.0281  -33.9506   25.0357 H   0  0  0  0  0  0
  -22.7822  -31.2762   21.3668 H   0  0  0  0  0  0
  -23.3800  -35.9466   23.3297 H   0  0  0  0  0  0
  -24.3559  -36.8821   22.2066 H   0  0  0  0  0  0
  -23.7157  -37.6346   23.6697 H   0  0  0  0  0  0
  -26.2148  -31.4239   20.6331 H   0  0  0  0  0  0
  -26.8854  -30.7020   22.0612 H   0  0  0  0  0  0
  -28.1546  -28.7038   21.2415 H   0  0  0  0  0  0
  -25.8999  -25.7549   19.0523 H   0  0  0  0  0  0
  -23.9910  -27.2469   19.0108 H   0  0  0  0  0  0
  -23.8686  -30.5432   19.4031 H   0  0  0  0  0  0
  -22.8108  -29.2348   19.8195 H   0  0  0  0  0  0
  -25.1334  -36.1812   25.0819 H   0  0  0  0  0  0
  -21.0003  -28.3248   24.1331 H   0  0  0  0  0  0
  -20.5533  -26.2295   23.3652 H   0  0  0  0  0  0
  -21.6638  -26.7262   22.1290 H   0  0  0  0  0  0
  -19.6917  -25.6206   21.1237 H   0  0  0  0  0  0
  -19.6728  -27.3080   20.6679 H   0  0  0  0  0  0
  -17.4220  -26.6617   21.3968 H   0  0  0  0  0  0
  -18.0325  -26.0031   22.8960 H   0  0  0  0  0  0
  -19.7988  -30.7220   24.2165 H   0  0  0  0  0  0
  -17.5074  -31.6220   24.5125 H   0  0  0  0  0  0
  -15.5380  -30.2928   23.7687 H   0  0  0  0  0  0
  -15.8694  -28.0766   22.7092 H   0  0  0  0  0  0
  -24.5866  -30.7181   25.7722 H   0  0  0  0  0  0
  -24.8917  -32.3024   26.4748 H   0  0  0  0  0  0
  -25.7948  -30.9021   27.0234 H   0  0  0  0  0  0
  -26.3203  -29.6623   24.1383 H   0  0  0  0  0  0
  -27.3959  -29.7306   25.5119 H   0  0  0  0  0  0
  -27.9138  -30.4163   23.9934 H   0  0  0  0  0  0
  -27.2623  -33.3668   26.2060 H   0  0  0  0  0  0
  -28.3870  -32.6963   25.0340 H   0  0  0  0  0  0
  -28.0776  -31.8546   26.5428 H   0  0  0  0  0  0
  -28.2598  -38.0061   24.7537 H   0  0  0  0  0  0
  -28.1042  -36.2591   24.6269 H   0  0  0  0  0  0
  -27.2274  -37.1396   25.8860 H   0  0  0  0  0  0
  -20.9532  -29.8844   21.6844 H   0  0  0  0  0  0
  -26.0120  -38.2807   24.1459 H   0  0  0  0  0  0
  -31.4431  -19.1538   18.7653 H   0  0  0  0  0  0
  -33.8622  -19.4982   18.7322 H   0  0  0  0  0  0
  -33.7891  -20.7259   22.8338 H   0  0  0  0  0  0
  -29.5950  -23.6061   21.6990 H   0  0  0  0  0  0
  -28.0321  -23.8402   22.3679 H   0  0  0  0  0  0
  -27.8320  -23.0543   18.5205 H   0  0  0  0  0  0
  -29.2969  -23.9414   18.4152 H   0  0  0  0  0  0
  -27.1875  -21.6787   21.3160 H   0  0  0  0  0  0
  -28.4698  -21.3876   22.4221 H   0  0  0  0  0  0
  -30.4880  -22.2475   19.9095 H   0  0  0  0  0  0
  -29.8128  -21.4774   18.5116 H   0  0  0  0  0  0
  -27.0340  -24.2589   20.2027 H   0  0  0  0  0  0
  -31.8393  -20.6933   24.1252 H   0  0  0  0  0  0
  -30.5037  -19.6560   23.6458 H   0  0  0  0  0  0
  -30.5218  -21.3818   23.2175 H   0  0  0  0  0  0
  -29.7944  -17.8621   19.0787 H   0  0  0  0  0  0
  -28.3081  -17.8518   19.8951 H   0  0  0  0  0  0
  -29.2813  -19.3069   21.8013 H   0  0  0  0  0  0
  -28.7916  -16.0114   21.0984 H   0  0  0  0  0  0
  -28.1075  -20.5622   19.8411 H   0  0  0  0  0  0
  1 25  1  0  0  0
  1 30  2  0  0  0
  1 85  1  0  0  0
  2  3  1  0  0  0
  2 25  1  0  0  0
  2 88  1  0  0  0
  2 89  1  0  0  0
  3  4  1  0  0  0
  3 90  1  0  0  0
  3 91  1  0  0  0
  4  5  1  0  0  0
  4 92  1  0  0  0
  4 93  1  0  0  0
  5  6  1  0  0  0
  5 26  1  0  0  0
  5 94  1  0  0  0
  6 25  1  0  0  0
  6 95  1  0  0  0
  6 96  1  0  0  0
  7  8  2  0  0  0
  7 26  1  0  0  0
  7 29  1  0  0  0
  8  9  1  0  0  0
  8 22  1  0  0  0
  9 10  1  0  0  0
  9 27  2  0  0  0
 10 11  2  0  0  0
 10 15  1  0  0  0
 11 12  1  0  0  0
 11 97  1  0  0  0
 12 13  2  0  0  0
 12 98  1  0  0  0
 13 14  1  0  0  0
 13 31  1  0  0  0
 14 15  2  0  0  0
 14 99  1  0  0  0
 15100  1  0  0  0
 16 17  2  0  0  0
 16 21  1  0  0  0
 16 31  1  0  0  0
 17 18  1  0  0  0
 17101  1  0  0  0
 18 19  2  0  0  0
 18102  1  0  0  0
 19 20  1  0  0  0
 19 24  1  0  0  0
 20 21  2  0  0  0
 20103  1  0  0  0
 21 23  1  0  0  0
 22 28  1  0  0  0
 22 32  2  0  0  0
 26 27  1  0  0  0
 28104  1  0  0  0
 28105  1  0  0  0
 29106  1  0  0  0
 29107  1  0  0  0
 33 34  1  0  0  0
 33 66  1  0  0  0
 33 70  2  0  0  0
 34 36  1  0  0  0
 34 59  1  0  0  0
 34108  1  0  0  0
 35 44  2  0  0  0
 35 45  1  0  0  0
 35 68  1  0  0  0
 36 56  1  0  0  0
 36109  1  0  0  0
 37 39  1  0  0  0
 37 47  1  0  0  0
 37 66  1  0  0  0
 37110  1  0  0  0
 38 43  2  0  0  0
 38 46  1  0  0  0
 38 47  1  0  0  0
 39 64  1  0  0  0
 39 67  2  0  0  0
 40 52  1  0  0  0
 40 53  2  0  0  0
 40 58  1  0  0  0
 41111  1  0  0  0
 41112  1  0  0  0
 41113  1  0  0  0
 41 48  1  0  0  0
 42 43  1  0  0  0
 42 66  1  0  0  0
 42114  1  0  0  0
 42115  1  0  0  0
 43 44  1  0  0  0
 44116  1  0  0  0
 45 46  2  0  0  0
 45117  1  0  0  0
 46118  1  0  0  0
 47119  1  0  0  0
 47120  1  0  0  0
 48 56  1  0  0  0
 48 65  1  0  0  0
 48121  1  0  0  0
 49 50  1  0  0  0
 49 53  1  0  0  0
 49 64  1  0  0  0
 49122  1  0  0  0
 50 51  1  0  0  0
 50123  1  0  0  0
 50124  1  0  0  0
 51 52  1  0  0  0
 51125  1  0  0  0
 51126  1  0  0  0
 52127  1  0  0  0
 52128  1  0  0  0
 53 54  1  0  0  0
 54 55  2  0  0  0
 54129  1  0  0  0
 55 57  1  0  0  0
 55130  1  0  0  0
 56 69  2  0  0  0
 57 58  2  0  0  0
 57131  1  0  0  0
 58132  1  0  0  0
 59 60  1  0  0  0
 59 61  1  0  0  0
 59 62  1  0  0  0
 60133  1  0  0  0
 60134  1  0  0  0
 60135  1  0  0  0
 61136  1  0  0  0
 61137  1  0  0  0
 61138  1  0  0  0
 62139  1  0  0  0
 62140  1  0  0  0
 62141  1  0  0  0
 63 65  1  0  0  0
 63142  1  0  0  0
 63143  1  0  0  0
 63144  1  0  0  0
 64145  1  0  0  0
 65146  1  0  0  0
 68 81  1  0  0  0
 71 72  2  0  0  0
 71 74  1  0  0  0
 71147  1  0  0  0
 72 76  1  0  0  0
 72148  1  0  0  0
 73 75  1  0  0  0
 73 76  2  0  0  0
 73149  1  0  0  0
 74 75  2  0  0  0
 74 84  1  0  0  0
 75 82  1  0  0  0
 76 87  1  0  0  0
 77 79  1  0  0  0
 77 81  1  0  0  0
 77150  1  0  0  0
 77151  1  0  0  0
 78 80  1  0  0  0
 78 81  1  0  0  0
 78152  1  0  0  0
 78153  1  0  0  0
 79154  1  0  0  0
 79155  1  0  0  0
 79 86  1  0  0  0
 80 86  1  0  0  0
 80156  1  0  0  0
 80157  1  0  0  0
 81158  1  0  0  0
 82159  1  0  0  0
 82160  1  0  0  0
 82161  1  0  0  0
 83 85  1  0  0  0
 83162  1  0  0  0
 83163  1  0  0  0
 83 84  1  0  0  0
 84 86  1  0  0  0
 84164  1  0  0  0
 85165  1  0  0  0
 86166  1  0  0  0
M  CHG  1  86   1
M  ISO  4   1 100  68 101  81 101  85 100
M  END
> <chiral flag>
0

> <version>
0

> <s_m_source_file>
/data/baiqing/PycharmProjects/Reinvent-master-3.2/result/LINK_invent/BTK/process_docking_weight1_custom_sum_contain_oxygen_bond_distance_aromatic_linkinvent_7_9_3/rearranged_h_0114.sdf

> <i_m_source_file_index>
92

> <r_mmod_Potential_Energy-OPLS-2005>
865.917114257812

> <r_mmod_Stretch_Energy-OPLS-2005>
437.093475341797

> <r_mmod_Bend_Energy-OPLS-2005>
432.250549316406

> <r_mmod_Torsional_Energy-OPLS-2005>
285.814880371094

> <r_mmod_Improper_Torsional_Energy-OPLS-2005>
4.81489706039429

> <r_mmod_Van_der_Waal_Energy-OPLS-2005>
135.895355224609

> <r_mmod_Electrostatic_Energy-OPLS-2005>
-276.243560791016

> <r_mmod_Solvation_Energy-OPLS-2005>
-485.786346435547

> <b_mmod_Minimization_Converged-OPLS-2005>
0

> <r_mmod_RMS_Derivative-OPLS-2005>
5.165207862854

$$$$
92
                    3D
 Structure written by MMmdl.
179188  0  0  1  0            999 V2000
  -30.7579  -14.4363   20.6405 C   0  0  0  0  0  0
  -30.4166  -12.3128   19.4205 C   0  0  0  0  0  0
  -29.4901  -12.5055   18.2048 C   0  0  0  0  0  0
  -28.0149  -12.3591   18.6229 C   0  0  0  0  0  0
  -27.6606  -13.2083   19.8730 C   0  0  2  0  0  0
  -28.7019  -13.0053   20.9963 C   0  0  0  0  0  0
  -25.2593  -13.8167   20.5697 C   0  0  0  0  0  0
  -24.1846  -13.0444   20.9199 C   0  0  0  0  0  0
  -24.6395  -11.6908   20.8744 C   0  0  0  0  0  0
  -23.9061  -10.4292   21.0400 C   0  0  0  0  0  0
  -24.3613   -9.4212   21.9178 C   0  0  0  0  0  0
  -23.6290   -8.2247   22.0745 C   0  0  0  0  0  0
  -22.4271   -8.0284   21.3537 C   0  0  0  0  0  0
  -21.9912   -9.0258   20.4633 C   0  0  0  0  0  0
  -22.7238  -10.2136   20.3045 C   0  0  0  0  0  0
  -21.6860   -6.0742   22.5278 C   0  0  0  0  0  0
  -21.4011   -6.5642   23.8214 C   0  0  0  0  0  0
  -21.3651   -5.6792   24.9171 C   0  0  0  0  0  0
  -21.6047   -4.3056   24.7223 C   0  0  0  0  0  0
  -21.8817   -3.8152   23.4345 C   0  0  0  0  0  0
  -21.9190   -4.6969   22.3402 C   0  0  0  0  0  0
  -22.7866  -13.5247   21.1856 C   0  0  0  0  0  0
  -22.1661   -4.2160   21.0978 F   0  0  0  0  0  0
  -21.5629   -3.4529   25.7731 F   0  0  0  0  0  0
  -30.0348  -13.2989   20.4449 N   0  0  0  0  0  0
  -26.3020  -12.9340   20.3366 N   0  0  0  0  0  0
  -25.9324  -11.6497   20.5776 N   0  0  0  0  0  0
  -22.0492  -12.8225   22.0384 N   0  0  0  0  0  0
  -25.4333  -15.1887   20.4117 N   0  0  0  0  0  0
  -31.8335  -14.6440   20.0748 O   0  0  0  0  0  0
  -21.6636   -6.8886   21.4238 O   0  0  0  0  0  0
  -22.3561  -14.5558   20.6704 O   0  0  0  0  0  0
  -24.6169  -31.8670   23.2066 C   0  0  0  0  0  0
  -25.9062  -32.4808   23.8381 C   0  0  1  0  0  0
  -27.2355  -27.4224   20.0756 C   0  0  0  0  0  0
  -25.5911  -33.8607   24.2307 N   0  0  0  0  0  0
  -23.4061  -30.4902   21.5483 C   0  0  2  0  0  0
  -24.8439  -28.9502   20.1173 C   0  0  0  0  0  0
  -22.7444  -29.4659   22.4991 C   0  0  0  0  0  0
  -18.0284  -28.1412   22.8499 C   0  0  0  0  0  0
  -24.1477  -36.7284   23.2636 C   0  0  0  0  0  0
  -25.9391  -30.8209   21.3671 C   0  0  0  0  0  0
  -26.0087  -29.4589   20.7053 C   0  0  0  0  0  0
  -27.2030  -28.7056   20.6731 C   0  0  0  0  0  0
  -26.0380  -26.9149   19.5171 C   0  0  0  0  0  0
  -24.8533  -27.6753   19.5281 C   0  0  0  0  0  0
  -23.6114  -29.8217   20.1641 C   0  0  0  0  0  0
  -25.4110  -36.3098   24.0328 C   0  0  1  0  0  0
  -20.5875  -28.3682   23.1308 C   0  0  2  0  0  0
  -20.6783  -26.9425   22.5395 C   0  0  0  0  0  0
  -19.5739  -26.6412   21.5209 C   0  0  0  0  0  0
  -18.1919  -26.7972   22.1610 C   0  0  0  0  0  0
  -19.1535  -28.8871   23.2900 C   0  0  0  0  0  0
  -18.9466  -30.1491   23.8895 C   0  0  0  0  0  0
  -17.6464  -30.6611   24.0570 C   0  0  0  0  0  0
  -25.9045  -34.9468   23.5112 C   0  0  0  0  0  0
  -16.5360  -29.9107   23.6338 C   0  0  0  0  0  0
  -16.7271  -28.6527   23.0351 C   0  0  0  0  0  0
  -26.4476  -31.6618   25.0752 C   0  0  0  0  0  0
  -25.3727  -31.3759   26.1497 C   0  0  0  0  0  0
  -27.0306  -30.3042   24.6195 C   0  0  0  0  0  0
  -27.6056  -32.4369   25.7512 C   0  0  0  0  0  0
  -27.5579  -37.1812   24.8477 C   0  0  0  0  0  0
  -21.4172  -29.3040   22.3729 N   0  0  0  0  0  0
  -26.4292  -37.3796   23.9418 N   0  0  0  0  0  0
  -24.6715  -31.0771   22.0958 N   0  0  0  0  0  0
  -23.4214  -28.8201   23.3033 O   0  0  0  0  0  0
  -28.4450  -26.7490   20.0575 O   0  0  0  0  0  0
  -26.5616  -34.8924   22.4681 O   0  0  0  0  0  0
  -23.5359  -32.1422   23.7462 O   0  0  0  0  0  0
  -28.4734  -22.9305   20.3350 C   0  0  0  0  0  0
  -29.1927  -24.4792   21.7639 C   0  0  0  0  0  0
  -28.7193  -24.3303   20.4936 C   0  0  0  0  0  0
  -28.8224  -22.2637   21.4878 C   0  0  0  0  0  0
  -29.7692  -23.0475   23.7148 C   0  0  0  0  0  0
  -28.7252  -22.3818   24.6079 C   0  0  0  0  0  0
  -28.0641  -20.4307   23.1576 C   0  0  0  0  0  0
  -28.7814  -20.7742   21.8074 C   0  0  2  0  0  0
  -28.5024  -18.8114   25.8863 C   0  0  0  0  0  0
  -26.5322  -20.4211   25.7410 C   0  0  0  0  0  0
  -31.3201  -18.3783   23.6240 C   0  0  0  0  0  0
  -28.5845  -25.4435   19.4677 C   0  0  0  0  0  0
  -30.1391  -20.0538   21.4946 C   0  0  0  0  0  0
  -31.0801  -16.3393   22.1958 C   0  0  0  0  0  0
  -28.0665  -20.2720   25.6720 C   0  0  0  0  0  0
  -30.4099  -17.6941   22.5784 C   0  0  2  0  0  0
  -29.2735  -23.2388   22.3700 N   0  0  0  0  0  0
  -30.2512  -15.3378   21.5025 N   0  0  0  0  0  0
  -28.6731  -20.9021   24.4495 N   0  3  2  0  0  0
  -30.1397  -18.5534   21.3803 N   0  3  0  0  0  0
  -31.4625  -12.3989   19.1205 H   0  0  0  0  0  0
  -30.3123  -11.3050   19.8270 H   0  0  0  0  0  0
  -29.7343  -11.7792   17.4281 H   0  0  0  0  0  0
  -29.6537  -13.4911   17.7670 H   0  0  0  0  0  0
  -27.8336  -11.3034   18.8304 H   0  0  0  0  0  0
  -27.3598  -12.6209   17.7918 H   0  0  0  0  0  0
  -27.7025  -14.2535   19.5664 H   0  0  0  0  0  0
  -28.6816  -11.9741   21.3536 H   0  0  0  0  0  0
  -28.4517  -13.6165   21.8638 H   0  0  0  0  0  0
  -25.2760   -9.5692   22.4751 H   0  0  0  0  0  0
  -24.0002   -7.4638   22.7461 H   0  0  0  0  0  0
  -21.0855   -8.8780   19.8932 H   0  0  0  0  0  0
  -22.3709  -10.9674   19.6151 H   0  0  0  0  0  0
  -21.2000   -7.6149   23.9725 H   0  0  0  0  0  0
  -21.1475   -6.0514   25.9079 H   0  0  0  0  0  0
  -22.0602   -2.7615   23.2834 H   0  0  0  0  0  0
  -22.4089  -11.9868   22.4751 H   0  0  0  0  0  0
  -21.1102  -13.1237   22.2564 H   0  0  0  0  0  0
  -24.6675  -15.8450   20.5172 H   0  0  0  0  0  0
  -26.2832  -15.6217   20.0710 H   0  0  0  0  0  0
  -26.7142  -32.5455   23.1141 H   0  0  0  0  0  0
  -25.0137  -33.9772   25.0504 H   0  0  0  0  0  0
  -22.6964  -31.3076   21.4094 H   0  0  0  0  0  0
  -23.3752  -35.9606   23.3322 H   0  0  0  0  0  0
  -24.3567  -36.8859   22.2046 H   0  0  0  0  0  0
  -23.7210  -37.6485   23.6636 H   0  0  0  0  0  0
  -26.0856  -31.5917   20.6093 H   0  0  0  0  0  0
  -26.8166  -30.8468   22.0039 H   0  0  0  0  0  0
  -28.1104  -29.1088   21.1029 H   0  0  0  0  0  0
  -25.9805  -25.9341   19.0727 H   0  0  0  0  0  0
  -23.9501  -27.2710   19.0897 H   0  0  0  0  0  0
  -23.7266  -30.5948   19.4029 H   0  0  0  0  0  0
  -22.7337  -29.2463   19.8625 H   0  0  0  0  0  0
  -25.1287  -36.1956   25.0821 H   0  0  0  0  0  0
  -20.9967  -28.3228   24.1417 H   0  0  0  0  0  0
  -20.5691  -26.2292   23.3573 H   0  0  0  0  0  0
  -21.6654  -26.7464   22.1175 H   0  0  0  0  0  0
  -19.6874  -25.6319   21.1219 H   0  0  0  0  0  0
  -19.6680  -27.3258   20.6765 H   0  0  0  0  0  0
  -17.4199  -26.6753   21.3994 H   0  0  0  0  0  0
  -18.0286  -26.0125   22.9002 H   0  0  0  0  0  0
  -19.7940  -30.7325   24.2244 H   0  0  0  0  0  0
  -17.5008  -31.6268   24.5215 H   0  0  0  0  0  0
  -15.5361  -30.2993   23.7683 H   0  0  0  0  0  0
  -15.8673  -28.0839   22.7060 H   0  0  0  0  0  0
  -24.5932  -30.7064   25.7854 H   0  0  0  0  0  0
  -24.8887  -32.2918   26.4892 H   0  0  0  0  0  0
  -25.8062  -30.8994   27.0293 H   0  0  0  0  0  0
  -26.2876  -29.6830   24.1198 H   0  0  0  0  0  0
  -27.3971  -29.7279   25.4697 H   0  0  0  0  0  0
  -27.8752  -30.4337   23.9436 H   0  0  0  0  0  0
  -27.2681  -33.3678   26.2088 H   0  0  0  0  0  0
  -28.3861  -32.6915   25.0330 H   0  0  0  0  0  0
  -28.0742  -31.8504   26.5422 H   0  0  0  0  0  0
  -28.2627  -38.0090   24.7537 H   0  0  0  0  0  0
  -28.1042  -36.2622   24.6296 H   0  0  0  0  0  0
  -27.2302  -37.1460   25.8883 H   0  0  0  0  0  0
  -20.9358  -29.8719   21.6902 H   0  0  0  0  0  0
  -26.0157  -38.2863   24.1421 H   0  0  0  0  0  0
  -28.0990  -22.4512   19.4398 H   0  0  0  0  0  0
  -29.5052  -25.3771   22.2817 H   0  0  0  0  0  0
  -30.7131  -22.5030   23.6922 H   0  0  0  0  0  0
  -29.9938  -24.0296   24.1338 H   0  0  0  0  0  0
  -27.7419  -22.8313   24.4600 H   0  0  0  0  0  0
  -29.0136  -22.6316   25.6299 H   0  0  0  0  0  0
  -27.9414  -19.3509   23.2037 H   0  0  0  0  0  0
  -27.0500  -20.8270   23.0979 H   0  0  0  0  0  0
  -28.1009  -20.3585   21.0620 H   0  0  0  0  0  0
  -28.0786  -18.4294   26.8151 H   0  0  0  0  0  0
  -29.5831  -18.7249   25.9866 H   0  0  0  0  0  0
  -28.1709  -18.1451   25.0927 H   0  0  0  0  0  0
  -26.1603  -20.0875   26.7101 H   0  0  0  0  0  0
  -26.0256  -19.8257   24.9815 H   0  0  0  0  0  0
  -26.2201  -21.4582   25.6209 H   0  0  0  0  0  0
  -31.4876  -17.7249   24.4803 H   0  0  0  0  0  0
  -30.8932  -19.2909   24.0298 H   0  0  0  0  0  0
  -32.2999  -18.6212   23.2093 H   0  0  0  0  0  0
  -27.8530  -25.1891   18.7037 H   0  0  0  0  0  0
  -29.5332  -25.4624   18.9311 H   0  0  0  0  0  0
  -30.9501  -20.4308   22.1148 H   0  0  0  0  0  0
  -30.4177  -20.3811   20.4907 H   0  0  0  0  0  0
  -31.4069  -15.8429   23.1111 H   0  0  0  0  0  0
  -32.0009  -16.5449   21.6465 H   0  0  0  0  0  0
  -28.4606  -20.7884   26.5495 H   0  0  0  0  0  0
  -29.4552  -17.4820   23.0612 H   0  0  0  0  0  0
  -29.3504  -15.1127   21.9001 H   0  0  0  0  0  0
  -29.6375  -20.6127   24.4650 H   0  0  0  0  0  0
  -30.8932  -18.3511   20.7394 H   0  0  0  0  0  0
  -29.3090  -18.2315   20.9085 H   0  0  0  0  0  0
  1 25  1  0  0  0
  1 30  2  0  0  0
  1 88  1  0  0  0
  2  3  1  0  0  0
  2 25  1  0  0  0
  2 91  1  0  0  0
  2 92  1  0  0  0
  3  4  1  0  0  0
  3 93  1  0  0  0
  3 94  1  0  0  0
  4  5  1  0  0  0
  4 95  1  0  0  0
  4 96  1  0  0  0
  5  6  1  0  0  0
  5 26  1  0  0  0
  5 97  1  0  0  0
  6 25  1  0  0  0
  6 98  1  0  0  0
  6 99  1  0  0  0
  7  8  2  0  0  0
  7 26  1  0  0  0
  7 29  1  0  0  0
  8  9  1  0  0  0
  8 22  1  0  0  0
  9 10  1  0  0  0
  9 27  2  0  0  0
 10 11  2  0  0  0
 10 15  1  0  0  0
 11 12  1  0  0  0
 11100  1  0  0  0
 12 13  2  0  0  0
 12101  1  0  0  0
 13 14  1  0  0  0
 13 31  1  0  0  0
 14 15  2  0  0  0
 14102  1  0  0  0
 15103  1  0  0  0
 16 17  2  0  0  0
 16 21  1  0  0  0
 16 31  1  0  0  0
 17 18  1  0  0  0
 17104  1  0  0  0
 18 19  2  0  0  0
 18105  1  0  0  0
 19 20  1  0  0  0
 19 24  1  0  0  0
 20 21  2  0  0  0
 20106  1  0  0  0
 21 23  1  0  0  0
 22 28  1  0  0  0
 22 32  2  0  0  0
 26 27  1  0  0  0
 28107  1  0  0  0
 28108  1  0  0  0
 29109  1  0  0  0
 29110  1  0  0  0
 33 34  1  0  0  0
 33 66  1  0  0  0
 33 70  2  0  0  0
 34 36  1  0  0  0
 34 59  1  0  0  0
 34111  1  0  0  0
 35 44  2  0  0  0
 35 45  1  0  0  0
 35 68  1  0  0  0
 36 56  1  0  0  0
 36112  1  0  0  0
 37 39  1  0  0  0
 37 47  1  0  0  0
 37 66  1  0  0  0
 37113  1  0  0  0
 38 43  2  0  0  0
 38 46  1  0  0  0
 38 47  1  0  0  0
 39 64  1  0  0  0
 39 67  2  0  0  0
 40 52  1  0  0  0
 40 53  2  0  0  0
 40 58  1  0  0  0
 41114  1  0  0  0
 41115  1  0  0  0
 41116  1  0  0  0
 41 48  1  0  0  0
 42 43  1  0  0  0
 42 66  1  0  0  0
 42117  1  0  0  0
 42118  1  0  0  0
 43 44  1  0  0  0
 44119  1  0  0  0
 45 46  2  0  0  0
 45120  1  0  0  0
 46121  1  0  0  0
 47122  1  0  0  0
 47123  1  0  0  0
 48 56  1  0  0  0
 48 65  1  0  0  0
 48124  1  0  0  0
 49 50  1  0  0  0
 49 53  1  0  0  0
 49 64  1  0  0  0
 49125  1  0  0  0
 50 51  1  0  0  0
 50126  1  0  0  0
 50127  1  0  0  0
 51 52  1  0  0  0
 51128  1  0  0  0
 51129  1  0  0  0
 52130  1  0  0  0
 52131  1  0  0  0
 53 54  1  0  0  0
 54 55  2  0  0  0
 54132  1  0  0  0
 55 57  1  0  0  0
 55133  1  0  0  0
 56 69  2  0  0  0
 57 58  2  0  0  0
 57134  1  0  0  0
 58135  1  0  0  0
 59 60  1  0  0  0
 59 61  1  0  0  0
 59 62  1  0  0  0
 60136  1  0  0  0
 60137  1  0  0  0
 60138  1  0  0  0
 61139  1  0  0  0
 61140  1  0  0  0
 61141  1  0  0  0
 62142  1  0  0  0
 62143  1  0  0  0
 62144  1  0  0  0
 63 65  1  0  0  0
 63145  1  0  0  0
 63146  1  0  0  0
 63147  1  0  0  0
 64148  1  0  0  0
 65149  1  0  0  0
 68 82  1  0  0  0
 71 73  1  0  0  0
 71 74  2  0  0  0
 71150  1  0  0  0
 72 73  2  0  0  0
 72 87  1  0  0  0
 72151  1  0  0  0
 73 82  1  0  0  0
 74 78  1  0  0  0
 74 87  1  0  0  0
 75 76  1  0  0  0
 75 87  1  0  0  0
 75152  1  0  0  0
 75153  1  0  0  0
 76154  1  0  0  0
 76155  1  0  0  0
 76 89  1  0  0  0
 77 78  1  0  0  0
 77 89  1  0  0  0
 77156  1  0  0  0
 77157  1  0  0  0
 78 83  1  0  0  0
 78158  1  0  0  0
 79159  1  0  0  0
 79160  1  0  0  0
 79161  1  0  0  0
 79 85  1  0  0  0
 80 85  1  0  0  0
 80162  1  0  0  0
 80163  1  0  0  0
 80164  1  0  0  0
 81165  1  0  0  0
 81166  1  0  0  0
 81167  1  0  0  0
 81 86  1  0  0  0
 82168  1  0  0  0
 82169  1  0  0  0
 83 90  1  0  0  0
 83170  1  0  0  0
 83171  1  0  0  0
 84 86  1  0  0  0
 84 88  1  0  0  0
 84172  1  0  0  0
 84173  1  0  0  0
 85 89  1  0  0  0
 85174  1  0  0  0
 86 90  1  0  0  0
 86175  1  0  0  0
 88176  1  0  0  0
 89177  1  0  0  0
 90178  1  0  0  0
 90179  1  0  0  0
M  CHG  2  89   1  90   1
M  ISO  4   1 100  68 101  82 101  88 100
M  END
> <chiral flag>
0

> <version>
0

> <s_m_source_file>
/data/baiqing/PycharmProjects/Reinvent-master-3.2/result/LINK_invent/BTK/process_docking_weight1_custom_sum_contain_oxygen_bond_distance_aromatic_linkinvent_7_9_3/rearranged_h_0114.sdf

> <i_m_source_file_index>
93

> <r_mmod_Potential_Energy-OPLS-2005>
-277.747650146484

> <r_mmod_Stretch_Energy-OPLS-2005>
47.0223617553711

> <r_mmod_Bend_Energy-OPLS-2005>
161.310394287109

> <r_mmod_Torsional_Energy-OPLS-2005>
316.117126464844

> <r_mmod_Improper_Torsional_Energy-OPLS-2005>
2.8369083404541

> <r_mmod_Van_der_Waal_Energy-OPLS-2005>
129.297210693359

> <r_mmod_Electrostatic_Energy-OPLS-2005>
59.4353332519531

> <r_mmod_Solvation_Energy-OPLS-2005>
-1005.78210449219

> <b_mmod_Minimization_Converged-OPLS-2005>
0

> <r_mmod_RMS_Derivative-OPLS-2005>
2.94773077964783

$$$$
93
                    3D
 Structure written by MMmdl.
152160  0  0  1  0            999 V2000
  -30.3970  -15.2856   20.3797 C   0  0  0  0  0  0
  -30.4429  -12.8249   19.5210 C   0  0  0  0  0  0
  -29.5328  -12.5762   18.2885 C   0  0  0  0  0  0
  -28.0797  -12.3017   18.7178 C   0  0  0  0  0  0
  -27.6119  -13.2728   19.8289 C   0  0  2  0  0  0
  -28.6487  -13.4305   20.9609 C   0  0  0  0  0  0
  -25.2379  -13.8246   20.5725 C   0  0  0  0  0  0
  -24.1731  -13.0426   20.9246 C   0  0  0  0  0  0
  -24.6401  -11.6937   20.8787 C   0  0  0  0  0  0
  -23.9100  -10.4292   21.0429 C   0  0  0  0  0  0
  -24.3638   -9.4202   21.9202 C   0  0  0  0  0  0
  -23.6297   -8.2240   22.0768 C   0  0  0  0  0  0
  -22.4286   -8.0285   21.3549 C   0  0  0  0  0  0
  -21.9940   -9.0258   20.4638 C   0  0  0  0  0  0
  -22.7288  -10.2129   20.3056 C   0  0  0  0  0  0
  -21.6842   -6.0735   22.5272 C   0  0  0  0  0  0
  -21.4017   -6.5638   23.8204 C   0  0  0  0  0  0
  -21.3668   -5.6788   24.9174 C   0  0  0  0  0  0
  -21.6034   -4.3046   24.7218 C   0  0  0  0  0  0
  -21.8824   -3.8144   23.4344 C   0  0  0  0  0  0
  -21.9197   -4.6958   22.3398 C   0  0  0  0  0  0
  -22.7754  -13.5186   21.1872 C   0  0  0  0  0  0
  -22.1663   -4.2150   21.0974 F   0  0  0  0  0  0
  -21.5627   -3.4537   25.7736 F   0  0  0  0  0  0
  -29.8709  -13.9608   20.3334 N   0  0  0  0  0  0
  -26.2816  -12.9511   20.3267 N   0  0  0  0  0  0
  -25.9339  -11.6626   20.5779 N   0  0  0  0  0  0
  -22.0411  -12.8163   22.0424 N   0  0  0  0  0  0
  -25.3960  -15.1970   20.4086 N   0  0  0  0  0  0
  -31.6222  -15.3130   20.1725 O   0  0  0  0  0  0
  -21.6646   -6.8878   21.4234 O   0  0  0  0  0  0
  -22.3451  -14.5483   20.6713 O   0  0  0  0  0  0
  -24.6640  -31.8233   23.1680 C   0  0  0  0  0  0
  -25.9308  -32.4585   23.8139 C   0  0  1  0  0  0
  -27.2068  -26.9072   20.2171 C   0  0  0  0  0  0
  -25.5975  -33.8400   24.2064 N   0  0  0  0  0  0
  -23.4776  -30.4318   21.5198 C   0  0  2  0  0  0
  -24.9268  -28.8101   20.1163 C   0  0  0  0  0  0
  -22.7677  -29.4390   22.4772 C   0  0  0  0  0  0
  -18.0309  -28.1401   22.8488 C   0  0  0  0  0  0
  -24.1458  -36.7184   23.2651 C   0  0  0  0  0  0
  -26.0447  -30.6258   21.3922 C   0  0  0  0  0  0
  -26.1117  -29.2094   20.7491 C   0  0  0  0  0  0
  -27.2485  -28.2825   20.7639 C   0  0  0  0  0  0
  -25.9893  -26.6524   19.5457 C   0  0  0  0  0  0
  -24.8915  -27.5514   19.4935 C   0  0  0  0  0  0
  -23.7158  -29.7455   20.1456 C   0  0  0  0  0  0
  -25.4089  -36.2955   24.0311 C   0  0  1  0  0  0
  -20.5944  -28.3716   23.1209 C   0  0  2  0  0  0
  -20.6769  -26.9400   22.5406 C   0  0  0  0  0  0
  -19.5751  -26.6389   21.5195 C   0  0  0  0  0  0
  -18.1924  -26.7948   22.1597 C   0  0  0  0  0  0
  -19.1581  -28.8876   23.2828 C   0  0  0  0  0  0
  -18.9495  -30.1478   23.8837 C   0  0  0  0  0  0
  -17.6491  -30.6590   24.0556 C   0  0  0  0  0  0
  -25.9076  -34.9352   23.5006 C   0  0  0  0  0  0
  -16.5377  -29.9092   23.6356 C   0  0  0  0  0  0
  -16.7295  -28.6519   23.0364 C   0  0  0  0  0  0
  -26.4534  -31.6519   25.0665 C   0  0  0  0  0  0
  -25.3639  -31.3824   26.1323 C   0  0  0  0  0  0
  -27.0401  -30.2866   24.6368 C   0  0  0  0  0  0
  -27.6043  -32.4308   25.7468 C   0  0  0  0  0  0
  -27.5541  -37.1709   24.8484 C   0  0  0  0  0  0
  -21.4335  -29.3027   22.3574 N   0  0  0  0  0  0
  -26.4228  -37.3706   23.9469 N   0  0  0  0  0  0
  -24.7518  -30.9860   22.0830 N   0  0  0  0  0  0
  -23.4236  -28.7913   23.2960 O   0  0  0  0  0  0
  -28.2330  -25.8242   20.2191 O   0  0  0  0  0  0
  -26.5715  -34.8914   22.4617 O   0  0  0  0  0  0
  -23.5703  -32.1218   23.6752 O   0  0  0  0  0  0
  -30.3125  -20.4833   20.5855 C   0  0  0  0  0  0
  -29.0348  -21.0191   20.2877 C   0  0  0  0  0  0
  -29.5474  -18.1317   20.4005 C   0  0  0  0  0  0
  -31.5246  -21.3367   20.7867 C   0  0  0  0  0  0
  -29.1677  -23.0033   18.5133 C   0  0  0  0  0  0
  -28.6037  -24.1721   22.0823 C   0  0  0  0  0  0
  -28.5028  -22.6449   19.8452 C   0  0  2  0  0  0
  -28.1020  -24.2246   20.6327 C   0  0  2  0  0  0
  -30.5570  -19.0204   20.6469 N   0  0  0  0  0  0
  -29.5498  -16.5062   20.4493 N   0  0  0  0  0  0
  -28.1368  -19.3761   20.0895 S   0  0  0  0  0  0
  -31.4529  -13.0555   19.1776 H   0  0  0  0  0  0
  -30.5349  -11.9208   20.1262 H   0  0  0  0  0  0
  -29.9126  -11.7412   17.6961 H   0  0  0  0  0  0
  -29.5547  -13.4508   17.6369 H   0  0  0  0  0  0
  -28.0321  -11.2765   19.0870 H   0  0  0  0  0  0
  -27.4082  -12.3548   17.8598 H   0  0  0  0  0  0
  -27.5298  -14.2429   19.3379 H   0  0  0  0  0  0
  -28.8293  -12.4843   21.4760 H   0  0  0  0  0  0
  -28.2901  -14.1338   21.7152 H   0  0  0  0  0  0
  -25.2779   -9.5669   22.4786 H   0  0  0  0  0  0
  -23.9992   -7.4640   22.7505 H   0  0  0  0  0  0
  -21.0875   -8.8784   19.8937 H   0  0  0  0  0  0
  -22.3766  -10.9660   19.6157 H   0  0  0  0  0  0
  -21.2009   -7.6150   23.9702 H   0  0  0  0  0  0
  -21.1485   -6.0526   25.9069 H   0  0  0  0  0  0
  -22.0597   -2.7606   23.2842 H   0  0  0  0  0  0
  -22.4050  -11.9833   22.4800 H   0  0  0  0  0  0
  -21.1017  -13.1152   22.2606 H   0  0  0  0  0  0
  -24.5995  -15.8231   20.4554 H   0  0  0  0  0  0
  -26.2172  -15.6356   20.0154 H   0  0  0  0  0  0
  -26.7396  -32.5099   23.0872 H   0  0  0  0  0  0
  -25.0042  -33.9462   25.0160 H   0  0  0  0  0  0
  -22.7925  -31.2621   21.3491 H   0  0  0  0  0  0
  -23.3735  -35.9492   23.3263 H   0  0  0  0  0  0
  -24.3549  -36.8883   22.2081 H   0  0  0  0  0  0
  -23.7183  -37.6338   23.6730 H   0  0  0  0  0  0
  -26.2084  -31.3567   20.5993 H   0  0  0  0  0  0
  -26.9142  -30.6993   22.0342 H   0  0  0  0  0  0
  -28.1568  -28.5906   21.2650 H   0  0  0  0  0  0
  -25.8650  -25.6872   19.0743 H   0  0  0  0  0  0
  -23.9902  -27.2327   18.9866 H   0  0  0  0  0  0
  -23.8764  -30.5157   19.3916 H   0  0  0  0  0  0
  -22.8214  -29.2082   19.8235 H   0  0  0  0  0  0
  -25.1253  -36.1717   25.0789 H   0  0  0  0  0  0
  -21.0023  -28.3272   24.1335 H   0  0  0  0  0  0
  -20.5602  -26.2320   23.3633 H   0  0  0  0  0  0
  -21.6630  -26.7355   22.1220 H   0  0  0  0  0  0
  -19.6909  -25.6302   21.1224 H   0  0  0  0  0  0
  -19.6680  -27.3199   20.6725 H   0  0  0  0  0  0
  -17.4201  -26.6735   21.3992 H   0  0  0  0  0  0
  -18.0256  -26.0078   22.8972 H   0  0  0  0  0  0
  -19.7982  -30.7304   24.2148 H   0  0  0  0  0  0
  -17.5067  -31.6268   24.5180 H   0  0  0  0  0  0
  -15.5384  -30.2972   23.7740 H   0  0  0  0  0  0
  -15.8694  -28.0845   22.7078 H   0  0  0  0  0  0
  -24.5970  -30.6963   25.7736 H   0  0  0  0  0  0
  -24.8636  -32.3011   26.4355 H   0  0  0  0  0  0
  -25.7879  -30.9375   27.0328 H   0  0  0  0  0  0
  -26.3046  -29.6560   24.1363 H   0  0  0  0  0  0
  -27.3935  -29.7213   25.4998 H   0  0  0  0  0  0
  -27.8982  -30.4048   23.9763 H   0  0  0  0  0  0
  -27.2708  -33.3824   26.1592 H   0  0  0  0  0  0
  -28.4062  -32.6452   25.0406 H   0  0  0  0  0  0
  -28.0382  -31.8662   26.5716 H   0  0  0  0  0  0
  -28.2488  -38.0071   24.7565 H   0  0  0  0  0  0
  -28.1097  -36.2591   24.6224 H   0  0  0  0  0  0
  -27.2293  -37.1237   25.8899 H   0  0  0  0  0  0
  -20.9562  -29.8811   21.6805 H   0  0  0  0  0  0
  -26.0056  -38.2735   24.1559 H   0  0  0  0  0  0
  -32.1108  -20.9957   21.6406 H   0  0  0  0  0  0
  -31.2640  -22.3799   20.9656 H   0  0  0  0  0  0
  -32.1715  -21.3024   19.9084 H   0  0  0  0  0  0
  -28.9611  -22.2404   17.7624 H   0  0  0  0  0  0
  -30.2473  -23.0893   18.6222 H   0  0  0  0  0  0
  -28.7879  -23.9493   18.1204 H   0  0  0  0  0  0
  -28.3695  -23.2096   22.5399 H   0  0  0  0  0  0
  -28.1293  -24.9407   22.6929 H   0  0  0  0  0  0
  -29.6824  -24.3211   22.1446 H   0  0  0  0  0  0
  -27.4871  -22.4057   19.5210 H   0  0  0  0  0  0
  -27.0199  -24.1425   20.7515 H   0  0  0  0  0  0
  -28.5995  -16.1878   20.5353 H   0  0  0  0  0  0
  1 25  1  0  0  0
  1 30  2  0  0  0
  1 80  1  0  0  0
  2  3  1  0  0  0
  2 25  1  0  0  0
  2 82  1  0  0  0
  2 83  1  0  0  0
  3  4  1  0  0  0
  3 84  1  0  0  0
  3 85  1  0  0  0
  4  5  1  0  0  0
  4 86  1  0  0  0
  4 87  1  0  0  0
  5  6  1  0  0  0
  5 26  1  0  0  0
  5 88  1  0  0  0
  6 25  1  0  0  0
  6 89  1  0  0  0
  6 90  1  0  0  0
  7  8  2  0  0  0
  7 26  1  0  0  0
  7 29  1  0  0  0
  8  9  1  0  0  0
  8 22  1  0  0  0
  9 10  1  0  0  0
  9 27  2  0  0  0
 10 11  2  0  0  0
 10 15  1  0  0  0
 11 12  1  0  0  0
 11 91  1  0  0  0
 12 13  2  0  0  0
 12 92  1  0  0  0
 13 14  1  0  0  0
 13 31  1  0  0  0
 14 15  2  0  0  0
 14 93  1  0  0  0
 15 94  1  0  0  0
 16 17  2  0  0  0
 16 21  1  0  0  0
 16 31  1  0  0  0
 17 18  1  0  0  0
 17 95  1  0  0  0
 18 19  2  0  0  0
 18 96  1  0  0  0
 19 20  1  0  0  0
 19 24  1  0  0  0
 20 21  2  0  0  0
 20 97  1  0  0  0
 21 23  1  0  0  0
 22 28  1  0  0  0
 22 32  2  0  0  0
 26 27  1  0  0  0
 28 98  1  0  0  0
 28 99  1  0  0  0
 29100  1  0  0  0
 29101  1  0  0  0
 33 34  1  0  0  0
 33 66  1  0  0  0
 33 70  2  0  0  0
 34 36  1  0  0  0
 34 59  1  0  0  0
 34102  1  0  0  0
 35 44  2  0  0  0
 35 45  1  0  0  0
 35 68  1  0  0  0
 36 56  1  0  0  0
 36103  1  0  0  0
 37 39  1  0  0  0
 37 47  1  0  0  0
 37 66  1  0  0  0
 37104  1  0  0  0
 38 43  2  0  0  0
 38 46  1  0  0  0
 38 47  1  0  0  0
 39 64  1  0  0  0
 39 67  2  0  0  0
 40 52  1  0  0  0
 40 53  2  0  0  0
 40 58  1  0  0  0
 41105  1  0  0  0
 41106  1  0  0  0
 41107  1  0  0  0
 41 48  1  0  0  0
 42 43  1  0  0  0
 42 66  1  0  0  0
 42108  1  0  0  0
 42109  1  0  0  0
 43 44  1  0  0  0
 44110  1  0  0  0
 45 46  2  0  0  0
 45111  1  0  0  0
 46112  1  0  0  0
 47113  1  0  0  0
 47114  1  0  0  0
 48 56  1  0  0  0
 48 65  1  0  0  0
 48115  1  0  0  0
 49 50  1  0  0  0
 49 53  1  0  0  0
 49 64  1  0  0  0
 49116  1  0  0  0
 50 51  1  0  0  0
 50117  1  0  0  0
 50118  1  0  0  0
 51 52  1  0  0  0
 51119  1  0  0  0
 51120  1  0  0  0
 52121  1  0  0  0
 52122  1  0  0  0
 53 54  1  0  0  0
 54 55  2  0  0  0
 54123  1  0  0  0
 55 57  1  0  0  0
 55124  1  0  0  0
 56 69  2  0  0  0
 57 58  2  0  0  0
 57125  1  0  0  0
 58126  1  0  0  0
 59 60  1  0  0  0
 59 61  1  0  0  0
 59 62  1  0  0  0
 60127  1  0  0  0
 60128  1  0  0  0
 60129  1  0  0  0
 61130  1  0  0  0
 61131  1  0  0  0
 61132  1  0  0  0
 62133  1  0  0  0
 62134  1  0  0  0
 62135  1  0  0  0
 63 65  1  0  0  0
 63136  1  0  0  0
 63137  1  0  0  0
 63138  1  0  0  0
 64139  1  0  0  0
 65140  1  0  0  0
 68 78  1  0  0  0
 71 72  2  0  0  0
 71 74  1  0  0  0
 71 79  1  0  0  0
 72 77  1  0  0  0
 72 81  1  0  0  0
 73 79  2  0  0  0
 73 80  1  0  0  0
 73 81  1  0  0  0
 74141  1  0  0  0
 74142  1  0  0  0
 74143  1  0  0  0
 75144  1  0  0  0
 75145  1  0  0  0
 75146  1  0  0  0
 75 77  1  0  0  0
 76147  1  0  0  0
 76148  1  0  0  0
 76149  1  0  0  0
 76 78  1  0  0  0
 77 78  1  0  0  0
 77150  1  0  0  0
 78151  1  0  0  0
 80152  1  0  0  0
M  ISO  4   1 100  68 101  78 101  80 100
M  END
> <chiral flag>
0

> <version>
0

> <s_m_source_file>
/data/baiqing/PycharmProjects/Reinvent-master-3.2/result/LINK_invent/BTK/process_docking_weight1_custom_sum_contain_oxygen_bond_distance_aromatic_linkinvent_7_9_3/rearranged_h_0114.sdf

> <i_m_source_file_index>
94

> <r_mmod_Potential_Energy-OPLS-2005>
1230.39196777344

> <r_mmod_Stretch_Energy-OPLS-2005>
562.688049316406

> <r_mmod_Bend_Energy-OPLS-2005>
494.115478515625

> <r_mmod_Torsional_Energy-OPLS-2005>
221.979248046875

> <r_mmod_Improper_Torsional_Energy-OPLS-2005>
6.60474252700806

> <r_mmod_Van_der_Waal_Energy-OPLS-2005>
97.8169403076172

> <r_mmod_Electrostatic_Energy-OPLS-2005>
-410.71337890625

> <r_mmod_Solvation_Energy-OPLS-2005>
-219.184783935547

> <b_mmod_Minimization_Converged-OPLS-2005>
0

> <r_mmod_RMS_Derivative-OPLS-2005>
3.77987742424011

$$$$
