0
                    3D
 Structure written by MMmdl.
151160  0  0  1  0            999 V2000
  -30.4789  -15.1772   20.3733 C   0  0  0  0  0  0
  -30.4375  -12.7418   19.5205 C   0  0  0  0  0  0
  -29.5332  -12.5654   18.2764 C   0  0  0  0  0  0
  -28.0758  -12.3085   18.6991 C   0  0  0  0  0  0
  -27.6164  -13.2698   19.8236 C   0  0  2  0  0  0
  -28.6538  -13.4113   20.9587 C   0  0  0  0  0  0
  -25.2423  -13.8247   20.5757 C   0  0  0  0  0  0
  -24.1755  -13.0445   20.9242 C   0  0  0  0  0  0
  -24.6398  -11.6938   20.8745 C   0  0  0  0  0  0
  -23.9091  -10.4300   21.0394 C   0  0  0  0  0  0
  -24.3632   -9.4213   21.9172 C   0  0  0  0  0  0
  -23.6292   -8.2257   22.0755 C   0  0  0  0  0  0
  -22.4266   -8.0294   21.3549 C   0  0  0  0  0  0
  -21.9909   -9.0274   20.4656 C   0  0  0  0  0  0
  -22.7261  -10.2139   20.3054 C   0  0  0  0  0  0
  -21.6861   -6.0736   22.5280 C   0  0  0  0  0  0
  -21.4028   -6.5633   23.8212 C   0  0  0  0  0  0
  -21.3659   -5.6783   24.9169 C   0  0  0  0  0  0
  -21.6040   -4.3045   24.7215 C   0  0  0  0  0  0
  -21.8824   -3.8147   23.4340 C   0  0  0  0  0  0
  -21.9192   -4.6970   22.3397 C   0  0  0  0  0  0
  -22.7773  -13.5207   21.1876 C   0  0  0  0  0  0
  -22.1661   -4.2157   21.0976 F   0  0  0  0  0  0
  -21.5622   -3.4527   25.7727 F   0  0  0  0  0  0
  -29.8995  -13.8847   20.3385 N   0  0  0  0  0  0
  -26.2836  -12.9507   20.3204 N   0  0  0  0  0  0
  -25.9332  -11.6619   20.5700 N   0  0  0  0  0  0
  -22.0414  -12.8213   22.0434 N   0  0  0  0  0  0
  -25.4088  -15.1985   20.4268 N   0  0  0  0  0  0
  -31.6976  -15.1729   20.1513 O   0  0  0  0  0  0
  -21.6642   -6.8887   21.4240 O   0  0  0  0  0  0
  -22.3461  -14.5511   20.6715 O   0  0  0  0  0  0
  -24.6610  -31.8284   23.1765 C   0  0  0  0  0  0
  -25.9307  -32.4610   23.8209 C   0  0  1  0  0  0
  -27.2115  -26.9685   20.1775 C   0  0  0  0  0  0
  -25.6000  -33.8426   24.2123 N   0  0  0  0  0  0
  -23.4718  -30.4442   21.5253 C   0  0  2  0  0  0
  -24.9239  -28.8452   20.1089 C   0  0  0  0  0  0
  -22.7645  -29.4478   22.4809 C   0  0  0  0  0  0
  -18.0320  -28.1405   22.8461 C   0  0  0  0  0  0
  -24.1496  -36.7215   23.2644 C   0  0  0  0  0  0
  -26.0386  -30.6492   21.4002 C   0  0  0  0  0  0
  -26.1066  -29.2440   20.7437 C   0  0  0  0  0  0
  -27.2466  -28.3254   20.7578 C   0  0  0  0  0  0
  -26.0019  -26.7203   19.4870 C   0  0  0  0  0  0
  -24.8960  -27.6032   19.4594 C   0  0  0  0  0  0
  -23.7073  -29.7674   20.1482 C   0  0  0  0  0  0
  -25.4134  -36.2985   24.0307 C   0  0  1  0  0  0
  -20.5946  -28.3744   23.1195 C   0  0  2  0  0  0
  -20.6809  -26.9434   22.5391 C   0  0  0  0  0  0
  -19.5778  -26.6382   21.5206 C   0  0  0  0  0  0
  -18.1957  -26.7935   22.1617 C   0  0  0  0  0  0
  -19.1579  -28.8893   23.2813 C   0  0  0  0  0  0
  -18.9490  -30.1488   23.8841 C   0  0  0  0  0  0
  -17.6485  -30.6594   24.0552 C   0  0  0  0  0  0
  -25.9094  -34.9364   23.5029 C   0  0  0  0  0  0
  -16.5376  -29.9078   23.6344 C   0  0  0  0  0  0
  -16.7303  -28.6506   23.0353 C   0  0  0  0  0  0
  -26.4568  -31.6529   25.0712 C   0  0  0  0  0  0
  -25.3711  -31.3763   26.1383 C   0  0  0  0  0  0
  -27.0445  -30.2899   24.6403 C   0  0  0  0  0  0
  -27.6081  -32.4316   25.7496 C   0  0  0  0  0  0
  -27.5573  -37.1772   24.8469 C   0  0  0  0  0  0
  -21.4322  -29.3044   22.3543 N   0  0  0  0  0  0
  -26.4286  -37.3715   23.9404 N   0  0  0  0  0  0
  -24.7451  -30.9988   22.0877 N   0  0  0  0  0  0
  -23.4209  -28.8033   23.3026 O   0  0  0  0  0  0
  -28.2004  -25.8639   20.2621 O   0  0  0  0  0  0
  -26.5689  -34.8891   22.4614 O   0  0  0  0  0  0
  -23.5689  -32.1242   23.6873 O   0  0  0  0  0  0
  -29.1245  -21.9648   21.4175 C   0  0  0  0  0  0
  -29.3283  -20.5946   21.0777 C   0  0  0  0  0  0
  -28.5805  -22.7500   20.2781 C   0  0  0  0  0  0
  -29.7322  -19.1265   21.5544 C   0  0  0  0  0  0
  -29.0498  -19.0355   19.2732 C   0  0  0  0  0  0
  -29.9402  -18.0781   20.2994 C   0  0  1  0  0  0
  -31.4078  -18.2484   19.8545 C   0  0  0  0  0  0
  -27.7968  -24.2962   20.0998 C   0  0  0  0  0  0
  -28.5009  -21.7350   19.3079 N   0  0  0  0  0  0
  -28.9618  -20.4802   19.8060 N   0  0  0  0  0  0
  -29.7150  -16.4351   20.4528 N   0  0  0  0  0  0
  -31.4650  -12.9181   19.2005 H   0  0  0  0  0  0
  -30.4696  -11.8234   20.1089 H   0  0  0  0  0  0
  -29.8938  -11.7474   17.6519 H   0  0  0  0  0  0
  -29.5839  -13.4677   17.6643 H   0  0  0  0  0  0
  -28.0089  -11.2768   19.0467 H   0  0  0  0  0  0
  -27.4130  -12.3856   17.8361 H   0  0  0  0  0  0
  -27.5429  -14.2450   19.3407 H   0  0  0  0  0  0
  -28.7961  -12.4684   21.4889 H   0  0  0  0  0  0
  -28.3115  -14.1355   21.6993 H   0  0  0  0  0  0
  -25.2772   -9.5692   22.4749 H   0  0  0  0  0  0
  -24.0003   -7.4649   22.7472 H   0  0  0  0  0  0
  -21.0841   -8.8804   19.8955 H   0  0  0  0  0  0
  -22.3717  -10.9680   19.6173 H   0  0  0  0  0  0
  -21.2026   -7.6141   23.9713 H   0  0  0  0  0  0
  -21.1475   -6.0510   25.9067 H   0  0  0  0  0  0
  -22.0597   -2.7611   23.2836 H   0  0  0  0  0  0
  -22.4012  -11.9889   22.4863 H   0  0  0  0  0  0
  -21.1036  -13.1263   22.2617 H   0  0  0  0  0  0
  -24.6450  -15.8517   20.5644 H   0  0  0  0  0  0
  -26.2536  -15.6451   20.0979 H   0  0  0  0  0  0
  -26.7375  -32.5163   23.0926 H   0  0  0  0  0  0
  -25.0144  -33.9508   25.0272 H   0  0  0  0  0  0
  -22.7845  -31.2766   21.3618 H   0  0  0  0  0  0
  -23.3763  -35.9540   23.3301 H   0  0  0  0  0  0
  -24.3576  -36.8853   22.2059 H   0  0  0  0  0  0
  -23.7252  -37.6410   23.6684 H   0  0  0  0  0  0
  -26.2136  -31.3947   20.6230 H   0  0  0  0  0  0
  -26.9019  -30.7039   22.0519 H   0  0  0  0  0  0
  -28.1397  -28.6236   21.2891 H   0  0  0  0  0  0
  -25.8623  -25.7797   18.9768 H   0  0  0  0  0  0
  -24.0001  -27.2963   18.9388 H   0  0  0  0  0  0
  -23.8552  -30.5399   19.3928 H   0  0  0  0  0  0
  -22.8172  -29.2211   19.8324 H   0  0  0  0  0  0
  -25.1326  -36.1799   25.0797 H   0  0  0  0  0  0
  -21.0029  -28.3349   24.1321 H   0  0  0  0  0  0
  -20.5707  -26.2355   23.3619 H   0  0  0  0  0  0
  -21.6675  -26.7422   22.1193 H   0  0  0  0  0  0
  -19.6938  -25.6280   21.1270 H   0  0  0  0  0  0
  -19.6718  -27.3165   20.6713 H   0  0  0  0  0  0
  -17.4223  -26.6660   21.4028 H   0  0  0  0  0  0
  -18.0363  -26.0095   22.9033 H   0  0  0  0  0  0
  -19.7965  -30.7321   24.2185 H   0  0  0  0  0  0
  -17.5033  -31.6272   24.5157 H   0  0  0  0  0  0
  -15.5372  -30.2956   23.7700 H   0  0  0  0  0  0
  -15.8706  -28.0805   22.7090 H   0  0  0  0  0  0
  -24.5884  -30.7122   25.7695 H   0  0  0  0  0  0
  -24.8916  -32.2959   26.4743 H   0  0  0  0  0  0
  -25.7967  -30.8968   27.0206 H   0  0  0  0  0  0
  -26.3096  -29.6595   24.1386 H   0  0  0  0  0  0
  -27.3965  -29.7243   25.5040 H   0  0  0  0  0  0
  -27.9048  -30.4088   23.9813 H   0  0  0  0  0  0
  -27.2669  -33.3647   26.1989 H   0  0  0  0  0  0
  -28.3932  -32.6821   25.0349 H   0  0  0  0  0  0
  -28.0702  -31.8497   26.5481 H   0  0  0  0  0  0
  -28.2590  -38.0067   24.7504 H   0  0  0  0  0  0
  -28.1071  -36.2600   24.6309 H   0  0  0  0  0  0
  -27.2294  -37.1441   25.8873 H   0  0  0  0  0  0
  -20.9561  -29.8728   21.6678 H   0  0  0  0  0  0
  -26.0144  -38.2783   24.1386 H   0  0  0  0  0  0
  -29.2776  -22.3597   22.4121 H   0  0  0  0  0  0
  -28.9322  -18.7486   22.1914 H   0  0  0  0  0  0
  -30.6199  -19.1608   22.1867 H   0  0  0  0  0  0
  -28.0325  -18.6526   19.1949 H   0  0  0  0  0  0
  -29.4648  -19.0486   18.2655 H   0  0  0  0  0  0
  -31.6774  -19.2981   19.7292 H   0  0  0  0  0  0
  -31.5926  -17.7600   18.8971 H   0  0  0  0  0  0
  -32.0986  -17.8261   20.5854 H   0  0  0  0  0  0
  -26.9187  -24.2225   20.7421 H   0  0  0  0  0  0
  -27.3849  -24.2587   19.0935 H   0  0  0  0  0  0
  -28.7393  -16.2222   20.6021 H   0  0  0  0  0  0
  1 25  1  0  0  0
  1 30  2  0  0  0
  1 81  1  0  0  0
  2  3  1  0  0  0
  2 25  1  0  0  0
  2 82  1  0  0  0
  2 83  1  0  0  0
  3  4  1  0  0  0
  3 84  1  0  0  0
  3 85  1  0  0  0
  4  5  1  0  0  0
  4 86  1  0  0  0
  4 87  1  0  0  0
  5  6  1  0  0  0
  5 26  1  0  0  0
  5 88  1  0  0  0
  6 25  1  0  0  0
  6 89  1  0  0  0
  6 90  1  0  0  0
  7  8  2  0  0  0
  7 26  1  0  0  0
  7 29  1  0  0  0
  8  9  1  0  0  0
  8 22  1  0  0  0
  9 10  1  0  0  0
  9 27  2  0  0  0
 10 11  2  0  0  0
 10 15  1  0  0  0
 11 12  1  0  0  0
 11 91  1  0  0  0
 12 13  2  0  0  0
 12 92  1  0  0  0
 13 14  1  0  0  0
 13 31  1  0  0  0
 14 15  2  0  0  0
 14 93  1  0  0  0
 15 94  1  0  0  0
 16 17  2  0  0  0
 16 21  1  0  0  0
 16 31  1  0  0  0
 17 18  1  0  0  0
 17 95  1  0  0  0
 18 19  2  0  0  0
 18 96  1  0  0  0
 19 20  1  0  0  0
 19 24  1  0  0  0
 20 21  2  0  0  0
 20 97  1  0  0  0
 21 23  1  0  0  0
 22 28  1  0  0  0
 22 32  2  0  0  0
 26 27  1  0  0  0
 28 98  1  0  0  0
 28 99  1  0  0  0
 29100  1  0  0  0
 29101  1  0  0  0
 33 34  1  0  0  0
 33 66  1  0  0  0
 33 70  2  0  0  0
 34 36  1  0  0  0
 34 59  1  0  0  0
 34102  1  0  0  0
 35 44  2  0  0  0
 35 45  1  0  0  0
 35 68  1  0  0  0
 36 56  1  0  0  0
 36103  1  0  0  0
 37 39  1  0  0  0
 37 47  1  0  0  0
 37 66  1  0  0  0
 37104  1  0  0  0
 38 43  2  0  0  0
 38 46  1  0  0  0
 38 47  1  0  0  0
 39 64  1  0  0  0
 39 67  2  0  0  0
 40 52  1  0  0  0
 40 53  2  0  0  0
 40 58  1  0  0  0
 41105  1  0  0  0
 41106  1  0  0  0
 41107  1  0  0  0
 41 48  1  0  0  0
 42 43  1  0  0  0
 42 66  1  0  0  0
 42108  1  0  0  0
 42109  1  0  0  0
 43 44  1  0  0  0
 44110  1  0  0  0
 45 46  2  0  0  0
 45111  1  0  0  0
 46112  1  0  0  0
 47113  1  0  0  0
 47114  1  0  0  0
 48 56  1  0  0  0
 48 65  1  0  0  0
 48115  1  0  0  0
 49 50  1  0  0  0
 49 53  1  0  0  0
 49 64  1  0  0  0
 49116  1  0  0  0
 50 51  1  0  0  0
 50117  1  0  0  0
 50118  1  0  0  0
 51 52  1  0  0  0
 51119  1  0  0  0
 51120  1  0  0  0
 52121  1  0  0  0
 52122  1  0  0  0
 53 54  1  0  0  0
 54 55  2  0  0  0
 54123  1  0  0  0
 55 57  1  0  0  0
 55124  1  0  0  0
 56 69  2  0  0  0
 57 58  2  0  0  0
 57125  1  0  0  0
 58126  1  0  0  0
 59 60  1  0  0  0
 59 61  1  0  0  0
 59 62  1  0  0  0
 60127  1  0  0  0
 60128  1  0  0  0
 60129  1  0  0  0
 61130  1  0  0  0
 61131  1  0  0  0
 61132  1  0  0  0
 62133  1  0  0  0
 62134  1  0  0  0
 62135  1  0  0  0
 63 65  1  0  0  0
 63136  1  0  0  0
 63137  1  0  0  0
 63138  1  0  0  0
 64139  1  0  0  0
 65140  1  0  0  0
 68 78  1  0  0  0
 71 72  2  0  0  0
 71 73  1  0  0  0
 71141  1  0  0  0
 72 74  1  0  0  0
 72 80  1  0  0  0
 73 78  1  0  0  0
 73 79  2  0  0  0
 74 76  1  0  0  0
 74142  1  0  0  0
 74143  1  0  0  0
 75 76  1  0  0  0
 75 80  1  0  0  0
 75144  1  0  0  0
 75145  1  0  0  0
 76 77  1  0  0  0
 76 81  1  0  0  0
 77146  1  0  0  0
 77147  1  0  0  0
 77148  1  0  0  0
 78149  1  0  0  0
 78150  1  0  0  0
 79 80  1  0  0  0
 81151  1  0  0  0
M  ISO  4   1 100  68 101  78 101  81 100
M  END
> <chiral flag>
0

> <version>
0

> <s_m_source_file>
/data/baiqing/PycharmProjects/Reinvent-master-3.2/result/LINK_invent/BTK/process_docking_weight1_custom_sum_contain_oxygen_bond_distance_aromatic_linkinvent_7_9_3/rearranged_h_0187.sdf

> <i_m_source_file_index>
1

> <r_mmod_Potential_Energy-OPLS-2005>
1079.95288085938

> <r_mmod_Stretch_Energy-OPLS-2005>
449.760864257812

> <r_mmod_Bend_Energy-OPLS-2005>
447.823028564453

> <r_mmod_Torsional_Energy-OPLS-2005>
231.722106933594

> <r_mmod_Improper_Torsional_Energy-OPLS-2005>
6.32359790802002

> <r_mmod_Van_der_Waal_Energy-OPLS-2005>
109.461372375488

> <r_mmod_Electrostatic_Energy-OPLS-2005>
-317.798980712891

> <r_mmod_Solvation_Energy-OPLS-2005>
-231.993835449219

> <b_mmod_Minimization_Converged-OPLS-2005>
0

> <r_mmod_RMS_Derivative-OPLS-2005>
1.89448499679565

$$$$
1
                    3D
 Structure written by MMmdl.
153163  0  0  1  0            999 V2000
  -30.6453  -14.6777   20.4953 C   0  0  0  0  0  0
  -30.4234  -12.4188   19.4649 C   0  0  0  0  0  0
  -29.5010  -12.5059   18.2304 C   0  0  0  0  0  0
  -28.0281  -12.3360   18.6469 C   0  0  0  0  0  0
  -27.6438  -13.2268   19.8581 C   0  0  2  0  0  0
  -28.6878  -13.1388   20.9924 C   0  0  0  0  0  0
  -25.2520  -13.8190   20.5727 C   0  0  0  0  0  0
  -24.1795  -13.0436   20.9200 C   0  0  0  0  0  0
  -24.6385  -11.6915   20.8746 C   0  0  0  0  0  0
  -23.9065  -10.4295   21.0413 C   0  0  0  0  0  0
  -24.3619   -9.4211   21.9190 C   0  0  0  0  0  0
  -23.6295   -8.2241   22.0756 C   0  0  0  0  0  0
  -22.4276   -8.0282   21.3545 C   0  0  0  0  0  0
  -21.9917   -9.0254   20.4644 C   0  0  0  0  0  0
  -22.7242  -10.2134   20.3059 C   0  0  0  0  0  0
  -21.6852   -6.0738   22.5280 C   0  0  0  0  0  0
  -21.4013   -6.5647   23.8212 C   0  0  0  0  0  0
  -21.3657   -5.6799   24.9176 C   0  0  0  0  0  0
  -21.6044   -4.3062   24.7226 C   0  0  0  0  0  0
  -21.8816   -3.8156   23.4348 C   0  0  0  0  0  0
  -21.9191   -4.6968   22.3405 C   0  0  0  0  0  0
  -22.7820  -13.5219   21.1869 C   0  0  0  0  0  0
  -22.1661   -4.2161   21.0976 F   0  0  0  0  0  0
  -21.5629   -3.4541   25.7736 F   0  0  0  0  0  0
  -29.9970  -13.4689   20.4157 N   0  0  0  0  0  0
  -26.2941  -12.9386   20.3328 N   0  0  0  0  0  0
  -25.9313  -11.6530   20.5775 N   0  0  0  0  0  0
  -22.0473  -12.8197   22.0424 N   0  0  0  0  0  0
  -25.4234  -15.1913   20.4205 N   0  0  0  0  0  0
  -31.8195  -14.7786   20.1283 O   0  0  0  0  0  0
  -21.6635   -6.8883   21.4244 O   0  0  0  0  0  0
  -22.3510  -14.5529   20.6727 O   0  0  0  0  0  0
  -24.6267  -31.8590   23.2032 C   0  0  0  0  0  0
  -25.9115  -32.4768   23.8350 C   0  0  1  0  0  0
  -27.2132  -27.2846   20.1398 C   0  0  0  0  0  0
  -25.5930  -33.8571   24.2284 N   0  0  0  0  0  0
  -23.4224  -30.4820   21.5455 C   0  0  2  0  0  0
  -24.8703  -28.9348   20.1159 C   0  0  0  0  0  0
  -22.7482  -29.4604   22.4927 C   0  0  0  0  0  0
  -18.0282  -28.1377   22.8457 C   0  0  0  0  0  0
  -24.1497  -36.7282   23.2631 C   0  0  0  0  0  0
  -25.9656  -30.7764   21.3846 C   0  0  0  0  0  0
  -26.0364  -29.3978   20.7375 C   0  0  0  0  0  0
  -27.2094  -28.5808   20.7496 C   0  0  0  0  0  0
  -26.0457  -26.9168   19.4394 C   0  0  0  0  0  0
  -24.8771  -27.6979   19.4562 C   0  0  0  0  0  0
  -23.6407  -29.8181   20.1606 C   0  0  0  0  0  0
  -25.4112  -36.3076   24.0338 C   0  0  1  0  0  0
  -20.5891  -28.3671   23.1273 C   0  0  2  0  0  0
  -20.6776  -26.9388   22.5410 C   0  0  0  0  0  0
  -19.5753  -26.6377   21.5209 C   0  0  0  0  0  0
  -18.1927  -26.7919   22.1604 C   0  0  0  0  0  0
  -19.1540  -28.8836   23.2859 C   0  0  0  0  0  0
  -18.9466  -30.1434   23.8882 C   0  0  0  0  0  0
  -17.6471  -30.6573   24.0545 C   0  0  0  0  0  0
  -25.9048  -34.9443   23.5106 C   0  0  0  0  0  0
  -16.5355  -29.9072   23.6329 C   0  0  0  0  0  0
  -16.7270  -28.6493   23.0339 C   0  0  0  0  0  0
  -26.4506  -31.6565   25.0722 C   0  0  0  0  0  0
  -25.3745  -31.3716   26.1458 C   0  0  0  0  0  0
  -27.0329  -30.2981   24.6170 C   0  0  0  0  0  0
  -27.6081  -32.4282   25.7486 C   0  0  0  0  0  0
  -27.5577  -37.1796   24.8462 C   0  0  0  0  0  0
  -21.4195  -29.3032   22.3678 N   0  0  0  0  0  0
  -26.4288  -37.3773   23.9407 N   0  0  0  0  0  0
  -24.6903  -31.0561   22.1018 N   0  0  0  0  0  0
  -23.4204  -28.8149   23.3017 O   0  0  0  0  0  0
  -28.3227  -26.4187   20.1160 O   0  0  0  0  0  0
  -26.5612  -34.8908   22.4677 O   0  0  0  0  0  0
  -23.5433  -32.1401   23.7346 O   0  0  0  0  0  0
  -27.7174  -21.1927   20.1998 C   0  0  0  0  0  0
  -30.1851  -20.4119   20.9171 C   0  0  0  0  0  0
  -28.7149  -22.1923   20.3923 C   0  0  0  0  0  0
  -29.1763  -19.4186   20.7087 C   0  0  0  0  0  0
  -27.1105  -24.1899   20.5939 C   0  0  0  0  0  0
  -29.3102  -16.7455   19.8725 C   0  0  0  0  0  0
  -30.5400  -17.0361   21.4517 C   0  0  0  0  0  0
  -28.4243  -23.6992   20.0204 C   0  0  1  0  0  0
  -29.3280  -17.8563   20.9501 C   0  0  0  0  0  0
  -28.3029  -25.0829   20.8074 C   0  0  1  0  0  0
  -29.9659  -21.7683   20.7554 N   0  0  0  0  0  0
  -27.9337  -19.8495   20.3538 N   0  0  0  0  0  0
  -29.9252  -15.8025   20.8570 N   0  0  0  0  0  0
  -31.4665  -12.5273   19.1649 H   0  0  0  0  0  0
  -30.3487  -11.4356   19.9314 H   0  0  0  0  0  0
  -29.7724  -11.7427   17.4995 H   0  0  0  0  0  0
  -29.6358  -13.4680   17.7341 H   0  0  0  0  0  0
  -27.8779  -11.2867   18.8998 H   0  0  0  0  0  0
  -27.3684  -12.5393   17.8023 H   0  0  0  0  0  0
  -27.6441  -14.2512   19.4884 H   0  0  0  0  0  0
  -28.7054  -12.1396   21.4303 H   0  0  0  0  0  0
  -28.4297  -13.8232   21.8023 H   0  0  0  0  0  0
  -25.2759   -9.5687   22.4771 H   0  0  0  0  0  0
  -24.0004   -7.4635   22.7475 H   0  0  0  0  0  0
  -21.0848   -8.8767   19.8949 H   0  0  0  0  0  0
  -22.3697  -10.9673   19.6169 H   0  0  0  0  0  0
  -21.2001   -7.6153   23.9723 H   0  0  0  0  0  0
  -21.1485   -6.0527   25.9079 H   0  0  0  0  0  0
  -22.0596   -2.7618   23.2841 H   0  0  0  0  0  0
  -22.4080  -11.9834   22.4776 H   0  0  0  0  0  0
  -21.1096  -13.1233   22.2654 H   0  0  0  0  0  0
  -24.6647  -15.8514   20.5517 H   0  0  0  0  0  0
  -26.2921  -15.6352   20.1525 H   0  0  0  0  0  0
  -26.7163  -32.5441   23.1078 H   0  0  0  0  0  0
  -25.0131  -33.9717   25.0465 H   0  0  0  0  0  0
  -22.7171  -31.3036   21.4009 H   0  0  0  0  0  0
  -23.3768  -35.9606   23.3285 H   0  0  0  0  0  0
  -24.3588  -36.8917   22.2045 H   0  0  0  0  0  0
  -23.7252  -37.6479   23.6663 H   0  0  0  0  0  0
  -26.1013  -31.5330   20.6104 H   0  0  0  0  0  0
  -26.8469  -30.8303   22.0110 H   0  0  0  0  0  0
  -28.1033  -28.9315   21.2447 H   0  0  0  0  0  0
  -26.0295  -26.0272   18.8350 H   0  0  0  0  0  0
  -23.9978  -27.3557   18.9267 H   0  0  0  0  0  0
  -23.7632  -30.5946   19.4058 H   0  0  0  0  0  0
  -22.7618  -29.2485   19.8532 H   0  0  0  0  0  0
  -25.1295  -36.1919   25.0832 H   0  0  0  0  0  0
  -20.9953  -28.3230   24.1404 H   0  0  0  0  0  0
  -20.5677  -26.2262   23.3601 H   0  0  0  0  0  0
  -21.6642  -26.7416   22.1196 H   0  0  0  0  0  0
  -19.6921  -25.6304   21.1203 H   0  0  0  0  0  0
  -19.6712  -27.3198   20.6756 H   0  0  0  0  0  0
  -17.4210  -26.6652   21.3994 H   0  0  0  0  0  0
  -18.0302  -26.0081   22.9017 H   0  0  0  0  0  0
  -19.7955  -30.7238   24.2245 H   0  0  0  0  0  0
  -17.5040  -31.6255   24.5138 H   0  0  0  0  0  0
  -15.5352  -30.2971   23.7686 H   0  0  0  0  0  0
  -15.8666  -28.0816   22.7068 H   0  0  0  0  0  0
  -24.5928  -30.7048   25.7797 H   0  0  0  0  0  0
  -24.8932  -32.2890   26.4854 H   0  0  0  0  0  0
  -25.8087  -30.8917   27.0242 H   0  0  0  0  0  0
  -26.2879  -29.6736   24.1227 H   0  0  0  0  0  0
  -27.4058  -29.7233   25.4652 H   0  0  0  0  0  0
  -27.8749  -30.4250   23.9365 H   0  0  0  0  0  0
  -27.2731  -33.3642   26.1957 H   0  0  0  0  0  0
  -28.3948  -32.6718   25.0338 H   0  0  0  0  0  0
  -28.0663  -31.8453   26.5482 H   0  0  0  0  0  0
  -28.2586  -38.0104   24.7524 H   0  0  0  0  0  0
  -28.1093  -36.2639   24.6282 H   0  0  0  0  0  0
  -27.2292  -37.1424   25.8865 H   0  0  0  0  0  0
  -20.9367  -29.8789   21.6919 H   0  0  0  0  0  0
  -26.0167  -38.2843   24.1445 H   0  0  0  0  0  0
  -26.7250  -21.4704   19.8751 H   0  0  0  0  0  0
  -31.1783  -20.1197   21.2252 H   0  0  0  0  0  0
  -26.7402  -23.7112   21.4985 H   0  0  0  0  0  0
  -26.3495  -24.3284   19.8396 H   0  0  0  0  0  0
  -29.9454  -16.9630   19.0095 H   0  0  0  0  0  0
  -28.3014  -16.4928   19.5467 H   0  0  0  0  0  0
  -30.6310  -17.0290   22.5377 H   0  0  0  0  0  0
  -31.4856  -17.3294   20.9893 H   0  0  0  0  0  0
  -28.5610  -23.8000   18.9450 H   0  0  0  0  0  0
  -28.5090  -17.6457   21.6428 H   0  0  0  0  0  0
  -28.7570  -25.1341   21.7958 H   0  0  0  0  0  0
  1 25  1  0  0  0
  1 30  2  0  0  0
  1 83  1  0  0  0
  2  3  1  0  0  0
  2 25  1  0  0  0
  2 84  1  0  0  0
  2 85  1  0  0  0
  3  4  1  0  0  0
  3 86  1  0  0  0
  3 87  1  0  0  0
  4  5  1  0  0  0
  4 88  1  0  0  0
  4 89  1  0  0  0
  5  6  1  0  0  0
  5 26  1  0  0  0
  5 90  1  0  0  0
  6 25  1  0  0  0
  6 91  1  0  0  0
  6 92  1  0  0  0
  7  8  2  0  0  0
  7 26  1  0  0  0
  7 29  1  0  0  0
  8  9  1  0  0  0
  8 22  1  0  0  0
  9 10  1  0  0  0
  9 27  2  0  0  0
 10 11  2  0  0  0
 10 15  1  0  0  0
 11 12  1  0  0  0
 11 93  1  0  0  0
 12 13  2  0  0  0
 12 94  1  0  0  0
 13 14  1  0  0  0
 13 31  1  0  0  0
 14 15  2  0  0  0
 14 95  1  0  0  0
 15 96  1  0  0  0
 16 17  2  0  0  0
 16 21  1  0  0  0
 16 31  1  0  0  0
 17 18  1  0  0  0
 17 97  1  0  0  0
 18 19  2  0  0  0
 18 98  1  0  0  0
 19 20  1  0  0  0
 19 24  1  0  0  0
 20 21  2  0  0  0
 20 99  1  0  0  0
 21 23  1  0  0  0
 22 28  1  0  0  0
 22 32  2  0  0  0
 26 27  1  0  0  0
 28100  1  0  0  0
 28101  1  0  0  0
 29102  1  0  0  0
 29103  1  0  0  0
 33 34  1  0  0  0
 33 66  1  0  0  0
 33 70  2  0  0  0
 34 36  1  0  0  0
 34 59  1  0  0  0
 34104  1  0  0  0
 35 44  2  0  0  0
 35 45  1  0  0  0
 35 68  1  0  0  0
 36 56  1  0  0  0
 36105  1  0  0  0
 37 39  1  0  0  0
 37 47  1  0  0  0
 37 66  1  0  0  0
 37106  1  0  0  0
 38 43  2  0  0  0
 38 46  1  0  0  0
 38 47  1  0  0  0
 39 64  1  0  0  0
 39 67  2  0  0  0
 40 52  1  0  0  0
 40 53  2  0  0  0
 40 58  1  0  0  0
 41107  1  0  0  0
 41108  1  0  0  0
 41109  1  0  0  0
 41 48  1  0  0  0
 42 43  1  0  0  0
 42 66  1  0  0  0
 42110  1  0  0  0
 42111  1  0  0  0
 43 44  1  0  0  0
 44112  1  0  0  0
 45 46  2  0  0  0
 45113  1  0  0  0
 46114  1  0  0  0
 47115  1  0  0  0
 47116  1  0  0  0
 48 56  1  0  0  0
 48 65  1  0  0  0
 48117  1  0  0  0
 49 50  1  0  0  0
 49 53  1  0  0  0
 49 64  1  0  0  0
 49118  1  0  0  0
 50 51  1  0  0  0
 50119  1  0  0  0
 50120  1  0  0  0
 51 52  1  0  0  0
 51121  1  0  0  0
 51122  1  0  0  0
 52123  1  0  0  0
 52124  1  0  0  0
 53 54  1  0  0  0
 54 55  2  0  0  0
 54125  1  0  0  0
 55 57  1  0  0  0
 55126  1  0  0  0
 56 69  2  0  0  0
 57 58  2  0  0  0
 57127  1  0  0  0
 58128  1  0  0  0
 59 60  1  0  0  0
 59 61  1  0  0  0
 59 62  1  0  0  0
 60129  1  0  0  0
 60130  1  0  0  0
 60131  1  0  0  0
 61132  1  0  0  0
 61133  1  0  0  0
 61134  1  0  0  0
 62135  1  0  0  0
 62136  1  0  0  0
 62137  1  0  0  0
 63 65  1  0  0  0
 63138  1  0  0  0
 63139  1  0  0  0
 63140  1  0  0  0
 64141  1  0  0  0
 65142  1  0  0  0
 68 80  1  0  0  0
 71 73  2  0  0  0
 71 82  1  0  0  0
 71143  1  0  0  0
 72 74  1  0  0  0
 72 81  2  0  0  0
 72144  1  0  0  0
 73 81  1  0  0  0
 73 78  1  0  0  0
 74 82  2  0  0  0
 74 79  1  0  0  0
 75 78  1  0  0  0
 75 80  1  0  0  0
 75145  1  0  0  0
 75146  1  0  0  0
 76 79  1  0  0  0
 76 83  1  0  0  0
 76147  1  0  0  0
 76148  1  0  0  0
 77 79  1  0  0  0
 77 83  1  0  0  0
 77149  1  0  0  0
 77150  1  0  0  0
 78 80  1  0  0  0
 78151  1  0  0  0
 79152  1  0  0  0
 80153  1  0  0  0
M  ISO  4   1 100  68 101  80 101  83 100
M  END
> <chiral flag>
0

> <version>
0

> <s_m_source_file>
/data/baiqing/PycharmProjects/Reinvent-master-3.2/result/LINK_invent/BTK/process_docking_weight1_custom_sum_contain_oxygen_bond_distance_aromatic_linkinvent_7_9_3/rearranged_h_0187.sdf

> <i_m_source_file_index>
2

> <r_mmod_Potential_Energy-OPLS-2005>
317.534606933594

> <r_mmod_Stretch_Energy-OPLS-2005>
101.067672729492

> <r_mmod_Bend_Energy-OPLS-2005>
194.800048828125

> <r_mmod_Torsional_Energy-OPLS-2005>
288.879089355469

> <r_mmod_Improper_Torsional_Energy-OPLS-2005>
11.3866033554077

> <r_mmod_Van_der_Waal_Energy-OPLS-2005>
144.271057128906

> <r_mmod_Electrostatic_Energy-OPLS-2005>
-264.43994140625

> <r_mmod_Solvation_Energy-OPLS-2005>
-220.614486694336

> <b_mmod_Minimization_Converged-OPLS-2005>
0

> <r_mmod_RMS_Derivative-OPLS-2005>
2.0560610294342

$$$$
2
                    3D
 Structure written by MMmdl.
175184  0  0  1  0            999 V2000
  -30.5817  -15.1154   20.4080 C   0  0  0  0  0  0
  -30.4182  -12.7173   19.5136 C   0  0  0  0  0  0
  -29.5167  -12.5455   18.2717 C   0  0  0  0  0  0
  -28.0639  -12.2977   18.7052 C   0  0  0  0  0  0
  -27.6110  -13.2721   19.8223 C   0  0  2  0  0  0
  -28.6521  -13.4327   20.9526 C   0  0  0  0  0  0
  -25.2375  -13.8253   20.5760 C   0  0  0  0  0  0
  -24.1737  -13.0440   20.9282 C   0  0  0  0  0  0
  -24.6397  -11.6940   20.8787 C   0  0  0  0  0  0
  -23.9090  -10.4296   21.0426 C   0  0  0  0  0  0
  -24.3638   -9.4200   21.9194 C   0  0  0  0  0  0
  -23.6301   -8.2242   22.0759 C   0  0  0  0  0  0
  -22.4279   -8.0291   21.3551 C   0  0  0  0  0  0
  -21.9923   -9.0270   20.4656 C   0  0  0  0  0  0
  -22.7262  -10.2141   20.3067 C   0  0  0  0  0  0
  -21.6857   -6.0736   22.5278 C   0  0  0  0  0  0
  -21.4021   -6.5644   23.8214 C   0  0  0  0  0  0
  -21.3659   -5.6796   24.9177 C   0  0  0  0  0  0
  -21.6041   -4.3059   24.7224 C   0  0  0  0  0  0
  -21.8817   -3.8148   23.4342 C   0  0  0  0  0  0
  -21.9189   -4.6965   22.3401 C   0  0  0  0  0  0
  -22.7752  -13.5185   21.1907 C   0  0  0  0  0  0
  -22.1657   -4.2150   21.0974 F   0  0  0  0  0  0
  -21.5623   -3.4544   25.7735 F   0  0  0  0  0  0
  -29.8979  -13.8820   20.3154 N   0  0  0  0  0  0
  -26.2813  -12.9534   20.3248 N   0  0  0  0  0  0
  -25.9337  -11.6638   20.5763 N   0  0  0  0  0  0
  -22.0401  -12.8182   22.0464 N   0  0  0  0  0  0
  -25.3978  -15.1978   20.4151 N   0  0  0  0  0  0
  -31.7964  -14.9996   20.2043 O   0  0  0  0  0  0
  -21.6643   -6.8889   21.4247 O   0  0  0  0  0  0
  -22.3431  -14.5477   20.6725 O   0  0  0  0  0  0
  -24.6528  -31.8340   23.1807 C   0  0  0  0  0  0
  -25.9255  -32.4643   23.8230 C   0  0  1  0  0  0
  -27.2087  -27.0203   20.1884 C   0  0  0  0  0  0
  -25.5968  -33.8454   24.2141 N   0  0  0  0  0  0
  -23.4635  -30.4489   21.5275 C   0  0  2  0  0  0
  -24.9167  -28.8560   20.1144 C   0  0  0  0  0  0
  -22.7620  -29.4485   22.4819 C   0  0  0  0  0  0
  -18.0315  -28.1402   22.8469 C   0  0  0  0  0  0
  -24.1494  -36.7233   23.2644 C   0  0  0  0  0  0
  -26.0269  -30.6697   21.4007 C   0  0  0  0  0  0
  -26.0965  -29.2677   20.7492 C   0  0  0  0  0  0
  -27.2439  -28.3685   20.7671 C   0  0  0  0  0  0
  -26.0148  -26.7514   19.4851 C   0  0  0  0  0  0
  -24.8951  -27.6137   19.4636 C   0  0  0  0  0  0
  -23.6989  -29.7726   20.1503 C   0  0  0  0  0  0
  -25.4132  -36.3001   24.0305 C   0  0  1  0  0  0
  -20.5936  -28.3737   23.1208 C   0  0  2  0  0  0
  -20.6796  -26.9428   22.5401 C   0  0  0  0  0  0
  -19.5772  -26.6377   21.5211 C   0  0  0  0  0  0
  -18.1952  -26.7938   22.1620 C   0  0  0  0  0  0
  -19.1574  -28.8889   23.2828 C   0  0  0  0  0  0
  -18.9487  -30.1480   23.8862 C   0  0  0  0  0  0
  -17.6482  -30.6591   24.0557 C   0  0  0  0  0  0
  -25.9088  -34.9379   23.5037 C   0  0  0  0  0  0
  -16.5371  -29.9082   23.6344 C   0  0  0  0  0  0
  -16.7298  -28.6503   23.0362 C   0  0  0  0  0  0
  -26.4543  -31.6552   25.0717 C   0  0  0  0  0  0
  -25.3694  -31.3798   26.1395 C   0  0  0  0  0  0
  -27.0415  -30.2920   24.6395 C   0  0  0  0  0  0
  -27.6057  -32.4342   25.7503 C   0  0  0  0  0  0
  -27.5573  -37.1776   24.8466 C   0  0  0  0  0  0
  -21.4302  -29.3039   22.3565 N   0  0  0  0  0  0
  -26.4290  -37.3720   23.9398 N   0  0  0  0  0  0
  -24.7346  -31.0091   22.0902 N   0  0  0  0  0  0
  -23.4208  -28.8044   23.3019 O   0  0  0  0  0  0
  -28.2171  -25.9475   20.2012 O   0  0  0  0  0  0
  -26.5684  -34.8891   22.4623 O   0  0  0  0  0  0
  -23.5623  -32.1271   23.6953 O   0  0  0  0  0  0
  -29.4219  -24.7701   21.6766 C   0  0  0  0  0  0
  -28.6846  -17.0835   20.8203 C   0  0  0  0  0  0
  -30.4274  -19.2015   19.9459 C   0  0  0  0  0  0
  -30.9344  -17.7301   20.4695 C   0  0  1  0  0  0
  -28.2211  -18.6584   20.4953 C   0  0  1  0  0  0
  -30.1575  -23.6150   20.9501 C   0  0  0  0  0  0
  -28.8169  -22.8439   20.9824 C   0  0  2  0  0  0
  -28.0969  -24.4951   20.9098 C   0  0  2  0  0  0
  -31.5796  -17.8912   21.8625 C   0  0  0  0  0  0
  -26.9537  -18.9511   21.3190 C   0  0  0  0  0  0
  -30.6905  -23.9428   19.5473 C   0  0  0  0  0  0
  -31.3417  -23.0150   21.7186 C   0  0  0  0  0  0
  -28.4962  -22.1657   22.3488 C   0  0  0  0  0  0
  -26.7599  -24.5922   21.6704 C   0  0  0  0  0  0
  -28.7466  -21.3515   20.0772 C   0  0  0  0  0  0
  -30.0363  -16.4862   20.4670 N   0  0  0  0  0  0
  -29.2054  -19.8460   20.5794 N   0  3  2  0  0  0
  -31.4480  -12.8573   19.1833 H   0  0  0  0  0  0
  -30.4314  -11.8061   20.1147 H   0  0  0  0  0  0
  -29.8696  -11.7173   17.6560 H   0  0  0  0  0  0
  -29.5739  -13.4396   17.6487 H   0  0  0  0  0  0
  -28.0056  -11.2708   19.0695 H   0  0  0  0  0  0
  -27.3929  -12.3577   17.8469 H   0  0  0  0  0  0
  -27.5303  -14.2412   19.3290 H   0  0  0  0  0  0
  -28.7921  -12.5009   21.5030 H   0  0  0  0  0  0
  -28.3155  -14.1756   21.6769 H   0  0  0  0  0  0
  -25.2786   -9.5663   22.4767 H   0  0  0  0  0  0
  -24.0003   -7.4625   22.7474 H   0  0  0  0  0  0
  -21.0849   -8.8792   19.8965 H   0  0  0  0  0  0
  -22.3723  -10.9683   19.6174 H   0  0  0  0  0  0
  -21.2027   -7.6154   23.9717 H   0  0  0  0  0  0
  -21.1480   -6.0529   25.9079 H   0  0  0  0  0  0
  -22.0594   -2.7610   23.2846 H   0  0  0  0  0  0
  -22.4036  -11.9865   22.4874 H   0  0  0  0  0  0
  -21.1015  -13.1205   22.2652 H   0  0  0  0  0  0
  -24.6196  -15.8402   20.5175 H   0  0  0  0  0  0
  -26.2238  -15.6331   20.0304 H   0  0  0  0  0  0
  -26.7321  -32.5217   23.0952 H   0  0  0  0  0  0
  -25.0078  -33.9555   25.0264 H   0  0  0  0  0  0
  -22.7718  -31.2779   21.3647 H   0  0  0  0  0  0
  -23.3755  -35.9566   23.3305 H   0  0  0  0  0  0
  -24.3566  -36.8870   22.2058 H   0  0  0  0  0  0
  -23.7260  -37.6430   23.6689 H   0  0  0  0  0  0
  -26.1970  -31.4143   20.6221 H   0  0  0  0  0  0
  -26.8918  -30.7250   22.0494 H   0  0  0  0  0  0
  -28.1406  -28.6792   21.2848 H   0  0  0  0  0  0
  -25.9240  -25.8020   18.9762 H   0  0  0  0  0  0
  -24.0006  -27.2968   18.9441 H   0  0  0  0  0  0
  -23.8471  -30.5450   19.3943 H   0  0  0  0  0  0
  -22.8112  -29.2211   19.8348 H   0  0  0  0  0  0
  -25.1326  -36.1819   25.0797 H   0  0  0  0  0  0
  -21.0023  -28.3336   24.1332 H   0  0  0  0  0  0
  -20.5683  -26.2350   23.3629 H   0  0  0  0  0  0
  -21.6661  -26.7417   22.1207 H   0  0  0  0  0  0
  -19.6934  -25.6279   21.1263 H   0  0  0  0  0  0
  -19.6717  -27.3168   20.6726 H   0  0  0  0  0  0
  -17.4222  -26.6679   21.4022 H   0  0  0  0  0  0
  -18.0352  -26.0087   22.9023 H   0  0  0  0  0  0
  -19.7959  -30.7307   24.2218 H   0  0  0  0  0  0
  -17.5031  -31.6268   24.5162 H   0  0  0  0  0  0
  -15.5370  -30.2973   23.7687 H   0  0  0  0  0  0
  -15.8699  -28.0807   22.7106 H   0  0  0  0  0  0
  -24.5877  -30.7144   25.7718 H   0  0  0  0  0  0
  -24.8889  -32.3004   26.4715 H   0  0  0  0  0  0
  -25.7944  -30.9039   27.0241 H   0  0  0  0  0  0
  -26.3061  -29.6625   24.1378 H   0  0  0  0  0  0
  -27.3938  -29.7256   25.5026 H   0  0  0  0  0  0
  -27.9010  -30.4107   23.9795 H   0  0  0  0  0  0
  -27.2640  -33.3673   26.1993 H   0  0  0  0  0  0
  -28.3911  -32.6856   25.0362 H   0  0  0  0  0  0
  -28.0678  -31.8532   26.5494 H   0  0  0  0  0  0
  -28.2598  -38.0063   24.7480 H   0  0  0  0  0  0
  -28.1060  -36.2590   24.6334 H   0  0  0  0  0  0
  -27.2282  -37.1469   25.8868 H   0  0  0  0  0  0
  -20.9535  -29.8736   21.6715 H   0  0  0  0  0  0
  -26.0150  -38.2785   24.1394 H   0  0  0  0  0  0
  -29.9211  -25.7272   21.5111 H   0  0  0  0  0  0
  -29.3433  -24.6534   22.7570 H   0  0  0  0  0  0
  -27.9360  -16.4251   20.3851 H   0  0  0  0  0  0
  -28.5893  -16.9282   21.8956 H   0  0  0  0  0  0
  -30.2406  -19.1275   18.8731 H   0  0  0  0  0  0
  -31.2517  -19.9101   20.0349 H   0  0  0  0  0  0
  -31.7531  -17.4884   19.7890 H   0  0  0  0  0  0
  -27.9096  -18.6478   19.4485 H   0  0  0  0  0  0
  -30.8346  -18.1081   22.6287 H   0  0  0  0  0  0
  -32.3059  -18.7052   21.8728 H   0  0  0  0  0  0
  -32.1134  -16.9911   22.1684 H   0  0  0  0  0  0
  -27.1831  -19.0235   22.3825 H   0  0  0  0  0  0
  -26.2198  -18.1536   21.1982 H   0  0  0  0  0  0
  -26.4617  -19.8753   21.0189 H   0  0  0  0  0  0
  -29.9094  -24.3075   18.8800 H   0  0  0  0  0  0
  -31.1319  -23.0681   19.0677 H   0  0  0  0  0  0
  -31.4632  -24.7121   19.5811 H   0  0  0  0  0  0
  -31.1249  -22.8909   22.7798 H   0  0  0  0  0  0
  -32.2250  -23.6523   21.6614 H   0  0  0  0  0  0
  -31.6241  -22.0365   21.3293 H   0  0  0  0  0  0
  -28.3967  -22.8522   23.1864 H   0  0  0  0  0  0
  -29.2661  -21.4593   22.6573 H   0  0  0  0  0  0
  -27.5528  -21.6212   22.3156 H   0  0  0  0  0  0
  -26.5524  -23.7427   22.3129 H   0  0  0  0  0  0
  -25.9102  -24.6301   20.9931 H   0  0  0  0  0  0
  -26.7242  -25.4682   22.3185 H   0  0  0  0  0  0
  -29.2683  -21.5102   19.1343 H   0  0  0  0  0  0
  -27.7150  -21.2417   19.7444 H   0  0  0  0  0  0
  -29.4356  -19.9545   21.5553 H   0  0  0  0  0  0
  1 25  1  0  0  0
  1 30  2  0  0  0
  1 86  1  0  0  0
  2  3  1  0  0  0
  2 25  1  0  0  0
  2 88  1  0  0  0
  2 89  1  0  0  0
  3  4  1  0  0  0
  3 90  1  0  0  0
  3 91  1  0  0  0
  4  5  1  0  0  0
  4 92  1  0  0  0
  4 93  1  0  0  0
  5  6  1  0  0  0
  5 26  1  0  0  0
  5 94  1  0  0  0
  6 25  1  0  0  0
  6 95  1  0  0  0
  6 96  1  0  0  0
  7  8  2  0  0  0
  7 26  1  0  0  0
  7 29  1  0  0  0
  8  9  1  0  0  0
  8 22  1  0  0  0
  9 10  1  0  0  0
  9 27  2  0  0  0
 10 11  2  0  0  0
 10 15  1  0  0  0
 11 12  1  0  0  0
 11 97  1  0  0  0
 12 13  2  0  0  0
 12 98  1  0  0  0
 13 14  1  0  0  0
 13 31  1  0  0  0
 14 15  2  0  0  0
 14 99  1  0  0  0
 15100  1  0  0  0
 16 17  2  0  0  0
 16 21  1  0  0  0
 16 31  1  0  0  0
 17 18  1  0  0  0
 17101  1  0  0  0
 18 19  2  0  0  0
 18102  1  0  0  0
 19 20  1  0  0  0
 19 24  1  0  0  0
 20 21  2  0  0  0
 20103  1  0  0  0
 21 23  1  0  0  0
 22 28  1  0  0  0
 22 32  2  0  0  0
 26 27  1  0  0  0
 28104  1  0  0  0
 28105  1  0  0  0
 29106  1  0  0  0
 29107  1  0  0  0
 33 34  1  0  0  0
 33 66  1  0  0  0
 33 70  2  0  0  0
 34 36  1  0  0  0
 34 59  1  0  0  0
 34108  1  0  0  0
 35 44  2  0  0  0
 35 45  1  0  0  0
 35 68  1  0  0  0
 36 56  1  0  0  0
 36109  1  0  0  0
 37 39  1  0  0  0
 37 47  1  0  0  0
 37 66  1  0  0  0
 37110  1  0  0  0
 38 43  2  0  0  0
 38 46  1  0  0  0
 38 47  1  0  0  0
 39 64  1  0  0  0
 39 67  2  0  0  0
 40 52  1  0  0  0
 40 53  2  0  0  0
 40 58  1  0  0  0
 41111  1  0  0  0
 41112  1  0  0  0
 41113  1  0  0  0
 41 48  1  0  0  0
 42 43  1  0  0  0
 42 66  1  0  0  0
 42114  1  0  0  0
 42115  1  0  0  0
 43 44  1  0  0  0
 44116  1  0  0  0
 45 46  2  0  0  0
 45117  1  0  0  0
 46118  1  0  0  0
 47119  1  0  0  0
 47120  1  0  0  0
 48 56  1  0  0  0
 48 65  1  0  0  0
 48121  1  0  0  0
 49 50  1  0  0  0
 49 53  1  0  0  0
 49 64  1  0  0  0
 49122  1  0  0  0
 50 51  1  0  0  0
 50123  1  0  0  0
 50124  1  0  0  0
 51 52  1  0  0  0
 51125  1  0  0  0
 51126  1  0  0  0
 52127  1  0  0  0
 52128  1  0  0  0
 53 54  1  0  0  0
 54 55  2  0  0  0
 54129  1  0  0  0
 55 57  1  0  0  0
 55130  1  0  0  0
 56 69  2  0  0  0
 57 58  2  0  0  0
 57131  1  0  0  0
 58132  1  0  0  0
 59 60  1  0  0  0
 59 61  1  0  0  0
 59 62  1  0  0  0
 60133  1  0  0  0
 60134  1  0  0  0
 60135  1  0  0  0
 61136  1  0  0  0
 61137  1  0  0  0
 61138  1  0  0  0
 62139  1  0  0  0
 62140  1  0  0  0
 62141  1  0  0  0
 63 65  1  0  0  0
 63142  1  0  0  0
 63143  1  0  0  0
 63144  1  0  0  0
 64145  1  0  0  0
 65146  1  0  0  0
 68 78  1  0  0  0
 71 76  1  0  0  0
 71 78  1  0  0  0
 71147  1  0  0  0
 71148  1  0  0  0
 72 75  1  0  0  0
 72 86  1  0  0  0
 72149  1  0  0  0
 72150  1  0  0  0
 73 74  1  0  0  0
 73 87  1  0  0  0
 73151  1  0  0  0
 73152  1  0  0  0
 74 79  1  0  0  0
 74 86  1  0  0  0
 74153  1  0  0  0
 75 80  1  0  0  0
 75 87  1  0  0  0
 75154  1  0  0  0
 76 77  1  0  0  0
 76 81  1  0  0  0
 76 82  1  0  0  0
 77 78  1  0  0  0
 77 83  1  0  0  0
 77 85  1  0  0  0
 78 84  1  0  0  0
 79155  1  0  0  0
 79156  1  0  0  0
 79157  1  0  0  0
 80158  1  0  0  0
 80159  1  0  0  0
 80160  1  0  0  0
 81161  1  0  0  0
 81162  1  0  0  0
 81163  1  0  0  0
 82164  1  0  0  0
 82165  1  0  0  0
 82166  1  0  0  0
 83167  1  0  0  0
 83168  1  0  0  0
 83169  1  0  0  0
 84170  1  0  0  0
 84171  1  0  0  0
 84172  1  0  0  0
 85173  1  0  0  0
 85174  1  0  0  0
 85 87  1  0  0  0
 87175  1  0  0  0
M  CHG  1  87   1
M  ISO  4   1 100  68 101  78 101  86 100
M  END
> <chiral flag>
0

> <version>
0

> <s_m_source_file>
/data/baiqing/PycharmProjects/Reinvent-master-3.2/result/LINK_invent/BTK/process_docking_weight1_custom_sum_contain_oxygen_bond_distance_aromatic_linkinvent_7_9_3/rearranged_h_0187.sdf

> <i_m_source_file_index>
3

> <r_mmod_Potential_Energy-OPLS-2005>
1295.19860839844

> <r_mmod_Stretch_Energy-OPLS-2005>
450.735961914062

> <r_mmod_Bend_Energy-OPLS-2005>
546.833129882812

> <r_mmod_Torsional_Energy-OPLS-2005>
453.582916259766

> <r_mmod_Improper_Torsional_Energy-OPLS-2005>
6.29213523864746

> <r_mmod_Van_der_Waal_Energy-OPLS-2005>
137.607360839844

> <r_mmod_Electrostatic_Energy-OPLS-2005>
-204.631042480469

> <r_mmod_Solvation_Energy-OPLS-2005>
-417.425445556641

> <b_mmod_Minimization_Converged-OPLS-2005>
0

> <r_mmod_RMS_Derivative-OPLS-2005>
1.4557831287384

$$$$
3
                    3D
 Structure written by MMmdl.
154163  0  0  1  0            999 V2000
  -30.6421  -14.8429   20.4673 C   0  0  0  0  0  0
  -30.4436  -12.5380   19.4700 C   0  0  0  0  0  0
  -29.5146  -12.5184   18.2365 C   0  0  0  0  0  0
  -28.0461  -12.3095   18.6567 C   0  0  0  0  0  0
  -27.6410  -13.2158   19.8485 C   0  0  2  0  0  0
  -28.7005  -13.1942   20.9752 C   0  0  0  0  0  0
  -25.2523  -13.8122   20.5683 C   0  0  0  0  0  0
  -24.1805  -13.0405   20.9210 C   0  0  0  0  0  0
  -24.6395  -11.6872   20.8778 C   0  0  0  0  0  0
  -23.9055  -10.4276   21.0436 C   0  0  0  0  0  0
  -24.3617   -9.4199   21.9217 C   0  0  0  0  0  0
  -23.6300   -8.2233   22.0774 C   0  0  0  0  0  0
  -22.4280   -8.0281   21.3555 C   0  0  0  0  0  0
  -21.9906   -9.0256   20.4661 C   0  0  0  0  0  0
  -22.7228  -10.2137   20.3076 C   0  0  0  0  0  0
  -21.6857   -6.0737   22.5271 C   0  0  0  0  0  0
  -21.4010   -6.5634   23.8204 C   0  0  0  0  0  0
  -21.3656   -5.6786   24.9163 C   0  0  0  0  0  0
  -21.6049   -4.3055   24.7219 C   0  0  0  0  0  0
  -21.8815   -3.8147   23.4342 C   0  0  0  0  0  0
  -21.9195   -4.6963   22.3394 C   0  0  0  0  0  0
  -22.7821  -13.5233   21.1833 C   0  0  0  0  0  0
  -22.1662   -4.2145   21.0975 F   0  0  0  0  0  0
  -21.5633   -3.4534   25.7733 F   0  0  0  0  0  0
  -29.9737  -13.6243   20.3742 N   0  0  0  0  0  0
  -26.2963  -12.9313   20.3332 N   0  0  0  0  0  0
  -25.9331  -11.6481   20.5820 N   0  0  0  0  0  0
  -22.0441  -12.8262   22.0405 N   0  0  0  0  0  0
  -25.4156  -15.1844   20.4014 N   0  0  0  0  0  0
  -31.8460  -14.8484   20.1880 O   0  0  0  0  0  0
  -21.6632   -6.8883   21.4244 O   0  0  0  0  0  0
  -22.3503  -14.5533   20.6657 O   0  0  0  0  0  0
  -24.6318  -31.8530   23.1962 C   0  0  0  0  0  0
  -25.9120  -32.4751   23.8325 C   0  0  1  0  0  0
  -27.2450  -27.2333   20.1260 C   0  0  0  0  0  0
  -25.5911  -33.8549   24.2251 N   0  0  0  0  0  0
  -23.4338  -30.4710   21.5407 C   0  0  2  0  0  0
  -24.8914  -28.9218   20.1065 C   0  0  0  0  0  0
  -22.7527  -29.4556   22.4908 C   0  0  0  0  0  0
  -18.0281  -28.1401   22.8477 C   0  0  0  0  0  0
  -24.1478  -36.7244   23.2649 C   0  0  0  0  0  0
  -25.9824  -30.7558   21.3853 C   0  0  0  0  0  0
  -26.0617  -29.3785   20.7236 C   0  0  0  0  0  0
  -27.2329  -28.5446   20.7301 C   0  0  0  0  0  0
  -26.0492  -26.8659   19.4870 C   0  0  0  0  0  0
  -24.8933  -27.6716   19.4751 C   0  0  0  0  0  0
  -23.6562  -29.8022   20.1579 C   0  0  0  0  0  0
  -25.4112  -36.3052   24.0325 C   0  0  1  0  0  0
  -20.5895  -28.3699   23.1269 C   0  0  2  0  0  0
  -20.6760  -26.9402   22.5427 C   0  0  0  0  0  0
  -19.5734  -26.6381   21.5228 C   0  0  0  0  0  0
  -18.1915  -26.7936   22.1630 C   0  0  0  0  0  0
  -19.1540  -28.8865   23.2867 C   0  0  0  0  0  0
  -18.9462  -30.1473   23.8882 C   0  0  0  0  0  0
  -17.6456  -30.6602   24.0558 C   0  0  0  0  0  0
  -25.9055  -34.9436   23.5095 C   0  0  0  0  0  0
  -16.5348  -29.9092   23.6343 C   0  0  0  0  0  0
  -16.7266  -28.6514   23.0359 C   0  0  0  0  0  0
  -26.4513  -31.6598   25.0726 C   0  0  0  0  0  0
  -25.3750  -31.3706   26.1456 C   0  0  0  0  0  0
  -27.0396  -30.3012   24.6248 C   0  0  0  0  0  0
  -27.6057  -32.4374   25.7490 C   0  0  0  0  0  0
  -27.5566  -37.1773   24.8481 C   0  0  0  0  0  0
  -21.4220  -29.3027   22.3647 N   0  0  0  0  0  0
  -26.4283  -37.3756   23.9409 N   0  0  0  0  0  0
  -24.7014  -31.0459   22.0962 N   0  0  0  0  0  0
  -23.4214  -28.8106   23.3025 O   0  0  0  0  0  0
  -28.3277  -26.3115   20.2527 O   0  0  0  0  0  0
  -26.5651  -34.8912   22.4678 O   0  0  0  0  0  0
  -23.5460  -32.1377   23.7240 O   0  0  0  0  0  0
  -26.8400  -21.6093   19.1388 C   0  0  0  0  0  0
  -27.1017  -22.9777   19.0192 C   0  0  0  0  0  0
  -28.2493  -23.5101   19.6677 C   0  0  0  0  0  0
  -28.8327  -21.1950   20.1534 C   0  0  0  0  0  0
  -28.4174  -17.9430   21.0893 C   0  0  0  0  0  0
  -28.5751  -16.4185   20.8352 C   0  0  0  0  0  0
  -30.6292  -17.4869   20.4891 C   0  0  0  0  0  0
  -29.5094  -18.6192   20.2640 C   0  0  2  0  0  0
  -28.6410  -25.0740   19.4106 C   0  0  0  0  0  0
  -27.6914  -20.7378   19.6913 N   0  0  0  0  0  0
  -29.1380  -22.5425   20.2008 N   0  0  0  0  0  0
  -29.9979  -16.0980   20.6206 N   0  0  0  0  0  0
  -29.7180  -20.1200   20.5375 N   0  0  0  0  0  0
  -26.0982  -23.8265   17.9038 Cl  0  0  0  0  0  0
  -31.4751  -12.6794   19.1425 H   0  0  0  0  0  0
  -30.4360  -11.5741   19.9816 H   0  0  0  0  0  0
  -29.8266  -11.7375   17.5413 H   0  0  0  0  0  0
  -29.6053  -13.4638   17.6981 H   0  0  0  0  0  0
  -27.9228  -11.2605   18.9277 H   0  0  0  0  0  0
  -27.3837  -12.4859   17.8079 H   0  0  0  0  0  0
  -27.6127  -14.2122   19.4242 H   0  0  0  0  0  0
  -28.7909  -12.1908   21.3936 H   0  0  0  0  0  0
  -28.4238  -13.8213   21.8195 H   0  0  0  0  0  0
  -25.2769   -9.5671   22.4782 H   0  0  0  0  0  0
  -24.0009   -7.4616   22.7489 H   0  0  0  0  0  0
  -21.0833   -8.8799   19.8959 H   0  0  0  0  0  0
  -22.3721  -10.9696   19.6184 H   0  0  0  0  0  0
  -21.2003   -7.6142   23.9709 H   0  0  0  0  0  0
  -21.1475   -6.0512   25.9065 H   0  0  0  0  0  0
  -22.0602   -2.7613   23.2834 H   0  0  0  0  0  0
  -22.4040  -11.9959   22.4867 H   0  0  0  0  0  0
  -21.1063  -13.1304   22.2573 H   0  0  0  0  0  0
  -24.6443  -15.8351   20.4983 H   0  0  0  0  0  0
  -26.2613  -15.6242   20.0668 H   0  0  0  0  0  0
  -26.7178  -32.5418   23.1065 H   0  0  0  0  0  0
  -25.0010  -33.9692   25.0357 H   0  0  0  0  0  0
  -22.7275  -31.2921   21.3911 H   0  0  0  0  0  0
  -23.3754  -35.9573   23.3361 H   0  0  0  0  0  0
  -24.3538  -36.8819   22.2053 H   0  0  0  0  0  0
  -23.7241  -37.6448   23.6658 H   0  0  0  0  0  0
  -26.1329  -31.5202   20.6205 H   0  0  0  0  0  0
  -26.8507  -30.8025   22.0294 H   0  0  0  0  0  0
  -28.1196  -28.8915   21.2417 H   0  0  0  0  0  0
  -25.9676  -25.9074   19.0413 H   0  0  0  0  0  0
  -23.9955  -27.3083   18.9932 H   0  0  0  0  0  0
  -23.7663  -30.5768   19.3978 H   0  0  0  0  0  0
  -22.7779  -29.2260   19.8612 H   0  0  0  0  0  0
  -25.1302  -36.1890   25.0819 H   0  0  0  0  0  0
  -20.9977  -28.3276   24.1394 H   0  0  0  0  0  0
  -20.5634  -26.2295   23.3634 H   0  0  0  0  0  0
  -21.6625  -26.7402   22.1219 H   0  0  0  0  0  0
  -19.6876  -25.6300   21.1235 H   0  0  0  0  0  0
  -19.6676  -27.3206   20.6766 H   0  0  0  0  0  0
  -17.4172  -26.6689   21.4036 H   0  0  0  0  0  0
  -18.0309  -26.0103   22.9045 H   0  0  0  0  0  0
  -19.7946  -30.7293   24.2245 H   0  0  0  0  0  0
  -17.5019  -31.6283   24.5170 H   0  0  0  0  0  0
  -15.5356  -30.2987   23.7697 H   0  0  0  0  0  0
  -15.8665  -28.0838   22.7084 H   0  0  0  0  0  0
  -24.5916  -30.7085   25.7740 H   0  0  0  0  0  0
  -24.8978  -32.2871   26.4938 H   0  0  0  0  0  0
  -25.8093  -30.8813   27.0190 H   0  0  0  0  0  0
  -26.3000  -29.6728   24.1267 H   0  0  0  0  0  0
  -27.4054  -29.7297   25.4789 H   0  0  0  0  0  0
  -27.8892  -30.4257   23.9530 H   0  0  0  0  0  0
  -27.2632  -33.3660   26.2065 H   0  0  0  0  0  0
  -28.3855  -32.6971   25.0318 H   0  0  0  0  0  0
  -28.0764  -31.8533   26.5410 H   0  0  0  0  0  0
  -28.2612  -38.0037   24.7493 H   0  0  0  0  0  0
  -28.1027  -36.2566   24.6366 H   0  0  0  0  0  0
  -27.2269  -37.1492   25.8880 H   0  0  0  0  0  0
  -20.9426  -29.8733   21.6823 H   0  0  0  0  0  0
  -26.0162  -38.2814   24.1438 H   0  0  0  0  0  0
  -25.9692  -21.1773   18.6717 H   0  0  0  0  0  0
  -28.5719  -18.1495   22.1492 H   0  0  0  0  0  0
  -27.4191  -18.2979   20.8329 H   0  0  0  0  0  0
  -28.0444  -16.1936   19.9151 H   0  0  0  0  0  0
  -28.1182  -15.8724   21.6571 H   0  0  0  0  0  0
  -31.3633  -17.5020   19.6820 H   0  0  0  0  0  0
  -31.1753  -17.6833   21.4135 H   0  0  0  0  0  0
  -29.2255  -18.5557   19.2125 H   0  0  0  0  0  0
  -28.3628  -25.3104   18.3851 H   0  0  0  0  0  0
  -29.7314  -25.0633   19.3773 H   0  0  0  0  0  0
  -30.6413  -20.4143   20.8338 H   0  0  0  0  0  0
  1 25  1  0  0  0
  1 30  2  0  0  0
  1 82  1  0  0  0
  2  3  1  0  0  0
  2 25  1  0  0  0
  2 85  1  0  0  0
  2 86  1  0  0  0
  3  4  1  0  0  0
  3 87  1  0  0  0
  3 88  1  0  0  0
  4  5  1  0  0  0
  4 89  1  0  0  0
  4 90  1  0  0  0
  5  6  1  0  0  0
  5 26  1  0  0  0
  5 91  1  0  0  0
  6 25  1  0  0  0
  6 92  1  0  0  0
  6 93  1  0  0  0
  7  8  2  0  0  0
  7 26  1  0  0  0
  7 29  1  0  0  0
  8  9  1  0  0  0
  8 22  1  0  0  0
  9 10  1  0  0  0
  9 27  2  0  0  0
 10 11  2  0  0  0
 10 15  1  0  0  0
 11 12  1  0  0  0
 11 94  1  0  0  0
 12 13  2  0  0  0
 12 95  1  0  0  0
 13 14  1  0  0  0
 13 31  1  0  0  0
 14 15  2  0  0  0
 14 96  1  0  0  0
 15 97  1  0  0  0
 16 17  2  0  0  0
 16 21  1  0  0  0
 16 31  1  0  0  0
 17 18  1  0  0  0
 17 98  1  0  0  0
 18 19  2  0  0  0
 18 99  1  0  0  0
 19 20  1  0  0  0
 19 24  1  0  0  0
 20 21  2  0  0  0
 20100  1  0  0  0
 21 23  1  0  0  0
 22 28  1  0  0  0
 22 32  2  0  0  0
 26 27  1  0  0  0
 28101  1  0  0  0
 28102  1  0  0  0
 29103  1  0  0  0
 29104  1  0  0  0
 33 34  1  0  0  0
 33 66  1  0  0  0
 33 70  2  0  0  0
 34 36  1  0  0  0
 34 59  1  0  0  0
 34105  1  0  0  0
 35 44  2  0  0  0
 35 45  1  0  0  0
 35 68  1  0  0  0
 36 56  1  0  0  0
 36106  1  0  0  0
 37 39  1  0  0  0
 37 47  1  0  0  0
 37 66  1  0  0  0
 37107  1  0  0  0
 38 43  2  0  0  0
 38 46  1  0  0  0
 38 47  1  0  0  0
 39 64  1  0  0  0
 39 67  2  0  0  0
 40 52  1  0  0  0
 40 53  2  0  0  0
 40 58  1  0  0  0
 41108  1  0  0  0
 41109  1  0  0  0
 41110  1  0  0  0
 41 48  1  0  0  0
 42 43  1  0  0  0
 42 66  1  0  0  0
 42111  1  0  0  0
 42112  1  0  0  0
 43 44  1  0  0  0
 44113  1  0  0  0
 45 46  2  0  0  0
 45114  1  0  0  0
 46115  1  0  0  0
 47116  1  0  0  0
 47117  1  0  0  0
 48 56  1  0  0  0
 48 65  1  0  0  0
 48118  1  0  0  0
 49 50  1  0  0  0
 49 53  1  0  0  0
 49 64  1  0  0  0
 49119  1  0  0  0
 50 51  1  0  0  0
 50120  1  0  0  0
 50121  1  0  0  0
 51 52  1  0  0  0
 51122  1  0  0  0
 51123  1  0  0  0
 52124  1  0  0  0
 52125  1  0  0  0
 53 54  1  0  0  0
 54 55  2  0  0  0
 54126  1  0  0  0
 55 57  1  0  0  0
 55127  1  0  0  0
 56 69  2  0  0  0
 57 58  2  0  0  0
 57128  1  0  0  0
 58129  1  0  0  0
 59 60  1  0  0  0
 59 61  1  0  0  0
 59 62  1  0  0  0
 60130  1  0  0  0
 60131  1  0  0  0
 60132  1  0  0  0
 61133  1  0  0  0
 61134  1  0  0  0
 61135  1  0  0  0
 62136  1  0  0  0
 62137  1  0  0  0
 62138  1  0  0  0
 63 65  1  0  0  0
 63139  1  0  0  0
 63140  1  0  0  0
 63141  1  0  0  0
 64142  1  0  0  0
 65143  1  0  0  0
 68 79  1  0  0  0
 71 72  2  0  0  0
 71 80  1  0  0  0
 71144  1  0  0  0
 72 73  1  0  0  0
 72 84  1  0  0  0
 73 79  1  0  0  0
 73 81  2  0  0  0
 74 80  2  0  0  0
 74 81  1  0  0  0
 74 83  1  0  0  0
 75 76  1  0  0  0
 75 78  1  0  0  0
 75145  1  0  0  0
 75146  1  0  0  0
 76 82  1  0  0  0
 76147  1  0  0  0
 76148  1  0  0  0
 77 78  1  0  0  0
 77 82  1  0  0  0
 77149  1  0  0  0
 77150  1  0  0  0
 78 83  1  0  0  0
 78151  1  0  0  0
 79152  1  0  0  0
 79153  1  0  0  0
 83154  1  0  0  0
M  ISO  4   1 100  68 101  79 101  82 100
M  END
> <chiral flag>
0

> <version>
0

> <s_m_source_file>
/data/baiqing/PycharmProjects/Reinvent-master-3.2/result/LINK_invent/BTK/process_docking_weight1_custom_sum_contain_oxygen_bond_distance_aromatic_linkinvent_7_9_3/rearranged_h_0187.sdf

> <i_m_source_file_index>
4

> <r_mmod_Potential_Energy-OPLS-2005>
43.8141021728516

> <r_mmod_Stretch_Energy-OPLS-2005>
167.02604675293

> <r_mmod_Bend_Energy-OPLS-2005>
297.538055419922

> <r_mmod_Torsional_Energy-OPLS-2005>
299.399383544922

> <r_mmod_Improper_Torsional_Energy-OPLS-2005>
9.83153438568115

> <r_mmod_Van_der_Waal_Energy-OPLS-2005>
151.566116333008

> <r_mmod_Electrostatic_Energy-OPLS-2005>
-764.496276855469

> <r_mmod_Solvation_Energy-OPLS-2005>
-236.387939453125

> <b_mmod_Minimization_Converged-OPLS-2005>
0

> <r_mmod_RMS_Derivative-OPLS-2005>
3.19480443000793

$$$$
4
                    3D
 Structure written by MMmdl.
152161  0  0  1  0            999 V2000
  -30.4821  -15.1647   20.3855 C   0  0  0  0  0  0
  -30.4372  -12.7378   19.5163 C   0  0  0  0  0  0
  -29.5291  -12.5589   18.2761 C   0  0  0  0  0  0
  -28.0738  -12.3034   18.7043 C   0  0  0  0  0  0
  -27.6169  -13.2691   19.8270 C   0  0  2  0  0  0
  -28.6540  -13.4065   20.9612 C   0  0  0  0  0  0
  -25.2420  -13.8245   20.5746 C   0  0  0  0  0  0
  -24.1755  -13.0443   20.9239 C   0  0  0  0  0  0
  -24.6397  -11.6936   20.8754 C   0  0  0  0  0  0
  -23.9090  -10.4297   21.0406 C   0  0  0  0  0  0
  -24.3634   -9.4210   21.9184 C   0  0  0  0  0  0
  -23.6302   -8.2248   22.0755 C   0  0  0  0  0  0
  -22.4285   -8.0286   21.3547 C   0  0  0  0  0  0
  -21.9926   -9.0260   20.4648 C   0  0  0  0  0  0
  -22.7261  -10.2136   20.3055 C   0  0  0  0  0  0
  -21.6858   -6.0738   22.5278 C   0  0  0  0  0  0
  -21.4017   -6.5639   23.8210 C   0  0  0  0  0  0
  -21.3659   -5.6792   24.9172 C   0  0  0  0  0  0
  -21.6047   -4.3055   24.7224 C   0  0  0  0  0  0
  -21.8819   -3.8148   23.4344 C   0  0  0  0  0  0
  -21.9195   -4.6965   22.3401 C   0  0  0  0  0  0
  -22.7774  -13.5203   21.1888 C   0  0  0  0  0  0
  -22.1663   -4.2149   21.0978 F   0  0  0  0  0  0
  -21.5628   -3.4538   25.7736 F   0  0  0  0  0  0
  -29.8987  -13.8771   20.3378 N   0  0  0  0  0  0
  -26.2842  -12.9509   20.3238 N   0  0  0  0  0  0
  -25.9336  -11.6619   20.5732 N   0  0  0  0  0  0
  -22.0430  -12.8184   22.0442 N   0  0  0  0  0  0
  -25.4089  -15.1975   20.4201 N   0  0  0  0  0  0
  -31.6998  -15.1690   20.1573 O   0  0  0  0  0  0
  -21.6647   -6.8885   21.4242 O   0  0  0  0  0  0
  -22.3452  -14.5505   20.6732 O   0  0  0  0  0  0
  -24.6580  -31.8303   23.1763 C   0  0  0  0  0  0
  -25.9285  -32.4626   23.8204 C   0  0  1  0  0  0
  -27.2135  -26.9840   20.1726 C   0  0  0  0  0  0
  -25.5975  -33.8435   24.2114 N   0  0  0  0  0  0
  -23.4696  -30.4455   21.5248 C   0  0  2  0  0  0
  -24.9216  -28.8470   20.1116 C   0  0  0  0  0  0
  -22.7642  -29.4479   22.4800 C   0  0  0  0  0  0
  -18.0319  -28.1411   22.8473 C   0  0  0  0  0  0
  -24.1488  -36.7214   23.2644 C   0  0  0  0  0  0
  -26.0364  -30.6557   21.3979 C   0  0  0  0  0  0
  -26.1056  -29.2516   20.7412 C   0  0  0  0  0  0
  -27.2492  -28.3405   20.7492 C   0  0  0  0  0  0
  -26.0006  -26.7241   19.4941 C   0  0  0  0  0  0
  -24.8912  -27.6019   19.4685 C   0  0  0  0  0  0
  -23.7060  -29.7681   20.1485 C   0  0  0  0  0  0
  -25.4126  -36.2986   24.0305 C   0  0  1  0  0  0
  -20.5943  -28.3752   23.1201 C   0  0  2  0  0  0
  -20.6797  -26.9440   22.5401 C   0  0  0  0  0  0
  -19.5768  -26.6388   21.5214 C   0  0  0  0  0  0
  -18.1951  -26.7948   22.1626 C   0  0  0  0  0  0
  -19.1580  -28.8900   23.2827 C   0  0  0  0  0  0
  -18.9489  -30.1491   23.8860 C   0  0  0  0  0  0
  -17.6484  -30.6602   24.0561 C   0  0  0  0  0  0
  -25.9091  -34.9368   23.5025 C   0  0  0  0  0  0
  -16.5374  -29.9092   23.6348 C   0  0  0  0  0  0
  -16.7302  -28.6511   23.0366 C   0  0  0  0  0  0
  -26.4556  -31.6546   25.0703 C   0  0  0  0  0  0
  -25.3697  -31.3778   26.1367 C   0  0  0  0  0  0
  -27.0446  -30.2924   24.6386 C   0  0  0  0  0  0
  -27.6059  -32.4338   25.7504 C   0  0  0  0  0  0
  -27.5565  -37.1767   24.8468 C   0  0  0  0  0  0
  -21.4316  -29.3051   22.3554 N   0  0  0  0  0  0
  -26.4274  -37.3718   23.9409 N   0  0  0  0  0  0
  -24.7424  -31.0022   22.0871 N   0  0  0  0  0  0
  -23.4212  -28.8040   23.3017 O   0  0  0  0  0  0
  -28.2088  -25.8892   20.2494 O   0  0  0  0  0  0
  -26.5690  -34.8893   22.4614 O   0  0  0  0  0  0
  -23.5665  -32.1243   23.6894 O   0  0  0  0  0  0
  -30.0776  -22.4865   20.2722 C   0  0  0  0  0  0
  -30.3484  -21.1098   20.3396 C   0  0  0  0  0  0
  -28.2076  -21.4328   20.3078 C   0  0  0  0  0  0
  -28.6699  -22.8064   20.2478 C   0  0  0  0  0  0
  -29.6205  -17.5713   19.4404 C   0  0  0  0  0  0
  -30.0190  -17.6790   21.3339 C   0  0  0  0  0  0
  -29.0759  -18.6920   20.4822 C   0  0  0  0  0  0
  -27.5928  -18.4923   20.8172 C   0  0  0  0  0  0
  -27.8205  -24.3228   20.0934 C   0  0  0  0  0  0
  -29.1944  -20.3217   20.3799 N   0  0  0  0  0  0
  -29.7318  -16.4275   20.4748 N   0  0  0  0  0  0
  -31.4621  -12.9208   19.1910 H   0  0  0  0  0  0
  -30.4760  -11.8197   20.1044 H   0  0  0  0  0  0
  -29.8884  -11.7369   17.6550 H   0  0  0  0  0  0
  -29.5765  -13.4559   17.6570 H   0  0  0  0  0  0
  -28.0136  -11.2744   19.0610 H   0  0  0  0  0  0
  -27.4047  -12.3690   17.8455 H   0  0  0  0  0  0
  -27.5459  -14.2464   19.3478 H   0  0  0  0  0  0
  -28.7966  -12.4647   21.4927 H   0  0  0  0  0  0
  -28.3145  -14.1365   21.6982 H   0  0  0  0  0  0
  -25.2775   -9.5686   22.4765 H   0  0  0  0  0  0
  -24.0008   -7.4641   22.7477 H   0  0  0  0  0  0
  -21.0857   -8.8785   19.8953 H   0  0  0  0  0  0
  -22.3719  -10.9676   19.6165 H   0  0  0  0  0  0
  -21.2009   -7.6147   23.9712 H   0  0  0  0  0  0
  -21.1482   -6.0523   25.9075 H   0  0  0  0  0  0
  -22.0597   -2.7609   23.2843 H   0  0  0  0  0  0
  -22.4062  -11.9848   22.4822 H   0  0  0  0  0  0
  -21.1045  -13.1195   22.2651 H   0  0  0  0  0  0
  -24.6450  -15.8531   20.5417 H   0  0  0  0  0  0
  -26.2686  -15.6374   20.1171 H   0  0  0  0  0  0
  -26.7351  -32.5185   23.0921 H   0  0  0  0  0  0
  -25.0087  -33.9531   25.0242 H   0  0  0  0  0  0
  -22.7799  -31.2762   21.3599 H   0  0  0  0  0  0
  -23.3763  -35.9533   23.3288 H   0  0  0  0  0  0
  -24.3569  -36.8874   22.2063 H   0  0  0  0  0  0
  -23.7236  -37.6395   23.6706 H   0  0  0  0  0  0
  -26.2076  -31.4007   20.6196 H   0  0  0  0  0  0
  -26.9003  -30.7128   22.0481 H   0  0  0  0  0  0
  -28.1447  -28.6471   21.2710 H   0  0  0  0  0  0
  -25.8638  -25.7773   18.9953 H   0  0  0  0  0  0
  -23.9913  -27.2869   18.9578 H   0  0  0  0  0  0
  -23.8568  -30.5391   19.3921 H   0  0  0  0  0  0
  -22.8171  -29.2198   19.8322 H   0  0  0  0  0  0
  -25.1328  -36.1788   25.0798 H   0  0  0  0  0  0
  -21.0037  -28.3348   24.1322 H   0  0  0  0  0  0
  -20.5686  -26.2368   23.3634 H   0  0  0  0  0  0
  -21.6660  -26.7426   22.1203 H   0  0  0  0  0  0
  -19.6924  -25.6290   21.1269 H   0  0  0  0  0  0
  -19.6704  -27.3179   20.6729 H   0  0  0  0  0  0
  -17.4222  -26.6700   21.4026 H   0  0  0  0  0  0
  -18.0341  -26.0098   22.9031 H   0  0  0  0  0  0
  -19.7963  -30.7321   24.2210 H   0  0  0  0  0  0
  -17.5037  -31.6280   24.5171 H   0  0  0  0  0  0
  -15.5374  -30.2981   23.7694 H   0  0  0  0  0  0
  -15.8703  -28.0820   22.7101 H   0  0  0  0  0  0
  -24.5897  -30.7107   25.7682 H   0  0  0  0  0  0
  -24.8860  -32.2971   26.4674 H   0  0  0  0  0  0
  -25.7942  -30.9029   27.0220 H   0  0  0  0  0  0
  -26.3103  -29.6613   24.1367 H   0  0  0  0  0  0
  -27.3983  -29.7270   25.5018 H   0  0  0  0  0  0
  -27.9042  -30.4129   23.9791 H   0  0  0  0  0  0
  -27.2645  -33.3684   26.1964 H   0  0  0  0  0  0
  -28.3935  -32.6820   25.0377 H   0  0  0  0  0  0
  -28.0650  -31.8532   26.5514 H   0  0  0  0  0  0
  -28.2575  -38.0071   24.7512 H   0  0  0  0  0  0
  -28.1070  -36.2599   24.6300 H   0  0  0  0  0  0
  -27.2283  -37.1420   25.8871 H   0  0  0  0  0  0
  -20.9555  -29.8747   21.6700 H   0  0  0  0  0  0
  -26.0124  -38.2777   24.1421 H   0  0  0  0  0  0
  -30.8650  -23.2271   20.2282 H   0  0  0  0  0  0
  -31.3086  -20.6106   20.3680 H   0  0  0  0  0  0
  -27.1676  -21.1363   20.3027 H   0  0  0  0  0  0
  -30.5750  -17.8389   18.9773 H   0  0  0  0  0  0
  -28.9021  -17.3674   18.6456 H   0  0  0  0  0  0
  -29.6863  -17.5803   22.3678 H   0  0  0  0  0  0
  -31.0729  -17.9730   21.3424 H   0  0  0  0  0  0
  -27.3496  -17.4484   21.0128 H   0  0  0  0  0  0
  -26.9498  -18.8137   19.9978 H   0  0  0  0  0  0
  -27.3052  -19.0479   21.7102 H   0  0  0  0  0  0
  -26.9487  -24.1967   20.7362 H   0  0  0  0  0  0
  -27.4251  -24.2512   19.0808 H   0  0  0  0  0  0
  1 25  1  0  0  0
  1 30  2  0  0  0
  1 81  1  0  0  0
  2  3  1  0  0  0
  2 25  1  0  0  0
  2 82  1  0  0  0
  2 83  1  0  0  0
  3  4  1  0  0  0
  3 84  1  0  0  0
  3 85  1  0  0  0
  4  5  1  0  0  0
  4 86  1  0  0  0
  4 87  1  0  0  0
  5  6  1  0  0  0
  5 26  1  0  0  0
  5 88  1  0  0  0
  6 25  1  0  0  0
  6 89  1  0  0  0
  6 90  1  0  0  0
  7  8  2  0  0  0
  7 26  1  0  0  0
  7 29  1  0  0  0
  8  9  1  0  0  0
  8 22  1  0  0  0
  9 10  1  0  0  0
  9 27  2  0  0  0
 10 11  2  0  0  0
 10 15  1  0  0  0
 11 12  1  0  0  0
 11 91  1  0  0  0
 12 13  2  0  0  0
 12 92  1  0  0  0
 13 14  1  0  0  0
 13 31  1  0  0  0
 14 15  2  0  0  0
 14 93  1  0  0  0
 15 94  1  0  0  0
 16 17  2  0  0  0
 16 21  1  0  0  0
 16 31  1  0  0  0
 17 18  1  0  0  0
 17 95  1  0  0  0
 18 19  2  0  0  0
 18 96  1  0  0  0
 19 20  1  0  0  0
 19 24  1  0  0  0
 20 21  2  0  0  0
 20 97  1  0  0  0
 21 23  1  0  0  0
 22 28  1  0  0  0
 22 32  2  0  0  0
 26 27  1  0  0  0
 28 98  1  0  0  0
 28 99  1  0  0  0
 29100  1  0  0  0
 29101  1  0  0  0
 33 34  1  0  0  0
 33 66  1  0  0  0
 33 70  2  0  0  0
 34 36  1  0  0  0
 34 59  1  0  0  0
 34102  1  0  0  0
 35 44  2  0  0  0
 35 45  1  0  0  0
 35 68  1  0  0  0
 36 56  1  0  0  0
 36103  1  0  0  0
 37 39  1  0  0  0
 37 47  1  0  0  0
 37 66  1  0  0  0
 37104  1  0  0  0
 38 43  2  0  0  0
 38 46  1  0  0  0
 38 47  1  0  0  0
 39 64  1  0  0  0
 39 67  2  0  0  0
 40 52  1  0  0  0
 40 53  2  0  0  0
 40 58  1  0  0  0
 41105  1  0  0  0
 41106  1  0  0  0
 41107  1  0  0  0
 41 48  1  0  0  0
 42 43  1  0  0  0
 42 66  1  0  0  0
 42108  1  0  0  0
 42109  1  0  0  0
 43 44  1  0  0  0
 44110  1  0  0  0
 45 46  2  0  0  0
 45111  1  0  0  0
 46112  1  0  0  0
 47113  1  0  0  0
 47114  1  0  0  0
 48 56  1  0  0  0
 48 65  1  0  0  0
 48115  1  0  0  0
 49 50  1  0  0  0
 49 53  1  0  0  0
 49 64  1  0  0  0
 49116  1  0  0  0
 50 51  1  0  0  0
 50117  1  0  0  0
 50118  1  0  0  0
 51 52  1  0  0  0
 51119  1  0  0  0
 51120  1  0  0  0
 52121  1  0  0  0
 52122  1  0  0  0
 53 54  1  0  0  0
 54 55  2  0  0  0
 54123  1  0  0  0
 55 57  1  0  0  0
 55124  1  0  0  0
 56 69  2  0  0  0
 57 58  2  0  0  0
 57125  1  0  0  0
 58126  1  0  0  0
 59 60  1  0  0  0
 59 61  1  0  0  0
 59 62  1  0  0  0
 60127  1  0  0  0
 60128  1  0  0  0
 60129  1  0  0  0
 61130  1  0  0  0
 61131  1  0  0  0
 61132  1  0  0  0
 62133  1  0  0  0
 62134  1  0  0  0
 62135  1  0  0  0
 63 65  1  0  0  0
 63136  1  0  0  0
 63137  1  0  0  0
 63138  1  0  0  0
 64139  1  0  0  0
 65140  1  0  0  0
 68 79  1  0  0  0
 71 72  2  0  0  0
 71 74  1  0  0  0
 71141  1  0  0  0
 72 80  1  0  0  0
 72142  1  0  0  0
 73 74  2  0  0  0
 73 80  1  0  0  0
 73143  1  0  0  0
 74 79  1  0  0  0
 75 77  1  0  0  0
 75 81  1  0  0  0
 75144  1  0  0  0
 75145  1  0  0  0
 76 77  1  0  0  0
 76 81  1  0  0  0
 76146  1  0  0  0
 76147  1  0  0  0
 77 78  1  0  0  0
 77 80  1  0  0  0
 78148  1  0  0  0
 78149  1  0  0  0
 78150  1  0  0  0
 79151  1  0  0  0
 79152  1  0  0  0
M  ISO  4   1 100  68 101  79 101  81 100
M  END
> <chiral flag>
0

> <version>
0

> <s_m_source_file>
/data/baiqing/PycharmProjects/Reinvent-master-3.2/result/LINK_invent/BTK/process_docking_weight1_custom_sum_contain_oxygen_bond_distance_aromatic_linkinvent_7_9_3/rearranged_h_0187.sdf

> <i_m_source_file_index>
5

> <r_mmod_Potential_Energy-OPLS-2005>
1075.27551269531

> <r_mmod_Stretch_Energy-OPLS-2005>
416.606353759766

> <r_mmod_Bend_Energy-OPLS-2005>
375.60498046875

> <r_mmod_Torsional_Energy-OPLS-2005>
316.8896484375

> <r_mmod_Improper_Torsional_Energy-OPLS-2005>
11.8961772918701

> <r_mmod_Van_der_Waal_Energy-OPLS-2005>
112.496078491211

> <r_mmod_Electrostatic_Energy-OPLS-2005>
-324.587524414062

> <r_mmod_Solvation_Energy-OPLS-2005>
-203.269653320312

> <b_mmod_Minimization_Converged-OPLS-2005>
0

> <r_mmod_RMS_Derivative-OPLS-2005>
0.630757033824921

$$$$
5
                    3D
 Structure written by MMmdl.
154163  0  0  1  0            999 V2000
  -30.4850  -15.0988   20.3848 C   0  0  0  0  0  0
  -30.4345  -12.6907   19.5030 C   0  0  0  0  0  0
  -29.5187  -12.5513   18.2637 C   0  0  0  0  0  0
  -28.0600  -12.3117   18.6913 C   0  0  0  0  0  0
  -27.6185  -13.2588   19.8365 C   0  0  2  0  0  0
  -28.6612  -13.3292   20.9718 C   0  0  0  0  0  0
  -25.2341  -13.8210   20.5636 C   0  0  0  0  0  0
  -24.1731  -13.0405   20.9242 C   0  0  0  0  0  0
  -24.6407  -11.6913   20.8795 C   0  0  0  0  0  0
  -23.9124  -10.4275   21.0459 C   0  0  0  0  0  0
  -24.3676   -9.4184   21.9219 C   0  0  0  0  0  0
  -23.6334   -8.2216   22.0770 C   0  0  0  0  0  0
  -22.4299   -8.0295   21.3570 C   0  0  0  0  0  0
  -21.9964   -9.0272   20.4654 C   0  0  0  0  0  0
  -22.7317  -10.2141   20.3081 C   0  0  0  0  0  0
  -21.6852   -6.0763   22.5303 C   0  0  0  0  0  0
  -21.3991   -6.5661   23.8236 C   0  0  0  0  0  0
  -21.3643   -5.6809   24.9193 C   0  0  0  0  0  0
  -21.6046   -4.3068   24.7229 C   0  0  0  0  0  0
  -21.8814   -3.8169   23.4350 C   0  0  0  0  0  0
  -21.9185   -4.6994   22.3406 C   0  0  0  0  0  0
  -22.7742  -13.5158   21.1877 C   0  0  0  0  0  0
  -22.1663   -4.2182   21.0988 F   0  0  0  0  0  0
  -21.5621   -3.4539   25.7741 F   0  0  0  0  0  0
  -29.9039  -13.8128   20.3518 N   0  0  0  0  0  0
  -26.2820  -12.9481   20.3252 N   0  0  0  0  0  0
  -25.9337  -11.6610   20.5801 N   0  0  0  0  0  0
  -22.0427  -12.8143   22.0457 N   0  0  0  0  0  0
  -25.3781  -15.1914   20.3878 N   0  0  0  0  0  0
  -31.6942  -15.1040   20.1027 O   0  0  0  0  0  0
  -21.6647   -6.8909   21.4266 O   0  0  0  0  0  0
  -22.3438  -14.5465   20.6735 O   0  0  0  0  0  0
  -24.6537  -31.8287   23.1740 C   0  0  0  0  0  0
  -25.9237  -32.4619   23.8192 C   0  0  1  0  0  0
  -27.2157  -27.0159   20.1939 C   0  0  0  0  0  0
  -25.5951  -33.8440   24.2137 N   0  0  0  0  0  0
  -23.4610  -30.4439   21.5183 C   0  0  2  0  0  0
  -24.9051  -28.8294   20.1154 C   0  0  0  0  0  0
  -22.7617  -29.4465   22.4795 C   0  0  0  0  0  0
  -18.0322  -28.1391   22.8492 C   0  0  0  0  0  0
  -24.1471  -36.7188   23.2643 C   0  0  0  0  0  0
  -26.0198  -30.6681   21.3792 C   0  0  0  0  0  0
  -26.0842  -29.2607   20.7336 C   0  0  0  0  0  0
  -27.2299  -28.3750   20.7457 C   0  0  0  0  0  0
  -26.0105  -26.6937   19.5350 C   0  0  0  0  0  0
  -24.8854  -27.5615   19.5007 C   0  0  0  0  0  0
  -23.6920  -29.7537   20.1431 C   0  0  0  0  0  0
  -25.4091  -36.2978   24.0343 C   0  0  1  0  0  0
  -20.5940  -28.3684   23.1209 C   0  0  2  0  0  0
  -20.6790  -26.9375   22.5396 C   0  0  0  0  0  0
  -19.5753  -26.6362   21.5218 C   0  0  0  0  0  0
  -18.1946  -26.7929   22.1631 C   0  0  0  0  0  0
  -19.1594  -28.8860   23.2852 C   0  0  0  0  0  0
  -18.9497  -30.1479   23.8836 C   0  0  0  0  0  0
  -17.6498  -30.6582   24.0554 C   0  0  0  0  0  0
  -25.9074  -34.9364   23.5053 C   0  0  0  0  0  0
  -16.5373  -29.9065   23.6348 C   0  0  0  0  0  0
  -16.7318  -28.6499   23.0371 C   0  0  0  0  0  0
  -26.4516  -31.6552   25.0676 C   0  0  0  0  0  0
  -25.3700  -31.3803   26.1392 C   0  0  0  0  0  0
  -27.0354  -30.2934   24.6291 C   0  0  0  0  0  0
  -27.6044  -32.4336   25.7426 C   0  0  0  0  0  0
  -27.5544  -37.1751   24.8476 C   0  0  0  0  0  0
  -21.4291  -29.3027   22.3563 N   0  0  0  0  0  0
  -26.4222  -37.3713   23.9455 N   0  0  0  0  0  0
  -24.7325  -31.0062   22.0787 N   0  0  0  0  0  0
  -23.4253  -28.8043   23.2991 O   0  0  0  0  0  0
  -28.3293  -26.0706   20.2306 O   0  0  0  0  0  0
  -26.5630  -34.8907   22.4627 O   0  0  0  0  0  0
  -23.5627  -32.1197   23.6914 O   0  0  0  0  0  0
  -28.0506  -18.1752   20.9851 C   0  0  0  0  0  0
  -28.5445  -16.6823   21.2128 C   0  0  0  0  0  0
  -30.0665  -17.8294   19.9008 C   0  0  0  0  0  0
  -28.9719  -23.3504   19.3071 C   0  0  0  0  0  0
  -27.8095  -23.1356   20.9169 C   0  0  0  0  0  0
  -29.2129  -19.1225   20.5712 C   0  0  1  0  0  0
  -28.5458  -24.4680   20.3685 C   0  0  2  0  0  0
  -28.7216  -20.6445   19.8327 C   0  0  0  0  0  0
  -29.7461  -16.3660   20.4160 N   0  0  0  0  0  0
  -28.8939  -22.1923   20.3265 N   0  3  1  0  0  0
  -31.4589  -12.8693   19.1702 H   0  0  0  0  0  0
  -30.4744  -11.7570   20.0659 H   0  0  0  0  0  0
  -29.8604  -11.7361   17.6231 H   0  0  0  0  0  0
  -29.5762  -13.4647   17.6695 H   0  0  0  0  0  0
  -27.9790  -11.2752   19.0191 H   0  0  0  0  0  0
  -27.3902  -12.4136   17.8379 H   0  0  0  0  0  0
  -27.5623  -14.2475   19.3812 H   0  0  0  0  0  0
  -28.7966  -12.3552   21.4444 H   0  0  0  0  0  0
  -28.3363  -14.0015   21.7642 H   0  0  0  0  0  0
  -25.2832   -9.5623   22.4788 H   0  0  0  0  0  0
  -24.0029   -7.4599   22.7494 H   0  0  0  0  0  0
  -21.0889   -8.8826   19.8963 H   0  0  0  0  0  0
  -22.3822  -10.9687   19.6176 H   0  0  0  0  0  0
  -21.1979   -7.6174   23.9748 H   0  0  0  0  0  0
  -21.1454   -6.0537   25.9104 H   0  0  0  0  0  0
  -22.0592   -2.7629   23.2834 H   0  0  0  0  0  0
  -22.4080  -11.9768   22.4756 H   0  0  0  0  0  0
  -21.1045  -13.1148   22.2720 H   0  0  0  0  0  0
  -24.5942  -15.8234   20.5053 H   0  0  0  0  0  0
  -26.2069  -15.6432   20.0272 H   0  0  0  0  0  0
  -26.7268  -32.5160   23.0880 H   0  0  0  0  0  0
  -25.0217  -33.9573   25.0366 H   0  0  0  0  0  0
  -22.7701  -31.2720   21.3483 H   0  0  0  0  0  0
  -23.3775  -35.9469   23.3272 H   0  0  0  0  0  0
  -24.3599  -36.8871   22.2070 H   0  0  0  0  0  0
  -23.7185  -37.6363   23.6695 H   0  0  0  0  0  0
  -26.1840  -31.4063   20.5932 H   0  0  0  0  0  0
  -26.8854  -30.7194   22.0297 H   0  0  0  0  0  0
  -28.1312  -28.7155   21.2393 H   0  0  0  0  0  0
  -25.9216  -25.7289   19.0568 H   0  0  0  0  0  0
  -23.9842  -27.2272   19.0037 H   0  0  0  0  0  0
  -23.8503  -30.5176   19.3800 H   0  0  0  0  0  0
  -22.7999  -29.2070   19.8327 H   0  0  0  0  0  0
  -25.1320  -36.1751   25.0836 H   0  0  0  0  0  0
  -21.0083  -28.3241   24.1311 H   0  0  0  0  0  0
  -20.5625  -26.2322   23.3639 H   0  0  0  0  0  0
  -21.6657  -26.7368   22.1197 H   0  0  0  0  0  0
  -19.6916  -25.6280   21.1244 H   0  0  0  0  0  0
  -19.6690  -27.3148   20.6741 H   0  0  0  0  0  0
  -17.4238  -26.6727   21.4017 H   0  0  0  0  0  0
  -18.0326  -26.0068   22.9024 H   0  0  0  0  0  0
  -19.7999  -30.7333   24.2163 H   0  0  0  0  0  0
  -17.5054  -31.6258   24.5163 H   0  0  0  0  0  0
  -15.5363  -30.2960   23.7690 H   0  0  0  0  0  0
  -15.8751  -28.0816   22.7062 H   0  0  0  0  0  0
  -24.5870  -30.7138   25.7759 H   0  0  0  0  0  0
  -24.8868  -32.2991   26.4690 H   0  0  0  0  0  0
  -25.7976  -30.9086   27.0240 H   0  0  0  0  0  0
  -26.2954  -29.6648   24.1290 H   0  0  0  0  0  0
  -27.3952  -29.7266   25.4878 H   0  0  0  0  0  0
  -27.8898  -30.4204   23.9642 H   0  0  0  0  0  0
  -27.2711  -33.3789   26.1714 H   0  0  0  0  0  0
  -28.3952  -32.6618   25.0281 H   0  0  0  0  0  0
  -28.0521  -31.8599   26.5554 H   0  0  0  0  0  0
  -28.2544  -38.0058   24.7560 H   0  0  0  0  0  0
  -28.1085  -36.2622   24.6258 H   0  0  0  0  0  0
  -27.2334  -37.1337   25.8894 H   0  0  0  0  0  0
  -20.9463  -29.8806   21.6798 H   0  0  0  0  0  0
  -26.0097  -38.2782   24.1478 H   0  0  0  0  0  0
  -27.5235  -18.5477   21.8640 H   0  0  0  0  0  0
  -27.3108  -18.1570   20.1810 H   0  0  0  0  0  0
  -27.7434  -15.9957   20.9565 H   0  0  0  0  0  0
  -28.7744  -16.5136   22.2668 H   0  0  0  0  0  0
  -31.1419  -18.0060   19.9824 H   0  0  0  0  0  0
  -29.8652  -17.8114   18.8265 H   0  0  0  0  0  0
  -29.9697  -23.4826   18.8867 H   0  0  0  0  0  0
  -28.2436  -23.2537   18.4935 H   0  0  0  0  0  0
  -26.8254  -22.9668   20.4753 H   0  0  0  0  0  0
  -27.7417  -23.0690   22.0081 H   0  0  0  0  0  0
  -29.7433  -19.3868   21.4865 H   0  0  0  0  0  0
  -29.4247  -24.5448   21.0156 H   0  0  0  0  0  0
  -27.6727  -20.5473   19.5623 H   0  0  0  0  0  0
  -29.2223  -20.6321   18.8645 H   0  0  0  0  0  0
  -29.7195  -22.2417   20.9038 H   0  0  0  0  0  0
  1 25  1  0  0  0
  1 30  2  0  0  0
  1 79  1  0  0  0
  2  3  1  0  0  0
  2 25  1  0  0  0
  2 81  1  0  0  0
  2 82  1  0  0  0
  3  4  1  0  0  0
  3 83  1  0  0  0
  3 84  1  0  0  0
  4  5  1  0  0  0
  4 85  1  0  0  0
  4 86  1  0  0  0
  5  6  1  0  0  0
  5 26  1  0  0  0
  5 87  1  0  0  0
  6 25  1  0  0  0
  6 88  1  0  0  0
  6 89  1  0  0  0
  7  8  2  0  0  0
  7 26  1  0  0  0
  7 29  1  0  0  0
  8  9  1  0  0  0
  8 22  1  0  0  0
  9 10  1  0  0  0
  9 27  2  0  0  0
 10 11  2  0  0  0
 10 15  1  0  0  0
 11 12  1  0  0  0
 11 90  1  0  0  0
 12 13  2  0  0  0
 12 91  1  0  0  0
 13 14  1  0  0  0
 13 31  1  0  0  0
 14 15  2  0  0  0
 14 92  1  0  0  0
 15 93  1  0  0  0
 16 17  2  0  0  0
 16 21  1  0  0  0
 16 31  1  0  0  0
 17 18  1  0  0  0
 17 94  1  0  0  0
 18 19  2  0  0  0
 18 95  1  0  0  0
 19 20  1  0  0  0
 19 24  1  0  0  0
 20 21  2  0  0  0
 20 96  1  0  0  0
 21 23  1  0  0  0
 22 28  1  0  0  0
 22 32  2  0  0  0
 26 27  1  0  0  0
 28 97  1  0  0  0
 28 98  1  0  0  0
 29 99  1  0  0  0
 29100  1  0  0  0
 33 34  1  0  0  0
 33 66  1  0  0  0
 33 70  2  0  0  0
 34 36  1  0  0  0
 34 59  1  0  0  0
 34101  1  0  0  0
 35 44  2  0  0  0
 35 45  1  0  0  0
 35 68  1  0  0  0
 36 56  1  0  0  0
 36102  1  0  0  0
 37 39  1  0  0  0
 37 47  1  0  0  0
 37 66  1  0  0  0
 37103  1  0  0  0
 38 43  2  0  0  0
 38 46  1  0  0  0
 38 47  1  0  0  0
 39 64  1  0  0  0
 39 67  2  0  0  0
 40 52  1  0  0  0
 40 53  2  0  0  0
 40 58  1  0  0  0
 41104  1  0  0  0
 41105  1  0  0  0
 41106  1  0  0  0
 41 48  1  0  0  0
 42 43  1  0  0  0
 42 66  1  0  0  0
 42107  1  0  0  0
 42108  1  0  0  0
 43 44  1  0  0  0
 44109  1  0  0  0
 45 46  2  0  0  0
 45110  1  0  0  0
 46111  1  0  0  0
 47112  1  0  0  0
 47113  1  0  0  0
 48 56  1  0  0  0
 48 65  1  0  0  0
 48114  1  0  0  0
 49 50  1  0  0  0
 49 53  1  0  0  0
 49 64  1  0  0  0
 49115  1  0  0  0
 50 51  1  0  0  0
 50116  1  0  0  0
 50117  1  0  0  0
 51 52  1  0  0  0
 51118  1  0  0  0
 51119  1  0  0  0
 52120  1  0  0  0
 52121  1  0  0  0
 53 54  1  0  0  0
 54 55  2  0  0  0
 54122  1  0  0  0
 55 57  1  0  0  0
 55123  1  0  0  0
 56 69  2  0  0  0
 57 58  2  0  0  0
 57124  1  0  0  0
 58125  1  0  0  0
 59 60  1  0  0  0
 59 61  1  0  0  0
 59 62  1  0  0  0
 60126  1  0  0  0
 60127  1  0  0  0
 60128  1  0  0  0
 61129  1  0  0  0
 61130  1  0  0  0
 61131  1  0  0  0
 62132  1  0  0  0
 62133  1  0  0  0
 62134  1  0  0  0
 63 65  1  0  0  0
 63135  1  0  0  0
 63136  1  0  0  0
 63137  1  0  0  0
 64138  1  0  0  0
 65139  1  0  0  0
 68 77  1  0  0  0
 71 72  1  0  0  0
 71 76  1  0  0  0
 71140  1  0  0  0
 71141  1  0  0  0
 72 79  1  0  0  0
 72142  1  0  0  0
 72143  1  0  0  0
 73 76  1  0  0  0
 73 79  1  0  0  0
 73144  1  0  0  0
 73145  1  0  0  0
 74 77  1  0  0  0
 74 80  1  0  0  0
 74146  1  0  0  0
 74147  1  0  0  0
 75 77  1  0  0  0
 75 80  1  0  0  0
 75148  1  0  0  0
 75149  1  0  0  0
 76 78  1  0  0  0
 76150  1  0  0  0
 77151  1  0  0  0
 78152  1  0  0  0
 78153  1  0  0  0
 78 80  1  0  0  0
 80154  1  0  0  0
M  CHG  1  80   1
M  ISO  4   1 100  68 101  77 101  79 100
M  END
> <chiral flag>
0

> <version>
0

> <s_m_source_file>
/data/baiqing/PycharmProjects/Reinvent-master-3.2/result/LINK_invent/BTK/process_docking_weight1_custom_sum_contain_oxygen_bond_distance_aromatic_linkinvent_7_9_3/rearranged_h_0187.sdf

> <i_m_source_file_index>
6

> <r_mmod_Potential_Energy-OPLS-2005>
982.982727050781

> <r_mmod_Stretch_Energy-OPLS-2005>
381.643157958984

> <r_mmod_Bend_Energy-OPLS-2005>
522.083190917969

> <r_mmod_Torsional_Energy-OPLS-2005>
341.507232666016

> <r_mmod_Improper_Torsional_Energy-OPLS-2005>
8.13842296600342

> <r_mmod_Van_der_Waal_Energy-OPLS-2005>
108.710823059082

> <r_mmod_Electrostatic_Energy-OPLS-2005>
-194.368698120117

> <r_mmod_Solvation_Energy-OPLS-2005>
-478.925933837891

> <b_mmod_Minimization_Converged-OPLS-2005>
0

> <r_mmod_RMS_Derivative-OPLS-2005>
4.89435148239136

$$$$
6
                    3D
 Structure written by MMmdl.
154163  0  0  1  0            999 V2000
  -30.6813  -14.8325   20.4433 C   0  0  0  0  0  0
  -30.4069  -12.5257   19.4866 C   0  0  0  0  0  0
  -29.4981  -12.4938   18.2425 C   0  0  0  0  0  0
  -28.0370  -12.2807   18.6706 C   0  0  0  0  0  0
  -27.6197  -13.2276   19.8232 C   0  0  2  0  0  0
  -28.6668  -13.2951   20.9605 C   0  0  0  0  0  0
  -25.2442  -13.8166   20.5706 C   0  0  0  0  0  0
  -24.1754  -13.0415   20.9247 C   0  0  0  0  0  0
  -24.6353  -11.6897   20.8784 C   0  0  0  0  0  0
  -23.9043  -10.4278   21.0430 C   0  0  0  0  0  0
  -24.3605   -9.4193   21.9198 C   0  0  0  0  0  0
  -23.6285   -8.2226   22.0757 C   0  0  0  0  0  0
  -22.4268   -8.0269   21.3545 C   0  0  0  0  0  0
  -21.9901   -9.0242   20.4649 C   0  0  0  0  0  0
  -22.7224  -10.2123   20.3067 C   0  0  0  0  0  0
  -21.6848   -6.0728   22.5279 C   0  0  0  0  0  0
  -21.4011   -6.5635   23.8211 C   0  0  0  0  0  0
  -21.3658   -5.6790   24.9174 C   0  0  0  0  0  0
  -21.6044   -4.3052   24.7227 C   0  0  0  0  0  0
  -21.8819   -3.8143   23.4349 C   0  0  0  0  0  0
  -21.9191   -4.6957   22.3403 C   0  0  0  0  0  0
  -22.7781  -13.5205   21.1895 C   0  0  0  0  0  0
  -22.1661   -4.2143   21.0981 F   0  0  0  0  0  0
  -21.5630   -3.4537   25.7740 F   0  0  0  0  0  0
  -29.9504  -13.6548   20.3481 N   0  0  0  0  0  0
  -26.2832  -12.9359   20.3218 N   0  0  0  0  0  0
  -25.9272  -11.6515   20.5767 N   0  0  0  0  0  0
  -22.0428  -12.8199   22.0451 N   0  0  0  0  0  0
  -25.4099  -15.1887   20.4102 N   0  0  0  0  0  0
  -31.8872  -14.7435   20.1924 O   0  0  0  0  0  0
  -21.6633   -6.8867   21.4239 O   0  0  0  0  0  0
  -22.3474  -14.5510   20.6732 O   0  0  0  0  0  0
  -24.6357  -31.8513   23.1950 C   0  0  0  0  0  0
  -25.9164  -32.4731   23.8309 C   0  0  1  0  0  0
  -27.2170  -27.2173   20.1241 C   0  0  0  0  0  0
  -25.5942  -33.8535   24.2229 N   0  0  0  0  0  0
  -23.4340  -30.4742   21.5392 C   0  0  2  0  0  0
  -24.8802  -28.9171   20.1060 C   0  0  0  0  0  0
  -22.7525  -29.4583   22.4888 C   0  0  0  0  0  0
  -18.0297  -28.1390   22.8482 C   0  0  0  0  0  0
  -24.1491  -36.7272   23.2641 C   0  0  0  0  0  0
  -25.9842  -30.7498   21.3817 C   0  0  0  0  0  0
  -26.0539  -29.3698   20.7200 C   0  0  0  0  0  0
  -27.2202  -28.5314   20.7205 C   0  0  0  0  0  0
  -26.0097  -26.8395   19.4923 C   0  0  0  0  0  0
  -24.8660  -27.6618   19.4824 C   0  0  0  0  0  0
  -23.6538  -29.8095   20.1550 C   0  0  0  0  0  0
  -25.4120  -36.3055   24.0321 C   0  0  1  0  0  0
  -20.5904  -28.3706   23.1256 C   0  0  2  0  0  0
  -20.6783  -26.9418   22.5406 C   0  0  0  0  0  0
  -19.5757  -26.6382   21.5211 C   0  0  0  0  0  0
  -18.1938  -26.7930   22.1624 C   0  0  0  0  0  0
  -19.1552  -28.8865   23.2862 C   0  0  0  0  0  0
  -18.9471  -30.1464   23.8884 C   0  0  0  0  0  0
  -17.6469  -30.6588   24.0561 C   0  0  0  0  0  0
  -25.9065  -34.9427   23.5080 C   0  0  0  0  0  0
  -16.5360  -29.9084   23.6333 C   0  0  0  0  0  0
  -16.7283  -28.6502   23.0354 C   0  0  0  0  0  0
  -26.4513  -31.6575   25.0720 C   0  0  0  0  0  0
  -25.3719  -31.3741   26.1430 C   0  0  0  0  0  0
  -27.0371  -30.2983   24.6249 C   0  0  0  0  0  0
  -27.6054  -32.4330   25.7500 C   0  0  0  0  0  0
  -27.5577  -37.1793   24.8466 C   0  0  0  0  0  0
  -21.4227  -29.3045   22.3636 N   0  0  0  0  0  0
  -26.4290  -37.3759   23.9406 N   0  0  0  0  0  0
  -24.7040  -31.0442   22.0944 N   0  0  0  0  0  0
  -23.4207  -28.8125   23.3003 O   0  0  0  0  0  0
  -28.3013  -26.2971   20.2295 O   0  0  0  0  0  0
  -26.5643  -34.8911   22.4654 O   0  0  0  0  0  0
  -23.5496  -32.1355   23.7221 O   0  0  0  0  0  0
  -27.6970  -22.4492   19.6512 C   0  0  0  0  0  0
  -29.7512  -22.9671   20.6085 C   0  0  0  0  0  0
  -28.5835  -23.5047   20.0027 C   0  0  0  0  0  0
  -29.0881  -20.7088   20.3955 C   0  0  0  0  0  0
  -30.5932  -18.7161   21.1372 C   0  0  0  0  0  0
  -28.4943  -18.1658   20.0736 C   0  0  0  0  0  0
  -31.0866  -17.3226   20.5506 C   0  0  0  0  0  0
  -28.7624  -16.6927   20.6757 C   0  0  0  0  0  0
  -28.4033  -25.0107   19.4347 C   0  0  0  0  0  0
  -27.9410  -21.1065   19.8399 N   0  0  0  0  0  0
  -29.9856  -21.6186   20.8005 N   0  0  0  0  0  0
  -29.3731  -19.2791   20.5261 N   0  0  0  0  0  0
  -30.1519  -16.1442   20.5917 N   0  0  0  0  0  0
  -31.4470  -12.6174   19.1706 H   0  0  0  0  0  0
  -30.3517  -11.5815   20.0311 H   0  0  0  0  0  0
  -29.8091  -11.6974   17.5650 H   0  0  0  0  0  0
  -29.5927  -13.4279   17.6865 H   0  0  0  0  0  0
  -27.9373  -11.2430   18.9912 H   0  0  0  0  0  0
  -27.3687  -12.4010   17.8171 H   0  0  0  0  0  0
  -27.5633  -14.1985   19.3411 H   0  0  0  0  0  0
  -28.7396  -12.3411   21.4846 H   0  0  0  0  0  0
  -28.3784  -14.0367   21.7066 H   0  0  0  0  0  0
  -25.2748   -9.5671   22.4775 H   0  0  0  0  0  0
  -23.9995   -7.4614   22.7472 H   0  0  0  0  0  0
  -21.0834   -8.8759   19.8952 H   0  0  0  0  0  0
  -22.3683  -10.9666   19.6180 H   0  0  0  0  0  0
  -21.2002   -7.6143   23.9712 H   0  0  0  0  0  0
  -21.1481   -6.0522   25.9077 H   0  0  0  0  0  0
  -22.0601   -2.7605   23.2850 H   0  0  0  0  0  0
  -22.4048  -11.9865   22.4844 H   0  0  0  0  0  0
  -21.1045  -13.1223   22.2655 H   0  0  0  0  0  0
  -24.6392  -15.8382   20.5231 H   0  0  0  0  0  0
  -26.2509  -15.6283   20.0636 H   0  0  0  0  0  0
  -26.7228  -32.5360   23.1041 H   0  0  0  0  0  0
  -25.0075  -33.9663   25.0365 H   0  0  0  0  0  0
  -22.7325  -31.2980   21.3922 H   0  0  0  0  0  0
  -23.3755  -35.9603   23.3299 H   0  0  0  0  0  0
  -24.3577  -36.8905   22.2056 H   0  0  0  0  0  0
  -23.7244  -37.6470   23.6675 H   0  0  0  0  0  0
  -26.1317  -31.5101   20.6135 H   0  0  0  0  0  0
  -26.8583  -30.7955   22.0197 H   0  0  0  0  0  0
  -28.1151  -28.8711   21.2231 H   0  0  0  0  0  0
  -25.8852  -25.8689   19.0413 H   0  0  0  0  0  0
  -23.9625  -27.3038   19.0079 H   0  0  0  0  0  0
  -23.7824  -30.5867   19.4008 H   0  0  0  0  0  0
  -22.7702  -29.2473   19.8474 H   0  0  0  0  0  0
  -25.1306  -36.1893   25.0814 H   0  0  0  0  0  0
  -20.9998  -28.3290   24.1376 H   0  0  0  0  0  0
  -20.5679  -26.2318   23.3617 H   0  0  0  0  0  0
  -21.6650  -26.7434   22.1203 H   0  0  0  0  0  0
  -19.6918  -25.6289   21.1249 H   0  0  0  0  0  0
  -19.6693  -27.3185   20.6736 H   0  0  0  0  0  0
  -17.4207  -26.6674   21.4029 H   0  0  0  0  0  0
  -18.0340  -26.0075   22.9025 H   0  0  0  0  0  0
  -19.7946  -30.7283   24.2249 H   0  0  0  0  0  0
  -17.5022  -31.6267   24.5165 H   0  0  0  0  0  0
  -15.5360  -30.2981   23.7664 H   0  0  0  0  0  0
  -15.8683  -28.0816   22.7077 H   0  0  0  0  0  0
  -24.5900  -30.7085   25.7754 H   0  0  0  0  0  0
  -24.8905  -32.2916   26.4824 H   0  0  0  0  0  0
  -25.8021  -30.8937   27.0226 H   0  0  0  0  0  0
  -26.2971  -29.6716   24.1257 H   0  0  0  0  0  0
  -27.4013  -29.7265   25.4794 H   0  0  0  0  0  0
  -27.8866  -30.4240   23.9532 H   0  0  0  0  0  0
  -27.2650  -33.3639   26.2048 H   0  0  0  0  0  0
  -28.3880  -32.6877   25.0341 H   0  0  0  0  0  0
  -28.0705  -31.8477   26.5443 H   0  0  0  0  0  0
  -28.2593  -38.0091   24.7508 H   0  0  0  0  0  0
  -28.1075  -36.2621   24.6300 H   0  0  0  0  0  0
  -27.2293  -37.1450   25.8868 H   0  0  0  0  0  0
  -20.9420  -29.8767   21.6835 H   0  0  0  0  0  0
  -26.0164  -38.2831   24.1405 H   0  0  0  0  0  0
  -26.7824  -22.6774   19.1239 H   0  0  0  0  0  0
  -30.5633  -23.6243   20.8820 H   0  0  0  0  0  0
  -31.4033  -19.4395   21.0342 H   0  0  0  0  0  0
  -30.4182  -18.6189   22.2095 H   0  0  0  0  0  0
  -27.4604  -18.4451   20.2821 H   0  0  0  0  0  0
  -28.5699  -18.1208   18.9863 H   0  0  0  0  0  0
  -31.9998  -17.0678   21.0920 H   0  0  0  0  0  0
  -31.3930  -17.4644   19.5129 H   0  0  0  0  0  0
  -28.0851  -16.0186   20.1711 H   0  0  0  0  0  0
  -28.4685  -16.6760   21.7260 H   0  0  0  0  0  0
  -27.6623  -24.9663   18.6413 H   0  0  0  0  0  0
  -29.3206  -25.1648   18.8656 H   0  0  0  0  0  0
  1 25  1  0  0  0
  1 30  2  0  0  0
  1 83  1  0  0  0
  2  3  1  0  0  0
  2 25  1  0  0  0
  2 84  1  0  0  0
  2 85  1  0  0  0
  3  4  1  0  0  0
  3 86  1  0  0  0
  3 87  1  0  0  0
  4  5  1  0  0  0
  4 88  1  0  0  0
  4 89  1  0  0  0
  5  6  1  0  0  0
  5 26  1  0  0  0
  5 90  1  0  0  0
  6 25  1  0  0  0
  6 91  1  0  0  0
  6 92  1  0  0  0
  7  8  2  0  0  0
  7 26  1  0  0  0
  7 29  1  0  0  0
  8  9  1  0  0  0
  8 22  1  0  0  0
  9 10  1  0  0  0
  9 27  2  0  0  0
 10 11  2  0  0  0
 10 15  1  0  0  0
 11 12  1  0  0  0
 11 93  1  0  0  0
 12 13  2  0  0  0
 12 94  1  0  0  0
 13 14  1  0  0  0
 13 31  1  0  0  0
 14 15  2  0  0  0
 14 95  1  0  0  0
 15 96  1  0  0  0
 16 17  2  0  0  0
 16 21  1  0  0  0
 16 31  1  0  0  0
 17 18  1  0  0  0
 17 97  1  0  0  0
 18 19  2  0  0  0
 18 98  1  0  0  0
 19 20  1  0  0  0
 19 24  1  0  0  0
 20 21  2  0  0  0
 20 99  1  0  0  0
 21 23  1  0  0  0
 22 28  1  0  0  0
 22 32  2  0  0  0
 26 27  1  0  0  0
 28100  1  0  0  0
 28101  1  0  0  0
 29102  1  0  0  0
 29103  1  0  0  0
 33 34  1  0  0  0
 33 66  1  0  0  0
 33 70  2  0  0  0
 34 36  1  0  0  0
 34 59  1  0  0  0
 34104  1  0  0  0
 35 44  2  0  0  0
 35 45  1  0  0  0
 35 68  1  0  0  0
 36 56  1  0  0  0
 36105  1  0  0  0
 37 39  1  0  0  0
 37 47  1  0  0  0
 37 66  1  0  0  0
 37106  1  0  0  0
 38 43  2  0  0  0
 38 46  1  0  0  0
 38 47  1  0  0  0
 39 64  1  0  0  0
 39 67  2  0  0  0
 40 52  1  0  0  0
 40 53  2  0  0  0
 40 58  1  0  0  0
 41107  1  0  0  0
 41108  1  0  0  0
 41109  1  0  0  0
 41 48  1  0  0  0
 42 43  1  0  0  0
 42 66  1  0  0  0
 42110  1  0  0  0
 42111  1  0  0  0
 43 44  1  0  0  0
 44112  1  0  0  0
 45 46  2  0  0  0
 45113  1  0  0  0
 46114  1  0  0  0
 47115  1  0  0  0
 47116  1  0  0  0
 48 56  1  0  0  0
 48 65  1  0  0  0
 48117  1  0  0  0
 49 50  1  0  0  0
 49 53  1  0  0  0
 49 64  1  0  0  0
 49118  1  0  0  0
 50 51  1  0  0  0
 50119  1  0  0  0
 50120  1  0  0  0
 51 52  1  0  0  0
 51121  1  0  0  0
 51122  1  0  0  0
 52123  1  0  0  0
 52124  1  0  0  0
 53 54  1  0  0  0
 54 55  2  0  0  0
 54125  1  0  0  0
 55 57  1  0  0  0
 55126  1  0  0  0
 56 69  2  0  0  0
 57 58  2  0  0  0
 57127  1  0  0  0
 58128  1  0  0  0
 59 60  1  0  0  0
 59 61  1  0  0  0
 59 62  1  0  0  0
 60129  1  0  0  0
 60130  1  0  0  0
 60131  1  0  0  0
 61132  1  0  0  0
 61133  1  0  0  0
 61134  1  0  0  0
 62135  1  0  0  0
 62136  1  0  0  0
 62137  1  0  0  0
 63 65  1  0  0  0
 63138  1  0  0  0
 63139  1  0  0  0
 63140  1  0  0  0
 64141  1  0  0  0
 65142  1  0  0  0
 68 79  1  0  0  0
 71 73  2  0  0  0
 71 80  1  0  0  0
 71143  1  0  0  0
 72 73  1  0  0  0
 72 81  2  0  0  0
 72144  1  0  0  0
 73 79  1  0  0  0
 74 80  2  0  0  0
 74 81  1  0  0  0
 74 82  1  0  0  0
 75 77  1  0  0  0
 75 82  1  0  0  0
 75145  1  0  0  0
 75146  1  0  0  0
 76 78  1  0  0  0
 76 82  1  0  0  0
 76147  1  0  0  0
 76148  1  0  0  0
 77 83  1  0  0  0
 77149  1  0  0  0
 77150  1  0  0  0
 78 83  1  0  0  0
 78151  1  0  0  0
 78152  1  0  0  0
 79153  1  0  0  0
 79154  1  0  0  0
M  ISO  4   1 100  68 101  79 101  83 100
M  END
> <chiral flag>
0

> <version>
0

> <s_m_source_file>
/data/baiqing/PycharmProjects/Reinvent-master-3.2/result/LINK_invent/BTK/process_docking_weight1_custom_sum_contain_oxygen_bond_distance_aromatic_linkinvent_7_9_3/rearranged_h_0187.sdf

> <i_m_source_file_index>
7

> <r_mmod_Potential_Energy-OPLS-2005>
-42.3775787353516

> <r_mmod_Stretch_Energy-OPLS-2005>
143.66618347168

> <r_mmod_Bend_Energy-OPLS-2005>
248.999542236328

> <r_mmod_Torsional_Energy-OPLS-2005>
326.934112548828

> <r_mmod_Improper_Torsional_Energy-OPLS-2005>
7.51696586608887

> <r_mmod_Van_der_Waal_Energy-OPLS-2005>
164.306686401367

> <r_mmod_Electrostatic_Energy-OPLS-2005>
-818.894470214844

> <r_mmod_Solvation_Energy-OPLS-2005>
-245.939407348633

> <b_mmod_Minimization_Converged-OPLS-2005>
0

> <r_mmod_RMS_Derivative-OPLS-2005>
0.104264311492443

$$$$
7
                    3D
 Structure written by MMmdl.
153162  0  0  1  0            999 V2000
  -30.5247  -15.1125   20.3864 C   0  0  0  0  0  0
  -30.4495  -12.7021   19.5069 C   0  0  0  0  0  0
  -29.5329  -12.5401   18.2710 C   0  0  0  0  0  0
  -28.0798  -12.2857   18.7068 C   0  0  0  0  0  0
  -27.6263  -13.2609   19.8242 C   0  0  2  0  0  0
  -28.6705  -13.3918   20.9566 C   0  0  0  0  0  0
  -25.2506  -13.8230   20.5718 C   0  0  0  0  0  0
  -24.1832  -13.0464   20.9246 C   0  0  0  0  0  0
  -24.6458  -11.6943   20.8753 C   0  0  0  0  0  0
  -23.9125  -10.4318   21.0388 C   0  0  0  0  0  0
  -24.3659   -9.4235   21.9169 C   0  0  0  0  0  0
  -23.6319   -8.2278   22.0761 C   0  0  0  0  0  0
  -22.4302   -8.0313   21.3564 C   0  0  0  0  0  0
  -21.9937   -9.0289   20.4671 C   0  0  0  0  0  0
  -22.7283  -10.2156   20.3061 C   0  0  0  0  0  0
  -21.6866   -6.0758   22.5284 C   0  0  0  0  0  0
  -21.4022   -6.5649   23.8227 C   0  0  0  0  0  0
  -21.3654   -5.6789   24.9180 C   0  0  0  0  0  0
  -21.6045   -4.3056   24.7214 C   0  0  0  0  0  0
  -21.8815   -3.8159   23.4335 C   0  0  0  0  0  0
  -21.9197   -4.6982   22.3399 C   0  0  0  0  0  0
  -22.7849  -13.5236   21.1850 C   0  0  0  0  0  0
  -22.1661   -4.2161   21.0972 F   0  0  0  0  0  0
  -21.5625   -3.4545   25.7737 F   0  0  0  0  0  0
  -29.9220  -13.8400   20.3289 N   0  0  0  0  0  0
  -26.2928  -12.9481   20.3236 N   0  0  0  0  0  0
  -25.9402  -11.6607   20.5750 N   0  0  0  0  0  0
  -22.0452  -12.8277   22.0412 N   0  0  0  0  0  0
  -25.4138  -15.1956   20.4118 N   0  0  0  0  0  0
  -31.7446  -15.1190   20.1923 O   0  0  0  0  0  0
  -21.6657   -6.8912   21.4265 O   0  0  0  0  0  0
  -22.3524  -14.5525   20.6659 O   0  0  0  0  0  0
  -24.6524  -31.8346   23.1826 C   0  0  0  0  0  0
  -25.9250  -32.4641   23.8247 C   0  0  1  0  0  0
  -27.1950  -27.0061   20.1260 C   0  0  0  0  0  0
  -25.5958  -33.8451   24.2138 N   0  0  0  0  0  0
  -23.4602  -30.4558   21.5320 C   0  0  2  0  0  0
  -24.9046  -28.8742   20.1063 C   0  0  0  0  0  0
  -22.7628  -29.4499   22.4830 C   0  0  0  0  0  0
  -18.0304  -28.1422   22.8450 C   0  0  0  0  0  0
  -24.1489  -36.7230   23.2645 C   0  0  0  0  0  0
  -26.0291  -30.6633   21.4067 C   0  0  0  0  0  0
  -26.0919  -29.2684   20.7345 C   0  0  0  0  0  0
  -27.2301  -28.3520   20.7267 C   0  0  0  0  0  0
  -25.9618  -26.7564   19.4738 C   0  0  0  0  0  0
  -24.8597  -27.6353   19.4627 C   0  0  0  0  0  0
  -23.6905  -29.7924   20.1515 C   0  0  0  0  0  0
  -25.4125  -36.2991   24.0298 C   0  0  1  0  0  0
  -20.5931  -28.3749   23.1225 C   0  0  2  0  0  0
  -20.6791  -26.9445   22.5400 C   0  0  0  0  0  0
  -19.5773  -26.6380   21.5207 C   0  0  0  0  0  0
  -18.1956  -26.7941   22.1624 C   0  0  0  0  0  0
  -19.1567  -28.8909   23.2822 C   0  0  0  0  0  0
  -18.9479  -30.1500   23.8851 C   0  0  0  0  0  0
  -17.6476  -30.6610   24.0550 C   0  0  0  0  0  0
  -25.9082  -34.9374   23.5036 C   0  0  0  0  0  0
  -16.5366  -29.9095   23.6344 C   0  0  0  0  0  0
  -16.7289  -28.6519   23.0348 C   0  0  0  0  0  0
  -26.4530  -31.6563   25.0746 C   0  0  0  0  0  0
  -25.3653  -31.3786   26.1400 C   0  0  0  0  0  0
  -27.0425  -30.2945   24.6414 C   0  0  0  0  0  0
  -27.6042  -32.4358   25.7531 C   0  0  0  0  0  0
  -27.5573  -37.1766   24.8453 C   0  0  0  0  0  0
  -21.4307  -29.3054   22.3596 N   0  0  0  0  0  0
  -26.4273  -37.3718   23.9408 N   0  0  0  0  0  0
  -24.7345  -31.0080   22.0940 N   0  0  0  0  0  0
  -23.4221  -28.8022   23.3004 O   0  0  0  0  0  0
  -28.2317  -25.9497   20.2180 O   0  0  0  0  0  0
  -26.5693  -34.8875   22.4632 O   0  0  0  0  0  0
  -23.5616  -32.1306   23.6964 O   0  0  0  0  0  0
  -27.4127  -22.9833   18.3430 C   0  0  0  0  0  0
  -28.6724  -22.1272   19.9845 C   0  0  0  0  0  0
  -28.1288  -24.5158   19.8566 C   0  0  0  0  0  0
  -29.8837  -19.0386   18.7493 C   0  0  0  0  0  0
  -31.0731  -18.4296   19.5160 C   0  0  0  0  0  0
  -29.1678  -19.3011   20.0849 C   0  0  1  0  0  0
  -30.1116  -17.9453   20.6115 C   0  0  1  0  0  0
  -26.6189  -22.7063   17.0836 C   0  0  0  0  0  0
  -27.9598  -21.9075   18.9000 N   0  0  0  0  0  0
  -27.4725  -24.2597   18.7281 N   0  0  0  0  0  0
  -28.7956  -23.4404   20.5064 N   0  0  0  0  0  0
  -29.2914  -20.8490   20.5047 N   0  0  0  0  0  0
  -29.7738  -16.3580   20.4573 N   0  0  0  0  0  0
  -31.4752  -12.8773   19.1783 H   0  0  0  0  0  0
  -30.4805  -11.7817   20.0920 H   0  0  0  0  0  0
  -29.8859  -11.7214   17.6442 H   0  0  0  0  0  0
  -29.5826  -13.4425   17.6575 H   0  0  0  0  0  0
  -28.0311  -11.2624   19.0813 H   0  0  0  0  0  0
  -27.4056  -12.3302   17.8512 H   0  0  0  0  0  0
  -27.5593  -14.2330   19.3387 H   0  0  0  0  0  0
  -28.8059  -12.4520   21.4937 H   0  0  0  0  0  0
  -28.3446  -14.1283   21.6903 H   0  0  0  0  0  0
  -25.2772   -9.5718   22.4774 H   0  0  0  0  0  0
  -24.0021   -7.4668   22.7484 H   0  0  0  0  0  0
  -21.0863   -8.8832   19.8971 H   0  0  0  0  0  0
  -22.3725  -10.9723   19.6199 H   0  0  0  0  0  0
  -21.2014   -7.6148   23.9745 H   0  0  0  0  0  0
  -21.1475   -6.0506   25.9087 H   0  0  0  0  0  0
  -22.0592   -2.7627   23.2826 H   0  0  0  0  0  0
  -22.4036  -11.9952   22.4846 H   0  0  0  0  0  0
  -21.1094  -13.1386   22.2606 H   0  0  0  0  0  0
  -24.6353  -15.8395   20.5062 H   0  0  0  0  0  0
  -26.2513  -15.6350   20.0515 H   0  0  0  0  0  0
  -26.7285  -32.5160   23.0929 H   0  0  0  0  0  0
  -24.9980  -33.9553   25.0198 H   0  0  0  0  0  0
  -22.7653  -31.2849   21.3772 H   0  0  0  0  0  0
  -23.3757  -35.9555   23.3267 H   0  0  0  0  0  0
  -24.3565  -36.8920   22.2069 H   0  0  0  0  0  0
  -23.7246  -37.6398   23.6737 H   0  0  0  0  0  0
  -26.2069  -31.4162   20.6396 H   0  0  0  0  0  0
  -26.8885  -30.7114   22.0620 H   0  0  0  0  0  0
  -28.1320  -28.6454   21.2429 H   0  0  0  0  0  0
  -25.7532  -25.8260   18.9785 H   0  0  0  0  0  0
  -23.9502  -27.3245   18.9653 H   0  0  0  0  0  0
  -23.8373  -30.5677   19.3987 H   0  0  0  0  0  0
  -22.7995  -29.2457   19.8375 H   0  0  0  0  0  0
  -25.1329  -36.1781   25.0787 H   0  0  0  0  0  0
  -20.9994  -28.3302   24.1361 H   0  0  0  0  0  0
  -20.5696  -26.2342   23.3613 H   0  0  0  0  0  0
  -21.6653  -26.7441   22.1204 H   0  0  0  0  0  0
  -19.6933  -25.6274   21.1282 H   0  0  0  0  0  0
  -19.6717  -27.3151   20.6708 H   0  0  0  0  0  0
  -17.4215  -26.6651   21.4038 H   0  0  0  0  0  0
  -18.0383  -26.0116   22.9065 H   0  0  0  0  0  0
  -19.7959  -30.7328   24.2192 H   0  0  0  0  0  0
  -17.5031  -31.6286   24.5176 H   0  0  0  0  0  0
  -15.5370  -30.2990   23.7706 H   0  0  0  0  0  0
  -15.8682  -28.0835   22.7090 H   0  0  0  0  0  0
  -24.5750  -30.7275   25.7641 H   0  0  0  0  0  0
  -24.8939  -32.3000   26.4834 H   0  0  0  0  0  0
  -25.7847  -30.8850   27.0175 H   0  0  0  0  0  0
  -26.3078  -29.6628   24.1392 H   0  0  0  0  0  0
  -27.3980  -29.7298   25.5045 H   0  0  0  0  0  0
  -27.9020  -30.4179   23.9815 H   0  0  0  0  0  0
  -27.2602  -33.3640   26.2095 H   0  0  0  0  0  0
  -28.3841  -32.6951   25.0364 H   0  0  0  0  0  0
  -28.0721  -31.8499   26.5444 H   0  0  0  0  0  0
  -28.2550  -38.0098   24.7522 H   0  0  0  0  0  0
  -28.1118  -36.2631   24.6256 H   0  0  0  0  0  0
  -27.2297  -37.1359   25.8853 H   0  0  0  0  0  0
  -20.9542  -29.8748   21.6752 H   0  0  0  0  0  0
  -26.0123  -38.2762   24.1461 H   0  0  0  0  0  0
  -29.3751  -18.2928   18.1371 H   0  0  0  0  0  0
  -30.1367  -19.9244   18.1660 H   0  0  0  0  0  0
  -31.7491  -19.2061   19.8810 H   0  0  0  0  0  0
  -31.6242  -17.6609   18.9768 H   0  0  0  0  0  0
  -28.1101  -19.0417   20.0270 H   0  0  0  0  0  0
  -30.5288  -18.1441   21.5977 H   0  0  0  0  0  0
  -26.1668  -21.7157   17.1092 H   0  0  0  0  0  0
  -27.2654  -22.7533   16.2085 H   0  0  0  0  0  0
  -25.8135  -23.4285   16.9629 H   0  0  0  0  0  0
  -29.8740  -21.0058   21.3190 H   0  0  0  0  0  0
  -28.7823  -16.1797   20.5028 H   0  0  0  0  0  0
  1 25  1  0  0  0
  1 30  2  0  0  0
  1 83  1  0  0  0
  2  3  1  0  0  0
  2 25  1  0  0  0
  2 84  1  0  0  0
  2 85  1  0  0  0
  3  4  1  0  0  0
  3 86  1  0  0  0
  3 87  1  0  0  0
  4  5  1  0  0  0
  4 88  1  0  0  0
  4 89  1  0  0  0
  5  6  1  0  0  0
  5 26  1  0  0  0
  5 90  1  0  0  0
  6 25  1  0  0  0
  6 91  1  0  0  0
  6 92  1  0  0  0
  7  8  2  0  0  0
  7 26  1  0  0  0
  7 29  1  0  0  0
  8  9  1  0  0  0
  8 22  1  0  0  0
  9 10  1  0  0  0
  9 27  2  0  0  0
 10 11  2  0  0  0
 10 15  1  0  0  0
 11 12  1  0  0  0
 11 93  1  0  0  0
 12 13  2  0  0  0
 12 94  1  0  0  0
 13 14  1  0  0  0
 13 31  1  0  0  0
 14 15  2  0  0  0
 14 95  1  0  0  0
 15 96  1  0  0  0
 16 17  2  0  0  0
 16 21  1  0  0  0
 16 31  1  0  0  0
 17 18  1  0  0  0
 17 97  1  0  0  0
 18 19  2  0  0  0
 18 98  1  0  0  0
 19 20  1  0  0  0
 19 24  1  0  0  0
 20 21  2  0  0  0
 20 99  1  0  0  0
 21 23  1  0  0  0
 22 28  1  0  0  0
 22 32  2  0  0  0
 26 27  1  0  0  0
 28100  1  0  0  0
 28101  1  0  0  0
 29102  1  0  0  0
 29103  1  0  0  0
 33 34  1  0  0  0
 33 66  1  0  0  0
 33 70  2  0  0  0
 34 36  1  0  0  0
 34 59  1  0  0  0
 34104  1  0  0  0
 35 44  2  0  0  0
 35 45  1  0  0  0
 35 68  1  0  0  0
 36 56  1  0  0  0
 36105  1  0  0  0
 37 39  1  0  0  0
 37 47  1  0  0  0
 37 66  1  0  0  0
 37106  1  0  0  0
 38 43  2  0  0  0
 38 46  1  0  0  0
 38 47  1  0  0  0
 39 64  1  0  0  0
 39 67  2  0  0  0
 40 52  1  0  0  0
 40 53  2  0  0  0
 40 58  1  0  0  0
 41107  1  0  0  0
 41108  1  0  0  0
 41109  1  0  0  0
 41 48  1  0  0  0
 42 43  1  0  0  0
 42 66  1  0  0  0
 42110  1  0  0  0
 42111  1  0  0  0
 43 44  1  0  0  0
 44112  1  0  0  0
 45 46  2  0  0  0
 45113  1  0  0  0
 46114  1  0  0  0
 47115  1  0  0  0
 47116  1  0  0  0
 48 56  1  0  0  0
 48 65  1  0  0  0
 48117  1  0  0  0
 49 50  1  0  0  0
 49 53  1  0  0  0
 49 64  1  0  0  0
 49118  1  0  0  0
 50 51  1  0  0  0
 50119  1  0  0  0
 50120  1  0  0  0
 51 52  1  0  0  0
 51121  1  0  0  0
 51122  1  0  0  0
 52123  1  0  0  0
 52124  1  0  0  0
 53 54  1  0  0  0
 54 55  2  0  0  0
 54125  1  0  0  0
 55 57  1  0  0  0
 55126  1  0  0  0
 56 69  2  0  0  0
 57 58  2  0  0  0
 57127  1  0  0  0
 58128  1  0  0  0
 59 60  1  0  0  0
 59 61  1  0  0  0
 59 62  1  0  0  0
 60129  1  0  0  0
 60130  1  0  0  0
 60131  1  0  0  0
 61132  1  0  0  0
 61133  1  0  0  0
 61134  1  0  0  0
 62135  1  0  0  0
 62136  1  0  0  0
 62137  1  0  0  0
 63 65  1  0  0  0
 63138  1  0  0  0
 63139  1  0  0  0
 63140  1  0  0  0
 64141  1  0  0  0
 65142  1  0  0  0
 68 73  1  0  0  0
 71 78  1  0  0  0
 71 79  2  0  0  0
 71 80  1  0  0  0
 72 79  1  0  0  0
 72 81  2  0  0  0
 72 82  1  0  0  0
 73 80  2  0  0  0
 73 81  1  0  0  0
 74 75  1  0  0  0
 74 76  1  0  0  0
 74143  1  0  0  0
 74144  1  0  0  0
 75 77  1  0  0  0
 75145  1  0  0  0
 75146  1  0  0  0
 76 77  1  0  0  0
 76 82  1  0  0  0
 76147  1  0  0  0
 77 83  1  0  0  0
 77148  1  0  0  0
 78149  1  0  0  0
 78150  1  0  0  0
 78151  1  0  0  0
 82152  1  0  0  0
 83153  1  0  0  0
M  ISO  4   1 100  68 101  73 101  83 100
M  END
> <chiral flag>
0

> <version>
0

> <s_m_source_file>
/data/baiqing/PycharmProjects/Reinvent-master-3.2/result/LINK_invent/BTK/process_docking_weight1_custom_sum_contain_oxygen_bond_distance_aromatic_linkinvent_7_9_3/rearranged_h_0187.sdf

> <i_m_source_file_index>
8

> <r_mmod_Potential_Energy-OPLS-2005>
53.2384796142578

> <r_mmod_Stretch_Energy-OPLS-2005>
371.7529296875

> <r_mmod_Bend_Energy-OPLS-2005>
345.418731689453

> <r_mmod_Torsional_Energy-OPLS-2005>
242.295562744141

> <r_mmod_Improper_Torsional_Energy-OPLS-2005>
5.18720293045044

> <r_mmod_Van_der_Waal_Energy-OPLS-2005>
153.502807617188

> <r_mmod_Electrostatic_Energy-OPLS-2005>
-1150.59265136719

> <r_mmod_Solvation_Energy-OPLS-2005>
-239.142593383789

> <b_mmod_Minimization_Converged-OPLS-2005>
0

> <r_mmod_RMS_Derivative-OPLS-2005>
4.16269111633301

$$$$
8
                    3D
 Structure written by MMmdl.
152160  0  0  1  0            999 V2000
  -30.6015  -14.7862   20.4709 C   0  0  0  0  0  0
  -30.4419  -12.4888   19.4754 C   0  0  0  0  0  0
  -29.5183  -12.5225   18.2372 C   0  0  0  0  0  0
  -28.0448  -12.3357   18.6491 C   0  0  0  0  0  0
  -27.6434  -13.2367   19.8481 C   0  0  2  0  0  0
  -28.6867  -13.1901   20.9843 C   0  0  0  0  0  0
  -25.2527  -13.8206   20.5697 C   0  0  0  0  0  0
  -24.1814  -13.0445   20.9172 C   0  0  0  0  0  0
  -24.6415  -11.6923   20.8718 C   0  0  0  0  0  0
  -23.9085  -10.4311   21.0398 C   0  0  0  0  0  0
  -24.3638   -9.4235   21.9188 C   0  0  0  0  0  0
  -23.6316   -8.2266   22.0762 C   0  0  0  0  0  0
  -22.4299   -8.0301   21.3545 C   0  0  0  0  0  0
  -21.9922   -9.0276   20.4649 C   0  0  0  0  0  0
  -22.7246  -10.2157   20.3057 C   0  0  0  0  0  0
  -21.6864   -6.0753   22.5283 C   0  0  0  0  0  0
  -21.4023   -6.5648   23.8221 C   0  0  0  0  0  0
  -21.3651   -5.6791   24.9170 C   0  0  0  0  0  0
  -21.6047   -4.3055   24.7212 C   0  0  0  0  0  0
  -21.8818   -3.8156   23.4328 C   0  0  0  0  0  0
  -21.9193   -4.6981   22.3391 C   0  0  0  0  0  0
  -22.7826  -13.5232   21.1818 C   0  0  0  0  0  0
  -22.1665   -4.2168   21.0966 F   0  0  0  0  0  0
  -21.5625   -3.4540   25.7719 F   0  0  0  0  0  0
  -29.9830  -13.5547   20.3997 N   0  0  0  0  0  0
  -26.2955  -12.9421   20.3272 N   0  0  0  0  0  0
  -25.9353  -11.6551   20.5724 N   0  0  0  0  0  0
  -22.0469  -12.8259   22.0389 N   0  0  0  0  0  0
  -25.4240  -15.1930   20.4155 N   0  0  0  0  0  0
  -31.7940  -14.8833   20.1647 O   0  0  0  0  0  0
  -21.6652   -6.8903   21.4249 O   0  0  0  0  0  0
  -22.3506  -14.5533   20.6653 O   0  0  0  0  0  0
  -24.6340  -31.8534   23.1984 C   0  0  0  0  0  0
  -25.9159  -32.4753   23.8327 C   0  0  1  0  0  0
  -27.2139  -27.2304   20.1279 C   0  0  0  0  0  0
  -25.5941  -33.8555   24.2240 N   0  0  0  0  0  0
  -23.4318  -30.4793   21.5412 C   0  0  2  0  0  0
  -24.8790  -28.9254   20.1108 C   0  0  0  0  0  0
  -22.7525  -29.4591   22.4883 C   0  0  0  0  0  0
  -18.0297  -28.1422   22.8485 C   0  0  0  0  0  0
  -24.1480  -36.7277   23.2633 C   0  0  0  0  0  0
  -25.9818  -30.7573   21.3840 C   0  0  0  0  0  0
  -26.0540  -29.3775   20.7249 C   0  0  0  0  0  0
  -27.2249  -28.5457   20.7189 C   0  0  0  0  0  0
  -26.0120  -26.8632   19.4780 C   0  0  0  0  0  0
  -24.8662  -27.6788   19.4737 C   0  0  0  0  0  0
  -23.6550  -29.8202   20.1556 C   0  0  0  0  0  0
  -25.4113  -36.3064   24.0313 C   0  0  1  0  0  0
  -20.5908  -28.3719   23.1263 C   0  0  2  0  0  0
  -20.6779  -26.9433   22.5401 C   0  0  0  0  0  0
  -19.5752  -26.6401   21.5204 C   0  0  0  0  0  0
  -18.1936  -26.7966   22.1624 C   0  0  0  0  0  0
  -19.1555  -28.8886   23.2869 C   0  0  0  0  0  0
  -18.9469  -30.1486   23.8896 C   0  0  0  0  0  0
  -17.6469  -30.6611   24.0578 C   0  0  0  0  0  0
  -25.9063  -34.9440   23.5078 C   0  0  0  0  0  0
  -16.5360  -29.9110   23.6343 C   0  0  0  0  0  0
  -16.7279  -28.6535   23.0349 C   0  0  0  0  0  0
  -26.4519  -31.6599   25.0732 C   0  0  0  0  0  0
  -25.3726  -31.3778   26.1445 C   0  0  0  0  0  0
  -27.0364  -30.3009   24.6241 C   0  0  0  0  0  0
  -27.6063  -32.4342   25.7515 C   0  0  0  0  0  0
  -27.5574  -37.1793   24.8465 C   0  0  0  0  0  0
  -21.4221  -29.3057   22.3645 N   0  0  0  0  0  0
  -26.4280  -37.3765   23.9419 N   0  0  0  0  0  0
  -24.7017  -31.0486   22.0966 N   0  0  0  0  0  0
  -23.4221  -28.8113   23.2966 O   0  0  0  0  0  0
  -28.2952  -26.3035   20.1730 O   0  0  0  0  0  0
  -26.5622  -34.8916   22.4641 O   0  0  0  0  0  0
  -23.5481  -32.1365   23.7258 O   0  0  0  0  0  0
  -29.0650  -19.4698   20.5749 C   0  0  0  0  0  0
  -30.1685  -17.1240   21.5459 C   0  0  0  0  0  0
  -29.3664  -16.8944   19.6449 C   0  0  0  0  0  0
  -29.9644  -18.1445   20.3757 C   0  0  0  0  0  0
  -29.6469  -20.9532   20.3088 C   0  0  0  0  0  0
  -29.1096  -23.6140   20.2469 C   0  0  0  0  0  0
  -27.9935  -24.8102   20.2311 C   0  0  0  0  0  0
  -29.8272  -15.9316   20.6973 N   0  0  0  0  0  0
  -28.6456  -22.1332   20.4063 N   0  3  0  0  0  0
  -27.8848  -19.4150   20.9360 O   0  0  0  0  0  0
  -31.4809  -12.6293   19.1695 H   0  0  0  0  0  0
  -30.4013  -11.5155   19.9657 H   0  0  0  0  0  0
  -29.8137  -11.7529   17.5224 H   0  0  0  0  0  0
  -29.6341  -13.4775   17.7210 H   0  0  0  0  0  0
  -27.9061  -11.2857   18.9128 H   0  0  0  0  0  0
  -27.3886  -12.5281   17.7990 H   0  0  0  0  0  0
  -27.6335  -14.2565   19.4631 H   0  0  0  0  0  0
  -28.7324  -12.1997   21.4387 H   0  0  0  0  0  0
  -28.4131  -13.8858   21.7801 H   0  0  0  0  0  0
  -25.2800   -9.5713   22.4741 H   0  0  0  0  0  0
  -24.0034   -7.4658   22.7486 H   0  0  0  0  0  0
  -21.0850   -8.8789   19.8966 H   0  0  0  0  0  0
  -22.3710  -10.9690   19.6157 H   0  0  0  0  0  0
  -21.2026   -7.6159   23.9726 H   0  0  0  0  0  0
  -21.1476   -6.0521   25.9077 H   0  0  0  0  0  0
  -22.0603   -2.7621   23.2813 H   0  0  0  0  0  0
  -22.4083  -11.9938   22.4801 H   0  0  0  0  0  0
  -21.1089  -13.1301   22.2574 H   0  0  0  0  0  0
  -24.6631  -15.8522   20.5392 H   0  0  0  0  0  0
  -26.2921  -15.6374   20.1436 H   0  0  0  0  0  0
  -26.7215  -32.5405   23.1059 H   0  0  0  0  0  0
  -25.0133  -33.9703   25.0417 H   0  0  0  0  0  0
  -22.7280  -31.3019   21.3989 H   0  0  0  0  0  0
  -23.3741  -35.9609   23.3299 H   0  0  0  0  0  0
  -24.3564  -36.8901   22.2046 H   0  0  0  0  0  0
  -23.7237  -37.6473   23.6668 H   0  0  0  0  0  0
  -26.1247  -31.5170   20.6144 H   0  0  0  0  0  0
  -26.8563  -30.8074   22.0207 H   0  0  0  0  0  0
  -28.1222  -28.8914   21.2135 H   0  0  0  0  0  0
  -25.9121  -25.9265   18.9544 H   0  0  0  0  0  0
  -23.9713  -27.3315   18.9753 H   0  0  0  0  0  0
  -23.7945  -30.6026   19.4086 H   0  0  0  0  0  0
  -22.7703  -29.2655   19.8371 H   0  0  0  0  0  0
  -25.1299  -36.1895   25.0799 H   0  0  0  0  0  0
  -20.9997  -28.3293   24.1383 H   0  0  0  0  0  0
  -20.5668  -26.2329   23.3608 H   0  0  0  0  0  0
  -21.6648  -26.7456   22.1201 H   0  0  0  0  0  0
  -19.6899  -25.6298   21.1258 H   0  0  0  0  0  0
  -19.6696  -27.3192   20.6722 H   0  0  0  0  0  0
  -17.4198  -26.6705   21.4032 H   0  0  0  0  0  0
  -18.0350  -26.0120   22.9039 H   0  0  0  0  0  0
  -19.7935  -30.7315   24.2255 H   0  0  0  0  0  0
  -17.5014  -31.6284   24.5189 H   0  0  0  0  0  0
  -15.5357  -30.3008   23.7666 H   0  0  0  0  0  0
  -15.8686  -28.0855   22.7051 H   0  0  0  0  0  0
  -24.5906  -30.7118   25.7783 H   0  0  0  0  0  0
  -24.8916  -32.2960   26.4821 H   0  0  0  0  0  0
  -25.8035  -30.8996   27.0254 H   0  0  0  0  0  0
  -26.2959  -29.6759   24.1241 H   0  0  0  0  0  0
  -27.4010  -29.7288   25.4782 H   0  0  0  0  0  0
  -27.8859  -30.4276   23.9524 H   0  0  0  0  0  0
  -27.2669  -33.3652   26.2068 H   0  0  0  0  0  0
  -28.3899  -32.6885   25.0361 H   0  0  0  0  0  0
  -28.0705  -31.8480   26.5451 H   0  0  0  0  0  0
  -28.2587  -38.0091   24.7522 H   0  0  0  0  0  0
  -28.1075  -36.2634   24.6288 H   0  0  0  0  0  0
  -27.2308  -37.1437   25.8868 H   0  0  0  0  0  0
  -20.9402  -29.8833   21.6906 H   0  0  0  0  0  0
  -26.0153  -38.2827   24.1443 H   0  0  0  0  0  0
  -31.1880  -17.1262   21.9371 H   0  0  0  0  0  0
  -29.4621  -17.2750   22.3646 H   0  0  0  0  0  0
  -29.8125  -16.7314   18.6636 H   0  0  0  0  0  0
  -28.2790  -16.9341   19.5546 H   0  0  0  0  0  0
  -30.9333  -18.3885   19.9382 H   0  0  0  0  0  0
  -30.1091  -20.9669   19.3219 H   0  0  0  0  0  0
  -30.4486  -21.1250   21.0273 H   0  0  0  0  0  0
  -29.8276  -23.8222   21.0403 H   0  0  0  0  0  0
  -29.6709  -23.6781   19.3146 H   0  0  0  0  0  0
  -27.3694  -24.6759   21.1155 H   0  0  0  0  0  0
  -27.3597  -24.5559   19.3863 H   0  0  0  0  0  0
  -28.1893  -22.0382   21.3003 H   0  0  0  0  0  0
  -27.9351  -21.9450   19.7157 H   0  0  0  0  0  0
  1 25  1  0  0  0
  1 30  2  0  0  0
  1 78  1  0  0  0
  2  3  1  0  0  0
  2 25  1  0  0  0
  2 81  1  0  0  0
  2 82  1  0  0  0
  3  4  1  0  0  0
  3 83  1  0  0  0
  3 84  1  0  0  0
  4  5  1  0  0  0
  4 85  1  0  0  0
  4 86  1  0  0  0
  5  6  1  0  0  0
  5 26  1  0  0  0
  5 87  1  0  0  0
  6 25  1  0  0  0
  6 88  1  0  0  0
  6 89  1  0  0  0
  7  8  2  0  0  0
  7 26  1  0  0  0
  7 29  1  0  0  0
  8  9  1  0  0  0
  8 22  1  0  0  0
  9 10  1  0  0  0
  9 27  2  0  0  0
 10 11  2  0  0  0
 10 15  1  0  0  0
 11 12  1  0  0  0
 11 90  1  0  0  0
 12 13  2  0  0  0
 12 91  1  0  0  0
 13 14  1  0  0  0
 13 31  1  0  0  0
 14 15  2  0  0  0
 14 92  1  0  0  0
 15 93  1  0  0  0
 16 17  2  0  0  0
 16 21  1  0  0  0
 16 31  1  0  0  0
 17 18  1  0  0  0
 17 94  1  0  0  0
 18 19  2  0  0  0
 18 95  1  0  0  0
 19 20  1  0  0  0
 19 24  1  0  0  0
 20 21  2  0  0  0
 20 96  1  0  0  0
 21 23  1  0  0  0
 22 28  1  0  0  0
 22 32  2  0  0  0
 26 27  1  0  0  0
 28 97  1  0  0  0
 28 98  1  0  0  0
 29 99  1  0  0  0
 29100  1  0  0  0
 33 34  1  0  0  0
 33 66  1  0  0  0
 33 70  2  0  0  0
 34 36  1  0  0  0
 34 59  1  0  0  0
 34101  1  0  0  0
 35 44  2  0  0  0
 35 45  1  0  0  0
 35 68  1  0  0  0
 36 56  1  0  0  0
 36102  1  0  0  0
 37 39  1  0  0  0
 37 47  1  0  0  0
 37 66  1  0  0  0
 37103  1  0  0  0
 38 43  2  0  0  0
 38 46  1  0  0  0
 38 47  1  0  0  0
 39 64  1  0  0  0
 39 67  2  0  0  0
 40 52  1  0  0  0
 40 53  2  0  0  0
 40 58  1  0  0  0
 41104  1  0  0  0
 41105  1  0  0  0
 41106  1  0  0  0
 41 48  1  0  0  0
 42 43  1  0  0  0
 42 66  1  0  0  0
 42107  1  0  0  0
 42108  1  0  0  0
 43 44  1  0  0  0
 44109  1  0  0  0
 45 46  2  0  0  0
 45110  1  0  0  0
 46111  1  0  0  0
 47112  1  0  0  0
 47113  1  0  0  0
 48 56  1  0  0  0
 48 65  1  0  0  0
 48114  1  0  0  0
 49 50  1  0  0  0
 49 53  1  0  0  0
 49 64  1  0  0  0
 49115  1  0  0  0
 50 51  1  0  0  0
 50116  1  0  0  0
 50117  1  0  0  0
 51 52  1  0  0  0
 51118  1  0  0  0
 51119  1  0  0  0
 52120  1  0  0  0
 52121  1  0  0  0
 53 54  1  0  0  0
 54 55  2  0  0  0
 54122  1  0  0  0
 55 57  1  0  0  0
 55123  1  0  0  0
 56 69  2  0  0  0
 57 58  2  0  0  0
 57124  1  0  0  0
 58125  1  0  0  0
 59 60  1  0  0  0
 59 61  1  0  0  0
 59 62  1  0  0  0
 60126  1  0  0  0
 60127  1  0  0  0
 60128  1  0  0  0
 61129  1  0  0  0
 61130  1  0  0  0
 61131  1  0  0  0
 62132  1  0  0  0
 62133  1  0  0  0
 62134  1  0  0  0
 63 65  1  0  0  0
 63135  1  0  0  0
 63136  1  0  0  0
 63137  1  0  0  0
 64138  1  0  0  0
 65139  1  0  0  0
 68 77  1  0  0  0
 71 75  1  0  0  0
 71 80  2  0  0  0
 71 74  1  0  0  0
 72 74  1  0  0  0
 72 78  1  0  0  0
 72140  1  0  0  0
 72141  1  0  0  0
 73 74  1  0  0  0
 73 78  1  0  0  0
 73142  1  0  0  0
 73143  1  0  0  0
 74144  1  0  0  0
 75 79  1  0  0  0
 75145  1  0  0  0
 75146  1  0  0  0
 76 77  1  0  0  0
 76 79  1  0  0  0
 76147  1  0  0  0
 76148  1  0  0  0
 77149  1  0  0  0
 77150  1  0  0  0
 79151  1  0  0  0
 79152  1  0  0  0
M  CHG  1  79   1
M  ISO  4   1 100  68 101  77 101  78 100
M  END
> <chiral flag>
0

> <version>
0

> <s_m_source_file>
/data/baiqing/PycharmProjects/Reinvent-master-3.2/result/LINK_invent/BTK/process_docking_weight1_custom_sum_contain_oxygen_bond_distance_aromatic_linkinvent_7_9_3/rearranged_h_0187.sdf

> <i_m_source_file_index>
9

> <r_mmod_Potential_Energy-OPLS-2005>
91.1651611328125

> <r_mmod_Stretch_Energy-OPLS-2005>
147.537796020508

> <r_mmod_Bend_Energy-OPLS-2005>
183.02619934082

> <r_mmod_Torsional_Energy-OPLS-2005>
272.843872070312

> <r_mmod_Improper_Torsional_Energy-OPLS-2005>
10.1999597549438

> <r_mmod_Van_der_Waal_Energy-OPLS-2005>
115.663398742676

> <r_mmod_Electrostatic_Energy-OPLS-2005>
-272.343811035156

> <r_mmod_Solvation_Energy-OPLS-2005>
-471.1240234375

> <b_mmod_Minimization_Converged-OPLS-2005>
0

> <r_mmod_RMS_Derivative-OPLS-2005>
2.25431323051453

$$$$
9
                    3D
 Structure written by MMmdl.
162171  0  0  1  0            999 V2000
  -30.7308  -14.5135   20.6065 C   0  0  0  0  0  0
  -30.4075  -12.3469   19.4365 C   0  0  0  0  0  0
  -29.4921  -12.5152   18.2073 C   0  0  0  0  0  0
  -28.0133  -12.3454   18.6026 C   0  0  0  0  0  0
  -27.6452  -13.1971   19.8445 C   0  0  2  0  0  0
  -28.6850  -13.0463   20.9846 C   0  0  0  0  0  0
  -25.2572  -13.8128   20.5645 C   0  0  0  0  0  0
  -24.1815  -13.0450   20.9185 C   0  0  0  0  0  0
  -24.6337  -11.6902   20.8703 C   0  0  0  0  0  0
  -23.9020  -10.4294   21.0394 C   0  0  0  0  0  0
  -24.3604   -9.4226   21.9195 C   0  0  0  0  0  0
  -23.6305   -8.2250   22.0755 C   0  0  0  0  0  0
  -22.4278   -8.0262   21.3541 C   0  0  0  0  0  0
  -21.9898   -9.0225   20.4634 C   0  0  0  0  0  0
  -22.7192  -10.2137   20.3029 C   0  0  0  0  0  0
  -21.6835   -6.0736   22.5290 C   0  0  0  0  0  0
  -21.3990   -6.5646   23.8212 C   0  0  0  0  0  0
  -21.3668   -5.6800   24.9184 C   0  0  0  0  0  0
  -21.6055   -4.3064   24.7234 C   0  0  0  0  0  0
  -21.8821   -3.8157   23.4346 C   0  0  0  0  0  0
  -21.9184   -4.6961   22.3407 C   0  0  0  0  0  0
  -22.7848  -13.5266   21.1847 C   0  0  0  0  0  0
  -22.1658   -4.2152   21.0978 F   0  0  0  0  0  0
  -21.5651   -3.4537   25.7739 F   0  0  0  0  0  0
  -30.0186  -13.3578   20.4424 N   0  0  0  0  0  0
  -26.2932  -12.9251   20.3202 N   0  0  0  0  0  0
  -25.9224  -11.6421   20.5651 N   0  0  0  0  0  0
  -22.0453  -12.8248   22.0373 N   0  0  0  0  0  0
  -25.4380  -15.1838   20.4051 N   0  0  0  0  0  0
  -31.8378  -14.6560   20.0714 O   0  0  0  0  0  0
  -21.6646   -6.8865   21.4242 O   0  0  0  0  0  0
  -22.3550  -14.5600   20.6725 O   0  0  0  0  0  0
  -24.6134  -31.8686   23.2092 C   0  0  0  0  0  0
  -25.9022  -32.4820   23.8390 C   0  0  1  0  0  0
  -27.2251  -27.4353   20.1281 C   0  0  0  0  0  0
  -25.5890  -33.8620   24.2344 N   0  0  0  0  0  0
  -23.3987  -30.4924   21.5508 C   0  0  2  0  0  0
  -24.8468  -28.9588   20.1165 C   0  0  0  0  0  0
  -22.7391  -29.4664   22.5003 C   0  0  0  0  0  0
  -18.0263  -28.1371   22.8493 C   0  0  0  0  0  0
  -24.1481  -36.7301   23.2640 C   0  0  0  0  0  0
  -25.9253  -30.8397   21.3592 C   0  0  0  0  0  0
  -26.0058  -29.4750   20.7101 C   0  0  0  0  0  0
  -27.2027  -28.7227   20.7088 C   0  0  0  0  0  0
  -26.0552  -26.9364   19.5154 C   0  0  0  0  0  0
  -24.8664  -27.6883   19.5130 C   0  0  0  0  0  0
  -23.6072  -29.8226   20.1663 C   0  0  0  0  0  0
  -25.4105  -36.3110   24.0343 C   0  0  1  0  0  0
  -20.5856  -28.3653   23.1322 C   0  0  2  0  0  0
  -20.6760  -26.9387   22.5426 C   0  0  0  0  0  0
  -19.5745  -26.6375   21.5212 C   0  0  0  0  0  0
  -18.1913  -26.7930   22.1601 C   0  0  0  0  0  0
  -19.1519  -28.8829   23.2904 C   0  0  0  0  0  0
  -18.9445  -30.1446   23.8898 C   0  0  0  0  0  0
  -17.6451  -30.6584   24.0551 C   0  0  0  0  0  0
  -25.9030  -34.9466   23.5145 C   0  0  0  0  0  0
  -16.5339  -29.9070   23.6353 C   0  0  0  0  0  0
  -16.7251  -28.6491   23.0358 C   0  0  0  0  0  0
  -26.4466  -31.6578   25.0703 C   0  0  0  0  0  0
  -25.3761  -31.3642   26.1468 C   0  0  0  0  0  0
  -27.0312  -30.3045   24.6053 C   0  0  0  0  0  0
  -27.6067  -32.4291   25.7467 C   0  0  0  0  0  0
  -27.5578  -37.1799   24.8463 C   0  0  0  0  0  0
  -21.4126  -29.3017   22.3725 N   0  0  0  0  0  0
  -26.4290  -37.3797   23.9411 N   0  0  0  0  0  0
  -24.6637  -31.0792   22.0988 N   0  0  0  0  0  0
  -23.4175  -28.8225   23.3063 O   0  0  0  0  0  0
  -28.3638  -26.6620   20.1664 O   0  0  0  0  0  0
  -26.5583  -34.8926   22.4697 O   0  0  0  0  0  0
  -23.5332  -32.1422   23.7524 O   0  0  0  0  0  0
  -29.6703  -20.7491   21.3654 C   0  0  0  0  0  0
  -30.5380  -19.7105   20.9950 C   0  0  0  0  0  0
  -29.9619  -22.0296   20.8806 C   0  0  0  0  0  0
  -31.7600  -21.1936   19.7525 C   0  0  0  0  0  0
  -29.3179  -17.6571   20.6885 C   0  0  0  0  0  0
  -31.5542  -17.6104   21.6908 C   0  0  0  0  0  0
  -29.0440  -16.2597   21.3068 C   0  0  0  0  0  0
  -31.2286  -16.2261   22.3072 C   0  0  0  0  0  0
  -32.8933  -21.4104   18.7716 C   0  0  0  0  0  0
  -29.2493  -24.3857   20.4649 C   0  0  0  0  0  0
  -28.2289  -25.4477   20.9269 C   0  0  0  0  0  0
  -31.5774  -19.9475   20.1798 N   0  0  0  0  0  0
  -31.0141  -22.2481   20.0740 N   0  0  0  0  0  0
  -30.3381  -18.3848   21.4434 N   0  0  0  0  0  0
  -30.2767  -15.4610   21.4783 N   0  0  0  0  0  0
  -29.1658  -23.1335   21.2287 N   0  0  0  0  0  0
  -31.4538  -12.4264   19.1359 H   0  0  0  0  0  0
  -30.3027  -11.3433   19.8535 H   0  0  0  0  0  0
  -29.7554  -11.7893   17.4374 H   0  0  0  0  0  0
  -29.6525  -13.4986   17.7612 H   0  0  0  0  0  0
  -27.8217  -11.2885   18.7966 H   0  0  0  0  0  0
  -27.3764  -12.6182   17.7588 H   0  0  0  0  0  0
  -27.6540  -14.2197   19.4732 H   0  0  0  0  0  0
  -28.6740  -12.0273   21.3723 H   0  0  0  0  0  0
  -28.4197  -13.6783   21.8303 H   0  0  0  0  0  0
  -25.2739   -9.5728   22.4806 H   0  0  0  0  0  0
  -24.0000   -7.4636   22.7466 H   0  0  0  0  0  0
  -21.0841   -8.8716   19.8935 H   0  0  0  0  0  0
  -22.3621  -10.9681   19.6135 H   0  0  0  0  0  0
  -21.1947   -7.6144   23.9731 H   0  0  0  0  0  0
  -21.1505   -6.0523   25.9099 H   0  0  0  0  0  0
  -22.0589   -2.7610   23.2848 H   0  0  0  0  0  0
  -22.3984  -11.9866   22.4767 H   0  0  0  0  0  0
  -21.1079  -13.1307   22.2553 H   0  0  0  0  0  0
  -24.6909  -15.8586   20.5279 H   0  0  0  0  0  0
  -26.3041  -15.6095   20.1113 H   0  0  0  0  0  0
  -26.7098  -32.5546   23.1163 H   0  0  0  0  0  0
  -25.0073  -33.9783   25.0513 H   0  0  0  0  0  0
  -22.6880  -31.3074   21.4107 H   0  0  0  0  0  0
  -23.3751  -35.9621   23.3307 H   0  0  0  0  0  0
  -24.3582  -36.8909   22.2053 H   0  0  0  0  0  0
  -23.7208  -37.6498   23.6655 H   0  0  0  0  0  0
  -26.0314  -31.6048   20.5905 H   0  0  0  0  0  0
  -26.8150  -30.8973   21.9738 H   0  0  0  0  0  0
  -28.0953  -29.1106   21.1806 H   0  0  0  0  0  0
  -26.0607  -25.9574   19.0562 H   0  0  0  0  0  0
  -23.9757  -27.2811   19.0568 H   0  0  0  0  0  0
  -23.7108  -30.5941   19.4027 H   0  0  0  0  0  0
  -22.7340  -29.2373   19.8733 H   0  0  0  0  0  0
  -25.1281  -36.1972   25.0834 H   0  0  0  0  0  0
  -20.9936  -28.3208   24.1444 H   0  0  0  0  0  0
  -20.5657  -26.2252   23.3605 H   0  0  0  0  0  0
  -21.6632  -26.7439   22.1206 H   0  0  0  0  0  0
  -19.6899  -25.6281   21.1243 H   0  0  0  0  0  0
  -19.6710  -27.3194   20.6751 H   0  0  0  0  0  0
  -17.4200  -26.6721   21.3970 H   0  0  0  0  0  0
  -18.0274  -26.0042   22.8965 H   0  0  0  0  0  0
  -19.7924  -30.7269   24.2250 H   0  0  0  0  0  0
  -17.5002  -31.6281   24.5128 H   0  0  0  0  0  0
  -15.5331  -30.2970   23.7687 H   0  0  0  0  0  0
  -15.8646  -28.0807   22.7084 H   0  0  0  0  0  0
  -24.5956  -30.6964   25.7787 H   0  0  0  0  0  0
  -24.8925  -32.2771   26.4948 H   0  0  0  0  0  0
  -25.8140  -30.8784   27.0200 H   0  0  0  0  0  0
  -26.2839  -29.6767   24.1184 H   0  0  0  0  0  0
  -27.4191  -29.7298   25.4473 H   0  0  0  0  0  0
  -27.8619  -30.4377   23.9121 H   0  0  0  0  0  0
  -27.2706  -33.3590   26.2058 H   0  0  0  0  0  0
  -28.3867  -32.6830   25.0276 H   0  0  0  0  0  0
  -28.0738  -31.8388   26.5363 H   0  0  0  0  0  0
  -28.2598  -38.0096   24.7527 H   0  0  0  0  0  0
  -28.1076  -36.2633   24.6277 H   0  0  0  0  0  0
  -27.2306  -37.1412   25.8868 H   0  0  0  0  0  0
  -20.9278  -29.8698   21.6916 H   0  0  0  0  0  0
  -26.0181  -38.2874   24.1427 H   0  0  0  0  0  0
  -28.8300  -20.5663   22.0155 H   0  0  0  0  0  0
  -28.3963  -18.2412   20.6676 H   0  0  0  0  0  0
  -29.6361  -17.5612   19.6502 H   0  0  0  0  0  0
  -32.1093  -17.4849   20.7605 H   0  0  0  0  0  0
  -32.2037  -18.1733   22.3662 H   0  0  0  0  0  0
  -28.3072  -15.7564   20.6968 H   0  0  0  0  0  0
  -28.5773  -16.3748   22.2871 H   0  0  0  0  0  0
  -30.7949  -16.3596   23.3010 H   0  0  0  0  0  0
  -32.1566  -15.6707   22.4568 H   0  0  0  0  0  0
  -33.1310  -20.4841   18.2451 H   0  0  0  0  0  0
  -33.8005  -21.7496   19.2727 H   0  0  0  0  0  0
  -32.6208  -22.1485   18.0182 H   0  0  0  0  0  0
  -30.2506  -24.7995   20.5499 H   0  0  0  0  0  0
  -29.0897  -24.1663   19.4079 H   0  0  0  0  0  0
  -28.3858  -25.6834   21.9830 H   0  0  0  0  0  0
  -27.2252  -25.0271   20.8581 H   0  0  0  0  0  0
  -28.3273  -22.9626   21.7766 H   0  0  0  0  0  0
  1 25  1  0  0  0
  1 30  2  0  0  0
  1 85  1  0  0  0
  2  3  1  0  0  0
  2 25  1  0  0  0
  2 87  1  0  0  0
  2 88  1  0  0  0
  3  4  1  0  0  0
  3 89  1  0  0  0
  3 90  1  0  0  0
  4  5  1  0  0  0
  4 91  1  0  0  0
  4 92  1  0  0  0
  5  6  1  0  0  0
  5 26  1  0  0  0
  5 93  1  0  0  0
  6 25  1  0  0  0
  6 94  1  0  0  0
  6 95  1  0  0  0
  7  8  2  0  0  0
  7 26  1  0  0  0
  7 29  1  0  0  0
  8  9  1  0  0  0
  8 22  1  0  0  0
  9 10  1  0  0  0
  9 27  2  0  0  0
 10 11  2  0  0  0
 10 15  1  0  0  0
 11 12  1  0  0  0
 11 96  1  0  0  0
 12 13  2  0  0  0
 12 97  1  0  0  0
 13 14  1  0  0  0
 13 31  1  0  0  0
 14 15  2  0  0  0
 14 98  1  0  0  0
 15 99  1  0  0  0
 16 17  2  0  0  0
 16 21  1  0  0  0
 16 31  1  0  0  0
 17 18  1  0  0  0
 17100  1  0  0  0
 18 19  2  0  0  0
 18101  1  0  0  0
 19 20  1  0  0  0
 19 24  1  0  0  0
 20 21  2  0  0  0
 20102  1  0  0  0
 21 23  1  0  0  0
 22 28  1  0  0  0
 22 32  2  0  0  0
 26 27  1  0  0  0
 28103  1  0  0  0
 28104  1  0  0  0
 29105  1  0  0  0
 29106  1  0  0  0
 33 34  1  0  0  0
 33 66  1  0  0  0
 33 70  2  0  0  0
 34 36  1  0  0  0
 34 59  1  0  0  0
 34107  1  0  0  0
 35 44  2  0  0  0
 35 45  1  0  0  0
 35 68  1  0  0  0
 36 56  1  0  0  0
 36108  1  0  0  0
 37 39  1  0  0  0
 37 47  1  0  0  0
 37 66  1  0  0  0
 37109  1  0  0  0
 38 43  2  0  0  0
 38 46  1  0  0  0
 38 47  1  0  0  0
 39 64  1  0  0  0
 39 67  2  0  0  0
 40 52  1  0  0  0
 40 53  2  0  0  0
 40 58  1  0  0  0
 41110  1  0  0  0
 41111  1  0  0  0
 41112  1  0  0  0
 41 48  1  0  0  0
 42 43  1  0  0  0
 42 66  1  0  0  0
 42113  1  0  0  0
 42114  1  0  0  0
 43 44  1  0  0  0
 44115  1  0  0  0
 45 46  2  0  0  0
 45116  1  0  0  0
 46117  1  0  0  0
 47118  1  0  0  0
 47119  1  0  0  0
 48 56  1  0  0  0
 48 65  1  0  0  0
 48120  1  0  0  0
 49 50  1  0  0  0
 49 53  1  0  0  0
 49 64  1  0  0  0
 49121  1  0  0  0
 50 51  1  0  0  0
 50122  1  0  0  0
 50123  1  0  0  0
 51 52  1  0  0  0
 51124  1  0  0  0
 51125  1  0  0  0
 52126  1  0  0  0
 52127  1  0  0  0
 53 54  1  0  0  0
 54 55  2  0  0  0
 54128  1  0  0  0
 55 57  1  0  0  0
 55129  1  0  0  0
 56 69  2  0  0  0
 57 58  2  0  0  0
 57130  1  0  0  0
 58131  1  0  0  0
 59 60  1  0  0  0
 59 61  1  0  0  0
 59 62  1  0  0  0
 60132  1  0  0  0
 60133  1  0  0  0
 60134  1  0  0  0
 61135  1  0  0  0
 61136  1  0  0  0
 61137  1  0  0  0
 62138  1  0  0  0
 62139  1  0  0  0
 62140  1  0  0  0
 63 65  1  0  0  0
 63141  1  0  0  0
 63142  1  0  0  0
 63143  1  0  0  0
 64144  1  0  0  0
 65145  1  0  0  0
 68 81  1  0  0  0
 71 72  2  0  0  0
 71 73  1  0  0  0
 71146  1  0  0  0
 72 82  1  0  0  0
 72 84  1  0  0  0
 73 83  2  0  0  0
 73 86  1  0  0  0
 74 79  1  0  0  0
 74 82  2  0  0  0
 74 83  1  0  0  0
 75 77  1  0  0  0
 75 84  1  0  0  0
 75147  1  0  0  0
 75148  1  0  0  0
 76 78  1  0  0  0
 76 84  1  0  0  0
 76149  1  0  0  0
 76150  1  0  0  0
 77 85  1  0  0  0
 77151  1  0  0  0
 77152  1  0  0  0
 78 85  1  0  0  0
 78153  1  0  0  0
 78154  1  0  0  0
 79155  1  0  0  0
 79156  1  0  0  0
 79157  1  0  0  0
 80 81  1  0  0  0
 80 86  1  0  0  0
 80158  1  0  0  0
 80159  1  0  0  0
 81160  1  0  0  0
 81161  1  0  0  0
 86162  1  0  0  0
M  ISO  4   1 100  68 101  81 101  85 100
M  END
> <chiral flag>
0

> <version>
0

> <s_m_source_file>
/data/baiqing/PycharmProjects/Reinvent-master-3.2/result/LINK_invent/BTK/process_docking_weight1_custom_sum_contain_oxygen_bond_distance_aromatic_linkinvent_7_9_3/rearranged_h_0187.sdf

> <i_m_source_file_index>
10

> <r_mmod_Potential_Energy-OPLS-2005>
-479.009399414062

> <r_mmod_Stretch_Energy-OPLS-2005>
40.4494819641113

> <r_mmod_Bend_Energy-OPLS-2005>
113.201072692871

> <r_mmod_Torsional_Energy-OPLS-2005>
344.821258544922

> <r_mmod_Improper_Torsional_Energy-OPLS-2005>
10.2128143310547

> <r_mmod_Van_der_Waal_Energy-OPLS-2005>
177.454147338867

> <r_mmod_Electrostatic_Energy-OPLS-2005>
-935.656433105469

> <r_mmod_Solvation_Energy-OPLS-2005>
-247.520111083984

> <b_mmod_Minimization_Converged-OPLS-2005>
0

> <r_mmod_RMS_Derivative-OPLS-2005>
6.12618207931519

$$$$
10
                    3D
 Structure written by MMmdl.
148157  0  0  1  0            999 V2000
  -30.4988  -15.0192   20.4052 C   0  0  0  0  0  0
  -30.4406  -12.6261   19.5212 C   0  0  0  0  0  0
  -29.5322  -12.5589   18.2699 C   0  0  0  0  0  0
  -28.0622  -12.3392   18.6743 C   0  0  0  0  0  0
  -27.6317  -13.2585   19.8482 C   0  0  2  0  0  0
  -28.6710  -13.2894   20.9911 C   0  0  0  0  0  0
  -25.2462  -13.8241   20.5725 C   0  0  0  0  0  0
  -24.1785  -13.0448   20.9230 C   0  0  0  0  0  0
  -24.6406  -11.6936   20.8747 C   0  0  0  0  0  0
  -23.9095  -10.4302   21.0398 C   0  0  0  0  0  0
  -24.3638   -9.4218   21.9177 C   0  0  0  0  0  0
  -23.6308   -8.2253   22.0749 C   0  0  0  0  0  0
  -22.4290   -8.0286   21.3546 C   0  0  0  0  0  0
  -21.9927   -9.0261   20.4652 C   0  0  0  0  0  0
  -22.7258  -10.2142   20.3055 C   0  0  0  0  0  0
  -21.6857   -6.0741   22.5283 C   0  0  0  0  0  0
  -21.4012   -6.5642   23.8217 C   0  0  0  0  0  0
  -21.3664   -5.6793   24.9181 C   0  0  0  0  0  0
  -21.6053   -4.3056   24.7230 C   0  0  0  0  0  0
  -21.8814   -3.8150   23.4353 C   0  0  0  0  0  0
  -21.9195   -4.6965   22.3409 C   0  0  0  0  0  0
  -22.7803  -13.5216   21.1881 C   0  0  0  0  0  0
  -22.1658   -4.2153   21.0983 F   0  0  0  0  0  0
  -21.5637   -3.4536   25.7744 F   0  0  0  0  0  0
  -29.9438  -13.7303   20.4046 N   0  0  0  0  0  0
  -26.2901  -12.9486   20.3276 N   0  0  0  0  0  0
  -25.9348  -11.6604   20.5744 N   0  0  0  0  0  0
  -22.0452  -12.8208   22.0442 N   0  0  0  0  0  0
  -25.4125  -15.1971   20.4152 N   0  0  0  0  0  0
  -31.6743  -15.1001   20.0268 O   0  0  0  0  0  0
  -21.6651   -6.8883   21.4244 O   0  0  0  0  0  0
  -22.3485  -14.5519   20.6724 O   0  0  0  0  0  0
  -24.6510  -31.8371   23.1820 C   0  0  0  0  0  0
  -25.9257  -32.4652   23.8242 C   0  0  1  0  0  0
  -27.2123  -27.0574   20.1552 C   0  0  0  0  0  0
  -25.5990  -33.8465   24.2155 N   0  0  0  0  0  0
  -23.4579  -30.4532   21.5284 C   0  0  2  0  0  0
  -24.9057  -28.8659   20.1053 C   0  0  0  0  0  0
  -22.7595  -29.4525   22.4839 C   0  0  0  0  0  0
  -18.0310  -28.1416   22.8466 C   0  0  0  0  0  0
  -24.1492  -36.7214   23.2635 C   0  0  0  0  0  0
  -26.0189  -30.6794   21.3974 C   0  0  0  0  0  0
  -26.0838  -29.2857   20.7333 C   0  0  0  0  0  0
  -27.2302  -28.3955   20.7460 C   0  0  0  0  0  0
  -26.0080  -26.7582   19.4784 C   0  0  0  0  0  0
  -24.8837  -27.6170   19.4654 C   0  0  0  0  0  0
  -23.6871  -29.7784   20.1487 C   0  0  0  0  0  0
  -25.4128  -36.2997   24.0311 C   0  0  1  0  0  0
  -20.5924  -28.3752   23.1210 C   0  0  2  0  0  0
  -20.6798  -26.9449   22.5399 C   0  0  0  0  0  0
  -19.5776  -26.6384   21.5212 C   0  0  0  0  0  0
  -18.1955  -26.7952   22.1613 C   0  0  0  0  0  0
  -19.1568  -28.8903   23.2828 C   0  0  0  0  0  0
  -18.9481  -30.1495   23.8858 C   0  0  0  0  0  0
  -17.6476  -30.6611   24.0555 C   0  0  0  0  0  0
  -25.9096  -34.9385   23.5040 C   0  0  0  0  0  0
  -16.5367  -29.9096   23.6347 C   0  0  0  0  0  0
  -16.7294  -28.6514   23.0370 C   0  0  0  0  0  0
  -26.4544  -31.6561   25.0729 C   0  0  0  0  0  0
  -25.3701  -31.3803   26.1406 C   0  0  0  0  0  0
  -27.0411  -30.2927   24.6426 C   0  0  0  0  0  0
  -27.6081  -32.4338   25.7503 C   0  0  0  0  0  0
  -27.5595  -37.1739   24.8443 C   0  0  0  0  0  0
  -21.4286  -29.3060   22.3568 N   0  0  0  0  0  0
  -26.4274  -37.3734   23.9434 N   0  0  0  0  0  0
  -24.7291  -31.0143   22.0896 N   0  0  0  0  0  0
  -23.4192  -28.8101   23.3049 O   0  0  0  0  0  0
  -28.2362  -26.0279   20.3134 O   0  0  0  0  0  0
  -26.5684  -34.8890   22.4623 O   0  0  0  0  0  0
  -23.5606  -32.1305   23.6972 O   0  0  0  0  0  0
  -27.2417  -22.1701   20.2612 C   0  0  0  0  0  0
  -29.3541  -21.9591   20.3085 C   0  0  0  0  0  0
  -28.3906  -23.0160   20.1216 C   0  0  0  0  0  0
  -30.7130  -18.7317   20.6651 C   0  0  0  0  0  0
  -29.2791  -19.1235   20.9546 C   0  0  2  0  0  0
  -29.7189  -17.7028   20.1486 C   0  0  2  0  0  0
  -28.3518  -24.6290   19.5831 C   0  0  0  0  0  0
  -27.4743  -20.8484   20.4493 N   0  0  0  0  0  0
  -28.8137  -20.5984   20.4592 N   0  0  0  0  0  0
  -29.7108  -16.1974   20.6556 N   0  0  0  0  0  0
  -31.4771  -12.7789   19.2187 H   0  0  0  0  0  0
  -30.4295  -11.6717   20.0506 H   0  0  0  0  0  0
  -29.8606  -11.7645   17.5986 H   0  0  0  0  0  0
  -29.6233  -13.4891   17.7065 H   0  0  0  0  0  0
  -27.9523  -11.2938   18.9619 H   0  0  0  0  0  0
  -27.4073  -12.4879   17.8143 H   0  0  0  0  0  0
  -27.5940  -14.2652   19.4311 H   0  0  0  0  0  0
  -28.7701  -12.3085   21.4571 H   0  0  0  0  0  0
  -28.3586  -13.9731   21.7810 H   0  0  0  0  0  0
  -25.2786   -9.5691   22.4755 H   0  0  0  0  0  0
  -24.0020   -7.4645   22.7466 H   0  0  0  0  0  0
  -21.0856   -8.8785   19.8965 H   0  0  0  0  0  0
  -22.3709  -10.9680   19.6166 H   0  0  0  0  0  0
  -21.1985   -7.6144   23.9719 H   0  0  0  0  0  0
  -21.1496   -6.0525   25.9083 H   0  0  0  0  0  0
  -22.0586   -2.7610   23.2858 H   0  0  0  0  0  0
  -22.4063  -11.9884   22.4853 H   0  0  0  0  0  0
  -21.1063  -13.1229   22.2623 H   0  0  0  0  0  0
  -24.6435  -15.8498   20.5249 H   0  0  0  0  0  0
  -26.2551  -15.6366   20.0674 H   0  0  0  0  0  0
  -26.7327  -32.5207   23.0964 H   0  0  0  0  0  0
  -25.0144  -33.9580   25.0310 H   0  0  0  0  0  0
  -22.7667  -31.2828   21.3679 H   0  0  0  0  0  0
  -23.3802  -35.9491   23.3219 H   0  0  0  0  0  0
  -24.3589  -36.8928   22.2063 H   0  0  0  0  0  0
  -23.7180  -37.6356   23.6728 H   0  0  0  0  0  0
  -26.1971  -31.4329   20.6287 H   0  0  0  0  0  0
  -26.8805  -30.7175   22.0524 H   0  0  0  0  0  0
  -28.1190  -28.7045   21.2771 H   0  0  0  0  0  0
  -25.8723  -25.7999   19.0032 H   0  0  0  0  0  0
  -23.9792  -27.2862   18.9732 H   0  0  0  0  0  0
  -23.8312  -30.5523   19.3937 H   0  0  0  0  0  0
  -22.7989  -29.2267   19.8352 H   0  0  0  0  0  0
  -25.1309  -36.1804   25.0799 H   0  0  0  0  0  0
  -21.0004  -28.3350   24.1338 H   0  0  0  0  0  0
  -20.5692  -26.2375   23.3630 H   0  0  0  0  0  0
  -21.6668  -26.7454   22.1204 H   0  0  0  0  0  0
  -19.6948  -25.6279   21.1287 H   0  0  0  0  0  0
  -19.6730  -27.3158   20.6713 H   0  0  0  0  0  0
  -17.4229  -26.6698   21.4013 H   0  0  0  0  0  0
  -18.0357  -26.0106   22.9013 H   0  0  0  0  0  0
  -19.7955  -30.7326   24.2215 H   0  0  0  0  0  0
  -17.5026  -31.6283   24.5166 H   0  0  0  0  0  0
  -15.5370  -30.2985   23.7698 H   0  0  0  0  0  0
  -15.8689  -28.0810   22.7131 H   0  0  0  0  0  0
  -24.5910  -30.7115   25.7738 H   0  0  0  0  0  0
  -24.8856  -32.2991   26.4714 H   0  0  0  0  0  0
  -25.7948  -30.9069   27.0263 H   0  0  0  0  0  0
  -26.3060  -29.6637   24.1395 H   0  0  0  0  0  0
  -27.3902  -29.7265   25.5077 H   0  0  0  0  0  0
  -27.9022  -30.4117   23.9847 H   0  0  0  0  0  0
  -27.2702  -33.3671   26.2014 H   0  0  0  0  0  0
  -28.3909  -32.6845   25.0336 H   0  0  0  0  0  0
  -28.0731  -31.8512   26.5461 H   0  0  0  0  0  0
  -28.2511  -38.0137   24.7626 H   0  0  0  0  0  0
  -28.1191  -36.2675   24.6085 H   0  0  0  0  0  0
  -27.2341  -37.1148   25.8845 H   0  0  0  0  0  0
  -20.9524  -29.8715   21.6680 H   0  0  0  0  0  0
  -26.0126  -38.2777   24.1525 H   0  0  0  0  0  0
  -26.2081  -22.4756   20.1710 H   0  0  0  0  0  0
  -30.4302  -22.0612   20.3163 H   0  0  0  0  0  0
  -31.3182  -18.4542   21.5250 H   0  0  0  0  0  0
  -31.2472  -19.3067   19.9111 H   0  0  0  0  0  0
  -28.9342  -18.9922   21.9790 H   0  0  0  0  0  0
  -29.5457  -17.7589   19.0751 H   0  0  0  0  0  0
  -27.6127  -24.6576   18.7870 H   0  0  0  0  0  0
  -29.2722  -24.7651   19.0155 H   0  0  0  0  0  0
  -28.8257  -15.9495   21.0741 H   0  0  0  0  0  0
  1 25  1  0  0  0
  1 30  2  0  0  0
  1 80  1  0  0  0
  2  3  1  0  0  0
  2 25  1  0  0  0
  2 81  1  0  0  0
  2 82  1  0  0  0
  3  4  1  0  0  0
  3 83  1  0  0  0
  3 84  1  0  0  0
  4  5  1  0  0  0
  4 85  1  0  0  0
  4 86  1  0  0  0
  5  6  1  0  0  0
  5 26  1  0  0  0
  5 87  1  0  0  0
  6 25  1  0  0  0
  6 88  1  0  0  0
  6 89  1  0  0  0
  7  8  2  0  0  0
  7 26  1  0  0  0
  7 29  1  0  0  0
  8  9  1  0  0  0
  8 22  1  0  0  0
  9 10  1  0  0  0
  9 27  2  0  0  0
 10 11  2  0  0  0
 10 15  1  0  0  0
 11 12  1  0  0  0
 11 90  1  0  0  0
 12 13  2  0  0  0
 12 91  1  0  0  0
 13 14  1  0  0  0
 13 31  1  0  0  0
 14 15  2  0  0  0
 14 92  1  0  0  0
 15 93  1  0  0  0
 16 17  2  0  0  0
 16 21  1  0  0  0
 16 31  1  0  0  0
 17 18  1  0  0  0
 17 94  1  0  0  0
 18 19  2  0  0  0
 18 95  1  0  0  0
 19 20  1  0  0  0
 19 24  1  0  0  0
 20 21  2  0  0  0
 20 96  1  0  0  0
 21 23  1  0  0  0
 22 28  1  0  0  0
 22 32  2  0  0  0
 26 27  1  0  0  0
 28 97  1  0  0  0
 28 98  1  0  0  0
 29 99  1  0  0  0
 29100  1  0  0  0
 33 34  1  0  0  0
 33 66  1  0  0  0
 33 70  2  0  0  0
 34 36  1  0  0  0
 34 59  1  0  0  0
 34101  1  0  0  0
 35 44  2  0  0  0
 35 45  1  0  0  0
 35 68  1  0  0  0
 36 56  1  0  0  0
 36102  1  0  0  0
 37 39  1  0  0  0
 37 47  1  0  0  0
 37 66  1  0  0  0
 37103  1  0  0  0
 38 43  2  0  0  0
 38 46  1  0  0  0
 38 47  1  0  0  0
 39 64  1  0  0  0
 39 67  2  0  0  0
 40 52  1  0  0  0
 40 53  2  0  0  0
 40 58  1  0  0  0
 41104  1  0  0  0
 41105  1  0  0  0
 41106  1  0  0  0
 41 48  1  0  0  0
 42 43  1  0  0  0
 42 66  1  0  0  0
 42107  1  0  0  0
 42108  1  0  0  0
 43 44  1  0  0  0
 44109  1  0  0  0
 45 46  2  0  0  0
 45110  1  0  0  0
 46111  1  0  0  0
 47112  1  0  0  0
 47113  1  0  0  0
 48 56  1  0  0  0
 48 65  1  0  0  0
 48114  1  0  0  0
 49 50  1  0  0  0
 49 53  1  0  0  0
 49 64  1  0  0  0
 49115  1  0  0  0
 50 51  1  0  0  0
 50116  1  0  0  0
 50117  1  0  0  0
 51 52  1  0  0  0
 51118  1  0  0  0
 51119  1  0  0  0
 52120  1  0  0  0
 52121  1  0  0  0
 53 54  1  0  0  0
 54 55  2  0  0  0
 54122  1  0  0  0
 55 57  1  0  0  0
 55123  1  0  0  0
 56 69  2  0  0  0
 57 58  2  0  0  0
 57124  1  0  0  0
 58125  1  0  0  0
 59 60  1  0  0  0
 59 61  1  0  0  0
 59 62  1  0  0  0
 60126  1  0  0  0
 60127  1  0  0  0
 60128  1  0  0  0
 61129  1  0  0  0
 61130  1  0  0  0
 61131  1  0  0  0
 62132  1  0  0  0
 62133  1  0  0  0
 62134  1  0  0  0
 63 65  1  0  0  0
 63135  1  0  0  0
 63136  1  0  0  0
 63137  1  0  0  0
 64138  1  0  0  0
 65139  1  0  0  0
 68 77  1  0  0  0
 71 73  1  0  0  0
 71 78  2  0  0  0
 71140  1  0  0  0
 72 73  2  0  0  0
 72 79  1  0  0  0
 72141  1  0  0  0
 73 77  1  0  0  0
 74 75  1  0  0  0
 74 76  1  0  0  0
 74142  1  0  0  0
 74143  1  0  0  0
 75 76  1  0  0  0
 75 79  1  0  0  0
 75144  1  0  0  0
 76 80  1  0  0  0
 76145  1  0  0  0
 77146  1  0  0  0
 77147  1  0  0  0
 78 79  1  0  0  0
 80148  1  0  0  0
M  ISO  4   1 100  68 101  77 101  80 100
M  END
> <chiral flag>
0

> <version>
0

> <s_m_source_file>
/data/baiqing/PycharmProjects/Reinvent-master-3.2/result/LINK_invent/BTK/process_docking_weight1_custom_sum_contain_oxygen_bond_distance_aromatic_linkinvent_7_9_3/rearranged_h_0187.sdf

> <i_m_source_file_index>
11

> <r_mmod_Potential_Energy-OPLS-2005>
792.46044921875

> <r_mmod_Stretch_Energy-OPLS-2005>
336.700134277344

> <r_mmod_Bend_Energy-OPLS-2005>
345.674621582031

> <r_mmod_Torsional_Energy-OPLS-2005>
318.704162597656

> <r_mmod_Improper_Torsional_Energy-OPLS-2005>
9.47023868560791

> <r_mmod_Van_der_Waal_Energy-OPLS-2005>
108.008377075195

> <r_mmod_Electrostatic_Energy-OPLS-2005>
-353.99560546875

> <r_mmod_Solvation_Energy-OPLS-2005>
-232.77604675293

> <b_mmod_Minimization_Converged-OPLS-2005>
0

> <r_mmod_RMS_Derivative-OPLS-2005>
1.70936250686646

$$$$
11
                    3D
 Structure written by MMmdl.
161170  0  0  1  0            999 V2000
  -30.7234  -14.4243   20.5538 C   0  0  0  0  0  0
  -30.4148  -12.2752   19.4159 C   0  0  0  0  0  0
  -29.4887  -12.4858   18.2026 C   0  0  0  0  0  0
  -28.0108  -12.3543   18.6192 C   0  0  0  0  0  0
  -27.6582  -13.2003   19.8725 C   0  0  2  0  0  0
  -28.7008  -12.9904   20.9944 C   0  0  0  0  0  0
  -25.2585  -13.8158   20.5688 C   0  0  0  0  0  0
  -24.1829  -13.0440   20.9171 C   0  0  0  0  0  0
  -24.6371  -11.6900   20.8732 C   0  0  0  0  0  0
  -23.9039  -10.4292   21.0406 C   0  0  0  0  0  0
  -24.3600   -9.4215   21.9185 C   0  0  0  0  0  0
  -23.6284   -8.2245   22.0751 C   0  0  0  0  0  0
  -22.4268   -8.0282   21.3542 C   0  0  0  0  0  0
  -21.9891   -9.0254   20.4647 C   0  0  0  0  0  0
  -22.7210  -10.2140   20.3055 C   0  0  0  0  0  0
  -21.6857   -6.0728   22.5277 C   0  0  0  0  0  0
  -21.4022   -6.5636   23.8210 C   0  0  0  0  0  0
  -21.3657   -5.6788   24.9171 C   0  0  0  0  0  0
  -21.6046   -4.3049   24.7226 C   0  0  0  0  0  0
  -21.8823   -3.8142   23.4345 C   0  0  0  0  0  0
  -21.9195   -4.6956   22.3400 C   0  0  0  0  0  0
  -22.7864  -13.5248   21.1843 C   0  0  0  0  0  0
  -22.1662   -4.2142   21.0980 F   0  0  0  0  0  0
  -21.5626   -3.4532   25.7733 F   0  0  0  0  0  0
  -30.0325  -13.2637   20.4319 N   0  0  0  0  0  0
  -26.3010  -12.9309   20.3369 N   0  0  0  0  0  0
  -25.9295  -11.6472   20.5768 N   0  0  0  0  0  0
  -22.0506  -12.8242   22.0399 N   0  0  0  0  0  0
  -25.4341  -15.1872   20.4108 N   0  0  0  0  0  0
  -31.8845  -14.5656   20.1533 O   0  0  0  0  0  0
  -21.6651   -6.8872   21.4233 O   0  0  0  0  0  0
  -22.3547  -14.5559   20.6705 O   0  0  0  0  0  0
  -24.6108  -31.8706   23.2147 C   0  0  0  0  0  0
  -25.9021  -32.4836   23.8425 C   0  0  1  0  0  0
  -27.2234  -27.4543   20.0768 C   0  0  0  0  0  0
  -25.5903  -33.8637   24.2360 N   0  0  0  0  0  0
  -23.3974  -30.4968   21.5538 C   0  0  2  0  0  0
  -24.8371  -28.9676   20.1141 C   0  0  0  0  0  0
  -22.7393  -29.4651   22.4986 C   0  0  0  0  0  0
  -18.0286  -28.1359   22.8486 C   0  0  0  0  0  0
  -24.1484  -36.7329   23.2636 C   0  0  0  0  0  0
  -25.9243  -30.8347   21.3686 C   0  0  0  0  0  0
  -25.9942  -29.4720   20.7164 C   0  0  0  0  0  0
  -27.1825  -28.7142   20.7109 C   0  0  0  0  0  0
  -26.0468  -26.9648   19.4617 C   0  0  0  0  0  0
  -24.8548  -27.7090   19.4915 C   0  0  0  0  0  0
  -23.6029  -29.8364   20.1646 C   0  0  0  0  0  0
  -25.4104  -36.3121   24.0334 C   0  0  1  0  0  0
  -20.5872  -28.3638   23.1321 C   0  0  2  0  0  0
  -20.6759  -26.9377   22.5403 C   0  0  0  0  0  0
  -19.5731  -26.6370   21.5195 C   0  0  0  0  0  0
  -18.1925  -26.7907   22.1621 C   0  0  0  0  0  0
  -19.1535  -28.8815   23.2908 C   0  0  0  0  0  0
  -18.9461  -30.1426   23.8909 C   0  0  0  0  0  0
  -17.6458  -30.6568   24.0552 C   0  0  0  0  0  0
  -25.9029  -34.9480   23.5142 C   0  0  0  0  0  0
  -16.5353  -29.9067   23.6314 C   0  0  0  0  0  0
  -16.7279  -28.6478   23.0341 C   0  0  0  0  0  0
  -26.4458  -31.6616   25.0746 C   0  0  0  0  0  0
  -25.3739  -31.3719   26.1509 C   0  0  0  0  0  0
  -27.0298  -30.3066   24.6110 C   0  0  0  0  0  0
  -27.6053  -32.4325   25.7488 C   0  0  0  0  0  0
  -27.5589  -37.1822   24.8467 C   0  0  0  0  0  0
  -21.4131  -29.3008   22.3735 N   0  0  0  0  0  0
  -26.4307  -37.3793   23.9404 N   0  0  0  0  0  0
  -24.6619  -31.0812   22.1043 N   0  0  0  0  0  0
  -23.4180  -28.8192   23.3013 O   0  0  0  0  0  0
  -28.4153  -26.7690   20.1018 O   0  0  0  0  0  0
  -26.5579  -34.8922   22.4700 O   0  0  0  0  0  0
  -23.5307  -32.1472   23.7534 O   0  0  0  0  0  0
  -28.5503  -21.9952   20.5609 C   0  0  0  0  0  0
  -30.2261  -21.5221   18.4501 C   0  0  0  0  0  0
  -28.7043  -23.0187   19.5972 C   0  0  0  0  0  0
  -29.5317  -22.7437   18.4744 C   0  0  0  0  0  0
  -29.2429  -20.7822   20.4137 C   0  0  0  0  0  0
  -28.9933  -17.6718   19.9400 C   0  0  0  0  0  0
  -29.4625  -17.5030   22.3451 C   0  0  0  0  0  0
  -29.8129  -16.4130   19.6595 C   0  0  0  0  0  0
  -30.2022  -16.1612   22.1346 C   0  0  0  0  0  0
  -29.6137  -18.4208   21.1249 C   0  0  0  0  0  0
  -27.9401  -24.3244   19.8241 C   0  0  0  0  0  0
  -28.5976  -25.6161   19.2836 C   0  0  0  0  0  0
  -30.1039  -20.5714   19.3996 N   0  0  0  0  0  0
  -29.9748  -15.5158   20.8240 N   0  0  0  0  0  0
  -29.0241  -19.7423   21.3284 N   0  0  0  0  0  0
  -29.7144  -23.7975   17.1131 Cl  0  0  0  0  0  0
  -31.4584  -12.3679   19.1111 H   0  0  0  0  0  0
  -30.3072  -11.2655   19.8156 H   0  0  0  0  0  0
  -29.7212  -11.7590   17.4220 H   0  0  0  0  0  0
  -29.6639  -13.4701   17.7683 H   0  0  0  0  0  0
  -27.8230  -11.2993   18.8254 H   0  0  0  0  0  0
  -27.3593  -12.6211   17.7866 H   0  0  0  0  0  0
  -27.6987  -14.2463   19.5709 H   0  0  0  0  0  0
  -28.6606  -11.9652   21.3674 H   0  0  0  0  0  0
  -28.4798  -13.6284   21.8511 H   0  0  0  0  0  0
  -25.2742   -9.5712   22.4757 H   0  0  0  0  0  0
  -24.0009   -7.4638   22.7461 H   0  0  0  0  0  0
  -21.0822   -8.8770   19.8947 H   0  0  0  0  0  0
  -22.3658  -10.9687   19.6170 H   0  0  0  0  0  0
  -21.2021   -7.6143   23.9710 H   0  0  0  0  0  0
  -21.1474   -6.0521   25.9078 H   0  0  0  0  0  0
  -22.0601   -2.7601   23.2851 H   0  0  0  0  0  0
  -22.4117  -11.9895   22.4785 H   0  0  0  0  0  0
  -21.1132  -13.1292   22.2601 H   0  0  0  0  0  0
  -24.6775  -15.8523   20.5330 H   0  0  0  0  0  0
  -26.3013  -15.6221   20.1242 H   0  0  0  0  0  0
  -26.7092  -32.5520   23.1189 H   0  0  0  0  0  0
  -25.0074  -33.9794   25.0518 H   0  0  0  0  0  0
  -22.6851  -31.3133   21.4198 H   0  0  0  0  0  0
  -23.3732  -35.9682   23.3311 H   0  0  0  0  0  0
  -24.3588  -36.8921   22.2055 H   0  0  0  0  0  0
  -23.7256  -37.6546   23.6637 H   0  0  0  0  0  0
  -26.0387  -31.5997   20.5996 H   0  0  0  0  0  0
  -26.8120  -30.8830   21.9884 H   0  0  0  0  0  0
  -28.0768  -29.0971   21.1845 H   0  0  0  0  0  0
  -26.0142  -26.0193   18.9486 H   0  0  0  0  0  0
  -23.9634  -27.3155   19.0203 H   0  0  0  0  0  0
  -23.7200  -30.6157   19.4109 H   0  0  0  0  0  0
  -22.7236  -29.2638   19.8634 H   0  0  0  0  0  0
  -25.1281  -36.1996   25.0830 H   0  0  0  0  0  0
  -20.9986  -28.3184   24.1432 H   0  0  0  0  0  0
  -20.5636  -26.2245   23.3585 H   0  0  0  0  0  0
  -21.6631  -26.7396   22.1202 H   0  0  0  0  0  0
  -19.6879  -25.6283   21.1217 H   0  0  0  0  0  0
  -19.6675  -27.3188   20.6736 H   0  0  0  0  0  0
  -17.4192  -26.6673   21.4031 H   0  0  0  0  0  0
  -18.0333  -26.0042   22.9013 H   0  0  0  0  0  0
  -19.7935  -30.7243   24.2276 H   0  0  0  0  0  0
  -17.5011  -31.6242   24.5159 H   0  0  0  0  0  0
  -15.5350  -30.2962   23.7608 H   0  0  0  0  0  0
  -15.8695  -28.0793   22.7042 H   0  0  0  0  0  0
  -24.5905  -30.7057   25.7869 H   0  0  0  0  0  0
  -24.8922  -32.2868   26.4973 H   0  0  0  0  0  0
  -25.8097  -30.8898   27.0265 H   0  0  0  0  0  0
  -26.2851  -29.6821   24.1152 H   0  0  0  0  0  0
  -27.4084  -29.7299   25.4557 H   0  0  0  0  0  0
  -27.8674  -30.4413   23.9258 H   0  0  0  0  0  0
  -27.2707  -33.3620   26.2107 H   0  0  0  0  0  0
  -28.3840  -32.6887   25.0294 H   0  0  0  0  0  0
  -28.0752  -31.8420   26.5366 H   0  0  0  0  0  0
  -28.2610  -38.0114   24.7494 H   0  0  0  0  0  0
  -28.1075  -36.2638   24.6309 H   0  0  0  0  0  0
  -27.2300  -37.1496   25.8869 H   0  0  0  0  0  0
  -20.9275  -29.8807   21.7024 H   0  0  0  0  0  0
  -26.0189  -38.2870   24.1398 H   0  0  0  0  0  0
  -27.8817  -22.1420   21.3983 H   0  0  0  0  0  0
  -30.8863  -21.2891   17.6277 H   0  0  0  0  0  0
  -27.9525  -17.4170   20.1430 H   0  0  0  0  0  0
  -28.9835  -18.2798   19.0361 H   0  0  0  0  0  0
  -29.8522  -17.9877   23.2417 H   0  0  0  0  0  0
  -28.4059  -17.3114   22.5407 H   0  0  0  0  0  0
  -30.7951  -16.7264   19.2955 H   0  0  0  0  0  0
  -29.3502  -15.8680   18.8348 H   0  0  0  0  0  0
  -29.9130  -15.4672   22.9270 H   0  0  0  0  0  0
  -31.2737  -16.3356   22.2555 H   0  0  0  0  0  0
  -30.6801  -18.5672   20.9425 H   0  0  0  0  0  0
  -27.7968  -24.4449   20.8990 H   0  0  0  0  0  0
  -26.9441  -24.1843   19.4082 H   0  0  0  0  0  0
  -29.6789  -25.4800   19.2708 H   0  0  0  0  0  0
  -28.2967  -25.8185   18.2551 H   0  0  0  0  0  0
  -28.3469  -19.8688   22.0726 H   0  0  0  0  0  0
  1 25  1  0  0  0
  1 30  2  0  0  0
  1 84  1  0  0  0
  2  3  1  0  0  0
  2 25  1  0  0  0
  2 87  1  0  0  0
  2 88  1  0  0  0
  3  4  1  0  0  0
  3 89  1  0  0  0
  3 90  1  0  0  0
  4  5  1  0  0  0
  4 91  1  0  0  0
  4 92  1  0  0  0
  5  6  1  0  0  0
  5 26  1  0  0  0
  5 93  1  0  0  0
  6 25  1  0  0  0
  6 94  1  0  0  0
  6 95  1  0  0  0
  7  8  2  0  0  0
  7 26  1  0  0  0
  7 29  1  0  0  0
  8  9  1  0  0  0
  8 22  1  0  0  0
  9 10  1  0  0  0
  9 27  2  0  0  0
 10 11  2  0  0  0
 10 15  1  0  0  0
 11 12  1  0  0  0
 11 96  1  0  0  0
 12 13  2  0  0  0
 12 97  1  0  0  0
 13 14  1  0  0  0
 13 31  1  0  0  0
 14 15  2  0  0  0
 14 98  1  0  0  0
 15 99  1  0  0  0
 16 17  2  0  0  0
 16 21  1  0  0  0
 16 31  1  0  0  0
 17 18  1  0  0  0
 17100  1  0  0  0
 18 19  2  0  0  0
 18101  1  0  0  0
 19 20  1  0  0  0
 19 24  1  0  0  0
 20 21  2  0  0  0
 20102  1  0  0  0
 21 23  1  0  0  0
 22 28  1  0  0  0
 22 32  2  0  0  0
 26 27  1  0  0  0
 28103  1  0  0  0
 28104  1  0  0  0
 29105  1  0  0  0
 29106  1  0  0  0
 33 34  1  0  0  0
 33 66  1  0  0  0
 33 70  2  0  0  0
 34 36  1  0  0  0
 34 59  1  0  0  0
 34107  1  0  0  0
 35 44  2  0  0  0
 35 45  1  0  0  0
 35 68  1  0  0  0
 36 56  1  0  0  0
 36108  1  0  0  0
 37 39  1  0  0  0
 37 47  1  0  0  0
 37 66  1  0  0  0
 37109  1  0  0  0
 38 43  2  0  0  0
 38 46  1  0  0  0
 38 47  1  0  0  0
 39 64  1  0  0  0
 39 67  2  0  0  0
 40 52  1  0  0  0
 40 53  2  0  0  0
 40 58  1  0  0  0
 41110  1  0  0  0
 41111  1  0  0  0
 41112  1  0  0  0
 41 48  1  0  0  0
 42 43  1  0  0  0
 42 66  1  0  0  0
 42113  1  0  0  0
 42114  1  0  0  0
 43 44  1  0  0  0
 44115  1  0  0  0
 45 46  2  0  0  0
 45116  1  0  0  0
 46117  1  0  0  0
 47118  1  0  0  0
 47119  1  0  0  0
 48 56  1  0  0  0
 48 65  1  0  0  0
 48120  1  0  0  0
 49 50  1  0  0  0
 49 53  1  0  0  0
 49 64  1  0  0  0
 49121  1  0  0  0
 50 51  1  0  0  0
 50122  1  0  0  0
 50123  1  0  0  0
 51 52  1  0  0  0
 51124  1  0  0  0
 51125  1  0  0  0
 52126  1  0  0  0
 52127  1  0  0  0
 53 54  1  0  0  0
 54 55  2  0  0  0
 54128  1  0  0  0
 55 57  1  0  0  0
 55129  1  0  0  0
 56 69  2  0  0  0
 57 58  2  0  0  0
 57130  1  0  0  0
 58131  1  0  0  0
 59 60  1  0  0  0
 59 61  1  0  0  0
 59 62  1  0  0  0
 60132  1  0  0  0
 60133  1  0  0  0
 60134  1  0  0  0
 61135  1  0  0  0
 61136  1  0  0  0
 61137  1  0  0  0
 62138  1  0  0  0
 62139  1  0  0  0
 62140  1  0  0  0
 63 65  1  0  0  0
 63141  1  0  0  0
 63142  1  0  0  0
 63143  1  0  0  0
 64144  1  0  0  0
 65145  1  0  0  0
 68 82  1  0  0  0
 71 73  2  0  0  0
 71 75  1  0  0  0
 71146  1  0  0  0
 72 74  2  0  0  0
 72 83  1  0  0  0
 72147  1  0  0  0
 73 74  1  0  0  0
 73 81  1  0  0  0
 74 86  1  0  0  0
 75 83  2  0  0  0
 75 85  1  0  0  0
 76 78  1  0  0  0
 76 80  1  0  0  0
 76148  1  0  0  0
 76149  1  0  0  0
 77 79  1  0  0  0
 77 80  1  0  0  0
 77150  1  0  0  0
 77151  1  0  0  0
 78 84  1  0  0  0
 78152  1  0  0  0
 78153  1  0  0  0
 79 84  1  0  0  0
 79154  1  0  0  0
 79155  1  0  0  0
 80 85  1  0  0  0
 80156  1  0  0  0
 81 82  1  0  0  0
 81157  1  0  0  0
 81158  1  0  0  0
 82159  1  0  0  0
 82160  1  0  0  0
 85161  1  0  0  0
M  ISO  4   1 100  68 101  82 101  84 100
M  END
> <chiral flag>
0

> <version>
0

> <s_m_source_file>
/data/baiqing/PycharmProjects/Reinvent-master-3.2/result/LINK_invent/BTK/process_docking_weight1_custom_sum_contain_oxygen_bond_distance_aromatic_linkinvent_7_9_3/rearranged_h_0187.sdf

> <i_m_source_file_index>
12

> <r_mmod_Potential_Energy-OPLS-2005>
24.320219039917

> <r_mmod_Stretch_Energy-OPLS-2005>
34.7844009399414

> <r_mmod_Bend_Energy-OPLS-2005>
128.393905639648

> <r_mmod_Torsional_Energy-OPLS-2005>
314.961547851562

> <r_mmod_Improper_Torsional_Energy-OPLS-2005>
11.8951425552368

> <r_mmod_Van_der_Waal_Energy-OPLS-2005>
175.0615234375

> <r_mmod_Electrostatic_Energy-OPLS-2005>
-438.518737792969

> <r_mmod_Solvation_Energy-OPLS-2005>
-216.395935058594

> <b_mmod_Minimization_Converged-OPLS-2005>
0

> <r_mmod_RMS_Derivative-OPLS-2005>
2.45804834365845

$$$$
12
                    3D
 Structure written by MMmdl.
158166  0  0  1  0            999 V2000
  -30.6519  -14.7055   20.5159 C   0  0  0  0  0  0
  -30.4242  -12.4424   19.4696 C   0  0  0  0  0  0
  -29.5045  -12.5161   18.2326 C   0  0  0  0  0  0
  -28.0310  -12.3460   18.6459 C   0  0  0  0  0  0
  -27.6447  -13.2346   19.8589 C   0  0  2  0  0  0
  -28.6883  -13.1494   20.9937 C   0  0  0  0  0  0
  -25.2518  -13.8208   20.5715 C   0  0  0  0  0  0
  -24.1804  -13.0444   20.9197 C   0  0  0  0  0  0
  -24.6399  -11.6922   20.8742 C   0  0  0  0  0  0
  -23.9075  -10.4294   21.0398 C   0  0  0  0  0  0
  -24.3627   -9.4211   21.9177 C   0  0  0  0  0  0
  -23.6304   -8.2245   22.0751 C   0  0  0  0  0  0
  -22.4286   -8.0281   21.3544 C   0  0  0  0  0  0
  -21.9917   -9.0253   20.4643 C   0  0  0  0  0  0
  -22.7245  -10.2133   20.3052 C   0  0  0  0  0  0
  -21.6858   -6.0737   22.5280 C   0  0  0  0  0  0
  -21.4014   -6.5638   23.8213 C   0  0  0  0  0  0
  -21.3663   -5.6792   24.9176 C   0  0  0  0  0  0
  -21.6049   -4.3055   24.7226 C   0  0  0  0  0  0
  -21.8821   -3.8147   23.4347 C   0  0  0  0  0  0
  -21.9195   -4.6963   22.3403 C   0  0  0  0  0  0
  -22.7825  -13.5219   21.1864 C   0  0  0  0  0  0
  -22.1664   -4.2147   21.0980 F   0  0  0  0  0  0
  -21.5631   -3.4540   25.7739 F   0  0  0  0  0  0
  -29.9930  -13.4988   20.4168 N   0  0  0  0  0  0
  -26.2955  -12.9422   20.3331 N   0  0  0  0  0  0
  -25.9335  -11.6556   20.5767 N   0  0  0  0  0  0
  -22.0481  -12.8197   22.0419 N   0  0  0  0  0  0
  -25.4231  -15.1932   20.4155 N   0  0  0  0  0  0
  -31.7991  -14.8082   20.0714 O   0  0  0  0  0  0
  -21.6649   -6.8880   21.4241 O   0  0  0  0  0  0
  -22.3501  -14.5525   20.6723 O   0  0  0  0  0  0
  -24.6310  -31.8556   23.2007 C   0  0  0  0  0  0
  -25.9141  -32.4753   23.8341 C   0  0  1  0  0  0
  -27.2131  -27.2598   20.1207 C   0  0  0  0  0  0
  -25.5939  -33.8557   24.2257 N   0  0  0  0  0  0
  -23.4268  -30.4811   21.5439 C   0  0  2  0  0  0
  -24.8729  -28.9348   20.1057 C   0  0  0  0  0  0
  -22.7497  -29.4607   22.4908 C   0  0  0  0  0  0
  -18.0291  -28.1387   22.8485 C   0  0  0  0  0  0
  -24.1491  -36.7286   23.2638 C   0  0  0  0  0  0
  -25.9744  -30.7654   21.3852 C   0  0  0  0  0  0
  -26.0437  -29.3899   20.7242 C   0  0  0  0  0  0
  -27.2132  -28.5624   20.7277 C   0  0  0  0  0  0
  -26.0250  -26.8934   19.4433 C   0  0  0  0  0  0
  -24.8696  -27.6950   19.4541 C   0  0  0  0  0  0
  -23.6440  -29.8209   20.1578 C   0  0  0  0  0  0
  -25.4117  -36.3066   24.0320 C   0  0  1  0  0  0
  -20.5894  -28.3698   23.1266 C   0  0  2  0  0  0
  -20.6778  -26.9415   22.5406 C   0  0  0  0  0  0
  -19.5752  -26.6384   21.5211 C   0  0  0  0  0  0
  -18.1934  -26.7929   22.1625 C   0  0  0  0  0  0
  -19.1545  -28.8860   23.2871 C   0  0  0  0  0  0
  -18.9465  -30.1461   23.8888 C   0  0  0  0  0  0
  -17.6463  -30.6587   24.0563 C   0  0  0  0  0  0
  -25.9059  -34.9437   23.5091 C   0  0  0  0  0  0
  -16.5354  -29.9083   23.6333 C   0  0  0  0  0  0
  -16.7277  -28.6501   23.0354 C   0  0  0  0  0  0
  -26.4505  -31.6584   25.0736 C   0  0  0  0  0  0
  -25.3723  -31.3741   26.1452 C   0  0  0  0  0  0
  -27.0357  -30.2992   24.6249 C   0  0  0  0  0  0
  -27.6048  -32.4335   25.7514 C   0  0  0  0  0  0
  -27.5579  -37.1800   24.8462 C   0  0  0  0  0  0
  -21.4205  -29.3045   22.3651 N   0  0  0  0  0  0
  -26.4290  -37.3766   23.9404 N   0  0  0  0  0  0
  -24.6962  -31.0523   22.0988 N   0  0  0  0  0  0
  -23.4200  -28.8138   23.2999 O   0  0  0  0  0  0
  -28.2997  -26.3514   20.2145 O   0  0  0  0  0  0
  -26.5629  -34.8909   22.4660 O   0  0  0  0  0  0
  -23.5461  -32.1381   23.7305 O   0  0  0  0  0  0
  -31.0007  -17.2015   22.1377 C   0  0  0  0  0  0
  -29.9742  -16.1008   22.4013 C   0  0  0  0  0  0
  -30.3761  -17.3228   20.7522 C   0  0  2  0  0  0
  -30.3707  -22.6367   19.0873 C   0  0  0  0  0  0
  -29.2519  -18.4749   20.5934 C   0  0  0  0  0  0
  -28.9625  -21.1455   20.7292 C   0  0  0  0  0  0
  -28.0977  -24.9405   19.8408 C   0  0  0  0  0  0
  -29.0455  -22.5259   19.8619 C   0  0  1  0  0  0
  -29.9695  -15.8431   20.9517 N   0  0  0  0  0  0
  -28.8730  -23.8694   20.5503 N   0  0  0  0  0  0
  -29.7321  -19.8987   20.2554 N   0  3  0  0  0  0
  -31.4671  -12.5512   19.1674 H   0  0  0  0  0  0
  -30.3561  -11.4606   19.9407 H   0  0  0  0  0  0
  -29.7795  -11.7482   17.5083 H   0  0  0  0  0  0
  -29.6381  -13.4752   17.7304 H   0  0  0  0  0  0
  -27.8795  -11.2953   18.8951 H   0  0  0  0  0  0
  -27.3744  -12.5537   17.8000 H   0  0  0  0  0  0
  -27.6465  -14.2625   19.4949 H   0  0  0  0  0  0
  -28.7164  -12.1467   21.4220 H   0  0  0  0  0  0
  -28.4207  -13.8217   21.8093 H   0  0  0  0  0  0
  -25.2773   -9.5692   22.4750 H   0  0  0  0  0  0
  -24.0020   -7.4638   22.7471 H   0  0  0  0  0  0
  -21.0850   -8.8770   19.8948 H   0  0  0  0  0  0
  -22.3702  -10.9673   19.6161 H   0  0  0  0  0  0
  -21.2002   -7.6146   23.9714 H   0  0  0  0  0  0
  -21.1485   -6.0523   25.9079 H   0  0  0  0  0  0
  -22.0597   -2.7608   23.2850 H   0  0  0  0  0  0
  -22.4112  -11.9859   22.4799 H   0  0  0  0  0  0
  -21.1094  -13.1205   22.2630 H   0  0  0  0  0  0
  -24.6627  -15.8536   20.5331 H   0  0  0  0  0  0
  -26.2873  -15.6302   20.1206 H   0  0  0  0  0  0
  -26.7205  -32.5396   23.1078 H   0  0  0  0  0  0
  -25.0079  -33.9694   25.0397 H   0  0  0  0  0  0
  -22.7230  -31.3037   21.4009 H   0  0  0  0  0  0
  -23.3751  -35.9623   23.3295 H   0  0  0  0  0  0
  -24.3581  -36.8918   22.2055 H   0  0  0  0  0  0
  -23.7248  -37.6486   23.6670 H   0  0  0  0  0  0
  -26.1193  -31.5280   20.6187 H   0  0  0  0  0  0
  -26.8497  -30.8087   22.0216 H   0  0  0  0  0  0
  -28.1036  -28.9002   21.2395 H   0  0  0  0  0  0
  -25.9446  -25.9666   18.8968 H   0  0  0  0  0  0
  -23.9791  -27.3493   18.9468 H   0  0  0  0  0  0
  -23.7669  -30.5997   19.4042 H   0  0  0  0  0  0
  -22.7621  -29.2552   19.8523 H   0  0  0  0  0  0
  -25.1304  -36.1911   25.0813 H   0  0  0  0  0  0
  -20.9990  -28.3278   24.1385 H   0  0  0  0  0  0
  -20.5678  -26.2310   23.3612 H   0  0  0  0  0  0
  -21.6645  -26.7438   22.1200 H   0  0  0  0  0  0
  -19.6915  -25.6293   21.1245 H   0  0  0  0  0  0
  -19.6690  -27.3190   20.6737 H   0  0  0  0  0  0
  -17.4203  -26.6675   21.4027 H   0  0  0  0  0  0
  -18.0336  -26.0071   22.9023 H   0  0  0  0  0  0
  -19.7940  -30.7283   24.2252 H   0  0  0  0  0  0
  -17.5015  -31.6265   24.5167 H   0  0  0  0  0  0
  -15.5354  -30.2981   23.7661 H   0  0  0  0  0  0
  -15.8677  -28.0816   22.7073 H   0  0  0  0  0  0
  -24.5901  -30.7087   25.7780 H   0  0  0  0  0  0
  -24.8916  -32.2916   26.4857 H   0  0  0  0  0  0
  -25.8037  -30.8931   27.0241 H   0  0  0  0  0  0
  -26.2952  -29.6733   24.1256 H   0  0  0  0  0  0
  -27.3997  -29.7264   25.4790 H   0  0  0  0  0  0
  -27.8849  -30.4246   23.9528 H   0  0  0  0  0  0
  -27.2641  -33.3635   26.2077 H   0  0  0  0  0  0
  -28.3870  -32.6899   25.0356 H   0  0  0  0  0  0
  -28.0706  -31.8476   26.5449 H   0  0  0  0  0  0
  -28.2590  -38.0103   24.7510 H   0  0  0  0  0  0
  -28.1083  -36.2634   24.6289 H   0  0  0  0  0  0
  -27.2296  -37.1448   25.8864 H   0  0  0  0  0  0
  -20.9386  -29.8775   21.6866 H   0  0  0  0  0  0
  -26.0168  -38.2839   24.1404 H   0  0  0  0  0  0
  -32.0320  -16.8423   22.1200 H   0  0  0  0  0  0
  -30.8966  -18.0797   22.7757 H   0  0  0  0  0  0
  -29.0189  -16.4634   22.7857 H   0  0  0  0  0  0
  -30.3592  -15.2968   23.0329 H   0  0  0  0  0  0
  -31.1508  -17.4237   19.9904 H   0  0  0  0  0  0
  -30.5106  -21.7942   18.4103 H   0  0  0  0  0  0
  -31.2308  -22.6701   19.7570 H   0  0  0  0  0  0
  -30.4001  -23.5325   18.4648 H   0  0  0  0  0  0
  -28.6723  -18.5388   21.5148 H   0  0  0  0  0  0
  -28.5325  -18.1838   19.8276 H   0  0  0  0  0  0
  -27.9096  -20.8771   20.8221 H   0  0  0  0  0  0
  -29.2949  -21.3475   21.7479 H   0  0  0  0  0  0
  -27.0514  -24.6655   19.9725 H   0  0  0  0  0  0
  -28.3100  -24.8883   18.7707 H   0  0  0  0  0  0
  -28.2515  -22.4518   19.1165 H   0  0  0  0  0  0
  -29.7853  -24.2074   20.8449 H   0  0  0  0  0  0
  -29.7925  -19.9419   19.2513 H   0  0  0  0  0  0
  -30.6718  -19.9976   20.6029 H   0  0  0  0  0  0
  1 25  1  0  0  0
  1 30  2  0  0  0
  1 79  1  0  0  0
  2  3  1  0  0  0
  2 25  1  0  0  0
  2 82  1  0  0  0
  2 83  1  0  0  0
  3  4  1  0  0  0
  3 84  1  0  0  0
  3 85  1  0  0  0
  4  5  1  0  0  0
  4 86  1  0  0  0
  4 87  1  0  0  0
  5  6  1  0  0  0
  5 26  1  0  0  0
  5 88  1  0  0  0
  6 25  1  0  0  0
  6 89  1  0  0  0
  6 90  1  0  0  0
  7  8  2  0  0  0
  7 26  1  0  0  0
  7 29  1  0  0  0
  8  9  1  0  0  0
  8 22  1  0  0  0
  9 10  1  0  0  0
  9 27  2  0  0  0
 10 11  2  0  0  0
 10 15  1  0  0  0
 11 12  1  0  0  0
 11 91  1  0  0  0
 12 13  2  0  0  0
 12 92  1  0  0  0
 13 14  1  0  0  0
 13 31  1  0  0  0
 14 15  2  0  0  0
 14 93  1  0  0  0
 15 94  1  0  0  0
 16 17  2  0  0  0
 16 21  1  0  0  0
 16 31  1  0  0  0
 17 18  1  0  0  0
 17 95  1  0  0  0
 18 19  2  0  0  0
 18 96  1  0  0  0
 19 20  1  0  0  0
 19 24  1  0  0  0
 20 21  2  0  0  0
 20 97  1  0  0  0
 21 23  1  0  0  0
 22 28  1  0  0  0
 22 32  2  0  0  0
 26 27  1  0  0  0
 28 98  1  0  0  0
 28 99  1  0  0  0
 29100  1  0  0  0
 29101  1  0  0  0
 33 34  1  0  0  0
 33 66  1  0  0  0
 33 70  2  0  0  0
 34 36  1  0  0  0
 34 59  1  0  0  0
 34102  1  0  0  0
 35 44  2  0  0  0
 35 45  1  0  0  0
 35 68  1  0  0  0
 36 56  1  0  0  0
 36103  1  0  0  0
 37 39  1  0  0  0
 37 47  1  0  0  0
 37 66  1  0  0  0
 37104  1  0  0  0
 38 43  2  0  0  0
 38 46  1  0  0  0
 38 47  1  0  0  0
 39 64  1  0  0  0
 39 67  2  0  0  0
 40 52  1  0  0  0
 40 53  2  0  0  0
 40 58  1  0  0  0
 41105  1  0  0  0
 41106  1  0  0  0
 41107  1  0  0  0
 41 48  1  0  0  0
 42 43  1  0  0  0
 42 66  1  0  0  0
 42108  1  0  0  0
 42109  1  0  0  0
 43 44  1  0  0  0
 44110  1  0  0  0
 45 46  2  0  0  0
 45111  1  0  0  0
 46112  1  0  0  0
 47113  1  0  0  0
 47114  1  0  0  0
 48 56  1  0  0  0
 48 65  1  0  0  0
 48115  1  0  0  0
 49 50  1  0  0  0
 49 53  1  0  0  0
 49 64  1  0  0  0
 49116  1  0  0  0
 50 51  1  0  0  0
 50117  1  0  0  0
 50118  1  0  0  0
 51 52  1  0  0  0
 51119  1  0  0  0
 51120  1  0  0  0
 52121  1  0  0  0
 52122  1  0  0  0
 53 54  1  0  0  0
 54 55  2  0  0  0
 54123  1  0  0  0
 55 57  1  0  0  0
 55124  1  0  0  0
 56 69  2  0  0  0
 57 58  2  0  0  0
 57125  1  0  0  0
 58126  1  0  0  0
 59 60  1  0  0  0
 59 61  1  0  0  0
 59 62  1  0  0  0
 60127  1  0  0  0
 60128  1  0  0  0
 60129  1  0  0  0
 61130  1  0  0  0
 61131  1  0  0  0
 61132  1  0  0  0
 62133  1  0  0  0
 62134  1  0  0  0
 62135  1  0  0  0
 63 65  1  0  0  0
 63136  1  0  0  0
 63137  1  0  0  0
 63138  1  0  0  0
 64139  1  0  0  0
 65140  1  0  0  0
 68 77  1  0  0  0
 71 72  1  0  0  0
 71 73  1  0  0  0
 71141  1  0  0  0
 71142  1  0  0  0
 72 79  1  0  0  0
 72143  1  0  0  0
 72144  1  0  0  0
 73 75  1  0  0  0
 73 79  1  0  0  0
 73145  1  0  0  0
 74146  1  0  0  0
 74147  1  0  0  0
 74148  1  0  0  0
 74 78  1  0  0  0
 75 81  1  0  0  0
 75149  1  0  0  0
 75150  1  0  0  0
 76 78  1  0  0  0
 76 81  1  0  0  0
 76151  1  0  0  0
 76152  1  0  0  0
 77 80  1  0  0  0
 77153  1  0  0  0
 77154  1  0  0  0
 78 80  1  0  0  0
 78155  1  0  0  0
 80156  1  0  0  0
 81157  1  0  0  0
 81158  1  0  0  0
M  CHG  1  81   1
M  ISO  4   1 100  68 101  77 101  79 100
M  END
> <chiral flag>
0

> <version>
0

> <s_m_source_file>
/data/baiqing/PycharmProjects/Reinvent-master-3.2/result/LINK_invent/BTK/process_docking_weight1_custom_sum_contain_oxygen_bond_distance_aromatic_linkinvent_7_9_3/rearranged_h_0187.sdf

> <i_m_source_file_index>
13

> <r_mmod_Potential_Energy-OPLS-2005>
86.5671615600586

> <r_mmod_Stretch_Energy-OPLS-2005>
130.450927734375

> <r_mmod_Bend_Energy-OPLS-2005>
172.933334350586

> <r_mmod_Torsional_Energy-OPLS-2005>
295.098846435547

> <r_mmod_Improper_Torsional_Energy-OPLS-2005>
10.8952741622925

> <r_mmod_Van_der_Waal_Energy-OPLS-2005>
132.861083984375

> <r_mmod_Electrostatic_Energy-OPLS-2005>
-252.346038818359

> <r_mmod_Solvation_Energy-OPLS-2005>
-481.200927734375

> <b_mmod_Minimization_Converged-OPLS-2005>
0

> <r_mmod_RMS_Derivative-OPLS-2005>
0.638827502727509

$$$$
13
                    3D
 Structure written by MMmdl.
155163  0  0  1  0            999 V2000
  -30.5785  -14.9887   20.4353 C   0  0  0  0  0  0
  -30.4321  -12.6249   19.4999 C   0  0  0  0  0  0
  -29.5158  -12.5303   18.2586 C   0  0  0  0  0  0
  -28.0549  -12.2961   18.6831 C   0  0  0  0  0  0
  -27.6225  -13.2416   19.8316 C   0  0  2  0  0  0
  -28.6691  -13.3036   20.9690 C   0  0  0  0  0  0
  -25.2370  -13.8161   20.5654 C   0  0  0  0  0  0
  -24.1727  -13.0388   20.9240 C   0  0  0  0  0  0
  -24.6372  -11.6890   20.8783 C   0  0  0  0  0  0
  -23.9066  -10.4266   21.0425 C   0  0  0  0  0  0
  -24.3617   -9.4183   21.9199 C   0  0  0  0  0  0
  -23.6290   -8.2221   22.0759 C   0  0  0  0  0  0
  -22.4273   -8.0268   21.3545 C   0  0  0  0  0  0
  -21.9911   -9.0242   20.4647 C   0  0  0  0  0  0
  -22.7244  -10.2117   20.3064 C   0  0  0  0  0  0
  -21.6848   -6.0729   22.5280 C   0  0  0  0  0  0
  -21.4012   -6.5635   23.8213 C   0  0  0  0  0  0
  -21.3660   -5.6789   24.9175 C   0  0  0  0  0  0
  -21.6044   -4.3052   24.7226 C   0  0  0  0  0  0
  -21.8820   -3.8143   23.4348 C   0  0  0  0  0  0
  -21.9191   -4.6958   22.3404 C   0  0  0  0  0  0
  -22.7752  -13.5167   21.1891 C   0  0  0  0  0  0
  -22.1660   -4.2145   21.0981 F   0  0  0  0  0  0
  -21.5628   -3.4538   25.7740 F   0  0  0  0  0  0
  -29.9333  -13.7443   20.3608 N   0  0  0  0  0  0
  -26.2834  -12.9414   20.3229 N   0  0  0  0  0  0
  -25.9304  -11.6551   20.5774 N   0  0  0  0  0  0
  -22.0408  -12.8170   22.0460 N   0  0  0  0  0  0
  -25.3840  -15.1880   20.3948 N   0  0  0  0  0  0
  -31.7838  -14.9769   20.1582 O   0  0  0  0  0  0
  -21.6633   -6.8870   21.4241 O   0  0  0  0  0  0
  -22.3440  -14.5474   20.6732 O   0  0  0  0  0  0
  -24.6448  -31.8424   23.1869 C   0  0  0  0  0  0
  -25.9211  -32.4688   23.8264 C   0  0  1  0  0  0
  -27.2167  -27.1154   20.1604 C   0  0  0  0  0  0
  -25.5949  -33.8495   24.2176 N   0  0  0  0  0  0
  -23.4498  -30.4611   21.5331 C   0  0  2  0  0  0
  -24.9000  -28.8830   20.1144 C   0  0  0  0  0  0
  -22.7575  -29.4537   22.4855 C   0  0  0  0  0  0
  -18.0305  -28.1397   22.8476 C   0  0  0  0  0  0
  -24.1492  -36.7256   23.2643 C   0  0  0  0  0  0
  -26.0078  -30.7091   21.3903 C   0  0  0  0  0  0
  -26.0785  -29.3178   20.7340 C   0  0  0  0  0  0
  -27.2388  -28.4518   20.7369 C   0  0  0  0  0  0
  -26.0144  -26.7915   19.4940 C   0  0  0  0  0  0
  -24.8818  -27.6337   19.4779 C   0  0  0  0  0  0
  -23.6782  -29.7884   20.1538 C   0  0  0  0  0  0
  -25.4125  -36.3028   24.0311 C   0  0  1  0  0  0
  -20.5919  -28.3723   23.1231 C   0  0  2  0  0  0
  -20.6788  -26.9424   22.5404 C   0  0  0  0  0  0
  -19.5762  -26.6380   21.5212 C   0  0  0  0  0  0
  -18.1943  -26.7934   22.1623 C   0  0  0  0  0  0
  -19.1562  -28.8878   23.2845 C   0  0  0  0  0  0
  -18.9479  -30.1474   23.8872 C   0  0  0  0  0  0
  -17.6475  -30.6593   24.0558 C   0  0  0  0  0  0
  -25.9076  -34.9403   23.5054 C   0  0  0  0  0  0
  -16.5365  -29.9085   23.6338 C   0  0  0  0  0  0
  -16.7289  -28.6504   23.0358 C   0  0  0  0  0  0
  -26.4521  -31.6569   25.0720 C   0  0  0  0  0  0
  -25.3695  -31.3770   26.1407 C   0  0  0  0  0  0
  -27.0394  -30.2960   24.6330 C   0  0  0  0  0  0
  -27.6039  -32.4347   25.7511 C   0  0  0  0  0  0
  -27.5575  -37.1784   24.8464 C   0  0  0  0  0  0
  -21.4266  -29.3047   22.3603 N   0  0  0  0  0  0
  -26.4286  -37.3742   23.9406 N   0  0  0  0  0  0
  -24.7207  -31.0259   22.0915 N   0  0  0  0  0  0
  -23.4208  -28.8084   23.3013 O   0  0  0  0  0  0
  -28.2698  -26.1226   20.1957 O   0  0  0  0  0  0
  -26.5669  -34.8902   22.4639 O   0  0  0  0  0  0
  -23.5563  -32.1311   23.7074 O   0  0  0  0  0  0
  -28.1859  -18.1015   20.6763 C   0  0  0  0  0  0
  -28.5631  -16.6056   21.0252 C   0  0  0  0  0  0
  -30.4373  -17.6933   20.1924 C   0  0  0  0  0  0
  -29.4813  -18.9218   20.7268 C   0  0  1  0  0  0
  -28.6764  -21.6514   20.6378 C   0  0  0  0  0  0
  -27.9839  -24.5992   20.4410 C   0  0  0  0  0  0
  -28.9599  -23.2456   20.1130 C   0  0  1  0  0  0
  -29.9115  -16.2680   20.5243 N   0  0  0  0  0  0
  -30.2919  -23.5941   20.5813 N   0  0  0  0  0  0
  -29.5026  -20.3996   20.1154 N   0  3  0  0  0  0
  -31.4632  -12.7750   19.1773 H   0  0  0  0  0  0
  -30.4350  -11.6834   20.0517 H   0  0  0  0  0  0
  -29.8485  -11.7263   17.6008 H   0  0  0  0  0  0
  -29.5874  -13.4520   17.6788 H   0  0  0  0  0  0
  -27.9694  -11.2589   19.0095 H   0  0  0  0  0  0
  -27.3871  -12.4024   17.8272 H   0  0  0  0  0  0
  -27.5705  -14.2220   19.3621 H   0  0  0  0  0  0
  -28.7799  -12.3304   21.4500 H   0  0  0  0  0  0
  -28.3569  -13.9893   21.7563 H   0  0  0  0  0  0
  -25.2757   -9.5660   22.4782 H   0  0  0  0  0  0
  -23.9992   -7.4611   22.7480 H   0  0  0  0  0  0
  -21.0841   -8.8766   19.8954 H   0  0  0  0  0  0
  -22.3704  -10.9661   19.6178 H   0  0  0  0  0  0
  -21.2004   -7.6144   23.9715 H   0  0  0  0  0  0
  -21.1482   -6.0519   25.9078 H   0  0  0  0  0  0
  -22.0598   -2.7605   23.2848 H   0  0  0  0  0  0
  -22.4027  -11.9837   22.4856 H   0  0  0  0  0  0
  -21.1027  -13.1197   22.2670 H   0  0  0  0  0  0
  -24.6009  -15.8240   20.4983 H   0  0  0  0  0  0
  -26.2103  -15.6358   20.0232 H   0  0  0  0  0  0
  -26.7277  -32.5285   23.0991 H   0  0  0  0  0  0
  -25.0053  -33.9608   25.0293 H   0  0  0  0  0  0
  -22.7533  -31.2875   21.3767 H   0  0  0  0  0  0
  -23.3756  -35.9585   23.3292 H   0  0  0  0  0  0
  -24.3575  -36.8905   22.2060 H   0  0  0  0  0  0
  -23.7244  -37.6445   23.6694 H   0  0  0  0  0  0
  -26.1675  -31.4617   20.6169 H   0  0  0  0  0  0
  -26.8764  -30.7592   22.0353 H   0  0  0  0  0  0
  -28.1380  -28.7826   21.2376 H   0  0  0  0  0  0
  -25.9221  -25.8484   18.9777 H   0  0  0  0  0  0
  -23.9855  -27.2990   18.9738 H   0  0  0  0  0  0
  -23.8185  -30.5619   19.3980 H   0  0  0  0  0  0
  -22.7925  -29.2324   19.8414 H   0  0  0  0  0  0
  -25.1315  -36.1852   25.0804 H   0  0  0  0  0  0
  -21.0010  -28.3314   24.1353 H   0  0  0  0  0  0
  -20.5680  -26.2335   23.3623 H   0  0  0  0  0  0
  -21.6653  -26.7426   22.1202 H   0  0  0  0  0  0
  -19.6922  -25.6284   21.1257 H   0  0  0  0  0  0
  -19.6700  -27.3176   20.6731 H   0  0  0  0  0  0
  -17.4211  -26.6677   21.4029 H   0  0  0  0  0  0
  -18.0345  -26.0084   22.9029 H   0  0  0  0  0  0
  -19.7954  -30.7297   24.2229 H   0  0  0  0  0  0
  -17.5028  -31.6271   24.5164 H   0  0  0  0  0  0
  -15.5364  -30.2978   23.7678 H   0  0  0  0  0  0
  -15.8689  -28.0814   22.7088 H   0  0  0  0  0  0
  -24.5875  -30.7121   25.7722 H   0  0  0  0  0  0
  -24.8883  -32.2960   26.4767 H   0  0  0  0  0  0
  -25.7962  -30.8980   27.0227 H   0  0  0  0  0  0
  -26.3022  -29.6674   24.1320 H   0  0  0  0  0  0
  -27.3973  -29.7271   25.4921 H   0  0  0  0  0  0
  -27.8944  -30.4186   23.9677 H   0  0  0  0  0  0
  -27.2617  -33.3664   26.2027 H   0  0  0  0  0  0
  -28.3880  -32.6885   25.0367 H   0  0  0  0  0  0
  -28.0675  -31.8520   26.5480 H   0  0  0  0  0  0
  -28.2581  -38.0091   24.7508 H   0  0  0  0  0  0
  -28.1081  -36.2618   24.6293 H   0  0  0  0  0  0
  -27.2291  -37.1433   25.8866 H   0  0  0  0  0  0
  -20.9478  -29.8761   21.6781 H   0  0  0  0  0  0
  -26.0151  -38.2809   24.1410 H   0  0  0  0  0  0
  -27.4249  -18.4962   21.3505 H   0  0  0  0  0  0
  -27.7713  -18.1413   19.6680 H   0  0  0  0  0  0
  -27.8195  -15.9416   20.6120 H   0  0  0  0  0  0
  -28.5575  -16.4628   22.1069 H   0  0  0  0  0  0
  -31.4478  -17.8085   20.5862 H   0  0  0  0  0  0
  -30.5261  -17.7526   19.1071 H   0  0  0  0  0  0
  -29.7244  -19.0581   21.7818 H   0  0  0  0  0  0
  -27.6310  -21.4230   20.4266 H   0  0  0  0  0  0
  -28.7457  -21.6401   21.7258 H   0  0  0  0  0  0
  -27.7612  -24.5500   21.5074 H   0  0  0  0  0  0
  -27.0320  -24.3591   19.9735 H   0  0  0  0  0  0
  -29.0179  -23.1945   19.0247 H   0  0  0  0  0  0
  -30.2547  -23.7448   21.5851 H   0  0  0  0  0  0
  -30.5122  -24.5167   20.2159 H   0  0  0  0  0  0
  -29.3118  -20.3252   19.1304 H   0  0  0  0  0  0
  -30.4595  -20.7089   20.1828 H   0  0  0  0  0  0
  1 25  1  0  0  0
  1 30  2  0  0  0
  1 78  1  0  0  0
  2  3  1  0  0  0
  2 25  1  0  0  0
  2 81  1  0  0  0
  2 82  1  0  0  0
  3  4  1  0  0  0
  3 83  1  0  0  0
  3 84  1  0  0  0
  4  5  1  0  0  0
  4 85  1  0  0  0
  4 86  1  0  0  0
  5  6  1  0  0  0
  5 26  1  0  0  0
  5 87  1  0  0  0
  6 25  1  0  0  0
  6 88  1  0  0  0
  6 89  1  0  0  0
  7  8  2  0  0  0
  7 26  1  0  0  0
  7 29  1  0  0  0
  8  9  1  0  0  0
  8 22  1  0  0  0
  9 10  1  0  0  0
  9 27  2  0  0  0
 10 11  2  0  0  0
 10 15  1  0  0  0
 11 12  1  0  0  0
 11 90  1  0  0  0
 12 13  2  0  0  0
 12 91  1  0  0  0
 13 14  1  0  0  0
 13 31  1  0  0  0
 14 15  2  0  0  0
 14 92  1  0  0  0
 15 93  1  0  0  0
 16 17  2  0  0  0
 16 21  1  0  0  0
 16 31  1  0  0  0
 17 18  1  0  0  0
 17 94  1  0  0  0
 18 19  2  0  0  0
 18 95  1  0  0  0
 19 20  1  0  0  0
 19 24  1  0  0  0
 20 21  2  0  0  0
 20 96  1  0  0  0
 21 23  1  0  0  0
 22 28  1  0  0  0
 22 32  2  0  0  0
 26 27  1  0  0  0
 28 97  1  0  0  0
 28 98  1  0  0  0
 29 99  1  0  0  0
 29100  1  0  0  0
 33 34  1  0  0  0
 33 66  1  0  0  0
 33 70  2  0  0  0
 34 36  1  0  0  0
 34 59  1  0  0  0
 34101  1  0  0  0
 35 44  2  0  0  0
 35 45  1  0  0  0
 35 68  1  0  0  0
 36 56  1  0  0  0
 36102  1  0  0  0
 37 39  1  0  0  0
 37 47  1  0  0  0
 37 66  1  0  0  0
 37103  1  0  0  0
 38 43  2  0  0  0
 38 46  1  0  0  0
 38 47  1  0  0  0
 39 64  1  0  0  0
 39 67  2  0  0  0
 40 52  1  0  0  0
 40 53  2  0  0  0
 40 58  1  0  0  0
 41104  1  0  0  0
 41105  1  0  0  0
 41106  1  0  0  0
 41 48  1  0  0  0
 42 43  1  0  0  0
 42 66  1  0  0  0
 42107  1  0  0  0
 42108  1  0  0  0
 43 44  1  0  0  0
 44109  1  0  0  0
 45 46  2  0  0  0
 45110  1  0  0  0
 46111  1  0  0  0
 47112  1  0  0  0
 47113  1  0  0  0
 48 56  1  0  0  0
 48 65  1  0  0  0
 48114  1  0  0  0
 49 50  1  0  0  0
 49 53  1  0  0  0
 49 64  1  0  0  0
 49115  1  0  0  0
 50 51  1  0  0  0
 50116  1  0  0  0
 50117  1  0  0  0
 51 52  1  0  0  0
 51118  1  0  0  0
 51119  1  0  0  0
 52120  1  0  0  0
 52121  1  0  0  0
 53 54  1  0  0  0
 54 55  2  0  0  0
 54122  1  0  0  0
 55 57  1  0  0  0
 55123  1  0  0  0
 56 69  2  0  0  0
 57 58  2  0  0  0
 57124  1  0  0  0
 58125  1  0  0  0
 59 60  1  0  0  0
 59 61  1  0  0  0
 59 62  1  0  0  0
 60126  1  0  0  0
 60127  1  0  0  0
 60128  1  0  0  0
 61129  1  0  0  0
 61130  1  0  0  0
 61131  1  0  0  0
 62132  1  0  0  0
 62133  1  0  0  0
 62134  1  0  0  0
 63 65  1  0  0  0
 63135  1  0  0  0
 63136  1  0  0  0
 63137  1  0  0  0
 64138  1  0  0  0
 65139  1  0  0  0
 68 76  1  0  0  0
 71 72  1  0  0  0
 71 74  1  0  0  0
 71140  1  0  0  0
 71141  1  0  0  0
 72 78  1  0  0  0
 72142  1  0  0  0
 72143  1  0  0  0
 73 74  1  0  0  0
 73 78  1  0  0  0
 73144  1  0  0  0
 73145  1  0  0  0
 74 80  1  0  0  0
 74146  1  0  0  0
 75 77  1  0  0  0
 75 80  1  0  0  0
 75147  1  0  0  0
 75148  1  0  0  0
 76 77  1  0  0  0
 76149  1  0  0  0
 76150  1  0  0  0
 77 79  1  0  0  0
 77151  1  0  0  0
 79152  1  0  0  0
 79153  1  0  0  0
 80154  1  0  0  0
 80155  1  0  0  0
M  CHG  1  80   1
M  ISO  4   1 100  68 101  76 101  78 100
M  END
> <chiral flag>
0

> <version>
0

> <s_m_source_file>
/data/baiqing/PycharmProjects/Reinvent-master-3.2/result/LINK_invent/BTK/process_docking_weight1_custom_sum_contain_oxygen_bond_distance_aromatic_linkinvent_7_9_3/rearranged_h_0187.sdf

> <i_m_source_file_index>
14

> <r_mmod_Potential_Energy-OPLS-2005>
520.281799316406

> <r_mmod_Stretch_Energy-OPLS-2005>
275.367462158203

> <r_mmod_Bend_Energy-OPLS-2005>
310.360565185547

> <r_mmod_Torsional_Energy-OPLS-2005>
321.876007080078

> <r_mmod_Improper_Torsional_Energy-OPLS-2005>
6.73347043991089

> <r_mmod_Van_der_Waal_Energy-OPLS-2005>
112.619400024414

> <r_mmod_Electrostatic_Energy-OPLS-2005>
-247.81770324707

> <r_mmod_Solvation_Energy-OPLS-2005>
-470.420288085938

> <b_mmod_Minimization_Converged-OPLS-2005>
0

> <r_mmod_RMS_Derivative-OPLS-2005>
0.316127210855484

$$$$
14
                    3D
 Structure written by MMmdl.
157166  0  0  1  0            999 V2000
  -30.6049  -14.7382   20.4724 C   0  0  0  0  0  0
  -30.4285  -12.4530   19.4820 C   0  0  0  0  0  0
  -29.5149  -12.5217   18.2386 C   0  0  0  0  0  0
  -28.0373  -12.3510   18.6405 C   0  0  0  0  0  0
  -27.6424  -13.2340   19.8553 C   0  0  2  0  0  0
  -28.6812  -13.1602   20.9946 C   0  0  0  0  0  0
  -25.2513  -13.8202   20.5677 C   0  0  0  0  0  0
  -24.1804  -13.0439   20.9171 C   0  0  0  0  0  0
  -24.6390  -11.6921   20.8720 C   0  0  0  0  0  0
  -23.9064  -10.4288   21.0385 C   0  0  0  0  0  0
  -24.3618   -9.4215   21.9170 C   0  0  0  0  0  0
  -23.6298   -8.2258   22.0746 C   0  0  0  0  0  0
  -22.4287   -8.0283   21.3529 C   0  0  0  0  0  0
  -21.9912   -9.0253   20.4630 C   0  0  0  0  0  0
  -22.7232  -10.2136   20.3032 C   0  0  0  0  0  0
  -21.6862   -6.0738   22.5271 C   0  0  0  0  0  0
  -21.4010   -6.5639   23.8196 C   0  0  0  0  0  0
  -21.3669   -5.6789   24.9157 C   0  0  0  0  0  0
  -21.6051   -4.3049   24.7209 C   0  0  0  0  0  0
  -21.8824   -3.8140   23.4321 C   0  0  0  0  0  0
  -21.9199   -4.6963   22.3386 C   0  0  0  0  0  0
  -22.7827  -13.5225   21.1861 C   0  0  0  0  0  0
  -22.1669   -4.2154   21.0958 F   0  0  0  0  0  0
  -21.5648   -3.4530   25.7718 F   0  0  0  0  0  0
  -29.9861  -13.5088   20.4225 N   0  0  0  0  0  0
  -26.2944  -12.9408   20.3268 N   0  0  0  0  0  0
  -25.9318  -11.6546   20.5712 N   0  0  0  0  0  0
  -22.0478  -12.8188   22.0404 N   0  0  0  0  0  0
  -25.4229  -15.1907   20.4090 N   0  0  0  0  0  0
  -31.7788  -14.8487   20.1104 O   0  0  0  0  0  0
  -21.6647   -6.8881   21.4226 O   0  0  0  0  0  0
  -22.3497  -14.5552   20.6739 O   0  0  0  0  0  0
  -24.6316  -31.8527   23.1950 C   0  0  0  0  0  0
  -25.9149  -32.4767   23.8289 C   0  0  1  0  0  0
  -27.2057  -27.2539   20.1366 C   0  0  0  0  0  0
  -25.5952  -33.8557   24.2223 N   0  0  0  0  0  0
  -23.4244  -30.4760   21.5386 C   0  0  2  0  0  0
  -24.8703  -28.9205   20.1101 C   0  0  0  0  0  0
  -22.7526  -29.4545   22.4901 C   0  0  0  0  0  0
  -18.0308  -28.1367   22.8461 C   0  0  0  0  0  0
  -24.1478  -36.7274   23.2638 C   0  0  0  0  0  0
  -25.9733  -30.7698   21.3667 C   0  0  0  0  0  0
  -26.0446  -29.3903   20.7109 C   0  0  0  0  0  0
  -27.2191  -28.5707   20.7070 C   0  0  0  0  0  0
  -26.0115  -26.8421   19.5169 C   0  0  0  0  0  0
  -24.8563  -27.6537   19.5043 C   0  0  0  0  0  0
  -23.6420  -29.8106   20.1537 C   0  0  0  0  0  0
  -25.4110  -36.3081   24.0311 C   0  0  1  0  0  0
  -20.5912  -28.3633   23.1310 C   0  0  2  0  0  0
  -20.6801  -26.9350   22.5436 C   0  0  0  0  0  0
  -19.5769  -26.6348   21.5254 C   0  0  0  0  0  0
  -18.1934  -26.7908   22.1635 C   0  0  0  0  0  0
  -19.1558  -28.8835   23.2867 C   0  0  0  0  0  0
  -18.9475  -30.1452   23.8848 C   0  0  0  0  0  0
  -17.6472  -30.6561   24.0546 C   0  0  0  0  0  0
  -25.9060  -34.9445   23.5080 C   0  0  0  0  0  0
  -16.5363  -29.9029   23.6356 C   0  0  0  0  0  0
  -16.7295  -28.6468   23.0349 C   0  0  0  0  0  0
  -26.4477  -31.6630   25.0703 C   0  0  0  0  0  0
  -25.3670  -31.3773   26.1396 C   0  0  0  0  0  0
  -27.0327  -30.3056   24.6198 C   0  0  0  0  0  0
  -27.6027  -32.4368   25.7498 C   0  0  0  0  0  0
  -27.5565  -37.1779   24.8454 C   0  0  0  0  0  0
  -21.4247  -29.2980   22.3705 N   0  0  0  0  0  0
  -26.4256  -37.3794   23.9423 N   0  0  0  0  0  0
  -24.6967  -31.0514   22.0907 N   0  0  0  0  0  0
  -23.4267  -28.8094   23.2959 O   0  0  0  0  0  0
  -28.2925  -26.3518   20.1289 O   0  0  0  0  0  0
  -26.5626  -34.8924   22.4651 O   0  0  0  0  0  0
  -23.5463  -32.1330   23.7242 O   0  0  0  0  0  0
  -29.0812  -22.5147   20.8704 C   0  0  0  0  0  0
  -28.3414  -23.6013   20.2677 C   0  0  0  0  0  0
  -29.0001  -21.1578   20.3808 C   0  0  0  0  0  0
  -27.5301  -22.0256   18.7955 C   0  0  0  0  0  0
  -29.0615  -18.7657   22.3637 C   0  0  0  0  0  0
  -30.0441  -19.9366   22.2588 C   0  0  0  0  0  0
  -29.2345  -18.5323   20.8614 C   0  0  2  0  0  0
  -26.6547  -21.7113   17.5990 C   0  0  0  0  0  0
  -28.1634  -25.0647   20.8963 C   0  0  0  0  0  0
  -30.2200  -17.3227   20.4409 C   0  0  0  0  0  0
  -27.5665  -23.2967   19.2061 N   0  0  0  0  0  0
  -28.1845  -20.9890   19.3248 N   0  0  0  0  0  0
  -29.7622  -19.9605   20.8292 N   0  0  0  0  0  0
  -29.8400  -15.8672   20.7189 N   0  0  0  0  0  0
  -31.4720  -12.5737   19.1864 H   0  0  0  0  0  0
  -30.3609  -11.4715   19.9543 H   0  0  0  0  0  0
  -29.7973  -11.7525   17.5184 H   0  0  0  0  0  0
  -29.6494  -13.4775   17.7299 H   0  0  0  0  0  0
  -27.8795  -11.2983   18.8776 H   0  0  0  0  0  0
  -27.3900  -12.5711   17.7915 H   0  0  0  0  0  0
  -27.6393  -14.2600   19.4884 H   0  0  0  0  0  0
  -28.7097  -12.1639   21.4364 H   0  0  0  0  0  0
  -28.4108  -13.8434   21.8017 H   0  0  0  0  0  0
  -25.2775   -9.5712   22.4721 H   0  0  0  0  0  0
  -24.0026   -7.4649   22.7455 H   0  0  0  0  0  0
  -21.0859   -8.8742   19.8922 H   0  0  0  0  0  0
  -22.3681  -10.9660   19.6129 H   0  0  0  0  0  0
  -21.1980   -7.6145   23.9696 H   0  0  0  0  0  0
  -21.1499   -6.0515   25.9064 H   0  0  0  0  0  0
  -22.0595   -2.7603   23.2805 H   0  0  0  0  0  0
  -22.4142  -11.9858   22.4779 H   0  0  0  0  0  0
  -21.1088  -13.1153   22.2612 H   0  0  0  0  0  0
  -24.6530  -15.8451   20.5010 H   0  0  0  0  0  0
  -26.2711  -15.6242   20.0699 H   0  0  0  0  0  0
  -26.7188  -32.5364   23.0996 H   0  0  0  0  0  0
  -25.0224  -33.9705   25.0453 H   0  0  0  0  0  0
  -22.7228  -31.2993   21.3911 H   0  0  0  0  0  0
  -23.3759  -35.9614   23.3323 H   0  0  0  0  0  0
  -24.3565  -36.8900   22.2056 H   0  0  0  0  0  0
  -23.7237  -37.6471   23.6656 H   0  0  0  0  0  0
  -26.1204  -31.5279   20.5928 H   0  0  0  0  0  0
  -26.8517  -30.8134   21.9997 H   0  0  0  0  0  0
  -28.1248  -28.9334   21.1703 H   0  0  0  0  0  0
  -25.9602  -25.8648   19.0557 H   0  0  0  0  0  0
  -23.9506  -27.2879   19.0426 H   0  0  0  0  0  0
  -23.7713  -30.5860   19.3992 H   0  0  0  0  0  0
  -22.7614  -29.2430   19.8458 H   0  0  0  0  0  0
  -25.1297  -36.1911   25.0800 H   0  0  0  0  0  0
  -20.9994  -28.3169   24.1430 H   0  0  0  0  0  0
  -20.5771  -26.2193   23.3600 H   0  0  0  0  0  0
  -21.6643  -26.7396   22.1169 H   0  0  0  0  0  0
  -19.6910  -25.6272   21.1239 H   0  0  0  0  0  0
  -19.6745  -27.3199   20.6819 H   0  0  0  0  0  0
  -17.4232  -26.6713   21.3992 H   0  0  0  0  0  0
  -18.0234  -26.0058   22.9027 H   0  0  0  0  0  0
  -19.7955  -30.7300   24.2154 H   0  0  0  0  0  0
  -17.5022  -31.6245   24.5142 H   0  0  0  0  0  0
  -15.5359  -30.2918   23.7711 H   0  0  0  0  0  0
  -15.8704  -28.0801   22.7055 H   0  0  0  0  0  0
  -24.5873  -30.7097   25.7684 H   0  0  0  0  0  0
  -24.8807  -32.2918   26.4767 H   0  0  0  0  0  0
  -25.7946  -30.8955   27.0204 H   0  0  0  0  0  0
  -26.2890  -29.6820   24.1225 H   0  0  0  0  0  0
  -27.4008  -29.7305   25.4722 H   0  0  0  0  0  0
  -27.8770  -30.4357   23.9443 H   0  0  0  0  0  0
  -27.2636  -33.3696   26.2028 H   0  0  0  0  0  0
  -28.3850  -32.6939   25.0324 H   0  0  0  0  0  0
  -28.0675  -31.8529   26.5444 H   0  0  0  0  0  0
  -28.2555  -38.0123   24.7578 H   0  0  0  0  0  0
  -28.1097  -36.2640   24.6179 H   0  0  0  0  0  0
  -27.2289  -37.1320   25.8869 H   0  0  0  0  0  0
  -20.9426  -29.8729   21.6938 H   0  0  0  0  0  0
  -26.0135  -38.2860   24.1507 H   0  0  0  0  0  0
  -29.7010  -22.7333   21.7278 H   0  0  0  0  0  0
  -28.0544  -19.0691   22.6516 H   0  0  0  0  0  0
  -29.4174  -17.9375   22.9797 H   0  0  0  0  0  0
  -31.0791  -19.6548   22.4609 H   0  0  0  0  0  0
  -29.7467  -20.8177   22.8291 H   0  0  0  0  0  0
  -28.2635  -18.4709   20.3693 H   0  0  0  0  0  0
  -26.4670  -22.6036   17.0025 H   0  0  0  0  0  0
  -25.6939  -21.3027   17.9154 H   0  0  0  0  0  0
  -27.1350  -20.9766   16.9515 H   0  0  0  0  0  0
  -28.8683  -25.1368   21.7244 H   0  0  0  0  0  0
  -27.1821  -25.0528   21.3745 H   0  0  0  0  0  0
  -31.1929  -17.4841   20.9042 H   0  0  0  0  0  0
  -30.4054  -17.3892   19.3680 H   0  0  0  0  0  0
  -28.8910  -15.6987   21.0182 H   0  0  0  0  0  0
  1 25  1  0  0  0
  1 30  2  0  0  0
  1 84  1  0  0  0
  2  3  1  0  0  0
  2 25  1  0  0  0
  2 85  1  0  0  0
  2 86  1  0  0  0
  3  4  1  0  0  0
  3 87  1  0  0  0
  3 88  1  0  0  0
  4  5  1  0  0  0
  4 89  1  0  0  0
  4 90  1  0  0  0
  5  6  1  0  0  0
  5 26  1  0  0  0
  5 91  1  0  0  0
  6 25  1  0  0  0
  6 92  1  0  0  0
  6 93  1  0  0  0
  7  8  2  0  0  0
  7 26  1  0  0  0
  7 29  1  0  0  0
  8  9  1  0  0  0
  8 22  1  0  0  0
  9 10  1  0  0  0
  9 27  2  0  0  0
 10 11  2  0  0  0
 10 15  1  0  0  0
 11 12  1  0  0  0
 11 94  1  0  0  0
 12 13  2  0  0  0
 12 95  1  0  0  0
 13 14  1  0  0  0
 13 31  1  0  0  0
 14 15  2  0  0  0
 14 96  1  0  0  0
 15 97  1  0  0  0
 16 17  2  0  0  0
 16 21  1  0  0  0
 16 31  1  0  0  0
 17 18  1  0  0  0
 17 98  1  0  0  0
 18 19  2  0  0  0
 18 99  1  0  0  0
 19 20  1  0  0  0
 19 24  1  0  0  0
 20 21  2  0  0  0
 20100  1  0  0  0
 21 23  1  0  0  0
 22 28  1  0  0  0
 22 32  2  0  0  0
 26 27  1  0  0  0
 28101  1  0  0  0
 28102  1  0  0  0
 29103  1  0  0  0
 29104  1  0  0  0
 33 34  1  0  0  0
 33 66  1  0  0  0
 33 70  2  0  0  0
 34 36  1  0  0  0
 34 59  1  0  0  0
 34105  1  0  0  0
 35 44  2  0  0  0
 35 45  1  0  0  0
 35 68  1  0  0  0
 36 56  1  0  0  0
 36106  1  0  0  0
 37 39  1  0  0  0
 37 47  1  0  0  0
 37 66  1  0  0  0
 37107  1  0  0  0
 38 43  2  0  0  0
 38 46  1  0  0  0
 38 47  1  0  0  0
 39 64  1  0  0  0
 39 67  2  0  0  0
 40 52  1  0  0  0
 40 53  2  0  0  0
 40 58  1  0  0  0
 41108  1  0  0  0
 41109  1  0  0  0
 41110  1  0  0  0
 41 48  1  0  0  0
 42 43  1  0  0  0
 42 66  1  0  0  0
 42111  1  0  0  0
 42112  1  0  0  0
 43 44  1  0  0  0
 44113  1  0  0  0
 45 46  2  0  0  0
 45114  1  0  0  0
 46115  1  0  0  0
 47116  1  0  0  0
 47117  1  0  0  0
 48 56  1  0  0  0
 48 65  1  0  0  0
 48118  1  0  0  0
 49 50  1  0  0  0
 49 53  1  0  0  0
 49 64  1  0  0  0
 49119  1  0  0  0
 50 51  1  0  0  0
 50120  1  0  0  0
 50121  1  0  0  0
 51 52  1  0  0  0
 51122  1  0  0  0
 51123  1  0  0  0
 52124  1  0  0  0
 52125  1  0  0  0
 53 54  1  0  0  0
 54 55  2  0  0  0
 54126  1  0  0  0
 55 57  1  0  0  0
 55127  1  0  0  0
 56 69  2  0  0  0
 57 58  2  0  0  0
 57128  1  0  0  0
 58129  1  0  0  0
 59 60  1  0  0  0
 59 61  1  0  0  0
 59 62  1  0  0  0
 60130  1  0  0  0
 60131  1  0  0  0
 60132  1  0  0  0
 61133  1  0  0  0
 61134  1  0  0  0
 61135  1  0  0  0
 62136  1  0  0  0
 62137  1  0  0  0
 62138  1  0  0  0
 63 65  1  0  0  0
 63139  1  0  0  0
 63140  1  0  0  0
 63141  1  0  0  0
 64142  1  0  0  0
 65143  1  0  0  0
 68 79  1  0  0  0
 71 72  2  0  0  0
 71 73  1  0  0  0
 71144  1  0  0  0
 72 79  1  0  0  0
 72 81  1  0  0  0
 73 82  2  0  0  0
 73 83  1  0  0  0
 74 78  1  0  0  0
 74 81  2  0  0  0
 74 82  1  0  0  0
 75 76  1  0  0  0
 75 77  1  0  0  0
 75145  1  0  0  0
 75146  1  0  0  0
 76 83  1  0  0  0
 76147  1  0  0  0
 76148  1  0  0  0
 77 80  1  0  0  0
 77 83  1  0  0  0
 77149  1  0  0  0
 78150  1  0  0  0
 78151  1  0  0  0
 78152  1  0  0  0
 79153  1  0  0  0
 79154  1  0  0  0
 80 84  1  0  0  0
 80155  1  0  0  0
 80156  1  0  0  0
 84157  1  0  0  0
M  ISO  4   1 100  68 101  79 101  84 100
M  END
> <chiral flag>
0

> <version>
0

> <s_m_source_file>
/data/baiqing/PycharmProjects/Reinvent-master-3.2/result/LINK_invent/BTK/process_docking_weight1_custom_sum_contain_oxygen_bond_distance_aromatic_linkinvent_7_9_3/rearranged_h_0187.sdf

> <i_m_source_file_index>
15

> <r_mmod_Potential_Energy-OPLS-2005>
-335.585998535156

> <r_mmod_Stretch_Energy-OPLS-2005>
118.995986938477

> <r_mmod_Bend_Energy-OPLS-2005>
187.616470336914

> <r_mmod_Torsional_Energy-OPLS-2005>
279.307037353516

> <r_mmod_Improper_Torsional_Energy-OPLS-2005>
13.4776487350464

> <r_mmod_Van_der_Waal_Energy-OPLS-2005>
142.494567871094

> <r_mmod_Electrostatic_Energy-OPLS-2005>
-905.800476074219

> <r_mmod_Solvation_Energy-OPLS-2005>
-256.336578369141

> <b_mmod_Minimization_Converged-OPLS-2005>
0

> <r_mmod_RMS_Derivative-OPLS-2005>
4.56175565719604

$$$$
15
                    3D
 Structure written by MMmdl.
158167  0  0  1  0            999 V2000
  -30.6202  -14.9133   20.4210 C   0  0  0  0  0  0
  -30.4183  -12.5763   19.4836 C   0  0  0  0  0  0
  -29.5034  -12.5175   18.2426 C   0  0  0  0  0  0
  -28.0392  -12.3126   18.6694 C   0  0  0  0  0  0
  -27.6224  -13.2501   19.8337 C   0  0  2  0  0  0
  -28.6723  -13.2897   20.9641 C   0  0  0  0  0  0
  -25.2429  -13.8218   20.5732 C   0  0  0  0  0  0
  -24.1755  -13.0437   20.9252 C   0  0  0  0  0  0
  -24.6378  -11.6926   20.8776 C   0  0  0  0  0  0
  -23.9070  -10.4292   21.0416 C   0  0  0  0  0  0
  -24.3621   -9.4205   21.9189 C   0  0  0  0  0  0
  -23.6297   -8.2239   22.0753 C   0  0  0  0  0  0
  -22.4279   -8.0279   21.3543 C   0  0  0  0  0  0
  -21.9916   -9.0254   20.4647 C   0  0  0  0  0  0
  -22.7244  -10.2133   20.3063 C   0  0  0  0  0  0
  -21.6854   -6.0733   22.5278 C   0  0  0  0  0  0
  -21.4014   -6.5637   23.8211 C   0  0  0  0  0  0
  -21.3660   -5.6790   24.9173 C   0  0  0  0  0  0
  -21.6045   -4.3052   24.7225 C   0  0  0  0  0  0
  -21.8818   -3.8144   23.4346 C   0  0  0  0  0  0
  -21.9193   -4.6961   22.3401 C   0  0  0  0  0  0
  -22.7776  -13.5209   21.1894 C   0  0  0  0  0  0
  -22.1663   -4.2145   21.0980 F   0  0  0  0  0  0
  -21.5630   -3.4537   25.7738 F   0  0  0  0  0  0
  -29.9363  -13.7003   20.3412 N   0  0  0  0  0  0
  -26.2852  -12.9459   20.3266 N   0  0  0  0  0  0
  -25.9310  -11.6587   20.5766 N   0  0  0  0  0  0
  -22.0424  -12.8198   22.0447 N   0  0  0  0  0  0
  -25.4076  -15.1941   20.4128 N   0  0  0  0  0  0
  -31.8351  -14.8471   20.2033 O   0  0  0  0  0  0
  -21.6642   -6.8877   21.4241 O   0  0  0  0  0  0
  -22.3465  -14.5513   20.6732 O   0  0  0  0  0  0
  -24.6409  -31.8459   23.1901 C   0  0  0  0  0  0
  -25.9194  -32.4702   23.8280 C   0  0  1  0  0  0
  -27.2137  -27.1562   20.1363 C   0  0  0  0  0  0
  -25.5952  -33.8508   24.2199 N   0  0  0  0  0  0
  -23.4422  -30.4671   21.5355 C   0  0  2  0  0  0
  -24.8885  -28.8978   20.1084 C   0  0  0  0  0  0
  -22.7550  -29.4557   22.4867 C   0  0  0  0  0  0
  -18.0301  -28.1393   22.8476 C   0  0  0  0  0  0
  -24.1495  -36.7262   23.2646 C   0  0  0  0  0  0
  -25.9967  -30.7255   21.3855 C   0  0  0  0  0  0
  -26.0650  -29.3391   20.7253 C   0  0  0  0  0  0
  -27.2257  -28.4828   20.7259 C   0  0  0  0  0  0
  -26.0054  -26.8093   19.4911 C   0  0  0  0  0  0
  -24.8695  -27.6452   19.4786 C   0  0  0  0  0  0
  -23.6657  -29.7989   20.1534 C   0  0  0  0  0  0
  -25.4128  -36.3036   24.0316 C   0  0  1  0  0  0
  -20.5911  -28.3715   23.1243 C   0  0  2  0  0  0
  -20.6784  -26.9422   22.5405 C   0  0  0  0  0  0
  -19.5760  -26.6379   21.5211 C   0  0  0  0  0  0
  -18.1942  -26.7932   22.1621 C   0  0  0  0  0  0
  -19.1557  -28.8871   23.2853 C   0  0  0  0  0  0
  -18.9474  -30.1468   23.8876 C   0  0  0  0  0  0
  -17.6471  -30.6589   24.0558 C   0  0  0  0  0  0
  -25.9070  -34.9409   23.5064 C   0  0  0  0  0  0
  -16.5362  -29.9081   23.6337 C   0  0  0  0  0  0
  -16.7286  -28.6502   23.0354 C   0  0  0  0  0  0
  -26.4523  -31.6565   25.0715 C   0  0  0  0  0  0
  -25.3717  -31.3750   26.1417 C   0  0  0  0  0  0
  -27.0392  -30.2965   24.6288 C   0  0  0  0  0  0
  -27.6054  -32.4334   25.7499 C   0  0  0  0  0  0
  -27.5567  -37.1801   24.8475 C   0  0  0  0  0  0
  -21.4246  -29.3045   22.3617 N   0  0  0  0  0  0
  -26.4299  -37.3737   23.9388 N   0  0  0  0  0  0
  -24.7132  -31.0338   22.0922 N   0  0  0  0  0  0
  -23.4209  -28.8101   23.3001 O   0  0  0  0  0  0
  -28.2883  -26.2013   20.2235 O   0  0  0  0  0  0
  -26.5652  -34.8902   22.4640 O   0  0  0  0  0  0
  -23.5537  -32.1328   23.7138 O   0  0  0  0  0  0
  -28.6794  -23.6232   20.6944 C   0  0  0  0  0  0
  -28.7067  -22.2526   20.1614 C   0  0  0  0  0  0
  -28.2584  -24.7722   19.8916 C   0  0  0  0  0  0
  -27.9665  -23.2071   18.1908 C   0  0  0  0  0  0
  -28.7036  -16.7639   20.8169 C   0  0  0  0  0  0
  -30.6568  -17.3399   19.5536 C   0  0  0  0  0  0
  -28.5788  -18.3291   21.2376 C   0  0  0  0  0  0
  -30.5461  -18.8699   20.0372 C   0  0  0  0  0  0
  -27.5497  -22.9853   16.7529 C   0  0  0  0  0  0
  -29.1305  -20.8850   20.9491 C   0  0  0  0  0  0
  -28.3223  -22.1134   18.8774 N   0  0  0  0  0  0
  -27.9308  -24.4750   18.6170 N   0  0  0  0  0  0
  -30.0092  -16.2106   20.3251 N   0  0  0  0  0  0
  -29.1817  -19.4153   20.3609 N   0  3  0  0  0  0
  -31.4537  -12.7006   19.1625 H   0  0  0  0  0  0
  -30.3945  -11.6317   20.0296 H   0  0  0  0  0  0
  -29.8169  -11.7121   17.5768 H   0  0  0  0  0  0
  -29.5951  -13.4427   17.6715 H   0  0  0  0  0  0
  -27.9335  -11.2726   18.9805 H   0  0  0  0  0  0
  -27.3717  -12.4429   17.8168 H   0  0  0  0  0  0
  -27.5806  -14.2487   19.3993 H   0  0  0  0  0  0
  -28.7673  -12.3149   21.4450 H   0  0  0  0  0  0
  -28.3780  -13.9836   21.7495 H   0  0  0  0  0  0
  -25.2762   -9.5685   22.4767 H   0  0  0  0  0  0
  -24.0005   -7.4632   22.7471 H   0  0  0  0  0  0
  -21.0846   -8.8777   19.8954 H   0  0  0  0  0  0
  -22.3700  -10.9676   19.6178 H   0  0  0  0  0  0
  -21.2007   -7.6145   23.9712 H   0  0  0  0  0  0
  -21.1484   -6.0520   25.9075 H   0  0  0  0  0  0
  -22.0598   -2.7607   23.2844 H   0  0  0  0  0  0
  -22.4044  -11.9867   22.4846 H   0  0  0  0  0  0
  -21.1036  -13.1214   22.2645 H   0  0  0  0  0  0
  -24.6315  -15.8397   20.5099 H   0  0  0  0  0  0
  -26.2385  -15.6258   20.0337 H   0  0  0  0  0  0
  -26.7254  -32.5310   23.1005 H   0  0  0  0  0  0
  -25.0081  -33.9627   25.0333 H   0  0  0  0  0  0
  -22.7435  -31.2926   21.3840 H   0  0  0  0  0  0
  -23.3740  -35.9616   23.3349 H   0  0  0  0  0  0
  -24.3564  -36.8849   22.2051 H   0  0  0  0  0  0
  -23.7284  -37.6486   23.6655 H   0  0  0  0  0  0
  -26.1513  -31.4820   20.6150 H   0  0  0  0  0  0
  -26.8678  -30.7728   22.0272 H   0  0  0  0  0  0
  -28.1226  -28.8152   21.2296 H   0  0  0  0  0  0
  -25.8969  -25.8477   19.0148 H   0  0  0  0  0  0
  -23.9679  -27.3000   18.9914 H   0  0  0  0  0  0
  -23.8013  -30.5745   19.3989 H   0  0  0  0  0  0
  -22.7802  -29.2414   19.8433 H   0  0  0  0  0  0
  -25.1324  -36.1872   25.0811 H   0  0  0  0  0  0
  -21.0005  -28.3303   24.1363 H   0  0  0  0  0  0
  -20.5678  -26.2327   23.3621 H   0  0  0  0  0  0
  -21.6650  -26.7429   22.1204 H   0  0  0  0  0  0
  -19.6922  -25.6286   21.1253 H   0  0  0  0  0  0
  -19.6698  -27.3177   20.6732 H   0  0  0  0  0  0
  -17.4211  -26.6674   21.4026 H   0  0  0  0  0  0
  -18.0343  -26.0081   22.9025 H   0  0  0  0  0  0
  -19.7950  -30.7290   24.2236 H   0  0  0  0  0  0
  -17.5024  -31.6268   24.5163 H   0  0  0  0  0  0
  -15.5361  -30.2973   23.7676 H   0  0  0  0  0  0
  -15.8688  -28.0814   22.7077 H   0  0  0  0  0  0
  -24.5887  -30.7111   25.7734 H   0  0  0  0  0  0
  -24.8919  -32.2935   26.4809 H   0  0  0  0  0  0
  -25.8005  -30.8937   27.0215 H   0  0  0  0  0  0
  -26.3007  -29.6680   24.1297 H   0  0  0  0  0  0
  -27.4012  -29.7268   25.4856 H   0  0  0  0  0  0
  -27.8910  -30.4203   23.9597 H   0  0  0  0  0  0
  -27.2641  -33.3643   26.2037 H   0  0  0  0  0  0
  -28.3884  -32.6883   25.0345 H   0  0  0  0  0  0
  -28.0704  -31.8492   26.5448 H   0  0  0  0  0  0
  -28.2628  -38.0051   24.7441 H   0  0  0  0  0  0
  -28.1018  -36.2577   24.6413 H   0  0  0  0  0  0
  -27.2269  -37.1584   25.8877 H   0  0  0  0  0  0
  -20.9448  -29.8762   21.6804 H   0  0  0  0  0  0
  -26.0171  -38.2819   24.1336 H   0  0  0  0  0  0
  -28.9930  -23.7962   21.7149 H   0  0  0  0  0  0
  -27.9801  -16.5760   20.0242 H   0  0  0  0  0  0
  -28.3692  -16.1720   21.6672 H   0  0  0  0  0  0
  -31.7205  -17.1407   19.4200 H   0  0  0  0  0  0
  -30.2448  -17.2834   18.5452 H   0  0  0  0  0  0
  -29.0346  -18.4314   22.2238 H   0  0  0  0  0  0
  -27.5238  -18.5628   21.3870 H   0  0  0  0  0  0
  -30.9967  -19.5145   19.2813 H   0  0  0  0  0  0
  -31.1708  -18.9821   20.9246 H   0  0  0  0  0  0
  -27.8704  -22.0083   16.3914 H   0  0  0  0  0  0
  -27.9881  -23.7422   16.1025 H   0  0  0  0  0  0
  -26.4653  -23.0428   16.6625 H   0  0  0  0  0  0
  -28.4321  -20.8488   21.7850 H   0  0  0  0  0  0
  -30.0927  -21.0854   21.4199 H   0  0  0  0  0  0
  -28.6471  -19.4672   19.5062 H   0  0  0  0  0  0
  1 25  1  0  0  0
  1 30  2  0  0  0
  1 83  1  0  0  0
  2  3  1  0  0  0
  2 25  1  0  0  0
  2 85  1  0  0  0
  2 86  1  0  0  0
  3  4  1  0  0  0
  3 87  1  0  0  0
  3 88  1  0  0  0
  4  5  1  0  0  0
  4 89  1  0  0  0
  4 90  1  0  0  0
  5  6  1  0  0  0
  5 26  1  0  0  0
  5 91  1  0  0  0
  6 25  1  0  0  0
  6 92  1  0  0  0
  6 93  1  0  0  0
  7  8  2  0  0  0
  7 26  1  0  0  0
  7 29  1  0  0  0
  8  9  1  0  0  0
  8 22  1  0  0  0
  9 10  1  0  0  0
  9 27  2  0  0  0
 10 11  2  0  0  0
 10 15  1  0  0  0
 11 12  1  0  0  0
 11 94  1  0  0  0
 12 13  2  0  0  0
 12 95  1  0  0  0
 13 14  1  0  0  0
 13 31  1  0  0  0
 14 15  2  0  0  0
 14 96  1  0  0  0
 15 97  1  0  0  0
 16 17  2  0  0  0
 16 21  1  0  0  0
 16 31  1  0  0  0
 17 18  1  0  0  0
 17 98  1  0  0  0
 18 19  2  0  0  0
 18 99  1  0  0  0
 19 20  1  0  0  0
 19 24  1  0  0  0
 20 21  2  0  0  0
 20100  1  0  0  0
 21 23  1  0  0  0
 22 28  1  0  0  0
 22 32  2  0  0  0
 26 27  1  0  0  0
 28101  1  0  0  0
 28102  1  0  0  0
 29103  1  0  0  0
 29104  1  0  0  0
 33 34  1  0  0  0
 33 66  1  0  0  0
 33 70  2  0  0  0
 34 36  1  0  0  0
 34 59  1  0  0  0
 34105  1  0  0  0
 35 44  2  0  0  0
 35 45  1  0  0  0
 35 68  1  0  0  0
 36 56  1  0  0  0
 36106  1  0  0  0
 37 39  1  0  0  0
 37 47  1  0  0  0
 37 66  1  0  0  0
 37107  1  0  0  0
 38 43  2  0  0  0
 38 46  1  0  0  0
 38 47  1  0  0  0
 39 64  1  0  0  0
 39 67  2  0  0  0
 40 52  1  0  0  0
 40 53  2  0  0  0
 40 58  1  0  0  0
 41108  1  0  0  0
 41109  1  0  0  0
 41110  1  0  0  0
 41 48  1  0  0  0
 42 43  1  0  0  0
 42 66  1  0  0  0
 42111  1  0  0  0
 42112  1  0  0  0
 43 44  1  0  0  0
 44113  1  0  0  0
 45 46  2  0  0  0
 45114  1  0  0  0
 46115  1  0  0  0
 47116  1  0  0  0
 47117  1  0  0  0
 48 56  1  0  0  0
 48 65  1  0  0  0
 48118  1  0  0  0
 49 50  1  0  0  0
 49 53  1  0  0  0
 49 64  1  0  0  0
 49119  1  0  0  0
 50 51  1  0  0  0
 50120  1  0  0  0
 50121  1  0  0  0
 51 52  1  0  0  0
 51122  1  0  0  0
 51123  1  0  0  0
 52124  1  0  0  0
 52125  1  0  0  0
 53 54  1  0  0  0
 54 55  2  0  0  0
 54126  1  0  0  0
 55 57  1  0  0  0
 55127  1  0  0  0
 56 69  2  0  0  0
 57 58  2  0  0  0
 57128  1  0  0  0
 58129  1  0  0  0
 59 60  1  0  0  0
 59 61  1  0  0  0
 59 62  1  0  0  0
 60130  1  0  0  0
 60131  1  0  0  0
 60132  1  0  0  0
 61133  1  0  0  0
 61134  1  0  0  0
 61135  1  0  0  0
 62136  1  0  0  0
 62137  1  0  0  0
 62138  1  0  0  0
 63 65  1  0  0  0
 63139  1  0  0  0
 63140  1  0  0  0
 63141  1  0  0  0
 64142  1  0  0  0
 65143  1  0  0  0
 68 73  1  0  0  0
 71 72  2  0  0  0
 71 73  1  0  0  0
 71144  1  0  0  0
 72 80  1  0  0  0
 72 81  1  0  0  0
 73 82  2  0  0  0
 74 79  1  0  0  0
 74 81  2  0  0  0
 74 82  1  0  0  0
 75 77  1  0  0  0
 75 83  1  0  0  0
 75145  1  0  0  0
 75146  1  0  0  0
 76 78  1  0  0  0
 76 83  1  0  0  0
 76147  1  0  0  0
 76148  1  0  0  0
 77 84  1  0  0  0
 77149  1  0  0  0
 77150  1  0  0  0
 78 84  1  0  0  0
 78151  1  0  0  0
 78152  1  0  0  0
 79153  1  0  0  0
 79154  1  0  0  0
 79155  1  0  0  0
 80156  1  0  0  0
 80157  1  0  0  0
 80 84  1  0  0  0
 84158  1  0  0  0
M  CHG  1  84   1
M  ISO  4   1 100  68 101  73 101  83 100
M  END
> <chiral flag>
0

> <version>
0

> <s_m_source_file>
/data/baiqing/PycharmProjects/Reinvent-master-3.2/result/LINK_invent/BTK/process_docking_weight1_custom_sum_contain_oxygen_bond_distance_aromatic_linkinvent_7_9_3/rearranged_h_0187.sdf

> <i_m_source_file_index>
16

> <r_mmod_Potential_Energy-OPLS-2005>
-32.862964630127

> <r_mmod_Stretch_Energy-OPLS-2005>
192.716613769531

> <r_mmod_Bend_Energy-OPLS-2005>
267.769104003906

> <r_mmod_Torsional_Energy-OPLS-2005>
372.801635742188

> <r_mmod_Improper_Torsional_Energy-OPLS-2005>
12.5252113342285

> <r_mmod_Van_der_Waal_Energy-OPLS-2005>
148.56608581543

> <r_mmod_Electrostatic_Energy-OPLS-2005>
-728.465209960938

> <r_mmod_Solvation_Energy-OPLS-2005>
-469.082946777344

> <b_mmod_Minimization_Converged-OPLS-2005>
0

> <r_mmod_RMS_Derivative-OPLS-2005>
0.37553533911705

$$$$
16
                    3D
 Structure written by MMmdl.
166175  0  0  1  0            999 V2000
  -30.6532  -14.6658   20.4311 C   0  0  0  0  0  0
  -30.4191  -12.3998   19.4552 C   0  0  0  0  0  0
  -29.5043  -12.4942   18.2170 C   0  0  0  0  0  0
  -28.0279  -12.3353   18.6328 C   0  0  0  0  0  0
  -27.6432  -13.2296   19.8432 C   0  0  2  0  0  0
  -28.6886  -13.1551   20.9767 C   0  0  0  0  0  0
  -25.2569  -13.8185   20.5710 C   0  0  0  0  0  0
  -24.1828  -13.0439   20.9172 C   0  0  0  0  0  0
  -24.6388  -11.6913   20.8699 C   0  0  0  0  0  0
  -23.9043  -10.4307   21.0380 C   0  0  0  0  0  0
  -24.3604   -9.4233   21.9155 C   0  0  0  0  0  0
  -23.6297   -8.2263   22.0738 C   0  0  0  0  0  0
  -22.4267   -8.0286   21.3553 C   0  0  0  0  0  0
  -21.9903   -9.0256   20.4663 C   0  0  0  0  0  0
  -22.7216  -10.2139   20.3044 C   0  0  0  0  0  0
  -21.6866   -6.0724   22.5267 C   0  0  0  0  0  0
  -21.4018   -6.5617   23.8200 C   0  0  0  0  0  0
  -21.3663   -5.6775   24.9169 C   0  0  0  0  0  0
  -21.6040   -4.3037   24.7218 C   0  0  0  0  0  0
  -21.8819   -3.8142   23.4338 C   0  0  0  0  0  0
  -21.9210   -4.6957   22.3398 C   0  0  0  0  0  0
  -22.7865  -13.5244   21.1843 C   0  0  0  0  0  0
  -22.1680   -4.2141   21.0972 F   0  0  0  0  0  0
  -21.5630   -3.4524   25.7727 F   0  0  0  0  0  0
  -29.9933  -13.4676   20.3829 N   0  0  0  0  0  0
  -26.2966  -12.9381   20.3257 N   0  0  0  0  0  0
  -25.9324  -11.6523   20.5691 N   0  0  0  0  0  0
  -22.0492  -12.8249   22.0387 N   0  0  0  0  0  0
  -25.4339  -15.1906   20.4189 N   0  0  0  0  0  0
  -31.8553  -14.7172   20.1483 O   0  0  0  0  0  0
  -21.6625   -6.8877   21.4234 O   0  0  0  0  0  0
  -22.3566  -14.5545   20.6677 O   0  0  0  0  0  0
  -24.6317  -31.8606   23.2075 C   0  0  0  0  0  0
  -25.9163  -32.4788   23.8379 C   0  0  1  0  0  0
  -27.2125  -27.3045   20.0526 C   0  0  0  0  0  0
  -25.5941  -33.8566   24.2299 N   0  0  0  0  0  0
  -23.4221  -30.4966   21.5545 C   0  0  2  0  0  0
  -24.8575  -28.9609   20.1146 C   0  0  0  0  0  0
  -22.7497  -29.4664   22.4948 C   0  0  0  0  0  0
  -18.0295  -28.1402   22.8479 C   0  0  0  0  0  0
  -24.1478  -36.7263   23.2638 C   0  0  0  0  0  0
  -25.9730  -30.7826   21.3833 C   0  0  0  0  0  0
  -26.0378  -29.4123   20.7144 C   0  0  0  0  0  0
  -27.2134  -28.5938   20.6852 C   0  0  0  0  0  0
  -25.9825  -26.9148   19.4609 C   0  0  0  0  0  0
  -24.8311  -27.7117   19.4922 C   0  0  0  0  0  0
  -23.6329  -29.8471   20.1654 C   0  0  0  0  0  0
  -25.4091  -36.3073   24.0351 C   0  0  1  0  0  0
  -20.5901  -28.3685   23.1288 C   0  0  2  0  0  0
  -20.6775  -26.9404   22.5414 C   0  0  0  0  0  0
  -19.5761  -26.6395   21.5208 C   0  0  0  0  0  0
  -18.1932  -26.7948   22.1613 C   0  0  0  0  0  0
  -19.1550  -28.8859   23.2888 C   0  0  0  0  0  0
  -18.9462  -30.1467   23.8895 C   0  0  0  0  0  0
  -17.6455  -30.6584   24.0571 C   0  0  0  0  0  0
  -25.9051  -34.9452   23.5120 C   0  0  0  0  0  0
  -16.5347  -29.9076   23.6343 C   0  0  0  0  0  0
  -16.7278  -28.6516   23.0325 C   0  0  0  0  0  0
  -26.4515  -31.6579   25.0757 C   0  0  0  0  0  0
  -25.3739  -31.3779   26.1494 C   0  0  0  0  0  0
  -27.0312  -30.2981   24.6240 C   0  0  0  0  0  0
  -27.6095  -32.4300   25.7496 C   0  0  0  0  0  0
  -27.5586  -37.1765   24.8442 C   0  0  0  0  0  0
  -21.4212  -29.3045   22.3672 N   0  0  0  0  0  0
  -26.4265  -37.3780   23.9447 N   0  0  0  0  0  0
  -24.6963  -31.0620   22.1033 N   0  0  0  0  0  0
  -23.4221  -28.8164   23.3002 O   0  0  0  0  0  0
  -28.3299  -26.4349   20.0649 O   0  0  0  0  0  0
  -26.5599  -34.8936   22.4683 O   0  0  0  0  0  0
  -23.5473  -32.1407   23.7387 O   0  0  0  0  0  0
  -28.7525  -22.8655   20.1224 C   0  0  0  0  0  0
  -29.1464  -23.9535   19.2609 C   0  0  0  0  0  0
  -29.2832  -21.5501   19.8425 C   0  0  0  0  0  0
  -30.4670  -22.4466   18.0902 C   0  0  0  0  0  0
  -29.2680  -18.1156   19.2500 C   0  0  0  0  0  0
  -29.2274  -18.0623   21.6628 C   0  0  0  0  0  0
  -30.0015  -16.7180   19.2361 C   0  0  0  0  0  0
  -29.9852  -16.6800   21.6806 C   0  0  0  0  0  0
  -29.5983  -19.0015   20.4782 C   0  0  0  0  0  0
  -31.3600  -22.1910   16.8849 C   0  0  0  0  0  0
  -26.3861  -23.5113   20.9627 C   0  0  0  0  0  0
  -27.8341  -23.1344   21.3152 C   0  0  0  0  0  0
  -28.4111  -25.3432   19.0594 C   0  0  0  0  0  0
  -30.0216  -23.6864   18.2638 N   0  0  0  0  0  0
  -30.1419  -21.3874   18.8241 N   0  0  0  0  0  0
  -29.9165  -15.8456   20.4508 N   0  0  0  0  0  0
  -28.9209  -20.3481   20.5358 N   0  0  0  0  0  0
  -31.4679  -12.4838   19.1610 H   0  0  0  0  0  0
  -30.3228  -11.4223   19.9291 H   0  0  0  0  0  0
  -29.7731  -11.7303   17.4846 H   0  0  0  0  0  0
  -29.6470  -13.4557   17.7196 H   0  0  0  0  0  0
  -27.8762  -11.2852   18.8867 H   0  0  0  0  0  0
  -27.3714  -12.5466   17.7872 H   0  0  0  0  0  0
  -27.6438  -14.2529   19.4668 H   0  0  0  0  0  0
  -28.7027  -12.1648   21.4344 H   0  0  0  0  0  0
  -28.4462  -13.8638   21.7701 H   0  0  0  0  0  0
  -25.2773   -9.5705   22.4706 H   0  0  0  0  0  0
  -24.0038   -7.4639   22.7448 H   0  0  0  0  0  0
  -21.0838   -8.8757   19.8978 H   0  0  0  0  0  0
  -22.3666  -10.9652   19.6140 H   0  0  0  0  0  0
  -21.1991   -7.6107   23.9690 H   0  0  0  0  0  0
  -21.1478   -6.0497   25.9058 H   0  0  0  0  0  0
  -22.0596   -2.7610   23.2819 H   0  0  0  0  0  0
  -22.4088  -11.9928   22.4802 H   0  0  0  0  0  0
  -21.1107  -13.1315   22.2551 H   0  0  0  0  0  0
  -24.6776  -15.8570   20.5263 H   0  0  0  0  0  0
  -26.3074  -15.6251   20.1501 H   0  0  0  0  0  0
  -26.7211  -32.5433   23.1098 H   0  0  0  0  0  0
  -25.0113  -33.9695   25.0482 H   0  0  0  0  0  0
  -22.7177  -31.3209   21.4205 H   0  0  0  0  0  0
  -23.3777  -35.9550   23.3254 H   0  0  0  0  0  0
  -24.3605  -36.8898   22.2054 H   0  0  0  0  0  0
  -23.7169  -37.6435   23.6682 H   0  0  0  0  0  0
  -26.1209  -31.5511   20.6229 H   0  0  0  0  0  0
  -26.8473  -30.8164   22.0199 H   0  0  0  0  0  0
  -28.1186  -28.9384   21.1628 H   0  0  0  0  0  0
  -25.8053  -25.9710   18.9744 H   0  0  0  0  0  0
  -23.9154  -27.3539   19.0418 H   0  0  0  0  0  0
  -23.7597  -30.6288   19.4149 H   0  0  0  0  0  0
  -22.7456  -29.2880   19.8596 H   0  0  0  0  0  0
  -25.1268  -36.1911   25.0839 H   0  0  0  0  0  0
  -21.0021  -28.3251   24.1403 H   0  0  0  0  0  0
  -20.5673  -26.2270   23.3604 H   0  0  0  0  0  0
  -21.6654  -26.7439   22.1207 H   0  0  0  0  0  0
  -19.6909  -25.6307   21.1232 H   0  0  0  0  0  0
  -19.6716  -27.3222   20.6740 H   0  0  0  0  0  0
  -17.4210  -26.6691   21.4002 H   0  0  0  0  0  0
  -18.0331  -26.0104   22.9026 H   0  0  0  0  0  0
  -19.7942  -30.7271   24.2267 H   0  0  0  0  0  0
  -17.5017  -31.6278   24.5166 H   0  0  0  0  0  0
  -15.5340  -30.2952   23.7713 H   0  0  0  0  0  0
  -15.8681  -28.0841   22.7029 H   0  0  0  0  0  0
  -24.5822  -30.7230   25.7839 H   0  0  0  0  0  0
  -24.9050  -32.2973   26.4987 H   0  0  0  0  0  0
  -25.8044  -30.8879   27.0238 H   0  0  0  0  0  0
  -26.2864  -29.6750   24.1265 H   0  0  0  0  0  0
  -27.3954  -29.7238   25.4775 H   0  0  0  0  0  0
  -27.8792  -30.4241   23.9506 H   0  0  0  0  0  0
  -27.2759  -33.3630   26.2058 H   0  0  0  0  0  0
  -28.3892  -32.6778   25.0287 H   0  0  0  0  0  0
  -28.0771  -31.8404   26.5403 H   0  0  0  0  0  0
  -28.2553  -38.0111   24.7570 H   0  0  0  0  0  0
  -28.1116  -36.2636   24.6150 H   0  0  0  0  0  0
  -27.2352  -37.1309   25.8855 H   0  0  0  0  0  0
  -20.9372  -29.8728   21.6859 H   0  0  0  0  0  0
  -26.0139  -38.2846   24.1487 H   0  0  0  0  0  0
  -28.1875  -17.9570   19.1910 H   0  0  0  0  0  0
  -29.5342  -18.6483   18.3364 H   0  0  0  0  0  0
  -29.4186  -18.5729   22.6066 H   0  0  0  0  0  0
  -28.1527  -17.8654   21.6487 H   0  0  0  0  0  0
  -31.0523  -16.9094   19.0191 H   0  0  0  0  0  0
  -29.6258  -16.1453   18.3857 H   0  0  0  0  0  0
  -29.6179  -16.0832   22.5205 H   0  0  0  0  0  0
  -31.0371  -16.8749   21.8990 H   0  0  0  0  0  0
  -30.6728  -19.1781   20.5042 H   0  0  0  0  0  0
  -31.4482  -23.0675   16.2398 H   0  0  0  0  0  0
  -30.9647  -21.3753   16.2757 H   0  0  0  0  0  0
  -32.3655  -21.9124   17.2001 H   0  0  0  0  0  0
  -25.8469  -23.8289   21.8554 H   0  0  0  0  0  0
  -25.8372  -22.6914   20.5037 H   0  0  0  0  0  0
  -26.3317  -24.3496   20.2842 H   0  0  0  0  0  0
  -28.2776  -23.9450   21.8974 H   0  0  0  0  0  0
  -27.8120  -22.2756   21.9861 H   0  0  0  0  0  0
  -27.4647  -25.0116   18.6590 H   0  0  0  0  0  0
  -28.8688  -25.8319   18.1971 H   0  0  0  0  0  0
  -28.2852  -20.4871   21.3113 H   0  0  0  0  0  0
  1 25  1  0  0  0
  1 30  2  0  0  0
  1 86  1  0  0  0
  2  3  1  0  0  0
  2 25  1  0  0  0
  2 88  1  0  0  0
  2 89  1  0  0  0
  3  4  1  0  0  0
  3 90  1  0  0  0
  3 91  1  0  0  0
  4  5  1  0  0  0
  4 92  1  0  0  0
  4 93  1  0  0  0
  5  6  1  0  0  0
  5 26  1  0  0  0
  5 94  1  0  0  0
  6 25  1  0  0  0
  6 95  1  0  0  0
  6 96  1  0  0  0
  7  8  2  0  0  0
  7 26  1  0  0  0
  7 29  1  0  0  0
  8  9  1  0  0  0
  8 22  1  0  0  0
  9 10  1  0  0  0
  9 27  2  0  0  0
 10 11  2  0  0  0
 10 15  1  0  0  0
 11 12  1  0  0  0
 11 97  1  0  0  0
 12 13  2  0  0  0
 12 98  1  0  0  0
 13 14  1  0  0  0
 13 31  1  0  0  0
 14 15  2  0  0  0
 14 99  1  0  0  0
 15100  1  0  0  0
 16 17  2  0  0  0
 16 21  1  0  0  0
 16 31  1  0  0  0
 17 18  1  0  0  0
 17101  1  0  0  0
 18 19  2  0  0  0
 18102  1  0  0  0
 19 20  1  0  0  0
 19 24  1  0  0  0
 20 21  2  0  0  0
 20103  1  0  0  0
 21 23  1  0  0  0
 22 28  1  0  0  0
 22 32  2  0  0  0
 26 27  1  0  0  0
 28104  1  0  0  0
 28105  1  0  0  0
 29106  1  0  0  0
 29107  1  0  0  0
 33 34  1  0  0  0
 33 66  1  0  0  0
 33 70  2  0  0  0
 34 36  1  0  0  0
 34 59  1  0  0  0
 34108  1  0  0  0
 35 44  2  0  0  0
 35 45  1  0  0  0
 35 68  1  0  0  0
 36 56  1  0  0  0
 36109  1  0  0  0
 37 39  1  0  0  0
 37 47  1  0  0  0
 37 66  1  0  0  0
 37110  1  0  0  0
 38 43  2  0  0  0
 38 46  1  0  0  0
 38 47  1  0  0  0
 39 64  1  0  0  0
 39 67  2  0  0  0
 40 52  1  0  0  0
 40 53  2  0  0  0
 40 58  1  0  0  0
 41111  1  0  0  0
 41112  1  0  0  0
 41113  1  0  0  0
 41 48  1  0  0  0
 42 43  1  0  0  0
 42 66  1  0  0  0
 42114  1  0  0  0
 42115  1  0  0  0
 43 44  1  0  0  0
 44116  1  0  0  0
 45 46  2  0  0  0
 45117  1  0  0  0
 46118  1  0  0  0
 47119  1  0  0  0
 47120  1  0  0  0
 48 56  1  0  0  0
 48 65  1  0  0  0
 48121  1  0  0  0
 49 50  1  0  0  0
 49 53  1  0  0  0
 49 64  1  0  0  0
 49122  1  0  0  0
 50 51  1  0  0  0
 50123  1  0  0  0
 50124  1  0  0  0
 51 52  1  0  0  0
 51125  1  0  0  0
 51126  1  0  0  0
 52127  1  0  0  0
 52128  1  0  0  0
 53 54  1  0  0  0
 54 55  2  0  0  0
 54129  1  0  0  0
 55 57  1  0  0  0
 55130  1  0  0  0
 56 69  2  0  0  0
 57 58  2  0  0  0
 57131  1  0  0  0
 58132  1  0  0  0
 59 60  1  0  0  0
 59 61  1  0  0  0
 59 62  1  0  0  0
 60133  1  0  0  0
 60134  1  0  0  0
 60135  1  0  0  0
 61136  1  0  0  0
 61137  1  0  0  0
 61138  1  0  0  0
 62139  1  0  0  0
 62140  1  0  0  0
 62141  1  0  0  0
 63 65  1  0  0  0
 63142  1  0  0  0
 63143  1  0  0  0
 63144  1  0  0  0
 64145  1  0  0  0
 65146  1  0  0  0
 68 83  1  0  0  0
 71 72  2  0  0  0
 71 73  1  0  0  0
 71 82  1  0  0  0
 72 83  1  0  0  0
 72 84  1  0  0  0
 73 85  2  0  0  0
 73 87  1  0  0  0
 74 80  1  0  0  0
 74 84  2  0  0  0
 74 85  1  0  0  0
 75 77  1  0  0  0
 75 79  1  0  0  0
 75147  1  0  0  0
 75148  1  0  0  0
 76 78  1  0  0  0
 76 79  1  0  0  0
 76149  1  0  0  0
 76150  1  0  0  0
 77 86  1  0  0  0
 77151  1  0  0  0
 77152  1  0  0  0
 78 86  1  0  0  0
 78153  1  0  0  0
 78154  1  0  0  0
 79 87  1  0  0  0
 79155  1  0  0  0
 80156  1  0  0  0
 80157  1  0  0  0
 80158  1  0  0  0
 81 82  1  0  0  0
 81159  1  0  0  0
 81160  1  0  0  0
 81161  1  0  0  0
 82162  1  0  0  0
 82163  1  0  0  0
 83164  1  0  0  0
 83165  1  0  0  0
 87166  1  0  0  0
M  ISO  4   1 100  68 101  83 101  86 100
M  END
> <chiral flag>
0

> <version>
0

> <s_m_source_file>
/data/baiqing/PycharmProjects/Reinvent-master-3.2/result/LINK_invent/BTK/process_docking_weight1_custom_sum_contain_oxygen_bond_distance_aromatic_linkinvent_7_9_3/rearranged_h_0187.sdf

> <i_m_source_file_index>
17

> <r_mmod_Potential_Energy-OPLS-2005>
-94.1462020874023

> <r_mmod_Stretch_Energy-OPLS-2005>
93.3508911132812

> <r_mmod_Bend_Energy-OPLS-2005>
201.609146118164

> <r_mmod_Torsional_Energy-OPLS-2005>
331.610687255859

> <r_mmod_Improper_Torsional_Energy-OPLS-2005>
16.4184799194336

> <r_mmod_Van_der_Waal_Energy-OPLS-2005>
159.66096496582

> <r_mmod_Electrostatic_Energy-OPLS-2005>
-740.825500488281

> <r_mmod_Solvation_Energy-OPLS-2005>
-218.253768920898

> <b_mmod_Minimization_Converged-OPLS-2005>
0

> <r_mmod_RMS_Derivative-OPLS-2005>
5.3201789855957

$$$$
17
                    3D
 Structure written by MMmdl.
169178  0  0  1  0            999 V2000
  -30.6007  -14.6556   20.3999 C   0  0  0  0  0  0
  -30.4429  -12.3682   19.4628 C   0  0  0  0  0  0
  -29.5138  -12.4186   18.2286 C   0  0  0  0  0  0
  -28.0285  -12.3069   18.6369 C   0  0  0  0  0  0
  -27.6461  -13.2019   19.8472 C   0  0  2  0  0  0
  -28.6964  -13.1125   20.9765 C   0  0  0  0  0  0
  -25.2567  -13.8117   20.5713 C   0  0  0  0  0  0
  -24.1821  -13.0404   20.9200 C   0  0  0  0  0  0
  -24.6374  -11.6873   20.8749 C   0  0  0  0  0  0
  -23.9045  -10.4270   21.0412 C   0  0  0  0  0  0
  -24.3607   -9.4189   21.9188 C   0  0  0  0  0  0
  -23.6283   -8.2227   22.0754 C   0  0  0  0  0  0
  -22.4264   -8.0270   21.3542 C   0  0  0  0  0  0
  -21.9893   -9.0242   20.4646 C   0  0  0  0  0  0
  -22.7218  -10.2121   20.3058 C   0  0  0  0  0  0
  -21.6849   -6.0730   22.5278 C   0  0  0  0  0  0
  -21.4011   -6.5634   23.8211 C   0  0  0  0  0  0
  -21.3656   -5.6786   24.9174 C   0  0  0  0  0  0
  -21.6046   -4.3051   24.7225 C   0  0  0  0  0  0
  -21.8820   -3.8142   23.4345 C   0  0  0  0  0  0
  -21.9195   -4.6959   22.3402 C   0  0  0  0  0  0
  -22.7853  -13.5219   21.1857 C   0  0  0  0  0  0
  -22.1664   -4.2147   21.0979 F   0  0  0  0  0  0
  -21.5629   -3.4536   25.7739 F   0  0  0  0  0  0
  -30.0064  -13.4249   20.3906 N   0  0  0  0  0  0
  -26.2965  -12.9266   20.3291 N   0  0  0  0  0  0
  -25.9297  -11.6442   20.5774 N   0  0  0  0  0  0
  -22.0489  -12.8220   22.0413 N   0  0  0  0  0  0
  -25.4297  -15.1834   20.4185 N   0  0  0  0  0  0
  -31.8134  -14.7956   20.2211 O   0  0  0  0  0  0
  -21.6628   -6.8867   21.4239 O   0  0  0  0  0  0
  -22.3552  -14.5527   20.6700 O   0  0  0  0  0  0
  -24.6202  -31.8616   23.2026 C   0  0  0  0  0  0
  -25.9065  -32.4790   23.8349 C   0  0  1  0  0  0
  -27.2381  -27.3565   20.1258 C   0  0  0  0  0  0
  -25.5894  -33.8589   24.2283 N   0  0  0  0  0  0
  -23.4137  -30.4792   21.5451 C   0  0  2  0  0  0
  -24.8634  -28.9288   20.1182 C   0  0  0  0  0  0
  -22.7445  -29.4615   22.4978 C   0  0  0  0  0  0
  -18.0278  -28.1378   22.8490 C   0  0  0  0  0  0
  -24.1491  -36.7301   23.2644 C   0  0  0  0  0  0
  -25.9479  -30.8027   21.3682 C   0  0  0  0  0  0
  -26.0257  -29.4295   20.7181 C   0  0  0  0  0  0
  -27.2158  -28.6536   20.7109 C   0  0  0  0  0  0
  -26.0597  -26.8886   19.5084 C   0  0  0  0  0  0
  -24.8792  -27.6621   19.5064 C   0  0  0  0  0  0
  -23.6269  -29.8030   20.1636 C   0  0  0  0  0  0
  -25.4117  -36.3098   24.0335 C   0  0  1  0  0  0
  -20.5870  -28.3669   23.1315 C   0  0  2  0  0  0
  -20.6768  -26.9400   22.5425 C   0  0  0  0  0  0
  -19.5750  -26.6381   21.5218 C   0  0  0  0  0  0
  -18.1924  -26.7926   22.1620 C   0  0  0  0  0  0
  -19.1527  -28.8842   23.2895 C   0  0  0  0  0  0
  -18.9451  -30.1447   23.8908 C   0  0  0  0  0  0
  -17.6451  -30.6584   24.0560 C   0  0  0  0  0  0
  -25.9048  -34.9460   23.5115 C   0  0  0  0  0  0
  -16.5343  -29.9081   23.6326 C   0  0  0  0  0  0
  -16.7265  -28.6497   23.0352 C   0  0  0  0  0  0
  -26.4472  -31.6585   25.0703 C   0  0  0  0  0  0
  -25.3710  -31.3721   26.1436 C   0  0  0  0  0  0
  -27.0307  -30.3015   24.6128 C   0  0  0  0  0  0
  -27.6049  -32.4305   25.7452 C   0  0  0  0  0  0
  -27.5585  -37.1807   24.8462 C   0  0  0  0  0  0
  -21.4164  -29.3022   22.3719 N   0  0  0  0  0  0
  -26.4301  -37.3784   23.9403 N   0  0  0  0  0  0
  -24.6789  -31.0643   22.0965 N   0  0  0  0  0  0
  -23.4185  -28.8172   23.3060 O   0  0  0  0  0  0
  -28.3989  -26.5838   20.1145 O   0  0  0  0  0  0
  -26.5621  -34.8920   22.4686 O   0  0  0  0  0  0
  -23.5375  -32.1398   23.7372 O   0  0  0  0  0  0
  -28.5055  -17.0215   19.1549 C   0  0  0  0  0  0
  -30.6986  -20.8544   20.6247 C   0  0  0  0  0  0
  -28.3482  -20.1616   20.8916 C   0  0  0  0  0  0
  -29.6462  -16.1542   18.6467 C   0  0  0  0  0  0
  -30.2231  -22.2229   20.0196 C   0  0  0  0  0  0
  -27.8929  -21.5326   20.2783 C   0  0  0  0  0  0
  -29.7221  -19.6704   20.3599 C   0  0  2  0  0  0
  -29.2283  -17.0073   20.5044 C   0  0  2  0  0  0
  -27.5264  -25.1773   21.9945 C   0  0  0  0  0  0
  -28.3882  -23.9801   19.8577 C   0  0  0  0  0  0
  -30.2218  -18.2031   20.8075 C   0  0  2  0  0  0
  -28.4662  -25.2658   20.7765 C   0  0  1  0  0  0
  -29.7462  -15.6637   20.0261 N   0  0  0  0  0  0
  -28.8615  -22.6608   20.4704 N   0  3  2  0  0  0
  -30.5636  -18.1902   22.2413 N   0  3  0  0  0  0
  -31.4835  -12.4979   19.1580 H   0  0  0  0  0  0
  -30.3858  -11.3926   19.9489 H   0  0  0  0  0  0
  -29.7633  -11.6029   17.5477 H   0  0  0  0  0  0
  -29.6878  -13.3302   17.6620 H   0  0  0  0  0  0
  -27.8433  -11.2617   18.8839 H   0  0  0  0  0  0
  -27.3863  -12.5311   17.7846 H   0  0  0  0  0  0
  -27.6367  -14.2188   19.4672 H   0  0  0  0  0  0
  -28.7077  -12.1165   21.4210 H   0  0  0  0  0  0
  -28.4567  -13.8122   21.7791 H   0  0  0  0  0  0
  -25.2753   -9.5665   22.4761 H   0  0  0  0  0  0
  -23.9997   -7.4610   22.7463 H   0  0  0  0  0  0
  -21.0831   -8.8747   19.8948 H   0  0  0  0  0  0
  -22.3673  -10.9660   19.6167 H   0  0  0  0  0  0
  -21.1997   -7.6141   23.9712 H   0  0  0  0  0  0
  -21.1480   -6.0519   25.9077 H   0  0  0  0  0  0
  -22.0605   -2.7605   23.2844 H   0  0  0  0  0  0
  -22.4095  -11.9875   22.4802 H   0  0  0  0  0  0
  -21.1104  -13.1245   22.2610 H   0  0  0  0  0  0
  -24.6686  -15.8427   20.5364 H   0  0  0  0  0  0
  -26.2951  -15.6175   20.1282 H   0  0  0  0  0  0
  -26.7134  -32.5478   23.1100 H   0  0  0  0  0  0
  -25.0015  -33.9741   25.0407 H   0  0  0  0  0  0
  -22.7055  -31.2973   21.3990 H   0  0  0  0  0  0
  -23.3753  -35.9634   23.3319 H   0  0  0  0  0  0
  -24.3576  -36.8910   22.2056 H   0  0  0  0  0  0
  -23.7244  -37.6505   23.6656 H   0  0  0  0  0  0
  -26.0703  -31.5656   20.5982 H   0  0  0  0  0  0
  -26.8305  -30.8562   21.9937 H   0  0  0  0  0  0
  -28.1131  -29.0379   21.1752 H   0  0  0  0  0  0
  -26.0518  -25.9223   19.0250 H   0  0  0  0  0  0
  -23.9879  -27.2743   19.0323 H   0  0  0  0  0  0
  -23.7378  -30.5734   19.4002 H   0  0  0  0  0  0
  -22.7499  -29.2239   19.8698 H   0  0  0  0  0  0
  -25.1304  -36.1956   25.0830 H   0  0  0  0  0  0
  -20.9952  -28.3233   24.1439 H   0  0  0  0  0  0
  -20.5671  -26.2274   23.3613 H   0  0  0  0  0  0
  -21.6638  -26.7437   22.1221 H   0  0  0  0  0  0
  -19.6912  -25.6293   21.1246 H   0  0  0  0  0  0
  -19.6701  -27.3196   20.6753 H   0  0  0  0  0  0
  -17.4202  -26.6683   21.4016 H   0  0  0  0  0  0
  -18.0312  -26.0062   22.9010 H   0  0  0  0  0  0
  -19.7924  -30.7259   24.2288 H   0  0  0  0  0  0
  -17.5003  -31.6270   24.5153 H   0  0  0  0  0  0
  -15.5344  -30.2986   23.7645 H   0  0  0  0  0  0
  -15.8664  -28.0817   22.7068 H   0  0  0  0  0  0
  -24.5865  -30.7103   25.7749 H   0  0  0  0  0  0
  -24.8921  -32.2892   26.4880 H   0  0  0  0  0  0
  -25.8018  -30.8862   27.0198 H   0  0  0  0  0  0
  -26.2868  -29.6771   24.1171 H   0  0  0  0  0  0
  -27.4037  -29.7267   25.4614 H   0  0  0  0  0  0
  -27.8724  -30.4316   23.9321 H   0  0  0  0  0  0
  -27.2674  -33.3590   26.2065 H   0  0  0  0  0  0
  -28.3822  -32.6894   25.0251 H   0  0  0  0  0  0
  -28.0757  -31.8408   26.5327 H   0  0  0  0  0  0
  -28.2610  -38.0098   24.7499 H   0  0  0  0  0  0
  -28.1078  -36.2627   24.6305 H   0  0  0  0  0  0
  -27.2299  -37.1475   25.8865 H   0  0  0  0  0  0
  -20.9338  -29.8727   21.6911 H   0  0  0  0  0  0
  -26.0193  -38.2867   24.1387 H   0  0  0  0  0  0
  -27.5462  -16.5050   19.1673 H   0  0  0  0  0  0
  -28.4099  -17.9774   18.6445 H   0  0  0  0  0  0
  -30.8544  -20.9833   21.6963 H   0  0  0  0  0  0
  -31.6781  -20.6131   20.2085 H   0  0  0  0  0  0
  -27.5821  -19.4153   20.6781 H   0  0  0  0  0  0
  -28.3808  -20.2507   21.9778 H   0  0  0  0  0  0
  -30.5212  -16.7075   18.2969 H   0  0  0  0  0  0
  -29.3154  -15.4319   17.9035 H   0  0  0  0  0  0
  -30.2276  -22.1449   18.9308 H   0  0  0  0  0  0
  -30.9474  -22.9999   20.2697 H   0  0  0  0  0  0
  -26.9330  -21.8157   20.7124 H   0  0  0  0  0  0
  -27.7154  -21.4018   19.2090 H   0  0  0  0  0  0
  -29.6374  -19.6272   19.2739 H   0  0  0  0  0  0
  -28.4776  -16.9002   21.2894 H   0  0  0  0  0  0
  -27.6453  -26.0436   22.6456 H   0  0  0  0  0  0
  -27.7362  -24.2937   22.5957 H   0  0  0  0  0  0
  -26.4805  -25.1240   21.6943 H   0  0  0  0  0  0
  -28.9626  -24.1696   18.9502 H   0  0  0  0  0  0
  -27.3577  -23.8746   19.5168 H   0  0  0  0  0  0
  -31.1563  -18.0184   20.2742 H   0  0  0  0  0  0
  -29.4782  -25.2625   21.1824 H   0  0  0  0  0  0
  -28.9222  -22.8099   21.4676 H   0  0  0  0  0  0
  -29.7579  -18.3739   22.8129 H   0  0  0  0  0  0
  -31.2675  -18.8754   22.4492 H   0  0  0  0  0  0
  -30.9335  -17.2941   22.5034 H   0  0  0  0  0  0
  1 25  1  0  0  0
  1 30  2  0  0  0
  1 83  1  0  0  0
  2  3  1  0  0  0
  2 25  1  0  0  0
  2 86  1  0  0  0
  2 87  1  0  0  0
  3  4  1  0  0  0
  3 88  1  0  0  0
  3 89  1  0  0  0
  4  5  1  0  0  0
  4 90  1  0  0  0
  4 91  1  0  0  0
  5  6  1  0  0  0
  5 26  1  0  0  0
  5 92  1  0  0  0
  6 25  1  0  0  0
  6 93  1  0  0  0
  6 94  1  0  0  0
  7  8  2  0  0  0
  7 26  1  0  0  0
  7 29  1  0  0  0
  8  9  1  0  0  0
  8 22  1  0  0  0
  9 10  1  0  0  0
  9 27  2  0  0  0
 10 11  2  0  0  0
 10 15  1  0  0  0
 11 12  1  0  0  0
 11 95  1  0  0  0
 12 13  2  0  0  0
 12 96  1  0  0  0
 13 14  1  0  0  0
 13 31  1  0  0  0
 14 15  2  0  0  0
 14 97  1  0  0  0
 15 98  1  0  0  0
 16 17  2  0  0  0
 16 21  1  0  0  0
 16 31  1  0  0  0
 17 18  1  0  0  0
 17 99  1  0  0  0
 18 19  2  0  0  0
 18100  1  0  0  0
 19 20  1  0  0  0
 19 24  1  0  0  0
 20 21  2  0  0  0
 20101  1  0  0  0
 21 23  1  0  0  0
 22 28  1  0  0  0
 22 32  2  0  0  0
 26 27  1  0  0  0
 28102  1  0  0  0
 28103  1  0  0  0
 29104  1  0  0  0
 29105  1  0  0  0
 33 34  1  0  0  0
 33 66  1  0  0  0
 33 70  2  0  0  0
 34 36  1  0  0  0
 34 59  1  0  0  0
 34106  1  0  0  0
 35 44  2  0  0  0
 35 45  1  0  0  0
 35 68  1  0  0  0
 36 56  1  0  0  0
 36107  1  0  0  0
 37 39  1  0  0  0
 37 47  1  0  0  0
 37 66  1  0  0  0
 37108  1  0  0  0
 38 43  2  0  0  0
 38 46  1  0  0  0
 38 47  1  0  0  0
 39 64  1  0  0  0
 39 67  2  0  0  0
 40 52  1  0  0  0
 40 53  2  0  0  0
 40 58  1  0  0  0
 41109  1  0  0  0
 41110  1  0  0  0
 41111  1  0  0  0
 41 48  1  0  0  0
 42 43  1  0  0  0
 42 66  1  0  0  0
 42112  1  0  0  0
 42113  1  0  0  0
 43 44  1  0  0  0
 44114  1  0  0  0
 45 46  2  0  0  0
 45115  1  0  0  0
 46116  1  0  0  0
 47117  1  0  0  0
 47118  1  0  0  0
 48 56  1  0  0  0
 48 65  1  0  0  0
 48119  1  0  0  0
 49 50  1  0  0  0
 49 53  1  0  0  0
 49 64  1  0  0  0
 49120  1  0  0  0
 50 51  1  0  0  0
 50121  1  0  0  0
 50122  1  0  0  0
 51 52  1  0  0  0
 51123  1  0  0  0
 51124  1  0  0  0
 52125  1  0  0  0
 52126  1  0  0  0
 53 54  1  0  0  0
 54 55  2  0  0  0
 54127  1  0  0  0
 55 57  1  0  0  0
 55128  1  0  0  0
 56 69  2  0  0  0
 57 58  2  0  0  0
 57129  1  0  0  0
 58130  1  0  0  0
 59 60  1  0  0  0
 59 61  1  0  0  0
 59 62  1  0  0  0
 60131  1  0  0  0
 60132  1  0  0  0
 60133  1  0  0  0
 61134  1  0  0  0
 61135  1  0  0  0
 61136  1  0  0  0
 62137  1  0  0  0
 62138  1  0  0  0
 62139  1  0  0  0
 63 65  1  0  0  0
 63140  1  0  0  0
 63141  1  0  0  0
 63142  1  0  0  0
 64143  1  0  0  0
 65144  1  0  0  0
 68 82  1  0  0  0
 71 74  1  0  0  0
 71145  1  0  0  0
 71146  1  0  0  0
 71 78  1  0  0  0
 72 75  1  0  0  0
 72147  1  0  0  0
 72148  1  0  0  0
 72 77  1  0  0  0
 73 76  1  0  0  0
 73 77  1  0  0  0
 73149  1  0  0  0
 73150  1  0  0  0
 74 83  1  0  0  0
 74151  1  0  0  0
 74152  1  0  0  0
 75 84  1  0  0  0
 75153  1  0  0  0
 75154  1  0  0  0
 76 84  1  0  0  0
 76155  1  0  0  0
 76156  1  0  0  0
 77 81  1  0  0  0
 77157  1  0  0  0
 78 81  1  0  0  0
 78 83  1  0  0  0
 78158  1  0  0  0
 79159  1  0  0  0
 79160  1  0  0  0
 79161  1  0  0  0
 79 82  1  0  0  0
 80 82  1  0  0  0
 80162  1  0  0  0
 80163  1  0  0  0
 80 84  1  0  0  0
 81 85  1  0  0  0
 81164  1  0  0  0
 82165  1  0  0  0
 84166  1  0  0  0
 85167  1  0  0  0
 85168  1  0  0  0
 85169  1  0  0  0
M  CHG  2  84   1  85   1
M  ISO  4   1 100  68 101  82 101  83 100
M  END
> <chiral flag>
0

> <version>
0

> <s_m_source_file>
/data/baiqing/PycharmProjects/Reinvent-master-3.2/result/LINK_invent/BTK/process_docking_weight1_custom_sum_contain_oxygen_bond_distance_aromatic_linkinvent_7_9_3/rearranged_h_0187.sdf

> <i_m_source_file_index>
18

> <r_mmod_Potential_Energy-OPLS-2005>
-36.4142303466797

> <r_mmod_Stretch_Energy-OPLS-2005>
78.7622985839844

> <r_mmod_Bend_Energy-OPLS-2005>
173.052215576172

> <r_mmod_Torsional_Energy-OPLS-2005>
425.390716552734

> <r_mmod_Improper_Torsional_Energy-OPLS-2005>
23.2035903930664

> <r_mmod_Van_der_Waal_Energy-OPLS-2005>
114.709617614746

> <r_mmod_Electrostatic_Energy-OPLS-2005>
55.3032112121582

> <r_mmod_Solvation_Energy-OPLS-2005>
-957.442077636719

> <b_mmod_Minimization_Converged-OPLS-2005>
0

> <r_mmod_RMS_Derivative-OPLS-2005>
1.05011236667633

$$$$
18
                    3D
 Structure written by MMmdl.
168176  0  0  1  0            999 V2000
  -30.5803  -14.7108   20.5104 C   0  0  0  0  0  0
  -30.4531  -12.4384   19.4716 C   0  0  0  0  0  0
  -29.5197  -12.5294   18.2398 C   0  0  0  0  0  0
  -28.0428  -12.3518   18.6472 C   0  0  0  0  0  0
  -27.6574  -13.2186   19.8746 C   0  0  2  0  0  0
  -28.7021  -13.0783   21.0077 C   0  0  0  0  0  0
  -25.2515  -13.8106   20.5582 C   0  0  0  0  0  0
  -24.1805  -13.0400   20.9180 C   0  0  0  0  0  0
  -24.6396  -11.6884   20.8765 C   0  0  0  0  0  0
  -23.9059  -10.4280   21.0425 C   0  0  0  0  0  0
  -24.3608   -9.4195   21.9202 C   0  0  0  0  0  0
  -23.6281   -8.2233   22.0763 C   0  0  0  0  0  0
  -22.4265   -8.0279   21.3550 C   0  0  0  0  0  0
  -21.9901   -9.0251   20.4651 C   0  0  0  0  0  0
  -22.7235  -10.2127   20.3069 C   0  0  0  0  0  0
  -21.6849   -6.0730   22.5277 C   0  0  0  0  0  0
  -21.4012   -6.5633   23.8209 C   0  0  0  0  0  0
  -21.3660   -5.6786   24.9173 C   0  0  0  0  0  0
  -21.6045   -4.3050   24.7227 C   0  0  0  0  0  0
  -21.8819   -3.8141   23.4344 C   0  0  0  0  0  0
  -21.9190   -4.6957   22.3403 C   0  0  0  0  0  0
  -22.7836  -13.5220   21.1844 C   0  0  0  0  0  0
  -22.1664   -4.2143   21.0980 F   0  0  0  0  0  0
  -21.5628   -3.4535   25.7739 F   0  0  0  0  0  0
  -30.0184  -13.4540   20.4565 N   0  0  0  0  0  0
  -26.3000  -12.9324   20.3352 N   0  0  0  0  0  0
  -25.9339  -11.6484   20.5813 N   0  0  0  0  0  0
  -22.0470  -12.8240   22.0410 N   0  0  0  0  0  0
  -25.4121  -15.1780   20.3758 N   0  0  0  0  0  0
  -31.6874  -14.9453   20.0194 O   0  0  0  0  0  0
  -21.6630   -6.8876   21.4243 O   0  0  0  0  0  0
  -22.3536  -14.5536   20.6695 O   0  0  0  0  0  0
  -24.6301  -31.8565   23.1987 C   0  0  0  0  0  0
  -25.9128  -32.4765   23.8332 C   0  0  1  0  0  0
  -27.2288  -27.2770   20.1207 C   0  0  0  0  0  0
  -25.5918  -33.8563   24.2259 N   0  0  0  0  0  0
  -23.4266  -30.4785   21.5434 C   0  0  2  0  0  0
  -24.8744  -28.9281   20.1126 C   0  0  0  0  0  0
  -22.7500  -29.4603   22.4926 C   0  0  0  0  0  0
  -18.0288  -28.1394   22.8488 C   0  0  0  0  0  0
  -24.1484  -36.7287   23.2638 C   0  0  0  0  0  0
  -25.9713  -30.7751   21.3750 C   0  0  0  0  0  0
  -26.0468  -29.3985   20.7174 C   0  0  0  0  0  0
  -27.2259  -28.5868   20.7087 C   0  0  0  0  0  0
  -26.0271  -26.8709   19.4928 C   0  0  0  0  0  0
  -24.8692  -27.6718   19.4906 C   0  0  0  0  0  0
  -23.6433  -29.8124   20.1600 C   0  0  0  0  0  0
  -25.4110  -36.3074   24.0326 C   0  0  1  0  0  0
  -20.5893  -28.3698   23.1283 C   0  0  2  0  0  0
  -20.6779  -26.9416   22.5416 C   0  0  0  0  0  0
  -19.5750  -26.6387   21.5222 C   0  0  0  0  0  0
  -18.1929  -26.7937   22.1629 C   0  0  0  0  0  0
  -19.1543  -28.8864   23.2879 C   0  0  0  0  0  0
  -18.9462  -30.1467   23.8896 C   0  0  0  0  0  0
  -17.6462  -30.6593   24.0565 C   0  0  0  0  0  0
  -25.9052  -34.9445   23.5100 C   0  0  0  0  0  0
  -16.5354  -29.9091   23.6334 C   0  0  0  0  0  0
  -16.7275  -28.6509   23.0354 C   0  0  0  0  0  0
  -26.4491  -31.6580   25.0715 C   0  0  0  0  0  0
  -25.3707  -31.3738   26.1431 C   0  0  0  0  0  0
  -27.0325  -30.2993   24.6190 C   0  0  0  0  0  0
  -27.6047  -32.4314   25.7489 C   0  0  0  0  0  0
  -27.5575  -37.1798   24.8463 C   0  0  0  0  0  0
  -21.4207  -29.3041   22.3672 N   0  0  0  0  0  0
  -26.4286  -37.3772   23.9409 N   0  0  0  0  0  0
  -24.6954  -31.0538   22.0960 N   0  0  0  0  0  0
  -23.4206  -28.8137   23.3017 O   0  0  0  0  0  0
  -28.3389  -26.4003   20.1684 O   0  0  0  0  0  0
  -26.5634  -34.8919   22.4675 O   0  0  0  0  0  0
  -23.5455  -32.1379   23.7291 O   0  0  0  0  0  0
  -28.5978  -19.3284   21.7032 C   0  0  0  0  0  0
  -29.3696  -19.6712   20.4098 C   0  0  2  0  0  0
  -29.3938  -17.1671   20.7444 C   0  0  2  0  0  0
  -30.3245  -18.3734   20.3013 C   0  0  1  0  0  0
  -28.6840  -17.7913   21.9784 C   0  0  0  0  0  0
  -27.2780  -17.2029   22.1752 C   0  0  0  0  0  0
  -29.4909  -17.5372   23.2738 C   0  0  0  0  0  0
  -29.9414  -24.1529   21.7081 C   0  0  0  0  0  0
  -29.8969  -21.2089   20.3950 C   0  0  0  0  0  0
  -28.1017  -24.9194   20.0724 C   0  0  0  0  0  0
  -29.2677  -23.8315   20.3607 C   0  0  2  0  0  0
  -29.7534  -15.7004   20.9851 N   0  0  0  0  0  0
  -30.9005  -18.1492   18.9636 N   0  3  0  0  0  0
  -28.8534  -22.3408   20.2987 N   0  3  0  0  0  0
  -31.4935  -12.5810   19.1741 H   0  0  0  0  0  0
  -30.4052  -11.4427   19.9147 H   0  0  0  0  0  0
  -29.7948  -11.7775   17.4991 H   0  0  0  0  0  0
  -29.6488  -13.4975   17.7531 H   0  0  0  0  0  0
  -27.8872  -11.2971   18.8773 H   0  0  0  0  0  0
  -27.3889  -12.5785   17.8046 H   0  0  0  0  0  0
  -27.6730  -14.2548   19.5361 H   0  0  0  0  0  0
  -28.7275  -12.0522   21.3775 H   0  0  0  0  0  0
  -28.4263  -13.6891   21.8689 H   0  0  0  0  0  0
  -25.2749   -9.5668   22.4780 H   0  0  0  0  0  0
  -23.9984   -7.4622   22.7482 H   0  0  0  0  0  0
  -21.0831   -8.8776   19.8956 H   0  0  0  0  0  0
  -22.3700  -10.9668   19.6181 H   0  0  0  0  0  0
  -21.2005   -7.6140   23.9710 H   0  0  0  0  0  0
  -21.1484   -6.0518   25.9073 H   0  0  0  0  0  0
  -22.0595   -2.7601   23.2846 H   0  0  0  0  0  0
  -22.4063  -11.9890   22.4797 H   0  0  0  0  0  0
  -21.1096  -13.1290   22.2617 H   0  0  0  0  0  0
  -24.6368  -15.8246   20.4643 H   0  0  0  0  0  0
  -26.2506  -15.6094   20.0124 H   0  0  0  0  0  0
  -26.7196  -32.5424   23.1077 H   0  0  0  0  0  0
  -25.0027  -33.9703   25.0378 H   0  0  0  0  0  0
  -22.7219  -31.3002   21.3986 H   0  0  0  0  0  0
  -23.3747  -35.9618   23.3298 H   0  0  0  0  0  0
  -24.3574  -36.8914   22.2052 H   0  0  0  0  0  0
  -23.7238  -37.6486   23.6668 H   0  0  0  0  0  0
  -26.1047  -31.5353   20.6041 H   0  0  0  0  0  0
  -26.8514  -30.8276   22.0049 H   0  0  0  0  0  0
  -28.1242  -28.9436   21.1928 H   0  0  0  0  0  0
  -25.9437  -25.9141   19.0015 H   0  0  0  0  0  0
  -23.9710  -27.3060   19.0121 H   0  0  0  0  0  0
  -23.7663  -30.5887   19.4040 H   0  0  0  0  0  0
  -22.7623  -29.2446   19.8553 H   0  0  0  0  0  0
  -25.1289  -36.1921   25.0817 H   0  0  0  0  0  0
  -20.9983  -28.3276   24.1405 H   0  0  0  0  0  0
  -20.5691  -26.2302   23.3617 H   0  0  0  0  0  0
  -21.6646  -26.7449   22.1204 H   0  0  0  0  0  0
  -19.6910  -25.6297   21.1251 H   0  0  0  0  0  0
  -19.6688  -27.3200   20.6755 H   0  0  0  0  0  0
  -17.4199  -26.6691   21.4029 H   0  0  0  0  0  0
  -18.0319  -26.0084   22.9028 H   0  0  0  0  0  0
  -19.7937  -30.7288   24.2262 H   0  0  0  0  0  0
  -17.5014  -31.6276   24.5164 H   0  0  0  0  0  0
  -15.5356  -30.2992   23.7662 H   0  0  0  0  0  0
  -15.8673  -28.0831   22.7073 H   0  0  0  0  0  0
  -24.5893  -30.7074   25.7762 H   0  0  0  0  0  0
  -24.8883  -32.2910   26.4820 H   0  0  0  0  0  0
  -25.8015  -30.8944   27.0230 H   0  0  0  0  0  0
  -26.2902  -29.6755   24.1197 H   0  0  0  0  0  0
  -27.3983  -29.7244   25.4708 H   0  0  0  0  0  0
  -27.8792  -30.4261   23.9441 H   0  0  0  0  0  0
  -27.2657  -33.3622   26.2051 H   0  0  0  0  0  0
  -28.3864  -32.6860   25.0321 H   0  0  0  0  0  0
  -28.0702  -31.8445   26.5418 H   0  0  0  0  0  0
  -28.2592  -38.0096   24.7509 H   0  0  0  0  0  0
  -28.1071  -36.2627   24.6286 H   0  0  0  0  0  0
  -27.2298  -37.1447   25.8868 H   0  0  0  0  0  0
  -20.9393  -29.8760   21.6875 H   0  0  0  0  0  0
  -26.0163  -38.2845   24.1416 H   0  0  0  0  0  0
  -27.5639  -19.6662   21.6191 H   0  0  0  0  0  0
  -29.0170  -19.8825   22.5447 H   0  0  0  0  0  0
  -28.6604  -19.5857   19.5853 H   0  0  0  0  0  0
  -28.6425  -17.0945   19.9551 H   0  0  0  0  0  0
  -31.1508  -18.4724   21.0071 H   0  0  0  0  0  0
  -26.6380  -17.4164   21.3193 H   0  0  0  0  0  0
  -26.7915  -17.6273   23.0540 H   0  0  0  0  0  0
  -27.3047  -16.1219   22.3138 H   0  0  0  0  0  0
  -30.5112  -17.9152   23.2038 H   0  0  0  0  0  0
  -29.5539  -16.4763   23.5169 H   0  0  0  0  0  0
  -29.0259  -18.0260   24.1306 H   0  0  0  0  0  0
  -30.2416  -25.2006   21.7503 H   0  0  0  0  0  0
  -30.8432  -23.5624   21.8662 H   0  0  0  0  0  0
  -29.2679  -23.9741   22.5469 H   0  0  0  0  0  0
  -30.5791  -21.3339   19.5537 H   0  0  0  0  0  0
  -30.5027  -21.3672   21.2870 H   0  0  0  0  0  0
  -27.2727  -24.6872   20.7431 H   0  0  0  0  0  0
  -27.7408  -24.7141   19.0647 H   0  0  0  0  0  0
  -30.0163  -23.9747   19.5800 H   0  0  0  0  0  0
  -28.9962  -15.2534   21.4778 H   0  0  0  0  0  0
  -30.1891  -18.0763   18.2578 H   0  0  0  0  0  0
  -31.4299  -17.2934   18.9668 H   0  0  0  0  0  0
  -31.5270  -18.8922   18.7112 H   0  0  0  0  0  0
  -28.1685  -22.1820   21.0213 H   0  0  0  0  0  0
  -28.3690  -22.2048   19.4236 H   0  0  0  0  0  0
  1 25  1  0  0  0
  1 30  2  0  0  0
  1 82  1  0  0  0
  2  3  1  0  0  0
  2 25  1  0  0  0
  2 85  1  0  0  0
  2 86  1  0  0  0
  3  4  1  0  0  0
  3 87  1  0  0  0
  3 88  1  0  0  0
  4  5  1  0  0  0
  4 89  1  0  0  0
  4 90  1  0  0  0
  5  6  1  0  0  0
  5 26  1  0  0  0
  5 91  1  0  0  0
  6 25  1  0  0  0
  6 92  1  0  0  0
  6 93  1  0  0  0
  7  8  2  0  0  0
  7 26  1  0  0  0
  7 29  1  0  0  0
  8  9  1  0  0  0
  8 22  1  0  0  0
  9 10  1  0  0  0
  9 27  2  0  0  0
 10 11  2  0  0  0
 10 15  1  0  0  0
 11 12  1  0  0  0
 11 94  1  0  0  0
 12 13  2  0  0  0
 12 95  1  0  0  0
 13 14  1  0  0  0
 13 31  1  0  0  0
 14 15  2  0  0  0
 14 96  1  0  0  0
 15 97  1  0  0  0
 16 17  2  0  0  0
 16 21  1  0  0  0
 16 31  1  0  0  0
 17 18  1  0  0  0
 17 98  1  0  0  0
 18 19  2  0  0  0
 18 99  1  0  0  0
 19 20  1  0  0  0
 19 24  1  0  0  0
 20 21  2  0  0  0
 20100  1  0  0  0
 21 23  1  0  0  0
 22 28  1  0  0  0
 22 32  2  0  0  0
 26 27  1  0  0  0
 28101  1  0  0  0
 28102  1  0  0  0
 29103  1  0  0  0
 29104  1  0  0  0
 33 34  1  0  0  0
 33 66  1  0  0  0
 33 70  2  0  0  0
 34 36  1  0  0  0
 34 59  1  0  0  0
 34105  1  0  0  0
 35 44  2  0  0  0
 35 45  1  0  0  0
 35 68  1  0  0  0
 36 56  1  0  0  0
 36106  1  0  0  0
 37 39  1  0  0  0
 37 47  1  0  0  0
 37 66  1  0  0  0
 37107  1  0  0  0
 38 43  2  0  0  0
 38 46  1  0  0  0
 38 47  1  0  0  0
 39 64  1  0  0  0
 39 67  2  0  0  0
 40 52  1  0  0  0
 40 53  2  0  0  0
 40 58  1  0  0  0
 41108  1  0  0  0
 41109  1  0  0  0
 41110  1  0  0  0
 41 48  1  0  0  0
 42 43  1  0  0  0
 42 66  1  0  0  0
 42111  1  0  0  0
 42112  1  0  0  0
 43 44  1  0  0  0
 44113  1  0  0  0
 45 46  2  0  0  0
 45114  1  0  0  0
 46115  1  0  0  0
 47116  1  0  0  0
 47117  1  0  0  0
 48 56  1  0  0  0
 48 65  1  0  0  0
 48118  1  0  0  0
 49 50  1  0  0  0
 49 53  1  0  0  0
 49 64  1  0  0  0
 49119  1  0  0  0
 50 51  1  0  0  0
 50120  1  0  0  0
 50121  1  0  0  0
 51 52  1  0  0  0
 51122  1  0  0  0
 51123  1  0  0  0
 52124  1  0  0  0
 52125  1  0  0  0
 53 54  1  0  0  0
 54 55  2  0  0  0
 54126  1  0  0  0
 55 57  1  0  0  0
 55127  1  0  0  0
 56 69  2  0  0  0
 57 58  2  0  0  0
 57128  1  0  0  0
 58129  1  0  0  0
 59 60  1  0  0  0
 59 61  1  0  0  0
 59 62  1  0  0  0
 60130  1  0  0  0
 60131  1  0  0  0
 60132  1  0  0  0
 61133  1  0  0  0
 61134  1  0  0  0
 61135  1  0  0  0
 62136  1  0  0  0
 62137  1  0  0  0
 62138  1  0  0  0
 63 65  1  0  0  0
 63139  1  0  0  0
 63140  1  0  0  0
 63141  1  0  0  0
 64142  1  0  0  0
 65143  1  0  0  0
 68 80  1  0  0  0
 71 72  1  0  0  0
 71 75  1  0  0  0
 71144  1  0  0  0
 71145  1  0  0  0
 72 74  1  0  0  0
 72 79  1  0  0  0
 72146  1  0  0  0
 73 74  1  0  0  0
 73 75  1  0  0  0
 73 82  1  0  0  0
 73147  1  0  0  0
 74 83  1  0  0  0
 74148  1  0  0  0
 75 76  1  0  0  0
 75 77  1  0  0  0
 76149  1  0  0  0
 76150  1  0  0  0
 76151  1  0  0  0
 77152  1  0  0  0
 77153  1  0  0  0
 77154  1  0  0  0
 78155  1  0  0  0
 78156  1  0  0  0
 78157  1  0  0  0
 78 81  1  0  0  0
 79 84  1  0  0  0
 79158  1  0  0  0
 79159  1  0  0  0
 80 81  1  0  0  0
 80160  1  0  0  0
 80161  1  0  0  0
 81 84  1  0  0  0
 81162  1  0  0  0
 82163  1  0  0  0
 83164  1  0  0  0
 83165  1  0  0  0
 83166  1  0  0  0
 84167  1  0  0  0
 84168  1  0  0  0
M  CHG  2  83   1  84   1
M  ISO  4   1 100  68 101  80 101  82 100
M  END
> <chiral flag>
0

> <version>
0

> <s_m_source_file>
/data/baiqing/PycharmProjects/Reinvent-master-3.2/result/LINK_invent/BTK/process_docking_weight1_custom_sum_contain_oxygen_bond_distance_aromatic_linkinvent_7_9_3/rearranged_h_0187.sdf

> <i_m_source_file_index>
19

> <r_mmod_Potential_Energy-OPLS-2005>
-159.56755065918

> <r_mmod_Stretch_Energy-OPLS-2005>
118.961074829102

> <r_mmod_Bend_Energy-OPLS-2005>
242.263275146484

> <r_mmod_Torsional_Energy-OPLS-2005>
320.075012207031

> <r_mmod_Improper_Torsional_Energy-OPLS-2005>
5.28860139846802

> <r_mmod_Van_der_Waal_Energy-OPLS-2005>
115.42414855957

> <r_mmod_Electrostatic_Energy-OPLS-2005>
-56.3306617736816

> <r_mmod_Solvation_Energy-OPLS-2005>
-979.083068847656

> <b_mmod_Minimization_Converged-OPLS-2005>
0

> <r_mmod_RMS_Derivative-OPLS-2005>
1.04845571517944

$$$$
19
                    3D
 Structure written by MMmdl.
154163  0  0  1  0            999 V2000
  -30.6490  -14.7448   20.4663 C   0  0  0  0  0  0
  -30.4295  -12.4704   19.4512 C   0  0  0  0  0  0
  -29.4975  -12.4979   18.2214 C   0  0  0  0  0  0
  -28.0293  -12.2964   18.6467 C   0  0  0  0  0  0
  -27.6358  -13.1950   19.8459 C   0  0  2  0  0  0
  -28.6948  -13.1338   20.9715 C   0  0  0  0  0  0
  -25.2509  -13.8078   20.5691 C   0  0  0  0  0  0
  -24.1780  -13.0374   20.9228 C   0  0  0  0  0  0
  -24.6343  -11.6843   20.8791 C   0  0  0  0  0  0
  -23.9019  -10.4250   21.0445 C   0  0  0  0  0  0
  -24.3587   -9.4166   21.9209 C   0  0  0  0  0  0
  -23.6272   -8.2200   22.0759 C   0  0  0  0  0  0
  -22.4254   -8.0253   21.3544 C   0  0  0  0  0  0
  -21.9887   -9.0227   20.4653 C   0  0  0  0  0  0
  -22.7205  -10.2106   20.3075 C   0  0  0  0  0  0
  -21.6836   -6.0717   22.5278 C   0  0  0  0  0  0
  -21.3999   -6.5625   23.8210 C   0  0  0  0  0  0
  -21.3662   -5.6785   24.9177 C   0  0  0  0  0  0
  -21.6050   -4.3049   24.7231 C   0  0  0  0  0  0
  -21.8821   -3.8136   23.4354 C   0  0  0  0  0  0
  -21.9186   -4.6947   22.3406 C   0  0  0  0  0  0
  -22.7814  -13.5197   21.1881 C   0  0  0  0  0  0
  -22.1659   -4.2128   21.0986 F   0  0  0  0  0  0
  -21.5638   -3.4540   25.7751 F   0  0  0  0  0  0
  -29.9740  -13.5398   20.3744 N   0  0  0  0  0  0
  -26.2903  -12.9213   20.3303 N   0  0  0  0  0  0
  -25.9258  -11.6400   20.5799 N   0  0  0  0  0  0
  -22.0440  -12.8209   22.0437 N   0  0  0  0  0  0
  -25.4183  -15.1793   20.4065 N   0  0  0  0  0  0
  -31.8537  -14.7576   20.1943 O   0  0  0  0  0  0
  -21.6617   -6.8853   21.4238 O   0  0  0  0  0  0
  -22.3527  -14.5512   20.6720 O   0  0  0  0  0  0
  -24.6288  -31.8572   23.1996 C   0  0  0  0  0  0
  -25.9122  -32.4767   23.8337 C   0  0  1  0  0  0
  -27.2298  -27.2986   20.1041 C   0  0  0  0  0  0
  -25.5928  -33.8568   24.2264 N   0  0  0  0  0  0
  -23.4233  -30.4803   21.5430 C   0  0  2  0  0  0
  -24.8692  -28.9323   20.1085 C   0  0  0  0  0  0
  -22.7484  -29.4611   22.4927 C   0  0  0  0  0  0
  -18.0287  -28.1387   22.8483 C   0  0  0  0  0  0
  -24.1490  -36.7286   23.2638 C   0  0  0  0  0  0
  -25.9667  -30.7808   21.3734 C   0  0  0  0  0  0
  -26.0388  -29.4067   20.7136 C   0  0  0  0  0  0
  -27.2172  -28.5994   20.7057 C   0  0  0  0  0  0
  -26.0243  -26.8725   19.4984 C   0  0  0  0  0  0
  -24.8647  -27.6709   19.4951 C   0  0  0  0  0  0
  -23.6377  -29.8142   20.1588 C   0  0  0  0  0  0
  -25.4113  -36.3076   24.0332 C   0  0  1  0  0  0
  -20.5889  -28.3689   23.1286 C   0  0  2  0  0  0
  -20.6770  -26.9407   22.5422 C   0  0  0  0  0  0
  -19.5755  -26.6385   21.5210 C   0  0  0  0  0  0
  -18.1929  -26.7937   22.1610 C   0  0  0  0  0  0
  -19.1540  -28.8852   23.2882 C   0  0  0  0  0  0
  -18.9460  -30.1455   23.8900 C   0  0  0  0  0  0
  -17.6459  -30.6588   24.0561 C   0  0  0  0  0  0
  -25.9052  -34.9446   23.5097 C   0  0  0  0  0  0
  -16.5351  -29.9084   23.6333 C   0  0  0  0  0  0
  -16.7275  -28.6503   23.0353 C   0  0  0  0  0  0
  -26.4496  -31.6586   25.0718 C   0  0  0  0  0  0
  -25.3727  -31.3757   26.1450 C   0  0  0  0  0  0
  -27.0312  -30.2994   24.6190 C   0  0  0  0  0  0
  -27.6068  -32.4314   25.7474 C   0  0  0  0  0  0
  -27.5591  -37.1785   24.8455 C   0  0  0  0  0  0
  -21.4195  -29.3040   22.3674 N   0  0  0  0  0  0
  -26.4288  -37.3774   23.9418 N   0  0  0  0  0  0
  -24.6920  -31.0566   22.0955 N   0  0  0  0  0  0
  -23.4200  -28.8149   23.3011 O   0  0  0  0  0  0
  -28.3555  -26.4521   20.1800 O   0  0  0  0  0  0
  -26.5619  -34.8920   22.4665 O   0  0  0  0  0  0
  -23.5443  -32.1378   23.7310 O   0  0  0  0  0  0
  -28.2370  -22.6444   19.2499 C   0  0  0  0  0  0
  -29.6890  -23.4580   20.9028 C   0  0  0  0  0  0
  -28.7667  -23.7950   19.8909 C   0  0  0  0  0  0
  -29.4898  -21.1607   20.5116 C   0  0  0  0  0  0
  -28.4479  -17.8353   21.0620 C   0  0  0  0  0  0
  -28.5750  -16.3219   20.7723 C   0  0  0  0  0  0
  -30.6723  -17.3249   20.4707 C   0  0  0  0  0  0
  -29.6028  -18.4876   20.3148 C   0  0  2  0  0  0
  -28.5134  -25.2523   19.3206 C   0  0  0  0  0  0
  -28.5896  -21.3552   19.5540 N   0  0  0  0  0  0
  -30.0343  -22.1651   21.1991 N   0  0  0  0  0  0
  -29.9981  -15.9813   20.6065 N   0  0  0  0  0  0
  -29.9623  -19.8556   20.8223 N   0  0  0  0  0  0
  -31.4640  -12.6020   19.1302 H   0  0  0  0  0  0
  -30.3981  -11.4957   19.9408 H   0  0  0  0  0  0
  -29.7895  -11.7267   17.5072 H   0  0  0  0  0  0
  -29.6023  -13.4519   17.7021 H   0  0  0  0  0  0
  -27.9025  -11.2467   18.9153 H   0  0  0  0  0  0
  -27.3626  -12.4772   17.8025 H   0  0  0  0  0  0
  -27.6119  -14.1909   19.4248 H   0  0  0  0  0  0
  -28.7646  -12.1175   21.3630 H   0  0  0  0  0  0
  -28.4323  -13.7406   21.8344 H   0  0  0  0  0  0
  -25.2729   -9.5636   22.4785 H   0  0  0  0  0  0
  -23.9981   -7.4577   22.7464 H   0  0  0  0  0  0
  -21.0819   -8.8741   19.8953 H   0  0  0  0  0  0
  -22.3668  -10.9653   19.6191 H   0  0  0  0  0  0
  -21.1981   -7.6132   23.9707 H   0  0  0  0  0  0
  -21.1492   -6.0518   25.9079 H   0  0  0  0  0  0
  -22.0602   -2.7597   23.2859 H   0  0  0  0  0  0
  -22.4038  -11.9866   22.4833 H   0  0  0  0  0  0
  -21.1065  -13.1256   22.2643 H   0  0  0  0  0  0
  -24.6526  -15.8335   20.5249 H   0  0  0  0  0  0
  -26.2717  -15.6209   20.0937 H   0  0  0  0  0  0
  -26.7189  -32.5421   23.1081 H   0  0  0  0  0  0
  -25.0092  -33.9713   25.0421 H   0  0  0  0  0  0
  -22.7192  -31.3022   21.3992 H   0  0  0  0  0  0
  -23.3758  -35.9611   23.3283 H   0  0  0  0  0  0
  -24.3592  -36.8918   22.2056 H   0  0  0  0  0  0
  -23.7232  -37.6481   23.6663 H   0  0  0  0  0  0
  -26.1028  -31.5439   20.6058 H   0  0  0  0  0  0
  -26.8455  -30.8281   22.0046 H   0  0  0  0  0  0
  -28.1142  -28.9601   21.1893 H   0  0  0  0  0  0
  -25.9228  -25.8937   19.0582 H   0  0  0  0  0  0
  -23.9621  -27.2939   19.0337 H   0  0  0  0  0  0
  -23.7570  -30.5897   19.4014 H   0  0  0  0  0  0
  -22.7574  -29.2436   19.8576 H   0  0  0  0  0  0
  -25.1292  -36.1925   25.0823 H   0  0  0  0  0  0
  -20.9990  -28.3265   24.1405 H   0  0  0  0  0  0
  -20.5644  -26.2303   23.3627 H   0  0  0  0  0  0
  -21.6644  -26.7425   22.1237 H   0  0  0  0  0  0
  -19.6916  -25.6294   21.1245 H   0  0  0  0  0  0
  -19.6709  -27.3193   20.6739 H   0  0  0  0  0  0
  -17.4215  -26.6709   21.3990 H   0  0  0  0  0  0
  -18.0305  -26.0073   22.8994 H   0  0  0  0  0  0
  -19.7935  -30.7261   24.2286 H   0  0  0  0  0  0
  -17.5014  -31.6272   24.5157 H   0  0  0  0  0  0
  -15.5348  -30.2980   23.7659 H   0  0  0  0  0  0
  -15.8678  -28.0814   22.7073 H   0  0  0  0  0  0
  -24.5931  -30.7051   25.7818 H   0  0  0  0  0  0
  -24.8874  -32.2926   26.4805 H   0  0  0  0  0  0
  -25.8060  -30.9022   27.0269 H   0  0  0  0  0  0
  -26.2874  -29.6762   24.1209 H   0  0  0  0  0  0
  -27.3976  -29.7245   25.4706 H   0  0  0  0  0  0
  -27.8769  -30.4252   23.9426 H   0  0  0  0  0  0
  -27.2697  -33.3618   26.2056 H   0  0  0  0  0  0
  -28.3869  -32.6866   25.0289 H   0  0  0  0  0  0
  -28.0746  -31.8433   26.5380 H   0  0  0  0  0  0
  -28.2596  -38.0096   24.7526 H   0  0  0  0  0  0
  -28.1097  -36.2630   24.6233 H   0  0  0  0  0  0
  -27.2327  -37.1395   25.8862 H   0  0  0  0  0  0
  -20.9372  -29.8763   21.6887 H   0  0  0  0  0  0
  -26.0169  -38.2845   24.1435 H   0  0  0  0  0  0
  -27.5491  -22.7544   18.4243 H   0  0  0  0  0  0
  -30.2083  -24.2299   21.4511 H   0  0  0  0  0  0
  -28.5509  -18.0040   22.1355 H   0  0  0  0  0  0
  -27.4786  -18.2361   20.7613 H   0  0  0  0  0  0
  -28.0792  -16.1488   19.8210 H   0  0  0  0  0  0
  -28.0712  -15.7638   21.5562 H   0  0  0  0  0  0
  -31.2709  -17.4794   21.3693 H   0  0  0  0  0  0
  -31.3636  -17.3291   19.6262 H   0  0  0  0  0  0
  -29.3318  -18.5745   19.2611 H   0  0  0  0  0  0
  -27.7651  -25.1890   18.5350 H   0  0  0  0  0  0
  -29.4200  -25.4688   18.7547 H   0  0  0  0  0  0
  -30.6662  -19.8587   21.5495 H   0  0  0  0  0  0
  1 25  1  0  0  0
  1 30  2  0  0  0
  1 82  1  0  0  0
  2  3  1  0  0  0
  2 25  1  0  0  0
  2 84  1  0  0  0
  2 85  1  0  0  0
  3  4  1  0  0  0
  3 86  1  0  0  0
  3 87  1  0  0  0
  4  5  1  0  0  0
  4 88  1  0  0  0
  4 89  1  0  0  0
  5  6  1  0  0  0
  5 26  1  0  0  0
  5 90  1  0  0  0
  6 25  1  0  0  0
  6 91  1  0  0  0
  6 92  1  0  0  0
  7  8  2  0  0  0
  7 26  1  0  0  0
  7 29  1  0  0  0
  8  9  1  0  0  0
  8 22  1  0  0  0
  9 10  1  0  0  0
  9 27  2  0  0  0
 10 11  2  0  0  0
 10 15  1  0  0  0
 11 12  1  0  0  0
 11 93  1  0  0  0
 12 13  2  0  0  0
 12 94  1  0  0  0
 13 14  1  0  0  0
 13 31  1  0  0  0
 14 15  2  0  0  0
 14 95  1  0  0  0
 15 96  1  0  0  0
 16 17  2  0  0  0
 16 21  1  0  0  0
 16 31  1  0  0  0
 17 18  1  0  0  0
 17 97  1  0  0  0
 18 19  2  0  0  0
 18 98  1  0  0  0
 19 20  1  0  0  0
 19 24  1  0  0  0
 20 21  2  0  0  0
 20 99  1  0  0  0
 21 23  1  0  0  0
 22 28  1  0  0  0
 22 32  2  0  0  0
 26 27  1  0  0  0
 28100  1  0  0  0
 28101  1  0  0  0
 29102  1  0  0  0
 29103  1  0  0  0
 33 34  1  0  0  0
 33 66  1  0  0  0
 33 70  2  0  0  0
 34 36  1  0  0  0
 34 59  1  0  0  0
 34104  1  0  0  0
 35 44  2  0  0  0
 35 45  1  0  0  0
 35 68  1  0  0  0
 36 56  1  0  0  0
 36105  1  0  0  0
 37 39  1  0  0  0
 37 47  1  0  0  0
 37 66  1  0  0  0
 37106  1  0  0  0
 38 43  2  0  0  0
 38 46  1  0  0  0
 38 47  1  0  0  0
 39 64  1  0  0  0
 39 67  2  0  0  0
 40 52  1  0  0  0
 40 53  2  0  0  0
 40 58  1  0  0  0
 41107  1  0  0  0
 41108  1  0  0  0
 41109  1  0  0  0
 41 48  1  0  0  0
 42 43  1  0  0  0
 42 66  1  0  0  0
 42110  1  0  0  0
 42111  1  0  0  0
 43 44  1  0  0  0
 44112  1  0  0  0
 45 46  2  0  0  0
 45113  1  0  0  0
 46114  1  0  0  0
 47115  1  0  0  0
 47116  1  0  0  0
 48 56  1  0  0  0
 48 65  1  0  0  0
 48117  1  0  0  0
 49 50  1  0  0  0
 49 53  1  0  0  0
 49 64  1  0  0  0
 49118  1  0  0  0
 50 51  1  0  0  0
 50119  1  0  0  0
 50120  1  0  0  0
 51 52  1  0  0  0
 51121  1  0  0  0
 51122  1  0  0  0
 52123  1  0  0  0
 52124  1  0  0  0
 53 54  1  0  0  0
 54 55  2  0  0  0
 54125  1  0  0  0
 55 57  1  0  0  0
 55126  1  0  0  0
 56 69  2  0  0  0
 57 58  2  0  0  0
 57127  1  0  0  0
 58128  1  0  0  0
 59 60  1  0  0  0
 59 61  1  0  0  0
 59 62  1  0  0  0
 60129  1  0  0  0
 60130  1  0  0  0
 60131  1  0  0  0
 61132  1  0  0  0
 61133  1  0  0  0
 61134  1  0  0  0
 62135  1  0  0  0
 62136  1  0  0  0
 62137  1  0  0  0
 63 65  1  0  0  0
 63138  1  0  0  0
 63139  1  0  0  0
 63140  1  0  0  0
 64141  1  0  0  0
 65142  1  0  0  0
 68 79  1  0  0  0
 71 73  2  0  0  0
 71 80  1  0  0  0
 71143  1  0  0  0
 72 73  1  0  0  0
 72 81  2  0  0  0
 72144  1  0  0  0
 73 79  1  0  0  0
 74 80  2  0  0  0
 74 81  1  0  0  0
 74 83  1  0  0  0
 75 76  1  0  0  0
 75 78  1  0  0  0
 75145  1  0  0  0
 75146  1  0  0  0
 76 82  1  0  0  0
 76147  1  0  0  0
 76148  1  0  0  0
 77 78  1  0  0  0
 77 82  1  0  0  0
 77149  1  0  0  0
 77150  1  0  0  0
 78 83  1  0  0  0
 78151  1  0  0  0
 79152  1  0  0  0
 79153  1  0  0  0
 83154  1  0  0  0
M  ISO  4   1 100  68 101  79 101  82 100
M  END
> <chiral flag>
0

> <version>
0

> <s_m_source_file>
/data/baiqing/PycharmProjects/Reinvent-master-3.2/result/LINK_invent/BTK/process_docking_weight1_custom_sum_contain_oxygen_bond_distance_aromatic_linkinvent_7_9_3/rearranged_h_0187.sdf

> <i_m_source_file_index>
20

> <r_mmod_Potential_Energy-OPLS-2005>
-223.121307373047

> <r_mmod_Stretch_Energy-OPLS-2005>
90.814323425293

> <r_mmod_Bend_Energy-OPLS-2005>
221.120834350586

> <r_mmod_Torsional_Energy-OPLS-2005>
299.836700439453

> <r_mmod_Improper_Torsional_Energy-OPLS-2005>
7.00338268280029

> <r_mmod_Van_der_Waal_Energy-OPLS-2005>
150.598007202148

> <r_mmod_Electrostatic_Energy-OPLS-2005>
-828.805603027344

> <r_mmod_Solvation_Energy-OPLS-2005>
-238.835083007812

> <b_mmod_Minimization_Converged-OPLS-2005>
0

> <r_mmod_RMS_Derivative-OPLS-2005>
0.838338196277618

$$$$
20
                    3D
 Structure written by MMmdl.
159168  0  0  1  0            999 V2000
  -30.5891  -14.8888   20.4348 C   0  0  0  0  0  0
  -30.4295  -12.5495   19.4959 C   0  0  0  0  0  0
  -29.5153  -12.5179   18.2514 C   0  0  0  0  0  0
  -28.0470  -12.3182   18.6700 C   0  0  0  0  0  0
  -27.6305  -13.2488   19.8402 C   0  0  2  0  0  0
  -28.6730  -13.2706   20.9781 C   0  0  0  0  0  0
  -25.2471  -13.8228   20.5728 C   0  0  0  0  0  0
  -24.1779  -13.0449   20.9222 C   0  0  0  0  0  0
  -24.6392  -11.6933   20.8750 C   0  0  0  0  0  0
  -23.9077  -10.4300   21.0405 C   0  0  0  0  0  0
  -24.3627   -9.4212   21.9181 C   0  0  0  0  0  0
  -23.6300   -8.2248   22.0751 C   0  0  0  0  0  0
  -22.4280   -8.0284   21.3544 C   0  0  0  0  0  0
  -21.9917   -9.0258   20.4648 C   0  0  0  0  0  0
  -22.7247  -10.2136   20.3056 C   0  0  0  0  0  0
  -21.6855   -6.0737   22.5278 C   0  0  0  0  0  0
  -21.4017   -6.5639   23.8211 C   0  0  0  0  0  0
  -21.3661   -5.6789   24.9172 C   0  0  0  0  0  0
  -21.6044   -4.3053   24.7223 C   0  0  0  0  0  0
  -21.8818   -3.8147   23.4343 C   0  0  0  0  0  0
  -21.9194   -4.6964   22.3400 C   0  0  0  0  0  0
  -22.7800  -13.5221   21.1878 C   0  0  0  0  0  0
  -22.1664   -4.2150   21.0978 F   0  0  0  0  0  0
  -21.5629   -3.4536   25.7736 F   0  0  0  0  0  0
  -29.9532  -13.6543   20.3747 N   0  0  0  0  0  0
  -26.2892  -12.9461   20.3265 N   0  0  0  0  0  0
  -25.9325  -11.6588   20.5745 N   0  0  0  0  0  0
  -22.0451  -12.8208   22.0433 N   0  0  0  0  0  0
  -25.4173  -15.1955   20.4184 N   0  0  0  0  0  0
  -31.7906  -14.9166   20.1462 O   0  0  0  0  0  0
  -21.6643   -6.8881   21.4241 O   0  0  0  0  0  0
  -22.3484  -14.5525   20.6723 O   0  0  0  0  0  0
  -24.6402  -31.8470   23.1918 C   0  0  0  0  0  0
  -25.9188  -32.4710   23.8293 C   0  0  1  0  0  0
  -27.2103  -27.1569   20.1574 C   0  0  0  0  0  0
  -25.5947  -33.8515   24.2207 N   0  0  0  0  0  0
  -23.4427  -30.4674   21.5361 C   0  0  2  0  0  0
  -24.8930  -28.9000   20.1087 C   0  0  0  0  0  0
  -22.7551  -29.4557   22.4868 C   0  0  0  0  0  0
  -18.0302  -28.1394   22.8479 C   0  0  0  0  0  0
  -24.1493  -36.7264   23.2644 C   0  0  0  0  0  0
  -25.9968  -30.7253   21.3912 C   0  0  0  0  0  0
  -26.0665  -29.3376   20.7369 C   0  0  0  0  0  0
  -27.2262  -28.4789   20.7525 C   0  0  0  0  0  0
  -26.0234  -26.8294   19.4666 C   0  0  0  0  0  0
  -24.8818  -27.6570   19.4591 C   0  0  0  0  0  0
  -23.6685  -29.7993   20.1539 C   0  0  0  0  0  0
  -25.4125  -36.3042   24.0318 C   0  0  1  0  0  0
  -20.5912  -28.3715   23.1242 C   0  0  2  0  0  0
  -20.6786  -26.9421   22.5406 C   0  0  0  0  0  0
  -19.5760  -26.6381   21.5213 C   0  0  0  0  0  0
  -18.1941  -26.7934   22.1624 C   0  0  0  0  0  0
  -19.1558  -28.8872   23.2853 C   0  0  0  0  0  0
  -18.9476  -30.1469   23.8877 C   0  0  0  0  0  0
  -17.6473  -30.6591   24.0559 C   0  0  0  0  0  0
  -25.9070  -34.9415   23.5070 C   0  0  0  0  0  0
  -16.5363  -29.9084   23.6337 C   0  0  0  0  0  0
  -16.7287  -28.6503   23.0356 C   0  0  0  0  0  0
  -26.4520  -31.6571   25.0724 C   0  0  0  0  0  0
  -25.3713  -31.3757   26.1425 C   0  0  0  0  0  0
  -27.0388  -30.2970   24.6298 C   0  0  0  0  0  0
  -27.6052  -32.4338   25.7504 C   0  0  0  0  0  0
  -27.5571  -37.1797   24.8472 C   0  0  0  0  0  0
  -21.4246  -29.3045   22.3614 N   0  0  0  0  0  0
  -26.4296  -37.3746   23.9395 N   0  0  0  0  0  0
  -24.7125  -31.0343   22.0947 N   0  0  0  0  0  0
  -23.4205  -28.8107   23.3011 O   0  0  0  0  0  0
  -28.2617  -26.1734   20.1896 O   0  0  0  0  0  0
  -26.5652  -34.8905   22.4646 O   0  0  0  0  0  0
  -23.5526  -32.1339   23.7150 O   0  0  0  0  0  0
  -27.4592  -22.0244   21.1262 C   0  0  0  0  0  0
  -26.6293  -23.1349   21.3894 C   0  0  0  0  0  0
  -28.7028  -22.1962   20.4937 C   0  0  0  0  0  0
  -28.9878  -23.6160   20.1573 C   0  0  0  0  0  0
  -28.0711  -24.7387   20.4518 C   0  0  0  0  0  0
  -29.3755  -16.9458   21.5419 C   0  0  0  0  0  0
  -29.7760  -16.9641   19.1600 C   0  0  0  0  0  0
  -29.5704  -18.5613   21.5549 C   0  0  0  0  0  0
  -30.0253  -18.5482   19.2349 C   0  0  0  0  0  0
  -30.3113  -23.9465   19.4889 C   0  0  0  0  0  0
  -29.6851  -20.8996   20.2838 C   0  0  0  0  0  0
  -26.9186  -24.4217   21.0813 N   0  0  0  0  0  0
  -29.8505  -16.1055   20.3873 N   0  0  0  0  0  0
  -29.3090  -19.3569   20.2913 N   0  3  0  0  0  0
  -31.4682  -12.6800   19.1888 H   0  0  0  0  0  0
  -30.3956  -11.5962   20.0260 H   0  0  0  0  0  0
  -29.8238  -11.7204   17.5742 H   0  0  0  0  0  0
  -29.6167  -13.4508   17.6943 H   0  0  0  0  0  0
  -27.9327  -11.2764   18.9718 H   0  0  0  0  0  0
  -27.3846  -12.4605   17.8152 H   0  0  0  0  0  0
  -27.5978  -14.2537   19.4173 H   0  0  0  0  0  0
  -28.7443  -12.2991   21.4697 H   0  0  0  0  0  0
  -28.3843  -13.9904   21.7457 H   0  0  0  0  0  0
  -25.2770   -9.5689   22.4756 H   0  0  0  0  0  0
  -24.0009   -7.4639   22.7467 H   0  0  0  0  0  0
  -21.0848   -8.8780   19.8953 H   0  0  0  0  0  0
  -22.3705  -10.9675   19.6168 H   0  0  0  0  0  0
  -21.2009   -7.6147   23.9716 H   0  0  0  0  0  0
  -21.1484   -6.0519   25.9075 H   0  0  0  0  0  0
  -22.0597   -2.7610   23.2841 H   0  0  0  0  0  0
  -22.4076  -11.9875   22.4826 H   0  0  0  0  0  0
  -21.1065  -13.1224   22.2637 H   0  0  0  0  0  0
  -24.6517  -15.8505   20.5332 H   0  0  0  0  0  0
  -26.2717  -15.6338   20.1005 H   0  0  0  0  0  0
  -26.7251  -32.5326   23.1020 H   0  0  0  0  0  0
  -25.0075  -33.9636   25.0341 H   0  0  0  0  0  0
  -22.7440  -31.2927   21.3842 H   0  0  0  0  0  0
  -23.3747  -35.9607   23.3331 H   0  0  0  0  0  0
  -24.3568  -36.8867   22.2053 H   0  0  0  0  0  0
  -23.7265  -37.6477   23.6662 H   0  0  0  0  0  0
  -26.1513  -31.4790   20.6178 H   0  0  0  0  0  0
  -26.8680  -30.7754   22.0324 H   0  0  0  0  0  0
  -28.1196  -28.8059   21.2653 H   0  0  0  0  0  0
  -25.9563  -25.8759   18.9625 H   0  0  0  0  0  0
  -23.9890  -27.3197   18.9508 H   0  0  0  0  0  0
  -23.8027  -30.5752   19.3994 H   0  0  0  0  0  0
  -22.7840  -29.2401   19.8435 H   0  0  0  0  0  0
  -25.1317  -36.1881   25.0813 H   0  0  0  0  0  0
  -21.0005  -28.3306   24.1362 H   0  0  0  0  0  0
  -20.5681  -26.2328   23.3623 H   0  0  0  0  0  0
  -21.6653  -26.7430   22.1204 H   0  0  0  0  0  0
  -19.6921  -25.6286   21.1256 H   0  0  0  0  0  0
  -19.6698  -27.3180   20.6735 H   0  0  0  0  0  0
  -17.4210  -26.6677   21.4028 H   0  0  0  0  0  0
  -18.0340  -26.0080   22.9026 H   0  0  0  0  0  0
  -19.7951  -30.7290   24.2238 H   0  0  0  0  0  0
  -17.5026  -31.6270   24.5164 H   0  0  0  0  0  0
  -15.5362  -30.2979   23.7672 H   0  0  0  0  0  0
  -15.8687  -28.0815   22.7083 H   0  0  0  0  0  0
  -24.5892  -30.7104   25.7747 H   0  0  0  0  0  0
  -24.8903  -32.2941   26.4802 H   0  0  0  0  0  0
  -25.8003  -30.8962   27.0232 H   0  0  0  0  0  0
  -26.3005  -29.6691   24.1298 H   0  0  0  0  0  0
  -27.3995  -29.7268   25.4869 H   0  0  0  0  0  0
  -27.8915  -30.4207   23.9619 H   0  0  0  0  0  0
  -27.2643  -33.3651   26.2038 H   0  0  0  0  0  0
  -28.3883  -32.6882   25.0348 H   0  0  0  0  0  0
  -28.0701  -31.8498   26.5457 H   0  0  0  0  0  0
  -28.2618  -38.0062   24.7466 H   0  0  0  0  0  0
  -28.1037  -36.2590   24.6372 H   0  0  0  0  0  0
  -27.2278  -37.1535   25.8875 H   0  0  0  0  0  0
  -20.9450  -29.8756   21.6797 H   0  0  0  0  0  0
  -26.0170  -38.2825   24.1363 H   0  0  0  0  0  0
  -27.1295  -21.0442   21.4409 H   0  0  0  0  0  0
  -25.6831  -22.9824   21.8873 H   0  0  0  0  0  0
  -28.3075  -16.7438   21.6317 H   0  0  0  0  0  0
  -29.8123  -16.5433   22.4573 H   0  0  0  0  0  0
  -30.4522  -16.5572   18.4056 H   0  0  0  0  0  0
  -28.7789  -16.8044   18.7483 H   0  0  0  0  0  0
  -30.6031  -18.7580   21.8474 H   0  0  0  0  0  0
  -28.9633  -18.9857   22.3554 H   0  0  0  0  0  0
  -29.7881  -18.9756   18.2595 H   0  0  0  0  0  0
  -31.0967  -18.7091   19.3671 H   0  0  0  0  0  0
  -30.3843  -23.4564   18.5178 H   0  0  0  0  0  0
  -31.1474  -23.6166   20.1064 H   0  0  0  0  0  0
  -30.4234  -25.0190   19.3269 H   0  0  0  0  0  0
  -30.5140  -21.0290   20.9799 H   0  0  0  0  0  0
  -30.1335  -21.0820   19.3076 H   0  0  0  0  0  0
  -28.3237  -19.3080   20.0825 H   0  0  0  0  0  0
  1 25  1  0  0  0
  1 30  2  0  0  0
  1 83  1  0  0  0
  2  3  1  0  0  0
  2 25  1  0  0  0
  2 85  1  0  0  0
  2 86  1  0  0  0
  3  4  1  0  0  0
  3 87  1  0  0  0
  3 88  1  0  0  0
  4  5  1  0  0  0
  4 89  1  0  0  0
  4 90  1  0  0  0
  5  6  1  0  0  0
  5 26  1  0  0  0
  5 91  1  0  0  0
  6 25  1  0  0  0
  6 92  1  0  0  0
  6 93  1  0  0  0
  7  8  2  0  0  0
  7 26  1  0  0  0
  7 29  1  0  0  0
  8  9  1  0  0  0
  8 22  1  0  0  0
  9 10  1  0  0  0
  9 27  2  0  0  0
 10 11  2  0  0  0
 10 15  1  0  0  0
 11 12  1  0  0  0
 11 94  1  0  0  0
 12 13  2  0  0  0
 12 95  1  0  0  0
 13 14  1  0  0  0
 13 31  1  0  0  0
 14 15  2  0  0  0
 14 96  1  0  0  0
 15 97  1  0  0  0
 16 17  2  0  0  0
 16 21  1  0  0  0
 16 31  1  0  0  0
 17 18  1  0  0  0
 17 98  1  0  0  0
 18 19  2  0  0  0
 18 99  1  0  0  0
 19 20  1  0  0  0
 19 24  1  0  0  0
 20 21  2  0  0  0
 20100  1  0  0  0
 21 23  1  0  0  0
 22 28  1  0  0  0
 22 32  2  0  0  0
 26 27  1  0  0  0
 28101  1  0  0  0
 28102  1  0  0  0
 29103  1  0  0  0
 29104  1  0  0  0
 33 34  1  0  0  0
 33 66  1  0  0  0
 33 70  2  0  0  0
 34 36  1  0  0  0
 34 59  1  0  0  0
 34105  1  0  0  0
 35 44  2  0  0  0
 35 45  1  0  0  0
 35 68  1  0  0  0
 36 56  1  0  0  0
 36106  1  0  0  0
 37 39  1  0  0  0
 37 47  1  0  0  0
 37 66  1  0  0  0
 37107  1  0  0  0
 38 43  2  0  0  0
 38 46  1  0  0  0
 38 47  1  0  0  0
 39 64  1  0  0  0
 39 67  2  0  0  0
 40 52  1  0  0  0
 40 53  2  0  0  0
 40 58  1  0  0  0
 41108  1  0  0  0
 41109  1  0  0  0
 41110  1  0  0  0
 41 48  1  0  0  0
 42 43  1  0  0  0
 42 66  1  0  0  0
 42111  1  0  0  0
 42112  1  0  0  0
 43 44  1  0  0  0
 44113  1  0  0  0
 45 46  2  0  0  0
 45114  1  0  0  0
 46115  1  0  0  0
 47116  1  0  0  0
 47117  1  0  0  0
 48 56  1  0  0  0
 48 65  1  0  0  0
 48118  1  0  0  0
 49 50  1  0  0  0
 49 53  1  0  0  0
 49 64  1  0  0  0
 49119  1  0  0  0
 50 51  1  0  0  0
 50120  1  0  0  0
 50121  1  0  0  0
 51 52  1  0  0  0
 51122  1  0  0  0
 51123  1  0  0  0
 52124  1  0  0  0
 52125  1  0  0  0
 53 54  1  0  0  0
 54 55  2  0  0  0
 54126  1  0  0  0
 55 57  1  0  0  0
 55127  1  0  0  0
 56 69  2  0  0  0
 57 58  2  0  0  0
 57128  1  0  0  0
 58129  1  0  0  0
 59 60  1  0  0  0
 59 61  1  0  0  0
 59 62  1  0  0  0
 60130  1  0  0  0
 60131  1  0  0  0
 60132  1  0  0  0
 61133  1  0  0  0
 61134  1  0  0  0
 61135  1  0  0  0
 62136  1  0  0  0
 62137  1  0  0  0
 62138  1  0  0  0
 63 65  1  0  0  0
 63139  1  0  0  0
 63140  1  0  0  0
 63141  1  0  0  0
 64142  1  0  0  0
 65143  1  0  0  0
 68 75  1  0  0  0
 71 72  2  0  0  0
 71 73  1  0  0  0
 71144  1  0  0  0
 72 82  1  0  0  0
 72145  1  0  0  0
 73 74  2  0  0  0
 73 81  1  0  0  0
 74 75  1  0  0  0
 74 80  1  0  0  0
 75 82  2  0  0  0
 76 78  1  0  0  0
 76 83  1  0  0  0
 76146  1  0  0  0
 76147  1  0  0  0
 77 79  1  0  0  0
 77 83  1  0  0  0
 77148  1  0  0  0
 77149  1  0  0  0
 78 84  1  0  0  0
 78150  1  0  0  0
 78151  1  0  0  0
 79 84  1  0  0  0
 79152  1  0  0  0
 79153  1  0  0  0
 80154  1  0  0  0
 80155  1  0  0  0
 80156  1  0  0  0
 81157  1  0  0  0
 81158  1  0  0  0
 81 84  1  0  0  0
 84159  1  0  0  0
M  CHG  1  84   1
M  ISO  4   1 100  68 101  75 101  83 100
M  END
> <chiral flag>
0

> <version>
0

> <s_m_source_file>
/data/baiqing/PycharmProjects/Reinvent-master-3.2/result/LINK_invent/BTK/process_docking_weight1_custom_sum_contain_oxygen_bond_distance_aromatic_linkinvent_7_9_3/rearranged_h_0187.sdf

> <i_m_source_file_index>
21

> <r_mmod_Potential_Energy-OPLS-2005>
293.244537353516

> <r_mmod_Stretch_Energy-OPLS-2005>
197.723114013672

> <r_mmod_Bend_Energy-OPLS-2005>
240.587982177734

> <r_mmod_Torsional_Energy-OPLS-2005>
393.273834228516

> <r_mmod_Improper_Torsional_Energy-OPLS-2005>
13.3385763168335

> <r_mmod_Van_der_Waal_Energy-OPLS-2005>
134.91716003418

> <r_mmod_Electrostatic_Energy-OPLS-2005>
-373.874664306641

> <r_mmod_Solvation_Energy-OPLS-2005>
-475.968597412109

> <b_mmod_Minimization_Converged-OPLS-2005>
0

> <r_mmod_RMS_Derivative-OPLS-2005>
0.420590966939926

$$$$
21
                    3D
 Structure written by MMmdl.
152161  0  0  1  0            999 V2000
  -30.5626  -15.0031   20.4172 C   0  0  0  0  0  0
  -30.4346  -12.6286   19.5093 C   0  0  0  0  0  0
  -29.5208  -12.5410   18.2649 C   0  0  0  0  0  0
  -28.0577  -12.3154   18.6875 C   0  0  0  0  0  0
  -27.6256  -13.2617   19.8383 C   0  0  2  0  0  0
  -28.6681  -13.3342   20.9743 C   0  0  0  0  0  0
  -25.2448  -13.8238   20.5786 C   0  0  0  0  0  0
  -24.1769  -13.0451   20.9235 C   0  0  0  0  0  0
  -24.6392  -11.6943   20.8743 C   0  0  0  0  0  0
  -23.9093  -10.4307   21.0408 C   0  0  0  0  0  0
  -24.3634   -9.4219   21.9190 C   0  0  0  0  0  0
  -23.6303   -8.2253   22.0761 C   0  0  0  0  0  0
  -22.4282   -8.0294   21.3555 C   0  0  0  0  0  0
  -21.9927   -9.0264   20.4651 C   0  0  0  0  0  0
  -22.7262  -10.2144   20.3060 C   0  0  0  0  0  0
  -21.6856   -6.0749   22.5285 C   0  0  0  0  0  0
  -21.4016   -6.5648   23.8221 C   0  0  0  0  0  0
  -21.3655   -5.6802   24.9176 C   0  0  0  0  0  0
  -21.6030   -4.3061   24.7227 C   0  0  0  0  0  0
  -21.8812   -3.8155   23.4344 C   0  0  0  0  0  0
  -21.9189   -4.6975   22.3404 C   0  0  0  0  0  0
  -22.7774  -13.5210   21.1879 C   0  0  0  0  0  0
  -22.1657   -4.2163   21.0982 F   0  0  0  0  0  0
  -21.5618   -3.4542   25.7736 F   0  0  0  0  0  0
  -29.9398  -13.7495   20.3685 N   0  0  0  0  0  0
  -26.2885  -12.9500   20.3310 N   0  0  0  0  0  0
  -25.9337  -11.6618   20.5755 N   0  0  0  0  0  0
  -22.0426  -12.8199   22.0429 N   0  0  0  0  0  0
  -25.4133  -15.1985   20.4316 N   0  0  0  0  0  0
  -31.7669  -15.0135   20.1399 O   0  0  0  0  0  0
  -21.6645   -6.8891   21.4249 O   0  0  0  0  0  0
  -22.3456  -14.5519   20.6727 O   0  0  0  0  0  0
  -24.6470  -31.8415   23.1856 C   0  0  0  0  0  0
  -25.9221  -32.4696   23.8250 C   0  0  1  0  0  0
  -27.2160  -27.0895   20.1647 C   0  0  0  0  0  0
  -25.5932  -33.8499   24.2162 N   0  0  0  0  0  0
  -23.4537  -30.4608   21.5307 C   0  0  2  0  0  0
  -24.9042  -28.8797   20.1128 C   0  0  0  0  0  0
  -22.7599  -29.4551   22.4841 C   0  0  0  0  0  0
  -18.0315  -28.1414   22.8475 C   0  0  0  0  0  0
  -24.1495  -36.7248   23.2650 C   0  0  0  0  0  0
  -26.0146  -30.6994   21.3929 C   0  0  0  0  0  0
  -26.0849  -29.3056   20.7361 C   0  0  0  0  0  0
  -27.2423  -28.4294   20.7406 C   0  0  0  0  0  0
  -26.0162  -26.7883   19.4806 C   0  0  0  0  0  0
  -24.8870  -27.6367   19.4649 C   0  0  0  0  0  0
  -23.6836  -29.7890   20.1519 C   0  0  0  0  0  0
  -25.4127  -36.3029   24.0321 C   0  0  1  0  0  0
  -20.5936  -28.3751   23.1227 C   0  0  2  0  0  0
  -20.6799  -26.9448   22.5400 C   0  0  0  0  0  0
  -19.5759  -26.6395   21.5216 C   0  0  0  0  0  0
  -18.1950  -26.7957   22.1629 C   0  0  0  0  0  0
  -19.1576  -28.8896   23.2851 C   0  0  0  0  0  0
  -18.9483  -30.1490   23.8889 C   0  0  0  0  0  0
  -17.6470  -30.6604   24.0574 C   0  0  0  0  0  0
  -25.9065  -34.9406   23.5050 C   0  0  0  0  0  0
  -16.5364  -29.9096   23.6340 C   0  0  0  0  0  0
  -16.7295  -28.6519   23.0361 C   0  0  0  0  0  0
  -26.4517  -31.6565   25.0700 C   0  0  0  0  0  0
  -25.3686  -31.3754   26.1382 C   0  0  0  0  0  0
  -27.0377  -30.2959   24.6293 C   0  0  0  0  0  0
  -27.6055  -32.4332   25.7469 C   0  0  0  0  0  0
  -27.5578  -37.1778   24.8461 C   0  0  0  0  0  0
  -21.4293  -29.3059   22.3583 N   0  0  0  0  0  0
  -26.4279  -37.3748   23.9419 N   0  0  0  0  0  0
  -24.7254  -31.0229   22.0910 N   0  0  0  0  0  0
  -23.4210  -28.8092   23.3013 O   0  0  0  0  0  0
  -28.2392  -26.0560   20.2080 O   0  0  0  0  0  0
  -26.5675  -34.8915   22.4645 O   0  0  0  0  0  0
  -23.5562  -32.1290   23.7027 O   0  0  0  0  0  0
  -28.4147  -20.8222   19.5155 C   0  0  0  0  0  0
  -29.2088  -20.1385   20.4939 C   0  0  0  0  0  0
  -29.7009  -21.1540   21.3901 C   0  0  0  0  0  0
  -28.6044  -23.0823   20.3769 C   0  0  0  0  0  0
  -29.3436  -17.2503   19.6211 C   0  0  0  0  0  0
  -30.4842  -17.5115   21.2418 C   0  0  0  0  0  0
  -29.3547  -18.4641   20.6551 C   0  0  0  0  0  0
  -30.5905  -20.7549   22.5521 C   0  0  0  0  0  0
  -27.8474  -24.5740   20.5861 C   0  0  0  0  0  0
  -28.1292  -22.1884   19.4714 N   0  0  0  0  0  0
  -29.3996  -22.5225   21.3313 N   0  0  0  0  0  0
  -29.8660  -16.2448   20.6460 N   0  0  0  0  0  0
  -31.4681  -12.7780   19.1934 H   0  0  0  0  0  0
  -30.4276  -11.6892   20.0649 H   0  0  0  0  0  0
  -29.8503  -11.7344   17.6079 H   0  0  0  0  0  0
  -29.5974  -13.4635   17.6859 H   0  0  0  0  0  0
  -27.9669  -11.2771   19.0121 H   0  0  0  0  0  0
  -27.3912  -12.4266   17.8304 H   0  0  0  0  0  0
  -27.5754  -14.2558   19.3921 H   0  0  0  0  0  0
  -28.7679  -12.3753   21.4842 H   0  0  0  0  0  0
  -28.3584  -14.0591   21.7294 H   0  0  0  0  0  0
  -25.2777   -9.5698   22.4775 H   0  0  0  0  0  0
  -24.0006   -7.4653   22.7496 H   0  0  0  0  0  0
  -21.0852   -8.8791   19.8962 H   0  0  0  0  0  0
  -22.3720  -10.9683   19.6171 H   0  0  0  0  0  0
  -21.2014   -7.6160   23.9730 H   0  0  0  0  0  0
  -21.1470   -6.0527   25.9082 H   0  0  0  0  0  0
  -22.0582   -2.7619   23.2841 H   0  0  0  0  0  0
  -22.4024  -11.9851   22.4817 H   0  0  0  0  0  0
  -21.1042  -13.1228   22.2639 H   0  0  0  0  0  0
  -24.6565  -15.8569   20.5839 H   0  0  0  0  0  0
  -26.2861  -15.6475   20.1838 H   0  0  0  0  0  0
  -26.7275  -32.5276   23.0965 H   0  0  0  0  0  0
  -25.0054  -33.9591   25.0286 H   0  0  0  0  0  0
  -22.7589  -31.2886   21.3725 H   0  0  0  0  0  0
  -23.3761  -35.9569   23.3302 H   0  0  0  0  0  0
  -24.3572  -36.8888   22.2058 H   0  0  0  0  0  0
  -23.7230  -37.6445   23.6682 H   0  0  0  0  0  0
  -26.1774  -31.4491   20.6172 H   0  0  0  0  0  0
  -26.8829  -30.7486   22.0387 H   0  0  0  0  0  0
  -28.1395  -28.7527   21.2493 H   0  0  0  0  0  0
  -25.9232  -25.8520   18.9509 H   0  0  0  0  0  0
  -23.9953  -27.3130   18.9465 H   0  0  0  0  0  0
  -23.8269  -30.5619   19.3972 H   0  0  0  0  0  0
  -22.7975  -29.2368   19.8373 H   0  0  0  0  0  0
  -25.1314  -36.1864   25.0808 H   0  0  0  0  0  0
  -21.0022  -28.3330   24.1354 H   0  0  0  0  0  0
  -20.5714  -26.2352   23.3623 H   0  0  0  0  0  0
  -21.6661  -26.7460   22.1184 H   0  0  0  0  0  0
  -19.6931  -25.6303   21.1266 H   0  0  0  0  0  0
  -19.6712  -27.3194   20.6744 H   0  0  0  0  0  0
  -17.4220  -26.6719   21.4031 H   0  0  0  0  0  0
  -18.0346  -26.0109   22.9037 H   0  0  0  0  0  0
  -19.7953  -30.7324   24.2252 H   0  0  0  0  0  0
  -17.5017  -31.6290   24.5178 H   0  0  0  0  0  0
  -15.5363  -30.2989   23.7682 H   0  0  0  0  0  0
  -15.8702  -28.0831   22.7082 H   0  0  0  0  0  0
  -24.5875  -30.7107   25.7678 H   0  0  0  0  0  0
  -24.8858  -32.2923   26.4762 H   0  0  0  0  0  0
  -25.7932  -30.8939   27.0193 H   0  0  0  0  0  0
  -26.2979  -29.6698   24.1303 H   0  0  0  0  0  0
  -27.3984  -29.7262   25.4866 H   0  0  0  0  0  0
  -27.8890  -30.4208   23.9607 H   0  0  0  0  0  0
  -27.2688  -33.3694   26.1930 H   0  0  0  0  0  0
  -28.3905  -32.6795   25.0306 H   0  0  0  0  0  0
  -28.0671  -31.8532   26.5468 H   0  0  0  0  0  0
  -28.2577  -38.0104   24.7537 H   0  0  0  0  0  0
  -28.1103  -36.2628   24.6250 H   0  0  0  0  0  0
  -27.2298  -37.1368   25.8869 H   0  0  0  0  0  0
  -20.9498  -29.8749   21.6750 H   0  0  0  0  0  0
  -26.0156  -38.2821   24.1425 H   0  0  0  0  0  0
  -27.9240  -20.2422   18.7512 H   0  0  0  0  0  0
  -30.0201  -17.3941   18.7754 H   0  0  0  0  0  0
  -28.3439  -17.0268   19.2458 H   0  0  0  0  0  0
  -30.5260  -17.5180   22.3309 H   0  0  0  0  0  0
  -31.4793  -17.7333   20.8481 H   0  0  0  0  0  0
  -28.4913  -18.2795   21.2973 H   0  0  0  0  0  0
  -31.5903  -20.5034   22.1967 H   0  0  0  0  0  0
  -30.1809  -19.8900   23.0743 H   0  0  0  0  0  0
  -30.6856  -21.5611   23.2802 H   0  0  0  0  0  0
  -27.6980  -24.6343   21.6634 H   0  0  0  0  0  0
  -26.8439  -24.3958   20.2079 H   0  0  0  0  0  0
  1 25  1  0  0  0
  1 30  2  0  0  0
  1 82  1  0  0  0
  2  3  1  0  0  0
  2 25  1  0  0  0
  2 83  1  0  0  0
  2 84  1  0  0  0
  3  4  1  0  0  0
  3 85  1  0  0  0
  3 86  1  0  0  0
  4  5  1  0  0  0
  4 87  1  0  0  0
  4 88  1  0  0  0
  5  6  1  0  0  0
  5 26  1  0  0  0
  5 89  1  0  0  0
  6 25  1  0  0  0
  6 90  1  0  0  0
  6 91  1  0  0  0
  7  8  2  0  0  0
  7 26  1  0  0  0
  7 29  1  0  0  0
  8  9  1  0  0  0
  8 22  1  0  0  0
  9 10  1  0  0  0
  9 27  2  0  0  0
 10 11  2  0  0  0
 10 15  1  0  0  0
 11 12  1  0  0  0
 11 92  1  0  0  0
 12 13  2  0  0  0
 12 93  1  0  0  0
 13 14  1  0  0  0
 13 31  1  0  0  0
 14 15  2  0  0  0
 14 94  1  0  0  0
 15 95  1  0  0  0
 16 17  2  0  0  0
 16 21  1  0  0  0
 16 31  1  0  0  0
 17 18  1  0  0  0
 17 96  1  0  0  0
 18 19  2  0  0  0
 18 97  1  0  0  0
 19 20  1  0  0  0
 19 24  1  0  0  0
 20 21  2  0  0  0
 20 98  1  0  0  0
 21 23  1  0  0  0
 22 28  1  0  0  0
 22 32  2  0  0  0
 26 27  1  0  0  0
 28 99  1  0  0  0
 28100  1  0  0  0
 29101  1  0  0  0
 29102  1  0  0  0
 33 34  1  0  0  0
 33 66  1  0  0  0
 33 70  2  0  0  0
 34 36  1  0  0  0
 34 59  1  0  0  0
 34103  1  0  0  0
 35 44  2  0  0  0
 35 45  1  0  0  0
 35 68  1  0  0  0
 36 56  1  0  0  0
 36104  1  0  0  0
 37 39  1  0  0  0
 37 47  1  0  0  0
 37 66  1  0  0  0
 37105  1  0  0  0
 38 43  2  0  0  0
 38 46  1  0  0  0
 38 47  1  0  0  0
 39 64  1  0  0  0
 39 67  2  0  0  0
 40 52  1  0  0  0
 40 53  2  0  0  0
 40 58  1  0  0  0
 41106  1  0  0  0
 41107  1  0  0  0
 41108  1  0  0  0
 41 48  1  0  0  0
 42 43  1  0  0  0
 42 66  1  0  0  0
 42109  1  0  0  0
 42110  1  0  0  0
 43 44  1  0  0  0
 44111  1  0  0  0
 45 46  2  0  0  0
 45112  1  0  0  0
 46113  1  0  0  0
 47114  1  0  0  0
 47115  1  0  0  0
 48 56  1  0  0  0
 48 65  1  0  0  0
 48116  1  0  0  0
 49 50  1  0  0  0
 49 53  1  0  0  0
 49 64  1  0  0  0
 49117  1  0  0  0
 50 51  1  0  0  0
 50118  1  0  0  0
 50119  1  0  0  0
 51 52  1  0  0  0
 51120  1  0  0  0
 51121  1  0  0  0
 52122  1  0  0  0
 52123  1  0  0  0
 53 54  1  0  0  0
 54 55  2  0  0  0
 54124  1  0  0  0
 55 57  1  0  0  0
 55125  1  0  0  0
 56 69  2  0  0  0
 57 58  2  0  0  0
 57126  1  0  0  0
 58127  1  0  0  0
 59 60  1  0  0  0
 59 61  1  0  0  0
 59 62  1  0  0  0
 60128  1  0  0  0
 60129  1  0  0  0
 60130  1  0  0  0
 61131  1  0  0  0
 61132  1  0  0  0
 61133  1  0  0  0
 62134  1  0  0  0
 62135  1  0  0  0
 62136  1  0  0  0
 63 65  1  0  0  0
 63137  1  0  0  0
 63138  1  0  0  0
 63139  1  0  0  0
 64140  1  0  0  0
 65141  1  0  0  0
 68 79  1  0  0  0
 71 72  2  0  0  0
 71 80  1  0  0  0
 71142  1  0  0  0
 72 73  1  0  0  0
 72 77  1  0  0  0
 73 78  1  0  0  0
 73 81  2  0  0  0
 74 79  1  0  0  0
 74 80  2  0  0  0
 74 81  1  0  0  0
 75 77  1  0  0  0
 75 82  1  0  0  0
 75143  1  0  0  0
 75144  1  0  0  0
 76 77  1  0  0  0
 76 82  1  0  0  0
 76145  1  0  0  0
 76146  1  0  0  0
 77147  1  0  0  0
 78148  1  0  0  0
 78149  1  0  0  0
 78150  1  0  0  0
 79151  1  0  0  0
 79152  1  0  0  0
M  ISO  4   1 100  68 101  79 101  82 100
M  END
> <chiral flag>
0

> <version>
0

> <s_m_source_file>
/data/baiqing/PycharmProjects/Reinvent-master-3.2/result/LINK_invent/BTK/process_docking_weight1_custom_sum_contain_oxygen_bond_distance_aromatic_linkinvent_7_9_3/rearranged_h_0187.sdf

> <i_m_source_file_index>
22

> <r_mmod_Potential_Energy-OPLS-2005>
334.827667236328

> <r_mmod_Stretch_Energy-OPLS-2005>
269.112609863281

> <r_mmod_Bend_Energy-OPLS-2005>
318.641174316406

> <r_mmod_Torsional_Energy-OPLS-2005>
281.910095214844

> <r_mmod_Improper_Torsional_Energy-OPLS-2005>
14.4942264556885

> <r_mmod_Van_der_Waal_Energy-OPLS-2005>
137.069412231445

> <r_mmod_Electrostatic_Energy-OPLS-2005>
-690.382019042969

> <r_mmod_Solvation_Energy-OPLS-2005>
-231.121780395508

> <b_mmod_Minimization_Converged-OPLS-2005>
0

> <r_mmod_RMS_Derivative-OPLS-2005>
2.91819262504578

$$$$
22
                    3D
 Structure written by MMmdl.
153161  0  0  1  0            999 V2000
  -30.6026  -14.7377   20.4448 C   0  0  0  0  0  0
  -30.4292  -12.4400   19.4883 C   0  0  0  0  0  0
  -29.5157  -12.5112   18.2434 C   0  0  0  0  0  0
  -28.0381  -12.3460   18.6454 C   0  0  0  0  0  0
  -27.6457  -13.2330   19.8567 C   0  0  2  0  0  0
  -28.6867  -13.1552   20.9971 C   0  0  0  0  0  0
  -25.2512  -13.8208   20.5679 C   0  0  0  0  0  0
  -24.1805  -13.0457   20.9194 C   0  0  0  0  0  0
  -24.6397  -11.6939   20.8736 C   0  0  0  0  0  0
  -23.9079  -10.4310   21.0397 C   0  0  0  0  0  0
  -24.3635   -9.4223   21.9176 C   0  0  0  0  0  0
  -23.6319   -8.2250   22.0743 C   0  0  0  0  0  0
  -22.4303   -8.0287   21.3532 C   0  0  0  0  0  0
  -21.9939   -9.0258   20.4631 C   0  0  0  0  0  0
  -22.7256  -10.2141   20.3045 C   0  0  0  0  0  0
  -21.6861   -6.0745   22.5295 C   0  0  0  0  0  0
  -21.4010   -6.5647   23.8222 C   0  0  0  0  0  0
  -21.3662   -5.6796   24.9181 C   0  0  0  0  0  0
  -21.6051   -4.3054   24.7229 C   0  0  0  0  0  0
  -21.8816   -3.8144   23.4349 C   0  0  0  0  0  0
  -21.9188   -4.6968   22.3413 C   0  0  0  0  0  0
  -22.7813  -13.5230   21.1864 C   0  0  0  0  0  0
  -22.1649   -4.2149   21.0985 F   0  0  0  0  0  0
  -21.5644   -3.4539   25.7741 F   0  0  0  0  0  0
  -29.9955  -13.5013   20.4305 N   0  0  0  0  0  0
  -26.2943  -12.9425   20.3289 N   0  0  0  0  0  0
  -25.9320  -11.6572   20.5748 N   0  0  0  0  0  0
  -22.0449  -12.8222   22.0416 N   0  0  0  0  0  0
  -25.4204  -15.1934   20.4080 N   0  0  0  0  0  0
  -31.7734  -14.8447   20.0634 O   0  0  0  0  0  0
  -21.6656   -6.8892   21.4255 O   0  0  0  0  0  0
  -22.3504  -14.5542   20.6713 O   0  0  0  0  0  0
  -24.6304  -31.8557   23.2005 C   0  0  0  0  0  0
  -25.9144  -32.4745   23.8346 C   0  0  1  0  0  0
  -27.2163  -27.2633   20.1292 C   0  0  0  0  0  0
  -25.5941  -33.8551   24.2261 N   0  0  0  0  0  0
  -23.4264  -30.4804   21.5425 C   0  0  2  0  0  0
  -24.8742  -28.9313   20.1088 C   0  0  0  0  0  0
  -22.7501  -29.4602   22.4901 C   0  0  0  0  0  0
  -18.0289  -28.1401   22.8474 C   0  0  0  0  0  0
  -24.1498  -36.7287   23.2642 C   0  0  0  0  0  0
  -25.9741  -30.7668   21.3833 C   0  0  0  0  0  0
  -26.0442  -29.3901   20.7261 C   0  0  0  0  0  0
  -27.2165  -28.5672   20.7304 C   0  0  0  0  0  0
  -26.0280  -26.8840   19.4625 C   0  0  0  0  0  0
  -24.8701  -27.6839   19.4688 C   0  0  0  0  0  0
  -23.6447  -29.8170   20.1576 C   0  0  0  0  0  0
  -25.4122  -36.3066   24.0321 C   0  0  1  0  0  0
  -20.5900  -28.3706   23.1264 C   0  0  2  0  0  0
  -20.6785  -26.9421   22.5406 C   0  0  0  0  0  0
  -19.5762  -26.6391   21.5218 C   0  0  0  0  0  0
  -18.1941  -26.7946   22.1615 C   0  0  0  0  0  0
  -19.1546  -28.8866   23.2859 C   0  0  0  0  0  0
  -18.9471  -30.1470   23.8870 C   0  0  0  0  0  0
  -17.6466  -30.6594   24.0567 C   0  0  0  0  0  0
  -25.9055  -34.9430   23.5090 C   0  0  0  0  0  0
  -16.5352  -29.9092   23.6337 C   0  0  0  0  0  0
  -16.7276  -28.6519   23.0338 C   0  0  0  0  0  0
  -26.4505  -31.6566   25.0730 C   0  0  0  0  0  0
  -25.3721  -31.3719   26.1447 C   0  0  0  0  0  0
  -27.0368  -30.2978   24.6237 C   0  0  0  0  0  0
  -27.6057  -32.4308   25.7507 C   0  0  0  0  0  0
  -27.5581  -37.1797   24.8462 C   0  0  0  0  0  0
  -21.4202  -29.3054   22.3651 N   0  0  0  0  0  0
  -26.4299  -37.3759   23.9400 N   0  0  0  0  0  0
  -24.6960  -31.0537   22.0976 N   0  0  0  0  0  0
  -23.4203  -28.8134   23.3004 O   0  0  0  0  0  0
  -28.3039  -26.3585   20.2151 O   0  0  0  0  0  0
  -26.5635  -34.8903   22.4665 O   0  0  0  0  0  0
  -23.5450  -32.1396   23.7292 O   0  0  0  0  0  0
  -29.6583  -19.6060   18.6742 C   0  0  0  0  0  0
  -29.4997  -19.6363   20.0747 C   0  0  0  0  0  0
  -30.0080  -17.3122   18.6794 C   0  0  0  0  0  0
  -29.8554  -17.2192   20.1005 C   0  0  0  0  0  0
  -29.3561  -21.0558   20.8027 C   0  0  0  0  0  0
  -28.9841  -23.7087   20.5675 C   0  0  0  0  0  0
  -28.0790  -24.8937   19.9363 C   0  0  0  0  0  0
  -29.8985  -18.4658   17.9893 N   0  0  0  0  0  0
  -29.5875  -18.4213   20.7720 N   0  0  0  0  0  0
  -30.2366  -16.2239   17.8508 N   0  0  0  0  0  0
  -29.8398  -15.8643   20.7172 N   0  0  0  0  0  0
  -28.7312  -22.2631   20.0751 N   0  3  0  0  0  0
  -31.4753  -12.5471   19.1955 H   0  0  0  0  0  0
  -30.3540  -11.4585   19.9592 H   0  0  0  0  0  0
  -29.7980  -11.7443   17.5196 H   0  0  0  0  0  0
  -29.6507  -13.4689   17.7393 H   0  0  0  0  0  0
  -27.8793  -11.2952   18.8888 H   0  0  0  0  0  0
  -27.3882  -12.5573   17.7953 H   0  0  0  0  0  0
  -27.6460  -14.2594   19.4878 H   0  0  0  0  0  0
  -28.7083  -12.1546   21.4328 H   0  0  0  0  0  0
  -28.4195  -13.8349   21.8070 H   0  0  0  0  0  0
  -25.2775   -9.5722   22.4761 H   0  0  0  0  0  0
  -24.0037   -7.4650   22.7474 H   0  0  0  0  0  0
  -21.0862   -8.8786   19.8943 H   0  0  0  0  0  0
  -22.3712  -10.9687   19.6166 H   0  0  0  0  0  0
  -21.1997   -7.6153   23.9737 H   0  0  0  0  0  0
  -21.1487   -6.0514   25.9093 H   0  0  0  0  0  0
  -22.0586   -2.7612   23.2849 H   0  0  0  0  0  0
  -22.4044  -11.9898   22.4837 H   0  0  0  0  0  0
  -21.1066  -13.1236   22.2595 H   0  0  0  0  0  0
  -24.6505  -15.8463   20.5084 H   0  0  0  0  0  0
  -26.2691  -15.6317   20.0744 H   0  0  0  0  0  0
  -26.7209  -32.5400   23.1083 H   0  0  0  0  0  0
  -25.0054  -33.9690   25.0382 H   0  0  0  0  0  0
  -22.7213  -31.3023   21.3984 H   0  0  0  0  0  0
  -23.3747  -35.9633   23.3295 H   0  0  0  0  0  0
  -24.3588  -36.8924   22.2061 H   0  0  0  0  0  0
  -23.7262  -37.6487   23.6676 H   0  0  0  0  0  0
  -26.1206  -31.5254   20.6130 H   0  0  0  0  0  0
  -26.8500  -30.8128   22.0192 H   0  0  0  0  0  0
  -28.1058  -28.9083   21.2424 H   0  0  0  0  0  0
  -25.9527  -25.9435   18.9375 H   0  0  0  0  0  0
  -23.9777  -27.3291   18.9721 H   0  0  0  0  0  0
  -23.7679  -30.5957   19.4045 H   0  0  0  0  0  0
  -22.7630  -29.2506   19.8516 H   0  0  0  0  0  0
  -25.1301  -36.1909   25.0812 H   0  0  0  0  0  0
  -20.9989  -28.3306   24.1391 H   0  0  0  0  0  0
  -20.5712  -26.2315   23.3611 H   0  0  0  0  0  0
  -21.6648  -26.7467   22.1191 H   0  0  0  0  0  0
  -19.6931  -25.6299   21.1247 H   0  0  0  0  0  0
  -19.6716  -27.3192   20.6743 H   0  0  0  0  0  0
  -17.4215  -26.6682   21.4021 H   0  0  0  0  0  0
  -18.0343  -26.0097   22.9026 H   0  0  0  0  0  0
  -19.7946  -30.7311   24.2215 H   0  0  0  0  0  0
  -17.5018  -31.6271   24.5192 H   0  0  0  0  0  0
  -15.5355  -30.2988   23.7682 H   0  0  0  0  0  0
  -15.8676  -28.0846   22.7042 H   0  0  0  0  0  0
  -24.5888  -30.7078   25.7764 H   0  0  0  0  0  0
  -24.8924  -32.2897   26.4868 H   0  0  0  0  0  0
  -25.8033  -30.8886   27.0228 H   0  0  0  0  0  0
  -26.2967  -29.6698   24.1260 H   0  0  0  0  0  0
  -27.4039  -29.7261   25.4775 H   0  0  0  0  0  0
  -27.8849  -30.4238   23.9501 H   0  0  0  0  0  0
  -27.2656  -33.3606   26.2085 H   0  0  0  0  0  0
  -28.3874  -32.6872   25.0338 H   0  0  0  0  0  0
  -28.0725  -31.8432   26.5428 H   0  0  0  0  0  0
  -28.2580  -38.0107   24.7499 H   0  0  0  0  0  0
  -28.1088  -36.2633   24.6291 H   0  0  0  0  0  0
  -27.2296  -37.1447   25.8863 H   0  0  0  0  0  0
  -20.9385  -29.8757   21.6833 H   0  0  0  0  0  0
  -26.0168  -38.2832   24.1385 H   0  0  0  0  0  0
  -29.6171  -20.5095   18.0856 H   0  0  0  0  0  0
  -30.3628  -21.3450   21.1045 H   0  0  0  0  0  0
  -28.8040  -20.9051   21.7310 H   0  0  0  0  0  0
  -28.8522  -23.7287   21.6500 H   0  0  0  0  0  0
  -30.0331  -23.9419   20.3875 H   0  0  0  0  0  0
  -27.0639  -24.6378   20.2360 H   0  0  0  0  0  0
  -28.1059  -24.7855   18.8518 H   0  0  0  0  0  0
  -30.8448  -15.5234   18.2615 H   0  0  0  0  0  0
  -30.5102  -16.4585   16.9057 H   0  0  0  0  0  0
  -29.0045  -15.6712   21.2441 H   0  0  0  0  0  0
  -27.7369  -22.1021   20.0787 H   0  0  0  0  0  0
  -29.0245  -22.2267   19.1133 H   0  0  0  0  0  0
  1 25  1  0  0  0
  1 30  2  0  0  0
  1 81  1  0  0  0
  2  3  1  0  0  0
  2 25  1  0  0  0
  2 83  1  0  0  0
  2 84  1  0  0  0
  3  4  1  0  0  0
  3 85  1  0  0  0
  3 86  1  0  0  0
  4  5  1  0  0  0
  4 87  1  0  0  0
  4 88  1  0  0  0
  5  6  1  0  0  0
  5 26  1  0  0  0
  5 89  1  0  0  0
  6 25  1  0  0  0
  6 90  1  0  0  0
  6 91  1  0  0  0
  7  8  2  0  0  0
  7 26  1  0  0  0
  7 29  1  0  0  0
  8  9  1  0  0  0
  8 22  1  0  0  0
  9 10  1  0  0  0
  9 27  2  0  0  0
 10 11  2  0  0  0
 10 15  1  0  0  0
 11 12  1  0  0  0
 11 92  1  0  0  0
 12 13  2  0  0  0
 12 93  1  0  0  0
 13 14  1  0  0  0
 13 31  1  0  0  0
 14 15  2  0  0  0
 14 94  1  0  0  0
 15 95  1  0  0  0
 16 17  2  0  0  0
 16 21  1  0  0  0
 16 31  1  0  0  0
 17 18  1  0  0  0
 17 96  1  0  0  0
 18 19  2  0  0  0
 18 97  1  0  0  0
 19 20  1  0  0  0
 19 24  1  0  0  0
 20 21  2  0  0  0
 20 98  1  0  0  0
 21 23  1  0  0  0
 22 28  1  0  0  0
 22 32  2  0  0  0
 26 27  1  0  0  0
 28 99  1  0  0  0
 28100  1  0  0  0
 29101  1  0  0  0
 29102  1  0  0  0
 33 34  1  0  0  0
 33 66  1  0  0  0
 33 70  2  0  0  0
 34 36  1  0  0  0
 34 59  1  0  0  0
 34103  1  0  0  0
 35 44  2  0  0  0
 35 45  1  0  0  0
 35 68  1  0  0  0
 36 56  1  0  0  0
 36104  1  0  0  0
 37 39  1  0  0  0
 37 47  1  0  0  0
 37 66  1  0  0  0
 37105  1  0  0  0
 38 43  2  0  0  0
 38 46  1  0  0  0
 38 47  1  0  0  0
 39 64  1  0  0  0
 39 67  2  0  0  0
 40 52  1  0  0  0
 40 53  2  0  0  0
 40 58  1  0  0  0
 41106  1  0  0  0
 41107  1  0  0  0
 41108  1  0  0  0
 41 48  1  0  0  0
 42 43  1  0  0  0
 42 66  1  0  0  0
 42109  1  0  0  0
 42110  1  0  0  0
 43 44  1  0  0  0
 44111  1  0  0  0
 45 46  2  0  0  0
 45112  1  0  0  0
 46113  1  0  0  0
 47114  1  0  0  0
 47115  1  0  0  0
 48 56  1  0  0  0
 48 65  1  0  0  0
 48116  1  0  0  0
 49 50  1  0  0  0
 49 53  1  0  0  0
 49 64  1  0  0  0
 49117  1  0  0  0
 50 51  1  0  0  0
 50118  1  0  0  0
 50119  1  0  0  0
 51 52  1  0  0  0
 51120  1  0  0  0
 51121  1  0  0  0
 52122  1  0  0  0
 52123  1  0  0  0
 53 54  1  0  0  0
 54 55  2  0  0  0
 54124  1  0  0  0
 55 57  1  0  0  0
 55125  1  0  0  0
 56 69  2  0  0  0
 57 58  2  0  0  0
 57126  1  0  0  0
 58127  1  0  0  0
 59 60  1  0  0  0
 59 61  1  0  0  0
 59 62  1  0  0  0
 60128  1  0  0  0
 60129  1  0  0  0
 60130  1  0  0  0
 61131  1  0  0  0
 61132  1  0  0  0
 61133  1  0  0  0
 62134  1  0  0  0
 62135  1  0  0  0
 62136  1  0  0  0
 63 65  1  0  0  0
 63137  1  0  0  0
 63138  1  0  0  0
 63139  1  0  0  0
 64140  1  0  0  0
 65141  1  0  0  0
 68 77  1  0  0  0
 71 72  2  0  0  0
 71 78  1  0  0  0
 71142  1  0  0  0
 72 75  1  0  0  0
 72 79  1  0  0  0
 73 74  1  0  0  0
 73 78  2  0  0  0
 73 80  1  0  0  0
 74 79  2  0  0  0
 74 81  1  0  0  0
 75 82  1  0  0  0
 75143  1  0  0  0
 75144  1  0  0  0
 76 77  1  0  0  0
 76 82  1  0  0  0
 76145  1  0  0  0
 76146  1  0  0  0
 77147  1  0  0  0
 77148  1  0  0  0
 80149  1  0  0  0
 80150  1  0  0  0
 81151  1  0  0  0
 82152  1  0  0  0
 82153  1  0  0  0
M  CHG  1  82   1
M  ISO  4   1 100  68 101  77 101  81 100
M  END
> <chiral flag>
0

> <version>
0

> <s_m_source_file>
/data/baiqing/PycharmProjects/Reinvent-master-3.2/result/LINK_invent/BTK/process_docking_weight1_custom_sum_contain_oxygen_bond_distance_aromatic_linkinvent_7_9_3/rearranged_h_0187.sdf

> <i_m_source_file_index>
23

> <r_mmod_Potential_Energy-OPLS-2005>
-141.41943359375

> <r_mmod_Stretch_Energy-OPLS-2005>
129.657211303711

> <r_mmod_Bend_Energy-OPLS-2005>
166.388793945312

> <r_mmod_Torsional_Energy-OPLS-2005>
244.499084472656

> <r_mmod_Improper_Torsional_Energy-OPLS-2005>
10.5045490264893

> <r_mmod_Van_der_Waal_Energy-OPLS-2005>
151.27961730957

> <r_mmod_Electrostatic_Energy-OPLS-2005>
-426.904632568359

> <r_mmod_Solvation_Energy-OPLS-2005>
-501.608825683594

> <b_mmod_Minimization_Converged-OPLS-2005>
0

> <r_mmod_RMS_Derivative-OPLS-2005>
2.48191404342651

$$$$
23
                    3D
 Structure written by MMmdl.
160169  0  0  1  0            999 V2000
  -30.6648  -14.6026   20.5001 C   0  0  0  0  0  0
  -30.4246  -12.3706   19.4505 C   0  0  0  0  0  0
  -29.5021  -12.5012   18.2197 C   0  0  0  0  0  0
  -28.0232  -12.3510   18.6296 C   0  0  0  0  0  0
  -27.6502  -13.2184   19.8626 C   0  0  2  0  0  0
  -28.6951  -13.0688   20.9896 C   0  0  0  0  0  0
  -25.2543  -13.8177   20.5689 C   0  0  0  0  0  0
  -24.1813  -13.0439   20.9189 C   0  0  0  0  0  0
  -24.6384  -11.6911   20.8738 C   0  0  0  0  0  0
  -23.9053  -10.4296   21.0406 C   0  0  0  0  0  0
  -24.3605   -9.4213   21.9185 C   0  0  0  0  0  0
  -23.6285   -8.2245   22.0753 C   0  0  0  0  0  0
  -22.4270   -8.0278   21.3541 C   0  0  0  0  0  0
  -21.9899   -9.0253   20.4647 C   0  0  0  0  0  0
  -22.7222  -10.2134   20.3057 C   0  0  0  0  0  0
  -21.6851   -6.0729   22.5274 C   0  0  0  0  0  0
  -21.4018   -6.5634   23.8207 C   0  0  0  0  0  0
  -21.3663   -5.6787   24.9170 C   0  0  0  0  0  0
  -21.6045   -4.3049   24.7223 C   0  0  0  0  0  0
  -21.8822   -3.8140   23.4346 C   0  0  0  0  0  0
  -21.9194   -4.6957   22.3400 C   0  0  0  0  0  0
  -22.7834  -13.5232   21.1849 C   0  0  0  0  0  0
  -22.1663   -4.2143   21.0978 F   0  0  0  0  0  0
  -21.5628   -3.4534   25.7736 F   0  0  0  0  0  0
  -30.0068  -13.4037   20.4192 N   0  0  0  0  0  0
  -26.2972  -12.9362   20.3326 N   0  0  0  0  0  0
  -25.9313  -11.6513   20.5754 N   0  0  0  0  0  0
  -22.0475  -12.8234   22.0410 N   0  0  0  0  0  0
  -25.4252  -15.1894   20.4099 N   0  0  0  0  0  0
  -31.8454  -14.6915   20.1462 O   0  0  0  0  0  0
  -21.6637   -6.8871   21.4236 O   0  0  0  0  0  0
  -22.3524  -14.5538   20.6692 O   0  0  0  0  0  0
  -24.6222  -31.8621   23.2047 C   0  0  0  0  0  0
  -25.9084  -32.4789   23.8360 C   0  0  1  0  0  0
  -27.2277  -27.3542   20.0991 C   0  0  0  0  0  0
  -25.5912  -33.8589   24.2290 N   0  0  0  0  0  0
  -23.4131  -30.4864   21.5470 C   0  0  2  0  0  0
  -24.8572  -28.9447   20.1115 C   0  0  0  0  0  0
  -22.7449  -29.4633   22.4956 C   0  0  0  0  0  0
  -18.0279  -28.1378   22.8488 C   0  0  0  0  0  0
  -24.1488  -36.7302   23.2638 C   0  0  0  0  0  0
  -25.9504  -30.8025   21.3695 C   0  0  0  0  0  0
  -26.0233  -29.4322   20.7129 C   0  0  0  0  0  0
  -27.2067  -28.6445   20.7038 C   0  0  0  0  0  0
  -26.0282  -26.8964   19.5050 C   0  0  0  0  0  0
  -24.8587  -27.6793   19.5049 C   0  0  0  0  0  0
  -23.6244  -29.8215   20.1614 C   0  0  0  0  0  0
  -25.4109  -36.3089   24.0332 C   0  0  1  0  0  0
  -20.5876  -28.3673   23.1298 C   0  0  2  0  0  0
  -20.6769  -26.9401   22.5412 C   0  0  0  0  0  0
  -19.5746  -26.6381   21.5210 C   0  0  0  0  0  0
  -18.1925  -26.7921   22.1624 C   0  0  0  0  0  0
  -19.1530  -28.8842   23.2890 C   0  0  0  0  0  0
  -18.9457  -30.1447   23.8904 C   0  0  0  0  0  0
  -17.6457  -30.6584   24.0563 C   0  0  0  0  0  0
  -25.9042  -34.9458   23.5111 C   0  0  0  0  0  0
  -16.5347  -29.9081   23.6328 C   0  0  0  0  0  0
  -16.7268  -28.6500   23.0350 C   0  0  0  0  0  0
  -26.4483  -31.6590   25.0720 C   0  0  0  0  0  0
  -25.3733  -31.3719   26.1459 C   0  0  0  0  0  0
  -27.0317  -30.3019   24.6143 C   0  0  0  0  0  0
  -27.6050  -32.4319   25.7486 C   0  0  0  0  0  0
  -27.5580  -37.1802   24.8462 C   0  0  0  0  0  0
  -21.4167  -29.3034   22.3698 N   0  0  0  0  0  0
  -26.4289  -37.3781   23.9410 N   0  0  0  0  0  0
  -24.6807  -31.0664   22.0978 N   0  0  0  0  0  0
  -23.4191  -28.8171   23.3018 O   0  0  0  0  0  0
  -28.3824  -26.5689   20.1526 O   0  0  0  0  0  0
  -26.5610  -34.8922   22.4676 O   0  0  0  0  0  0
  -23.5398  -32.1403   23.7402 O   0  0  0  0  0  0
  -28.1546  -22.8260   19.4084 C   0  0  0  0  0  0
  -28.7550  -23.9823   19.9628 C   0  0  0  0  0  0
  -29.6772  -23.7016   20.9918 C   0  0  0  0  0  0
  -29.3524  -21.4151   20.7682 C   0  0  0  0  0  0
  -29.4119  -17.7724   21.9696 C   0  0  0  0  0  0
  -30.2795  -18.1656   19.7009 C   0  0  0  0  0  0
  -29.1109  -16.2772   21.6187 C   0  0  0  0  0  0
  -29.9284  -16.6891   19.3386 C   0  0  0  0  0  0
  -29.3532  -18.7714   20.7794 C   0  0  0  0  0  0
  -30.4574  -24.7989   21.6883 C   0  0  0  0  0  0
  -28.5533  -25.3873   19.3088 C   0  0  0  0  0  0
  -28.4508  -21.5561   19.8070 N   0  0  0  0  0  0
  -29.9556  -22.4278   21.3811 N   0  0  0  0  0  0
  -29.8882  -15.7411   20.4811 N   0  0  0  0  0  0
  -29.7526  -20.1422   21.1946 N   0  0  0  0  0  0
  -31.4690  -12.4722   19.1503 H   0  0  0  0  0  0
  -30.3387  -11.3773   19.8934 H   0  0  0  0  0  0
  -29.7610  -11.7504   17.4718 H   0  0  0  0  0  0
  -29.6558  -13.4717   17.7447 H   0  0  0  0  0  0
  -27.8510  -11.2976   18.8540 H   0  0  0  0  0  0
  -27.3717  -12.5924   17.7891 H   0  0  0  0  0  0
  -27.6693  -14.2550   19.5269 H   0  0  0  0  0  0
  -28.7019  -12.0474   21.3722 H   0  0  0  0  0  0
  -28.4444  -13.6988   21.8408 H   0  0  0  0  0  0
  -25.2755   -9.5692   22.4754 H   0  0  0  0  0  0
  -23.9997   -7.4639   22.7474 H   0  0  0  0  0  0
  -21.0829   -8.8768   19.8955 H   0  0  0  0  0  0
  -22.3682  -10.9668   19.6160 H   0  0  0  0  0  0
  -21.2012   -7.6143   23.9707 H   0  0  0  0  0  0
  -21.1482   -6.0519   25.9071 H   0  0  0  0  0  0
  -22.0599   -2.7602   23.2845 H   0  0  0  0  0  0
  -22.4081  -11.9900   22.4812 H   0  0  0  0  0  0
  -21.1091  -13.1265   22.2607 H   0  0  0  0  0  0
  -24.6601  -15.8458   20.5206 H   0  0  0  0  0  0
  -26.2799  -15.6265   20.0898 H   0  0  0  0  0  0
  -26.7151  -32.5467   23.1111 H   0  0  0  0  0  0
  -25.0061  -33.9735   25.0436 H   0  0  0  0  0  0
  -22.7050  -31.3057   21.4067 H   0  0  0  0  0  0
  -23.3747  -35.9637   23.3300 H   0  0  0  0  0  0
  -24.3584  -36.8920   22.2053 H   0  0  0  0  0  0
  -23.7243  -37.6506   23.6659 H   0  0  0  0  0  0
  -26.0762  -31.5668   20.6014 H   0  0  0  0  0  0
  -26.8334  -30.8521   21.9950 H   0  0  0  0  0  0
  -28.1038  -29.0164   21.1786 H   0  0  0  0  0  0
  -25.9462  -25.9154   19.0649 H   0  0  0  0  0  0
  -23.9578  -27.2915   19.0499 H   0  0  0  0  0  0
  -23.7409  -30.5977   19.4042 H   0  0  0  0  0  0
  -22.7450  -29.2486   19.8617 H   0  0  0  0  0  0
  -25.1288  -36.1944   25.0824 H   0  0  0  0  0  0
  -20.9968  -28.3242   24.1419 H   0  0  0  0  0  0
  -20.5670  -26.2278   23.3604 H   0  0  0  0  0  0
  -21.6640  -26.7436   22.1207 H   0  0  0  0  0  0
  -19.6906  -25.6292   21.1236 H   0  0  0  0  0  0
  -19.6685  -27.3196   20.6743 H   0  0  0  0  0  0
  -17.4194  -26.6669   21.4027 H   0  0  0  0  0  0
  -18.0328  -26.0063   22.9021 H   0  0  0  0  0  0
  -19.7933  -30.7259   24.2278 H   0  0  0  0  0  0
  -17.5013  -31.6267   24.5157 H   0  0  0  0  0  0
  -15.5347  -30.2984   23.7650 H   0  0  0  0  0  0
  -15.8669  -28.0818   22.7063 H   0  0  0  0  0  0
  -24.5900  -30.7073   25.7797 H   0  0  0  0  0  0
  -24.8934  -32.2884   26.4903 H   0  0  0  0  0  0
  -25.8073  -30.8887   27.0223 H   0  0  0  0  0  0
  -26.2875  -29.6778   24.1182 H   0  0  0  0  0  0
  -27.4044  -29.7263   25.4626 H   0  0  0  0  0  0
  -27.8733  -30.4315   23.9335 H   0  0  0  0  0  0
  -27.2661  -33.3612   26.2077 H   0  0  0  0  0  0
  -28.3852  -32.6887   25.0309 H   0  0  0  0  0  0
  -28.0727  -31.8435   26.5392 H   0  0  0  0  0  0
  -28.2592  -38.0104   24.7518 H   0  0  0  0  0  0
  -28.1079  -36.2637   24.6272 H   0  0  0  0  0  0
  -27.2304  -37.1438   25.8866 H   0  0  0  0  0  0
  -20.9331  -29.8761   21.6923 H   0  0  0  0  0  0
  -26.0173  -38.2856   24.1415 H   0  0  0  0  0  0
  -27.4568  -22.9114   18.5886 H   0  0  0  0  0  0
  -30.4037  -17.8158   22.4228 H   0  0  0  0  0  0
  -28.7191  -18.0958   22.7479 H   0  0  0  0  0  0
  -30.2335  -18.7762   18.7981 H   0  0  0  0  0  0
  -31.3163  -18.2066   20.0390 H   0  0  0  0  0  0
  -28.0519  -16.1681   21.3841 H   0  0  0  0  0  0
  -29.2914  -15.6741   22.5099 H   0  0  0  0  0  0
  -30.6219  -16.3396   18.5711 H   0  0  0  0  0  0
  -28.9456  -16.6657   18.8658 H   0  0  0  0  0  0
  -28.3323  -18.8142   20.3954 H   0  0  0  0  0  0
  -31.0438  -25.3674   20.9669 H   0  0  0  0  0  0
  -31.1424  -24.3943   22.4337 H   0  0  0  0  0  0
  -29.7788  -25.4842   22.1956 H   0  0  0  0  0  0
  -27.8271  -25.3149   18.5024 H   0  0  0  0  0  0
  -29.4835  -25.5749   18.7719 H   0  0  0  0  0  0
  -30.4451  -20.1781   21.9318 H   0  0  0  0  0  0
  1 25  1  0  0  0
  1 30  2  0  0  0
  1 84  1  0  0  0
  2  3  1  0  0  0
  2 25  1  0  0  0
  2 86  1  0  0  0
  2 87  1  0  0  0
  3  4  1  0  0  0
  3 88  1  0  0  0
  3 89  1  0  0  0
  4  5  1  0  0  0
  4 90  1  0  0  0
  4 91  1  0  0  0
  5  6  1  0  0  0
  5 26  1  0  0  0
  5 92  1  0  0  0
  6 25  1  0  0  0
  6 93  1  0  0  0
  6 94  1  0  0  0
  7  8  2  0  0  0
  7 26  1  0  0  0
  7 29  1  0  0  0
  8  9  1  0  0  0
  8 22  1  0  0  0
  9 10  1  0  0  0
  9 27  2  0  0  0
 10 11  2  0  0  0
 10 15  1  0  0  0
 11 12  1  0  0  0
 11 95  1  0  0  0
 12 13  2  0  0  0
 12 96  1  0  0  0
 13 14  1  0  0  0
 13 31  1  0  0  0
 14 15  2  0  0  0
 14 97  1  0  0  0
 15 98  1  0  0  0
 16 17  2  0  0  0
 16 21  1  0  0  0
 16 31  1  0  0  0
 17 18  1  0  0  0
 17 99  1  0  0  0
 18 19  2  0  0  0
 18100  1  0  0  0
 19 20  1  0  0  0
 19 24  1  0  0  0
 20 21  2  0  0  0
 20101  1  0  0  0
 21 23  1  0  0  0
 22 28  1  0  0  0
 22 32  2  0  0  0
 26 27  1  0  0  0
 28102  1  0  0  0
 28103  1  0  0  0
 29104  1  0  0  0
 29105  1  0  0  0
 33 34  1  0  0  0
 33 66  1  0  0  0
 33 70  2  0  0  0
 34 36  1  0  0  0
 34 59  1  0  0  0
 34106  1  0  0  0
 35 44  2  0  0  0
 35 45  1  0  0  0
 35 68  1  0  0  0
 36 56  1  0  0  0
 36107  1  0  0  0
 37 39  1  0  0  0
 37 47  1  0  0  0
 37 66  1  0  0  0
 37108  1  0  0  0
 38 43  2  0  0  0
 38 46  1  0  0  0
 38 47  1  0  0  0
 39 64  1  0  0  0
 39 67  2  0  0  0
 40 52  1  0  0  0
 40 53  2  0  0  0
 40 58  1  0  0  0
 41109  1  0  0  0
 41110  1  0  0  0
 41111  1  0  0  0
 41 48  1  0  0  0
 42 43  1  0  0  0
 42 66  1  0  0  0
 42112  1  0  0  0
 42113  1  0  0  0
 43 44  1  0  0  0
 44114  1  0  0  0
 45 46  2  0  0  0
 45115  1  0  0  0
 46116  1  0  0  0
 47117  1  0  0  0
 47118  1  0  0  0
 48 56  1  0  0  0
 48 65  1  0  0  0
 48119  1  0  0  0
 49 50  1  0  0  0
 49 53  1  0  0  0
 49 64  1  0  0  0
 49120  1  0  0  0
 50 51  1  0  0  0
 50121  1  0  0  0
 50122  1  0  0  0
 51 52  1  0  0  0
 51123  1  0  0  0
 51124  1  0  0  0
 52125  1  0  0  0
 52126  1  0  0  0
 53 54  1  0  0  0
 54 55  2  0  0  0
 54127  1  0  0  0
 55 57  1  0  0  0
 55128  1  0  0  0
 56 69  2  0  0  0
 57 58  2  0  0  0
 57129  1  0  0  0
 58130  1  0  0  0
 59 60  1  0  0  0
 59 61  1  0  0  0
 59 62  1  0  0  0
 60131  1  0  0  0
 60132  1  0  0  0
 60133  1  0  0  0
 61134  1  0  0  0
 61135  1  0  0  0
 61136  1  0  0  0
 62137  1  0  0  0
 62138  1  0  0  0
 62139  1  0  0  0
 63 65  1  0  0  0
 63140  1  0  0  0
 63141  1  0  0  0
 63142  1  0  0  0
 64143  1  0  0  0
 65144  1  0  0  0
 68 81  1  0  0  0
 71 72  2  0  0  0
 71 82  1  0  0  0
 71145  1  0  0  0
 72 73  1  0  0  0
 72 81  1  0  0  0
 73 80  1  0  0  0
 73 83  2  0  0  0
 74 82  2  0  0  0
 74 83  1  0  0  0
 74 85  1  0  0  0
 75 77  1  0  0  0
 75 79  1  0  0  0
 75146  1  0  0  0
 75147  1  0  0  0
 76 78  1  0  0  0
 76 79  1  0  0  0
 76148  1  0  0  0
 76149  1  0  0  0
 77 84  1  0  0  0
 77150  1  0  0  0
 77151  1  0  0  0
 78 84  1  0  0  0
 78152  1  0  0  0
 78153  1  0  0  0
 79 85  1  0  0  0
 79154  1  0  0  0
 80155  1  0  0  0
 80156  1  0  0  0
 80157  1  0  0  0
 81158  1  0  0  0
 81159  1  0  0  0
 85160  1  0  0  0
M  ISO  4   1 100  68 101  81 101  84 100
M  END
> <chiral flag>
0

> <version>
0

> <s_m_source_file>
/data/baiqing/PycharmProjects/Reinvent-master-3.2/result/LINK_invent/BTK/process_docking_weight1_custom_sum_contain_oxygen_bond_distance_aromatic_linkinvent_7_9_3/rearranged_h_0187.sdf

> <i_m_source_file_index>
24

> <r_mmod_Potential_Energy-OPLS-2005>
-266.323547363281

> <r_mmod_Stretch_Energy-OPLS-2005>
59.2759704589844

> <r_mmod_Bend_Energy-OPLS-2005>
153.453079223633

> <r_mmod_Torsional_Energy-OPLS-2005>
320.885131835938

> <r_mmod_Improper_Torsional_Energy-OPLS-2005>
17.338550567627

> <r_mmod_Van_der_Waal_Energy-OPLS-2005>
150.693984985352

> <r_mmod_Electrostatic_Energy-OPLS-2005>
-776.506286621094

> <r_mmod_Solvation_Energy-OPLS-2005>
-227.336303710938

> <b_mmod_Minimization_Converged-OPLS-2005>
0

> <r_mmod_RMS_Derivative-OPLS-2005>
0.644169986248016

$$$$
24
                    3D
 Structure written by MMmdl.
157166  0  0  1  0            999 V2000
  -30.6270  -14.8429   20.4451 C   0  0  0  0  0  0
  -30.4339  -12.5309   19.4648 C   0  0  0  0  0  0
  -29.5013  -12.4988   18.2346 C   0  0  0  0  0  0
  -28.0407  -12.2732   18.6690 C   0  0  0  0  0  0
  -27.6260  -13.2025   19.8353 C   0  0  2  0  0  0
  -28.6857  -13.2208   20.9644 C   0  0  0  0  0  0
  -25.2437  -13.8079   20.5657 C   0  0  0  0  0  0
  -24.1747  -13.0360   20.9237 C   0  0  0  0  0  0
  -24.6334  -11.6845   20.8799 C   0  0  0  0  0  0
  -23.9016  -10.4247   21.0440 C   0  0  0  0  0  0
  -24.3584   -9.4171   21.9207 C   0  0  0  0  0  0
  -23.6261   -8.2211   22.0761 C   0  0  0  0  0  0
  -22.4247   -8.0256   21.3545 C   0  0  0  0  0  0
  -21.9881   -9.0229   20.4649 C   0  0  0  0  0  0
  -22.7203  -10.2105   20.3070 C   0  0  0  0  0  0
  -21.6835   -6.0726   22.5282 C   0  0  0  0  0  0
  -21.4007   -6.5638   23.8216 C   0  0  0  0  0  0
  -21.3650   -5.6791   24.9175 C   0  0  0  0  0  0
  -21.6042   -4.3056   24.7227 C   0  0  0  0  0  0
  -21.8821   -3.8145   23.4349 C   0  0  0  0  0  0
  -21.9190   -4.6958   22.3404 C   0  0  0  0  0  0
  -22.7784  -13.5179   21.1874 C   0  0  0  0  0  0
  -22.1661   -4.2151   21.0978 F   0  0  0  0  0  0
  -21.5617   -3.4537   25.7738 F   0  0  0  0  0  0
  -29.9618  -13.6246   20.3550 N   0  0  0  0  0  0
  -26.2854  -12.9238   20.3276 N   0  0  0  0  0  0
  -25.9256  -11.6422   20.5823 N   0  0  0  0  0  0
  -22.0422  -12.8199   22.0439 N   0  0  0  0  0  0
  -25.3982  -15.1796   20.3943 N   0  0  0  0  0  0
  -31.8429  -14.8464   20.2288 O   0  0  0  0  0  0
  -21.6612   -6.8860   21.4241 O   0  0  0  0  0  0
  -22.3490  -14.5491   20.6707 O   0  0  0  0  0  0
  -24.6331  -31.8525   23.1963 C   0  0  0  0  0  0
  -25.9147  -32.4738   23.8318 C   0  0  1  0  0  0
  -27.2284  -27.2448   20.1468 C   0  0  0  0  0  0
  -25.5930  -33.8540   24.2240 N   0  0  0  0  0  0
  -23.4322  -30.4725   21.5398 C   0  0  2  0  0  0
  -24.8826  -28.9113   20.1167 C   0  0  0  0  0  0
  -22.7512  -29.4593   22.4916 C   0  0  0  0  0  0
  -18.0289  -28.1395   22.8478 C   0  0  0  0  0  0
  -24.1484  -36.7273   23.2643 C   0  0  0  0  0  0
  -25.9789  -30.7620   21.3774 C   0  0  0  0  0  0
  -26.0550  -29.3808   20.7241 C   0  0  0  0  0  0
  -27.2327  -28.5625   20.7223 C   0  0  0  0  0  0
  -26.0346  -26.8452   19.5085 C   0  0  0  0  0  0
  -24.8782  -27.6510   19.4976 C   0  0  0  0  0  0
  -23.6527  -29.7997   20.1592 C   0  0  0  0  0  0
  -25.4114  -36.3059   24.0323 C   0  0  1  0  0  0
  -20.5892  -28.3712   23.1258 C   0  0  2  0  0  0
  -20.6774  -26.9425   22.5404 C   0  0  0  0  0  0
  -19.5750  -26.6389   21.5207 C   0  0  0  0  0  0
  -18.1933  -26.7934   22.1623 C   0  0  0  0  0  0
  -19.1543  -28.8870   23.2862 C   0  0  0  0  0  0
  -18.9466  -30.1469   23.8884 C   0  0  0  0  0  0
  -17.6463  -30.6594   24.0563 C   0  0  0  0  0  0
  -25.9058  -34.9430   23.5089 C   0  0  0  0  0  0
  -16.5355  -29.9088   23.6334 C   0  0  0  0  0  0
  -16.7275  -28.6506   23.0356 C   0  0  0  0  0  0
  -26.4507  -31.6578   25.0723 C   0  0  0  0  0  0
  -25.3723  -31.3738   26.1442 C   0  0  0  0  0  0
  -27.0364  -30.2990   24.6236 C   0  0  0  0  0  0
  -27.6054  -32.4329   25.7502 C   0  0  0  0  0  0
  -27.5571  -37.1794   24.8472 C   0  0  0  0  0  0
  -21.4217  -29.3048   22.3645 N   0  0  0  0  0  0
  -26.4287  -37.3760   23.9408 N   0  0  0  0  0  0
  -24.7006  -31.0473   22.0945 N   0  0  0  0  0  0
  -23.4189  -28.8141   23.3038 O   0  0  0  0  0  0
  -28.3188  -26.3398   20.1566 O   0  0  0  0  0  0
  -26.5638  -34.8912   22.4664 O   0  0  0  0  0  0
  -23.5473  -32.1358   23.7240 O   0  0  0  0  0  0
  -29.2412  -23.6782   18.7243 C   0  0  0  0  0  0
  -29.7413  -22.4949   18.1564 C   0  0  0  0  0  0
  -28.7958  -23.6413   20.0516 C   0  0  0  0  0  0
  -29.3914  -21.3055   20.0941 C   0  0  0  0  0  0
  -28.2628  -17.8878   20.4232 C   0  0  0  0  0  0
  -28.5566  -16.3746   20.2661 C   0  0  0  0  0  0
  -30.5590  -17.4780   20.7558 C   0  0  0  0  0  0
  -29.5769  -18.6256   20.1998 C   0  0  2  0  0  0
  -30.2386  -22.4709   16.7264 C   0  0  0  0  0  0
  -28.1002  -24.9383   20.6913 C   0  0  0  0  0  0
  -29.7991  -21.3271   18.8349 N   0  0  0  0  0  0
  -28.8996  -22.4169   20.7243 N   0  0  0  0  0  0
  -29.9564  -16.0821   20.6008 N   0  0  0  0  0  0
  -29.5498  -20.0443   20.7711 N   0  0  0  0  0  0
  -31.4654  -12.6760   19.1397 H   0  0  0  0  0  0
  -30.4199  -11.5735   19.9878 H   0  0  0  0  0  0
  -29.8113  -11.7127   17.5448 H   0  0  0  0  0  0
  -29.5826  -13.4378   17.6849 H   0  0  0  0  0  0
  -27.9440  -11.2319   18.9784 H   0  0  0  0  0  0
  -27.3669  -12.4038   17.8210 H   0  0  0  0  0  0
  -27.5694  -14.1766   19.3693 H   0  0  0  0  0  0
  -28.7730  -12.2352   21.4240 H   0  0  0  0  0  0
  -28.4071  -13.8961   21.7729 H   0  0  0  0  0  0
  -25.2724   -9.5652   22.4786 H   0  0  0  0  0  0
  -23.9969   -7.4600   22.7477 H   0  0  0  0  0  0
  -21.0814   -8.8748   19.8950 H   0  0  0  0  0  0
  -22.3665  -10.9652   19.6188 H   0  0  0  0  0  0
  -21.2003   -7.6148   23.9718 H   0  0  0  0  0  0
  -21.1461   -6.0519   25.9076 H   0  0  0  0  0  0
  -22.0605   -2.7608   23.2846 H   0  0  0  0  0  0
  -22.4028  -11.9871   22.4857 H   0  0  0  0  0  0
  -21.1047  -13.1259   22.2631 H   0  0  0  0  0  0
  -24.6224  -15.8224   20.5071 H   0  0  0  0  0  0
  -26.2371  -15.6284   20.0522 H   0  0  0  0  0  0
  -26.7218  -32.5391   23.1065 H   0  0  0  0  0  0
  -25.0060  -33.9674   25.0372 H   0  0  0  0  0  0
  -22.7305  -31.2954   21.3889 H   0  0  0  0  0  0
  -23.3741  -35.9612   23.3316 H   0  0  0  0  0  0
  -24.3569  -36.8888   22.2056 H   0  0  0  0  0  0
  -23.7244  -37.6477   23.6664 H   0  0  0  0  0  0
  -26.1165  -31.5186   20.6037 H   0  0  0  0  0  0
  -26.8557  -30.8156   22.0112 H   0  0  0  0  0  0
  -28.1330  -28.9214   21.2019 H   0  0  0  0  0  0
  -25.9859  -25.8812   19.0225 H   0  0  0  0  0  0
  -23.9815  -27.2856   19.0163 H   0  0  0  0  0  0
  -23.7782  -30.5723   19.3997 H   0  0  0  0  0  0
  -22.7719  -29.2309   19.8555 H   0  0  0  0  0  0
  -25.1296  -36.1904   25.0813 H   0  0  0  0  0  0
  -20.9979  -28.3293   24.1381 H   0  0  0  0  0  0
  -20.5662  -26.2325   23.3615 H   0  0  0  0  0  0
  -21.6644  -26.7441   22.1208 H   0  0  0  0  0  0
  -19.6912  -25.6295   21.1246 H   0  0  0  0  0  0
  -19.6684  -27.3191   20.6729 H   0  0  0  0  0  0
  -17.4197  -26.6673   21.4034 H   0  0  0  0  0  0
  -18.0345  -26.0083   22.9027 H   0  0  0  0  0  0
  -19.7944  -30.7287   24.2247 H   0  0  0  0  0  0
  -17.5021  -31.6273   24.5170 H   0  0  0  0  0  0
  -15.5354  -30.2988   23.7675 H   0  0  0  0  0  0
  -15.8676  -28.0824   22.7081 H   0  0  0  0  0  0
  -24.5899  -30.7088   25.7770 H   0  0  0  0  0  0
  -24.8915  -32.2911   26.4848 H   0  0  0  0  0  0
  -25.8030  -30.8927   27.0233 H   0  0  0  0  0  0
  -26.2964  -29.6729   24.1239 H   0  0  0  0  0  0
  -27.4009  -29.7265   25.4776 H   0  0  0  0  0  0
  -27.8850  -30.4252   23.9512 H   0  0  0  0  0  0
  -27.2652  -33.3634   26.2063 H   0  0  0  0  0  0
  -28.3873  -32.6886   25.0338 H   0  0  0  0  0  0
  -28.0717  -31.8470   26.5435 H   0  0  0  0  0  0
  -28.2604  -38.0077   24.7491 H   0  0  0  0  0  0
  -28.1049  -36.2603   24.6329 H   0  0  0  0  0  0
  -27.2286  -37.1485   25.8877 H   0  0  0  0  0  0
  -20.9416  -29.8751   21.6824 H   0  0  0  0  0  0
  -26.0160  -38.2833   24.1401 H   0  0  0  0  0  0
  -29.1782  -24.5966   18.1537 H   0  0  0  0  0  0
  -27.9072  -18.0702   21.4386 H   0  0  0  0  0  0
  -27.4767  -18.2268   19.7466 H   0  0  0  0  0  0
  -27.8793  -15.8227   20.9096 H   0  0  0  0  0  0
  -28.3931  -16.1037   19.2234 H   0  0  0  0  0  0
  -30.7362  -17.6313   21.8212 H   0  0  0  0  0  0
  -31.5331  -17.5353   20.2682 H   0  0  0  0  0  0
  -29.7395  -18.7007   19.1236 H   0  0  0  0  0  0
  -31.0412  -21.7443   16.6021 H   0  0  0  0  0  0
  -30.6250  -23.4468   16.4328 H   0  0  0  0  0  0
  -29.4289  -22.2079   16.0466 H   0  0  0  0  0  0
  -28.4113  -24.9720   21.7353 H   0  0  0  0  0  0
  -27.0336  -24.7178   20.7340 H   0  0  0  0  0  0
  -29.3031  -20.0929   21.7521 H   0  0  0  0  0  0
  1 25  1  0  0  0
  1 30  2  0  0  0
  1 83  1  0  0  0
  2  3  1  0  0  0
  2 25  1  0  0  0
  2 85  1  0  0  0
  2 86  1  0  0  0
  3  4  1  0  0  0
  3 87  1  0  0  0
  3 88  1  0  0  0
  4  5  1  0  0  0
  4 89  1  0  0  0
  4 90  1  0  0  0
  5  6  1  0  0  0
  5 26  1  0  0  0
  5 91  1  0  0  0
  6 25  1  0  0  0
  6 92  1  0  0  0
  6 93  1  0  0  0
  7  8  2  0  0  0
  7 26  1  0  0  0
  7 29  1  0  0  0
  8  9  1  0  0  0
  8 22  1  0  0  0
  9 10  1  0  0  0
  9 27  2  0  0  0
 10 11  2  0  0  0
 10 15  1  0  0  0
 11 12  1  0  0  0
 11 94  1  0  0  0
 12 13  2  0  0  0
 12 95  1  0  0  0
 13 14  1  0  0  0
 13 31  1  0  0  0
 14 15  2  0  0  0
 14 96  1  0  0  0
 15 97  1  0  0  0
 16 17  2  0  0  0
 16 21  1  0  0  0
 16 31  1  0  0  0
 17 18  1  0  0  0
 17 98  1  0  0  0
 18 19  2  0  0  0
 18 99  1  0  0  0
 19 20  1  0  0  0
 19 24  1  0  0  0
 20 21  2  0  0  0
 20100  1  0  0  0
 21 23  1  0  0  0
 22 28  1  0  0  0
 22 32  2  0  0  0
 26 27  1  0  0  0
 28101  1  0  0  0
 28102  1  0  0  0
 29103  1  0  0  0
 29104  1  0  0  0
 33 34  1  0  0  0
 33 66  1  0  0  0
 33 70  2  0  0  0
 34 36  1  0  0  0
 34 59  1  0  0  0
 34105  1  0  0  0
 35 44  2  0  0  0
 35 45  1  0  0  0
 35 68  1  0  0  0
 36 56  1  0  0  0
 36106  1  0  0  0
 37 39  1  0  0  0
 37 47  1  0  0  0
 37 66  1  0  0  0
 37107  1  0  0  0
 38 43  2  0  0  0
 38 46  1  0  0  0
 38 47  1  0  0  0
 39 64  1  0  0  0
 39 67  2  0  0  0
 40 52  1  0  0  0
 40 53  2  0  0  0
 40 58  1  0  0  0
 41108  1  0  0  0
 41109  1  0  0  0
 41110  1  0  0  0
 41 48  1  0  0  0
 42 43  1  0  0  0
 42 66  1  0  0  0
 42111  1  0  0  0
 42112  1  0  0  0
 43 44  1  0  0  0
 44113  1  0  0  0
 45 46  2  0  0  0
 45114  1  0  0  0
 46115  1  0  0  0
 47116  1  0  0  0
 47117  1  0  0  0
 48 56  1  0  0  0
 48 65  1  0  0  0
 48118  1  0  0  0
 49 50  1  0  0  0
 49 53  1  0  0  0
 49 64  1  0  0  0
 49119  1  0  0  0
 50 51  1  0  0  0
 50120  1  0  0  0
 50121  1  0  0  0
 51 52  1  0  0  0
 51122  1  0  0  0
 51123  1  0  0  0
 52124  1  0  0  0
 52125  1  0  0  0
 53 54  1  0  0  0
 54 55  2  0  0  0
 54126  1  0  0  0
 55 57  1  0  0  0
 55127  1  0  0  0
 56 69  2  0  0  0
 57 58  2  0  0  0
 57128  1  0  0  0
 58129  1  0  0  0
 59 60  1  0  0  0
 59 61  1  0  0  0
 59 62  1  0  0  0
 60130  1  0  0  0
 60131  1  0  0  0
 60132  1  0  0  0
 61133  1  0  0  0
 61134  1  0  0  0
 61135  1  0  0  0
 62136  1  0  0  0
 62137  1  0  0  0
 62138  1  0  0  0
 63 65  1  0  0  0
 63139  1  0  0  0
 63140  1  0  0  0
 63141  1  0  0  0
 64142  1  0  0  0
 65143  1  0  0  0
 68 80  1  0  0  0
 71 72  2  0  0  0
 71 73  1  0  0  0
 71144  1  0  0  0
 72 79  1  0  0  0
 72 81  1  0  0  0
 73 80  1  0  0  0
 73 82  2  0  0  0
 74 81  2  0  0  0
 74 82  1  0  0  0
 74 84  1  0  0  0
 75 76  1  0  0  0
 75 78  1  0  0  0
 75145  1  0  0  0
 75146  1  0  0  0
 76 83  1  0  0  0
 76147  1  0  0  0
 76148  1  0  0  0
 77 78  1  0  0  0
 77 83  1  0  0  0
 77149  1  0  0  0
 77150  1  0  0  0
 78 84  1  0  0  0
 78151  1  0  0  0
 79152  1  0  0  0
 79153  1  0  0  0
 79154  1  0  0  0
 80155  1  0  0  0
 80156  1  0  0  0
 84157  1  0  0  0
M  ISO  4   1 100  68 101  80 101  83 100
M  END
> <chiral flag>
0

> <version>
0

> <s_m_source_file>
/data/baiqing/PycharmProjects/Reinvent-master-3.2/result/LINK_invent/BTK/process_docking_weight1_custom_sum_contain_oxygen_bond_distance_aromatic_linkinvent_7_9_3/rearranged_h_0187.sdf

> <i_m_source_file_index>
25

> <r_mmod_Potential_Energy-OPLS-2005>
-129.391952514648

> <r_mmod_Stretch_Energy-OPLS-2005>
135.448822021484

> <r_mmod_Bend_Energy-OPLS-2005>
215.566604614258

> <r_mmod_Torsional_Energy-OPLS-2005>
327.542816162109

> <r_mmod_Improper_Torsional_Energy-OPLS-2005>
5.68355751037598

> <r_mmod_Van_der_Waal_Energy-OPLS-2005>
143.240615844727

> <r_mmod_Electrostatic_Energy-OPLS-2005>
-830.935607910156

> <r_mmod_Solvation_Energy-OPLS-2005>
-243.473846435547

> <b_mmod_Minimization_Converged-OPLS-2005>
0

> <r_mmod_RMS_Derivative-OPLS-2005>
0.971842646598816

$$$$
25
                    3D
 Structure written by MMmdl.
164173  0  0  1  0            999 V2000
  -30.7329  -14.6043   20.4958 C   0  0  0  0  0  0
  -30.4236  -12.3781   19.4463 C   0  0  0  0  0  0
  -29.4942  -12.4781   18.2194 C   0  0  0  0  0  0
  -28.0272  -12.2764   18.6446 C   0  0  0  0  0  0
  -27.6359  -13.1697   19.8460 C   0  0  2  0  0  0
  -28.6997  -13.1318   20.9765 C   0  0  0  0  0  0
  -25.2557  -13.8002   20.5711 C   0  0  0  0  0  0
  -24.1804  -13.0344   20.9256 C   0  0  0  0  0  0
  -24.6329  -11.6811   20.8802 C   0  0  0  0  0  0
  -23.8994  -10.4236   21.0457 C   0  0  0  0  0  0
  -24.3574   -9.4162   21.9211 C   0  0  0  0  0  0
  -23.6279   -8.2185   22.0744 C   0  0  0  0  0  0
  -22.4262   -8.0231   21.3539 C   0  0  0  0  0  0
  -21.9869   -9.0201   20.4642 C   0  0  0  0  0  0
  -22.7173  -10.2084   20.3097 C   0  0  0  0  0  0
  -21.6837   -6.0730   22.5296 C   0  0  0  0  0  0
  -21.3992   -6.5633   23.8225 C   0  0  0  0  0  0
  -21.3654   -5.6785   24.9182 C   0  0  0  0  0  0
  -21.6057   -4.3052   24.7237 C   0  0  0  0  0  0
  -21.8822   -3.8144   23.4358 C   0  0  0  0  0  0
  -21.9181   -4.6960   22.3412 C   0  0  0  0  0  0
  -22.7844  -13.5199   21.1889 C   0  0  0  0  0  0
  -22.1644   -4.2148   21.0987 F   0  0  0  0  0  0
  -21.5648   -3.4535   25.7747 F   0  0  0  0  0  0
  -30.0183  -13.4346   20.3929 N   0  0  0  0  0  0
  -26.2911  -12.9081   20.3344 N   0  0  0  0  0  0
  -25.9232  -11.6297   20.5829 N   0  0  0  0  0  0
  -22.0442  -12.8229   22.0434 N   0  0  0  0  0  0
  -25.4228  -15.1712   20.4036 N   0  0  0  0  0  0
  -31.9225  -14.6345   20.1751 O   0  0  0  0  0  0
  -21.6616   -6.8855   21.4254 O   0  0  0  0  0  0
  -22.3562  -14.5519   20.6714 O   0  0  0  0  0  0
  -24.6177  -31.8659   23.2070 C   0  0  0  0  0  0
  -25.9056  -32.4804   23.8367 C   0  0  1  0  0  0
  -27.2272  -27.3912   20.1202 C   0  0  0  0  0  0
  -25.5898  -33.8603   24.2309 N   0  0  0  0  0  0
  -23.4079  -30.4927   21.5463 C   0  0  2  0  0  0
  -24.8563  -28.9625   20.1064 C   0  0  0  0  0  0
  -22.7422  -29.4670   22.4935 C   0  0  0  0  0  0
  -18.0277  -28.1387   22.8483 C   0  0  0  0  0  0
  -24.1499  -36.7311   23.2637 C   0  0  0  0  0  0
  -25.9414  -30.8222   21.3682 C   0  0  0  0  0  0
  -26.0186  -29.4560   20.7118 C   0  0  0  0  0  0
  -27.2062  -28.6805   20.7130 C   0  0  0  0  0  0
  -26.0493  -26.9410   19.4743 C   0  0  0  0  0  0
  -24.8719  -27.7086   19.4762 C   0  0  0  0  0  0
  -23.6184  -29.8310   20.1590 C   0  0  0  0  0  0
  -25.4116  -36.3101   24.0335 C   0  0  1  0  0  0
  -20.5870  -28.3684   23.1291 C   0  0  2  0  0  0
  -20.6770  -26.9414   22.5411 C   0  0  0  0  0  0
  -19.5753  -26.6394   21.5206 C   0  0  0  0  0  0
  -18.1927  -26.7938   22.1610 C   0  0  0  0  0  0
  -19.1525  -28.8846   23.2897 C   0  0  0  0  0  0
  -18.9450  -30.1446   23.8914 C   0  0  0  0  0  0
  -17.6456  -30.6589   24.0568 C   0  0  0  0  0  0
  -25.9034  -34.9464   23.5118 C   0  0  0  0  0  0
  -16.5346  -29.9096   23.6327 C   0  0  0  0  0  0
  -16.7266  -28.6513   23.0343 C   0  0  0  0  0  0
  -26.4484  -31.6567   25.0684 C   0  0  0  0  0  0
  -25.3739  -31.3656   26.1413 C   0  0  0  0  0  0
  -27.0305  -30.3002   24.6069 C   0  0  0  0  0  0
  -27.6068  -32.4276   25.7439 C   0  0  0  0  0  0
  -27.5602  -37.1803   24.8459 C   0  0  0  0  0  0
  -21.4143  -29.3051   22.3680 N   0  0  0  0  0  0
  -26.4311  -37.3782   23.9404 N   0  0  0  0  0  0
  -24.6735  -31.0746   22.0978 N   0  0  0  0  0  0
  -23.4170  -28.8193   23.2981 O   0  0  0  0  0  0
  -28.3617  -26.5887   20.2034 O   0  0  0  0  0  0
  -26.5610  -34.8930   22.4690 O   0  0  0  0  0  0
  -23.5365  -32.1426   23.7448 O   0  0  0  0  0  0
  -29.0284  -17.6530   19.6693 C   0  0  0  0  0  0
  -28.9925  -19.2344   21.7614 C   0  0  0  0  0  0
  -28.9403  -16.1670   19.9411 C   0  0  0  0  0  0
  -30.5432  -17.0398   21.4467 C   0  0  2  0  0  0
  -29.4210  -20.2973   20.7408 C   0  0  1  0  0  0
  -29.7525  -18.2541   20.8505 C   0  0  1  0  0  0
  -32.8068  -16.5207   22.6141 C   0  0  0  0  0  0
  -32.0733  -17.2927   21.5062 C   0  0  0  0  0  0
  -29.8382  -21.7454   21.1435 C   0  0  0  0  0  0
  -29.2173  -24.2240   20.7984 C   0  0  0  0  0  0
  -28.1401  -25.1514   20.1482 C   0  0  0  0  0  0
  -30.0649  -15.7710   20.7899 N   0  0  0  0  0  0
  -28.8636  -22.7701   20.6536 N   0  3  0  0  0  0
  -30.5186  -19.4045   20.3522 O   0  0  0  0  0  0
  -31.4639  -12.4692   19.1281 H   0  0  0  0  0  0
  -30.3412  -11.3967   19.9154 H   0  0  0  0  0  0
  -29.7710  -11.7297   17.4747 H   0  0  0  0  0  0
  -29.6191  -13.4496   17.7355 H   0  0  0  0  0  0
  -27.8966  -11.2259   18.9054 H   0  0  0  0  0  0
  -27.3632  -12.4635   17.7999 H   0  0  0  0  0  0
  -27.5766  -14.1513   19.4089 H   0  0  0  0  0  0
  -28.7199  -12.1499   21.4502 H   0  0  0  0  0  0
  -28.4486  -13.8416   21.7672 H   0  0  0  0  0  0
  -25.2712   -9.5650   22.4799 H   0  0  0  0  0  0
  -23.9990   -7.4565   22.7443 H   0  0  0  0  0  0
  -21.0803   -8.8717   19.8941 H   0  0  0  0  0  0
  -22.3630  -10.9640   19.6227 H   0  0  0  0  0  0
  -21.1963   -7.6131   23.9734 H   0  0  0  0  0  0
  -21.1476   -6.0513   25.9090 H   0  0  0  0  0  0
  -22.0603   -2.7607   23.2878 H   0  0  0  0  0  0
  -22.4017  -11.9871   22.4836 H   0  0  0  0  0  0
  -21.1066  -13.1302   22.2605 H   0  0  0  0  0  0
  -24.6538  -15.8223   20.5199 H   0  0  0  0  0  0
  -26.2630  -15.6112   20.0547 H   0  0  0  0  0  0
  -26.7117  -32.5508   23.1117 H   0  0  0  0  0  0
  -25.0021  -33.9754   25.0434 H   0  0  0  0  0  0
  -22.6997  -31.3116   21.4074 H   0  0  0  0  0  0
  -23.3768  -35.9639   23.3287 H   0  0  0  0  0  0
  -24.3607  -36.8941   22.2058 H   0  0  0  0  0  0
  -23.7258  -37.6512   23.6663 H   0  0  0  0  0  0
  -26.0649  -31.5915   20.6044 H   0  0  0  0  0  0
  -26.8249  -30.8691   21.9926 H   0  0  0  0  0  0
  -28.0959  -29.0525   21.2016 H   0  0  0  0  0  0
  -26.0121  -25.9881   18.9677 H   0  0  0  0  0  0
  -23.9851  -27.3309   18.9864 H   0  0  0  0  0  0
  -23.7278  -30.6101   19.4028 H   0  0  0  0  0  0
  -22.7421  -29.2542   19.8584 H   0  0  0  0  0  0
  -25.1314  -36.1961   25.0834 H   0  0  0  0  0  0
  -20.9986  -28.3270   24.1403 H   0  0  0  0  0  0
  -20.5661  -26.2294   23.3607 H   0  0  0  0  0  0
  -21.6641  -26.7442   22.1214 H   0  0  0  0  0  0
  -19.6916  -25.6306   21.1235 H   0  0  0  0  0  0
  -19.6709  -27.3206   20.6739 H   0  0  0  0  0  0
  -17.4205  -26.6692   21.4011 H   0  0  0  0  0  0
  -18.0324  -26.0073   22.8996 H   0  0  0  0  0  0
  -19.7923  -30.7263   24.2298 H   0  0  0  0  0  0
  -17.5004  -31.6273   24.5164 H   0  0  0  0  0  0
  -15.5349  -30.3003   23.7637 H   0  0  0  0  0  0
  -15.8666  -28.0843   22.7046 H   0  0  0  0  0  0
  -24.5932  -30.7002   25.7723 H   0  0  0  0  0  0
  -24.8900  -32.2785   26.4881 H   0  0  0  0  0  0
  -25.8070  -30.8796   27.0154 H   0  0  0  0  0  0
  -26.2823  -29.6746   24.1179 H   0  0  0  0  0  0
  -27.4127  -29.7273   25.4527 H   0  0  0  0  0  0
  -27.8651  -30.4321   23.9176 H   0  0  0  0  0  0
  -27.2711  -33.3573   26.2048 H   0  0  0  0  0  0
  -28.3848  -32.6833   25.0230 H   0  0  0  0  0  0
  -28.0759  -31.8359   26.5311 H   0  0  0  0  0  0
  -28.2600  -38.0122   24.7536 H   0  0  0  0  0  0
  -28.1125  -36.2653   24.6251 H   0  0  0  0  0  0
  -27.2313  -37.1407   25.8860 H   0  0  0  0  0  0
  -20.9281  -29.8777   21.6921 H   0  0  0  0  0  0
  -26.0203  -38.2864   24.1400 H   0  0  0  0  0  0
  -28.0385  -18.0813   19.5086 H   0  0  0  0  0  0
  -29.6003  -17.8125   18.7532 H   0  0  0  0  0  0
  -27.9183  -19.0688   21.8283 H   0  0  0  0  0  0
  -29.4563  -19.3656   22.7397 H   0  0  0  0  0  0
  -28.9355  -15.6511   18.9790 H   0  0  0  0  0  0
  -28.0210  -15.9644   20.4880 H   0  0  0  0  0  0
  -30.2177  -16.9320   22.4822 H   0  0  0  0  0  0
  -28.6935  -20.3314   19.9259 H   0  0  0  0  0  0
  -33.8688  -16.7668   22.6068 H   0  0  0  0  0  0
  -32.7176  -15.4418   22.5036 H   0  0  0  0  0  0
  -32.4180  -16.7889   23.5966 H   0  0  0  0  0  0
  -32.2469  -18.3482   21.7187 H   0  0  0  0  0  0
  -32.5321  -17.1207   20.5335 H   0  0  0  0  0  0
  -30.8142  -21.9816   20.7202 H   0  0  0  0  0  0
  -29.9488  -21.8277   22.2250 H   0  0  0  0  0  0
  -29.3132  -24.4590   21.8600 H   0  0  0  0  0  0
  -30.1885  -24.4119   20.3404 H   0  0  0  0  0  0
  -27.1981  -24.9130   20.6454 H   0  0  0  0  0  0
  -28.0237  -24.8710   19.0998 H   0  0  0  0  0  0
  -27.9860  -22.5967   21.1211 H   0  0  0  0  0  0
  -28.7149  -22.5860   19.6737 H   0  0  0  0  0  0
  1 25  1  0  0  0
  1 30  2  0  0  0
  1 82  1  0  0  0
  2  3  1  0  0  0
  2 25  1  0  0  0
  2 85  1  0  0  0
  2 86  1  0  0  0
  3  4  1  0  0  0
  3 87  1  0  0  0
  3 88  1  0  0  0
  4  5  1  0  0  0
  4 89  1  0  0  0
  4 90  1  0  0  0
  5  6  1  0  0  0
  5 26  1  0  0  0
  5 91  1  0  0  0
  6 25  1  0  0  0
  6 92  1  0  0  0
  6 93  1  0  0  0
  7  8  2  0  0  0
  7 26  1  0  0  0
  7 29  1  0  0  0
  8  9  1  0  0  0
  8 22  1  0  0  0
  9 10  1  0  0  0
  9 27  2  0  0  0
 10 11  2  0  0  0
 10 15  1  0  0  0
 11 12  1  0  0  0
 11 94  1  0  0  0
 12 13  2  0  0  0
 12 95  1  0  0  0
 13 14  1  0  0  0
 13 31  1  0  0  0
 14 15  2  0  0  0
 14 96  1  0  0  0
 15 97  1  0  0  0
 16 17  2  0  0  0
 16 21  1  0  0  0
 16 31  1  0  0  0
 17 18  1  0  0  0
 17 98  1  0  0  0
 18 19  2  0  0  0
 18 99  1  0  0  0
 19 20  1  0  0  0
 19 24  1  0  0  0
 20 21  2  0  0  0
 20100  1  0  0  0
 21 23  1  0  0  0
 22 28  1  0  0  0
 22 32  2  0  0  0
 26 27  1  0  0  0
 28101  1  0  0  0
 28102  1  0  0  0
 29103  1  0  0  0
 29104  1  0  0  0
 33 34  1  0  0  0
 33 66  1  0  0  0
 33 70  2  0  0  0
 34 36  1  0  0  0
 34 59  1  0  0  0
 34105  1  0  0  0
 35 44  2  0  0  0
 35 45  1  0  0  0
 35 68  1  0  0  0
 36 56  1  0  0  0
 36106  1  0  0  0
 37 39  1  0  0  0
 37 47  1  0  0  0
 37 66  1  0  0  0
 37107  1  0  0  0
 38 43  2  0  0  0
 38 46  1  0  0  0
 38 47  1  0  0  0
 39 64  1  0  0  0
 39 67  2  0  0  0
 40 52  1  0  0  0
 40 53  2  0  0  0
 40 58  1  0  0  0
 41108  1  0  0  0
 41109  1  0  0  0
 41110  1  0  0  0
 41 48  1  0  0  0
 42 43  1  0  0  0
 42 66  1  0  0  0
 42111  1  0  0  0
 42112  1  0  0  0
 43 44  1  0  0  0
 44113  1  0  0  0
 45 46  2  0  0  0
 45114  1  0  0  0
 46115  1  0  0  0
 47116  1  0  0  0
 47117  1  0  0  0
 48 56  1  0  0  0
 48 65  1  0  0  0
 48118  1  0  0  0
 49 50  1  0  0  0
 49 53  1  0  0  0
 49 64  1  0  0  0
 49119  1  0  0  0
 50 51  1  0  0  0
 50120  1  0  0  0
 50121  1  0  0  0
 51 52  1  0  0  0
 51122  1  0  0  0
 51123  1  0  0  0
 52124  1  0  0  0
 52125  1  0  0  0
 53 54  1  0  0  0
 54 55  2  0  0  0
 54126  1  0  0  0
 55 57  1  0  0  0
 55127  1  0  0  0
 56 69  2  0  0  0
 57 58  2  0  0  0
 57128  1  0  0  0
 58129  1  0  0  0
 59 60  1  0  0  0
 59 61  1  0  0  0
 59 62  1  0  0  0
 60130  1  0  0  0
 60131  1  0  0  0
 60132  1  0  0  0
 61133  1  0  0  0
 61134  1  0  0  0
 61135  1  0  0  0
 62136  1  0  0  0
 62137  1  0  0  0
 62138  1  0  0  0
 63 65  1  0  0  0
 63139  1  0  0  0
 63140  1  0  0  0
 63141  1  0  0  0
 64142  1  0  0  0
 65143  1  0  0  0
 68 81  1  0  0  0
 71 73  1  0  0  0
 71144  1  0  0  0
 71145  1  0  0  0
 71 76  1  0  0  0
 72 75  1  0  0  0
 72 76  1  0  0  0
 72146  1  0  0  0
 72147  1  0  0  0
 73 82  1  0  0  0
 73148  1  0  0  0
 73149  1  0  0  0
 74 76  1  0  0  0
 74 78  1  0  0  0
 74 82  1  0  0  0
 74150  1  0  0  0
 75 79  1  0  0  0
 75 84  1  0  0  0
 75151  1  0  0  0
 76 84  1  0  0  0
 77 78  1  0  0  0
 77152  1  0  0  0
 77153  1  0  0  0
 77154  1  0  0  0
 78155  1  0  0  0
 78156  1  0  0  0
 79 83  1  0  0  0
 79157  1  0  0  0
 79158  1  0  0  0
 80 81  1  0  0  0
 80 83  1  0  0  0
 80159  1  0  0  0
 80160  1  0  0  0
 81161  1  0  0  0
 81162  1  0  0  0
 83163  1  0  0  0
 83164  1  0  0  0
M  CHG  1  83   1
M  ISO  4   1 100  68 101  81 101  82 100
M  END
> <chiral flag>
0

> <version>
0

> <s_m_source_file>
/data/baiqing/PycharmProjects/Reinvent-master-3.2/result/LINK_invent/BTK/process_docking_weight1_custom_sum_contain_oxygen_bond_distance_aromatic_linkinvent_7_9_3/rearranged_h_0187.sdf

> <i_m_source_file_index>
26

> <r_mmod_Potential_Energy-OPLS-2005>
122.212455749512

> <r_mmod_Stretch_Energy-OPLS-2005>
55.9989471435547

> <r_mmod_Bend_Energy-OPLS-2005>
166.764923095703

> <r_mmod_Torsional_Energy-OPLS-2005>
387.339477539062

> <r_mmod_Improper_Torsional_Energy-OPLS-2005>
5.53704214096069

> <r_mmod_Van_der_Waal_Energy-OPLS-2005>
141.649688720703

> <r_mmod_Electrostatic_Energy-OPLS-2005>
-217.678161621094

> <r_mmod_Solvation_Energy-OPLS-2005>
-458.571594238281

> <b_mmod_Minimization_Converged-OPLS-2005>
0

> <r_mmod_RMS_Derivative-OPLS-2005>
2.78840160369873

$$$$
26
                    3D
 Structure written by MMmdl.
166176  0  0  1  0            999 V2000
  -30.6629  -14.7256   20.4616 C   0  0  0  0  0  0
  -30.4220  -12.4477   19.4724 C   0  0  0  0  0  0
  -29.5053  -12.5000   18.2328 C   0  0  0  0  0  0
  -28.0327  -12.3306   18.6499 C   0  0  0  0  0  0
  -27.6392  -13.2390   19.8461 C   0  0  2  0  0  0
  -28.6858  -13.1991   20.9804 C   0  0  0  0  0  0
  -25.2510  -13.8219   20.5719 C   0  0  0  0  0  0
  -24.1800  -13.0451   20.9204 C   0  0  0  0  0  0
  -24.6401  -11.6931   20.8746 C   0  0  0  0  0  0
  -23.9078  -10.4302   21.0402 C   0  0  0  0  0  0
  -24.3628   -9.4215   21.9179 C   0  0  0  0  0  0
  -23.6301   -8.2248   22.0752 C   0  0  0  0  0  0
  -22.4280   -8.0287   21.3546 C   0  0  0  0  0  0
  -21.9919   -9.0261   20.4646 C   0  0  0  0  0  0
  -22.7250  -10.2139   20.3053 C   0  0  0  0  0  0
  -21.6855   -6.0740   22.5278 C   0  0  0  0  0  0
  -21.4017   -6.5642   23.8212 C   0  0  0  0  0  0
  -21.3660   -5.6794   24.9174 C   0  0  0  0  0  0
  -21.6043   -4.3057   24.7224 C   0  0  0  0  0  0
  -21.8820   -3.8150   23.4344 C   0  0  0  0  0  0
  -21.9195   -4.6968   22.3401 C   0  0  0  0  0  0
  -22.7819  -13.5225   21.1864 C   0  0  0  0  0  0
  -22.1664   -4.2154   21.0978 F   0  0  0  0  0  0
  -21.5627   -3.4540   25.7736 F   0  0  0  0  0  0
  -29.9852  -13.5290   20.3862 N   0  0  0  0  0  0
  -26.2937  -12.9438   20.3292 N   0  0  0  0  0  0
  -25.9334  -11.6572   20.5756 N   0  0  0  0  0  0
  -22.0473  -12.8211   22.0421 N   0  0  0  0  0  0
  -25.4230  -15.1943   20.4174 N   0  0  0  0  0  0
  -31.8631  -14.7555   20.1726 O   0  0  0  0  0  0
  -21.6643   -6.8884   21.4241 O   0  0  0  0  0  0
  -22.3495  -14.5525   20.6708 O   0  0  0  0  0  0
  -24.6333  -31.8568   23.2022 C   0  0  0  0  0  0
  -25.9160  -32.4759   23.8358 C   0  0  1  0  0  0
  -27.2030  -27.2457   20.1184 C   0  0  0  0  0  0
  -25.5954  -33.8562   24.2273 N   0  0  0  0  0  0
  -23.4296  -30.4854   21.5464 C   0  0  2  0  0  0
  -24.8749  -28.9463   20.1053 C   0  0  0  0  0  0
  -22.7517  -29.4617   22.4902 C   0  0  0  0  0  0
  -18.0296  -28.1388   22.8483 C   0  0  0  0  0  0
  -24.1491  -36.7280   23.2636 C   0  0  0  0  0  0
  -25.9816  -30.7623   21.3911 C   0  0  0  0  0  0
  -26.0506  -29.3883   20.7255 C   0  0  0  0  0  0
  -27.2169  -28.5496   20.7285 C   0  0  0  0  0  0
  -26.0071  -26.9070   19.4348 C   0  0  0  0  0  0
  -24.8604  -27.7137   19.4484 C   0  0  0  0  0  0
  -23.6478  -29.8330   20.1590 C   0  0  0  0  0  0
  -25.4118  -36.3069   24.0323 C   0  0  1  0  0  0
  -20.5904  -28.3705   23.1254 C   0  0  2  0  0  0
  -20.6785  -26.9420   22.5400 C   0  0  0  0  0  0
  -19.5756  -26.6384   21.5208 C   0  0  0  0  0  0
  -18.1938  -26.7930   22.1624 C   0  0  0  0  0  0
  -19.1552  -28.8864   23.2864 C   0  0  0  0  0  0
  -18.9471  -30.1464   23.8885 C   0  0  0  0  0  0
  -17.6468  -30.6588   24.0562 C   0  0  0  0  0  0
  -25.9062  -34.9439   23.5096 C   0  0  0  0  0  0
  -16.5360  -29.9082   23.6334 C   0  0  0  0  0  0
  -16.7281  -28.6500   23.0356 C   0  0  0  0  0  0
  -26.4516  -31.6580   25.0747 C   0  0  0  0  0  0
  -25.3727  -31.3741   26.1458 C   0  0  0  0  0  0
  -27.0360  -30.2983   24.6264 C   0  0  0  0  0  0
  -27.6067  -32.4324   25.7517 C   0  0  0  0  0  0
  -27.5582  -37.1795   24.8462 C   0  0  0  0  0  0
  -21.4222  -29.3052   22.3642 N   0  0  0  0  0  0
  -26.4292  -37.3769   23.9408 N   0  0  0  0  0  0
  -24.7006  -31.0525   22.1014 N   0  0  0  0  0  0
  -23.4215  -28.8136   23.2986 O   0  0  0  0  0  0
  -28.2473  -26.2801   20.2136 O   0  0  0  0  0  0
  -26.5628  -34.8911   22.4661 O   0  0  0  0  0  0
  -23.5480  -32.1403   23.7301 O   0  0  0  0  0  0
  -28.2242  -21.1683   20.7693 C   0  0  0  0  0  0
  -29.5120  -20.7053   20.4015 C   0  0  0  0  0  0
  -30.3972  -21.7681   20.0001 C   0  0  0  0  0  0
  -29.9340  -23.1396   19.9119 C   0  0  0  0  0  0
  -28.6048  -23.4872   20.2736 C   0  0  0  0  0  0
  -30.8610  -24.2438   19.4073 C   0  0  0  0  0  0
  -31.8444  -21.4421   19.6049 C   0  0  0  0  0  0
  -29.8079  -18.3441   21.7381 C   0  0  0  0  0  0
  -29.1644  -18.1950   19.4292 C   0  0  0  0  0  0
  -30.4068  -16.8723   21.6854 C   0  0  0  0  0  0
  -29.7542  -16.7241   19.3392 C   0  0  0  0  0  0
  -32.0979  -23.7017   18.6833 C   0  0  0  0  0  0
  -29.9099  -19.1418   20.4086 C   0  0  0  0  0  0
  -27.8424  -24.8531   19.9193 C   0  0  0  0  0  0
  -27.8036  -22.4712   20.7104 N   0  0  0  0  0  0
  -29.9722  -15.9362   20.5968 N   0  0  0  0  0  0
  -32.7065  -22.6324   19.4884 N   0  3  0  0  0  0
  -31.4652  -12.5491   19.1687 H   0  0  0  0  0  0
  -30.3502  -11.4785   19.9681 H   0  0  0  0  0  0
  -29.7851  -11.7212   17.5218 H   0  0  0  0  0  0
  -29.6368  -13.4509   17.7139 H   0  0  0  0  0  0
  -27.8901  -11.2834   18.9200 H   0  0  0  0  0  0
  -27.3741  -12.5175   17.8008 H   0  0  0  0  0  0
  -27.6266  -14.2568   19.4558 H   0  0  0  0  0  0
  -28.7167  -12.2162   21.4526 H   0  0  0  0  0  0
  -28.4280  -13.9147   21.7629 H   0  0  0  0  0  0
  -25.2776   -9.5687   22.4751 H   0  0  0  0  0  0
  -24.0014   -7.4638   22.7466 H   0  0  0  0  0  0
  -21.0852   -8.8778   19.8949 H   0  0  0  0  0  0
  -22.3711  -10.9675   19.6157 H   0  0  0  0  0  0
  -21.2012   -7.6150   23.9716 H   0  0  0  0  0  0
  -21.1479   -6.0524   25.9076 H   0  0  0  0  0  0
  -22.0599   -2.7612   23.2841 H   0  0  0  0  0  0
  -22.4100  -11.9878   22.4812 H   0  0  0  0  0  0
  -21.1082  -13.1215   22.2618 H   0  0  0  0  0  0
  -24.6641  -15.8556   20.5407 H   0  0  0  0  0  0
  -26.2906  -15.6336   20.1366 H   0  0  0  0  0  0
  -26.7223  -32.5403   23.1094 H   0  0  0  0  0  0
  -25.0098  -33.9706   25.0415 H   0  0  0  0  0  0
  -22.7262  -31.3091   21.4063 H   0  0  0  0  0  0
  -23.3757  -35.9609   23.3290 H   0  0  0  0  0  0
  -24.3586  -36.8913   22.2053 H   0  0  0  0  0  0
  -23.7243  -37.6477   23.6667 H   0  0  0  0  0  0
  -26.1322  -31.5264   20.6274 H   0  0  0  0  0  0
  -26.8551  -30.8021   22.0300 H   0  0  0  0  0  0
  -28.1069  -28.8754   21.2480 H   0  0  0  0  0  0
  -25.8938  -25.9837   18.8891 H   0  0  0  0  0  0
  -23.9665  -27.3767   18.9416 H   0  0  0  0  0  0
  -23.7739  -30.6154   19.4099 H   0  0  0  0  0  0
  -22.7650  -29.2706   19.8492 H   0  0  0  0  0  0
  -25.1299  -36.1916   25.0815 H   0  0  0  0  0  0
  -21.0002  -28.3286   24.1373 H   0  0  0  0  0  0
  -20.5686  -26.2316   23.3608 H   0  0  0  0  0  0
  -21.6652  -26.7442   22.1193 H   0  0  0  0  0  0
  -19.6917  -25.6292   21.1243 H   0  0  0  0  0  0
  -19.6688  -27.3189   20.6733 H   0  0  0  0  0  0
  -17.4206  -26.6675   21.4028 H   0  0  0  0  0  0
  -18.0341  -26.0075   22.9024 H   0  0  0  0  0  0
  -19.7946  -30.7284   24.2247 H   0  0  0  0  0  0
  -17.5022  -31.6268   24.5164 H   0  0  0  0  0  0
  -15.5359  -30.2979   23.7666 H   0  0  0  0  0  0
  -15.8682  -28.0812   22.7080 H   0  0  0  0  0  0
  -24.5909  -30.7083   25.7783 H   0  0  0  0  0  0
  -24.8911  -32.2913   26.4857 H   0  0  0  0  0  0
  -25.8034  -30.8935   27.0251 H   0  0  0  0  0  0
  -26.2953  -29.6726   24.1270 H   0  0  0  0  0  0
  -27.3993  -29.7256   25.4808 H   0  0  0  0  0  0
  -27.8861  -30.4228   23.9553 H   0  0  0  0  0  0
  -27.2676  -33.3634   26.2072 H   0  0  0  0  0  0
  -28.3888  -32.6869   25.0350 H   0  0  0  0  0  0
  -28.0723  -31.8464   26.5453 H   0  0  0  0  0  0
  -28.2588  -38.0103   24.7525 H   0  0  0  0  0  0
  -28.1092  -36.2636   24.6270 H   0  0  0  0  0  0
  -27.2302  -37.1422   25.8865 H   0  0  0  0  0  0
  -20.9403  -29.8788   21.6862 H   0  0  0  0  0  0
  -26.0167  -38.2840   24.1416 H   0  0  0  0  0  0
  -27.4791  -20.4584   21.0975 H   0  0  0  0  0  0
  -31.1651  -24.8521   20.2605 H   0  0  0  0  0  0
  -30.3232  -24.9112   18.7327 H   0  0  0  0  0  0
  -31.8377  -20.9047   18.6557 H   0  0  0  0  0  0
  -32.2984  -20.7874   20.3485 H   0  0  0  0  0  0
  -30.3270  -18.8970   22.5221 H   0  0  0  0  0  0
  -28.7653  -18.2965   22.0567 H   0  0  0  0  0  0
  -28.1086  -18.1447   19.7003 H   0  0  0  0  0  0
  -29.1886  -18.6329   18.4306 H   0  0  0  0  0  0
  -30.2051  -16.3847   22.6405 H   0  0  0  0  0  0
  -31.4936  -16.9655   21.6328 H   0  0  0  0  0  0
  -30.7111  -16.7904   18.8168 H   0  0  0  0  0  0
  -29.1111  -16.1359   18.6825 H   0  0  0  0  0  0
  -32.8179  -24.5034   18.5153 H   0  0  0  0  0  0
  -31.8283  -23.3097   17.7013 H   0  0  0  0  0  0
  -30.9549  -19.0796   20.1159 H   0  0  0  0  0  0
  -26.8657  -24.7075   20.3838 H   0  0  0  0  0  0
  -27.6895  -24.7896   18.8414 H   0  0  0  0  0  0
  -33.5852  -22.3578   19.0838 H   0  0  0  0  0  0
  -32.8822  -22.9866   20.4127 H   0  0  0  0  0  0
  1 25  1  0  0  0
  1 30  2  0  0  0
  1 86  1  0  0  0
  2  3  1  0  0  0
  2 25  1  0  0  0
  2 88  1  0  0  0
  2 89  1  0  0  0
  3  4  1  0  0  0
  3 90  1  0  0  0
  3 91  1  0  0  0
  4  5  1  0  0  0
  4 92  1  0  0  0
  4 93  1  0  0  0
  5  6  1  0  0  0
  5 26  1  0  0  0
  5 94  1  0  0  0
  6 25  1  0  0  0
  6 95  1  0  0  0
  6 96  1  0  0  0
  7  8  2  0  0  0
  7 26  1  0  0  0
  7 29  1  0  0  0
  8  9  1  0  0  0
  8 22  1  0  0  0
  9 10  1  0  0  0
  9 27  2  0  0  0
 10 11  2  0  0  0
 10 15  1  0  0  0
 11 12  1  0  0  0
 11 97  1  0  0  0
 12 13  2  0  0  0
 12 98  1  0  0  0
 13 14  1  0  0  0
 13 31  1  0  0  0
 14 15  2  0  0  0
 14 99  1  0  0  0
 15100  1  0  0  0
 16 17  2  0  0  0
 16 21  1  0  0  0
 16 31  1  0  0  0
 17 18  1  0  0  0
 17101  1  0  0  0
 18 19  2  0  0  0
 18102  1  0  0  0
 19 20  1  0  0  0
 19 24  1  0  0  0
 20 21  2  0  0  0
 20103  1  0  0  0
 21 23  1  0  0  0
 22 28  1  0  0  0
 22 32  2  0  0  0
 26 27  1  0  0  0
 28104  1  0  0  0
 28105  1  0  0  0
 29106  1  0  0  0
 29107  1  0  0  0
 33 34  1  0  0  0
 33 66  1  0  0  0
 33 70  2  0  0  0
 34 36  1  0  0  0
 34 59  1  0  0  0
 34108  1  0  0  0
 35 44  2  0  0  0
 35 45  1  0  0  0
 35 68  1  0  0  0
 36 56  1  0  0  0
 36109  1  0  0  0
 37 39  1  0  0  0
 37 47  1  0  0  0
 37 66  1  0  0  0
 37110  1  0  0  0
 38 43  2  0  0  0
 38 46  1  0  0  0
 38 47  1  0  0  0
 39 64  1  0  0  0
 39 67  2  0  0  0
 40 52  1  0  0  0
 40 53  2  0  0  0
 40 58  1  0  0  0
 41111  1  0  0  0
 41112  1  0  0  0
 41113  1  0  0  0
 41 48  1  0  0  0
 42 43  1  0  0  0
 42 66  1  0  0  0
 42114  1  0  0  0
 42115  1  0  0  0
 43 44  1  0  0  0
 44116  1  0  0  0
 45 46  2  0  0  0
 45117  1  0  0  0
 46118  1  0  0  0
 47119  1  0  0  0
 47120  1  0  0  0
 48 56  1  0  0  0
 48 65  1  0  0  0
 48121  1  0  0  0
 49 50  1  0  0  0
 49 53  1  0  0  0
 49 64  1  0  0  0
 49122  1  0  0  0
 50 51  1  0  0  0
 50123  1  0  0  0
 50124  1  0  0  0
 51 52  1  0  0  0
 51125  1  0  0  0
 51126  1  0  0  0
 52127  1  0  0  0
 52128  1  0  0  0
 53 54  1  0  0  0
 54 55  2  0  0  0
 54129  1  0  0  0
 55 57  1  0  0  0
 55130  1  0  0  0
 56 69  2  0  0  0
 57 58  2  0  0  0
 57131  1  0  0  0
 58132  1  0  0  0
 59 60  1  0  0  0
 59 61  1  0  0  0
 59 62  1  0  0  0
 60133  1  0  0  0
 60134  1  0  0  0
 60135  1  0  0  0
 61136  1  0  0  0
 61137  1  0  0  0
 61138  1  0  0  0
 62139  1  0  0  0
 62140  1  0  0  0
 62141  1  0  0  0
 63 65  1  0  0  0
 63142  1  0  0  0
 63143  1  0  0  0
 63144  1  0  0  0
 64145  1  0  0  0
 65146  1  0  0  0
 68 84  1  0  0  0
 71 72  2  0  0  0
 71 85  1  0  0  0
 71147  1  0  0  0
 72 73  1  0  0  0
 72 83  1  0  0  0
 73 74  2  0  0  0
 73 77  1  0  0  0
 74 75  1  0  0  0
 74 76  1  0  0  0
 75 84  1  0  0  0
 75 85  2  0  0  0
 76 82  1  0  0  0
 76148  1  0  0  0
 76149  1  0  0  0
 77 87  1  0  0  0
 77150  1  0  0  0
 77151  1  0  0  0
 78 80  1  0  0  0
 78 83  1  0  0  0
 78152  1  0  0  0
 78153  1  0  0  0
 79 81  1  0  0  0
 79 83  1  0  0  0
 79154  1  0  0  0
 79155  1  0  0  0
 80 86  1  0  0  0
 80156  1  0  0  0
 80157  1  0  0  0
 81 86  1  0  0  0
 81158  1  0  0  0
 81159  1  0  0  0
 82 87  1  0  0  0
 82160  1  0  0  0
 82161  1  0  0  0
 83162  1  0  0  0
 84163  1  0  0  0
 84164  1  0  0  0
 87165  1  0  0  0
 87166  1  0  0  0
M  CHG  1  87   1
M  ISO  4   1 100  68 101  84 101  86 100
M  END
> <chiral flag>
0

> <version>
0

> <s_m_source_file>
/data/baiqing/PycharmProjects/Reinvent-master-3.2/result/LINK_invent/BTK/process_docking_weight1_custom_sum_contain_oxygen_bond_distance_aromatic_linkinvent_7_9_3/rearranged_h_0187.sdf

> <i_m_source_file_index>
27

> <r_mmod_Potential_Energy-OPLS-2005>
98.4219207763672

> <r_mmod_Stretch_Energy-OPLS-2005>
125.627349853516

> <r_mmod_Bend_Energy-OPLS-2005>
204.777084350586

> <r_mmod_Torsional_Energy-OPLS-2005>
354.179290771484

> <r_mmod_Improper_Torsional_Energy-OPLS-2005>
12.259181022644

> <r_mmod_Van_der_Waal_Energy-OPLS-2005>
160.746505737305

> <r_mmod_Electrostatic_Energy-OPLS-2005>
-373.120147705078

> <r_mmod_Solvation_Energy-OPLS-2005>
-482.569122314453

> <b_mmod_Minimization_Converged-OPLS-2005>
0

> <r_mmod_RMS_Derivative-OPLS-2005>
0.492388695478439

$$$$
27
                    3D
 Structure written by MMmdl.
150158  0  0  1  0            999 V2000
  -30.3358  -15.6452   20.3050 C   0  0  0  0  0  0
  -30.4190  -13.0948   19.5110 C   0  0  0  0  0  0
  -29.5476  -12.6450   18.3064 C   0  0  0  0  0  0
  -28.1247  -12.2860   18.7609 C   0  0  0  0  0  0
  -27.5931  -13.3075   19.7951 C   0  0  2  0  0  0
  -28.6141  -13.6701   20.8995 C   0  0  0  0  0  0
  -25.2334  -13.8284   20.5782 C   0  0  0  0  0  0
  -24.1714  -13.0440   20.9277 C   0  0  0  0  0  0
  -24.6413  -11.6951   20.8762 C   0  0  0  0  0  0
  -23.9106  -10.4310   21.0397 C   0  0  0  0  0  0
  -24.3648   -9.4227   21.9178 C   0  0  0  0  0  0
  -23.6315   -8.2268   22.0744 C   0  0  0  0  0  0
  -22.4300   -8.0294   21.3535 C   0  0  0  0  0  0
  -21.9941   -9.0264   20.4641 C   0  0  0  0  0  0
  -22.7273  -10.2145   20.3052 C   0  0  0  0  0  0
  -21.6861   -6.0734   22.5276 C   0  0  0  0  0  0
  -21.4008   -6.5628   23.8211 C   0  0  0  0  0  0
  -21.3664   -5.6780   24.9167 C   0  0  0  0  0  0
  -21.6069   -4.3039   24.7218 C   0  0  0  0  0  0
  -21.8814   -3.8136   23.4342 C   0  0  0  0  0  0
  -21.9183   -4.6958   22.3394 C   0  0  0  0  0  0
  -22.7734  -13.5193   21.1880 C   0  0  0  0  0  0
  -22.1660   -4.2139   21.0978 F   0  0  0  0  0  0
  -21.5634   -3.4527   25.7730 F   0  0  0  0  0  0
  -29.7756  -14.2933   20.2180 N   0  0  0  0  0  0
  -26.2776  -12.9613   20.3180 N   0  0  0  0  0  0
  -25.9362  -11.6689   20.5682 N   0  0  0  0  0  0
  -22.0372  -12.8211   22.0460 N   0  0  0  0  0  0
  -25.3930  -15.2022   20.4244 N   0  0  0  0  0  0
  -31.5773  -15.5229   20.2637 O   0  0  0  0  0  0
  -21.6654   -6.8897   21.4254 O   0  0  0  0  0  0
  -22.3429  -14.5469   20.6658 O   0  0  0  0  0  0
  -24.6847  -31.7965   23.1512 C   0  0  0  0  0  0
  -25.9428  -32.4449   23.8054 C   0  0  1  0  0  0
  -27.2321  -26.6914   20.2072 C   0  0  0  0  0  0
  -25.5999  -33.8272   24.1937 N   0  0  0  0  0  0
  -23.5122  -30.3982   21.5060 C   0  0  2  0  0  0
  -24.9685  -28.7319   20.1228 C   0  0  0  0  0  0
  -22.7762  -29.4306   22.4714 C   0  0  0  0  0  0
  -18.0335  -28.1422   22.8446 C   0  0  0  0  0  0
  -24.1502  -36.7144   23.2653 C   0  0  0  0  0  0
  -26.0944  -30.5248   21.4166 C   0  0  0  0  0  0
  -26.1604  -29.0885   20.7663 C   0  0  0  0  0  0
  -27.2776  -28.0954   20.7744 C   0  0  0  0  0  0
  -26.0048  -26.5450   19.5133 C   0  0  0  0  0  0
  -24.9286  -27.4849   19.4754 C   0  0  0  0  0  0
  -23.7655  -29.6896   20.1440 C   0  0  0  0  0  0
  -25.4151  -36.2884   24.0279 C   0  0  1  0  0  0
  -20.5971  -28.3771   23.1146 C   0  0  2  0  0  0
  -20.6812  -26.9434   22.5395 C   0  0  0  0  0  0
  -19.5790  -26.6372   21.5212 C   0  0  0  0  0  0
  -18.1973  -26.7947   22.1618 C   0  0  0  0  0  0
  -19.1604  -28.8928   23.2772 C   0  0  0  0  0  0
  -18.9510  -30.1522   23.8807 C   0  0  0  0  0  0
  -17.6494  -30.6603   24.0547 C   0  0  0  0  0  0
  -25.9122  -34.9269   23.4946 C   0  0  0  0  0  0
  -16.5385  -29.9072   23.6362 C   0  0  0  0  0  0
  -16.7323  -28.6509   23.0365 C   0  0  0  0  0  0
  -26.4599  -31.6497   25.0690 C   0  0  0  0  0  0
  -25.3662  -31.3818   26.1305 C   0  0  0  0  0  0
  -27.0544  -30.2836   24.6612 C   0  0  0  0  0  0
  -27.6042  -32.4363   25.7505 C   0  0  0  0  0  0
  -27.5560  -37.1735   24.8468 C   0  0  0  0  0  0
  -21.4414  -29.3017   22.3454 N   0  0  0  0  0  0
  -26.4279  -37.3638   23.9392 N   0  0  0  0  0  0
  -24.7877  -30.9404   22.0771 N   0  0  0  0  0  0
  -23.4197  -28.7905   23.3067 O   0  0  0  0  0  0
  -28.2112  -25.4804   20.2440 O   0  0  0  0  0  0
  -26.5762  -34.8858   22.4563 O   0  0  0  0  0  0
  -23.5868  -32.1037   23.6465 O   0  0  0  0  0  0
  -28.2209  -19.1336   19.3598 C   0  0  0  0  0  0
  -28.3513  -17.5297   19.7329 C   0  0  0  0  0  0
  -30.0696  -18.6988   20.5257 C   0  0  0  0  0  0
  -28.9361  -20.1160   20.3650 C   0  0  1  0  0  0
  -30.3003  -22.3964   21.0047 C   0  0  0  0  0  0
  -28.0330  -23.7190   20.2295 C   0  0  0  0  0  0
  -29.0617  -22.0600   20.1589 C   0  0  2  0  0  0
  -29.6714  -17.0746   20.2958 N   0  0  0  0  0  0
  -31.4096  -13.3545   19.1378 H   0  0  0  0  0  0
  -30.5854  -12.2679   20.2040 H   0  0  0  0  0  0
  -30.0117  -11.8006   17.7939 H   0  0  0  0  0  0
  -29.5000  -13.4539   17.5762 H   0  0  0  0  0  0
  -28.1622  -11.2959   19.2153 H   0  0  0  0  0  0
  -27.4541  -12.2096   17.9031 H   0  0  0  0  0  0
  -27.4454  -14.2168   19.2088 H   0  0  0  0  0  0
  -28.8873  -12.8049   21.5056 H   0  0  0  0  0  0
  -28.1797  -14.4018   21.5826 H   0  0  0  0  0  0
  -25.2796   -9.5693   22.4749 H   0  0  0  0  0  0
  -23.9999   -7.4667   22.7476 H   0  0  0  0  0  0
  -21.0857   -8.8804   19.8967 H   0  0  0  0  0  0
  -22.3733  -10.9679   19.6155 H   0  0  0  0  0  0
  -21.2016   -7.6132   23.9714 H   0  0  0  0  0  0
  -21.1486   -6.0499   25.9067 H   0  0  0  0  0  0
  -22.0595   -2.7594   23.2834 H   0  0  0  0  0  0
  -22.3956  -11.9911   22.4943 H   0  0  0  0  0  0
  -21.0964  -13.1261   22.2542 H   0  0  0  0  0  0
  -24.6235  -15.8509   20.5484 H   0  0  0  0  0  0
  -26.2415  -15.6494   20.1050 H   0  0  0  0  0  0
  -26.7506  -32.4915   23.0757 H   0  0  0  0  0  0
  -25.0058  -33.9294   25.0032 H   0  0  0  0  0  0
  -22.8408  -31.2360   21.3127 H   0  0  0  0  0  0
  -23.3768  -35.9474   23.3300 H   0  0  0  0  0  0
  -24.3560  -36.8815   22.2073 H   0  0  0  0  0  0
  -23.7274  -37.6326   23.6735 H   0  0  0  0  0  0
  -26.2993  -31.2530   20.6304 H   0  0  0  0  0  0
  -26.9428  -30.5922   22.0836 H   0  0  0  0  0  0
  -28.1746  -28.3776   21.3068 H   0  0  0  0  0  0
  -25.8424  -25.6044   19.0078 H   0  0  0  0  0  0
  -24.0280  -27.1982   18.9501 H   0  0  0  0  0  0
  -23.9378  -30.4447   19.3767 H   0  0  0  0  0  0
  -22.8716  -29.1516   19.8248 H   0  0  0  0  0  0
  -25.1372  -36.1642   25.0770 H   0  0  0  0  0  0
  -21.0059  -28.3402   24.1271 H   0  0  0  0  0  0
  -20.5694  -26.2387   23.3647 H   0  0  0  0  0  0
  -21.6671  -26.7393   22.1204 H   0  0  0  0  0  0
  -19.6941  -25.6263   21.1290 H   0  0  0  0  0  0
  -19.6746  -27.3141   20.6711 H   0  0  0  0  0  0
  -17.4240  -26.6678   21.4028 H   0  0  0  0  0  0
  -18.0374  -26.0119   22.9046 H   0  0  0  0  0  0
  -19.7987  -30.7369   24.2127 H   0  0  0  0  0  0
  -17.5045  -31.6281   24.5153 H   0  0  0  0  0  0
  -15.5373  -30.2944   23.7760 H   0  0  0  0  0  0
  -15.8722  -28.0810   22.7104 H   0  0  0  0  0  0
  -24.5829  -30.7203   25.7587 H   0  0  0  0  0  0
  -24.8883  -32.3055   26.4581 H   0  0  0  0  0  0
  -25.7831  -30.9051   27.0183 H   0  0  0  0  0  0
  -26.3284  -29.6436   24.1597 H   0  0  0  0  0  0
  -27.3950  -29.7297   25.5366 H   0  0  0  0  0  0
  -27.9263  -30.3956   24.0167 H   0  0  0  0  0  0
  -27.2565  -33.3699   26.1925 H   0  0  0  0  0  0
  -28.3933  -32.6865   25.0407 H   0  0  0  0  0  0
  -28.0630  -31.8608   26.5550 H   0  0  0  0  0  0
  -28.2572  -38.0033   24.7484 H   0  0  0  0  0  0
  -28.1068  -36.2560   24.6347 H   0  0  0  0  0  0
  -27.2268  -37.1431   25.8867 H   0  0  0  0  0  0
  -20.9712  -29.8635   21.6493 H   0  0  0  0  0  0
  -26.0111  -38.2694   24.1371 H   0  0  0  0  0  0
  -27.1773  -19.4145   19.2253 H   0  0  0  0  0  0
  -28.6821  -19.2860   18.3813 H   0  0  0  0  0  0
  -28.1097  -16.9264   18.8571 H   0  0  0  0  0  0
  -27.5974  -17.2920   20.4832 H   0  0  0  0  0  0
  -30.5370  -18.7672   21.5083 H   0  0  0  0  0  0
  -30.8882  -18.8819   19.8256 H   0  0  0  0  0  0
  -28.3528  -20.0552   21.2859 H   0  0  0  0  0  0
  -31.1532  -22.6414   20.3712 H   0  0  0  0  0  0
  -30.5940  -21.5624   21.6410 H   0  0  0  0  0  0
  -30.1215  -23.2508   21.6586 H   0  0  0  0  0  0
  -27.4257  -23.5748   21.1230 H   0  0  0  0  0  0
  -27.3133  -23.5839   19.4216 H   0  0  0  0  0  0
  -29.4108  -22.1107   19.1246 H   0  0  0  0  0  0
  1 25  1  0  0  0
  1 30  2  0  0  0
  1 78  1  0  0  0
  2  3  1  0  0  0
  2 25  1  0  0  0
  2 79  1  0  0  0
  2 80  1  0  0  0
  3  4  1  0  0  0
  3 81  1  0  0  0
  3 82  1  0  0  0
  4  5  1  0  0  0
  4 83  1  0  0  0
  4 84  1  0  0  0
  5  6  1  0  0  0
  5 26  1  0  0  0
  5 85  1  0  0  0
  6 25  1  0  0  0
  6 86  1  0  0  0
  6 87  1  0  0  0
  7  8  2  0  0  0
  7 26  1  0  0  0
  7 29  1  0  0  0
  8  9  1  0  0  0
  8 22  1  0  0  0
  9 10  1  0  0  0
  9 27  2  0  0  0
 10 11  2  0  0  0
 10 15  1  0  0  0
 11 12  1  0  0  0
 11 88  1  0  0  0
 12 13  2  0  0  0
 12 89  1  0  0  0
 13 14  1  0  0  0
 13 31  1  0  0  0
 14 15  2  0  0  0
 14 90  1  0  0  0
 15 91  1  0  0  0
 16 17  2  0  0  0
 16 21  1  0  0  0
 16 31  1  0  0  0
 17 18  1  0  0  0
 17 92  1  0  0  0
 18 19  2  0  0  0
 18 93  1  0  0  0
 19 20  1  0  0  0
 19 24  1  0  0  0
 20 21  2  0  0  0
 20 94  1  0  0  0
 21 23  1  0  0  0
 22 28  1  0  0  0
 22 32  2  0  0  0
 26 27  1  0  0  0
 28 95  1  0  0  0
 28 96  1  0  0  0
 29 97  1  0  0  0
 29 98  1  0  0  0
 33 34  1  0  0  0
 33 66  1  0  0  0
 33 70  2  0  0  0
 34 36  1  0  0  0
 34 59  1  0  0  0
 34 99  1  0  0  0
 35 44  2  0  0  0
 35 45  1  0  0  0
 35 68  1  0  0  0
 36 56  1  0  0  0
 36100  1  0  0  0
 37 39  1  0  0  0
 37 47  1  0  0  0
 37 66  1  0  0  0
 37101  1  0  0  0
 38 43  2  0  0  0
 38 46  1  0  0  0
 38 47  1  0  0  0
 39 64  1  0  0  0
 39 67  2  0  0  0
 40 52  1  0  0  0
 40 53  2  0  0  0
 40 58  1  0  0  0
 41102  1  0  0  0
 41103  1  0  0  0
 41104  1  0  0  0
 41 48  1  0  0  0
 42 43  1  0  0  0
 42 66  1  0  0  0
 42105  1  0  0  0
 42106  1  0  0  0
 43 44  1  0  0  0
 44107  1  0  0  0
 45 46  2  0  0  0
 45108  1  0  0  0
 46109  1  0  0  0
 47110  1  0  0  0
 47111  1  0  0  0
 48 56  1  0  0  0
 48 65  1  0  0  0
 48112  1  0  0  0
 49 50  1  0  0  0
 49 53  1  0  0  0
 49 64  1  0  0  0
 49113  1  0  0  0
 50 51  1  0  0  0
 50114  1  0  0  0
 50115  1  0  0  0
 51 52  1  0  0  0
 51116  1  0  0  0
 51117  1  0  0  0
 52118  1  0  0  0
 52119  1  0  0  0
 53 54  1  0  0  0
 54 55  2  0  0  0
 54120  1  0  0  0
 55 57  1  0  0  0
 55121  1  0  0  0
 56 69  2  0  0  0
 57 58  2  0  0  0
 57122  1  0  0  0
 58123  1  0  0  0
 59 60  1  0  0  0
 59 61  1  0  0  0
 59 62  1  0  0  0
 60124  1  0  0  0
 60125  1  0  0  0
 60126  1  0  0  0
 61127  1  0  0  0
 61128  1  0  0  0
 61129  1  0  0  0
 62130  1  0  0  0
 62131  1  0  0  0
 62132  1  0  0  0
 63 65  1  0  0  0
 63133  1  0  0  0
 63134  1  0  0  0
 63135  1  0  0  0
 64136  1  0  0  0
 65137  1  0  0  0
 68 76  1  0  0  0
 71 72  1  0  0  0
 71138  1  0  0  0
 71139  1  0  0  0
 71 74  1  0  0  0
 72 78  1  0  0  0
 72140  1  0  0  0
 72141  1  0  0  0
 73 74  1  0  0  0
 73 78  1  0  0  0
 73142  1  0  0  0
 73143  1  0  0  0
 74 77  1  0  0  0
 74144  1  0  0  0
 75145  1  0  0  0
 75146  1  0  0  0
 75147  1  0  0  0
 75 77  1  0  0  0
 76 77  1  0  0  0
 76148  1  0  0  0
 76149  1  0  0  0
 77150  1  0  0  0
M  ISO  4   1 100  68 101  76 101  78 100
M  END
> <chiral flag>
0

> <version>
0

> <s_m_source_file>
/data/baiqing/PycharmProjects/Reinvent-master-3.2/result/LINK_invent/BTK/process_docking_weight1_custom_sum_contain_oxygen_bond_distance_aromatic_linkinvent_7_9_3/rearranged_h_0187.sdf

> <i_m_source_file_index>
28

> <r_mmod_Potential_Energy-OPLS-2005>
2715.90209960938

> <r_mmod_Stretch_Energy-OPLS-2005>
1110.13598632812

> <r_mmod_Bend_Energy-OPLS-2005>
721.863952636719

> <r_mmod_Torsional_Energy-OPLS-2005>
337.623138427734

> <r_mmod_Improper_Torsional_Energy-OPLS-2005>
3.67301273345947

> <r_mmod_Van_der_Waal_Energy-OPLS-2005>
102.96484375

> <r_mmod_Electrostatic_Energy-OPLS-2005>
-269.070556640625

> <r_mmod_Solvation_Energy-OPLS-2005>
-206.103942871094

> <b_mmod_Minimization_Converged-OPLS-2005>
0

> <r_mmod_RMS_Derivative-OPLS-2005>
3.15286493301392

$$$$
28
                    3D
 Structure written by MMmdl.
158167  0  0  1  0            999 V2000
  -30.4166  -15.3073   20.3469 C   0  0  0  0  0  0
  -30.4396  -12.8428   19.5018 C   0  0  0  0  0  0
  -29.5333  -12.5632   18.2767 C   0  0  0  0  0  0
  -28.0831  -12.2881   18.7147 C   0  0  0  0  0  0
  -27.6051  -13.2741   19.8097 C   0  0  2  0  0  0
  -28.6436  -13.4767   20.9303 C   0  0  0  0  0  0
  -25.2398  -13.8248   20.5765 C   0  0  0  0  0  0
  -24.1741  -13.0439   20.9259 C   0  0  0  0  0  0
  -24.6392  -11.6933   20.8763 C   0  0  0  0  0  0
  -23.9090  -10.4292   21.0408 C   0  0  0  0  0  0
  -24.3634   -9.4204   21.9185 C   0  0  0  0  0  0
  -23.6301   -8.2243   22.0753 C   0  0  0  0  0  0
  -22.4282   -8.0286   21.3544 C   0  0  0  0  0  0
  -21.9926   -9.0261   20.4645 C   0  0  0  0  0  0
  -22.7262  -10.2135   20.3056 C   0  0  0  0  0  0
  -21.6854   -6.0741   22.5278 C   0  0  0  0  0  0
  -21.4016   -6.5641   23.8213 C   0  0  0  0  0  0
  -21.3659   -5.6790   24.9173 C   0  0  0  0  0  0
  -21.6042   -4.3053   24.7222 C   0  0  0  0  0  0
  -21.8817   -3.8149   23.4341 C   0  0  0  0  0  0
  -21.9191   -4.6969   22.3399 C   0  0  0  0  0  0
  -22.7760  -13.5195   21.1902 C   0  0  0  0  0  0
  -22.1659   -4.2154   21.0977 F   0  0  0  0  0  0
  -21.5627   -3.4535   25.7733 F   0  0  0  0  0  0
  -29.8546  -13.9977   20.2748 N   0  0  0  0  0  0
  -26.2801  -12.9508   20.3198 N   0  0  0  0  0  0
  -25.9325  -11.6616   20.5707 N   0  0  0  0  0  0
  -22.0415  -12.8179   22.0456 N   0  0  0  0  0  0
  -25.4077  -15.1983   20.4244 N   0  0  0  0  0  0
  -31.6575  -15.2825   20.3065 O   0  0  0  0  0  0
  -21.6641   -6.8887   21.4242 O   0  0  0  0  0  0
  -22.3437  -14.5492   20.6736 O   0  0  0  0  0  0
  -24.6647  -31.8216   23.1683 C   0  0  0  0  0  0
  -25.9321  -32.4579   23.8156 C   0  0  1  0  0  0
  -27.2182  -26.9043   20.1988 C   0  0  0  0  0  0
  -25.5980  -33.8392   24.2062 N   0  0  0  0  0  0
  -23.4801  -30.4313   21.5192 C   0  0  2  0  0  0
  -24.9323  -28.8067   20.1246 C   0  0  0  0  0  0
  -22.7674  -29.4426   22.4790 C   0  0  0  0  0  0
  -18.0324  -28.1408   22.8462 C   0  0  0  0  0  0
  -24.1494  -36.7202   23.2645 C   0  0  0  0  0  0
  -26.0503  -30.6224   21.3995 C   0  0  0  0  0  0
  -26.1189  -29.2057   20.7529 C   0  0  0  0  0  0
  -27.2602  -28.2795   20.7562 C   0  0  0  0  0  0
  -25.9977  -26.6564   19.5339 C   0  0  0  0  0  0
  -24.8970  -27.5520   19.4947 C   0  0  0  0  0  0
  -23.7219  -29.7407   20.1491 C   0  0  0  0  0  0
  -25.4136  -36.2960   24.0295 C   0  0  1  0  0  0
  -20.5948  -28.3751   23.1189 C   0  0  2  0  0  0
  -20.6803  -26.9433   22.5397 C   0  0  0  0  0  0
  -19.5778  -26.6379   21.5209 C   0  0  0  0  0  0
  -18.1959  -26.7943   22.1614 C   0  0  0  0  0  0
  -19.1583  -28.8900   23.2814 C   0  0  0  0  0  0
  -18.9492  -30.1489   23.8853 C   0  0  0  0  0  0
  -17.6484  -30.6593   24.0557 C   0  0  0  0  0  0
  -25.9101  -34.9344   23.5001 C   0  0  0  0  0  0
  -16.5376  -29.9081   23.6342 C   0  0  0  0  0  0
  -16.7305  -28.6503   23.0358 C   0  0  0  0  0  0
  -26.4568  -31.6530   25.0691 C   0  0  0  0  0  0
  -25.3687  -31.3784   26.1341 C   0  0  0  0  0  0
  -27.0466  -30.2895   24.6430 C   0  0  0  0  0  0
  -27.6056  -32.4341   25.7501 C   0  0  0  0  0  0
  -27.5569  -37.1759   24.8465 C   0  0  0  0  0  0
  -21.4341  -29.3041   22.3540 N   0  0  0  0  0  0
  -26.4281  -37.3697   23.9405 N   0  0  0  0  0  0
  -24.7535  -30.9860   22.0829 N   0  0  0  0  0  0
  -23.4214  -28.7998   23.3039 O   0  0  0  0  0  0
  -28.2466  -25.8199   20.1468 O   0  0  0  0  0  0
  -26.5714  -34.8883   22.4598 O   0  0  0  0  0  0
  -23.5712  -32.1192   23.6766 O   0  0  0  0  0  0
  -28.7108  -21.2262   20.5266 C   0  0  0  0  0  0
  -27.5705  -20.7431   21.1800 C   0  0  0  0  0  0
  -28.4500  -22.6684   19.9553 C   0  0  0  0  0  0
  -26.3239  -21.9216   19.6592 C   0  0  0  0  0  0
  -29.5059  -19.7819   19.9815 C   0  0  0  0  0  0
  -27.6389  -19.4954   22.0743 C   0  0  0  0  0  0
  -28.0256  -18.1659   21.3586 C   0  0  0  0  0  0
  -29.4345  -18.1413   20.7068 C   0  0  1  0  0  0
  -24.9966  -22.0715   18.9490 C   0  0  0  0  0  0
  -29.2476  -16.6789   18.6917 C   0  0  0  0  0  0
  -28.2055  -24.2504   20.6906 C   0  0  0  0  0  0
  -26.3577  -21.1080   20.7162 N   0  0  0  0  0  0
  -27.3525  -22.6182   19.1735 N   0  0  0  0  0  0
  -29.6665  -16.5865   20.0919 N   0  0  0  0  0  0
  -31.4487  -13.0726   19.1566 H   0  0  0  0  0  0
  -30.5356  -11.9561   20.1305 H   0  0  0  0  0  0
  -29.9191  -11.7185   17.7042 H   0  0  0  0  0  0
  -29.5548  -13.4214   17.6044 H   0  0  0  0  0  0
  -28.0468  -11.2698   19.1033 H   0  0  0  0  0  0
  -27.4119  -12.3113   17.8554 H   0  0  0  0  0  0
  -27.5060  -14.2313   19.2967 H   0  0  0  0  0  0
  -28.8323  -12.5529   21.4796 H   0  0  0  0  0  0
  -28.2789  -14.2066   21.6552 H   0  0  0  0  0  0
  -25.2775   -9.5675   22.4766 H   0  0  0  0  0  0
  -24.0003   -7.4632   22.7475 H   0  0  0  0  0  0
  -21.0857   -8.8787   19.8950 H   0  0  0  0  0  0
  -22.3723  -10.9678   19.6169 H   0  0  0  0  0  0
  -21.2014   -7.6149   23.9720 H   0  0  0  0  0  0
  -21.1481   -6.0519   25.9076 H   0  0  0  0  0  0
  -22.0598   -2.7612   23.2837 H   0  0  0  0  0  0
  -22.4043  -11.9853   22.4854 H   0  0  0  0  0  0
  -21.1027  -13.1191   22.2656 H   0  0  0  0  0  0
  -24.6454  -15.8541   20.5558 H   0  0  0  0  0  0
  -26.2654  -15.6405   20.1209 H   0  0  0  0  0  0
  -26.7393  -32.5119   23.0875 H   0  0  0  0  0  0
  -25.0078  -33.9468   25.0179 H   0  0  0  0  0  0
  -22.7941  -31.2628   21.3444 H   0  0  0  0  0  0
  -23.3766  -35.9522   23.3277 H   0  0  0  0  0  0
  -24.3564  -36.8882   22.2064 H   0  0  0  0  0  0
  -23.7245  -37.6378   23.6726 H   0  0  0  0  0  0
  -26.2273  -31.3587   20.6143 H   0  0  0  0  0  0
  -26.9116  -30.6862   22.0527 H   0  0  0  0  0  0
  -28.1705  -28.5952   21.2463 H   0  0  0  0  0  0
  -25.8789  -25.7006   19.0428 H   0  0  0  0  0  0
  -23.9962  -27.2409   18.9835 H   0  0  0  0  0  0
  -23.8832  -30.5054   19.3882 H   0  0  0  0  0  0
  -22.8309  -29.1969   19.8305 H   0  0  0  0  0  0
  -25.1337  -36.1749   25.0786 H   0  0  0  0  0  0
  -21.0034  -28.3357   24.1313 H   0  0  0  0  0  0
  -20.5691  -26.2363   23.3633 H   0  0  0  0  0  0
  -21.6666  -26.7418   22.1197 H   0  0  0  0  0  0
  -19.6937  -25.6280   21.1264 H   0  0  0  0  0  0
  -19.6722  -27.3170   20.6725 H   0  0  0  0  0  0
  -17.4231  -26.6689   21.4015 H   0  0  0  0  0  0
  -18.0351  -26.0093   22.9017 H   0  0  0  0  0  0
  -19.7965  -30.7317   24.2206 H   0  0  0  0  0  0
  -17.5034  -31.6264   24.5175 H   0  0  0  0  0  0
  -15.5373  -30.2965   23.7692 H   0  0  0  0  0  0
  -15.8709  -28.0804   22.7099 H   0  0  0  0  0  0
  -24.5890  -30.7115   25.7646 H   0  0  0  0  0  0
  -24.8853  -32.2985   26.4634 H   0  0  0  0  0  0
  -25.7908  -30.9038   27.0208 H   0  0  0  0  0  0
  -26.3134  -29.6569   24.1418 H   0  0  0  0  0  0
  -27.3976  -29.7265   25.5088 H   0  0  0  0  0  0
  -27.9082  -30.4073   23.9857 H   0  0  0  0  0  0
  -27.2625  -33.3690   26.1948 H   0  0  0  0  0  0
  -28.3941  -32.6826   25.0385 H   0  0  0  0  0  0
  -28.0645  -31.8554   26.5529 H   0  0  0  0  0  0
  -28.2565  -38.0074   24.7508 H   0  0  0  0  0  0
  -28.1088  -36.2598   24.6300 H   0  0  0  0  0  0
  -27.2281  -37.1408   25.8866 H   0  0  0  0  0  0
  -20.9599  -29.8722   21.6660 H   0  0  0  0  0  0
  -26.0124  -38.2752   24.1419 H   0  0  0  0  0  0
  -30.5595  -20.0375   19.8655 H   0  0  0  0  0  0
  -29.1481  -19.6666   18.9579 H   0  0  0  0  0  0
  -26.6746  -19.3674   22.5679 H   0  0  0  0  0  0
  -28.3525  -19.6962   22.8738 H   0  0  0  0  0  0
  -27.2735  -17.9688   20.5944 H   0  0  0  0  0  0
  -27.9475  -17.3464   22.0732 H   0  0  0  0  0  0
  -30.1455  -18.1824   21.5335 H   0  0  0  0  0  0
  -24.1662  -21.9931   19.6508 H   0  0  0  0  0  0
  -24.8836  -21.2904   18.1978 H   0  0  0  0  0  0
  -24.9229  -23.0379   18.4501 H   0  0  0  0  0  0
  -28.2766  -17.1658   18.6030 H   0  0  0  0  0  0
  -29.1579  -15.7099   18.1989 H   0  0  0  0  0  0
  -29.9706  -17.2670   18.1255 H   0  0  0  0  0  0
  -28.9436  -24.2541   21.4923 H   0  0  0  0  0  0
  -27.2587  -24.1790   21.2273 H   0  0  0  0  0  0
  1 25  1  0  0  0
  1 30  2  0  0  0
  1 84  1  0  0  0
  2  3  1  0  0  0
  2 25  1  0  0  0
  2 85  1  0  0  0
  2 86  1  0  0  0
  3  4  1  0  0  0
  3 87  1  0  0  0
  3 88  1  0  0  0
  4  5  1  0  0  0
  4 89  1  0  0  0
  4 90  1  0  0  0
  5  6  1  0  0  0
  5 26  1  0  0  0
  5 91  1  0  0  0
  6 25  1  0  0  0
  6 92  1  0  0  0
  6 93  1  0  0  0
  7  8  2  0  0  0
  7 26  1  0  0  0
  7 29  1  0  0  0
  8  9  1  0  0  0
  8 22  1  0  0  0
  9 10  1  0  0  0
  9 27  2  0  0  0
 10 11  2  0  0  0
 10 15  1  0  0  0
 11 12  1  0  0  0
 11 94  1  0  0  0
 12 13  2  0  0  0
 12 95  1  0  0  0
 13 14  1  0  0  0
 13 31  1  0  0  0
 14 15  2  0  0  0
 14 96  1  0  0  0
 15 97  1  0  0  0
 16 17  2  0  0  0
 16 21  1  0  0  0
 16 31  1  0  0  0
 17 18  1  0  0  0
 17 98  1  0  0  0
 18 19  2  0  0  0
 18 99  1  0  0  0
 19 20  1  0  0  0
 19 24  1  0  0  0
 20 21  2  0  0  0
 20100  1  0  0  0
 21 23  1  0  0  0
 22 28  1  0  0  0
 22 32  2  0  0  0
 26 27  1  0  0  0
 28101  1  0  0  0
 28102  1  0  0  0
 29103  1  0  0  0
 29104  1  0  0  0
 33 34  1  0  0  0
 33 66  1  0  0  0
 33 70  2  0  0  0
 34 36  1  0  0  0
 34 59  1  0  0  0
 34105  1  0  0  0
 35 44  2  0  0  0
 35 45  1  0  0  0
 35 68  1  0  0  0
 36 56  1  0  0  0
 36106  1  0  0  0
 37 39  1  0  0  0
 37 47  1  0  0  0
 37 66  1  0  0  0
 37107  1  0  0  0
 38 43  2  0  0  0
 38 46  1  0  0  0
 38 47  1  0  0  0
 39 64  1  0  0  0
 39 67  2  0  0  0
 40 52  1  0  0  0
 40 53  2  0  0  0
 40 58  1  0  0  0
 41108  1  0  0  0
 41109  1  0  0  0
 41110  1  0  0  0
 41 48  1  0  0  0
 42 43  1  0  0  0
 42 66  1  0  0  0
 42111  1  0  0  0
 42112  1  0  0  0
 43 44  1  0  0  0
 44113  1  0  0  0
 45 46  2  0  0  0
 45114  1  0  0  0
 46115  1  0  0  0
 47116  1  0  0  0
 47117  1  0  0  0
 48 56  1  0  0  0
 48 65  1  0  0  0
 48118  1  0  0  0
 49 50  1  0  0  0
 49 53  1  0  0  0
 49 64  1  0  0  0
 49119  1  0  0  0
 50 51  1  0  0  0
 50120  1  0  0  0
 50121  1  0  0  0
 51 52  1  0  0  0
 51122  1  0  0  0
 51123  1  0  0  0
 52124  1  0  0  0
 52125  1  0  0  0
 53 54  1  0  0  0
 54 55  2  0  0  0
 54126  1  0  0  0
 55 57  1  0  0  0
 55127  1  0  0  0
 56 69  2  0  0  0
 57 58  2  0  0  0
 57128  1  0  0  0
 58129  1  0  0  0
 59 60  1  0  0  0
 59 61  1  0  0  0
 59 62  1  0  0  0
 60130  1  0  0  0
 60131  1  0  0  0
 60132  1  0  0  0
 61133  1  0  0  0
 61134  1  0  0  0
 61135  1  0  0  0
 62136  1  0  0  0
 62137  1  0  0  0
 62138  1  0  0  0
 63 65  1  0  0  0
 63139  1  0  0  0
 63140  1  0  0  0
 63141  1  0  0  0
 64142  1  0  0  0
 65143  1  0  0  0
 68 81  1  0  0  0
 71 72  2  0  0  0
 71 73  1  0  0  0
 71 75  1  0  0  0
 72 76  1  0  0  0
 72 82  1  0  0  0
 73 81  1  0  0  0
 73 83  2  0  0  0
 74 79  1  0  0  0
 74 82  2  0  0  0
 74 83  1  0  0  0
 75 78  1  0  0  0
 75144  1  0  0  0
 75145  1  0  0  0
 76 77  1  0  0  0
 76146  1  0  0  0
 76147  1  0  0  0
 77 78  1  0  0  0
 77148  1  0  0  0
 77149  1  0  0  0
 78 84  1  0  0  0
 78150  1  0  0  0
 79151  1  0  0  0
 79152  1  0  0  0
 79153  1  0  0  0
 80 84  1  0  0  0
 80154  1  0  0  0
 80155  1  0  0  0
 80156  1  0  0  0
 81157  1  0  0  0
 81158  1  0  0  0
M  ISO  4   1 100  68 101  81 101  84 100
M  END
> <chiral flag>
0

> <version>
0

> <s_m_source_file>
/data/baiqing/PycharmProjects/Reinvent-master-3.2/result/LINK_invent/BTK/process_docking_weight1_custom_sum_contain_oxygen_bond_distance_aromatic_linkinvent_7_9_3/rearranged_h_0187.sdf

> <i_m_source_file_index>
29

> <r_mmod_Potential_Energy-OPLS-2005>
1422.47180175781

> <r_mmod_Stretch_Energy-OPLS-2005>
633.430541992188

> <r_mmod_Bend_Energy-OPLS-2005>
519.394836425781

> <r_mmod_Torsional_Energy-OPLS-2005>
524.779724121094

> <r_mmod_Improper_Torsional_Energy-OPLS-2005>
40.9200248718262

> <r_mmod_Van_der_Waal_Energy-OPLS-2005>
133.046737670898

> <r_mmod_Electrostatic_Energy-OPLS-2005>
-697.71435546875

> <r_mmod_Solvation_Energy-OPLS-2005>
-227.196746826172

> <b_mmod_Minimization_Converged-OPLS-2005>
0

> <r_mmod_RMS_Derivative-OPLS-2005>
0.519706666469574

$$$$
29
                    3D
 Structure written by MMmdl.
162171  0  0  1  0            999 V2000
  -30.6887  -14.4674   20.5614 C   0  0  0  0  0  0
  -30.4210  -12.2903   19.4385 C   0  0  0  0  0  0
  -29.5023  -12.4966   18.2158 C   0  0  0  0  0  0
  -28.0178  -12.3702   18.6181 C   0  0  0  0  0  0
  -27.6603  -13.2038   19.8784 C   0  0  2  0  0  0
  -28.6985  -12.9751   20.9993 C   0  0  0  0  0  0
  -25.2581  -13.8165   20.5705 C   0  0  0  0  0  0
  -24.1825  -13.0448   20.9171 C   0  0  0  0  0  0
  -24.6374  -11.6912   20.8731 C   0  0  0  0  0  0
  -23.9047  -10.4301   21.0404 C   0  0  0  0  0  0
  -24.3609   -9.4213   21.9176 C   0  0  0  0  0  0
  -23.6281   -8.2247   22.0753 C   0  0  0  0  0  0
  -22.4259   -8.0284   21.3548 C   0  0  0  0  0  0
  -21.9887   -9.0261   20.4651 C   0  0  0  0  0  0
  -22.7219  -10.2135   20.3056 C   0  0  0  0  0  0
  -21.6849   -6.0724   22.5279 C   0  0  0  0  0  0
  -21.4020   -6.5635   23.8214 C   0  0  0  0  0  0
  -21.3663   -5.6787   24.9172 C   0  0  0  0  0  0
  -21.6047   -4.3050   24.7220 C   0  0  0  0  0  0
  -21.8809   -3.8140   23.4344 C   0  0  0  0  0  0
  -21.9189   -4.6953   22.3398 C   0  0  0  0  0  0
  -22.7844  -13.5242   21.1839 C   0  0  0  0  0  0
  -22.1655   -4.2144   21.0969 F   0  0  0  0  0  0
  -21.5634   -3.4537   25.7731 F   0  0  0  0  0  0
  -30.0275  -13.2825   20.4499 N   0  0  0  0  0  0
  -26.3012  -12.9327   20.3374 N   0  0  0  0  0  0
  -25.9299  -11.6492   20.5762 N   0  0  0  0  0  0
  -22.0479  -12.8272   22.0414 N   0  0  0  0  0  0
  -25.4316  -15.1895   20.4162 N   0  0  0  0  0  0
  -31.8354  -14.6232   20.1264 O   0  0  0  0  0  0
  -21.6638   -6.8873   21.4245 O   0  0  0  0  0  0
  -22.3537  -14.5543   20.6663 O   0  0  0  0  0  0
  -24.6150  -31.8710   23.2134 C   0  0  0  0  0  0
  -25.9058  -32.4838   23.8413 C   0  0  1  0  0  0
  -27.2206  -27.4306   20.0875 C   0  0  0  0  0  0
  -25.5937  -33.8633   24.2361 N   0  0  0  0  0  0
  -23.4016  -30.4971   21.5553 C   0  0  2  0  0  0
  -24.8416  -28.9679   20.1151 C   0  0  0  0  0  0
  -22.7409  -29.4677   22.5005 C   0  0  0  0  0  0
  -18.0274  -28.1373   22.8495 C   0  0  0  0  0  0
  -24.1495  -36.7300   23.2633 C   0  0  0  0  0  0
  -25.9327  -30.8357   21.3649 C   0  0  0  0  0  0
  -26.0064  -29.4709   20.7097 C   0  0  0  0  0  0
  -27.1996  -28.7107   20.6902 C   0  0  0  0  0  0
  -26.0312  -26.9479   19.4878 C   0  0  0  0  0  0
  -24.8486  -27.7052   19.5051 C   0  0  0  0  0  0
  -23.6080  -29.8376   20.1679 C   0  0  0  0  0  0
  -25.4115  -36.3114   24.0338 C   0  0  1  0  0  0
  -20.5867  -28.3654   23.1328 C   0  0  2  0  0  0
  -20.6773  -26.9399   22.5416 C   0  0  0  0  0  0
  -19.5752  -26.6390   21.5216 C   0  0  0  0  0  0
  -18.1926  -26.7921   22.1623 C   0  0  0  0  0  0
  -19.1522  -28.8829   23.2906 C   0  0  0  0  0  0
  -18.9449  -30.1439   23.8914 C   0  0  0  0  0  0
  -17.6445  -30.6578   24.0563 C   0  0  0  0  0  0
  -25.9034  -34.9482   23.5136 C   0  0  0  0  0  0
  -16.5340  -29.9078   23.6329 C   0  0  0  0  0  0
  -16.7257  -28.6500   23.0348 C   0  0  0  0  0  0
  -26.4488  -31.6594   25.0718 C   0  0  0  0  0  0
  -25.3764  -31.3673   26.1471 C   0  0  0  0  0  0
  -27.0317  -30.3056   24.6057 C   0  0  0  0  0  0
  -27.6088  -32.4291   25.7470 C   0  0  0  0  0  0
  -27.5587  -37.1804   24.8464 C   0  0  0  0  0  0
  -21.4136  -29.3030   22.3733 N   0  0  0  0  0  0
  -26.4297  -37.3805   23.9408 N   0  0  0  0  0  0
  -24.6686  -31.0824   22.1031 N   0  0  0  0  0  0
  -23.4180  -28.8202   23.3029 O   0  0  0  0  0  0
  -28.3860  -26.6869   20.0990 O   0  0  0  0  0  0
  -26.5574  -34.8927   22.4688 O   0  0  0  0  0  0
  -23.5345  -32.1458   23.7537 O   0  0  0  0  0  0
  -31.7993  -22.6913   19.7584 C   0  0  0  0  0  0
  -32.8201  -21.7373   19.6734 C   0  0  0  0  0  0
  -30.5288  -22.2275   20.1262 C   0  0  0  0  0  0
  -31.3603  -20.1054   20.3027 C   0  0  0  0  0  0
  -29.9703  -17.4557   22.2684 C   0  0  0  0  0  0
  -29.5633  -15.9811   22.1604 C   0  0  0  0  0  0
  -29.9571  -16.7359   19.9424 C   0  0  0  0  0  0
  -30.0121  -17.9897   20.8342 C   0  0  2  0  0  0
  -34.2281  -22.1127   19.2594 C   0  0  0  0  0  0
  -29.5715  -24.5343   20.2364 C   0  0  0  0  0  0
  -28.2383  -25.2624   20.0074 C   0  0  0  0  0  0
  -32.5902  -20.4424   19.9568 N   0  0  0  0  0  0
  -30.3123  -20.9241   20.3951 N   0  0  0  0  0  0
  -29.9005  -15.5461   20.8048 N   0  0  0  0  0  0
  -29.4184  -23.0749   20.2226 N   0  0  0  0  0  0
  -31.2239  -18.7611   20.5732 N   0  0  0  0  0  0
  -31.4708  -12.3733   19.1516 H   0  0  0  0  0  0
  -30.3044  -11.2829   19.8398 H   0  0  0  0  0  0
  -29.7423  -11.7694   17.4398 H   0  0  0  0  0  0
  -29.6849  -13.4805   17.7806 H   0  0  0  0  0  0
  -27.8157  -11.3137   18.8033 H   0  0  0  0  0  0
  -27.3793  -12.6630   17.7846 H   0  0  0  0  0  0
  -27.7039  -14.2531   19.5901 H   0  0  0  0  0  0
  -28.6694  -11.9364   21.3332 H   0  0  0  0  0  0
  -28.4617  -13.5709   21.8801 H   0  0  0  0  0  0
  -25.2750   -9.5693   22.4741 H   0  0  0  0  0  0
  -23.9999   -7.4634   22.7458 H   0  0  0  0  0  0
  -21.0816   -8.8776   19.8956 H   0  0  0  0  0  0
  -22.3674  -10.9675   19.6172 H   0  0  0  0  0  0
  -21.2019   -7.6141   23.9721 H   0  0  0  0  0  0
  -21.1504   -6.0512   25.9081 H   0  0  0  0  0  0
  -22.0584   -2.7601   23.2838 H   0  0  0  0  0  0
  -22.4077  -11.9957   22.4855 H   0  0  0  0  0  0
  -21.1095  -13.1324   22.2589 H   0  0  0  0  0  0
  -24.6719  -15.8492   20.5427 H   0  0  0  0  0  0
  -26.2970  -15.6321   20.1338 H   0  0  0  0  0  0
  -26.7121  -32.5547   23.1156 H   0  0  0  0  0  0
  -25.0151  -33.9824   25.0550 H   0  0  0  0  0  0
  -22.6892  -31.3136   21.4207 H   0  0  0  0  0  0
  -23.3769  -35.9625   23.3305 H   0  0  0  0  0  0
  -24.3584  -36.8898   22.2045 H   0  0  0  0  0  0
  -23.7237  -37.6505   23.6631 H   0  0  0  0  0  0
  -26.0438  -31.6030   20.5970 H   0  0  0  0  0  0
  -26.8230  -30.8891   21.9792 H   0  0  0  0  0  0
  -28.0985  -29.0962   21.1507 H   0  0  0  0  0  0
  -25.9848  -25.9884   18.9948 H   0  0  0  0  0  0
  -23.9525  -27.3135   19.0426 H   0  0  0  0  0  0
  -23.7164  -30.6165   19.4123 H   0  0  0  0  0  0
  -22.7322  -29.2584   19.8703 H   0  0  0  0  0  0
  -25.1287  -36.1990   25.0832 H   0  0  0  0  0  0
  -20.9951  -28.3223   24.1451 H   0  0  0  0  0  0
  -20.5711  -26.2255   23.3590 H   0  0  0  0  0  0
  -21.6641  -26.7466   22.1191 H   0  0  0  0  0  0
  -19.6914  -25.6312   21.1225 H   0  0  0  0  0  0
  -19.6700  -27.3220   20.6766 H   0  0  0  0  0  0
  -17.4206  -26.6677   21.4016 H   0  0  0  0  0  0
  -18.0312  -26.0060   22.9013 H   0  0  0  0  0  0
  -19.7922  -30.7254   24.2294 H   0  0  0  0  0  0
  -17.5001  -31.6264   24.5152 H   0  0  0  0  0  0
  -15.5343  -30.2976   23.7652 H   0  0  0  0  0  0
  -15.8659  -28.0820   22.7046 H   0  0  0  0  0  0
  -24.5943  -30.7016   25.7790 H   0  0  0  0  0  0
  -24.8938  -32.2815   26.4948 H   0  0  0  0  0  0
  -25.8129  -30.8817   27.0210 H   0  0  0  0  0  0
  -26.2844  -29.6810   24.1148 H   0  0  0  0  0  0
  -27.4159  -29.7289   25.4478 H   0  0  0  0  0  0
  -27.8646  -30.4392   23.9151 H   0  0  0  0  0  0
  -27.2740  -33.3583   26.2096 H   0  0  0  0  0  0
  -28.3878  -32.6866   25.0273 H   0  0  0  0  0  0
  -28.0784  -31.8374   26.5338 H   0  0  0  0  0  0
  -28.2604  -38.0105   24.7541 H   0  0  0  0  0  0
  -28.1087  -36.2642   24.6262 H   0  0  0  0  0  0
  -27.2299  -37.1416   25.8865 H   0  0  0  0  0  0
  -20.9281  -29.8748   21.6960 H   0  0  0  0  0  0
  -26.0188  -38.2880   24.1436 H   0  0  0  0  0  0
  -32.0155  -23.7258   19.5304 H   0  0  0  0  0  0
  -30.9535  -17.5161   22.7354 H   0  0  0  0  0  0
  -29.2829  -18.0258   22.8966 H   0  0  0  0  0  0
  -30.0469  -15.3776   22.9324 H   0  0  0  0  0  0
  -28.4836  -15.8835   22.2916 H   0  0  0  0  0  0
  -29.0455  -16.7519   19.3425 H   0  0  0  0  0  0
  -30.7788  -16.7049   19.2231 H   0  0  0  0  0  0
  -29.1283  -18.6018   20.6454 H   0  0  0  0  0  0
  -34.7101  -21.2952   18.7225 H   0  0  0  0  0  0
  -34.8275  -22.3490   20.1374 H   0  0  0  0  0  0
  -34.2235  -22.9825   18.6023 H   0  0  0  0  0  0
  -30.2596  -24.8568   19.4563 H   0  0  0  0  0  0
  -30.0009  -24.8379   21.1933 H   0  0  0  0  0  0
  -27.5111  -24.9248   20.7490 H   0  0  0  0  0  0
  -27.8635  -24.9806   19.0229 H   0  0  0  0  0  0
  -28.5583  -22.6766   20.5850 H   0  0  0  0  0  0
  -32.0825  -18.2331   20.4778 H   0  0  0  0  0  0
  1 25  1  0  0  0
  1 30  2  0  0  0
  1 84  1  0  0  0
  2  3  1  0  0  0
  2 25  1  0  0  0
  2 87  1  0  0  0
  2 88  1  0  0  0
  3  4  1  0  0  0
  3 89  1  0  0  0
  3 90  1  0  0  0
  4  5  1  0  0  0
  4 91  1  0  0  0
  4 92  1  0  0  0
  5  6  1  0  0  0
  5 26  1  0  0  0
  5 93  1  0  0  0
  6 25  1  0  0  0
  6 94  1  0  0  0
  6 95  1  0  0  0
  7  8  2  0  0  0
  7 26  1  0  0  0
  7 29  1  0  0  0
  8  9  1  0  0  0
  8 22  1  0  0  0
  9 10  1  0  0  0
  9 27  2  0  0  0
 10 11  2  0  0  0
 10 15  1  0  0  0
 11 12  1  0  0  0
 11 96  1  0  0  0
 12 13  2  0  0  0
 12 97  1  0  0  0
 13 14  1  0  0  0
 13 31  1  0  0  0
 14 15  2  0  0  0
 14 98  1  0  0  0
 15 99  1  0  0  0
 16 17  2  0  0  0
 16 21  1  0  0  0
 16 31  1  0  0  0
 17 18  1  0  0  0
 17100  1  0  0  0
 18 19  2  0  0  0
 18101  1  0  0  0
 19 20  1  0  0  0
 19 24  1  0  0  0
 20 21  2  0  0  0
 20102  1  0  0  0
 21 23  1  0  0  0
 22 28  1  0  0  0
 22 32  2  0  0  0
 26 27  1  0  0  0
 28103  1  0  0  0
 28104  1  0  0  0
 29105  1  0  0  0
 29106  1  0  0  0
 33 34  1  0  0  0
 33 66  1  0  0  0
 33 70  2  0  0  0
 34 36  1  0  0  0
 34 59  1  0  0  0
 34107  1  0  0  0
 35 44  2  0  0  0
 35 45  1  0  0  0
 35 68  1  0  0  0
 36 56  1  0  0  0
 36108  1  0  0  0
 37 39  1  0  0  0
 37 47  1  0  0  0
 37 66  1  0  0  0
 37109  1  0  0  0
 38 43  2  0  0  0
 38 46  1  0  0  0
 38 47  1  0  0  0
 39 64  1  0  0  0
 39 67  2  0  0  0
 40 52  1  0  0  0
 40 53  2  0  0  0
 40 58  1  0  0  0
 41110  1  0  0  0
 41111  1  0  0  0
 41112  1  0  0  0
 41 48  1  0  0  0
 42 43  1  0  0  0
 42 66  1  0  0  0
 42113  1  0  0  0
 42114  1  0  0  0
 43 44  1  0  0  0
 44115  1  0  0  0
 45 46  2  0  0  0
 45116  1  0  0  0
 46117  1  0  0  0
 47118  1  0  0  0
 47119  1  0  0  0
 48 56  1  0  0  0
 48 65  1  0  0  0
 48120  1  0  0  0
 49 50  1  0  0  0
 49 53  1  0  0  0
 49 64  1  0  0  0
 49121  1  0  0  0
 50 51  1  0  0  0
 50122  1  0  0  0
 50123  1  0  0  0
 51 52  1  0  0  0
 51124  1  0  0  0
 51125  1  0  0  0
 52126  1  0  0  0
 52127  1  0  0  0
 53 54  1  0  0  0
 54 55  2  0  0  0
 54128  1  0  0  0
 55 57  1  0  0  0
 55129  1  0  0  0
 56 69  2  0  0  0
 57 58  2  0  0  0
 57130  1  0  0  0
 58131  1  0  0  0
 59 60  1  0  0  0
 59 61  1  0  0  0
 59 62  1  0  0  0
 60132  1  0  0  0
 60133  1  0  0  0
 60134  1  0  0  0
 61135  1  0  0  0
 61136  1  0  0  0
 61137  1  0  0  0
 62138  1  0  0  0
 62139  1  0  0  0
 62140  1  0  0  0
 63 65  1  0  0  0
 63141  1  0  0  0
 63142  1  0  0  0
 63143  1  0  0  0
 64144  1  0  0  0
 65145  1  0  0  0
 68 81  1  0  0  0
 71 72  2  0  0  0
 71 73  1  0  0  0
 71146  1  0  0  0
 72 79  1  0  0  0
 72 82  1  0  0  0
 73 83  2  0  0  0
 73 85  1  0  0  0
 74 82  2  0  0  0
 74 83  1  0  0  0
 74 86  1  0  0  0
 75 76  1  0  0  0
 75 78  1  0  0  0
 75147  1  0  0  0
 75148  1  0  0  0
 76 84  1  0  0  0
 76149  1  0  0  0
 76150  1  0  0  0
 77 78  1  0  0  0
 77 84  1  0  0  0
 77151  1  0  0  0
 77152  1  0  0  0
 78 86  1  0  0  0
 78153  1  0  0  0
 79154  1  0  0  0
 79155  1  0  0  0
 79156  1  0  0  0
 80 81  1  0  0  0
 80 85  1  0  0  0
 80157  1  0  0  0
 80158  1  0  0  0
 81159  1  0  0  0
 81160  1  0  0  0
 85161  1  0  0  0
 86162  1  0  0  0
M  ISO  4   1 100  68 101  81 101  84 100
M  END
> <chiral flag>
0

> <version>
0

> <s_m_source_file>
/data/baiqing/PycharmProjects/Reinvent-master-3.2/result/LINK_invent/BTK/process_docking_weight1_custom_sum_contain_oxygen_bond_distance_aromatic_linkinvent_7_9_3/rearranged_h_0187.sdf

> <i_m_source_file_index>
30

> <r_mmod_Potential_Energy-OPLS-2005>
-494.899597167969

> <r_mmod_Stretch_Energy-OPLS-2005>
34.5883140563965

> <r_mmod_Bend_Energy-OPLS-2005>
132.633743286133

> <r_mmod_Torsional_Energy-OPLS-2005>
322.094696044922

> <r_mmod_Improper_Torsional_Energy-OPLS-2005>
14.4170379638672

> <r_mmod_Van_der_Waal_Energy-OPLS-2005>
167.106826782227

> <r_mmod_Electrostatic_Energy-OPLS-2005>
-944.14013671875

> <r_mmod_Solvation_Energy-OPLS-2005>
-235.574905395508

> <b_mmod_Minimization_Converged-OPLS-2005>
0

> <r_mmod_RMS_Derivative-OPLS-2005>
2.34078192710876

$$$$
30
                    3D
 Structure written by MMmdl.
151160  0  0  1  0            999 V2000
  -30.5372  -14.9477   20.4307 C   0  0  0  0  0  0
  -30.4398  -12.5898   19.4953 C   0  0  0  0  0  0
  -29.5188  -12.5248   18.2552 C   0  0  0  0  0  0
  -28.0528  -12.3091   18.6756 C   0  0  0  0  0  0
  -27.6277  -13.2452   19.8366 C   0  0  2  0  0  0
  -28.6706  -13.2745   20.9734 C   0  0  0  0  0  0
  -25.2452  -13.8200   20.5714 C   0  0  0  0  0  0
  -24.1768  -13.0427   20.9234 C   0  0  0  0  0  0
  -24.6383  -11.6913   20.8763 C   0  0  0  0  0  0
  -23.9065  -10.4289   21.0417 C   0  0  0  0  0  0
  -24.3623   -9.4200   21.9186 C   0  0  0  0  0  0
  -23.6296   -8.2236   22.0746 C   0  0  0  0  0  0
  -22.4270   -8.0280   21.3545 C   0  0  0  0  0  0
  -21.9905   -9.0258   20.4654 C   0  0  0  0  0  0
  -22.7237  -10.2136   20.3067 C   0  0  0  0  0  0
  -21.6847   -6.0742   22.5286 C   0  0  0  0  0  0
  -21.4012   -6.5645   23.8219 C   0  0  0  0  0  0
  -21.3657   -5.6800   24.9184 C   0  0  0  0  0  0
  -21.6044   -4.3062   24.7236 C   0  0  0  0  0  0
  -21.8813   -3.8149   23.4354 C   0  0  0  0  0  0
  -21.9192   -4.6967   22.3409 C   0  0  0  0  0  0
  -22.7785  -13.5198   21.1881 C   0  0  0  0  0  0
  -22.1663   -4.2148   21.0991 F   0  0  0  0  0  0
  -21.5626   -3.4553   25.7752 F   0  0  0  0  0  0
  -29.9438  -13.6887   20.3717 N   0  0  0  0  0  0
  -26.2870  -12.9424   20.3238 N   0  0  0  0  0  0
  -25.9309  -11.6559   20.5739 N   0  0  0  0  0  0
  -22.0439  -12.8203   22.0447 N   0  0  0  0  0  0
  -25.4111  -15.1928   20.4116 N   0  0  0  0  0  0
  -31.7461  -15.0132   20.1845 O   0  0  0  0  0  0
  -21.6628   -6.8884   21.4246 O   0  0  0  0  0  0
  -22.3469  -14.5498   20.6710 O   0  0  0  0  0  0
  -24.6433  -31.8438   23.1864 C   0  0  0  0  0  0
  -25.9199  -32.4693   23.8265 C   0  0  1  0  0  0
  -27.2189  -27.1221   20.1697 C   0  0  0  0  0  0
  -25.5947  -33.8495   24.2187 N   0  0  0  0  0  0
  -23.4473  -30.4592   21.5325 C   0  0  2  0  0  0
  -24.8962  -28.8736   20.1186 C   0  0  0  0  0  0
  -22.7568  -29.4532   22.4873 C   0  0  0  0  0  0
  -18.0307  -28.1401   22.8485 C   0  0  0  0  0  0
  -24.1485  -36.7244   23.2642 C   0  0  0  0  0  0
  -26.0013  -30.7107   21.3882 C   0  0  0  0  0  0
  -26.0704  -29.3161   20.7398 C   0  0  0  0  0  0
  -27.2304  -28.4568   20.7464 C   0  0  0  0  0  0
  -26.0202  -26.7759   19.5097 C   0  0  0  0  0  0
  -24.8833  -27.6172   19.4893 C   0  0  0  0  0  0
  -23.6755  -29.7811   20.1543 C   0  0  0  0  0  0
  -25.4123  -36.3029   24.0314 C   0  0  1  0  0  0
  -20.5916  -28.3717   23.1246 C   0  0  2  0  0  0
  -20.6784  -26.9420   22.5414 C   0  0  0  0  0  0
  -19.5758  -26.6382   21.5219 C   0  0  0  0  0  0
  -18.1942  -26.7940   22.1631 C   0  0  0  0  0  0
  -19.1562  -28.8882   23.2855 C   0  0  0  0  0  0
  -18.9475  -30.1477   23.8881 C   0  0  0  0  0  0
  -17.6469  -30.6595   24.0560 C   0  0  0  0  0  0
  -25.9076  -34.9402   23.5063 C   0  0  0  0  0  0
  -16.5364  -29.9085   23.6332 C   0  0  0  0  0  0
  -16.7290  -28.6505   23.0355 C   0  0  0  0  0  0
  -26.4519  -31.6571   25.0712 C   0  0  0  0  0  0
  -25.3693  -31.3772   26.1405 C   0  0  0  0  0  0
  -27.0379  -30.2964   24.6299 C   0  0  0  0  0  0
  -27.6058  -32.4333   25.7492 C   0  0  0  0  0  0
  -27.5576  -37.1783   24.8468 C   0  0  0  0  0  0
  -21.4260  -29.3034   22.3616 N   0  0  0  0  0  0
  -26.4291  -37.3740   23.9403 N   0  0  0  0  0  0
  -24.7171  -31.0271   22.0910 N   0  0  0  0  0  0
  -23.4208  -28.8098   23.3041 O   0  0  0  0  0  0
  -28.3268  -26.2004   20.1499 O   0  0  0  0  0  0
  -26.5664  -34.8899   22.4644 O   0  0  0  0  0  0
  -23.5550  -32.1329   23.7073 O   0  0  0  0  0  0
  -29.0459  -22.6254   19.4752 C   0  0  0  0  0  0
  -28.1917  -22.7952   21.5619 C   0  0  0  0  0  0
  -28.7760  -21.8298   20.6488 C   0  0  0  0  0  0
  -28.2628  -24.7627   20.2450 C   0  0  0  0  0  0
  -27.6846  -18.8737   20.7378 C   0  0  0  0  0  0
  -28.0637  -19.7919   21.9009 C   0  0  0  0  0  0
  -29.1312  -18.9749   20.2738 C   0  0  2  0  0  0
  -30.1109  -17.6646   20.7124 C   0  0  0  0  0  0
  -28.8356  -23.9952   19.2923 N   0  0  0  0  0  0
  -27.9530  -24.1543   21.3964 N   0  0  0  0  0  0
  -29.1041  -20.3511   21.0312 N   0  0  0  0  0  0
  -29.7540  -16.1283   20.5684 N   0  0  0  0  0  0
  -31.4717  -12.7540   19.1810 H   0  0  0  0  0  0
  -30.4390  -11.6398   20.0318 H   0  0  0  0  0  0
  -29.8385  -11.7259   17.5848 H   0  0  0  0  0  0
  -29.6035  -13.4533   17.6881 H   0  0  0  0  0  0
  -27.9512  -11.2691   18.9881 H   0  0  0  0  0  0
  -27.3883  -12.4349   17.8199 H   0  0  0  0  0  0
  -27.5902  -14.2458   19.4049 H   0  0  0  0  0  0
  -28.7592  -12.2981   21.4521 H   0  0  0  0  0  0
  -28.3699  -13.9760   21.7529 H   0  0  0  0  0  0
  -25.2770   -9.5676   22.4756 H   0  0  0  0  0  0
  -24.0014   -7.4617   22.7445 H   0  0  0  0  0  0
  -21.0831   -8.8790   19.8967 H   0  0  0  0  0  0
  -22.3694  -10.9679   19.6182 H   0  0  0  0  0  0
  -21.1997   -7.6151   23.9733 H   0  0  0  0  0  0
  -21.1486   -6.0531   25.9091 H   0  0  0  0  0  0
  -22.0588   -2.7607   23.2859 H   0  0  0  0  0  0
  -22.4081  -11.9898   22.4874 H   0  0  0  0  0  0
  -21.1056  -13.1211   22.2652 H   0  0  0  0  0  0
  -24.6351  -15.8378   20.5152 H   0  0  0  0  0  0
  -26.2441  -15.6334   20.0449 H   0  0  0  0  0  0
  -26.7265  -32.5298   23.0994 H   0  0  0  0  0  0
  -25.0053  -33.9612   25.0309 H   0  0  0  0  0  0
  -22.7498  -31.2842   21.3741 H   0  0  0  0  0  0
  -23.3755  -35.9569   23.3305 H   0  0  0  0  0  0
  -24.3571  -36.8877   22.2058 H   0  0  0  0  0  0
  -23.7223  -37.6433   23.6680 H   0  0  0  0  0  0
  -26.1559  -31.4600   20.6107 H   0  0  0  0  0  0
  -26.8728  -30.7672   22.0294 H   0  0  0  0  0  0
  -28.1352  -28.8001   21.2283 H   0  0  0  0  0  0
  -25.9482  -25.8188   19.0132 H   0  0  0  0  0  0
  -23.9882  -27.2772   18.9867 H   0  0  0  0  0  0
  -23.8190  -30.5518   19.3962 H   0  0  0  0  0  0
  -22.7898  -29.2246   19.8423 H   0  0  0  0  0  0
  -25.1307  -36.1868   25.0806 H   0  0  0  0  0  0
  -21.0011  -28.3313   24.1368 H   0  0  0  0  0  0
  -20.5669  -26.2335   23.3635 H   0  0  0  0  0  0
  -21.6649  -26.7421   22.1219 H   0  0  0  0  0  0
  -19.6910  -25.6284   21.1266 H   0  0  0  0  0  0
  -19.6693  -27.3183   20.6739 H   0  0  0  0  0  0
  -17.4207  -26.6693   21.4035 H   0  0  0  0  0  0
  -18.0335  -26.0089   22.9032 H   0  0  0  0  0  0
  -19.7947  -30.7301   24.2251 H   0  0  0  0  0  0
  -17.5014  -31.6273   24.5162 H   0  0  0  0  0  0
  -15.5359  -30.2976   23.7659 H   0  0  0  0  0  0
  -15.8696  -28.0808   22.7081 H   0  0  0  0  0  0
  -24.5871  -30.7130   25.7715 H   0  0  0  0  0  0
  -24.8885  -32.2958   26.4778 H   0  0  0  0  0  0
  -25.7963  -30.8970   27.0219 H   0  0  0  0  0  0
  -26.2998  -29.6684   24.1297 H   0  0  0  0  0  0
  -27.3975  -29.7269   25.4879 H   0  0  0  0  0  0
  -27.8910  -30.4194   23.9624 H   0  0  0  0  0  0
  -27.2675  -33.3664   26.2009 H   0  0  0  0  0  0
  -28.3900  -32.6848   25.0337 H   0  0  0  0  0  0
  -28.0688  -31.8491   26.5458 H   0  0  0  0  0  0
  -28.2590  -38.0081   24.7509 H   0  0  0  0  0  0
  -28.1075  -36.2609   24.6309 H   0  0  0  0  0  0
  -27.2293  -37.1445   25.8871 H   0  0  0  0  0  0
  -20.9493  -29.8732   21.6769 H   0  0  0  0  0  0
  -26.0159  -38.2808   24.1413 H   0  0  0  0  0  0
  -29.5255  -22.1414   18.6375 H   0  0  0  0  0  0
  -27.9295  -22.4624   22.5551 H   0  0  0  0  0  0
  -26.9687  -19.3142   20.0419 H   0  0  0  0  0  0
  -27.3773  -17.8742   21.0470 H   0  0  0  0  0  0
  -28.4744  -19.2492   22.7553 H   0  0  0  0  0  0
  -27.2373  -20.4368   22.2003 H   0  0  0  0  0  0
  -29.1605  -19.1415   19.1960 H   0  0  0  0  0  0
  -30.3549  -17.7777   21.7690 H   0  0  0  0  0  0
  -31.0723  -17.7928   20.2130 H   0  0  0  0  0  0
  -28.7715  -15.9341   20.6823 H   0  0  0  0  0  0
  1 25  1  0  0  0
  1 30  2  0  0  0
  1 82  1  0  0  0
  2  3  1  0  0  0
  2 25  1  0  0  0
  2 83  1  0  0  0
  2 84  1  0  0  0
  3  4  1  0  0  0
  3 85  1  0  0  0
  3 86  1  0  0  0
  4  5  1  0  0  0
  4 87  1  0  0  0
  4 88  1  0  0  0
  5  6  1  0  0  0
  5 26  1  0  0  0
  5 89  1  0  0  0
  6 25  1  0  0  0
  6 90  1  0  0  0
  6 91  1  0  0  0
  7  8  2  0  0  0
  7 26  1  0  0  0
  7 29  1  0  0  0
  8  9  1  0  0  0
  8 22  1  0  0  0
  9 10  1  0  0  0
  9 27  2  0  0  0
 10 11  2  0  0  0
 10 15  1  0  0  0
 11 12  1  0  0  0
 11 92  1  0  0  0
 12 13  2  0  0  0
 12 93  1  0  0  0
 13 14  1  0  0  0
 13 31  1  0  0  0
 14 15  2  0  0  0
 14 94  1  0  0  0
 15 95  1  0  0  0
 16 17  2  0  0  0
 16 21  1  0  0  0
 16 31  1  0  0  0
 17 18  1  0  0  0
 17 96  1  0  0  0
 18 19  2  0  0  0
 18 97  1  0  0  0
 19 20  1  0  0  0
 19 24  1  0  0  0
 20 21  2  0  0  0
 20 98  1  0  0  0
 21 23  1  0  0  0
 22 28  1  0  0  0
 22 32  2  0  0  0
 26 27  1  0  0  0
 28 99  1  0  0  0
 28100  1  0  0  0
 29101  1  0  0  0
 29102  1  0  0  0
 33 34  1  0  0  0
 33 66  1  0  0  0
 33 70  2  0  0  0
 34 36  1  0  0  0
 34 59  1  0  0  0
 34103  1  0  0  0
 35 44  2  0  0  0
 35 45  1  0  0  0
 35 68  1  0  0  0
 36 56  1  0  0  0
 36104  1  0  0  0
 37 39  1  0  0  0
 37 47  1  0  0  0
 37 66  1  0  0  0
 37105  1  0  0  0
 38 43  2  0  0  0
 38 46  1  0  0  0
 38 47  1  0  0  0
 39 64  1  0  0  0
 39 67  2  0  0  0
 40 52  1  0  0  0
 40 53  2  0  0  0
 40 58  1  0  0  0
 41106  1  0  0  0
 41107  1  0  0  0
 41108  1  0  0  0
 41 48  1  0  0  0
 42 43  1  0  0  0
 42 66  1  0  0  0
 42109  1  0  0  0
 42110  1  0  0  0
 43 44  1  0  0  0
 44111  1  0  0  0
 45 46  2  0  0  0
 45112  1  0  0  0
 46113  1  0  0  0
 47114  1  0  0  0
 47115  1  0  0  0
 48 56  1  0  0  0
 48 65  1  0  0  0
 48116  1  0  0  0
 49 50  1  0  0  0
 49 53  1  0  0  0
 49 64  1  0  0  0
 49117  1  0  0  0
 50 51  1  0  0  0
 50118  1  0  0  0
 50119  1  0  0  0
 51 52  1  0  0  0
 51120  1  0  0  0
 51121  1  0  0  0
 52122  1  0  0  0
 52123  1  0  0  0
 53 54  1  0  0  0
 54 55  2  0  0  0
 54124  1  0  0  0
 55 57  1  0  0  0
 55125  1  0  0  0
 56 69  2  0  0  0
 57 58  2  0  0  0
 57126  1  0  0  0
 58127  1  0  0  0
 59 60  1  0  0  0
 59 61  1  0  0  0
 59 62  1  0  0  0
 60128  1  0  0  0
 60129  1  0  0  0
 60130  1  0  0  0
 61131  1  0  0  0
 61132  1  0  0  0
 61133  1  0  0  0
 62134  1  0  0  0
 62135  1  0  0  0
 62136  1  0  0  0
 63 65  1  0  0  0
 63137  1  0  0  0
 63138  1  0  0  0
 63139  1  0  0  0
 64140  1  0  0  0
 65141  1  0  0  0
 68 74  1  0  0  0
 71 73  2  0  0  0
 71 79  1  0  0  0
 71142  1  0  0  0
 72 73  1  0  0  0
 72 80  2  0  0  0
 72143  1  0  0  0
 73 81  1  0  0  0
 74 79  2  0  0  0
 74 80  1  0  0  0
 75 76  1  0  0  0
 75 77  1  0  0  0
 75144  1  0  0  0
 75145  1  0  0  0
 76 81  1  0  0  0
 76146  1  0  0  0
 76147  1  0  0  0
 77 78  1  0  0  0
 77 81  1  0  0  0
 77148  1  0  0  0
 78 82  1  0  0  0
 78149  1  0  0  0
 78150  1  0  0  0
 82151  1  0  0  0
M  ISO  4   1 100  68 101  74 101  82 100
M  END
> <chiral flag>
0

> <version>
0

> <s_m_source_file>
/data/baiqing/PycharmProjects/Reinvent-master-3.2/result/LINK_invent/BTK/process_docking_weight1_custom_sum_contain_oxygen_bond_distance_aromatic_linkinvent_7_9_3/rearranged_h_0187.sdf

> <i_m_source_file_index>
31

> <r_mmod_Potential_Energy-OPLS-2005>
191.471817016602

> <r_mmod_Stretch_Energy-OPLS-2005>
241.924835205078

> <r_mmod_Bend_Energy-OPLS-2005>
311.794708251953

> <r_mmod_Torsional_Energy-OPLS-2005>
271.143798828125

> <r_mmod_Improper_Torsional_Energy-OPLS-2005>
14.9562921524048

> <r_mmod_Van_der_Waal_Energy-OPLS-2005>
138.344879150391

> <r_mmod_Electrostatic_Energy-OPLS-2005>
-718.983703613281

> <r_mmod_Solvation_Energy-OPLS-2005>
-255.847457885742

> <b_mmod_Minimization_Converged-OPLS-2005>
0

> <r_mmod_RMS_Derivative-OPLS-2005>
1.14760780334473

$$$$
31
                    3D
 Structure written by MMmdl.
158167  0  0  1  0            999 V2000
  -30.6985  -14.5381   20.6281 C   0  0  0  0  0  0
  -30.4251  -12.3687   19.4501 C   0  0  0  0  0  0
  -29.5014  -12.5246   18.2236 C   0  0  0  0  0  0
  -28.0258  -12.3613   18.6381 C   0  0  0  0  0  0
  -27.6574  -13.2177   19.8804 C   0  0  2  0  0  0
  -28.6938  -13.0485   21.0132 C   0  0  0  0  0  0
  -25.2580  -13.8186   20.5721 C   0  0  0  0  0  0
  -24.1841  -13.0427   20.9187 C   0  0  0  0  0  0
  -24.6402  -11.6908   20.8714 C   0  0  0  0  0  0
  -23.9073  -10.4302   21.0381 C   0  0  0  0  0  0
  -24.3641   -9.4234   21.9164 C   0  0  0  0  0  0
  -23.6322   -8.2269   22.0739 C   0  0  0  0  0  0
  -22.4292   -8.0300   21.3541 C   0  0  0  0  0  0
  -21.9919   -9.0266   20.4635 C   0  0  0  0  0  0
  -22.7244  -10.2145   20.3033 C   0  0  0  0  0  0
  -21.6854   -6.0771   22.5291 C   0  0  0  0  0  0
  -21.4024   -6.5659   23.8233 C   0  0  0  0  0  0
  -21.3637   -5.6798   24.9183 C   0  0  0  0  0  0
  -21.6059   -4.3071   24.7216 C   0  0  0  0  0  0
  -21.8807   -3.8168   23.4334 C   0  0  0  0  0  0
  -21.9204   -4.6999   22.3406 C   0  0  0  0  0  0
  -22.7880  -13.5238   21.1855 C   0  0  0  0  0  0
  -22.1648   -4.2192   21.0972 F   0  0  0  0  0  0
  -21.5633   -3.4536   25.7708 F   0  0  0  0  0  0
  -30.0201  -13.3641   20.4604 N   0  0  0  0  0  0
  -26.3007  -12.9377   20.3392 N   0  0  0  0  0  0
  -25.9342  -11.6516   20.5769 N   0  0  0  0  0  0
  -22.0564  -12.8194   22.0405 N   0  0  0  0  0  0
  -25.4314  -15.1912   20.4192 N   0  0  0  0  0  0
  -31.7960  -14.7378   20.0964 O   0  0  0  0  0  0
  -21.6656   -6.8903   21.4242 O   0  0  0  0  0  0
  -22.3582  -14.5583   20.6771 O   0  0  0  0  0  0
  -24.6154  -31.8640   23.2079 C   0  0  0  0  0  0
  -25.9035  -32.4801   23.8382 C   0  0  1  0  0  0
  -27.2417  -27.3988   20.1093 C   0  0  0  0  0  0
  -25.5876  -33.8602   24.2305 N   0  0  0  0  0  0
  -23.4073  -30.4864   21.5466 C   0  0  2  0  0  0
  -24.8555  -28.9479   20.1121 C   0  0  0  0  0  0
  -22.7424  -29.4638   22.4964 C   0  0  0  0  0  0
  -18.0261  -28.1373   22.8504 C   0  0  0  0  0  0
  -24.1472  -36.7314   23.2639 C   0  0  0  0  0  0
  -25.9356  -30.8229   21.3633 C   0  0  0  0  0  0
  -26.0142  -29.4525   20.7134 C   0  0  0  0  0  0
  -27.2038  -28.6840   20.7115 C   0  0  0  0  0  0
  -26.0583  -26.9136   19.5056 C   0  0  0  0  0  0
  -24.8756  -27.6791   19.5045 C   0  0  0  0  0  0
  -23.6170  -29.8150   20.1619 C   0  0  0  0  0  0
  -25.4097  -36.3112   24.0338 C   0  0  1  0  0  0
  -20.5858  -28.3660   23.1319 C   0  0  2  0  0  0
  -20.6743  -26.9388   22.5430 C   0  0  0  0  0  0
  -19.5715  -26.6384   21.5223 C   0  0  0  0  0  0
  -18.1900  -26.7920   22.1635 C   0  0  0  0  0  0
  -19.1512  -28.8831   23.2919 C   0  0  0  0  0  0
  -18.9439  -30.1431   23.8940 C   0  0  0  0  0  0
  -17.6443  -30.6587   24.0571 C   0  0  0  0  0  0
  -25.9036  -34.9473   23.5129 C   0  0  0  0  0  0
  -16.5338  -29.9099   23.6310 C   0  0  0  0  0  0
  -16.7249  -28.6506   23.0352 C   0  0  0  0  0  0
  -26.4463  -31.6592   25.0720 C   0  0  0  0  0  0
  -25.3733  -31.3689   26.1471 C   0  0  0  0  0  0
  -27.0281  -30.3034   24.6096 C   0  0  0  0  0  0
  -27.6045  -32.4311   25.7471 C   0  0  0  0  0  0
  -27.5586  -37.1791   24.8451 C   0  0  0  0  0  0
  -21.4142  -29.3041   22.3721 N   0  0  0  0  0  0
  -26.4276  -37.3812   23.9428 N   0  0  0  0  0  0
  -24.6714  -31.0725   22.0972 N   0  0  0  0  0  0
  -23.4172  -28.8172   23.3018 O   0  0  0  0  0  0
  -28.4173  -26.6629   20.1661 O   0  0  0  0  0  0
  -26.5628  -34.8930   22.4709 O   0  0  0  0  0  0
  -23.5344  -32.1405   23.7440 O   0  0  0  0  0  0
  -27.5711  -22.0106   19.7376 C   0  0  0  0  0  0
  -29.6837  -23.5036   20.5026 C   0  0  0  0  0  0
  -28.7210  -21.3959   20.3039 C   0  0  0  0  0  0
  -28.5728  -24.1091   19.8536 C   0  0  0  0  0  0
  -30.1944  -17.3215   22.9891 C   0  0  0  0  0  0
  -30.6468  -15.8849   22.6708 C   0  0  0  0  0  0
  -29.5672  -16.7857   20.7556 C   0  0  0  0  0  0
  -30.0880  -17.9727   21.6147 C   0  0  1  0  0  0
  -28.9022  -19.8572   20.3120 C   0  0  0  0  0  0
  -28.6522  -25.5466   19.2777 C   0  0  0  0  0  0
  -29.7632  -22.1586   20.7303 N   0  0  0  0  0  0
  -27.4960  -23.3525   19.5089 N   0  0  0  0  0  0
  -30.0896  -15.5230   21.3559 N   0  0  0  0  0  0
  -29.3333  -19.2788   21.6111 N   0  3  0  0  0  0
  -31.4720  -12.4791   19.1568 H   0  0  0  0  0  0
  -30.3366  -11.3665   19.8702 H   0  0  0  0  0  0
  -29.7592  -11.7879   17.4613 H   0  0  0  0  0  0
  -29.6516  -13.5041   17.7685 H   0  0  0  0  0  0
  -27.8598  -11.3057   18.8569 H   0  0  0  0  0  0
  -27.3702  -12.6086   17.8006 H   0  0  0  0  0  0
  -27.6866  -14.2605   19.5634 H   0  0  0  0  0  0
  -28.6834  -12.0269   21.3960 H   0  0  0  0  0  0
  -28.4321  -13.6835   21.8626 H   0  0  0  0  0  0
  -25.2792   -9.5728   22.4730 H   0  0  0  0  0  0
  -24.0049   -7.4660   22.7438 H   0  0  0  0  0  0
  -21.0859   -8.8771   19.8940 H   0  0  0  0  0  0
  -22.3698  -10.9681   19.6142 H   0  0  0  0  0  0
  -21.2003   -7.6165   23.9737 H   0  0  0  0  0  0
  -21.1462   -6.0533   25.9082 H   0  0  0  0  0  0
  -22.0608   -2.7634   23.2825 H   0  0  0  0  0  0
  -22.4185  -11.9813   22.4712 H   0  0  0  0  0  0
  -21.1201  -13.1222   22.2666 H   0  0  0  0  0  0
  -24.6719  -15.8523   20.5399 H   0  0  0  0  0  0
  -26.2928  -15.6272   20.1132 H   0  0  0  0  0  0
  -26.7104  -32.5503   23.1148 H   0  0  0  0  0  0
  -24.9961  -33.9765   25.0407 H   0  0  0  0  0  0
  -22.6994  -31.3050   21.4037 H   0  0  0  0  0  0
  -23.3754  -35.9624   23.3261 H   0  0  0  0  0  0
  -24.3579  -36.8977   22.2066 H   0  0  0  0  0  0
  -23.7182  -37.6486   23.6681 H   0  0  0  0  0  0
  -26.0463  -31.5864   20.5908 H   0  0  0  0  0  0
  -26.8241  -30.8821   21.9796 H   0  0  0  0  0  0
  -28.0975  -29.0719   21.1827 H   0  0  0  0  0  0
  -26.0234  -25.9322   19.0551 H   0  0  0  0  0  0
  -23.9840  -27.2836   19.0395 H   0  0  0  0  0  0
  -23.7221  -30.5874   19.3990 H   0  0  0  0  0  0
  -22.7426  -29.2325   19.8677 H   0  0  0  0  0  0
  -25.1269  -36.1975   25.0832 H   0  0  0  0  0  0
  -20.9956  -28.3219   24.1431 H   0  0  0  0  0  0
  -20.5599  -26.2281   23.3632 H   0  0  0  0  0  0
  -21.6620  -26.7406   22.1233 H   0  0  0  0  0  0
  -19.6879  -25.6298   21.1233 H   0  0  0  0  0  0
  -19.6658  -27.3215   20.6763 H   0  0  0  0  0  0
  -17.4174  -26.6673   21.4037 H   0  0  0  0  0  0
  -18.0305  -26.0055   22.9012 H   0  0  0  0  0  0
  -19.7919  -30.7220   24.2358 H   0  0  0  0  0  0
  -17.5002  -31.6270   24.5153 H   0  0  0  0  0  0
  -15.5340  -30.3020   23.7602 H   0  0  0  0  0  0
  -15.8646  -28.0828   22.7066 H   0  0  0  0  0  0
  -24.5893  -30.7055   25.7797 H   0  0  0  0  0  0
  -24.8942  -32.2833   26.4977 H   0  0  0  0  0  0
  -25.8086  -30.8806   27.0200 H   0  0  0  0  0  0
  -26.2815  -29.6803   24.1152 H   0  0  0  0  0  0
  -27.4041  -29.7259   25.4550 H   0  0  0  0  0  0
  -27.8658  -30.4337   23.9242 H   0  0  0  0  0  0
  -27.2669  -33.3588   26.2106 H   0  0  0  0  0  0
  -28.3828  -32.6911   25.0282 H   0  0  0  0  0  0
  -28.0754  -31.8403   26.5340 H   0  0  0  0  0  0
  -28.2558  -38.0138   24.7598 H   0  0  0  0  0  0
  -28.1128  -36.2681   24.6143 H   0  0  0  0  0  0
  -27.2326  -37.1280   25.8854 H   0  0  0  0  0  0
  -20.9282  -29.8800   21.6992 H   0  0  0  0  0  0
  -26.0159  -38.2866   24.1514 H   0  0  0  0  0  0
  -26.7339  -21.4199   19.3925 H   0  0  0  0  0  0
  -30.5569  -24.0882   20.7546 H   0  0  0  0  0  0
  -30.8879  -17.8403   23.6544 H   0  0  0  0  0  0
  -29.2200  -17.2995   23.4818 H   0  0  0  0  0  0
  -30.3298  -15.1789   23.4398 H   0  0  0  0  0  0
  -31.7390  -15.8530   22.6398 H   0  0  0  0  0  0
  -29.8998  -16.9024   19.7218 H   0  0  0  0  0  0
  -28.4781  -16.7469   20.7480 H   0  0  0  0  0  0
  -31.1007  -18.2025   21.2775 H   0  0  0  0  0  0
  -29.6404  -19.6149   19.5479 H   0  0  0  0  0  0
  -27.9730  -19.3737   20.0044 H   0  0  0  0  0  0
  -28.0738  -25.6190   18.3571 H   0  0  0  0  0  0
  -29.6815  -25.6731   18.9391 H   0  0  0  0  0  0
  -29.9387  -19.9777   22.0145 H   0  0  0  0  0  0
  -28.5272  -19.2191   22.2104 H   0  0  0  0  0  0
  1 25  1  0  0  0
  1 30  2  0  0  0
  1 83  1  0  0  0
  2  3  1  0  0  0
  2 25  1  0  0  0
  2 85  1  0  0  0
  2 86  1  0  0  0
  3  4  1  0  0  0
  3 87  1  0  0  0
  3 88  1  0  0  0
  4  5  1  0  0  0
  4 89  1  0  0  0
  4 90  1  0  0  0
  5  6  1  0  0  0
  5 26  1  0  0  0
  5 91  1  0  0  0
  6 25  1  0  0  0
  6 92  1  0  0  0
  6 93  1  0  0  0
  7  8  2  0  0  0
  7 26  1  0  0  0
  7 29  1  0  0  0
  8  9  1  0  0  0
  8 22  1  0  0  0
  9 10  1  0  0  0
  9 27  2  0  0  0
 10 11  2  0  0  0
 10 15  1  0  0  0
 11 12  1  0  0  0
 11 94  1  0  0  0
 12 13  2  0  0  0
 12 95  1  0  0  0
 13 14  1  0  0  0
 13 31  1  0  0  0
 14 15  2  0  0  0
 14 96  1  0  0  0
 15 97  1  0  0  0
 16 17  2  0  0  0
 16 21  1  0  0  0
 16 31  1  0  0  0
 17 18  1  0  0  0
 17 98  1  0  0  0
 18 19  2  0  0  0
 18 99  1  0  0  0
 19 20  1  0  0  0
 19 24  1  0  0  0
 20 21  2  0  0  0
 20100  1  0  0  0
 21 23  1  0  0  0
 22 28  1  0  0  0
 22 32  2  0  0  0
 26 27  1  0  0  0
 28101  1  0  0  0
 28102  1  0  0  0
 29103  1  0  0  0
 29104  1  0  0  0
 33 34  1  0  0  0
 33 66  1  0  0  0
 33 70  2  0  0  0
 34 36  1  0  0  0
 34 59  1  0  0  0
 34105  1  0  0  0
 35 44  2  0  0  0
 35 45  1  0  0  0
 35 68  1  0  0  0
 36 56  1  0  0  0
 36106  1  0  0  0
 37 39  1  0  0  0
 37 47  1  0  0  0
 37 66  1  0  0  0
 37107  1  0  0  0
 38 43  2  0  0  0
 38 46  1  0  0  0
 38 47  1  0  0  0
 39 64  1  0  0  0
 39 67  2  0  0  0
 40 52  1  0  0  0
 40 53  2  0  0  0
 40 58  1  0  0  0
 41108  1  0  0  0
 41109  1  0  0  0
 41110  1  0  0  0
 41 48  1  0  0  0
 42 43  1  0  0  0
 42 66  1  0  0  0
 42111  1  0  0  0
 42112  1  0  0  0
 43 44  1  0  0  0
 44113  1  0  0  0
 45 46  2  0  0  0
 45114  1  0  0  0
 46115  1  0  0  0
 47116  1  0  0  0
 47117  1  0  0  0
 48 56  1  0  0  0
 48 65  1  0  0  0
 48118  1  0  0  0
 49 50  1  0  0  0
 49 53  1  0  0  0
 49 64  1  0  0  0
 49119  1  0  0  0
 50 51  1  0  0  0
 50120  1  0  0  0
 50121  1  0  0  0
 51 52  1  0  0  0
 51122  1  0  0  0
 51123  1  0  0  0
 52124  1  0  0  0
 52125  1  0  0  0
 53 54  1  0  0  0
 54 55  2  0  0  0
 54126  1  0  0  0
 55 57  1  0  0  0
 55127  1  0  0  0
 56 69  2  0  0  0
 57 58  2  0  0  0
 57128  1  0  0  0
 58129  1  0  0  0
 59 60  1  0  0  0
 59 61  1  0  0  0
 59 62  1  0  0  0
 60130  1  0  0  0
 60131  1  0  0  0
 60132  1  0  0  0
 61133  1  0  0  0
 61134  1  0  0  0
 61135  1  0  0  0
 62136  1  0  0  0
 62137  1  0  0  0
 62138  1  0  0  0
 63 65  1  0  0  0
 63139  1  0  0  0
 63140  1  0  0  0
 63141  1  0  0  0
 64142  1  0  0  0
 65143  1  0  0  0
 68 80  1  0  0  0
 71 73  2  0  0  0
 71 82  1  0  0  0
 71144  1  0  0  0
 72 74  1  0  0  0
 72 81  2  0  0  0
 72145  1  0  0  0
 73 79  1  0  0  0
 73 81  1  0  0  0
 74 80  1  0  0  0
 74 82  2  0  0  0
 75 76  1  0  0  0
 75 78  1  0  0  0
 75146  1  0  0  0
 75147  1  0  0  0
 76 83  1  0  0  0
 76148  1  0  0  0
 76149  1  0  0  0
 77 78  1  0  0  0
 77 83  1  0  0  0
 77150  1  0  0  0
 77151  1  0  0  0
 78 84  1  0  0  0
 78152  1  0  0  0
 79 84  1  0  0  0
 79153  1  0  0  0
 79154  1  0  0  0
 80155  1  0  0  0
 80156  1  0  0  0
 84157  1  0  0  0
 84158  1  0  0  0
M  CHG  1  84   1
M  ISO  4   1 100  68 101  80 101  83 100
M  END
> <chiral flag>
0

> <version>
0

> <s_m_source_file>
/data/baiqing/PycharmProjects/Reinvent-master-3.2/result/LINK_invent/BTK/process_docking_weight1_custom_sum_contain_oxygen_bond_distance_aromatic_linkinvent_7_9_3/rearranged_h_0187.sdf

> <i_m_source_file_index>
32

> <r_mmod_Potential_Energy-OPLS-2005>
42.7554397583008

> <r_mmod_Stretch_Energy-OPLS-2005>
53.5807037353516

> <r_mmod_Bend_Energy-OPLS-2005>
147.024230957031

> <r_mmod_Torsional_Energy-OPLS-2005>
347.741241455078

> <r_mmod_Improper_Torsional_Energy-OPLS-2005>
7.49603080749512

> <r_mmod_Van_der_Waal_Energy-OPLS-2005>
142.537048339844

> <r_mmod_Electrostatic_Energy-OPLS-2005>
-200.313552856445

> <r_mmod_Solvation_Energy-OPLS-2005>
-476.608032226562

> <b_mmod_Minimization_Converged-OPLS-2005>
0

> <r_mmod_RMS_Derivative-OPLS-2005>
3.56347942352295

$$$$
32
                    3D
 Structure written by MMmdl.
161170  0  0  1  0            999 V2000
  -30.0743  -15.7725   20.6661 C   0  0  0  0  0  0
  -30.3855  -13.2092   19.7133 C   0  0  0  0  0  0
  -29.5851  -12.7647   18.4397 C   0  0  0  0  0  0
  -28.1540  -12.3515   18.8047 C   0  0  0  0  0  0
  -27.5828  -13.3177   19.8633 C   0  0  2  0  0  0
  -28.5254  -13.6037   21.0542 C   0  0  0  0  0  0
  -25.2138  -13.8279   20.5746 C   0  0  0  0  0  0
  -24.1566  -13.0401   20.9242 C   0  0  0  0  0  0
  -24.6311  -11.6924   20.8733 C   0  0  0  0  0  0
  -23.9054  -10.4269   21.0392 C   0  0  0  0  0  0
  -24.3619   -9.4195   21.9168 C   0  0  0  0  0  0
  -23.6299   -8.2229   22.0729 C   0  0  0  0  0  0
  -22.4280   -8.0261   21.3520 C   0  0  0  0  0  0
  -21.9899   -9.0236   20.4635 C   0  0  0  0  0  0
  -22.7222  -10.2115   20.3046 C   0  0  0  0  0  0
  -21.6851   -6.0725   22.5283 C   0  0  0  0  0  0
  -21.4015   -6.5630   23.8218 C   0  0  0  0  0  0
  -21.3657   -5.6781   24.9172 C   0  0  0  0  0  0
  -21.6048   -4.3045   24.7226 C   0  0  0  0  0  0
  -21.8824   -3.8136   23.4345 C   0  0  0  0  0  0
  -21.9195   -4.6954   22.3401 C   0  0  0  0  0  0
  -22.7610  -13.5140   21.1923 C   0  0  0  0  0  0
  -22.1664   -4.2141   21.0985 F   0  0  0  0  0  0
  -21.5626   -3.4537   25.7741 F   0  0  0  0  0  0
  -29.6818  -14.3447   20.5186 N   0  0  0  0  0  0
  -26.2561  -12.9599   20.3199 N   0  0  0  0  0  0
  -25.9231  -11.6671   20.5640 N   0  0  0  0  0  0
  -22.0312  -12.8121   22.0507 N   0  0  0  0  0  0
  -25.3765  -15.2029   20.4282 N   0  0  0  0  0  0
  -31.2781  -15.7899   20.3075 O   0  0  0  0  0  0
  -21.6631   -6.8862   21.4233 O   0  0  0  0  0  0
  -22.3316  -14.5452   20.6772 O   0  0  0  0  0  0
  -24.7441  -31.5761   23.4059 C   0  0  0  0  0  0
  -25.9589  -32.3889   23.9194 C   0  0  1  0  0  0
  -27.4243  -27.2556   19.4189 C   0  0  0  0  0  0
  -25.5759  -33.7936   24.2206 N   0  0  0  0  0  0
  -23.4298  -29.8897   21.9056 C   0  0  2  0  0  0
  -25.2278  -28.7317   19.4379 C   0  0  0  0  0  0
  -22.6150  -29.1570   22.8198 C   0  0  0  0  0  0
  -17.9550  -28.1201   22.8458 C   0  0  0  0  0  0
  -24.1456  -36.6923   23.2593 C   0  0  0  0  0  0
  -26.5641  -30.0458   21.9780 C   0  0  0  0  0  0
  -26.6500  -29.1829   20.2737 C   0  0  0  0  0  0
  -27.7247  -28.3691   20.1877 C   0  0  0  0  0  0
  -26.5270  -27.2747   18.3405 C   0  0  0  0  0  0
  -25.2674  -27.8103   18.4782 C   0  0  0  0  0  0
  -23.4960  -29.0530   20.1615 C   0  0  0  0  0  0
  -25.4072  -36.2614   24.0255 C   0  0  1  0  0  0
  -20.4653  -28.2456   23.2294 C   0  0  2  0  0  0
  -20.5713  -26.8486   22.5801 C   0  0  0  0  0  0
  -19.5024  -26.6170   21.5174 C   0  0  0  0  0  0
  -18.1159  -26.7815   22.1449 C   0  0  0  0  0  0
  -19.0771  -28.8357   23.3199 C   0  0  0  0  0  0
  -18.9074  -30.1101   23.9080 C   0  0  0  0  0  0
  -17.6193  -30.6548   24.0549 C   0  0  0  0  0  0
  -25.8997  -34.8888   23.5081 C   0  0  0  0  0  0
  -16.5010  -29.9227   23.6194 C   0  0  0  0  0  0
  -16.6691  -28.6625   23.0194 C   0  0  0  0  0  0
  -26.5098  -31.6783   25.2071 C   0  0  0  0  0  0
  -25.4134  -31.4256   26.2672 C   0  0  0  0  0  0
  -27.1660  -30.3109   24.9233 C   0  0  0  0  0  0
  -27.6279  -32.5318   25.8303 C   0  0  0  0  0  0
  -27.5489  -37.1587   24.8468 C   0  0  0  0  0  0
  -21.3290  -29.1431   22.5382 N   0  0  0  0  0  0
  -26.4213  -37.3383   23.9365 N   0  0  0  0  0  0
  -24.9359  -30.3826   22.7279 N   0  0  0  0  0  0
  -23.1782  -28.5841   23.7413 O   0  0  0  0  0  0
  -27.5359  -26.0194   19.9316 O   0  0  0  0  0  0
  -26.5737  -34.8412   22.4756 O   0  0  0  0  0  0
  -23.6162  -32.0203   23.6829 O   0  0  0  0  0  0
  -26.3062  -26.9591   22.3272 C   0  0  0  0  0  0
  -26.4002  -25.2506   22.2993 C   0  0  0  0  0  0
  -25.1751  -28.0851   21.7072 C   0  0  0  0  0  0
  -24.9719  -25.6384   20.8276 C   0  0  0  0  0  0
  -27.4321  -22.5825   23.5275 C   0  0  0  0  0  0
  -28.2577  -21.1674   23.2602 C   0  0  0  0  0  0
  -27.4977  -23.6254   22.3269 C   0  0  1  0  0  0
  -28.0957  -20.5968   21.7834 C   0  0  2  0  0  0
  -24.9999  -30.7603   20.4671 C   0  0  0  0  0  0
  -26.1887  -25.2913   19.8057 C   0  0  0  0  0  0
  -29.0788  -18.9553   21.0368 C   0  0  0  0  0  0
  -25.2161  -24.8461   21.8420 N   0  0  0  0  0  0
  -24.5051  -26.9143   21.1768 N   0  0  0  0  0  0
  -29.2316  -17.0942   21.0615 N   0  0  0  0  0  0
  -27.8143  -22.2473   21.3013 N   0  3  0  0  0  0
  -31.3863  -13.5221   19.4097 H   0  0  0  0  0  0
  -30.5690  -12.3430   20.3539 H   0  0  0  0  0  0
  -30.0998  -11.9513   17.9263 H   0  0  0  0  0  0
  -29.5550  -13.6019   17.7417 H   0  0  0  0  0  0
  -28.1839  -11.3398   19.2136 H   0  0  0  0  0  0
  -27.5215  -12.3141   17.9174 H   0  0  0  0  0  0
  -27.4692  -14.2621   19.3297 H   0  0  0  0  0  0
  -28.7968  -12.6861   21.5784 H   0  0  0  0  0  0
  -28.0231  -14.2307   21.7926 H   0  0  0  0  0  0
  -25.2766   -9.5680   22.4737 H   0  0  0  0  0  0
  -24.0017   -7.4608   22.7435 H   0  0  0  0  0  0
  -21.0823   -8.8755   19.8949 H   0  0  0  0  0  0
  -22.3665  -10.9652   19.6166 H   0  0  0  0  0  0
  -21.2000   -7.6141   23.9719 H   0  0  0  0  0  0
  -21.1474   -6.0508   25.9079 H   0  0  0  0  0  0
  -22.0603   -2.7604   23.2856 H   0  0  0  0  0  0
  -22.3997  -11.9815   22.4903 H   0  0  0  0  0  0
  -21.0931  -13.1100   22.2752 H   0  0  0  0  0  0
  -24.5932  -15.8427   20.5067 H   0  0  0  0  0  0
  -26.2140  -15.6434   20.0728 H   0  0  0  0  0  0
  -26.7497  -32.4416   23.1772 H   0  0  0  0  0  0
  -24.9758  -33.9219   25.0224 H   0  0  0  0  0  0
  -22.8159  -30.7843   21.7494 H   0  0  0  0  0  0
  -23.3717  -35.9259   23.3238 H   0  0  0  0  0  0
  -24.3516  -36.8567   22.2007 H   0  0  0  0  0  0
  -23.7248  -37.6126   23.6656 H   0  0  0  0  0  0
  -27.1753  -30.9407   21.8829 H   0  0  0  0  0  0
  -27.1719  -29.4290   22.6162 H   0  0  0  0  0  0
  -28.4549  -28.3377   20.9836 H   0  0  0  0  0  0
  -26.6146  -26.5139   17.5766 H   0  0  0  0  0  0
  -24.4117  -27.5174   17.8845 H   0  0  0  0  0  0
  -22.9415  -29.6748   19.4551 H   0  0  0  0  0  0
  -22.8451  -28.1782   20.1200 H   0  0  0  0  0  0
  -25.1255  -36.1444   25.0747 H   0  0  0  0  0  0
  -20.7918  -28.1506   24.2693 H   0  0  0  0  0  0
  -20.4202  -26.1022   23.3629 H   0  0  0  0  0  0
  -21.5680  -26.6433   22.1856 H   0  0  0  0  0  0
  -19.6017  -25.6197   21.0876 H   0  0  0  0  0  0
  -19.6322  -27.3297   20.7022 H   0  0  0  0  0  0
  -17.3520  -26.6844   21.3730 H   0  0  0  0  0  0
  -17.9280  -25.9865   22.8692 H   0  0  0  0  0  0
  -19.7681  -30.6636   24.2622 H   0  0  0  0  0  0
  -17.4920  -31.6249   24.5125 H   0  0  0  0  0  0
  -15.5089  -30.3358   23.7326 H   0  0  0  0  0  0
  -15.8028  -28.1151   22.6741 H   0  0  0  0  0  0
  -24.6780  -30.6828   25.9528 H   0  0  0  0  0  0
  -24.8722  -32.3401   26.5135 H   0  0  0  0  0  0
  -25.8453  -31.0541   27.1971 H   0  0  0  0  0  0
  -26.4562  -29.5433   24.6137 H   0  0  0  0  0  0
  -27.6079  -29.9066   25.8345 H   0  0  0  0  0  0
  -28.0061  -30.4031   24.2352 H   0  0  0  0  0  0
  -27.2609  -33.4878   26.2026 H   0  0  0  0  0  0
  -28.4230  -32.7429   25.1132 H   0  0  0  0  0  0
  -28.0859  -32.0266   26.6828 H   0  0  0  0  0  0
  -28.2491  -37.9880   24.7416 H   0  0  0  0  0  0
  -28.0983  -36.2394   24.6432 H   0  0  0  0  0  0
  -27.2139  -37.1357   25.8842 H   0  0  0  0  0  0
  -20.9627  -29.6695   21.7602 H   0  0  0  0  0  0
  -26.0028  -38.2441   24.1293 H   0  0  0  0  0  0
  -27.2470  -27.3751   22.6514 H   0  0  0  0  0  0
  -27.7651  -23.0550   24.4533 H   0  0  0  0  0  0
  -26.3837  -22.3315   23.6910 H   0  0  0  0  0  0
  -27.9839  -20.4144   24.0009 H   0  0  0  0  0  0
  -29.3177  -21.3647   23.4282 H   0  0  0  0  0  0
  -28.4876  -24.0726   22.4152 H   0  0  0  0  0  0
  -27.0748  -20.2121   21.7700 H   0  0  0  0  0  0
  -25.8978  -31.3518   20.2343 H   0  0  0  0  0  0
  -24.4502  -31.6298   20.8460 H   0  0  0  0  0  0
  -24.6245  -30.9205   19.4422 H   0  0  0  0  0  0
  -25.7578  -25.1227   18.8161 H   0  0  0  0  0  0
  -26.4677  -24.2460   19.9428 H   0  0  0  0  0  0
  -30.1284  -19.2589   21.0504 H   0  0  0  0  0  0
  -28.8149  -19.0552   19.9833 H   0  0  0  0  0  0
  -28.3500  -16.7419   21.4064 H   0  0  0  0  0  0
  -28.6337  -22.5141   20.7807 H   0  0  0  0  0  0
  -27.0742  -22.2124   20.6224 H   0  0  0  0  0  0
  1 25  1  0  0  0
  1 30  2  0  0  0
  1 84  1  0  0  0
  2  3  1  0  0  0
  2 25  1  0  0  0
  2 86  1  0  0  0
  2 87  1  0  0  0
  3  4  1  0  0  0
  3 88  1  0  0  0
  3 89  1  0  0  0
  4  5  1  0  0  0
  4 90  1  0  0  0
  4 91  1  0  0  0
  5  6  1  0  0  0
  5 26  1  0  0  0
  5 92  1  0  0  0
  6 25  1  0  0  0
  6 93  1  0  0  0
  6 94  1  0  0  0
  7  8  2  0  0  0
  7 26  1  0  0  0
  7 29  1  0  0  0
  8  9  1  0  0  0
  8 22  1  0  0  0
  9 10  1  0  0  0
  9 27  2  0  0  0
 10 11  2  0  0  0
 10 15  1  0  0  0
 11 12  1  0  0  0
 11 95  1  0  0  0
 12 13  2  0  0  0
 12 96  1  0  0  0
 13 14  1  0  0  0
 13 31  1  0  0  0
 14 15  2  0  0  0
 14 97  1  0  0  0
 15 98  1  0  0  0
 16 17  2  0  0  0
 16 21  1  0  0  0
 16 31  1  0  0  0
 17 18  1  0  0  0
 17 99  1  0  0  0
 18 19  2  0  0  0
 18100  1  0  0  0
 19 20  1  0  0  0
 19 24  1  0  0  0
 20 21  2  0  0  0
 20101  1  0  0  0
 21 23  1  0  0  0
 22 28  1  0  0  0
 22 32  2  0  0  0
 26 27  1  0  0  0
 28102  1  0  0  0
 28103  1  0  0  0
 29104  1  0  0  0
 29105  1  0  0  0
 33 34  1  0  0  0
 33 66  1  0  0  0
 33 70  2  0  0  0
 34 36  1  0  0  0
 34 59  1  0  0  0
 34106  1  0  0  0
 35 44  2  0  0  0
 35 45  1  0  0  0
 35 68  1  0  0  0
 36 56  1  0  0  0
 36107  1  0  0  0
 37 39  1  0  0  0
 37 47  1  0  0  0
 37 66  1  0  0  0
 37108  1  0  0  0
 38 43  2  0  0  0
 38 46  1  0  0  0
 38 47  1  0  0  0
 39 64  1  0  0  0
 39 67  2  0  0  0
 40 52  1  0  0  0
 40 53  2  0  0  0
 40 58  1  0  0  0
 41109  1  0  0  0
 41110  1  0  0  0
 41111  1  0  0  0
 41 48  1  0  0  0
 42 43  1  0  0  0
 42 66  1  0  0  0
 42112  1  0  0  0
 42113  1  0  0  0
 43 44  1  0  0  0
 44114  1  0  0  0
 45 46  2  0  0  0
 45115  1  0  0  0
 46116  1  0  0  0
 47117  1  0  0  0
 47118  1  0  0  0
 48 56  1  0  0  0
 48 65  1  0  0  0
 48119  1  0  0  0
 49 50  1  0  0  0
 49 53  1  0  0  0
 49 64  1  0  0  0
 49120  1  0  0  0
 50 51  1  0  0  0
 50121  1  0  0  0
 50122  1  0  0  0
 51 52  1  0  0  0
 51123  1  0  0  0
 51124  1  0  0  0
 52125  1  0  0  0
 52126  1  0  0  0
 53 54  1  0  0  0
 54 55  2  0  0  0
 54127  1  0  0  0
 55 57  1  0  0  0
 55128  1  0  0  0
 56 69  2  0  0  0
 57 58  2  0  0  0
 57129  1  0  0  0
 58130  1  0  0  0
 59 60  1  0  0  0
 59 61  1  0  0  0
 59 62  1  0  0  0
 60131  1  0  0  0
 60132  1  0  0  0
 60133  1  0  0  0
 61134  1  0  0  0
 61135  1  0  0  0
 61136  1  0  0  0
 62137  1  0  0  0
 62138  1  0  0  0
 62139  1  0  0  0
 63 65  1  0  0  0
 63140  1  0  0  0
 63141  1  0  0  0
 63142  1  0  0  0
 64143  1  0  0  0
 65144  1  0  0  0
 68 80  1  0  0  0
 71 72  2  0  0  0
 71 73  1  0  0  0
 71145  1  0  0  0
 72 82  1  0  0  0
 72 77  1  0  0  0
 73 79  1  0  0  0
 73 83  2  0  0  0
 74 80  1  0  0  0
 74 82  2  0  0  0
 74 83  1  0  0  0
 75 76  1  0  0  0
 75 77  1  0  0  0
 75146  1  0  0  0
 75147  1  0  0  0
 76 78  1  0  0  0
 76148  1  0  0  0
 76149  1  0  0  0
 77 85  1  0  0  0
 77150  1  0  0  0
 78 81  1  0  0  0
 78 85  1  0  0  0
 78151  1  0  0  0
 79152  1  0  0  0
 79153  1  0  0  0
 79154  1  0  0  0
 80155  1  0  0  0
 80156  1  0  0  0
 81 84  1  0  0  0
 81157  1  0  0  0
 81158  1  0  0  0
 84159  1  0  0  0
 85160  1  0  0  0
 85161  1  0  0  0
M  CHG  1  85   1
M  ISO  4   1 100  68 101  80 101  84 100
M  END
> <chiral flag>
0

> <version>
0

> <s_m_source_file>
/data/baiqing/PycharmProjects/Reinvent-master-3.2/result/LINK_invent/BTK/process_docking_weight1_custom_sum_contain_oxygen_bond_distance_aromatic_linkinvent_7_9_3/rearranged_h_0187.sdf

> <i_m_source_file_index>
33

> <r_mmod_Potential_Energy-OPLS-2005>
10420.2138671875

> <r_mmod_Stretch_Energy-OPLS-2005>
5743.234375

> <r_mmod_Bend_Energy-OPLS-2005>
1286.89697265625

> <r_mmod_Torsional_Energy-OPLS-2005>
642.298217773438

> <r_mmod_Improper_Torsional_Energy-OPLS-2005>
58.6722640991211

> <r_mmod_Van_der_Waal_Energy-OPLS-2005>
2125.376953125

> <r_mmod_Electrostatic_Energy-OPLS-2005>
-766.3349609375

> <r_mmod_Solvation_Energy-OPLS-2005>
-537.257202148438

> <b_mmod_Minimization_Converged-OPLS-2005>
0

> <r_mmod_RMS_Derivative-OPLS-2005>
7.59699869155884

$$$$
33
                    3D
 Structure written by MMmdl.
156164  0  0  1  0            999 V2000
  -30.5253  -14.9927   20.3198 C   0  0  0  0  0  0
  -30.4286  -12.6101   19.4705 C   0  0  0  0  0  0
  -29.5048  -12.5019   18.2382 C   0  0  0  0  0  0
  -28.0445  -12.2830   18.6775 C   0  0  0  0  0  0
  -27.6164  -13.2488   19.8159 C   0  0  2  0  0  0
  -28.6666  -13.3332   20.9405 C   0  0  0  0  0  0
  -25.2459  -13.8235   20.5734 C   0  0  0  0  0  0
  -24.1771  -13.0446   20.9243 C   0  0  0  0  0  0
  -24.6399  -11.6937   20.8791 C   0  0  0  0  0  0
  -23.9083  -10.4296   21.0453 C   0  0  0  0  0  0
  -24.3632   -9.4206   21.9219 C   0  0  0  0  0  0
  -23.6321   -8.2219   22.0751 C   0  0  0  0  0  0
  -22.4294   -8.0274   21.3547 C   0  0  0  0  0  0
  -21.9938   -9.0249   20.4635 C   0  0  0  0  0  0
  -22.7257  -10.2140   20.3075 C   0  0  0  0  0  0
  -21.6839   -6.0754   22.5291 C   0  0  0  0  0  0
  -21.3997   -6.5657   23.8227 C   0  0  0  0  0  0
  -21.3661   -5.6801   24.9190 C   0  0  0  0  0  0
  -21.6038   -4.3061   24.7224 C   0  0  0  0  0  0
  -21.8827   -3.8164   23.4340 C   0  0  0  0  0  0
  -21.9183   -4.6988   22.3410 C   0  0  0  0  0  0
  -22.7792  -13.5211   21.1888 C   0  0  0  0  0  0
  -22.1654   -4.2181   21.0985 F   0  0  0  0  0  0
  -21.5629   -3.4547   25.7733 F   0  0  0  0  0  0
  -29.9173  -13.7402   20.2954 N   0  0  0  0  0  0
  -26.2856  -12.9442   20.3219 N   0  0  0  0  0  0
  -25.9327  -11.6580   20.5771 N   0  0  0  0  0  0
  -22.0438  -12.8195   22.0434 N   0  0  0  0  0  0
  -25.4179  -15.1956   20.4165 N   0  0  0  0  0  0
  -31.7573  -14.9865   20.1891 O   0  0  0  0  0  0
  -21.6629   -6.8891   21.4244 O   0  0  0  0  0  0
  -22.3472  -14.5511   20.6727 O   0  0  0  0  0  0
  -24.6485  -31.8388   23.1841 C   0  0  0  0  0  0
  -25.9253  -32.4647   23.8248 C   0  0  1  0  0  0
  -27.1976  -27.1007   20.1391 C   0  0  0  0  0  0
  -25.6010  -33.8456   24.2179 N   0  0  0  0  0  0
  -23.4521  -30.4614   21.5301 C   0  0  2  0  0  0
  -24.8951  -28.8870   20.1030 C   0  0  0  0  0  0
  -22.7583  -29.4536   22.4811 C   0  0  0  0  0  0
  -18.0329  -28.1420   22.8491 C   0  0  0  0  0  0
  -24.1511  -36.7216   23.2644 C   0  0  0  0  0  0
  -26.0093  -30.7020   21.3877 C   0  0  0  0  0  0
  -26.0732  -29.3122   20.7262 C   0  0  0  0  0  0
  -27.2220  -28.4320   20.7295 C   0  0  0  0  0  0
  -25.9919  -26.7835   19.4796 C   0  0  0  0  0  0
  -24.8695  -27.6387   19.4659 C   0  0  0  0  0  0
  -23.6764  -29.7943   20.1472 C   0  0  0  0  0  0
  -25.4142  -36.2971   24.0301 C   0  0  1  0  0  0
  -20.5934  -28.3751   23.1219 C   0  0  2  0  0  0
  -20.6808  -26.9445   22.5410 C   0  0  0  0  0  0
  -19.5778  -26.6403   21.5224 C   0  0  0  0  0  0
  -18.1954  -26.7973   22.1611 C   0  0  0  0  0  0
  -19.1580  -28.8906   23.2858 C   0  0  0  0  0  0
  -18.9492  -30.1510   23.8883 C   0  0  0  0  0  0
  -17.6490  -30.6610   24.0578 C   0  0  0  0  0  0
  -25.9100  -34.9354   23.5036 C   0  0  0  0  0  0
  -16.5378  -29.9099   23.6332 C   0  0  0  0  0  0
  -16.7306  -28.6521   23.0355 C   0  0  0  0  0  0
  -26.4584  -31.6513   25.0688 C   0  0  0  0  0  0
  -25.3752  -31.3717   26.1367 C   0  0  0  0  0  0
  -27.0448  -30.2891   24.6304 C   0  0  0  0  0  0
  -27.6143  -32.4267   25.7454 C   0  0  0  0  0  0
  -27.5568  -37.1758   24.8466 C   0  0  0  0  0  0
  -21.4262  -29.3065   22.3557 N   0  0  0  0  0  0
  -26.4277  -37.3692   23.9410 N   0  0  0  0  0  0
  -24.7238  -31.0221   22.0889 N   0  0  0  0  0  0
  -23.4193  -28.8081   23.2971 O   0  0  0  0  0  0
  -28.2456  -26.1077   20.2389 O   0  0  0  0  0  0
  -26.5659  -34.8845   22.4602 O   0  0  0  0  0  0
  -23.5588  -32.1286   23.7042 O   0  0  0  0  0  0
  -30.1238  -18.5091   18.9380 C   0  0  0  0  0  0
  -30.1623  -16.9434   18.7329 C   0  0  0  0  0  0
  -29.2511  -17.3918   20.7939 C   0  0  0  0  0  0
  -29.0063  -18.7948   19.9414 C   0  0  1  0  0  0
  -27.5043  -20.2040   21.4824 C   0  0  0  0  0  0
  -28.3280  -23.1426   20.5224 C   0  0  0  0  0  0
  -28.2516  -24.6281   19.6951 C   0  0  0  0  0  0
  -28.7830  -20.3425   20.6347 C   0  0  2  0  0  0
  -29.8020  -16.1948   19.9724 N   0  0  0  0  0  0
  -28.6936  -21.7317   19.8447 N   0  3  0  0  0  0
  -31.4595  -12.7655   19.1445 H   0  0  0  0  0  0
  -30.4334  -11.6801   20.0408 H   0  0  0  0  0  0
  -29.8275  -11.6858   17.5899 H   0  0  0  0  0  0
  -29.5772  -13.4127   17.6421 H   0  0  0  0  0  0
  -27.9616  -11.2516   19.0235 H   0  0  0  0  0  0
  -27.3688  -12.3713   17.8262 H   0  0  0  0  0  0
  -27.5593  -14.2346   19.3531 H   0  0  0  0  0  0
  -28.7787  -12.3813   21.4609 H   0  0  0  0  0  0
  -28.3721  -14.0732   21.6868 H   0  0  0  0  0  0
  -25.2765   -9.5666   22.4813 H   0  0  0  0  0  0
  -24.0028   -7.4590   22.7447 H   0  0  0  0  0  0
  -21.0876   -8.8765   19.8926 H   0  0  0  0  0  0
  -22.3728  -10.9688   19.6188 H   0  0  0  0  0  0
  -21.1992   -7.6167   23.9760 H   0  0  0  0  0  0
  -21.1466   -6.0516   25.9098 H   0  0  0  0  0  0
  -22.0613   -2.7631   23.2825 H   0  0  0  0  0  0
  -22.4046  -11.9844   22.4783 H   0  0  0  0  0  0
  -21.1060  -13.1206   22.2673 H   0  0  0  0  0  0
  -24.6595  -15.8558   20.5331 H   0  0  0  0  0  0
  -26.2743  -15.6276   20.0967 H   0  0  0  0  0  0
  -26.7309  -32.5224   23.0953 H   0  0  0  0  0  0
  -25.0175  -33.9618   25.0338 H   0  0  0  0  0  0
  -22.7593  -31.2895   21.3734 H   0  0  0  0  0  0
  -23.3761  -35.9556   23.3281 H   0  0  0  0  0  0
  -24.3609  -36.8866   22.2062 H   0  0  0  0  0  0
  -23.7250  -37.6404   23.6697 H   0  0  0  0  0  0
  -26.1724  -31.4573   20.6171 H   0  0  0  0  0  0
  -26.8780  -30.7454   22.0324 H   0  0  0  0  0  0
  -28.1188  -28.7537   21.2396 H   0  0  0  0  0  0
  -25.8612  -25.8291   18.9993 H   0  0  0  0  0  0
  -23.9660  -27.3084   18.9711 H   0  0  0  0  0  0
  -23.8151  -30.5699   19.3920 H   0  0  0  0  0  0
  -22.7923  -29.2378   19.8329 H   0  0  0  0  0  0
  -25.1318  -36.1793   25.0782 H   0  0  0  0  0  0
  -21.0055  -28.3332   24.1327 H   0  0  0  0  0  0
  -20.5733  -26.2345   23.3632 H   0  0  0  0  0  0
  -21.6658  -26.7464   22.1173 H   0  0  0  0  0  0
  -19.6938  -25.6316   21.1252 H   0  0  0  0  0  0
  -19.6713  -27.3212   20.6756 H   0  0  0  0  0  0
  -17.4230  -26.6762   21.4009 H   0  0  0  0  0  0
  -18.0328  -26.0135   22.9015 H   0  0  0  0  0  0
  -19.7970  -30.7358   24.2203 H   0  0  0  0  0  0
  -17.5029  -31.6282   24.5201 H   0  0  0  0  0  0
  -15.5378  -30.2991   23.7703 H   0  0  0  0  0  0
  -15.8698  -28.0843   22.7059 H   0  0  0  0  0  0
  -24.6009  -30.6977   25.7682 H   0  0  0  0  0  0
  -24.8868  -32.2900   26.4631 H   0  0  0  0  0  0
  -25.8019  -30.9009   27.0226 H   0  0  0  0  0  0
  -26.3065  -29.6610   24.1302 H   0  0  0  0  0  0
  -27.4036  -29.7190   25.4885 H   0  0  0  0  0  0
  -27.8987  -30.4119   23.9634 H   0  0  0  0  0  0
  -27.2801  -33.3647   26.1891 H   0  0  0  0  0  0
  -28.4015  -32.6674   25.0295 H   0  0  0  0  0  0
  -28.0732  -31.8456   26.5462 H   0  0  0  0  0  0
  -28.2543  -38.0097   24.7490 H   0  0  0  0  0  0
  -28.1084  -36.2592   24.6294 H   0  0  0  0  0  0
  -27.2277  -37.1397   25.8872 H   0  0  0  0  0  0
  -20.9463  -29.8754   21.6715 H   0  0  0  0  0  0
  -26.0121  -38.2741   24.1432 H   0  0  0  0  0  0
  -29.9688  -19.0352   17.9936 H   0  0  0  0  0  0
  -31.0785  -18.8524   19.3362 H   0  0  0  0  0  0
  -31.1248  -16.6419   18.3160 H   0  0  0  0  0  0
  -29.4233  -16.6720   17.9749 H   0  0  0  0  0  0
  -28.3226  -17.0882   21.2789 H   0  0  0  0  0  0
  -29.9624  -17.5849   21.5965 H   0  0  0  0  0  0
  -28.0850  -18.6231   19.3818 H   0  0  0  0  0  0
  -27.5236  -19.2994   22.0911 H   0  0  0  0  0  0
  -26.6230  -20.1412   20.8409 H   0  0  0  0  0  0
  -27.3645  -21.0404   22.1651 H   0  0  0  0  0  0
  -27.3469  -23.0153   20.9813 H   0  0  0  0  0  0
  -29.0135  -23.2690   21.3593 H   0  0  0  0  0  0
  -27.4828  -24.5213   18.9342 H   0  0  0  0  0  0
  -29.1674  -24.6326   19.1058 H   0  0  0  0  0  0
  -29.6138  -20.4746   21.3257 H   0  0  0  0  0  0
  -29.6013  -21.8548   19.4210 H   0  0  0  0  0  0
  -28.0508  -21.5984   19.0798 H   0  0  0  0  0  0
  1 25  1  0  0  0
  1 30  2  0  0  0
  1 79  1  0  0  0
  2  3  1  0  0  0
  2 25  1  0  0  0
  2 81  1  0  0  0
  2 82  1  0  0  0
  3  4  1  0  0  0
  3 83  1  0  0  0
  3 84  1  0  0  0
  4  5  1  0  0  0
  4 85  1  0  0  0
  4 86  1  0  0  0
  5  6  1  0  0  0
  5 26  1  0  0  0
  5 87  1  0  0  0
  6 25  1  0  0  0
  6 88  1  0  0  0
  6 89  1  0  0  0
  7  8  2  0  0  0
  7 26  1  0  0  0
  7 29  1  0  0  0
  8  9  1  0  0  0
  8 22  1  0  0  0
  9 10  1  0  0  0
  9 27  2  0  0  0
 10 11  2  0  0  0
 10 15  1  0  0  0
 11 12  1  0  0  0
 11 90  1  0  0  0
 12 13  2  0  0  0
 12 91  1  0  0  0
 13 14  1  0  0  0
 13 31  1  0  0  0
 14 15  2  0  0  0
 14 92  1  0  0  0
 15 93  1  0  0  0
 16 17  2  0  0  0
 16 21  1  0  0  0
 16 31  1  0  0  0
 17 18  1  0  0  0
 17 94  1  0  0  0
 18 19  2  0  0  0
 18 95  1  0  0  0
 19 20  1  0  0  0
 19 24  1  0  0  0
 20 21  2  0  0  0
 20 96  1  0  0  0
 21 23  1  0  0  0
 22 28  1  0  0  0
 22 32  2  0  0  0
 26 27  1  0  0  0
 28 97  1  0  0  0
 28 98  1  0  0  0
 29 99  1  0  0  0
 29100  1  0  0  0
 33 34  1  0  0  0
 33 66  1  0  0  0
 33 70  2  0  0  0
 34 36  1  0  0  0
 34 59  1  0  0  0
 34101  1  0  0  0
 35 44  2  0  0  0
 35 45  1  0  0  0
 35 68  1  0  0  0
 36 56  1  0  0  0
 36102  1  0  0  0
 37 39  1  0  0  0
 37 47  1  0  0  0
 37 66  1  0  0  0
 37103  1  0  0  0
 38 43  2  0  0  0
 38 46  1  0  0  0
 38 47  1  0  0  0
 39 64  1  0  0  0
 39 67  2  0  0  0
 40 52  1  0  0  0
 40 53  2  0  0  0
 40 58  1  0  0  0
 41104  1  0  0  0
 41105  1  0  0  0
 41106  1  0  0  0
 41 48  1  0  0  0
 42 43  1  0  0  0
 42 66  1  0  0  0
 42107  1  0  0  0
 42108  1  0  0  0
 43 44  1  0  0  0
 44109  1  0  0  0
 45 46  2  0  0  0
 45110  1  0  0  0
 46111  1  0  0  0
 47112  1  0  0  0
 47113  1  0  0  0
 48 56  1  0  0  0
 48 65  1  0  0  0
 48114  1  0  0  0
 49 50  1  0  0  0
 49 53  1  0  0  0
 49 64  1  0  0  0
 49115  1  0  0  0
 50 51  1  0  0  0
 50116  1  0  0  0
 50117  1  0  0  0
 51 52  1  0  0  0
 51118  1  0  0  0
 51119  1  0  0  0
 52120  1  0  0  0
 52121  1  0  0  0
 53 54  1  0  0  0
 54 55  2  0  0  0
 54122  1  0  0  0
 55 57  1  0  0  0
 55123  1  0  0  0
 56 69  2  0  0  0
 57 58  2  0  0  0
 57124  1  0  0  0
 58125  1  0  0  0
 59 60  1  0  0  0
 59 61  1  0  0  0
 59 62  1  0  0  0
 60126  1  0  0  0
 60127  1  0  0  0
 60128  1  0  0  0
 61129  1  0  0  0
 61130  1  0  0  0
 61131  1  0  0  0
 62132  1  0  0  0
 62133  1  0  0  0
 62134  1  0  0  0
 63 65  1  0  0  0
 63135  1  0  0  0
 63136  1  0  0  0
 63137  1  0  0  0
 64138  1  0  0  0
 65139  1  0  0  0
 68 77  1  0  0  0
 71 72  1  0  0  0
 71140  1  0  0  0
 71141  1  0  0  0
 71 74  1  0  0  0
 72 79  1  0  0  0
 72142  1  0  0  0
 72143  1  0  0  0
 73 74  1  0  0  0
 73 79  1  0  0  0
 73144  1  0  0  0
 73145  1  0  0  0
 74 78  1  0  0  0
 74146  1  0  0  0
 75147  1  0  0  0
 75148  1  0  0  0
 75149  1  0  0  0
 75 78  1  0  0  0
 76 77  1  0  0  0
 76 80  1  0  0  0
 76150  1  0  0  0
 76151  1  0  0  0
 77152  1  0  0  0
 77153  1  0  0  0
 78 80  1  0  0  0
 78154  1  0  0  0
 80155  1  0  0  0
 80156  1  0  0  0
M  CHG  1  80   1
M  ISO  4   1 100  68 101  77 101  79 100
M  END
> <chiral flag>
0

> <version>
0

> <s_m_source_file>
/data/baiqing/PycharmProjects/Reinvent-master-3.2/result/LINK_invent/BTK/process_docking_weight1_custom_sum_contain_oxygen_bond_distance_aromatic_linkinvent_7_9_3/rearranged_h_0187.sdf

> <i_m_source_file_index>
34

> <r_mmod_Potential_Energy-OPLS-2005>
725.14794921875

> <r_mmod_Stretch_Energy-OPLS-2005>
290.187469482422

> <r_mmod_Bend_Energy-OPLS-2005>
337.869384765625

> <r_mmod_Torsional_Energy-OPLS-2005>
342.721588134766

> <r_mmod_Improper_Torsional_Energy-OPLS-2005>
20.5396213531494

> <r_mmod_Van_der_Waal_Energy-OPLS-2005>
108.920211791992

> <r_mmod_Electrostatic_Energy-OPLS-2005>
-160.702575683594

> <r_mmod_Solvation_Energy-OPLS-2005>
-447.46875

> <b_mmod_Minimization_Converged-OPLS-2005>
0

> <r_mmod_RMS_Derivative-OPLS-2005>
4.31224584579468

$$$$
34
                    3D
 Structure written by MMmdl.
165174  0  0  1  0            999 V2000
  -30.6713  -14.5246   20.5149 C   0  0  0  0  0  0
  -30.4156  -12.3319   19.4248 C   0  0  0  0  0  0
  -29.4753  -12.4870   18.2105 C   0  0  0  0  0  0
  -28.0026  -12.3520   18.6332 C   0  0  0  0  0  0
  -27.6518  -13.2110   19.8727 C   0  0  2  0  0  0
  -28.6937  -13.0363   20.9943 C   0  0  0  0  0  0
  -25.2554  -13.8166   20.5667 C   0  0  0  0  0  0
  -24.1845  -13.0450   20.9208 C   0  0  0  0  0  0
  -24.6398  -11.6903   20.8766 C   0  0  0  0  0  0
  -23.9070  -10.4296   21.0414 C   0  0  0  0  0  0
  -24.3628   -9.4201   21.9179 C   0  0  0  0  0  0
  -23.6315   -8.2230   22.0701 C   0  0  0  0  0  0
  -22.4272   -8.0282   21.3530 C   0  0  0  0  0  0
  -21.9926   -9.0272   20.4636 C   0  0  0  0  0  0
  -22.7230  -10.2157   20.3085 C   0  0  0  0  0  0
  -21.6850   -6.0715   22.5280 C   0  0  0  0  0  0
  -21.4014   -6.5624   23.8219 C   0  0  0  0  0  0
  -21.3689   -5.6777   24.9192 C   0  0  0  0  0  0
  -21.6071   -4.3047   24.7233 C   0  0  0  0  0  0
  -21.8823   -3.8128   23.4356 C   0  0  0  0  0  0
  -21.9202   -4.6949   22.3408 C   0  0  0  0  0  0
  -22.7850  -13.5201   21.1867 C   0  0  0  0  0  0
  -22.1655   -4.2134   21.0982 F   0  0  0  0  0  0
  -21.5677   -3.4529   25.7754 F   0  0  0  0  0  0
  -30.0176  -13.3366   20.4233 N   0  0  0  0  0  0
  -26.2994  -12.9359   20.3420 N   0  0  0  0  0  0
  -25.9312  -11.6509   20.5789 N   0  0  0  0  0  0
  -22.0519  -12.8204   22.0466 N   0  0  0  0  0  0
  -25.4256  -15.1868   20.3901 N   0  0  0  0  0  0
  -31.8251  -14.6867   20.1059 O   0  0  0  0  0  0
  -21.6645   -6.8867   21.4233 O   0  0  0  0  0  0
  -22.3535  -14.5481   20.6655 O   0  0  0  0  0  0
  -24.6164  -31.8673   23.2095 C   0  0  0  0  0  0
  -25.9044  -32.4822   23.8393 C   0  0  1  0  0  0
  -27.2257  -27.4154   20.1088 C   0  0  0  0  0  0
  -25.5898  -33.8614   24.2341 N   0  0  0  0  0  0
  -23.4039  -30.4876   21.5532 C   0  0  2  0  0  0
  -24.8497  -28.9440   20.1236 C   0  0  0  0  0  0
  -22.7414  -29.4617   22.5005 C   0  0  0  0  0  0
  -18.0273  -28.1364   22.8510 C   0  0  0  0  0  0
  -24.1475  -36.7311   23.2642 C   0  0  0  0  0  0
  -25.9312  -30.8257   21.3630 C   0  0  0  0  0  0
  -26.0071  -29.4513   20.7286 C   0  0  0  0  0  0
  -27.2007  -28.6914   20.7209 C   0  0  0  0  0  0
  -26.0604  -26.9316   19.4845 C   0  0  0  0  0  0
  -24.8690  -27.6817   19.5018 C   0  0  0  0  0  0
  -23.6144  -29.8159   20.1688 C   0  0  0  0  0  0
  -25.4093  -36.3104   24.0347 C   0  0  1  0  0  0
  -20.5867  -28.3631   23.1337 C   0  0  2  0  0  0
  -20.6757  -26.9368   22.5417 C   0  0  0  0  0  0
  -19.5726  -26.6377   21.5218 C   0  0  0  0  0  0
  -18.1910  -26.7915   22.1642 C   0  0  0  0  0  0
  -19.1522  -28.8820   23.2931 C   0  0  0  0  0  0
  -18.9441  -30.1433   23.8929 C   0  0  0  0  0  0
  -17.6439  -30.6578   24.0563 C   0  0  0  0  0  0
  -25.9023  -34.9471   23.5150 C   0  0  0  0  0  0
  -16.5336  -29.9070   23.6326 C   0  0  0  0  0  0
  -16.7259  -28.6486   23.0355 C   0  0  0  0  0  0
  -26.4464  -31.6586   25.0722 C   0  0  0  0  0  0
  -25.3744  -31.3665   26.1484 C   0  0  0  0  0  0
  -27.0278  -30.3041   24.6049 C   0  0  0  0  0  0
  -27.6054  -32.4280   25.7489 C   0  0  0  0  0  0
  -27.5571  -37.1808   24.8470 C   0  0  0  0  0  0
  -21.4143  -29.2998   22.3744 N   0  0  0  0  0  0
  -26.4285  -37.3787   23.9413 N   0  0  0  0  0  0
  -24.6698  -31.0739   22.1022 N   0  0  0  0  0  0
  -23.4173  -28.8151   23.3045 O   0  0  0  0  0  0
  -28.4034  -26.7195   19.9785 O   0  0  0  0  0  0
  -26.5569  -34.8928   22.4702 O   0  0  0  0  0  0
  -23.5354  -32.1386   23.7494 O   0  0  0  0  0  0
  -27.9683  -19.7648   20.1635 C   0  0  0  0  0  0
  -29.1475  -17.8592   20.1763 C   0  0  0  0  0  0
  -27.5349  -18.1586   18.7126 C   0  0  0  0  0  0
  -26.0653  -21.2664   21.1099 C   0  0  0  0  0  0
  -25.9974  -22.7397   21.5258 C   0  0  0  0  0  0
  -27.9089  -22.4295   20.1396 C   0  0  0  0  0  0
  -27.5540  -21.0943   20.8292 C   0  0  2  0  0  0
  -26.7327  -25.4325   22.4002 C   0  0  0  0  0  0
  -30.2774  -16.9920   20.7397 C   0  0  0  0  0  0
  -28.7031  -25.4970   20.6940 C   0  0  0  0  0  0
  -27.6877  -24.6086   21.5005 C   0  0  2  0  0  0
  -28.9502  -19.0577   20.7324 N   0  0  0  0  0  0
  -27.2466  -19.3808   19.1150 N   0  0  0  0  0  0
  -28.4446  -17.3303   19.1757 N   0  0  0  0  0  0
  -26.7802  -17.6846   17.6942 N   0  0  0  0  0  0
  -29.9212  -15.5719   20.8992 N   0  0  0  0  0  0
  -27.0199  -23.4864   20.7342 N   0  3  2  0  0  0
  -31.4546  -12.4393   19.1067 H   0  0  0  0  0  0
  -30.3391  -11.3313   19.8540 H   0  0  0  0  0  0
  -29.7100  -11.7361   17.4557 H   0  0  0  0  0  0
  -29.6257  -13.4563   17.7366 H   0  0  0  0  0  0
  -27.8149  -11.3004   18.8502 H   0  0  0  0  0  0
  -27.3442  -12.6134   17.8042 H   0  0  0  0  0  0
  -27.6833  -14.2512   19.5498 H   0  0  0  0  0  0
  -28.6758  -12.0168   21.3808 H   0  0  0  0  0  0
  -28.4409  -13.6816   21.8382 H   0  0  0  0  0  0
  -25.2750   -9.5677   22.4786 H   0  0  0  0  0  0
  -24.0013   -7.4580   22.7373 H   0  0  0  0  0  0
  -21.0862   -8.8822   19.8931 H   0  0  0  0  0  0
  -22.3665  -10.9757   19.6274 H   0  0  0  0  0  0
  -21.1968   -7.6119   23.9734 H   0  0  0  0  0  0
  -21.1513   -6.0490   25.9102 H   0  0  0  0  0  0
  -22.0570   -2.7587   23.2856 H   0  0  0  0  0  0
  -22.4094  -11.9847   22.4878 H   0  0  0  0  0  0
  -21.1201  -13.1341   22.2769 H   0  0  0  0  0  0
  -24.6193  -15.7955   20.3163 H   0  0  0  0  0  0
  -26.2635  -15.5772   19.9830 H   0  0  0  0  0  0
  -26.7123  -32.5530   23.1156 H   0  0  0  0  0  0
  -25.0092  -33.9763   25.0518 H   0  0  0  0  0  0
  -22.6931  -31.3055   21.4130 H   0  0  0  0  0  0
  -23.3737  -35.9646   23.3311 H   0  0  0  0  0  0
  -24.3577  -36.8913   22.2058 H   0  0  0  0  0  0
  -23.7231  -37.6527   23.6642 H   0  0  0  0  0  0
  -26.0270  -31.5752   20.5771 H   0  0  0  0  0  0
  -26.8265  -30.8966   21.9683 H   0  0  0  0  0  0
  -28.1028  -29.0857   21.1673 H   0  0  0  0  0  0
  -26.0770  -25.9858   18.9633 H   0  0  0  0  0  0
  -23.9843  -27.2888   19.0192 H   0  0  0  0  0  0
  -23.7234  -30.5880   19.4064 H   0  0  0  0  0  0
  -22.7345  -29.2396   19.8788 H   0  0  0  0  0  0
  -25.1267  -36.1984   25.0844 H   0  0  0  0  0  0
  -20.9976  -28.3193   24.1452 H   0  0  0  0  0  0
  -20.5658  -26.2227   23.3594 H   0  0  0  0  0  0
  -21.6621  -26.7411   22.1192 H   0  0  0  0  0  0
  -19.6874  -25.6298   21.1210 H   0  0  0  0  0  0
  -19.6667  -27.3229   20.6781 H   0  0  0  0  0  0
  -17.4175  -26.6681   21.4050 H   0  0  0  0  0  0
  -18.0304  -26.0051   22.9028 H   0  0  0  0  0  0
  -19.7911  -30.7253   24.2298 H   0  0  0  0  0  0
  -17.4986  -31.6263   24.5150 H   0  0  0  0  0  0
  -15.5333  -30.2978   23.7618 H   0  0  0  0  0  0
  -15.8662  -28.0814   22.7040 H   0  0  0  0  0  0
  -24.5942  -30.6967   25.7838 H   0  0  0  0  0  0
  -24.8888  -32.2801   26.4930 H   0  0  0  0  0  0
  -25.8133  -30.8863   27.0238 H   0  0  0  0  0  0
  -26.2817  -29.6842   24.1065 H   0  0  0  0  0  0
  -27.4037  -29.7229   25.4472 H   0  0  0  0  0  0
  -27.8648  -30.4378   23.9196 H   0  0  0  0  0  0
  -27.2704  -33.3575   26.2090 H   0  0  0  0  0  0
  -28.3874  -32.6831   25.0329 H   0  0  0  0  0  0
  -28.0704  -31.8370   26.5386 H   0  0  0  0  0  0
  -28.2603  -38.0091   24.7509 H   0  0  0  0  0  0
  -28.1055  -36.2627   24.6307 H   0  0  0  0  0  0
  -27.2291  -37.1482   25.8875 H   0  0  0  0  0  0
  -20.9291  -29.8753   21.7002 H   0  0  0  0  0  0
  -26.0179  -38.2867   24.1428 H   0  0  0  0  0  0
  -25.4757  -21.1047   20.2071 H   0  0  0  0  0  0
  -25.6963  -20.5896   21.8809 H   0  0  0  0  0  0
  -26.2536  -22.7611   22.5855 H   0  0  0  0  0  0
  -24.9993  -23.1713   21.4326 H   0  0  0  0  0  0
  -27.6699  -22.3645   19.0771 H   0  0  0  0  0  0
  -28.9722  -22.6397   20.2299 H   0  0  0  0  0  0
  -28.0539  -21.1043   21.8013 H   0  0  0  0  0  0
  -27.2505  -26.2926   22.8273 H   0  0  0  0  0  0
  -26.3555  -24.8594   23.2471 H   0  0  0  0  0  0
  -25.8629  -25.7990   21.8576 H   0  0  0  0  0  0
  -30.5937  -17.3964   21.7022 H   0  0  0  0  0  0
  -31.1282  -17.1070   20.0670 H   0  0  0  0  0  0
  -29.2411  -24.8685   19.9859 H   0  0  0  0  0  0
  -29.4745  -25.8007   21.4038 H   0  0  0  0  0  0
  -28.3248  -24.0767   22.2115 H   0  0  0  0  0  0
  -25.8657  -18.1014   17.5907 H   0  0  0  0  0  0
  -26.8099  -16.6817   17.5654 H   0  0  0  0  0  0
  -28.9603  -15.3990   21.1427 H   0  0  0  0  0  0
  -26.5285  -23.8985   19.9512 H   0  0  0  0  0  0
  1 25  1  0  0  0
  1 30  2  0  0  0
  1 86  1  0  0  0
  2  3  1  0  0  0
  2 25  1  0  0  0
  2 88  1  0  0  0
  2 89  1  0  0  0
  3  4  1  0  0  0
  3 90  1  0  0  0
  3 91  1  0  0  0
  4  5  1  0  0  0
  4 92  1  0  0  0
  4 93  1  0  0  0
  5  6  1  0  0  0
  5 26  1  0  0  0
  5 94  1  0  0  0
  6 25  1  0  0  0
  6 95  1  0  0  0
  6 96  1  0  0  0
  7  8  2  0  0  0
  7 26  1  0  0  0
  7 29  1  0  0  0
  8  9  1  0  0  0
  8 22  1  0  0  0
  9 10  1  0  0  0
  9 27  2  0  0  0
 10 11  2  0  0  0
 10 15  1  0  0  0
 11 12  1  0  0  0
 11 97  1  0  0  0
 12 13  2  0  0  0
 12 98  1  0  0  0
 13 14  1  0  0  0
 13 31  1  0  0  0
 14 15  2  0  0  0
 14 99  1  0  0  0
 15100  1  0  0  0
 16 17  2  0  0  0
 16 21  1  0  0  0
 16 31  1  0  0  0
 17 18  1  0  0  0
 17101  1  0  0  0
 18 19  2  0  0  0
 18102  1  0  0  0
 19 20  1  0  0  0
 19 24  1  0  0  0
 20 21  2  0  0  0
 20103  1  0  0  0
 21 23  1  0  0  0
 22 28  1  0  0  0
 22 32  2  0  0  0
 26 27  1  0  0  0
 28104  1  0  0  0
 28105  1  0  0  0
 29106  1  0  0  0
 29107  1  0  0  0
 33 34  1  0  0  0
 33 66  1  0  0  0
 33 70  2  0  0  0
 34 36  1  0  0  0
 34 59  1  0  0  0
 34108  1  0  0  0
 35 44  2  0  0  0
 35 45  1  0  0  0
 35 68  1  0  0  0
 36 56  1  0  0  0
 36109  1  0  0  0
 37 39  1  0  0  0
 37 47  1  0  0  0
 37 66  1  0  0  0
 37110  1  0  0  0
 38 43  2  0  0  0
 38 46  1  0  0  0
 38 47  1  0  0  0
 39 64  1  0  0  0
 39 67  2  0  0  0
 40 52  1  0  0  0
 40 53  2  0  0  0
 40 58  1  0  0  0
 41111  1  0  0  0
 41112  1  0  0  0
 41113  1  0  0  0
 41 48  1  0  0  0
 42 43  1  0  0  0
 42 66  1  0  0  0
 42114  1  0  0  0
 42115  1  0  0  0
 43 44  1  0  0  0
 44116  1  0  0  0
 45 46  2  0  0  0
 45117  1  0  0  0
 46118  1  0  0  0
 47119  1  0  0  0
 47120  1  0  0  0
 48 56  1  0  0  0
 48 65  1  0  0  0
 48121  1  0  0  0
 49 50  1  0  0  0
 49 53  1  0  0  0
 49 64  1  0  0  0
 49122  1  0  0  0
 50 51  1  0  0  0
 50123  1  0  0  0
 50124  1  0  0  0
 51 52  1  0  0  0
 51125  1  0  0  0
 51126  1  0  0  0
 52127  1  0  0  0
 52128  1  0  0  0
 53 54  1  0  0  0
 54 55  2  0  0  0
 54129  1  0  0  0
 55 57  1  0  0  0
 55130  1  0  0  0
 56 69  2  0  0  0
 57 58  2  0  0  0
 57131  1  0  0  0
 58132  1  0  0  0
 59 60  1  0  0  0
 59 61  1  0  0  0
 59 62  1  0  0  0
 60133  1  0  0  0
 60134  1  0  0  0
 60135  1  0  0  0
 61136  1  0  0  0
 61137  1  0  0  0
 61138  1  0  0  0
 62139  1  0  0  0
 62140  1  0  0  0
 62141  1  0  0  0
 63 65  1  0  0  0
 63142  1  0  0  0
 63143  1  0  0  0
 63144  1  0  0  0
 64145  1  0  0  0
 65146  1  0  0  0
 68 80  1  0  0  0
 71 82  2  0  0  0
 71 83  1  0  0  0
 71 77  1  0  0  0
 72 79  1  0  0  0
 72 82  1  0  0  0
 72 84  2  0  0  0
 73 83  2  0  0  0
 73 84  1  0  0  0
 73 85  1  0  0  0
 74 75  1  0  0  0
 74 77  1  0  0  0
 74147  1  0  0  0
 74148  1  0  0  0
 75149  1  0  0  0
 75150  1  0  0  0
 75 87  1  0  0  0
 76 77  1  0  0  0
 76 87  1  0  0  0
 76151  1  0  0  0
 76152  1  0  0  0
 77153  1  0  0  0
 78154  1  0  0  0
 78155  1  0  0  0
 78156  1  0  0  0
 78 81  1  0  0  0
 79 86  1  0  0  0
 79157  1  0  0  0
 79158  1  0  0  0
 80 81  1  0  0  0
 80159  1  0  0  0
 80160  1  0  0  0
 81 87  1  0  0  0
 81161  1  0  0  0
 85162  1  0  0  0
 85163  1  0  0  0
 86164  1  0  0  0
 87165  1  0  0  0
M  CHG  1  87   1
M  ISO  4   1 100  68 101  80 101  86 100
M  END
> <chiral flag>
0

> <version>
0

> <s_m_source_file>
/data/baiqing/PycharmProjects/Reinvent-master-3.2/result/LINK_invent/BTK/process_docking_weight1_custom_sum_contain_oxygen_bond_distance_aromatic_linkinvent_7_9_3/rearranged_h_0187.sdf

> <i_m_source_file_index>
35

> <r_mmod_Potential_Energy-OPLS-2005>
-1064.43884277344

> <r_mmod_Stretch_Energy-OPLS-2005>
43.7268981933594

> <r_mmod_Bend_Energy-OPLS-2005>
173.583129882812

> <r_mmod_Torsional_Energy-OPLS-2005>
293.500396728516

> <r_mmod_Improper_Torsional_Energy-OPLS-2005>
10.4818515777588

> <r_mmod_Van_der_Waal_Energy-OPLS-2005>
163.818908691406

> <r_mmod_Electrostatic_Energy-OPLS-2005>
-1316.48974609375

> <r_mmod_Solvation_Energy-OPLS-2005>
-451.092010498047

> <b_mmod_Minimization_Converged-OPLS-2005>
0

> <r_mmod_RMS_Derivative-OPLS-2005>
4.66470766067505

$$$$
35
                    3D
 Structure written by MMmdl.
155164  0  0  1  0            999 V2000
  -30.6436  -14.7273   20.4703 C   0  0  0  0  0  0
  -30.4291  -12.4471   19.4743 C   0  0  0  0  0  0
  -29.5106  -12.5135   18.2359 C   0  0  0  0  0  0
  -28.0348  -12.3488   18.6466 C   0  0  0  0  0  0
  -27.6451  -13.2402   19.8562 C   0  0  2  0  0  0
  -28.6926  -13.1749   20.9896 C   0  0  0  0  0  0
  -25.2528  -13.8222   20.5730 C   0  0  0  0  0  0
  -24.1812  -13.0454   20.9200 C   0  0  0  0  0  0
  -24.6416  -11.6935   20.8749 C   0  0  0  0  0  0
  -23.9094  -10.4306   21.0404 C   0  0  0  0  0  0
  -24.3637   -9.4220   21.9188 C   0  0  0  0  0  0
  -23.6303   -8.2260   22.0760 C   0  0  0  0  0  0
  -22.4285   -8.0299   21.3546 C   0  0  0  0  0  0
  -21.9922   -9.0274   20.4649 C   0  0  0  0  0  0
  -22.7259  -10.2149   20.3057 C   0  0  0  0  0  0
  -21.6858   -6.0749   22.5282 C   0  0  0  0  0  0
  -21.4011   -6.5646   23.8214 C   0  0  0  0  0  0
  -21.3662   -5.6796   24.9174 C   0  0  0  0  0  0
  -21.6046   -4.3063   24.7225 C   0  0  0  0  0  0
  -21.8816   -3.8152   23.4346 C   0  0  0  0  0  0
  -21.9189   -4.6970   22.3401 C   0  0  0  0  0  0
  -22.7825  -13.5231   21.1849 C   0  0  0  0  0  0
  -22.1659   -4.2157   21.0978 F   0  0  0  0  0  0
  -21.5629   -3.4543   25.7738 F   0  0  0  0  0  0
  -29.9953  -13.5144   20.4052 N   0  0  0  0  0  0
  -26.2970  -12.9443   20.3338 N   0  0  0  0  0  0
  -25.9355  -11.6575   20.5776 N   0  0  0  0  0  0
  -22.0472  -12.8216   22.0404 N   0  0  0  0  0  0
  -25.4217  -15.1949   20.4197 N   0  0  0  0  0  0
  -31.8309  -14.8021   20.1415 O   0  0  0  0  0  0
  -21.6646   -6.8893   21.4244 O   0  0  0  0  0  0
  -22.3516  -14.5546   20.6710 O   0  0  0  0  0  0
  -24.6353  -31.8558   23.2011 C   0  0  0  0  0  0
  -25.9174  -32.4753   23.8365 C   0  0  1  0  0  0
  -27.2072  -27.2402   20.1208 C   0  0  0  0  0  0
  -25.5969  -33.8562   24.2278 N   0  0  0  0  0  0
  -23.4317  -30.4828   21.5465 C   0  0  2  0  0  0
  -24.8763  -28.9405   20.1066 C   0  0  0  0  0  0
  -22.7522  -29.4610   22.4913 C   0  0  0  0  0  0
  -18.0294  -28.1384   22.8488 C   0  0  0  0  0  0
  -24.1491  -36.7274   23.2637 C   0  0  0  0  0  0
  -25.9831  -30.7602   21.3890 C   0  0  0  0  0  0
  -26.0522  -29.3840   20.7261 C   0  0  0  0  0  0
  -27.2195  -28.5459   20.7280 C   0  0  0  0  0  0
  -26.0093  -26.8975   19.4434 C   0  0  0  0  0  0
  -24.8626  -27.7052   19.4532 C   0  0  0  0  0  0
  -23.6489  -29.8279   20.1597 C   0  0  0  0  0  0
  -25.4117  -36.3072   24.0329 C   0  0  1  0  0  0
  -20.5903  -28.3705   23.1255 C   0  0  2  0  0  0
  -20.6780  -26.9416   22.5402 C   0  0  0  0  0  0
  -19.5747  -26.6379   21.5213 C   0  0  0  0  0  0
  -18.1930  -26.7925   22.1630 C   0  0  0  0  0  0
  -19.1552  -28.8863   23.2862 C   0  0  0  0  0  0
  -18.9466  -30.1462   23.8885 C   0  0  0  0  0  0
  -17.6466  -30.6585   24.0558 C   0  0  0  0  0  0
  -25.9064  -34.9443   23.5098 C   0  0  0  0  0  0
  -16.5360  -29.9076   23.6334 C   0  0  0  0  0  0
  -16.7281  -28.6494   23.0360 C   0  0  0  0  0  0
  -26.4518  -31.6581   25.0761 C   0  0  0  0  0  0
  -25.3722  -31.3748   26.1469 C   0  0  0  0  0  0
  -27.0354  -30.2984   24.6278 C   0  0  0  0  0  0
  -27.6088  -32.4309   25.7515 C   0  0  0  0  0  0
  -27.5584  -37.1791   24.8455 C   0  0  0  0  0  0
  -21.4226  -29.3056   22.3646 N   0  0  0  0  0  0
  -26.4282  -37.3777   23.9420 N   0  0  0  0  0  0
  -24.7031  -31.0505   22.1013 N   0  0  0  0  0  0
  -23.4205  -28.8142   23.3019 O   0  0  0  0  0  0
  -28.2577  -26.2794   20.2113 O   0  0  0  0  0  0
  -26.5628  -34.8911   22.4665 O   0  0  0  0  0  0
  -23.5493  -32.1402   23.7282 O   0  0  0  0  0  0
  -29.9880  -23.1863   19.8927 C   0  0  0  0  0  0
  -28.3581  -21.1524   20.7470 C   0  0  0  0  0  0
  -30.4887  -21.8417   19.9553 C   0  0  0  0  0  0
  -29.6679  -20.7396   20.3694 C   0  0  0  0  0  0
  -28.6544  -23.4925   20.2564 C   0  0  0  0  0  0
  -29.6746  -16.9123   19.6323 C   0  0  0  0  0  0
  -30.4277  -17.0376   21.5094 C   0  0  0  0  0  0
  -29.5571  -18.0411   20.6971 C   0  0  0  0  0  0
  -31.9281  -21.5930   19.5369 C   0  0  0  0  0  0
  -27.8752  -24.8478   19.9004 C   0  0  0  0  0  0
  -27.8841  -22.4441   20.6895 N   0  0  0  0  0  0
  -29.9103  -15.8873   20.7002 N   0  0  0  0  0  0
  -30.1886  -19.3783   20.3699 N   0  0  0  0  0  0
  -31.4724  -12.5559   19.1740 H   0  0  0  0  0  0
  -30.3583  -11.4701   19.9554 H   0  0  0  0  0  0
  -29.7871  -11.7428   17.5152 H   0  0  0  0  0  0
  -29.6470  -13.4692   17.7265 H   0  0  0  0  0  0
  -27.8784  -11.2986   18.8956 H   0  0  0  0  0  0
  -27.3825  -12.5595   17.7977 H   0  0  0  0  0  0
  -27.6387  -14.2653   19.4850 H   0  0  0  0  0  0
  -28.7230  -12.1823   21.4396 H   0  0  0  0  0  0
  -28.4383  -13.8717   21.7902 H   0  0  0  0  0  0
  -25.2785   -9.5684   22.4765 H   0  0  0  0  0  0
  -24.0007   -7.4649   22.7486 H   0  0  0  0  0  0
  -21.0852   -8.8800   19.8959 H   0  0  0  0  0  0
  -22.3728  -10.9694   19.6165 H   0  0  0  0  0  0
  -21.2004   -7.6151   23.9726 H   0  0  0  0  0  0
  -21.1485   -6.0523   25.9080 H   0  0  0  0  0  0
  -22.0588   -2.7616   23.2847 H   0  0  0  0  0  0
  -22.4080  -11.9868   22.4778 H   0  0  0  0  0  0
  -21.1102  -13.1256   22.2631 H   0  0  0  0  0  0
  -24.6595  -15.8523   20.5434 H   0  0  0  0  0  0
  -26.2889  -15.6386   20.1434 H   0  0  0  0  0  0
  -26.7248  -32.5376   23.1113 H   0  0  0  0  0  0
  -25.0132  -33.9704   25.0433 H   0  0  0  0  0  0
  -22.7296  -31.3072   21.4043 H   0  0  0  0  0  0
  -23.3769  -35.9583   23.3259 H   0  0  0  0  0  0
  -24.3603  -36.8933   22.2059 H   0  0  0  0  0  0
  -23.7202  -37.6450   23.6682 H   0  0  0  0  0  0
  -26.1295  -31.5208   20.6210 H   0  0  0  0  0  0
  -26.8591  -30.8047   22.0242 H   0  0  0  0  0  0
  -28.1108  -28.8754   21.2435 H   0  0  0  0  0  0
  -25.8987  -25.9700   18.9050 H   0  0  0  0  0  0
  -23.9675  -27.3649   18.9508 H   0  0  0  0  0  0
  -23.7732  -30.6101   19.4095 H   0  0  0  0  0  0
  -22.7664  -29.2642   19.8508 H   0  0  0  0  0  0
  -25.1286  -36.1927   25.0815 H   0  0  0  0  0  0
  -20.9996  -28.3283   24.1378 H   0  0  0  0  0  0
  -20.5676  -26.2319   23.3618 H   0  0  0  0  0  0
  -21.6647  -26.7433   22.1195 H   0  0  0  0  0  0
  -19.6907  -25.6284   21.1250 H   0  0  0  0  0  0
  -19.6680  -27.3186   20.6737 H   0  0  0  0  0  0
  -17.4200  -26.6685   21.4028 H   0  0  0  0  0  0
  -18.0328  -26.0060   22.9018 H   0  0  0  0  0  0
  -19.7940  -30.7286   24.2248 H   0  0  0  0  0  0
  -17.5010  -31.6266   24.5162 H   0  0  0  0  0  0
  -15.5358  -30.2974   23.7653 H   0  0  0  0  0  0
  -15.8682  -28.0799   22.7094 H   0  0  0  0  0  0
  -24.5922  -30.7063   25.7802 H   0  0  0  0  0  0
  -24.8881  -32.2914   26.4849 H   0  0  0  0  0  0
  -25.8026  -30.8969   27.0277 H   0  0  0  0  0  0
  -26.2951  -29.6734   24.1267 H   0  0  0  0  0  0
  -27.3970  -29.7253   25.4827 H   0  0  0  0  0  0
  -27.8862  -30.4237   23.9574 H   0  0  0  0  0  0
  -27.2742  -33.3647   26.2046 H   0  0  0  0  0  0
  -28.3920  -32.6801   25.0340 H   0  0  0  0  0  0
  -28.0724  -31.8446   26.5459 H   0  0  0  0  0  0
  -28.2566  -38.0125   24.7568 H   0  0  0  0  0  0
  -28.1123  -36.2666   24.6201 H   0  0  0  0  0  0
  -27.2320  -37.1330   25.8859 H   0  0  0  0  0  0
  -20.9412  -29.8806   21.6872 H   0  0  0  0  0  0
  -26.0158  -38.2838   24.1464 H   0  0  0  0  0  0
  -30.6144  -23.9807   19.5107 H   0  0  0  0  0  0
  -27.6463  -20.4146   21.0890 H   0  0  0  0  0  0
  -30.5194  -17.0346   18.9502 H   0  0  0  0  0  0
  -28.7541  -16.7639   19.0660 H   0  0  0  0  0  0
  -30.1613  -16.9978   22.5664 H   0  0  0  0  0  0
  -31.5038  -17.1995   21.4007 H   0  0  0  0  0  0
  -28.5461  -18.1216   21.1003 H   0  0  0  0  0  0
  -32.3972  -22.5002   19.1554 H   0  0  0  0  0  0
  -31.9794  -20.8400   18.7505 H   0  0  0  0  0  0
  -32.5143  -21.2461   20.3882 H   0  0  0  0  0  0
  -26.8966  -24.6835   20.3539 H   0  0  0  0  0  0
  -27.7301  -24.7937   18.8209 H   0  0  0  0  0  0
  -31.1600  -19.3040   20.0798 H   0  0  0  0  0  0
  1 25  1  0  0  0
  1 30  2  0  0  0
  1 82  1  0  0  0
  2  3  1  0  0  0
  2 25  1  0  0  0
  2 84  1  0  0  0
  2 85  1  0  0  0
  3  4  1  0  0  0
  3 86  1  0  0  0
  3 87  1  0  0  0
  4  5  1  0  0  0
  4 88  1  0  0  0
  4 89  1  0  0  0
  5  6  1  0  0  0
  5 26  1  0  0  0
  5 90  1  0  0  0
  6 25  1  0  0  0
  6 91  1  0  0  0
  6 92  1  0  0  0
  7  8  2  0  0  0
  7 26  1  0  0  0
  7 29  1  0  0  0
  8  9  1  0  0  0
  8 22  1  0  0  0
  9 10  1  0  0  0
  9 27  2  0  0  0
 10 11  2  0  0  0
 10 15  1  0  0  0
 11 12  1  0  0  0
 11 93  1  0  0  0
 12 13  2  0  0  0
 12 94  1  0  0  0
 13 14  1  0  0  0
 13 31  1  0  0  0
 14 15  2  0  0  0
 14 95  1  0  0  0
 15 96  1  0  0  0
 16 17  2  0  0  0
 16 21  1  0  0  0
 16 31  1  0  0  0
 17 18  1  0  0  0
 17 97  1  0  0  0
 18 19  2  0  0  0
 18 98  1  0  0  0
 19 20  1  0  0  0
 19 24  1  0  0  0
 20 21  2  0  0  0
 20 99  1  0  0  0
 21 23  1  0  0  0
 22 28  1  0  0  0
 22 32  2  0  0  0
 26 27  1  0  0  0
 28100  1  0  0  0
 28101  1  0  0  0
 29102  1  0  0  0
 29103  1  0  0  0
 33 34  1  0  0  0
 33 66  1  0  0  0
 33 70  2  0  0  0
 34 36  1  0  0  0
 34 59  1  0  0  0
 34104  1  0  0  0
 35 44  2  0  0  0
 35 45  1  0  0  0
 35 68  1  0  0  0
 36 56  1  0  0  0
 36105  1  0  0  0
 37 39  1  0  0  0
 37 47  1  0  0  0
 37 66  1  0  0  0
 37106  1  0  0  0
 38 43  2  0  0  0
 38 46  1  0  0  0
 38 47  1  0  0  0
 39 64  1  0  0  0
 39 67  2  0  0  0
 40 52  1  0  0  0
 40 53  2  0  0  0
 40 58  1  0  0  0
 41107  1  0  0  0
 41108  1  0  0  0
 41109  1  0  0  0
 41 48  1  0  0  0
 42 43  1  0  0  0
 42 66  1  0  0  0
 42110  1  0  0  0
 42111  1  0  0  0
 43 44  1  0  0  0
 44112  1  0  0  0
 45 46  2  0  0  0
 45113  1  0  0  0
 46114  1  0  0  0
 47115  1  0  0  0
 47116  1  0  0  0
 48 56  1  0  0  0
 48 65  1  0  0  0
 48117  1  0  0  0
 49 50  1  0  0  0
 49 53  1  0  0  0
 49 64  1  0  0  0
 49118  1  0  0  0
 50 51  1  0  0  0
 50119  1  0  0  0
 50120  1  0  0  0
 51 52  1  0  0  0
 51121  1  0  0  0
 51122  1  0  0  0
 52123  1  0  0  0
 52124  1  0  0  0
 53 54  1  0  0  0
 54 55  2  0  0  0
 54125  1  0  0  0
 55 57  1  0  0  0
 55126  1  0  0  0
 56 69  2  0  0  0
 57 58  2  0  0  0
 57127  1  0  0  0
 58128  1  0  0  0
 59 60  1  0  0  0
 59 61  1  0  0  0
 59 62  1  0  0  0
 60129  1  0  0  0
 60130  1  0  0  0
 60131  1  0  0  0
 61132  1  0  0  0
 61133  1  0  0  0
 61134  1  0  0  0
 62135  1  0  0  0
 62136  1  0  0  0
 62137  1  0  0  0
 63 65  1  0  0  0
 63138  1  0  0  0
 63139  1  0  0  0
 63140  1  0  0  0
 64141  1  0  0  0
 65142  1  0  0  0
 68 80  1  0  0  0
 71 73  2  0  0  0
 71 75  1  0  0  0
 71143  1  0  0  0
 72 74  2  0  0  0
 72 81  1  0  0  0
 72144  1  0  0  0
 73 74  1  0  0  0
 73 79  1  0  0  0
 74 83  1  0  0  0
 75 80  1  0  0  0
 75 81  2  0  0  0
 76 78  1  0  0  0
 76 82  1  0  0  0
 76145  1  0  0  0
 76146  1  0  0  0
 77 78  1  0  0  0
 77 82  1  0  0  0
 77147  1  0  0  0
 77148  1  0  0  0
 78 83  1  0  0  0
 78149  1  0  0  0
 79150  1  0  0  0
 79151  1  0  0  0
 79152  1  0  0  0
 80153  1  0  0  0
 80154  1  0  0  0
 83155  1  0  0  0
M  ISO  4   1 100  68 101  80 101  82 100
M  END
> <chiral flag>
0

> <version>
0

> <s_m_source_file>
/data/baiqing/PycharmProjects/Reinvent-master-3.2/result/LINK_invent/BTK/process_docking_weight1_custom_sum_contain_oxygen_bond_distance_aromatic_linkinvent_7_9_3/rearranged_h_0187.sdf

> <i_m_source_file_index>
36

> <r_mmod_Potential_Energy-OPLS-2005>
217.249176025391

> <r_mmod_Stretch_Energy-OPLS-2005>
115.188262939453

> <r_mmod_Bend_Energy-OPLS-2005>
209.724380493164

> <r_mmod_Torsional_Energy-OPLS-2005>
262.366302490234

> <r_mmod_Improper_Torsional_Energy-OPLS-2005>
13.8850154876709

> <r_mmod_Van_der_Waal_Energy-OPLS-2005>
150.086776733398

> <r_mmod_Electrostatic_Energy-OPLS-2005>
-409.85595703125

> <r_mmod_Solvation_Energy-OPLS-2005>
-218.328689575195

> <b_mmod_Minimization_Converged-OPLS-2005>
0

> <r_mmod_RMS_Derivative-OPLS-2005>
1.38150000572205

$$$$
36
                    3D
 Structure written by MMmdl.
152161  0  0  1  0            999 V2000
  -30.4158  -15.4963   20.3552 C   0  0  0  0  0  0
  -30.4120  -12.9823   19.5380 C   0  0  0  0  0  0
  -29.5375  -12.6248   18.3095 C   0  0  0  0  0  0
  -28.1024  -12.3020   18.7484 C   0  0  0  0  0  0
  -27.5948  -13.3028   19.8132 C   0  0  2  0  0  0
  -28.6154  -13.6088   20.9349 C   0  0  0  0  0  0
  -25.2331  -13.8289   20.5819 C   0  0  0  0  0  0
  -24.1697  -13.0442   20.9277 C   0  0  0  0  0  0
  -24.6390  -11.6953   20.8751 C   0  0  0  0  0  0
  -23.9089  -10.4301   21.0389 C   0  0  0  0  0  0
  -24.3636   -9.4213   21.9167 C   0  0  0  0  0  0
  -23.6308   -8.2244   22.0751 C   0  0  0  0  0  0
  -22.4289   -8.0280   21.3543 C   0  0  0  0  0  0
  -21.9926   -9.0249   20.4638 C   0  0  0  0  0  0
  -22.7259  -10.2132   20.3041 C   0  0  0  0  0  0
  -21.6869   -6.0741   22.5279 C   0  0  0  0  0  0
  -21.4019   -6.5636   23.8208 C   0  0  0  0  0  0
  -21.3662   -5.6786   24.9169 C   0  0  0  0  0  0
  -21.6041   -4.3048   24.7217 C   0  0  0  0  0  0
  -21.8816   -3.8148   23.4340 C   0  0  0  0  0  0
  -21.9191   -4.6964   22.3397 C   0  0  0  0  0  0
  -22.7713  -13.5185   21.1900 C   0  0  0  0  0  0
  -22.1658   -4.2149   21.0978 F   0  0  0  0  0  0
  -21.5628   -3.4528   25.7731 F   0  0  0  0  0  0
  -29.8085  -14.1800   20.2763 N   0  0  0  0  0  0
  -26.2760  -12.9607   20.3236 N   0  0  0  0  0  0
  -25.9331  -11.6681   20.5685 N   0  0  0  0  0  0
  -22.0383  -12.8157   22.0455 N   0  0  0  0  0  0
  -25.3976  -15.2034   20.4349 N   0  0  0  0  0  0
  -31.6391  -15.3602   20.1689 O   0  0  0  0  0  0
  -21.6651   -6.8882   21.4244 O   0  0  0  0  0  0
  -22.3385  -14.5487   20.6749 O   0  0  0  0  0  0
  -24.6751  -31.8079   23.1563 C   0  0  0  0  0  0
  -25.9371  -32.4502   23.8082 C   0  0  1  0  0  0
  -27.2246  -26.7805   20.2060 C   0  0  0  0  0  0
  -25.5990  -33.8327   24.1989 N   0  0  0  0  0  0
  -23.4970  -30.4124   21.5077 C   0  0  2  0  0  0
  -24.9556  -28.7672   20.1107 C   0  0  0  0  0  0
  -22.7727  -29.4356   22.4720 C   0  0  0  0  0  0
  -18.0341  -28.1417   22.8443 C   0  0  0  0  0  0
  -24.1496  -36.7176   23.2647 C   0  0  0  0  0  0
  -26.0726  -30.5657   21.4095 C   0  0  0  0  0  0
  -26.1396  -29.1388   20.7580 C   0  0  0  0  0  0
  -27.2592  -28.1680   20.7810 C   0  0  0  0  0  0
  -26.0152  -26.5996   19.4925 C   0  0  0  0  0  0
  -24.9290  -27.5230   19.4538 C   0  0  0  0  0  0
  -23.7461  -29.7126   20.1395 C   0  0  0  0  0  0
  -25.4140  -36.2925   24.0287 C   0  0  1  0  0  0
  -20.5971  -28.3774   23.1146 C   0  0  2  0  0  0
  -20.6814  -26.9441   22.5391 C   0  0  0  0  0  0
  -19.5795  -26.6372   21.5196 C   0  0  0  0  0  0
  -18.1976  -26.7947   22.1604 C   0  0  0  0  0  0
  -19.1605  -28.8917   23.2784 C   0  0  0  0  0  0
  -18.9509  -30.1499   23.8826 C   0  0  0  0  0  0
  -17.6500  -30.6594   24.0554 C   0  0  0  0  0  0
  -25.9114  -34.9306   23.4973 C   0  0  0  0  0  0
  -16.5390  -29.9080   23.6351 C   0  0  0  0  0  0
  -16.7323  -28.6512   23.0345 C   0  0  0  0  0  0
  -26.4583  -31.6499   25.0670 C   0  0  0  0  0  0
  -25.3667  -31.3797   26.1301 C   0  0  0  0  0  0
  -27.0501  -30.2844   24.6510 C   0  0  0  0  0  0
  -27.6047  -32.4345   25.7484 C   0  0  0  0  0  0
  -27.5564  -37.1754   24.8465 C   0  0  0  0  0  0
  -21.4384  -29.3039   22.3482 N   0  0  0  0  0  0
  -26.4276  -37.3672   23.9406 N   0  0  0  0  0  0
  -24.7708  -30.9595   22.0776 N   0  0  0  0  0  0
  -23.4217  -28.7951   23.3026 O   0  0  0  0  0  0
  -28.2012  -25.6076   20.3370 O   0  0  0  0  0  0
  -26.5756  -34.8863   22.4592 O   0  0  0  0  0  0
  -23.5796  -32.1118   23.6570 O   0  0  0  0  0  0
  -27.6560  -22.9454   20.9331 C   0  0  0  0  0  0
  -26.6128  -22.7633   21.7559 C   0  0  0  0  0  0
  -28.5822  -17.7408   20.7885 C   0  0  0  0  0  0
  -30.4950  -18.1763   19.6120 C   0  0  0  0  0  0
  -28.4315  -19.4503   21.0900 C   0  0  0  0  0  0
  -30.2890  -19.8612   19.8899 C   0  0  0  0  0  0
  -28.9694  -22.3154   20.5536 C   0  0  2  0  0  0
  -28.1780  -23.9280   19.9355 C   0  0  2  0  0  0
  -29.8350  -16.9314   20.3001 N   0  0  0  0  0  0
  -28.9471  -20.6149   20.1625 N   0  3  0  0  0  0
  -31.4246  -13.1846   19.1886 H   0  0  0  0  0  0
  -30.5125  -12.1189   20.1989 H   0  0  0  0  0  0
  -29.9641  -11.7810   17.7641 H   0  0  0  0  0  0
  -29.5255  -13.4663   17.6157 H   0  0  0  0  0  0
  -28.1028  -11.2944   19.1641 H   0  0  0  0  0  0
  -27.4334  -12.2781   17.8875 H   0  0  0  0  0  0
  -27.4672  -14.2347   19.2602 H   0  0  0  0  0  0
  -28.8444  -12.7239   21.5315 H   0  0  0  0  0  0
  -28.2047  -14.3498   21.6225 H   0  0  0  0  0  0
  -25.2775   -9.5696   22.4737 H   0  0  0  0  0  0
  -24.0021   -7.4650   22.7480 H   0  0  0  0  0  0
  -21.0853   -8.8767   19.8954 H   0  0  0  0  0  0
  -22.3705  -10.9667   19.6150 H   0  0  0  0  0  0
  -21.2020   -7.6148   23.9713 H   0  0  0  0  0  0
  -21.1488   -6.0514   25.9070 H   0  0  0  0  0  0
  -22.0599   -2.7610   23.2834 H   0  0  0  0  0  0
  -22.4024  -11.9844   22.4864 H   0  0  0  0  0  0
  -21.0988  -13.1146   22.2661 H   0  0  0  0  0  0
  -24.6337  -15.8564   20.5714 H   0  0  0  0  0  0
  -26.2510  -15.6512   20.1303 H   0  0  0  0  0  0
  -26.7450  -32.5010   23.0797 H   0  0  0  0  0  0
  -25.0050  -33.9390   25.0083 H   0  0  0  0  0  0
  -22.8168  -31.2475   21.3240 H   0  0  0  0  0  0
  -23.3768  -35.9495   23.3278 H   0  0  0  0  0  0
  -24.3549  -36.8869   22.2064 H   0  0  0  0  0  0
  -23.7250  -37.6347   23.6737 H   0  0  0  0  0  0
  -26.2667  -31.2968   20.6231 H   0  0  0  0  0  0
  -26.9266  -30.6296   22.0715 H   0  0  0  0  0  0
  -28.1468  -28.4519   21.3301 H   0  0  0  0  0  0
  -25.8666  -25.6507   18.9963 H   0  0  0  0  0  0
  -24.0346  -27.2336   18.9203 H   0  0  0  0  0  0
  -23.9118  -30.4765   19.3787 H   0  0  0  0  0  0
  -22.8530  -29.1747   19.8174 H   0  0  0  0  0  0
  -25.1349  -36.1695   25.0776 H   0  0  0  0  0  0
  -21.0049  -28.3396   24.1275 H   0  0  0  0  0  0
  -20.5674  -26.2396   23.3646 H   0  0  0  0  0  0
  -21.6676  -26.7401   22.1209 H   0  0  0  0  0  0
  -19.6948  -25.6264   21.1274 H   0  0  0  0  0  0
  -19.6745  -27.3139   20.6692 H   0  0  0  0  0  0
  -17.4247  -26.6690   21.4008 H   0  0  0  0  0  0
  -18.0366  -26.0099   22.9012 H   0  0  0  0  0  0
  -19.7982  -30.7340   24.2161 H   0  0  0  0  0  0
  -17.5052  -31.6259   24.5189 H   0  0  0  0  0  0
  -15.5386  -30.2965   23.7705 H   0  0  0  0  0  0
  -15.8726  -28.0818   22.7084 H   0  0  0  0  0  0
  -24.5870  -30.7128   25.7600 H   0  0  0  0  0  0
  -24.8841  -32.3019   26.4549 H   0  0  0  0  0  0
  -25.7862  -30.9075   27.0195 H   0  0  0  0  0  0
  -26.3192  -29.6483   24.1507 H   0  0  0  0  0  0
  -27.3962  -29.7251   25.5212 H   0  0  0  0  0  0
  -27.9163  -30.3981   23.9986 H   0  0  0  0  0  0
  -27.2587  -33.3697   26.1891 H   0  0  0  0  0  0
  -28.3940  -32.6833   25.0378 H   0  0  0  0  0  0
  -28.0622  -31.8595   26.5546 H   0  0  0  0  0  0
  -28.2571  -38.0057   24.7498 H   0  0  0  0  0  0
  -28.1084  -36.2593   24.6323 H   0  0  0  0  0  0
  -27.2283  -37.1405   25.8866 H   0  0  0  0  0  0
  -20.9661  -29.8715   21.6586 H   0  0  0  0  0  0
  -26.0118  -38.2732   24.1400 H   0  0  0  0  0  0
  -26.5550  -21.9037   22.4079 H   0  0  0  0  0  0
  -25.8015  -23.4755   21.7890 H   0  0  0  0  0  0
  -27.8163  -17.5049   20.0495 H   0  0  0  0  0  0
  -28.2424  -17.2338   21.6921 H   0  0  0  0  0  0
  -31.5712  -18.0013   19.6598 H   0  0  0  0  0  0
  -30.2601  -18.0322   18.5573 H   0  0  0  0  0  0
  -28.9002  -19.6299   22.0598 H   0  0  0  0  0  0
  -27.3751  -19.6531   21.2656 H   0  0  0  0  0  0
  -30.7641  -20.3847   19.0604 H   0  0  0  0  0  0
  -30.9217  -20.1021   20.7447 H   0  0  0  0  0  0
  -29.8338  -22.4651   21.1980 H   0  0  0  0  0  0
  -27.8533  -23.8758   18.8974 H   0  0  0  0  0  0
  -28.4061  -20.5496   19.3141 H   0  0  0  0  0  0
  1 25  1  0  0  0
  1 30  2  0  0  0
  1 79  1  0  0  0
  2  3  1  0  0  0
  2 25  1  0  0  0
  2 81  1  0  0  0
  2 82  1  0  0  0
  3  4  1  0  0  0
  3 83  1  0  0  0
  3 84  1  0  0  0
  4  5  1  0  0  0
  4 85  1  0  0  0
  4 86  1  0  0  0
  5  6  1  0  0  0
  5 26  1  0  0  0
  5 87  1  0  0  0
  6 25  1  0  0  0
  6 88  1  0  0  0
  6 89  1  0  0  0
  7  8  2  0  0  0
  7 26  1  0  0  0
  7 29  1  0  0  0
  8  9  1  0  0  0
  8 22  1  0  0  0
  9 10  1  0  0  0
  9 27  2  0  0  0
 10 11  2  0  0  0
 10 15  1  0  0  0
 11 12  1  0  0  0
 11 90  1  0  0  0
 12 13  2  0  0  0
 12 91  1  0  0  0
 13 14  1  0  0  0
 13 31  1  0  0  0
 14 15  2  0  0  0
 14 92  1  0  0  0
 15 93  1  0  0  0
 16 17  2  0  0  0
 16 21  1  0  0  0
 16 31  1  0  0  0
 17 18  1  0  0  0
 17 94  1  0  0  0
 18 19  2  0  0  0
 18 95  1  0  0  0
 19 20  1  0  0  0
 19 24  1  0  0  0
 20 21  2  0  0  0
 20 96  1  0  0  0
 21 23  1  0  0  0
 22 28  1  0  0  0
 22 32  2  0  0  0
 26 27  1  0  0  0
 28 97  1  0  0  0
 28 98  1  0  0  0
 29 99  1  0  0  0
 29100  1  0  0  0
 33 34  1  0  0  0
 33 66  1  0  0  0
 33 70  2  0  0  0
 34 36  1  0  0  0
 34 59  1  0  0  0
 34101  1  0  0  0
 35 44  2  0  0  0
 35 45  1  0  0  0
 35 68  1  0  0  0
 36 56  1  0  0  0
 36102  1  0  0  0
 37 39  1  0  0  0
 37 47  1  0  0  0
 37 66  1  0  0  0
 37103  1  0  0  0
 38 43  2  0  0  0
 38 46  1  0  0  0
 38 47  1  0  0  0
 39 64  1  0  0  0
 39 67  2  0  0  0
 40 52  1  0  0  0
 40 53  2  0  0  0
 40 58  1  0  0  0
 41104  1  0  0  0
 41105  1  0  0  0
 41106  1  0  0  0
 41 48  1  0  0  0
 42 43  1  0  0  0
 42 66  1  0  0  0
 42107  1  0  0  0
 42108  1  0  0  0
 43 44  1  0  0  0
 44109  1  0  0  0
 45 46  2  0  0  0
 45110  1  0  0  0
 46111  1  0  0  0
 47112  1  0  0  0
 47113  1  0  0  0
 48 56  1  0  0  0
 48 65  1  0  0  0
 48114  1  0  0  0
 49 50  1  0  0  0
 49 53  1  0  0  0
 49 64  1  0  0  0
 49115  1  0  0  0
 50 51  1  0  0  0
 50116  1  0  0  0
 50117  1  0  0  0
 51 52  1  0  0  0
 51118  1  0  0  0
 51119  1  0  0  0
 52120  1  0  0  0
 52121  1  0  0  0
 53 54  1  0  0  0
 54 55  2  0  0  0
 54122  1  0  0  0
 55 57  1  0  0  0
 55123  1  0  0  0
 56 69  2  0  0  0
 57 58  2  0  0  0
 57124  1  0  0  0
 58125  1  0  0  0
 59 60  1  0  0  0
 59 61  1  0  0  0
 59 62  1  0  0  0
 60126  1  0  0  0
 60127  1  0  0  0
 60128  1  0  0  0
 61129  1  0  0  0
 61130  1  0  0  0
 61131  1  0  0  0
 62132  1  0  0  0
 62133  1  0  0  0
 62134  1  0  0  0
 63 65  1  0  0  0
 63135  1  0  0  0
 63136  1  0  0  0
 63137  1  0  0  0
 64138  1  0  0  0
 65139  1  0  0  0
 68 78  1  0  0  0
 71 72  2  0  0  0
 71 78  1  0  0  0
 71 77  1  0  0  0
 72140  1  0  0  0
 72141  1  0  0  0
 73 75  1  0  0  0
 73 79  1  0  0  0
 73142  1  0  0  0
 73143  1  0  0  0
 74 76  1  0  0  0
 74 79  1  0  0  0
 74144  1  0  0  0
 74145  1  0  0  0
 75146  1  0  0  0
 75147  1  0  0  0
 75 80  1  0  0  0
 76 80  1  0  0  0
 76148  1  0  0  0
 76149  1  0  0  0
 77 78  1  0  0  0
 77 80  1  0  0  0
 77150  1  0  0  0
 78151  1  0  0  0
 80152  1  0  0  0
M  CHG  1  80   1
M  ISO  4   1 100  68 101  78 101  79 100
M  END
> <chiral flag>
0

> <version>
0

> <s_m_source_file>
/data/baiqing/PycharmProjects/Reinvent-master-3.2/result/LINK_invent/BTK/process_docking_weight1_custom_sum_contain_oxygen_bond_distance_aromatic_linkinvent_7_9_3/rearranged_h_0187.sdf

> <i_m_source_file_index>
37

> <r_mmod_Potential_Energy-OPLS-2005>
2057.47119140625

> <r_mmod_Stretch_Energy-OPLS-2005>
839.276550292969

> <r_mmod_Bend_Energy-OPLS-2005>
712.519287109375

> <r_mmod_Torsional_Energy-OPLS-2005>
376.885528564453

> <r_mmod_Improper_Torsional_Energy-OPLS-2005>
9.11653900146484

> <r_mmod_Van_der_Waal_Energy-OPLS-2005>
109.752098083496

> <r_mmod_Electrostatic_Energy-OPLS-2005>
-228.927322387695

> <r_mmod_Solvation_Energy-OPLS-2005>
-476.958984375

> <b_mmod_Minimization_Converged-OPLS-2005>
0

> <r_mmod_RMS_Derivative-OPLS-2005>
1.74762630462646

$$$$
37
                    3D
 Structure written by MMmdl.
156166  0  0  1  0            999 V2000
  -30.5438  -14.9867   20.3874 C   0  0  0  0  0  0
  -30.4345  -12.6103   19.5030 C   0  0  0  0  0  0
  -29.5179  -12.5076   18.2622 C   0  0  0  0  0  0
  -28.0562  -12.2782   18.6914 C   0  0  0  0  0  0
  -27.6162  -13.2340   19.8295 C   0  0  2  0  0  0
  -28.6599  -13.3320   20.9626 C   0  0  0  0  0  0
  -25.2445  -13.8151   20.5757 C   0  0  0  0  0  0
  -24.1734  -13.0397   20.9222 C   0  0  0  0  0  0
  -24.6334  -11.6873   20.8776 C   0  0  0  0  0  0
  -23.9036  -10.4254   21.0447 C   0  0  0  0  0  0
  -24.3596   -9.4181   21.9223 C   0  0  0  0  0  0
  -23.6268   -8.2223   22.0790 C   0  0  0  0  0  0
  -22.4258   -8.0262   21.3566 C   0  0  0  0  0  0
  -21.9890   -9.0230   20.4676 C   0  0  0  0  0  0
  -22.7212  -10.2104   20.3094 C   0  0  0  0  0  0
  -21.6829   -6.0731   22.5284 C   0  0  0  0  0  0
  -21.3984   -6.5646   23.8214 C   0  0  0  0  0  0
  -21.3658   -5.6809   24.9178 C   0  0  0  0  0  0
  -21.6046   -4.3071   24.7228 C   0  0  0  0  0  0
  -21.8813   -3.8157   23.4349 C   0  0  0  0  0  0
  -21.9169   -4.6966   22.3401 C   0  0  0  0  0  0
  -22.7762  -13.5192   21.1879 C   0  0  0  0  0  0
  -22.1646   -4.2158   21.0978 F   0  0  0  0  0  0
  -21.5647   -3.4550   25.7739 F   0  0  0  0  0  0
  -29.9337  -13.7309   20.3515 N   0  0  0  0  0  0
  -26.2828  -12.9342   20.3271 N   0  0  0  0  0  0
  -25.9256  -11.6501   20.5767 N   0  0  0  0  0  0
  -22.0395  -12.8213   22.0448 N   0  0  0  0  0  0
  -25.4156  -15.1876   20.4239 N   0  0  0  0  0  0
  -31.7675  -15.0113   20.2239 O   0  0  0  0  0  0
  -21.6619   -6.8862   21.4244 O   0  0  0  0  0  0
  -22.3463  -14.5489   20.6699 O   0  0  0  0  0  0
  -24.6413  -31.8420   23.1865 C   0  0  0  0  0  0
  -25.9183  -32.4677   23.8242 C   0  0  1  0  0  0
  -27.2232  -27.1311   20.1722 C   0  0  0  0  0  0
  -25.5936  -33.8488   24.2165 N   0  0  0  0  0  0
  -23.4447  -30.4559   21.5341 C   0  0  2  0  0  0
  -24.8976  -28.8795   20.1131 C   0  0  0  0  0  0
  -22.7549  -29.4505   22.4879 C   0  0  0  0  0  0
  -18.0281  -28.1355   22.8462 C   0  0  0  0  0  0
  -24.1508  -36.7270   23.2648 C   0  0  0  0  0  0
  -25.9980  -30.7163   21.3826 C   0  0  0  0  0  0
  -26.0736  -29.3246   20.7285 C   0  0  0  0  0  0
  -27.2386  -28.4691   20.7369 C   0  0  0  0  0  0
  -26.0232  -26.7836   19.5150 C   0  0  0  0  0  0
  -24.8846  -27.6223   19.4869 C   0  0  0  0  0  0
  -23.6707  -29.7793   20.1551 C   0  0  0  0  0  0
  -25.4138  -36.3025   24.0313 C   0  0  1  0  0  0
  -20.5890  -28.3687   23.1247 C   0  0  2  0  0  0
  -20.6783  -26.9392   22.5409 C   0  0  0  0  0  0
  -19.5767  -26.6352   21.5205 C   0  0  0  0  0  0
  -18.1931  -26.7881   22.1598 C   0  0  0  0  0  0
  -19.1538  -28.8835   23.2837 C   0  0  0  0  0  0
  -18.9466  -30.1431   23.8865 C   0  0  0  0  0  0
  -17.6468  -30.6571   24.0536 C   0  0  0  0  0  0
  -25.9083  -34.9394   23.5054 C   0  0  0  0  0  0
  -16.5354  -29.9062   23.6328 C   0  0  0  0  0  0
  -16.7272  -28.6472   23.0366 C   0  0  0  0  0  0
  -26.4520  -31.6540   25.0680 C   0  0  0  0  0  0
  -25.3716  -31.3692   26.1396 C   0  0  0  0  0  0
  -27.0400  -30.2935   24.6249 C   0  0  0  0  0  0
  -27.6064  -32.4319   25.7451 C   0  0  0  0  0  0
  -27.5581  -37.1775   24.8454 C   0  0  0  0  0  0
  -21.4246  -29.3016   22.3633 N   0  0  0  0  0  0
  -26.4289  -37.3743   23.9408 N   0  0  0  0  0  0
  -24.7137  -31.0265   22.0894 N   0  0  0  0  0  0
  -23.4188  -28.8057   23.3028 O   0  0  0  0  0  0
  -28.2795  -26.1511   20.2494 O   0  0  0  0  0  0
  -26.5688  -34.8895   22.4651 O   0  0  0  0  0  0
  -23.5536  -32.1311   23.7092 O   0  0  0  0  0  0
  -29.6511  -20.5061   20.1939 C   0  0  0  0  0  0
  -28.8318  -21.6618   20.6042 C   0  0  0  0  0  0
  -29.3698  -19.1164   20.6047 C   0  0  0  0  0  0
  -27.5906  -20.0528   21.7594 C   0  0  0  0  0  0
  -30.0366  -17.4563   18.6965 C   0  0  0  0  0  0
  -28.3772  -23.8895   19.0811 C   0  0  0  0  0  0
  -28.9926  -16.4193   19.1087 C   0  0  0  0  0  0
  -29.0158  -23.2867   20.3187 C   0  0  1  0  0  0
  -30.1911  -17.7405   20.1801 C   0  0  2  0  0  0
  -27.9934  -24.6141   20.3466 C   0  0  1  0  0  0
  -26.4315  -19.8088   22.7014 C   0  0  0  0  0  0
  -27.8047  -21.3323   21.4163 N   0  0  0  0  0  0
  -28.2906  -18.9675   21.3972 N   0  0  0  0  0  0
  -29.7798  -16.2014   20.3357 N   0  0  0  0  0  0
  -31.4670  -12.7703   19.1870 H   0  0  0  0  0  0
  -30.4342  -11.6751   20.0660 H   0  0  0  0  0  0
  -29.8496  -11.6957   17.6147 H   0  0  0  0  0  0
  -29.5895  -13.4191   17.6684 H   0  0  0  0  0  0
  -27.9764  -11.2462   19.0363 H   0  0  0  0  0  0
  -27.3854  -12.3633   17.8360 H   0  0  0  0  0  0
  -27.5402  -14.2103   19.3618 H   0  0  0  0  0  0
  -28.7561  -12.3889   21.5013 H   0  0  0  0  0  0
  -28.3480  -14.0813   21.6923 H   0  0  0  0  0  0
  -25.2733   -9.5646   22.4805 H   0  0  0  0  0  0
  -23.9971   -7.4607   22.7519 H   0  0  0  0  0  0
  -21.0831   -8.8739   19.8976 H   0  0  0  0  0  0
  -22.3681  -10.9652   19.6212 H   0  0  0  0  0  0
  -21.1972   -7.6151   23.9711 H   0  0  0  0  0  0
  -21.1497   -6.0545   25.9079 H   0  0  0  0  0  0
  -22.0594   -2.7622   23.2844 H   0  0  0  0  0  0
  -22.3985  -11.9870   22.4850 H   0  0  0  0  0  0
  -21.1033  -13.1290   22.2664 H   0  0  0  0  0  0
  -24.6574  -15.8466   20.5630 H   0  0  0  0  0  0
  -26.2890  -15.6325   20.1740 H   0  0  0  0  0  0
  -26.7234  -32.5279   23.0962 H   0  0  0  0  0  0
  -25.0027  -33.9596   25.0269 H   0  0  0  0  0  0
  -22.7463  -31.2809   21.3764 H   0  0  0  0  0  0
  -23.3765  -35.9598   23.3273 H   0  0  0  0  0  0
  -24.3600  -36.8959   22.2065 H   0  0  0  0  0  0
  -23.7261  -37.6458   23.6729 H   0  0  0  0  0  0
  -26.1443  -31.4648   20.6035 H   0  0  0  0  0  0
  -26.8715  -30.7738   22.0194 H   0  0  0  0  0  0
  -28.1348  -28.8062   21.2375 H   0  0  0  0  0  0
  -25.9436  -25.8166   19.0382 H   0  0  0  0  0  0
  -23.9869  -27.2761   18.9940 H   0  0  0  0  0  0
  -23.7987  -30.5541   19.3964 H   0  0  0  0  0  0
  -22.7859  -29.2183   19.8499 H   0  0  0  0  0  0
  -25.1304  -36.1864   25.0792 H   0  0  0  0  0  0
  -20.9941  -28.3277   24.1387 H   0  0  0  0  0  0
  -20.5688  -26.2283   23.3615 H   0  0  0  0  0  0
  -21.6646  -26.7426   22.1194 H   0  0  0  0  0  0
  -19.6967  -25.6268   21.1236 H   0  0  0  0  0  0
  -19.6726  -27.3160   20.6724 H   0  0  0  0  0  0
  -17.4216  -26.6617   21.3990 H   0  0  0  0  0  0
  -18.0344  -26.0010   22.8972 H   0  0  0  0  0  0
  -19.7954  -30.7223   24.2238 H   0  0  0  0  0  0
  -17.5042  -31.6260   24.5128 H   0  0  0  0  0  0
  -15.5359  -30.2965   23.7693 H   0  0  0  0  0  0
  -15.8652  -28.0791   22.7130 H   0  0  0  0  0  0
  -24.5918  -30.7021   25.7709 H   0  0  0  0  0  0
  -24.8876  -32.2837   26.4813 H   0  0  0  0  0  0
  -25.8002  -30.8873   27.0185 H   0  0  0  0  0  0
  -26.3004  -29.6626   24.1304 H   0  0  0  0  0  0
  -27.4072  -29.7263   25.4819 H   0  0  0  0  0  0
  -27.8874  -30.4175   23.9505 H   0  0  0  0  0  0
  -27.2689  -33.3689   26.1902 H   0  0  0  0  0  0
  -28.3916  -32.6773   25.0283 H   0  0  0  0  0  0
  -28.0666  -31.8510   26.5460 H   0  0  0  0  0  0
  -28.2554  -38.0115   24.7551 H   0  0  0  0  0  0
  -28.1115  -36.2640   24.6219 H   0  0  0  0  0  0
  -27.2293  -37.1345   25.8853 H   0  0  0  0  0  0
  -20.9471  -29.8743   21.6814 H   0  0  0  0  0  0
  -26.0157  -38.2799   24.1450 H   0  0  0  0  0  0
  -30.5121  -20.6910   19.5633 H   0  0  0  0  0  0
  -29.6538  -18.2866   18.1031 H   0  0  0  0  0  0
  -30.9253  -17.0131   18.2443 H   0  0  0  0  0  0
  -27.5833  -23.3188   18.6053 H   0  0  0  0  0  0
  -29.0534  -24.3896   18.3922 H   0  0  0  0  0  0
  -28.9517  -15.5925   18.3976 H   0  0  0  0  0  0
  -27.9962  -16.8328   19.2820 H   0  0  0  0  0  0
  -30.0621  -23.5257   20.4994 H   0  0  0  0  0  0
  -31.2418  -17.9009   20.4258 H   0  0  0  0  0  0
  -27.0145  -24.4254   20.7840 H   0  0  0  0  0  0
  -25.6621  -20.5726   22.5834 H   0  0  0  0  0  0
  -26.7780  -19.8297   23.7353 H   0  0  0  0  0  0
  -25.9659  -18.8402   22.5202 H   0  0  0  0  0  0
  1 25  1  0  0  0
  1 30  2  0  0  0
  1 84  1  0  0  0
  2  3  1  0  0  0
  2 25  1  0  0  0
  2 85  1  0  0  0
  2 86  1  0  0  0
  3  4  1  0  0  0
  3 87  1  0  0  0
  3 88  1  0  0  0
  4  5  1  0  0  0
  4 89  1  0  0  0
  4 90  1  0  0  0
  5  6  1  0  0  0
  5 26  1  0  0  0
  5 91  1  0  0  0
  6 25  1  0  0  0
  6 92  1  0  0  0
  6 93  1  0  0  0
  7  8  2  0  0  0
  7 26  1  0  0  0
  7 29  1  0  0  0
  8  9  1  0  0  0
  8 22  1  0  0  0
  9 10  1  0  0  0
  9 27  2  0  0  0
 10 11  2  0  0  0
 10 15  1  0  0  0
 11 12  1  0  0  0
 11 94  1  0  0  0
 12 13  2  0  0  0
 12 95  1  0  0  0
 13 14  1  0  0  0
 13 31  1  0  0  0
 14 15  2  0  0  0
 14 96  1  0  0  0
 15 97  1  0  0  0
 16 17  2  0  0  0
 16 21  1  0  0  0
 16 31  1  0  0  0
 17 18  1  0  0  0
 17 98  1  0  0  0
 18 19  2  0  0  0
 18 99  1  0  0  0
 19 20  1  0  0  0
 19 24  1  0  0  0
 20 21  2  0  0  0
 20100  1  0  0  0
 21 23  1  0  0  0
 22 28  1  0  0  0
 22 32  2  0  0  0
 26 27  1  0  0  0
 28101  1  0  0  0
 28102  1  0  0  0
 29103  1  0  0  0
 29104  1  0  0  0
 33 34  1  0  0  0
 33 66  1  0  0  0
 33 70  2  0  0  0
 34 36  1  0  0  0
 34 59  1  0  0  0
 34105  1  0  0  0
 35 44  2  0  0  0
 35 45  1  0  0  0
 35 68  1  0  0  0
 36 56  1  0  0  0
 36106  1  0  0  0
 37 39  1  0  0  0
 37 47  1  0  0  0
 37 66  1  0  0  0
 37107  1  0  0  0
 38 43  2  0  0  0
 38 46  1  0  0  0
 38 47  1  0  0  0
 39 64  1  0  0  0
 39 67  2  0  0  0
 40 52  1  0  0  0
 40 53  2  0  0  0
 40 58  1  0  0  0
 41108  1  0  0  0
 41109  1  0  0  0
 41110  1  0  0  0
 41 48  1  0  0  0
 42 43  1  0  0  0
 42 66  1  0  0  0
 42111  1  0  0  0
 42112  1  0  0  0
 43 44  1  0  0  0
 44113  1  0  0  0
 45 46  2  0  0  0
 45114  1  0  0  0
 46115  1  0  0  0
 47116  1  0  0  0
 47117  1  0  0  0
 48 56  1  0  0  0
 48 65  1  0  0  0
 48118  1  0  0  0
 49 50  1  0  0  0
 49 53  1  0  0  0
 49 64  1  0  0  0
 49119  1  0  0  0
 50 51  1  0  0  0
 50120  1  0  0  0
 50121  1  0  0  0
 51 52  1  0  0  0
 51122  1  0  0  0
 51123  1  0  0  0
 52124  1  0  0  0
 52125  1  0  0  0
 53 54  1  0  0  0
 54 55  2  0  0  0
 54126  1  0  0  0
 55 57  1  0  0  0
 55127  1  0  0  0
 56 69  2  0  0  0
 57 58  2  0  0  0
 57128  1  0  0  0
 58129  1  0  0  0
 59 60  1  0  0  0
 59 61  1  0  0  0
 59 62  1  0  0  0
 60130  1  0  0  0
 60131  1  0  0  0
 60132  1  0  0  0
 61133  1  0  0  0
 61134  1  0  0  0
 61135  1  0  0  0
 62136  1  0  0  0
 62137  1  0  0  0
 62138  1  0  0  0
 63 65  1  0  0  0
 63139  1  0  0  0
 63140  1  0  0  0
 63141  1  0  0  0
 64142  1  0  0  0
 65143  1  0  0  0
 68 80  1  0  0  0
 71 72  2  0  0  0
 71 73  1  0  0  0
 71144  1  0  0  0
 72 82  1  0  0  0
 72 78  1  0  0  0
 73 83  2  0  0  0
 73 79  1  0  0  0
 74 81  1  0  0  0
 74 82  2  0  0  0
 74 83  1  0  0  0
 75 77  1  0  0  0
 75 79  1  0  0  0
 75145  1  0  0  0
 75146  1  0  0  0
 76 78  1  0  0  0
 76 80  1  0  0  0
 76147  1  0  0  0
 76148  1  0  0  0
 77 84  1  0  0  0
 77149  1  0  0  0
 77150  1  0  0  0
 78 80  1  0  0  0
 78151  1  0  0  0
 79 84  1  0  0  0
 79152  1  0  0  0
 80153  1  0  0  0
 81154  1  0  0  0
 81155  1  0  0  0
 81156  1  0  0  0
M  ISO  4   1 100  68 101  80 101  84 100
M  END
> <chiral flag>
0

> <version>
0

> <s_m_source_file>
/data/baiqing/PycharmProjects/Reinvent-master-3.2/result/LINK_invent/BTK/process_docking_weight1_custom_sum_contain_oxygen_bond_distance_aromatic_linkinvent_7_9_3/rearranged_h_0187.sdf

> <i_m_source_file_index>
38

> <r_mmod_Potential_Energy-OPLS-2005>
132.039428710938

> <r_mmod_Stretch_Energy-OPLS-2005>
266.320129394531

> <r_mmod_Bend_Energy-OPLS-2005>
261.418823242188

> <r_mmod_Torsional_Energy-OPLS-2005>
294.570709228516

> <r_mmod_Improper_Torsional_Energy-OPLS-2005>
13.5808420181274

> <r_mmod_Van_der_Waal_Energy-OPLS-2005>
135.105392456055

> <r_mmod_Electrostatic_Energy-OPLS-2005>
-824.034545898438

> <r_mmod_Solvation_Energy-OPLS-2005>
-229.916580200195

> <b_mmod_Minimization_Converged-OPLS-2005>
0

> <r_mmod_RMS_Derivative-OPLS-2005>
2.82362842559814

$$$$
38
                    3D
 Structure written by MMmdl.
150159  0  0  1  0            999 V2000
  -30.5823  -14.8343   20.4391 C   0  0  0  0  0  0
  -30.4394  -12.5102   19.4884 C   0  0  0  0  0  0
  -29.5183  -12.5192   18.2469 C   0  0  0  0  0  0
  -28.0458  -12.3293   18.6588 C   0  0  0  0  0  0
  -27.6392  -13.2398   19.8478 C   0  0  2  0  0  0
  -28.6838  -13.2119   20.9854 C   0  0  0  0  0  0
  -25.2502  -13.8206   20.5702 C   0  0  0  0  0  0
  -24.1802  -13.0443   20.9216 C   0  0  0  0  0  0
  -24.6401  -11.6924   20.8748 C   0  0  0  0  0  0
  -23.9078  -10.4298   21.0404 C   0  0  0  0  0  0
  -24.3625   -9.4212   21.9181 C   0  0  0  0  0  0
  -23.6301   -8.2247   22.0750 C   0  0  0  0  0  0
  -22.4283   -8.0284   21.3542 C   0  0  0  0  0  0
  -21.9919   -9.0259   20.4645 C   0  0  0  0  0  0
  -22.7248  -10.2140   20.3055 C   0  0  0  0  0  0
  -21.6858   -6.0739   22.5277 C   0  0  0  0  0  0
  -21.4016   -6.5641   23.8212 C   0  0  0  0  0  0
  -21.3661   -5.6793   24.9173 C   0  0  0  0  0  0
  -21.6045   -4.3056   24.7222 C   0  0  0  0  0  0
  -21.8819   -3.8148   23.4344 C   0  0  0  0  0  0
  -21.9194   -4.6965   22.3400 C   0  0  0  0  0  0
  -22.7822  -13.5221   21.1871 C   0  0  0  0  0  0
  -22.1661   -4.2149   21.0978 F   0  0  0  0  0  0
  -21.5629   -3.4539   25.7735 F   0  0  0  0  0  0
  -29.9770  -13.5888   20.3997 N   0  0  0  0  0  0
  -26.2932  -12.9426   20.3274 N   0  0  0  0  0  0
  -25.9334  -11.6562   20.5747 N   0  0  0  0  0  0
  -22.0467  -12.8212   22.0427 N   0  0  0  0  0  0
  -25.4174  -15.1933   20.4106 N   0  0  0  0  0  0
  -31.7749  -14.9240   20.1321 O   0  0  0  0  0  0
  -21.6645   -6.8882   21.4240 O   0  0  0  0  0  0
  -22.3504  -14.5523   20.6713 O   0  0  0  0  0  0
  -24.6394  -31.8503   23.1962 C   0  0  0  0  0  0
  -25.9190  -32.4728   23.8326 C   0  0  1  0  0  0
  -27.2098  -27.1842   20.1319 C   0  0  0  0  0  0
  -25.5962  -33.8533   24.2240 N   0  0  0  0  0  0
  -23.4399  -30.4751   21.5413 C   0  0  2  0  0  0
  -24.8878  -28.9210   20.1071 C   0  0  0  0  0  0
  -22.7547  -29.4583   22.4882 C   0  0  0  0  0  0
  -18.0302  -28.1392   22.8482 C   0  0  0  0  0  0
  -24.1492  -36.7265   23.2640 C   0  0  0  0  0  0
  -25.9951  -30.7370   21.3924 C   0  0  0  0  0  0
  -26.0648  -29.3555   20.7299 C   0  0  0  0  0  0
  -27.2266  -28.5005   20.7344 C   0  0  0  0  0  0
  -26.0102  -26.8610   19.4503 C   0  0  0  0  0  0
  -24.8712  -27.6845   19.4539 C   0  0  0  0  0  0
  -23.6631  -29.8160   20.1564 C   0  0  0  0  0  0
  -25.4121  -36.3051   24.0322 C   0  0  1  0  0  0
  -20.5912  -28.3718   23.1243 C   0  0  2  0  0  0
  -20.6790  -26.9429   22.5399 C   0  0  0  0  0  0
  -19.5762  -26.6384   21.5210 C   0  0  0  0  0  0
  -18.1944  -26.7932   22.1625 C   0  0  0  0  0  0
  -19.1557  -28.8872   23.2855 C   0  0  0  0  0  0
  -18.9472  -30.1467   23.8883 C   0  0  0  0  0  0
  -17.6469  -30.6592   24.0557 C   0  0  0  0  0  0
  -25.9070  -34.9422   23.5083 C   0  0  0  0  0  0
  -16.5361  -29.9085   23.6333 C   0  0  0  0  0  0
  -16.7285  -28.6499   23.0363 C   0  0  0  0  0  0
  -26.4526  -31.6575   25.0744 C   0  0  0  0  0  0
  -25.3723  -31.3753   26.1446 C   0  0  0  0  0  0
  -27.0384  -30.2974   24.6303 C   0  0  0  0  0  0
  -27.6069  -32.4329   25.7520 C   0  0  0  0  0  0
  -27.5578  -37.1792   24.8466 C   0  0  0  0  0  0
  -21.4245  -29.3054   22.3623 N   0  0  0  0  0  0
  -26.4289  -37.3756   23.9409 N   0  0  0  0  0  0
  -24.7109  -31.0401   22.0982 N   0  0  0  0  0  0
  -23.4211  -28.8115   23.3002 O   0  0  0  0  0  0
  -28.2458  -26.1915   20.2244 O   0  0  0  0  0  0
  -26.5640  -34.8905   22.4652 O   0  0  0  0  0  0
  -23.5523  -32.1367   23.7202 O   0  0  0  0  0  0
  -29.6995  -21.2041   19.3990 C   0  0  0  0  0  0
  -29.4488  -22.6250   19.3034 C   0  0  0  0  0  0
  -28.4081  -21.1968   21.3522 C   0  0  0  0  0  0
  -29.1360  -20.3814   20.4262 C   0  0  0  0  0  0
  -28.6313  -23.3327   20.2366 C   0  0  0  0  0  0
  -29.2742  -18.0248   19.1794 C   0  0  0  0  0  0
  -29.0786  -18.7518   20.4853 C   0  0  1  0  0  0
  -30.0865  -17.4603   20.3196 C   0  0  1  0  0  0
  -27.8701  -24.7377   19.8994 C   0  0  0  0  0  0
  -28.1614  -22.5582   21.2654 N   0  0  0  0  0  0
  -29.7894  -15.9829   20.5855 N   0  0  0  0  0  0
  -31.4776  -12.6480   19.1825 H   0  0  0  0  0  0
  -30.4027  -11.5424   19.9914 H   0  0  0  0  0  0
  -29.8163  -11.7359   17.5488 H   0  0  0  0  0  0
  -29.6306  -13.4644   17.7136 H   0  0  0  0  0  0
  -27.9149  -11.2826   18.9351 H   0  0  0  0  0  0
  -27.3880  -12.5026   17.8059 H   0  0  0  0  0  0
  -27.6209  -14.2544   19.4491 H   0  0  0  0  0  0
  -28.7394  -12.2228   21.4430 H   0  0  0  0  0  0
  -28.4044  -13.9035   21.7818 H   0  0  0  0  0  0
  -25.2766   -9.5689   22.4761 H   0  0  0  0  0  0
  -24.0009   -7.4641   22.7472 H   0  0  0  0  0  0
  -21.0850   -8.8784   19.8956 H   0  0  0  0  0  0
  -22.3703  -10.9682   19.6171 H   0  0  0  0  0  0
  -21.2009   -7.6149   23.9713 H   0  0  0  0  0  0
  -21.1484   -6.0523   25.9076 H   0  0  0  0  0  0
  -22.0597   -2.7609   23.2841 H   0  0  0  0  0  0
  -22.4087  -11.9878   22.4823 H   0  0  0  0  0  0
  -21.1082  -13.1235   22.2629 H   0  0  0  0  0  0
  -24.6451  -15.8427   20.5148 H   0  0  0  0  0  0
  -26.2546  -15.6321   20.0502 H   0  0  0  0  0  0
  -26.7256  -32.5346   23.1057 H   0  0  0  0  0  0
  -25.0110  -33.9667   25.0387 H   0  0  0  0  0  0
  -22.7396  -31.3001   21.3945 H   0  0  0  0  0  0
  -23.3757  -35.9593   23.3293 H   0  0  0  0  0  0
  -24.3582  -36.8901   22.2057 H   0  0  0  0  0  0
  -23.7240  -37.6460   23.6674 H   0  0  0  0  0  0
  -26.1489  -31.4962   20.6242 H   0  0  0  0  0  0
  -26.8663  -30.7818   22.0340 H   0  0  0  0  0  0
  -28.1176  -28.8221   21.2550 H   0  0  0  0  0  0
  -25.8945  -25.9317   18.9155 H   0  0  0  0  0  0
  -23.9763  -27.3519   18.9457 H   0  0  0  0  0  0
  -23.7956  -30.5958   19.4056 H   0  0  0  0  0  0
  -22.7788  -29.2573   19.8444 H   0  0  0  0  0  0
  -25.1306  -36.1890   25.0814 H   0  0  0  0  0  0
  -21.0003  -28.3301   24.1363 H   0  0  0  0  0  0
  -20.5691  -26.2332   23.3615 H   0  0  0  0  0  0
  -21.6656  -26.7445   22.1193 H   0  0  0  0  0  0
  -19.6925  -25.6287   21.1258 H   0  0  0  0  0  0
  -19.6695  -27.3177   20.6724 H   0  0  0  0  0  0
  -17.4213  -26.6673   21.4029 H   0  0  0  0  0  0
  -18.0348  -26.0078   22.9025 H   0  0  0  0  0  0
  -19.7946  -30.7285   24.2253 H   0  0  0  0  0  0
  -17.5023  -31.6272   24.5154 H   0  0  0  0  0  0
  -15.5361  -30.2983   23.7665 H   0  0  0  0  0  0
  -15.8685  -28.0806   22.7100 H   0  0  0  0  0  0
  -24.5899  -30.7105   25.7765 H   0  0  0  0  0  0
  -24.8914  -32.2933   26.4837 H   0  0  0  0  0  0
  -25.8016  -30.8946   27.0246 H   0  0  0  0  0  0
  -26.2997  -29.6705   24.1295 H   0  0  0  0  0  0
  -27.3987  -29.7262   25.4869 H   0  0  0  0  0  0
  -27.8912  -30.4212   23.9626 H   0  0  0  0  0  0
  -27.2674  -33.3639   26.2069 H   0  0  0  0  0  0
  -28.3895  -32.6875   25.0359 H   0  0  0  0  0  0
  -28.0723  -31.8473   26.5459 H   0  0  0  0  0  0
  -28.2589  -38.0094   24.7514 H   0  0  0  0  0  0
  -28.1080  -36.2624   24.6289 H   0  0  0  0  0  0
  -27.2298  -37.1436   25.8869 H   0  0  0  0  0  0
  -20.9445  -29.8775   21.6817 H   0  0  0  0  0  0
  -26.0159  -38.2828   24.1404 H   0  0  0  0  0  0
  -30.2669  -20.7367   18.6076 H   0  0  0  0  0  0
  -29.8097  -23.1526   18.4307 H   0  0  0  0  0  0
  -27.9097  -20.7127   22.1793 H   0  0  0  0  0  0
  -29.8585  -18.4956   18.3919 H   0  0  0  0  0  0
  -28.4210  -17.4551   18.8147 H   0  0  0  0  0  0
  -28.1699  -18.5111   21.0350 H   0  0  0  0  0  0
  -31.1437  -17.7203   20.3488 H   0  0  0  0  0  0
  -26.8829  -24.5753   20.3340 H   0  0  0  0  0  0
  -27.7259  -24.7071   18.8189 H   0  0  0  0  0  0
  -28.8310  -15.7836   20.8298 H   0  0  0  0  0  0
  1 25  1  0  0  0
  1 30  2  0  0  0
  1 81  1  0  0  0
  2  3  1  0  0  0
  2 25  1  0  0  0
  2 82  1  0  0  0
  2 83  1  0  0  0
  3  4  1  0  0  0
  3 84  1  0  0  0
  3 85  1  0  0  0
  4  5  1  0  0  0
  4 86  1  0  0  0
  4 87  1  0  0  0
  5  6  1  0  0  0
  5 26  1  0  0  0
  5 88  1  0  0  0
  6 25  1  0  0  0
  6 89  1  0  0  0
  6 90  1  0  0  0
  7  8  2  0  0  0
  7 26  1  0  0  0
  7 29  1  0  0  0
  8  9  1  0  0  0
  8 22  1  0  0  0
  9 10  1  0  0  0
  9 27  2  0  0  0
 10 11  2  0  0  0
 10 15  1  0  0  0
 11 12  1  0  0  0
 11 91  1  0  0  0
 12 13  2  0  0  0
 12 92  1  0  0  0
 13 14  1  0  0  0
 13 31  1  0  0  0
 14 15  2  0  0  0
 14 93  1  0  0  0
 15 94  1  0  0  0
 16 17  2  0  0  0
 16 21  1  0  0  0
 16 31  1  0  0  0
 17 18  1  0  0  0
 17 95  1  0  0  0
 18 19  2  0  0  0
 18 96  1  0  0  0
 19 20  1  0  0  0
 19 24  1  0  0  0
 20 21  2  0  0  0
 20 97  1  0  0  0
 21 23  1  0  0  0
 22 28  1  0  0  0
 22 32  2  0  0  0
 26 27  1  0  0  0
 28 98  1  0  0  0
 28 99  1  0  0  0
 29100  1  0  0  0
 29101  1  0  0  0
 33 34  1  0  0  0
 33 66  1  0  0  0
 33 70  2  0  0  0
 34 36  1  0  0  0
 34 59  1  0  0  0
 34102  1  0  0  0
 35 44  2  0  0  0
 35 45  1  0  0  0
 35 68  1  0  0  0
 36 56  1  0  0  0
 36103  1  0  0  0
 37 39  1  0  0  0
 37 47  1  0  0  0
 37 66  1  0  0  0
 37104  1  0  0  0
 38 43  2  0  0  0
 38 46  1  0  0  0
 38 47  1  0  0  0
 39 64  1  0  0  0
 39 67  2  0  0  0
 40 52  1  0  0  0
 40 53  2  0  0  0
 40 58  1  0  0  0
 41105  1  0  0  0
 41106  1  0  0  0
 41107  1  0  0  0
 41 48  1  0  0  0
 42 43  1  0  0  0
 42 66  1  0  0  0
 42108  1  0  0  0
 42109  1  0  0  0
 43 44  1  0  0  0
 44110  1  0  0  0
 45 46  2  0  0  0
 45111  1  0  0  0
 46112  1  0  0  0
 47113  1  0  0  0
 47114  1  0  0  0
 48 56  1  0  0  0
 48 65  1  0  0  0
 48115  1  0  0  0
 49 50  1  0  0  0
 49 53  1  0  0  0
 49 64  1  0  0  0
 49116  1  0  0  0
 50 51  1  0  0  0
 50117  1  0  0  0
 50118  1  0  0  0
 51 52  1  0  0  0
 51119  1  0  0  0
 51120  1  0  0  0
 52121  1  0  0  0
 52122  1  0  0  0
 53 54  1  0  0  0
 54 55  2  0  0  0
 54123  1  0  0  0
 55 57  1  0  0  0
 55124  1  0  0  0
 56 69  2  0  0  0
 57 58  2  0  0  0
 57125  1  0  0  0
 58126  1  0  0  0
 59 60  1  0  0  0
 59 61  1  0  0  0
 59 62  1  0  0  0
 60127  1  0  0  0
 60128  1  0  0  0
 60129  1  0  0  0
 61130  1  0  0  0
 61131  1  0  0  0
 61132  1  0  0  0
 62133  1  0  0  0
 62134  1  0  0  0
 62135  1  0  0  0
 63 65  1  0  0  0
 63136  1  0  0  0
 63137  1  0  0  0
 63138  1  0  0  0
 64139  1  0  0  0
 65140  1  0  0  0
 68 79  1  0  0  0
 71 72  2  0  0  0
 71 74  1  0  0  0
 71141  1  0  0  0
 72 75  1  0  0  0
 72142  1  0  0  0
 73 74  2  0  0  0
 73 80  1  0  0  0
 73143  1  0  0  0
 74 77  1  0  0  0
 75 79  1  0  0  0
 75 80  2  0  0  0
 76 77  1  0  0  0
 76 78  1  0  0  0
 76144  1  0  0  0
 76145  1  0  0  0
 77 78  1  0  0  0
 77146  1  0  0  0
 78 81  1  0  0  0
 78147  1  0  0  0
 79148  1  0  0  0
 79149  1  0  0  0
 81150  1  0  0  0
M  ISO  4   1 100  68 101  79 101  81 100
M  END
> <chiral flag>
0

> <version>
0

> <s_m_source_file>
/data/baiqing/PycharmProjects/Reinvent-master-3.2/result/LINK_invent/BTK/process_docking_weight1_custom_sum_contain_oxygen_bond_distance_aromatic_linkinvent_7_9_3/rearranged_h_0187.sdf

> <i_m_source_file_index>
39

> <r_mmod_Potential_Energy-OPLS-2005>
273.948516845703

> <r_mmod_Stretch_Energy-OPLS-2005>
183.368698120117

> <r_mmod_Bend_Energy-OPLS-2005>
229.734100341797

> <r_mmod_Torsional_Energy-OPLS-2005>
279.662933349609

> <r_mmod_Improper_Torsional_Energy-OPLS-2005>
10.7899370193481

> <r_mmod_Van_der_Waal_Energy-OPLS-2005>
144.083892822266

> <r_mmod_Electrostatic_Energy-OPLS-2005>
-485.062866210938

> <r_mmod_Solvation_Energy-OPLS-2005>
-228.731430053711

> <b_mmod_Minimization_Converged-OPLS-2005>
0

> <r_mmod_RMS_Derivative-OPLS-2005>
0.461706966161728

$$$$
39
                    3D
 Structure written by MMmdl.
157166  0  0  1  0            999 V2000
  -30.6679  -14.6051   20.5062 C   0  0  0  0  0  0
  -30.4240  -12.3759   19.4477 C   0  0  0  0  0  0
  -29.5010  -12.5065   18.2173 C   0  0  0  0  0  0
  -28.0216  -12.3566   18.6261 C   0  0  0  0  0  0
  -27.6499  -13.2191   19.8629 C   0  0  2  0  0  0
  -28.6955  -13.0605   20.9875 C   0  0  0  0  0  0
  -25.2536  -13.8173   20.5682 C   0  0  0  0  0  0
  -24.1810  -13.0435   20.9190 C   0  0  0  0  0  0
  -24.6386  -11.6910   20.8741 C   0  0  0  0  0  0
  -23.9054  -10.4295   21.0411 C   0  0  0  0  0  0
  -24.3607   -9.4211   21.9188 C   0  0  0  0  0  0
  -23.6286   -8.2243   22.0755 C   0  0  0  0  0  0
  -22.4269   -8.0277   21.3543 C   0  0  0  0  0  0
  -21.9901   -9.0253   20.4650 C   0  0  0  0  0  0
  -22.7226  -10.2134   20.3060 C   0  0  0  0  0  0
  -21.6854   -6.0728   22.5275 C   0  0  0  0  0  0
  -21.4018   -6.5632   23.8207 C   0  0  0  0  0  0
  -21.3664   -5.6785   24.9170 C   0  0  0  0  0  0
  -21.6046   -4.3047   24.7225 C   0  0  0  0  0  0
  -21.8820   -3.8139   23.4346 C   0  0  0  0  0  0
  -21.9194   -4.6955   22.3402 C   0  0  0  0  0  0
  -22.7831  -13.5229   21.1851 C   0  0  0  0  0  0
  -22.1663   -4.2139   21.0980 F   0  0  0  0  0  0
  -21.5631   -3.4534   25.7739 F   0  0  0  0  0  0
  -30.0047  -13.4074   20.4187 N   0  0  0  0  0  0
  -26.2969  -12.9364   20.3325 N   0  0  0  0  0  0
  -25.9314  -11.6513   20.5752 N   0  0  0  0  0  0
  -22.0476  -12.8230   22.0415 N   0  0  0  0  0  0
  -25.4219  -15.1891   20.4074 N   0  0  0  0  0  0
  -31.8490  -14.6847   20.1527 O   0  0  0  0  0  0
  -21.6637   -6.8872   21.4237 O   0  0  0  0  0  0
  -22.3518  -14.5534   20.6696 O   0  0  0  0  0  0
  -24.6220  -31.8621   23.2047 C   0  0  0  0  0  0
  -25.9082  -32.4789   23.8362 C   0  0  1  0  0  0
  -27.2288  -27.3526   20.1009 C   0  0  0  0  0  0
  -25.5911  -33.8591   24.2291 N   0  0  0  0  0  0
  -23.4131  -30.4860   21.5469 C   0  0  2  0  0  0
  -24.8579  -28.9438   20.1116 C   0  0  0  0  0  0
  -22.7447  -29.4631   22.4954 C   0  0  0  0  0  0
  -18.0279  -28.1376   22.8487 C   0  0  0  0  0  0
  -24.1488  -36.7301   23.2640 C   0  0  0  0  0  0
  -25.9506  -30.8019   21.3704 C   0  0  0  0  0  0
  -26.0235  -29.4315   20.7133 C   0  0  0  0  0  0
  -27.2071  -28.6435   20.7049 C   0  0  0  0  0  0
  -26.0296  -26.8947   19.5054 C   0  0  0  0  0  0
  -24.8603  -27.6780   19.5050 C   0  0  0  0  0  0
  -23.6247  -29.8204   20.1615 C   0  0  0  0  0  0
  -25.4111  -36.3091   24.0333 C   0  0  1  0  0  0
  -20.5874  -28.3673   23.1299 C   0  0  2  0  0  0
  -20.6767  -26.9399   22.5417 C   0  0  0  0  0  0
  -19.5747  -26.6377   21.5211 C   0  0  0  0  0  0
  -18.1924  -26.7920   22.1620 C   0  0  0  0  0  0
  -19.1529  -28.8841   23.2889 C   0  0  0  0  0  0
  -18.9455  -30.1446   23.8902 C   0  0  0  0  0  0
  -17.6457  -30.6582   24.0561 C   0  0  0  0  0  0
  -25.9043  -34.9458   23.5113 C   0  0  0  0  0  0
  -16.5347  -29.9078   23.6327 C   0  0  0  0  0  0
  -16.7267  -28.6497   23.0350 C   0  0  0  0  0  0
  -26.4483  -31.6593   25.0724 C   0  0  0  0  0  0
  -25.3732  -31.3720   26.1463 C   0  0  0  0  0  0
  -27.0319  -30.3022   24.6154 C   0  0  0  0  0  0
  -27.6051  -32.4324   25.7488 C   0  0  0  0  0  0
  -27.5582  -37.1801   24.8462 C   0  0  0  0  0  0
  -21.4165  -29.3033   22.3697 N   0  0  0  0  0  0
  -26.4290  -37.3784   23.9411 N   0  0  0  0  0  0
  -24.6806  -31.0661   22.0981 N   0  0  0  0  0  0
  -23.4187  -28.8172   23.3020 O   0  0  0  0  0  0
  -28.3842  -26.5680   20.1524 O   0  0  0  0  0  0
  -26.5611  -34.8922   22.4677 O   0  0  0  0  0  0
  -23.5395  -32.1404   23.7399 O   0  0  0  0  0  0
  -28.4712  -22.7906   19.1748 C   0  0  0  0  0  0
  -29.4535  -22.5780   21.6548 C   0  0  0  0  0  0
  -28.6995  -23.9674   19.9495 C   0  0  0  0  0  0
  -29.2468  -21.4022   20.8707 C   0  0  0  0  0  0
  -29.2821  -17.7269   22.0214 C   0  0  0  0  0  0
  -30.3187  -18.2254   19.8541 C   0  0  0  0  0  0
  -29.0462  -16.2387   21.6016 C   0  0  0  0  0  0
  -30.0252  -16.7579   19.4054 C   0  0  0  0  0  0
  -29.2908  -18.7691   20.8692 C   0  0  0  0  0  0
  -28.5520  -25.3842   19.3049 C   0  0  0  0  0  0
  -29.1904  -23.8448   21.2119 N   0  0  0  0  0  0
  -28.7322  -21.5218   19.6218 N   0  0  0  0  0  0
  -29.9050  -15.7559   20.4987 N   0  0  0  0  0  0
  -29.6128  -20.1256   21.3859 N   0  0  0  0  0  0
  -31.4678  -12.4783   19.1458 H   0  0  0  0  0  0
  -30.3405  -11.3812   19.8876 H   0  0  0  0  0  0
  -29.7602  -11.7565   17.4686 H   0  0  0  0  0  0
  -29.6551  -13.4773   17.7433 H   0  0  0  0  0  0
  -27.8473  -11.3025   18.8448 H   0  0  0  0  0  0
  -27.3711  -12.6044   17.7866 H   0  0  0  0  0  0
  -27.6708  -14.2576   19.5329 H   0  0  0  0  0  0
  -28.7065  -12.0332   21.3548 H   0  0  0  0  0  0
  -28.4406  -13.6704   21.8505 H   0  0  0  0  0  0
  -25.2758   -9.5687   22.4754 H   0  0  0  0  0  0
  -23.9999   -7.4636   22.7474 H   0  0  0  0  0  0
  -21.0830   -8.8771   19.8961 H   0  0  0  0  0  0
  -22.3687  -10.9667   19.6161 H   0  0  0  0  0  0
  -21.2008   -7.6141   23.9705 H   0  0  0  0  0  0
  -21.1487   -6.0518   25.9070 H   0  0  0  0  0  0
  -22.0597   -2.7601   23.2849 H   0  0  0  0  0  0
  -22.4082  -11.9894   22.4810 H   0  0  0  0  0  0
  -21.1095  -13.1263   22.2621 H   0  0  0  0  0  0
  -24.6550  -15.8433   20.5179 H   0  0  0  0  0  0
  -26.2723  -15.6271   20.0778 H   0  0  0  0  0  0
  -26.7148  -32.5467   23.1111 H   0  0  0  0  0  0
  -25.0056  -33.9739   25.0435 H   0  0  0  0  0  0
  -22.7048  -31.3052   21.4063 H   0  0  0  0  0  0
  -23.3748  -35.9636   23.3305 H   0  0  0  0  0  0
  -24.3584  -36.8914   22.2054 H   0  0  0  0  0  0
  -23.7240  -37.6505   23.6658 H   0  0  0  0  0  0
  -26.0781  -31.5668   20.6031 H   0  0  0  0  0  0
  -26.8326  -30.8501   21.9974 H   0  0  0  0  0  0
  -28.1036  -29.0164   21.1804 H   0  0  0  0  0  0
  -25.9487  -25.9138   19.0640 H   0  0  0  0  0  0
  -23.9594  -27.2902   19.0500 H   0  0  0  0  0  0
  -23.7404  -30.5964   19.4042 H   0  0  0  0  0  0
  -22.7453  -29.2474   19.8620 H   0  0  0  0  0  0
  -25.1288  -36.1948   25.0826 H   0  0  0  0  0  0
  -20.9966  -28.3244   24.1421 H   0  0  0  0  0  0
  -20.5661  -26.2280   23.3610 H   0  0  0  0  0  0
  -21.6639  -26.7431   22.1216 H   0  0  0  0  0  0
  -19.6908  -25.6288   21.1239 H   0  0  0  0  0  0
  -19.6688  -27.3191   20.6741 H   0  0  0  0  0  0
  -17.4195  -26.6670   21.4018 H   0  0  0  0  0  0
  -18.0323  -26.0061   22.9015 H   0  0  0  0  0  0
  -19.7933  -30.7257   24.2273 H   0  0  0  0  0  0
  -17.5013  -31.6264   24.5156 H   0  0  0  0  0  0
  -15.5347  -30.2981   23.7652 H   0  0  0  0  0  0
  -15.8668  -28.0815   22.7065 H   0  0  0  0  0  0
  -24.5902  -30.7071   25.7801 H   0  0  0  0  0  0
  -24.8930  -32.2882   26.4908 H   0  0  0  0  0  0
  -25.8073  -30.8890   27.0227 H   0  0  0  0  0  0
  -26.2880  -29.6778   24.1193 H   0  0  0  0  0  0
  -27.4041  -29.7271   25.4642 H   0  0  0  0  0  0
  -27.8740  -30.4316   23.9353 H   0  0  0  0  0  0
  -27.2663  -33.3618   26.2081 H   0  0  0  0  0  0
  -28.3849  -32.6893   25.0308 H   0  0  0  0  0  0
  -28.0733  -31.8441   26.5390 H   0  0  0  0  0  0
  -28.2595  -38.0103   24.7519 H   0  0  0  0  0  0
  -28.1078  -36.2633   24.6269 H   0  0  0  0  0  0
  -27.2305  -37.1436   25.8866 H   0  0  0  0  0  0
  -20.9330  -29.8757   21.6919 H   0  0  0  0  0  0
  -26.0173  -38.2860   24.1414 H   0  0  0  0  0  0
  -28.1113  -22.8701   18.1597 H   0  0  0  0  0  0
  -29.8585  -22.5043   22.6541 H   0  0  0  0  0  0
  -30.2366  -17.7744   22.5490 H   0  0  0  0  0  0
  -28.5253  -18.0045   22.7570 H   0  0  0  0  0  0
  -30.3393  -18.8716   18.9756 H   0  0  0  0  0  0
  -31.3209  -18.2687   20.2836 H   0  0  0  0  0  0
  -28.0064  -16.1096   21.3015 H   0  0  0  0  0  0
  -29.1938  -15.6186   22.4866 H   0  0  0  0  0  0
  -30.7857  -16.4562   18.6827 H   0  0  0  0  0  0
  -29.0861  -16.7402   18.8504 H   0  0  0  0  0  0
  -28.3034  -18.7974   20.4039 H   0  0  0  0  0  0
  -27.8430  -25.3344   18.4817 H   0  0  0  0  0  0
  -29.5008  -25.5524   18.7947 H   0  0  0  0  0  0
  -29.9918  -20.1502   22.3283 H   0  0  0  0  0  0
  1 25  1  0  0  0
  1 30  2  0  0  0
  1 83  1  0  0  0
  2  3  1  0  0  0
  2 25  1  0  0  0
  2 85  1  0  0  0
  2 86  1  0  0  0
  3  4  1  0  0  0
  3 87  1  0  0  0
  3 88  1  0  0  0
  4  5  1  0  0  0
  4 89  1  0  0  0
  4 90  1  0  0  0
  5  6  1  0  0  0
  5 26  1  0  0  0
  5 91  1  0  0  0
  6 25  1  0  0  0
  6 92  1  0  0  0
  6 93  1  0  0  0
  7  8  2  0  0  0
  7 26  1  0  0  0
  7 29  1  0  0  0
  8  9  1  0  0  0
  8 22  1  0  0  0
  9 10  1  0  0  0
  9 27  2  0  0  0
 10 11  2  0  0  0
 10 15  1  0  0  0
 11 12  1  0  0  0
 11 94  1  0  0  0
 12 13  2  0  0  0
 12 95  1  0  0  0
 13 14  1  0  0  0
 13 31  1  0  0  0
 14 15  2  0  0  0
 14 96  1  0  0  0
 15 97  1  0  0  0
 16 17  2  0  0  0
 16 21  1  0  0  0
 16 31  1  0  0  0
 17 18  1  0  0  0
 17 98  1  0  0  0
 18 19  2  0  0  0
 18 99  1  0  0  0
 19 20  1  0  0  0
 19 24  1  0  0  0
 20 21  2  0  0  0
 20100  1  0  0  0
 21 23  1  0  0  0
 22 28  1  0  0  0
 22 32  2  0  0  0
 26 27  1  0  0  0
 28101  1  0  0  0
 28102  1  0  0  0
 29103  1  0  0  0
 29104  1  0  0  0
 33 34  1  0  0  0
 33 66  1  0  0  0
 33 70  2  0  0  0
 34 36  1  0  0  0
 34 59  1  0  0  0
 34105  1  0  0  0
 35 44  2  0  0  0
 35 45  1  0  0  0
 35 68  1  0  0  0
 36 56  1  0  0  0
 36106  1  0  0  0
 37 39  1  0  0  0
 37 47  1  0  0  0
 37 66  1  0  0  0
 37107  1  0  0  0
 38 43  2  0  0  0
 38 46  1  0  0  0
 38 47  1  0  0  0
 39 64  1  0  0  0
 39 67  2  0  0  0
 40 52  1  0  0  0
 40 53  2  0  0  0
 40 58  1  0  0  0
 41108  1  0  0  0
 41109  1  0  0  0
 41110  1  0  0  0
 41 48  1  0  0  0
 42 43  1  0  0  0
 42 66  1  0  0  0
 42111  1  0  0  0
 42112  1  0  0  0
 43 44  1  0  0  0
 44113  1  0  0  0
 45 46  2  0  0  0
 45114  1  0  0  0
 46115  1  0  0  0
 47116  1  0  0  0
 47117  1  0  0  0
 48 56  1  0  0  0
 48 65  1  0  0  0
 48118  1  0  0  0
 49 50  1  0  0  0
 49 53  1  0  0  0
 49 64  1  0  0  0
 49119  1  0  0  0
 50 51  1  0  0  0
 50120  1  0  0  0
 50121  1  0  0  0
 51 52  1  0  0  0
 51122  1  0  0  0
 51123  1  0  0  0
 52124  1  0  0  0
 52125  1  0  0  0
 53 54  1  0  0  0
 54 55  2  0  0  0
 54126  1  0  0  0
 55 57  1  0  0  0
 55127  1  0  0  0
 56 69  2  0  0  0
 57 58  2  0  0  0
 57128  1  0  0  0
 58129  1  0  0  0
 59 60  1  0  0  0
 59 61  1  0  0  0
 59 62  1  0  0  0
 60130  1  0  0  0
 60131  1  0  0  0
 60132  1  0  0  0
 61133  1  0  0  0
 61134  1  0  0  0
 61135  1  0  0  0
 62136  1  0  0  0
 62137  1  0  0  0
 62138  1  0  0  0
 63 65  1  0  0  0
 63139  1  0  0  0
 63140  1  0  0  0
 63141  1  0  0  0
 64142  1  0  0  0
 65143  1  0  0  0
 68 80  1  0  0  0
 71 73  2  0  0  0
 71 82  1  0  0  0
 71144  1  0  0  0
 72 74  1  0  0  0
 72 81  2  0  0  0
 72145  1  0  0  0
 73 80  1  0  0  0
 73 81  1  0  0  0
 74 82  2  0  0  0
 74 84  1  0  0  0
 75 77  1  0  0  0
 75 79  1  0  0  0
 75146  1  0  0  0
 75147  1  0  0  0
 76 78  1  0  0  0
 76 79  1  0  0  0
 76148  1  0  0  0
 76149  1  0  0  0
 77 83  1  0  0  0
 77150  1  0  0  0
 77151  1  0  0  0
 78 83  1  0  0  0
 78152  1  0  0  0
 78153  1  0  0  0
 79 84  1  0  0  0
 79154  1  0  0  0
 80155  1  0  0  0
 80156  1  0  0  0
 84157  1  0  0  0
M  ISO  4   1 100  68 101  80 101  83 100
M  END
> <chiral flag>
0

> <version>
0

> <s_m_source_file>
/data/baiqing/PycharmProjects/Reinvent-master-3.2/result/LINK_invent/BTK/process_docking_weight1_custom_sum_contain_oxygen_bond_distance_aromatic_linkinvent_7_9_3/rearranged_h_0187.sdf

> <i_m_source_file_index>
40

> <r_mmod_Potential_Energy-OPLS-2005>
287.896240234375

> <r_mmod_Stretch_Energy-OPLS-2005>
67.1027755737305

> <r_mmod_Bend_Energy-OPLS-2005>
157.63948059082

> <r_mmod_Torsional_Energy-OPLS-2005>
309.026580810547

> <r_mmod_Improper_Torsional_Energy-OPLS-2005>
16.8647918701172

> <r_mmod_Van_der_Waal_Energy-OPLS-2005>
150.904052734375

> <r_mmod_Electrostatic_Energy-OPLS-2005>
-219.798889160156

> <r_mmod_Solvation_Energy-OPLS-2005>
-229.819229125977

> <b_mmod_Minimization_Converged-OPLS-2005>
0

> <r_mmod_RMS_Derivative-OPLS-2005>
0.745564103126526

$$$$
40
                    3D
 Structure written by MMmdl.
144152  0  0  1  0            999 V2000
  -30.1639  -15.9609   20.2909 C   0  0  0  0  0  0
  -30.4048  -13.3116   19.5820 C   0  0  0  0  0  0
  -29.5738  -12.7450   18.3817 C   0  0  0  0  0  0
  -28.1737  -12.3096   18.8313 C   0  0  0  0  0  0
  -27.5857  -13.3452   19.8096 C   0  0  2  0  0  0
  -28.5654  -13.8150   20.9184 C   0  0  0  0  0  0
  -25.2280  -13.8350   20.5837 C   0  0  0  0  0  0
  -24.1700  -13.0456   20.9281 C   0  0  0  0  0  0
  -24.6436  -11.6974   20.8736 C   0  0  0  0  0  0
  -23.9141  -10.4312   21.0377 C   0  0  0  0  0  0
  -24.3662   -9.4229   21.9174 C   0  0  0  0  0  0
  -23.6333   -8.2266   22.0740 C   0  0  0  0  0  0
  -22.4309   -8.0304   21.3543 C   0  0  0  0  0  0
  -21.9954   -9.0274   20.4637 C   0  0  0  0  0  0
  -22.7292  -10.2150   20.3051 C   0  0  0  0  0  0
  -21.6864   -6.0751   22.5278 C   0  0  0  0  0  0
  -21.4020   -6.5640   23.8208 C   0  0  0  0  0  0
  -21.3660   -5.6795   24.9169 C   0  0  0  0  0  0
  -21.6054   -4.3064   24.7225 C   0  0  0  0  0  0
  -21.8816   -3.8152   23.4340 C   0  0  0  0  0  0
  -21.9189   -4.6973   22.3398 C   0  0  0  0  0  0
  -22.7705  -13.5150   21.1946 C   0  0  0  0  0  0
  -22.1661   -4.2146   21.0980 F   0  0  0  0  0  0
  -21.5626   -3.4545   25.7735 F   0  0  0  0  0  0
  -29.7161  -14.5225   20.2808 N   0  0  0  0  0  0
  -26.2746  -12.9747   20.3241 N   0  0  0  0  0  0
  -25.9384  -11.6770   20.5637 N   0  0  0  0  0  0
  -22.0388  -12.8115   22.0499 N   0  0  0  0  0  0
  -25.3886  -15.2103   20.4338 N   0  0  0  0  0  0
  -31.3906  -15.8564   20.0727 O   0  0  0  0  0  0
  -21.6663   -6.8905   21.4245 O   0  0  0  0  0  0
  -22.3372  -14.5462   20.6802 O   0  0  0  0  0  0
  -24.7049  -31.7719   23.1293 C   0  0  0  0  0  0
  -25.9522  -32.4333   23.7925 C   0  0  1  0  0  0
  -27.2349  -26.4712   20.2323 C   0  0  0  0  0  0
  -25.6026  -33.8171   24.1799 N   0  0  0  0  0  0
  -23.5411  -30.3638   21.4886 C   0  0  2  0  0  0
  -24.9987  -28.6554   20.1221 C   0  0  0  0  0  0
  -22.7867  -29.4163   22.4624 C   0  0  0  0  0  0
  -18.0349  -28.1453   22.8439 C   0  0  0  0  0  0
  -24.1480  -36.7100   23.2647 C   0  0  0  0  0  0
  -26.1303  -30.4293   21.4270 C   0  0  0  0  0  0
  -26.1910  -28.9672   20.7848 C   0  0  0  0  0  0
  -27.2791  -27.9109   20.8021 C   0  0  0  0  0  0
  -26.0069  -26.4273   19.5043 C   0  0  0  0  0  0
  -24.9590  -27.4130   19.4593 C   0  0  0  0  0  0
  -23.8071  -29.6413   20.1322 C   0  0  0  0  0  0
  -25.4128  -36.2808   24.0266 C   0  0  1  0  0  0
  -20.6001  -28.3807   23.1097 C   0  0  2  0  0  0
  -20.6814  -26.9442   22.5407 C   0  0  0  0  0  0
  -19.5804  -26.6369   21.5220 C   0  0  0  0  0  0
  -18.1978  -26.7967   22.1605 C   0  0  0  0  0  0
  -19.1624  -28.8959   23.2738 C   0  0  0  0  0  0
  -18.9536  -30.1531   23.8796 C   0  0  0  0  0  0
  -17.6530  -30.6622   24.0547 C   0  0  0  0  0  0
  -25.9149  -34.9225   23.4881 C   0  0  0  0  0  0
  -16.5413  -29.9112   23.6366 C   0  0  0  0  0  0
  -16.7330  -28.6539   23.0368 C   0  0  0  0  0  0
  -26.4624  -31.6474   25.0645 C   0  0  0  0  0  0
  -25.3610  -31.3892   26.1214 C   0  0  0  0  0  0
  -27.0574  -30.2780   24.6705 C   0  0  0  0  0  0
  -27.6041  -32.4381   25.7471 C   0  0  0  0  0  0
  -27.5566  -37.1649   24.8431 C   0  0  0  0  0  0
  -21.4486  -29.3015   22.3401 N   0  0  0  0  0  0
  -26.4210  -37.3625   23.9477 N   0  0  0  0  0  0
  -24.8186  -30.8939   22.0675 N   0  0  0  0  0  0
  -23.4213  -28.7776   23.3051 O   0  0  0  0  0  0
  -28.1876  -25.1625   20.3215 O   0  0  0  0  0  0
  -26.5806  -34.8858   22.4508 O   0  0  0  0  0  0
  -23.6028  -32.0925   23.6101 O   0  0  0  0  0  0
  -29.2159  -19.0003   20.3254 C   0  0  0  0  0  0
  -29.9653  -20.4365   19.7329 C   0  0  0  0  0  0
  -27.9566  -20.1090   20.7543 C   0  0  0  0  0  0
  -29.5557  -22.1797   19.6499 C   0  0  0  0  0  0
  -27.9110  -21.8868   21.0854 C   0  0  0  0  0  0
  -28.2390  -23.2846   20.1059 C   0  0  1  0  0  0
  -29.2998  -17.4379   20.4731 N   0  0  0  0  0  0
  -31.0765  -20.2168   19.2386 O   0  0  0  0  0  0
  -31.3829  -13.6065   19.1992 H   0  0  0  0  0  0
  -30.6224  -12.5193   20.3010 H   0  0  0  0  0  0
  -30.0977  -11.9087   17.9155 H   0  0  0  0  0  0
  -29.4851  -13.5165   17.6164 H   0  0  0  0  0  0
  -28.2674  -11.3496   19.3413 H   0  0  0  0  0  0
  -27.5175  -12.1525   17.9739 H   0  0  0  0  0  0
  -27.4106  -14.2205   19.1822 H   0  0  0  0  0  0
  -28.8759  -12.9885   21.5598 H   0  0  0  0  0  0
  -28.0626  -14.5280   21.5737 H   0  0  0  0  0  0
  -25.2805   -9.5695   22.4745 H   0  0  0  0  0  0
  -24.0018   -7.4662   22.7473 H   0  0  0  0  0  0
  -21.0870   -8.8825   19.8952 H   0  0  0  0  0  0
  -22.3763  -10.9691   19.6158 H   0  0  0  0  0  0
  -21.2018   -7.6142   23.9710 H   0  0  0  0  0  0
  -21.1485   -6.0524   25.9071 H   0  0  0  0  0  0
  -22.0589   -2.7606   23.2850 H   0  0  0  0  0  0
  -22.4040  -11.9770   22.4864 H   0  0  0  0  0  0
  -21.0997  -13.1102   22.2724 H   0  0  0  0  0  0
  -24.6320  -15.8701   20.5753 H   0  0  0  0  0  0
  -26.2571  -15.6550   20.1644 H   0  0  0  0  0  0
  -26.7630  -32.4742   23.0644 H   0  0  0  0  0  0
  -25.0103  -33.9164   24.9919 H   0  0  0  0  0  0
  -22.8792  -31.2072   21.2784 H   0  0  0  0  0  0
  -23.3793  -35.9362   23.3128 H   0  0  0  0  0  0
  -24.3591  -36.8954   22.2104 H   0  0  0  0  0  0
  -23.7168  -37.6186   23.6859 H   0  0  0  0  0  0
  -26.3560  -31.1352   20.6255 H   0  0  0  0  0  0
  -26.9753  -30.5076   22.0998 H   0  0  0  0  0  0
  -28.1651  -28.1634   21.3662 H   0  0  0  0  0  0
  -25.7998  -25.5039   18.9820 H   0  0  0  0  0  0
  -24.0649  -27.1642   18.9027 H   0  0  0  0  0  0
  -24.0046  -30.3932   19.3666 H   0  0  0  0  0  0
  -22.9073  -29.1209   19.7997 H   0  0  0  0  0  0
  -25.1322  -36.1496   25.0741 H   0  0  0  0  0  0
  -21.0075  -28.3456   24.1227 H   0  0  0  0  0  0
  -20.5683  -26.2432   23.3686 H   0  0  0  0  0  0
  -21.6672  -26.7377   22.1222 H   0  0  0  0  0  0
  -19.6964  -25.6258   21.1313 H   0  0  0  0  0  0
  -19.6763  -27.3127   20.6709 H   0  0  0  0  0  0
  -17.4247  -26.6706   21.3997 H   0  0  0  0  0  0
  -18.0348  -26.0137   22.9027 H   0  0  0  0  0  0
  -19.8017  -30.7366   24.2119 H   0  0  0  0  0  0
  -17.5090  -31.6288   24.5173 H   0  0  0  0  0  0
  -15.5416  -30.2989   23.7758 H   0  0  0  0  0  0
  -15.8720  -28.0834   22.7139 H   0  0  0  0  0  0
  -24.5834  -30.7206   25.7514 H   0  0  0  0  0  0
  -24.8764  -32.3147   26.4322 H   0  0  0  0  0  0
  -25.7707  -30.9267   27.0194 H   0  0  0  0  0  0
  -26.3330  -29.6343   24.1706 H   0  0  0  0  0  0
  -27.3921  -29.7311   25.5528 H   0  0  0  0  0  0
  -27.9336  -30.3864   24.0310 H   0  0  0  0  0  0
  -27.2561  -33.3781   26.1760 H   0  0  0  0  0  0
  -28.3972  -32.6775   25.0377 H   0  0  0  0  0  0
  -28.0558  -31.8699   26.5605 H   0  0  0  0  0  0
  -28.2384  -38.0135   24.7691 H   0  0  0  0  0  0
  -28.1244  -36.2671   24.5937 H   0  0  0  0  0  0
  -27.2342  -37.0897   25.8831 H   0  0  0  0  0  0
  -20.9844  -29.8656   21.6414 H   0  0  0  0  0  0
  -25.9986  -38.2603   24.1669 H   0  0  0  0  0  0
  -27.5084  -19.6611   21.6402 H   0  0  0  0  0  0
  -27.1867  -19.9517   19.9971 H   0  0  0  0  0  0
  -29.7450  -22.4174   18.6022 H   0  0  0  0  0  0
  -30.4158  -22.6125   20.1605 H   0  0  0  0  0  0
  -28.5159  -22.0220   21.9848 H   0  0  0  0  0  0
  -26.8970  -22.0594   21.4469 H   0  0  0  0  0  0
  -27.5114  -23.1907   19.2997 H   0  0  0  0  0  0
  1 25  1  0  0  0
  1 30  2  0  0  0
  1 77  1  0  0  0
  2  3  1  0  0  0
  2 25  1  0  0  0
  2 79  1  0  0  0
  2 80  1  0  0  0
  3  4  1  0  0  0
  3 81  1  0  0  0
  3 82  1  0  0  0
  4  5  1  0  0  0
  4 83  1  0  0  0
  4 84  1  0  0  0
  5  6  1  0  0  0
  5 26  1  0  0  0
  5 85  1  0  0  0
  6 25  1  0  0  0
  6 86  1  0  0  0
  6 87  1  0  0  0
  7  8  2  0  0  0
  7 26  1  0  0  0
  7 29  1  0  0  0
  8  9  1  0  0  0
  8 22  1  0  0  0
  9 10  1  0  0  0
  9 27  2  0  0  0
 10 11  2  0  0  0
 10 15  1  0  0  0
 11 12  1  0  0  0
 11 88  1  0  0  0
 12 13  2  0  0  0
 12 89  1  0  0  0
 13 14  1  0  0  0
 13 31  1  0  0  0
 14 15  2  0  0  0
 14 90  1  0  0  0
 15 91  1  0  0  0
 16 17  2  0  0  0
 16 21  1  0  0  0
 16 31  1  0  0  0
 17 18  1  0  0  0
 17 92  1  0  0  0
 18 19  2  0  0  0
 18 93  1  0  0  0
 19 20  1  0  0  0
 19 24  1  0  0  0
 20 21  2  0  0  0
 20 94  1  0  0  0
 21 23  1  0  0  0
 22 28  1  0  0  0
 22 32  2  0  0  0
 26 27  1  0  0  0
 28 95  1  0  0  0
 28 96  1  0  0  0
 29 97  1  0  0  0
 29 98  1  0  0  0
 33 34  1  0  0  0
 33 66  1  0  0  0
 33 70  2  0  0  0
 34 36  1  0  0  0
 34 59  1  0  0  0
 34 99  1  0  0  0
 35 44  2  0  0  0
 35 45  1  0  0  0
 35 68  1  0  0  0
 36 56  1  0  0  0
 36100  1  0  0  0
 37 39  1  0  0  0
 37 47  1  0  0  0
 37 66  1  0  0  0
 37101  1  0  0  0
 38 43  2  0  0  0
 38 46  1  0  0  0
 38 47  1  0  0  0
 39 64  1  0  0  0
 39 67  2  0  0  0
 40 52  1  0  0  0
 40 53  2  0  0  0
 40 58  1  0  0  0
 41102  1  0  0  0
 41103  1  0  0  0
 41104  1  0  0  0
 41 48  1  0  0  0
 42 43  1  0  0  0
 42 66  1  0  0  0
 42105  1  0  0  0
 42106  1  0  0  0
 43 44  1  0  0  0
 44107  1  0  0  0
 45 46  2  0  0  0
 45108  1  0  0  0
 46109  1  0  0  0
 47110  1  0  0  0
 47111  1  0  0  0
 48 56  1  0  0  0
 48 65  1  0  0  0
 48112  1  0  0  0
 49 50  1  0  0  0
 49 53  1  0  0  0
 49 64  1  0  0  0
 49113  1  0  0  0
 50 51  1  0  0  0
 50114  1  0  0  0
 50115  1  0  0  0
 51 52  1  0  0  0
 51116  1  0  0  0
 51117  1  0  0  0
 52118  1  0  0  0
 52119  1  0  0  0
 53 54  1  0  0  0
 54 55  2  0  0  0
 54120  1  0  0  0
 55 57  1  0  0  0
 55121  1  0  0  0
 56 69  2  0  0  0
 57 58  2  0  0  0
 57122  1  0  0  0
 58123  1  0  0  0
 59 60  1  0  0  0
 59 61  1  0  0  0
 59 62  1  0  0  0
 60124  1  0  0  0
 60125  1  0  0  0
 60126  1  0  0  0
 61127  1  0  0  0
 61128  1  0  0  0
 61129  1  0  0  0
 62130  1  0  0  0
 62131  1  0  0  0
 62132  1  0  0  0
 63 65  1  0  0  0
 63133  1  0  0  0
 63134  1  0  0  0
 63135  1  0  0  0
 64136  1  0  0  0
 65137  1  0  0  0
 68 76  1  0  0  0
 71 72  1  0  0  0
 71 73  1  0  0  0
 71 77  2  0  0  0
 72 74  1  0  0  0
 72 78  2  0  0  0
 73 75  1  0  0  0
 73138  1  0  0  0
 73139  1  0  0  0
 74 76  1  0  0  0
 74140  1  0  0  0
 74141  1  0  0  0
 75 76  1  0  0  0
 75142  1  0  0  0
 75143  1  0  0  0
 76144  1  0  0  0
M  ISO  4   1 100  68 101  76 101  77 100
M  END
> <chiral flag>
0

> <version>
0

> <s_m_source_file>
/data/baiqing/PycharmProjects/Reinvent-master-3.2/result/LINK_invent/BTK/process_docking_weight1_custom_sum_contain_oxygen_bond_distance_aromatic_linkinvent_7_9_3/rearranged_h_0187.sdf

> <i_m_source_file_index>
41

> <r_mmod_Potential_Energy-OPLS-2005>
3771.87377929688

> <r_mmod_Stretch_Energy-OPLS-2005>
1482.81213378906

> <r_mmod_Bend_Energy-OPLS-2005>
1071.65454101562

> <r_mmod_Torsional_Energy-OPLS-2005>
183.735397338867

> <r_mmod_Improper_Torsional_Energy-OPLS-2005>
1.743936419487

> <r_mmod_Van_der_Waal_Energy-OPLS-2005>
122.280387878418

> <r_mmod_Electrostatic_Energy-OPLS-2005>
-333.124267578125

> <r_mmod_Solvation_Energy-OPLS-2005>
-209.469955444336

> <b_mmod_Minimization_Converged-OPLS-2005>
0

> <r_mmod_RMS_Derivative-OPLS-2005>
2.87102651596069

$$$$
41
                    3D
 Structure written by MMmdl.
157166  0  0  1  0            999 V2000
  -30.5933  -14.7796   20.4698 C   0  0  0  0  0  0
  -30.4386  -12.4854   19.4628 C   0  0  0  0  0  0
  -29.5123  -12.5204   18.2272 C   0  0  0  0  0  0
  -28.0377  -12.3330   18.6436 C   0  0  0  0  0  0
  -27.6387  -13.2324   19.8447 C   0  0  2  0  0  0
  -28.6861  -13.1755   20.9763 C   0  0  0  0  0  0
  -25.2497  -13.8192   20.5690 C   0  0  0  0  0  0
  -24.1798  -13.0435   20.9225 C   0  0  0  0  0  0
  -24.6386  -11.6920   20.8753 C   0  0  0  0  0  0
  -23.9064  -10.4294   21.0401 C   0  0  0  0  0  0
  -24.3626   -9.4215   21.9184 C   0  0  0  0  0  0
  -23.6311   -8.2239   22.0751 C   0  0  0  0  0  0
  -22.4285   -8.0275   21.3549 C   0  0  0  0  0  0
  -21.9914   -9.0238   20.4644 C   0  0  0  0  0  0
  -22.7231  -10.2122   20.3052 C   0  0  0  0  0  0
  -21.6849   -6.0734   22.5282 C   0  0  0  0  0  0
  -21.4006   -6.5641   23.8217 C   0  0  0  0  0  0
  -21.3661   -5.6797   24.9181 C   0  0  0  0  0  0
  -21.6043   -4.3056   24.7227 C   0  0  0  0  0  0
  -21.8820   -3.8144   23.4353 C   0  0  0  0  0  0
  -21.9189   -4.6966   22.3411 C   0  0  0  0  0  0
  -22.7815  -13.5212   21.1891 C   0  0  0  0  0  0
  -22.1661   -4.2151   21.0993 F   0  0  0  0  0  0
  -21.5636   -3.4547   25.7741 F   0  0  0  0  0  0
  -29.9784  -13.5474   20.3867 N   0  0  0  0  0  0
  -26.2924  -12.9399   20.3260 N   0  0  0  0  0  0
  -25.9318  -11.6542   20.5734 N   0  0  0  0  0  0
  -22.0458  -12.8198   22.0438 N   0  0  0  0  0  0
  -25.4168  -15.1913   20.4098 N   0  0  0  0  0  0
  -31.7923  -14.8826   20.1997 O   0  0  0  0  0  0
  -21.6648   -6.8873   21.4239 O   0  0  0  0  0  0
  -22.3500  -14.5517   20.6727 O   0  0  0  0  0  0
  -24.6331  -31.8531   23.1957 C   0  0  0  0  0  0
  -25.9158  -32.4727   23.8310 C   0  0  1  0  0  0
  -27.2175  -27.2348   20.1509 C   0  0  0  0  0  0
  -25.5954  -33.8532   24.2241 N   0  0  0  0  0  0
  -23.4309  -30.4744   21.5398 C   0  0  2  0  0  0
  -24.8782  -28.9103   20.1148 C   0  0  0  0  0  0
  -22.7511  -29.4607   22.4923 C   0  0  0  0  0  0
  -18.0290  -28.1393   22.8498 C   0  0  0  0  0  0
  -24.1493  -36.7266   23.2642 C   0  0  0  0  0  0
  -25.9768  -30.7575   21.3781 C   0  0  0  0  0  0
  -26.0496  -29.3752   20.7269 C   0  0  0  0  0  0
  -27.2231  -28.5510   20.7317 C   0  0  0  0  0  0
  -26.0258  -26.8396   19.5083 C   0  0  0  0  0  0
  -24.8724  -27.6514   19.4930 C   0  0  0  0  0  0
  -23.6501  -29.8031   20.1578 C   0  0  0  0  0  0
  -25.4112  -36.3045   24.0334 C   0  0  1  0  0  0
  -20.5898  -28.3716   23.1280 C   0  0  2  0  0  0
  -20.6785  -26.9435   22.5423 C   0  0  0  0  0  0
  -19.5754  -26.6392   21.5238 C   0  0  0  0  0  0
  -18.1932  -26.7934   22.1637 C   0  0  0  0  0  0
  -19.1543  -28.8874   23.2881 C   0  0  0  0  0  0
  -18.9460  -30.1473   23.8896 C   0  0  0  0  0  0
  -17.6458  -30.6595   24.0571 C   0  0  0  0  0  0
  -25.9067  -34.9422   23.5090 C   0  0  0  0  0  0
  -16.5348  -29.9090   23.6341 C   0  0  0  0  0  0
  -16.7274  -28.6507   23.0360 C   0  0  0  0  0  0
  -26.4515  -31.6547   25.0706 C   0  0  0  0  0  0
  -25.3742  -31.3720   26.1437 C   0  0  0  0  0  0
  -27.0347  -30.2944   24.6214 C   0  0  0  0  0  0
  -27.6058  -32.4302   25.7468 C   0  0  0  0  0  0
  -27.5582  -37.1779   24.8457 C   0  0  0  0  0  0
  -21.4217  -29.3050   22.3655 N   0  0  0  0  0  0
  -26.4269  -37.3761   23.9435 N   0  0  0  0  0  0
  -24.6994  -31.0481   22.0937 N   0  0  0  0  0  0
  -23.4203  -28.8171   23.3048 O   0  0  0  0  0  0
  -28.3101  -26.3332   20.1621 O   0  0  0  0  0  0
  -26.5642  -34.8912   22.4661 O   0  0  0  0  0  0
  -23.5482  -32.1367   23.7251 O   0  0  0  0  0  0
  -29.3483  -20.8475   18.6387 C   0  0  0  0  0  0
  -29.6756  -19.5881   18.1046 C   0  0  0  0  0  0
  -29.1770  -20.9651   20.0181 C   0  0  0  0  0  0
  -29.7070  -18.6221   20.1909 C   0  0  0  0  0  0
  -29.2738  -20.2175   15.5725 C   0  0  0  0  0  0
  -28.9069  -18.7600   15.7364 C   0  0  0  0  0  0
  -29.9405  -19.3842   16.6427 C   0  0  0  0  0  0
  -30.1842  -17.3472   21.0276 C   0  0  0  0  0  0
  -28.7651  -23.5988   19.8911 C   0  0  0  0  0  0
  -28.1143  -24.9047   20.6315 C   0  0  0  0  0  0
  -29.8270  -18.4918   18.8764 N   0  0  0  0  0  0
  -29.3791  -19.8245   20.7819 N   0  0  0  0  0  0
  -28.8140  -22.2429   20.6017 N   0  0  0  0  0  0
  -29.8068  -15.9000   20.6864 N   0  0  0  0  0  0
  -31.4775  -12.6286   19.1577 H   0  0  0  0  0  0
  -30.3999  -11.5101   19.9490 H   0  0  0  0  0  0
  -29.8050  -11.7485   17.5144 H   0  0  0  0  0  0
  -29.6265  -13.4735   17.7088 H   0  0  0  0  0  0
  -27.9038  -11.2836   18.9090 H   0  0  0  0  0  0
  -27.3769  -12.5182   17.7954 H   0  0  0  0  0  0
  -27.6274  -14.2532   19.4619 H   0  0  0  0  0  0
  -28.7379  -12.1777   21.4155 H   0  0  0  0  0  0
  -28.4167  -13.8526   21.7889 H   0  0  0  0  0  0
  -25.2767   -9.5709   22.4761 H   0  0  0  0  0  0
  -24.0035   -7.4631   22.7468 H   0  0  0  0  0  0
  -21.0845   -8.8729   19.8954 H   0  0  0  0  0  0
  -22.3668  -10.9655   19.6169 H   0  0  0  0  0  0
  -21.1983   -7.6143   23.9724 H   0  0  0  0  0  0
  -21.1490   -6.0524   25.9090 H   0  0  0  0  0  0
  -22.0593   -2.7601   23.2846 H   0  0  0  0  0  0
  -22.4066  -11.9869   22.4845 H   0  0  0  0  0  0
  -21.1066  -13.1205   22.2620 H   0  0  0  0  0  0
  -24.6430  -15.8392   20.5125 H   0  0  0  0  0  0
  -26.2497  -15.6299   20.0404 H   0  0  0  0  0  0
  -26.7226  -32.5373   23.1051 H   0  0  0  0  0  0
  -25.0116  -33.9647   25.0398 H   0  0  0  0  0  0
  -22.7280  -31.2974   21.3920 H   0  0  0  0  0  0
  -23.3766  -35.9587   23.3245 H   0  0  0  0  0  0
  -24.3617  -36.8945   22.2073 H   0  0  0  0  0  0
  -23.7222  -37.6440   23.6700 H   0  0  0  0  0  0
  -26.1180  -31.5126   20.6034 H   0  0  0  0  0  0
  -26.8534  -30.8098   22.0123 H   0  0  0  0  0  0
  -28.1168  -28.9025   21.2275 H   0  0  0  0  0  0
  -25.9789  -25.8755   19.0224 H   0  0  0  0  0  0
  -23.9769  -27.2896   19.0063 H   0  0  0  0  0  0
  -23.7785  -30.5782   19.4007 H   0  0  0  0  0  0
  -22.7664  -29.2404   19.8519 H   0  0  0  0  0  0
  -25.1286  -36.1872   25.0825 H   0  0  0  0  0  0
  -20.9986  -28.3296   24.1402 H   0  0  0  0  0  0
  -20.5724  -26.2327   23.3632 H   0  0  0  0  0  0
  -21.6647  -26.7484   22.1188 H   0  0  0  0  0  0
  -19.6921  -25.6307   21.1258 H   0  0  0  0  0  0
  -19.6674  -27.3217   20.6781 H   0  0  0  0  0  0
  -17.4212  -26.6713   21.4021 H   0  0  0  0  0  0
  -18.0298  -26.0068   22.9018 H   0  0  0  0  0  0
  -19.7937  -30.7302   24.2244 H   0  0  0  0  0  0
  -17.5009  -31.6272   24.5173 H   0  0  0  0  0  0
  -15.5346  -30.2989   23.7667 H   0  0  0  0  0  0
  -15.8674  -28.0826   22.7072 H   0  0  0  0  0  0
  -24.5904  -30.7074   25.7784 H   0  0  0  0  0  0
  -24.8958  -32.2901   26.4855 H   0  0  0  0  0  0
  -25.8067  -30.8902   27.0216 H   0  0  0  0  0  0
  -26.2926  -29.6683   24.1247 H   0  0  0  0  0  0
  -27.4007  -29.7216   25.4744 H   0  0  0  0  0  0
  -27.8818  -30.4174   23.9465 H   0  0  0  0  0  0
  -27.2650  -33.3626   26.1981 H   0  0  0  0  0  0
  -28.3884  -32.6821   25.0300 H   0  0  0  0  0  0
  -28.0700  -31.8473   26.5431 H   0  0  0  0  0  0
  -28.2543  -38.0130   24.7569 H   0  0  0  0  0  0
  -28.1126  -36.2665   24.6168 H   0  0  0  0  0  0
  -27.2334  -37.1292   25.8866 H   0  0  0  0  0  0
  -20.9419  -29.8731   21.6814 H   0  0  0  0  0  0
  -26.0129  -38.2822   24.1465 H   0  0  0  0  0  0
  -29.2396  -21.6971   17.9822 H   0  0  0  0  0  0
  -28.5314  -20.9542   15.8718 H   0  0  0  0  0  0
  -29.8703  -20.4829   14.7018 H   0  0  0  0  0  0
  -29.2570  -18.0725   14.9695 H   0  0  0  0  0  0
  -27.9298  -18.5336   16.1604 H   0  0  0  0  0  0
  -30.9824  -19.1149   16.4810 H   0  0  0  0  0  0
  -29.8733  -17.5104   22.0597 H   0  0  0  0  0  0
  -31.2728  -17.4005   21.0584 H   0  0  0  0  0  0
  -29.7912  -23.8419   19.6179 H   0  0  0  0  0  0
  -28.2357  -23.4605   18.9476 H   0  0  0  0  0  0
  -28.5079  -24.9092   21.6484 H   0  0  0  0  0  0
  -27.0503  -24.7079   20.7640 H   0  0  0  0  0  0
  -28.7098  -22.2585   21.6107 H   0  0  0  0  0  0
  -28.8193  -15.7198   20.7572 H   0  0  0  0  0  0
  1 25  1  0  0  0
  1 30  2  0  0  0
  1 84  1  0  0  0
  2  3  1  0  0  0
  2 25  1  0  0  0
  2 85  1  0  0  0
  2 86  1  0  0  0
  3  4  1  0  0  0
  3 87  1  0  0  0
  3 88  1  0  0  0
  4  5  1  0  0  0
  4 89  1  0  0  0
  4 90  1  0  0  0
  5  6  1  0  0  0
  5 26  1  0  0  0
  5 91  1  0  0  0
  6 25  1  0  0  0
  6 92  1  0  0  0
  6 93  1  0  0  0
  7  8  2  0  0  0
  7 26  1  0  0  0
  7 29  1  0  0  0
  8  9  1  0  0  0
  8 22  1  0  0  0
  9 10  1  0  0  0
  9 27  2  0  0  0
 10 11  2  0  0  0
 10 15  1  0  0  0
 11 12  1  0  0  0
 11 94  1  0  0  0
 12 13  2  0  0  0
 12 95  1  0  0  0
 13 14  1  0  0  0
 13 31  1  0  0  0
 14 15  2  0  0  0
 14 96  1  0  0  0
 15 97  1  0  0  0
 16 17  2  0  0  0
 16 21  1  0  0  0
 16 31  1  0  0  0
 17 18  1  0  0  0
 17 98  1  0  0  0
 18 19  2  0  0  0
 18 99  1  0  0  0
 19 20  1  0  0  0
 19 24  1  0  0  0
 20 21  2  0  0  0
 20100  1  0  0  0
 21 23  1  0  0  0
 22 28  1  0  0  0
 22 32  2  0  0  0
 26 27  1  0  0  0
 28101  1  0  0  0
 28102  1  0  0  0
 29103  1  0  0  0
 29104  1  0  0  0
 33 34  1  0  0  0
 33 66  1  0  0  0
 33 70  2  0  0  0
 34 36  1  0  0  0
 34 59  1  0  0  0
 34105  1  0  0  0
 35 44  2  0  0  0
 35 45  1  0  0  0
 35 68  1  0  0  0
 36 56  1  0  0  0
 36106  1  0  0  0
 37 39  1  0  0  0
 37 47  1  0  0  0
 37 66  1  0  0  0
 37107  1  0  0  0
 38 43  2  0  0  0
 38 46  1  0  0  0
 38 47  1  0  0  0
 39 64  1  0  0  0
 39 67  2  0  0  0
 40 52  1  0  0  0
 40 53  2  0  0  0
 40 58  1  0  0  0
 41108  1  0  0  0
 41109  1  0  0  0
 41110  1  0  0  0
 41 48  1  0  0  0
 42 43  1  0  0  0
 42 66  1  0  0  0
 42111  1  0  0  0
 42112  1  0  0  0
 43 44  1  0  0  0
 44113  1  0  0  0
 45 46  2  0  0  0
 45114  1  0  0  0
 46115  1  0  0  0
 47116  1  0  0  0
 47117  1  0  0  0
 48 56  1  0  0  0
 48 65  1  0  0  0
 48118  1  0  0  0
 49 50  1  0  0  0
 49 53  1  0  0  0
 49 64  1  0  0  0
 49119  1  0  0  0
 50 51  1  0  0  0
 50120  1  0  0  0
 50121  1  0  0  0
 51 52  1  0  0  0
 51122  1  0  0  0
 51123  1  0  0  0
 52124  1  0  0  0
 52125  1  0  0  0
 53 54  1  0  0  0
 54 55  2  0  0  0
 54126  1  0  0  0
 55 57  1  0  0  0
 55127  1  0  0  0
 56 69  2  0  0  0
 57 58  2  0  0  0
 57128  1  0  0  0
 58129  1  0  0  0
 59 60  1  0  0  0
 59 61  1  0  0  0
 59 62  1  0  0  0
 60130  1  0  0  0
 60131  1  0  0  0
 60132  1  0  0  0
 61133  1  0  0  0
 61134  1  0  0  0
 61135  1  0  0  0
 62136  1  0  0  0
 62137  1  0  0  0
 62138  1  0  0  0
 63 65  1  0  0  0
 63139  1  0  0  0
 63140  1  0  0  0
 63141  1  0  0  0
 64142  1  0  0  0
 65143  1  0  0  0
 68 80  1  0  0  0
 71 72  2  0  0  0
 71 73  1  0  0  0
 71144  1  0  0  0
 72 81  1  0  0  0
 72 77  1  0  0  0
 73 82  2  0  0  0
 73 83  1  0  0  0
 74 78  1  0  0  0
 74 81  2  0  0  0
 74 82  1  0  0  0
 75 76  1  0  0  0
 75 77  1  0  0  0
 75145  1  0  0  0
 75146  1  0  0  0
 76 77  1  0  0  0
 76147  1  0  0  0
 76148  1  0  0  0
 77149  1  0  0  0
 78 84  1  0  0  0
 78150  1  0  0  0
 78151  1  0  0  0
 79 80  1  0  0  0
 79 83  1  0  0  0
 79152  1  0  0  0
 79153  1  0  0  0
 80154  1  0  0  0
 80155  1  0  0  0
 83156  1  0  0  0
 84157  1  0  0  0
M  ISO  4   1 100  68 101  80 101  84 100
M  END
> <chiral flag>
0

> <version>
0

> <s_m_source_file>
/data/baiqing/PycharmProjects/Reinvent-master-3.2/result/LINK_invent/BTK/process_docking_weight1_custom_sum_contain_oxygen_bond_distance_aromatic_linkinvent_7_9_3/rearranged_h_0187.sdf

> <i_m_source_file_index>
42

> <r_mmod_Potential_Energy-OPLS-2005>
-524.076171875

> <r_mmod_Stretch_Energy-OPLS-2005>
127.909225463867

> <r_mmod_Bend_Energy-OPLS-2005>
184.520050048828

> <r_mmod_Torsional_Energy-OPLS-2005>
233.829635620117

> <r_mmod_Improper_Torsional_Energy-OPLS-2005>
5.07583141326904

> <r_mmod_Van_der_Waal_Energy-OPLS-2005>
138.66748046875

> <r_mmod_Electrostatic_Energy-OPLS-2005>
-1067.10217285156

> <r_mmod_Solvation_Energy-OPLS-2005>
-248.018005371094

> <b_mmod_Minimization_Converged-OPLS-2005>
0

> <r_mmod_RMS_Derivative-OPLS-2005>
2.01312136650085

$$$$
42
                    3D
 Structure written by MMmdl.
151160  0  0  1  0            999 V2000
  -30.4932  -15.1604   20.3897 C   0  0  0  0  0  0
  -30.4390  -12.7353   19.5181 C   0  0  0  0  0  0
  -29.5305  -12.5546   18.2782 C   0  0  0  0  0  0
  -28.0740  -12.2996   18.7054 C   0  0  0  0  0  0
  -27.6160  -13.2690   19.8247 C   0  0  2  0  0  0
  -28.6540  -13.4123   20.9585 C   0  0  0  0  0  0
  -25.2414  -13.8250   20.5754 C   0  0  0  0  0  0
  -24.1745  -13.0446   20.9245 C   0  0  0  0  0  0
  -24.6385  -11.6942   20.8746 C   0  0  0  0  0  0
  -23.9076  -10.4298   21.0397 C   0  0  0  0  0  0
  -24.3621   -9.4212   21.9179 C   0  0  0  0  0  0
  -23.6297   -8.2246   22.0753 C   0  0  0  0  0  0
  -22.4277   -8.0279   21.3547 C   0  0  0  0  0  0
  -21.9916   -9.0247   20.4644 C   0  0  0  0  0  0
  -22.7243  -10.2129   20.3052 C   0  0  0  0  0  0
  -21.6864   -6.0733   22.5278 C   0  0  0  0  0  0
  -21.4010   -6.5635   23.8210 C   0  0  0  0  0  0
  -21.3664   -5.6787   24.9169 C   0  0  0  0  0  0
  -21.6045   -4.3053   24.7224 C   0  0  0  0  0  0
  -21.8824   -3.8143   23.4348 C   0  0  0  0  0  0
  -21.9193   -4.6956   22.3400 C   0  0  0  0  0  0
  -22.7768  -13.5196   21.1918 C   0  0  0  0  0  0
  -22.1665   -4.2140   21.0982 F   0  0  0  0  0  0
  -21.5630   -3.4543   25.7741 F   0  0  0  0  0  0
  -29.9017  -13.8771   20.3355 N   0  0  0  0  0  0
  -26.2834  -12.9508   20.3227 N   0  0  0  0  0  0
  -25.9323  -11.6615   20.5709 N   0  0  0  0  0  0
  -22.0418  -12.8168   22.0457 N   0  0  0  0  0  0
  -25.4133  -15.1983   20.4250 N   0  0  0  0  0  0
  -31.7132  -15.1567   20.1739 O   0  0  0  0  0  0
  -21.6650   -6.8871   21.4237 O   0  0  0  0  0  0
  -22.3447  -14.5495   20.6757 O   0  0  0  0  0  0
  -24.6607  -31.8300   23.1736 C   0  0  0  0  0  0
  -25.9319  -32.4614   23.8181 C   0  0  1  0  0  0
  -27.2145  -26.9803   20.1694 C   0  0  0  0  0  0
  -25.6016  -33.8419   24.2116 N   0  0  0  0  0  0
  -23.4705  -30.4459   21.5235 C   0  0  2  0  0  0
  -24.9207  -28.8465   20.1110 C   0  0  0  0  0  0
  -22.7649  -29.4492   22.4795 C   0  0  0  0  0  0
  -18.0326  -28.1404   22.8487 C   0  0  0  0  0  0
  -24.1493  -36.7206   23.2642 C   0  0  0  0  0  0
  -26.0372  -30.6552   21.3921 C   0  0  0  0  0  0
  -26.1053  -29.2492   20.7391 C   0  0  0  0  0  0
  -27.2494  -28.3375   20.7462 C   0  0  0  0  0  0
  -26.0012  -26.7265   19.4884 C   0  0  0  0  0  0
  -24.8921  -27.6037   19.4643 C   0  0  0  0  0  0
  -23.7051  -29.7676   20.1473 C   0  0  0  0  0  0
  -25.4127  -36.2972   24.0308 C   0  0  1  0  0  0
  -20.5954  -28.3756   23.1200 C   0  0  2  0  0  0
  -20.6797  -26.9445   22.5402 C   0  0  0  0  0  0
  -19.5765  -26.6399   21.5216 C   0  0  0  0  0  0
  -18.1952  -26.7949   22.1630 C   0  0  0  0  0  0
  -19.1584  -28.8894   23.2840 C   0  0  0  0  0  0
  -18.9492  -30.1485   23.8880 C   0  0  0  0  0  0
  -17.6487  -30.6600   24.0558 C   0  0  0  0  0  0
  -25.9093  -34.9363   23.5021 C   0  0  0  0  0  0
  -16.5376  -29.9091   23.6337 C   0  0  0  0  0  0
  -16.7304  -28.6505   23.0378 C   0  0  0  0  0  0
  -26.4585  -31.6507   25.0675 C   0  0  0  0  0  0
  -25.3732  -31.3716   26.1342 C   0  0  0  0  0  0
  -27.0432  -30.2869   24.6337 C   0  0  0  0  0  0
  -27.6087  -32.4293   25.7483 C   0  0  0  0  0  0
  -27.5562  -37.1758   24.8479 C   0  0  0  0  0  0
  -21.4325  -29.3063   22.3549 N   0  0  0  0  0  0
  -26.4271  -37.3709   23.9424 N   0  0  0  0  0  0
  -24.7445  -31.0025   22.0836 N   0  0  0  0  0  0
  -23.4219  -28.8047   23.3009 O   0  0  0  0  0  0
  -28.2141  -25.8860   20.2316 O   0  0  0  0  0  0
  -26.5681  -34.8904   22.4602 O   0  0  0  0  0  0
  -23.5691  -32.1239   23.6877 O   0  0  0  0  0  0
  -29.9964  -22.4101   19.8280 C   0  0  0  0  0  0
  -28.6656  -22.7996   20.2289 C   0  0  0  0  0  0
  -28.2518  -21.4400   20.5203 C   0  0  0  0  0  0
  -29.9809  -17.6653   21.3520 C   0  0  0  0  0  0
  -29.7240  -17.5637   19.3979 C   0  0  0  0  0  0
  -29.2012  -18.7155   20.4017 C   0  0  0  0  0  0
  -26.8970  -21.0483   21.0085 C   0  0  0  0  0  0
  -27.8083  -24.3148   20.1944 C   0  0  0  0  0  0
  -30.3024  -21.0712   19.8698 N   0  0  0  0  0  0
  -29.2232  -20.3445   20.2921 N   0  0  0  0  0  0
  -29.7511  -16.4290   20.4480 N   0  0  0  0  0  0
  -31.4649  -12.9188   19.1928 H   0  0  0  0  0  0
  -30.4796  -11.8186   20.1084 H   0  0  0  0  0  0
  -29.8882  -11.7313   17.6585 H   0  0  0  0  0  0
  -29.5805  -13.4521   17.6588 H   0  0  0  0  0  0
  -28.0136  -11.2715   19.0667 H   0  0  0  0  0  0
  -27.4064  -12.3597   17.8451 H   0  0  0  0  0  0
  -27.5417  -14.2430   19.3387 H   0  0  0  0  0  0
  -28.7928  -12.4739   21.4967 H   0  0  0  0  0  0
  -28.3154  -14.1497   21.6886 H   0  0  0  0  0  0
  -25.2760   -9.5697   22.4764 H   0  0  0  0  0  0
  -24.0012   -7.4639   22.7475 H   0  0  0  0  0  0
  -21.0851   -8.8747   19.8956 H   0  0  0  0  0  0
  -22.3679  -10.9659   19.6165 H   0  0  0  0  0  0
  -21.1994   -7.6146   23.9701 H   0  0  0  0  0  0
  -21.1489   -6.0525   25.9071 H   0  0  0  0  0  0
  -22.0597   -2.7607   23.2849 H   0  0  0  0  0  0
  -22.4035  -11.9826   22.4834 H   0  0  0  0  0  0
  -21.1035  -13.1180   22.2657 H   0  0  0  0  0  0
  -24.6574  -15.8623   20.5528 H   0  0  0  0  0  0
  -26.2811  -15.6365   20.1421 H   0  0  0  0  0  0
  -26.7378  -32.5176   23.0889 H   0  0  0  0  0  0
  -25.0188  -33.9497   25.0284 H   0  0  0  0  0  0
  -22.7799  -31.2745   21.3559 H   0  0  0  0  0  0
  -23.3766  -35.9522   23.3280 H   0  0  0  0  0  0
  -24.3587  -36.8863   22.2061 H   0  0  0  0  0  0
  -23.7251  -37.6396   23.6692 H   0  0  0  0  0  0
  -26.2068  -31.3962   20.6099 H   0  0  0  0  0  0
  -26.9020  -30.7132   22.0400 H   0  0  0  0  0  0
  -28.1465  -28.6467   21.2639 H   0  0  0  0  0  0
  -25.8606  -25.7904   18.9729 H   0  0  0  0  0  0
  -23.9981  -27.2906   18.9436 H   0  0  0  0  0  0
  -23.8558  -30.5373   19.3898 H   0  0  0  0  0  0
  -22.8146  -29.2214   19.8316 H   0  0  0  0  0  0
  -25.1324  -36.1753   25.0794 H   0  0  0  0  0  0
  -21.0053  -28.3354   24.1322 H   0  0  0  0  0  0
  -20.5699  -26.2377   23.3644 H   0  0  0  0  0  0
  -21.6653  -26.7447   22.1185 H   0  0  0  0  0  0
  -19.6947  -25.6315   21.1251 H   0  0  0  0  0  0
  -19.6685  -27.3195   20.6730 H   0  0  0  0  0  0
  -17.4225  -26.6710   21.4034 H   0  0  0  0  0  0
  -18.0334  -26.0097   22.9024 H   0  0  0  0  0  0
  -19.7962  -30.7303   24.2249 H   0  0  0  0  0  0
  -17.5036  -31.6278   24.5160 H   0  0  0  0  0  0
  -15.5375  -30.2981   23.7672 H   0  0  0  0  0  0
  -15.8708  -28.0799   22.7123 H   0  0  0  0  0  0
  -24.5965  -30.7007   25.7665 H   0  0  0  0  0  0
  -24.8865  -32.2880   26.4666 H   0  0  0  0  0  0
  -25.8009  -30.8977   27.0184 H   0  0  0  0  0  0
  -26.3049  -29.6590   24.1337 H   0  0  0  0  0  0
  -27.3970  -29.7192   25.4954 H   0  0  0  0  0  0
  -27.9004  -30.4047   23.9709 H   0  0  0  0  0  0
  -27.2663  -33.3644   26.1926 H   0  0  0  0  0  0
  -28.3963  -32.6759   25.0352 H   0  0  0  0  0  0
  -28.0673  -31.8508   26.5511 H   0  0  0  0  0  0
  -28.2560  -38.0065   24.7508 H   0  0  0  0  0  0
  -28.1064  -36.2595   24.6303 H   0  0  0  0  0  0
  -27.2291  -37.1410   25.8885 H   0  0  0  0  0  0
  -20.9576  -29.8758   21.6684 H   0  0  0  0  0  0
  -26.0116  -38.2768   24.1412 H   0  0  0  0  0  0
  -30.7691  -23.0712   19.4595 H   0  0  0  0  0  0
  -29.5154  -17.5815   22.3354 H   0  0  0  0  0  0
  -31.0372  -17.9147   21.4818 H   0  0  0  0  0  0
  -30.7083  -17.7846   18.9743 H   0  0  0  0  0  0
  -29.0227  -17.3874   18.5824 H   0  0  0  0  0  0
  -28.1386  -18.5185   20.5460 H   0  0  0  0  0  0
  -26.2476  -21.9150   21.1176 H   0  0  0  0  0  0
  -26.9657  -20.5605   21.9807 H   0  0  0  0  0  0
  -26.4182  -20.3549   20.3172 H   0  0  0  0  0  0
  -27.0679  -24.2559   20.9922 H   0  0  0  0  0  0
  -27.2114  -24.2394   19.2886 H   0  0  0  0  0  0
  1 25  1  0  0  0
  1 30  2  0  0  0
  1 81  1  0  0  0
  2  3  1  0  0  0
  2 25  1  0  0  0
  2 82  1  0  0  0
  2 83  1  0  0  0
  3  4  1  0  0  0
  3 84  1  0  0  0
  3 85  1  0  0  0
  4  5  1  0  0  0
  4 86  1  0  0  0
  4 87  1  0  0  0
  5  6  1  0  0  0
  5 26  1  0  0  0
  5 88  1  0  0  0
  6 25  1  0  0  0
  6 89  1  0  0  0
  6 90  1  0  0  0
  7  8  2  0  0  0
  7 26  1  0  0  0
  7 29  1  0  0  0
  8  9  1  0  0  0
  8 22  1  0  0  0
  9 10  1  0  0  0
  9 27  2  0  0  0
 10 11  2  0  0  0
 10 15  1  0  0  0
 11 12  1  0  0  0
 11 91  1  0  0  0
 12 13  2  0  0  0
 12 92  1  0  0  0
 13 14  1  0  0  0
 13 31  1  0  0  0
 14 15  2  0  0  0
 14 93  1  0  0  0
 15 94  1  0  0  0
 16 17  2  0  0  0
 16 21  1  0  0  0
 16 31  1  0  0  0
 17 18  1  0  0  0
 17 95  1  0  0  0
 18 19  2  0  0  0
 18 96  1  0  0  0
 19 20  1  0  0  0
 19 24  1  0  0  0
 20 21  2  0  0  0
 20 97  1  0  0  0
 21 23  1  0  0  0
 22 28  1  0  0  0
 22 32  2  0  0  0
 26 27  1  0  0  0
 28 98  1  0  0  0
 28 99  1  0  0  0
 29100  1  0  0  0
 29101  1  0  0  0
 33 34  1  0  0  0
 33 66  1  0  0  0
 33 70  2  0  0  0
 34 36  1  0  0  0
 34 59  1  0  0  0
 34102  1  0  0  0
 35 44  2  0  0  0
 35 45  1  0  0  0
 35 68  1  0  0  0
 36 56  1  0  0  0
 36103  1  0  0  0
 37 39  1  0  0  0
 37 47  1  0  0  0
 37 66  1  0  0  0
 37104  1  0  0  0
 38 43  2  0  0  0
 38 46  1  0  0  0
 38 47  1  0  0  0
 39 64  1  0  0  0
 39 67  2  0  0  0
 40 52  1  0  0  0
 40 53  2  0  0  0
 40 58  1  0  0  0
 41105  1  0  0  0
 41106  1  0  0  0
 41107  1  0  0  0
 41 48  1  0  0  0
 42 43  1  0  0  0
 42 66  1  0  0  0
 42108  1  0  0  0
 42109  1  0  0  0
 43 44  1  0  0  0
 44110  1  0  0  0
 45 46  2  0  0  0
 45111  1  0  0  0
 46112  1  0  0  0
 47113  1  0  0  0
 47114  1  0  0  0
 48 56  1  0  0  0
 48 65  1  0  0  0
 48115  1  0  0  0
 49 50  1  0  0  0
 49 53  1  0  0  0
 49 64  1  0  0  0
 49116  1  0  0  0
 50 51  1  0  0  0
 50117  1  0  0  0
 50118  1  0  0  0
 51 52  1  0  0  0
 51119  1  0  0  0
 51120  1  0  0  0
 52121  1  0  0  0
 52122  1  0  0  0
 53 54  1  0  0  0
 54 55  2  0  0  0
 54123  1  0  0  0
 55 57  1  0  0  0
 55124  1  0  0  0
 56 69  2  0  0  0
 57 58  2  0  0  0
 57125  1  0  0  0
 58126  1  0  0  0
 59 60  1  0  0  0
 59 61  1  0  0  0
 59 62  1  0  0  0
 60127  1  0  0  0
 60128  1  0  0  0
 60129  1  0  0  0
 61130  1  0  0  0
 61131  1  0  0  0
 61132  1  0  0  0
 62133  1  0  0  0
 62134  1  0  0  0
 62135  1  0  0  0
 63 65  1  0  0  0
 63136  1  0  0  0
 63137  1  0  0  0
 63138  1  0  0  0
 64139  1  0  0  0
 65140  1  0  0  0
 68 78  1  0  0  0
 71 72  1  0  0  0
 71 79  2  0  0  0
 71141  1  0  0  0
 72 73  2  0  0  0
 72 78  1  0  0  0
 73 77  1  0  0  0
 73 80  1  0  0  0
 74 76  1  0  0  0
 74 81  1  0  0  0
 74142  1  0  0  0
 74143  1  0  0  0
 75 76  1  0  0  0
 75 81  1  0  0  0
 75144  1  0  0  0
 75145  1  0  0  0
 76 80  1  0  0  0
 76146  1  0  0  0
 77147  1  0  0  0
 77148  1  0  0  0
 77149  1  0  0  0
 78150  1  0  0  0
 78151  1  0  0  0
 79 80  1  0  0  0
M  ISO  4   1 100  68 101  78 101  81 100
M  END
> <chiral flag>
0

> <version>
0

> <s_m_source_file>
/data/baiqing/PycharmProjects/Reinvent-master-3.2/result/LINK_invent/BTK/process_docking_weight1_custom_sum_contain_oxygen_bond_distance_aromatic_linkinvent_7_9_3/rearranged_h_0187.sdf

> <i_m_source_file_index>
43

> <r_mmod_Potential_Energy-OPLS-2005>
1015.14929199219

> <r_mmod_Stretch_Energy-OPLS-2005>
412.226409912109

> <r_mmod_Bend_Energy-OPLS-2005>
370.996185302734

> <r_mmod_Torsional_Energy-OPLS-2005>
290.727264404297

> <r_mmod_Improper_Torsional_Energy-OPLS-2005>
12.880051612854

> <r_mmod_Van_der_Waal_Energy-OPLS-2005>
107.730583190918

> <r_mmod_Electrostatic_Energy-OPLS-2005>
-327.102844238281

> <r_mmod_Solvation_Energy-OPLS-2005>
-220.184753417969

> <b_mmod_Minimization_Converged-OPLS-2005>
0

> <r_mmod_RMS_Derivative-OPLS-2005>
1.97862994670868

$$$$
43
                    3D
 Structure written by MMmdl.
176185  0  0  1  0            999 V2000
  -30.7232  -14.5229   20.5228 C   0  0  0  0  0  0
  -30.4173  -12.3271   19.4399 C   0  0  0  0  0  0
  -29.4980  -12.4982   18.2136 C   0  0  0  0  0  0
  -28.0190  -12.3604   18.6254 C   0  0  0  0  0  0
  -27.6548  -13.2226   19.8643 C   0  0  2  0  0  0
  -28.7020  -13.0691   20.9895 C   0  0  0  0  0  0
  -25.2559  -13.8198   20.5707 C   0  0  0  0  0  0
  -24.1835  -13.0443   20.9212 C   0  0  0  0  0  0
  -24.6415  -11.6920   20.8751 C   0  0  0  0  0  0
  -23.9087  -10.4286   21.0402 C   0  0  0  0  0  0
  -24.3632   -9.4198   21.9178 C   0  0  0  0  0  0
  -23.6303   -8.2237   22.0746 C   0  0  0  0  0  0
  -22.4279   -8.0283   21.3539 C   0  0  0  0  0  0
  -21.9926   -9.0257   20.4637 C   0  0  0  0  0  0
  -22.7263  -10.2133   20.3046 C   0  0  0  0  0  0
  -21.6858   -6.0746   22.5284 C   0  0  0  0  0  0
  -21.4014   -6.5637   23.8218 C   0  0  0  0  0  0
  -21.3661   -5.6786   24.9174 C   0  0  0  0  0  0
  -21.6043   -4.3052   24.7226 C   0  0  0  0  0  0
  -21.8818   -3.8154   23.4342 C   0  0  0  0  0  0
  -21.9191   -4.6975   22.3402 C   0  0  0  0  0  0
  -22.7847  -13.5217   21.1863 C   0  0  0  0  0  0
  -22.1653   -4.2162   21.0979 F   0  0  0  0  0  0
  -21.5632   -3.4530   25.7735 F   0  0  0  0  0  0
  -30.0241  -13.3566   20.4180 N   0  0  0  0  0  0
  -26.3006  -12.9402   20.3355 N   0  0  0  0  0  0
  -25.9352  -11.6545   20.5784 N   0  0  0  0  0  0
  -22.0485  -12.8200   22.0413 N   0  0  0  0  0  0
  -25.4260  -15.1928   20.4109 N   0  0  0  0  0  0
  -31.8992  -14.6114   20.1608 O   0  0  0  0  0  0
  -21.6637   -6.8888   21.4242 O   0  0  0  0  0  0
  -22.3522  -14.5517   20.6714 O   0  0  0  0  0  0
  -24.6189  -31.8672   23.2085 C   0  0  0  0  0  0
  -25.9066  -32.4819   23.8394 C   0  0  1  0  0  0
  -27.2164  -27.3897   20.1079 C   0  0  0  0  0  0
  -25.5909  -33.8619   24.2319 N   0  0  0  0  0  0
  -23.4077  -30.4924   21.5518 C   0  0  2  0  0  0
  -24.8510  -28.9594   20.1116 C   0  0  0  0  0  0
  -22.7434  -29.4660   22.4983 C   0  0  0  0  0  0
  -18.0280  -28.1387   22.8497 C   0  0  0  0  0  0
  -24.1479  -36.7314   23.2634 C   0  0  0  0  0  0
  -25.9417  -30.8191   21.3684 C   0  0  0  0  0  0
  -26.0157  -29.4513   20.7147 C   0  0  0  0  0  0
  -27.2041  -28.6763   20.7076 C   0  0  0  0  0  0
  -26.0400  -26.9424   19.4648 C   0  0  0  0  0  0
  -24.8613  -27.7079   19.4784 C   0  0  0  0  0  0
  -23.6161  -29.8314   20.1646 C   0  0  0  0  0  0
  -25.4103  -36.3113   24.0334 C   0  0  1  0  0  0
  -20.5873  -28.3678   23.1309 C   0  0  2  0  0  0
  -20.6768  -26.9407   22.5421 C   0  0  0  0  0  0
  -19.5744  -26.6392   21.5222 C   0  0  0  0  0  0
  -18.1924  -26.7934   22.1628 C   0  0  0  0  0  0
  -19.1528  -28.8849   23.2903 C   0  0  0  0  0  0
  -18.9455  -30.1458   23.8915 C   0  0  0  0  0  0
  -17.6451  -30.6589   24.0574 C   0  0  0  0  0  0
  -25.9043  -34.9477   23.5127 C   0  0  0  0  0  0
  -16.5346  -29.9093   23.6324 C   0  0  0  0  0  0
  -16.7269  -28.6513   23.0344 C   0  0  0  0  0  0
  -26.4466  -31.6603   25.0735 C   0  0  0  0  0  0
  -25.3712  -31.3715   26.1469 C   0  0  0  0  0  0
  -27.0289  -30.3037   24.6125 C   0  0  0  0  0  0
  -27.6040  -32.4319   25.7506 C   0  0  0  0  0  0
  -27.5578  -37.1812   24.8462 C   0  0  0  0  0  0
  -21.4159  -29.3045   22.3721 N   0  0  0  0  0  0
  -26.4285  -37.3801   23.9412 N   0  0  0  0  0  0
  -24.6750  -31.0737   22.1012 N   0  0  0  0  0  0
  -23.4192  -28.8198   23.3031 O   0  0  0  0  0  0
  -28.3460  -26.5833   20.1391 O   0  0  0  0  0  0
  -26.5610  -34.8930   22.4694 O   0  0  0  0  0  0
  -23.5373  -32.1445   23.7457 O   0  0  0  0  0  0
  -28.9085  -20.4649   19.1628 C   0  0  0  0  0  0
  -28.4748  -20.0841   17.9384 C   0  0  0  0  0  0
  -29.5875  -21.8363   19.3196 C   0  0  0  0  0  0
  -29.9012  -16.3069   21.9793 C   0  0  0  0  0  0
  -30.0966  -16.6696   19.5579 C   0  0  0  0  0  0
  -29.2428  -17.7297   21.9847 C   0  0  0  0  0  0
  -28.6430  -22.1344   21.5229 C   0  0  0  0  0  0
  -28.6497  -19.6756   20.4670 C   0  0  2  0  0  0
  -27.9995  -20.7110   21.4776 C   0  0  1  0  0  0
  -30.6831  -18.0287   20.0362 C   0  0  1  0  0  0
  -27.7690  -18.8015   17.5292 C   0  0  0  0  0  0
  -27.6647  -20.2222   22.8991 C   0  0  0  0  0  0
  -31.3807  -18.8299   18.9181 C   0  0  0  0  0  0
  -29.2124  -24.1821   20.1367 C   0  0  0  0  0  0
  -28.1261  -25.2108   20.5830 C   0  0  0  0  0  0
  -29.9930  -15.6695   20.6496 N   0  0  0  0  0  0
  -28.7673  -22.7388   20.1689 N   0  3  1  0  0  0
  -29.7597  -18.7491   20.9927 N   0  3  2  0  0  0
  -31.4648  -12.4045   19.1415 H   0  0  0  0  0  0
  -30.3020  -11.3316   19.8717 H   0  0  0  0  0  0
  -29.7429  -11.7611   17.4485 H   0  0  0  0  0  0
  -29.6667  -13.4762   17.7598 H   0  0  0  0  0  0
  -27.8343  -11.3075   18.8413 H   0  0  0  0  0  0
  -27.3694  -12.6149   17.7876 H   0  0  0  0  0  0
  -27.6767  -14.2622   19.5382 H   0  0  0  0  0  0
  -28.6848  -12.0562   21.3937 H   0  0  0  0  0  0
  -28.4711  -13.7318   21.8233 H   0  0  0  0  0  0
  -25.2778   -9.5665   22.4755 H   0  0  0  0  0  0
  -24.0015   -7.4618   22.7457 H   0  0  0  0  0  0
  -21.0860   -8.8775   19.8938 H   0  0  0  0  0  0
  -22.3728  -10.9669   19.6154 H   0  0  0  0  0  0
  -21.2000   -7.6142   23.9733 H   0  0  0  0  0  0
  -21.1485   -6.0508   25.9078 H   0  0  0  0  0  0
  -22.0601   -2.7621   23.2839 H   0  0  0  0  0  0
  -22.4096  -11.9859   22.4800 H   0  0  0  0  0  0
  -21.1097  -13.1217   22.2595 H   0  0  0  0  0  0
  -24.6581  -15.8472   20.5173 H   0  0  0  0  0  0
  -26.2756  -15.6271   20.0764 H   0  0  0  0  0  0
  -26.7142  -32.5512   23.1161 H   0  0  0  0  0  0
  -25.0041  -33.9781   25.0451 H   0  0  0  0  0  0
  -22.6983  -31.3114   21.4154 H   0  0  0  0  0  0
  -23.3746  -35.9641   23.3294 H   0  0  0  0  0  0
  -24.3580  -36.8936   22.2050 H   0  0  0  0  0  0
  -23.7222  -37.6512   23.6656 H   0  0  0  0  0  0
  -26.0572  -31.5814   20.5968 H   0  0  0  0  0  0
  -26.8291  -30.8738   21.9871 H   0  0  0  0  0  0
  -28.0992  -29.0492   21.1855 H   0  0  0  0  0  0
  -26.0138  -25.9995   18.9381 H   0  0  0  0  0  0
  -23.9721  -27.3332   18.9899 H   0  0  0  0  0  0
  -23.7272  -30.6108   19.4094 H   0  0  0  0  0  0
  -22.7378  -29.2561   19.8654 H   0  0  0  0  0  0
  -25.1277  -36.1976   25.0826 H   0  0  0  0  0  0
  -20.9966  -28.3248   24.1429 H   0  0  0  0  0  0
  -20.5671  -26.2291   23.3620 H   0  0  0  0  0  0
  -21.6636  -26.7454   22.1207 H   0  0  0  0  0  0
  -19.6899  -25.6309   21.1244 H   0  0  0  0  0  0
  -19.6679  -27.3211   20.6761 H   0  0  0  0  0  0
  -17.4196  -26.6701   21.4024 H   0  0  0  0  0  0
  -18.0311  -26.0071   22.9016 H   0  0  0  0  0  0
  -19.7929  -30.7277   24.2284 H   0  0  0  0  0  0
  -17.5004  -31.6265   24.5182 H   0  0  0  0  0  0
  -15.5344  -30.2999   23.7638 H   0  0  0  0  0  0
  -15.8673  -28.0843   22.7033 H   0  0  0  0  0  0
  -24.5910  -30.7032   25.7804 H   0  0  0  0  0  0
  -24.8867  -32.2867   26.4884 H   0  0  0  0  0  0
  -25.8049  -30.8916   27.0251 H   0  0  0  0  0  0
  -26.2841  -29.6827   24.1128 H   0  0  0  0  0  0
  -27.3992  -29.7248   25.4598 H   0  0  0  0  0  0
  -27.8710  -30.4356   23.9325 H   0  0  0  0  0  0
  -27.2659  -33.3612   26.2104 H   0  0  0  0  0  0
  -28.3837  -32.6888   25.0325 H   0  0  0  0  0  0
  -28.0713  -31.8424   26.5404 H   0  0  0  0  0  0
  -28.2590  -38.0114   24.7523 H   0  0  0  0  0  0
  -28.1079  -36.2650   24.6264 H   0  0  0  0  0  0
  -27.2307  -37.1437   25.8867 H   0  0  0  0  0  0
  -20.9325  -29.8783   21.6954 H   0  0  0  0  0  0
  -26.0172  -38.2877   24.1424 H   0  0  0  0  0  0
  -28.6839  -20.7347   17.1000 H   0  0  0  0  0  0
  -29.7372  -22.2882   18.3386 H   0  0  0  0  0  0
  -30.5809  -21.7223   19.7542 H   0  0  0  0  0  0
  -29.3492  -15.6578   22.6596 H   0  0  0  0  0  0
  -30.9045  -16.3793   22.4060 H   0  0  0  0  0  0
  -30.6993  -16.2922   18.7284 H   0  0  0  0  0  0
  -29.1028  -16.8123   19.1360 H   0  0  0  0  0  0
  -29.3439  -18.1277   22.9925 H   0  0  0  0  0  0
  -28.1769  -17.5658   21.8251 H   0  0  0  0  0  0
  -29.6198  -22.0947   22.0066 H   0  0  0  0  0  0
  -28.0241  -22.7846   22.1427 H   0  0  0  0  0  0
  -27.8397  -18.9911   20.2304 H   0  0  0  0  0  0
  -27.0125  -20.8914   21.0454 H   0  0  0  0  0  0
  -31.5435  -17.7797   20.6608 H   0  0  0  0  0  0
  -27.4081  -18.1925   18.3537 H   0  0  0  0  0  0
  -28.4459  -18.1900   16.9309 H   0  0  0  0  0  0
  -26.9081  -19.0436   16.9055 H   0  0  0  0  0  0
  -28.5547  -20.1149   23.5179 H   0  0  0  0  0  0
  -27.1123  -19.2826   22.8937 H   0  0  0  0  0  0
  -27.0258  -20.9440   23.4088 H   0  0  0  0  0  0
  -30.7742  -18.9380   18.0234 H   0  0  0  0  0  0
  -32.2744  -18.2966   18.5911 H   0  0  0  0  0  0
  -31.7190  -19.8083   19.2540 H   0  0  0  0  0  0
  -30.1227  -24.3132   20.7221 H   0  0  0  0  0  0
  -29.4774  -24.4305   19.1081 H   0  0  0  0  0  0
  -28.0646  -25.2192   21.6720 H   0  0  0  0  0  0
  -27.1671  -24.8207   20.2516 H   0  0  0  0  0  0
  -27.8461  -22.7314   19.7518 H   0  0  0  0  0  0
  -30.3843  -19.3436   21.5197 H   0  0  0  0  0  0
  1 25  1  0  0  0
  1 30  2  0  0  0
  1 86  1  0  0  0
  2  3  1  0  0  0
  2 25  1  0  0  0
  2 89  1  0  0  0
  2 90  1  0  0  0
  3  4  1  0  0  0
  3 91  1  0  0  0
  3 92  1  0  0  0
  4  5  1  0  0  0
  4 93  1  0  0  0
  4 94  1  0  0  0
  5  6  1  0  0  0
  5 26  1  0  0  0
  5 95  1  0  0  0
  6 25  1  0  0  0
  6 96  1  0  0  0
  6 97  1  0  0  0
  7  8  2  0  0  0
  7 26  1  0  0  0
  7 29  1  0  0  0
  8  9  1  0  0  0
  8 22  1  0  0  0
  9 10  1  0  0  0
  9 27  2  0  0  0
 10 11  2  0  0  0
 10 15  1  0  0  0
 11 12  1  0  0  0
 11 98  1  0  0  0
 12 13  2  0  0  0
 12 99  1  0  0  0
 13 14  1  0  0  0
 13 31  1  0  0  0
 14 15  2  0  0  0
 14100  1  0  0  0
 15101  1  0  0  0
 16 17  2  0  0  0
 16 21  1  0  0  0
 16 31  1  0  0  0
 17 18  1  0  0  0
 17102  1  0  0  0
 18 19  2  0  0  0
 18103  1  0  0  0
 19 20  1  0  0  0
 19 24  1  0  0  0
 20 21  2  0  0  0
 20104  1  0  0  0
 21 23  1  0  0  0
 22 28  1  0  0  0
 22 32  2  0  0  0
 26 27  1  0  0  0
 28105  1  0  0  0
 28106  1  0  0  0
 29107  1  0  0  0
 29108  1  0  0  0
 33 34  1  0  0  0
 33 66  1  0  0  0
 33 70  2  0  0  0
 34 36  1  0  0  0
 34 59  1  0  0  0
 34109  1  0  0  0
 35 44  2  0  0  0
 35 45  1  0  0  0
 35 68  1  0  0  0
 36 56  1  0  0  0
 36110  1  0  0  0
 37 39  1  0  0  0
 37 47  1  0  0  0
 37 66  1  0  0  0
 37111  1  0  0  0
 38 43  2  0  0  0
 38 46  1  0  0  0
 38 47  1  0  0  0
 39 64  1  0  0  0
 39 67  2  0  0  0
 40 52  1  0  0  0
 40 53  2  0  0  0
 40 58  1  0  0  0
 41112  1  0  0  0
 41113  1  0  0  0
 41114  1  0  0  0
 41 48  1  0  0  0
 42 43  1  0  0  0
 42 66  1  0  0  0
 42115  1  0  0  0
 42116  1  0  0  0
 43 44  1  0  0  0
 44117  1  0  0  0
 45 46  2  0  0  0
 45118  1  0  0  0
 46119  1  0  0  0
 47120  1  0  0  0
 47121  1  0  0  0
 48 56  1  0  0  0
 48 65  1  0  0  0
 48122  1  0  0  0
 49 50  1  0  0  0
 49 53  1  0  0  0
 49 64  1  0  0  0
 49123  1  0  0  0
 50 51  1  0  0  0
 50124  1  0  0  0
 50125  1  0  0  0
 51 52  1  0  0  0
 51126  1  0  0  0
 51127  1  0  0  0
 52128  1  0  0  0
 52129  1  0  0  0
 53 54  1  0  0  0
 54 55  2  0  0  0
 54130  1  0  0  0
 55 57  1  0  0  0
 55131  1  0  0  0
 56 69  2  0  0  0
 57 58  2  0  0  0
 57132  1  0  0  0
 58133  1  0  0  0
 59 60  1  0  0  0
 59 61  1  0  0  0
 59 62  1  0  0  0
 60134  1  0  0  0
 60135  1  0  0  0
 60136  1  0  0  0
 61137  1  0  0  0
 61138  1  0  0  0
 61139  1  0  0  0
 62140  1  0  0  0
 62141  1  0  0  0
 62142  1  0  0  0
 63 65  1  0  0  0
 63143  1  0  0  0
 63144  1  0  0  0
 63145  1  0  0  0
 64146  1  0  0  0
 65147  1  0  0  0
 68 85  1  0  0  0
 71 72  2  0  0  0
 71 73  1  0  0  0
 71 78  1  0  0  0
 72 81  1  0  0  0
 72148  1  0  0  0
 73 87  1  0  0  0
 73149  1  0  0  0
 73150  1  0  0  0
 74 76  1  0  0  0
 74 86  1  0  0  0
 74151  1  0  0  0
 74152  1  0  0  0
 75 80  1  0  0  0
 75 86  1  0  0  0
 75153  1  0  0  0
 75154  1  0  0  0
 76155  1  0  0  0
 76156  1  0  0  0
 76 88  1  0  0  0
 77 79  1  0  0  0
 77 87  1  0  0  0
 77157  1  0  0  0
 77158  1  0  0  0
 78 79  1  0  0  0
 78 88  1  0  0  0
 78159  1  0  0  0
 79 82  1  0  0  0
 79160  1  0  0  0
 80 83  1  0  0  0
 80 88  1  0  0  0
 80161  1  0  0  0
 81162  1  0  0  0
 81163  1  0  0  0
 81164  1  0  0  0
 82165  1  0  0  0
 82166  1  0  0  0
 82167  1  0  0  0
 83168  1  0  0  0
 83169  1  0  0  0
 83170  1  0  0  0
 84 85  1  0  0  0
 84171  1  0  0  0
 84172  1  0  0  0
 84 87  1  0  0  0
 85173  1  0  0  0
 85174  1  0  0  0
 87175  1  0  0  0
 88176  1  0  0  0
M  CHG  2  87   1  88   1
M  ISO  4   1 100  68 101  85 101  86 100
M  END
> <chiral flag>
0

> <version>
0

> <s_m_source_file>
/data/baiqing/PycharmProjects/Reinvent-master-3.2/result/LINK_invent/BTK/process_docking_weight1_custom_sum_contain_oxygen_bond_distance_aromatic_linkinvent_7_9_3/rearranged_h_0187.sdf

> <i_m_source_file_index>
44

> <r_mmod_Potential_Energy-OPLS-2005>
171.350463867188

> <r_mmod_Stretch_Energy-OPLS-2005>
67.3236236572266

> <r_mmod_Bend_Energy-OPLS-2005>
173.43505859375

> <r_mmod_Torsional_Energy-OPLS-2005>
450.468811035156

> <r_mmod_Improper_Torsional_Energy-OPLS-2005>
14.4591627120972

> <r_mmod_Van_der_Waal_Energy-OPLS-2005>
160.588973999023

> <r_mmod_Electrostatic_Energy-OPLS-2005>
184.578735351562

> <r_mmod_Solvation_Energy-OPLS-2005>
-906.018371582031

> <b_mmod_Minimization_Converged-OPLS-2005>
0

> <r_mmod_RMS_Derivative-OPLS-2005>
1.69645988941193

$$$$
44
                    3D
 Structure written by MMmdl.
162172  0  0  1  0            999 V2000
  -30.6709  -14.4841   20.5482 C   0  0  0  0  0  0
  -30.4282  -12.3056   19.4284 C   0  0  0  0  0  0
  -29.5000  -12.5007   18.2105 C   0  0  0  0  0  0
  -28.0185  -12.3610   18.6184 C   0  0  0  0  0  0
  -27.6618  -13.1997   19.8752 C   0  0  2  0  0  0
  -28.7017  -12.9793   20.9985 C   0  0  0  0  0  0
  -25.2605  -13.8155   20.5668 C   0  0  0  0  0  0
  -24.1848  -13.0448   20.9192 C   0  0  0  0  0  0
  -24.6384  -11.6903   20.8744 C   0  0  0  0  0  0
  -23.9044  -10.4290   21.0403 C   0  0  0  0  0  0
  -24.3603   -9.4207   21.9178 C   0  0  0  0  0  0
  -23.6293   -8.2235   22.0749 C   0  0  0  0  0  0
  -22.4277   -8.0272   21.3538 C   0  0  0  0  0  0
  -21.9906   -9.0245   20.4636 C   0  0  0  0  0  0
  -22.7220  -10.2134   20.3049 C   0  0  0  0  0  0
  -21.6855   -6.0727   22.5280 C   0  0  0  0  0  0
  -21.4008   -6.5632   23.8213 C   0  0  0  0  0  0
  -21.3672   -5.6784   24.9176 C   0  0  0  0  0  0
  -21.6051   -4.3050   24.7227 C   0  0  0  0  0  0
  -21.8821   -3.8141   23.4349 C   0  0  0  0  0  0
  -21.9193   -4.6954   22.3403 C   0  0  0  0  0  0
  -22.7871  -13.5246   21.1860 C   0  0  0  0  0  0
  -22.1664   -4.2141   21.0982 F   0  0  0  0  0  0
  -21.5643   -3.4536   25.7740 F   0  0  0  0  0  0
  -30.0333  -13.2862   20.4502 N   0  0  0  0  0  0
  -26.3021  -12.9292   20.3351 N   0  0  0  0  0  0
  -25.9307  -11.6462   20.5766 N   0  0  0  0  0  0
  -22.0503  -12.8229   22.0404 N   0  0  0  0  0  0
  -25.4364  -15.1872   20.4042 N   0  0  0  0  0  0
  -31.8015  -14.6875   20.0964 O   0  0  0  0  0  0
  -21.6645   -6.8873   21.4239 O   0  0  0  0  0  0
  -22.3560  -14.5548   20.6706 O   0  0  0  0  0  0
  -24.6118  -31.8688   23.2085 C   0  0  0  0  0  0
  -25.9005  -32.4831   23.8394 C   0  0  1  0  0  0
  -27.2505  -27.4429   20.1142 C   0  0  0  0  0  0
  -25.5864  -33.8630   24.2311 N   0  0  0  0  0  0
  -23.3999  -30.4887   21.5496 C   0  0  2  0  0  0
  -24.8505  -28.9536   20.1182 C   0  0  0  0  0  0
  -22.7391  -29.4652   22.5006 C   0  0  0  0  0  0
  -18.0263  -28.1378   22.8493 C   0  0  0  0  0  0
  -24.1481  -36.7326   23.2642 C   0  0  0  0  0  0
  -25.9234  -30.8444   21.3538 C   0  0  0  0  0  0
  -26.0063  -29.4753   20.7106 C   0  0  0  0  0  0
  -27.2083  -28.7342   20.7027 C   0  0  0  0  0  0
  -26.0778  -26.9437   19.5115 C   0  0  0  0  0  0
  -24.8801  -27.6855   19.5130 C   0  0  0  0  0  0
  -23.6084  -29.8157   20.1656 C   0  0  0  0  0  0
  -25.4103  -36.3113   24.0335 C   0  0  1  0  0  0
  -20.5856  -28.3657   23.1334 C   0  0  2  0  0  0
  -20.6756  -26.9397   22.5426 C   0  0  0  0  0  0
  -19.5740  -26.6389   21.5215 C   0  0  0  0  0  0
  -18.1916  -26.7924   22.1624 C   0  0  0  0  0  0
  -19.1513  -28.8830   23.2917 C   0  0  0  0  0  0
  -18.9446  -30.1439   23.8928 C   0  0  0  0  0  0
  -17.6450  -30.6591   24.0567 C   0  0  0  0  0  0
  -25.9026  -34.9482   23.5119 C   0  0  0  0  0  0
  -16.5341  -29.9103   23.6319 C   0  0  0  0  0  0
  -16.7256  -28.6518   23.0341 C   0  0  0  0  0  0
  -26.4438  -31.6607   25.0718 C   0  0  0  0  0  0
  -25.3703  -31.3724   26.1465 C   0  0  0  0  0  0
  -27.0259  -30.3053   24.6058 C   0  0  0  0  0  0
  -27.5991  -32.4330   25.7504 C   0  0  0  0  0  0
  -27.5577  -37.1815   24.8460 C   0  0  0  0  0  0
  -21.4122  -29.3028   22.3748 N   0  0  0  0  0  0
  -26.4289  -37.3795   23.9404 N   0  0  0  0  0  0
  -24.6637  -31.0810   22.0974 N   0  0  0  0  0  0
  -23.4167  -28.8199   23.3044 O   0  0  0  0  0  0
  -28.3602  -26.6186   20.0599 O   0  0  0  0  0  0
  -26.5611  -34.8933   22.4692 O   0  0  0  0  0  0
  -23.5312  -32.1424   23.7486 O   0  0  0  0  0  0
  -28.6488  -23.5435   21.3644 C   0  0  0  0  0  0
  -29.9384  -24.1243   21.3749 C   0  0  0  0  0  0
  -30.8690  -22.0008   21.5850 C   0  0  0  0  0  0
  -29.5735  -21.4149   21.6307 C   0  0  0  0  0  0
  -30.7347  -26.4303   20.3517 C   0  0  0  0  0  0
  -30.6817  -17.8477   21.6517 C   0  0  0  0  0  0
  -28.8485  -17.8191   20.7745 C   0  0  0  0  0  0
  -30.2214  -25.6066   21.5104 C   0  0  1  0  0  0
  -30.0767  -16.9209   20.5975 C   0  0  2  0  0  0
  -29.4197  -26.8005   21.0002 C   0  0  2  0  0  0
  -32.1459  -21.1976   21.7625 C   0  0  0  0  0  0
  -29.3258  -19.9488   22.0444 C   0  0  0  0  0  0
  -28.4669  -22.1989   21.4859 N   0  0  0  0  0  0
  -31.0440  -23.3388   21.4394 N   0  0  0  0  0  0
  -29.8903  -15.5023   20.9612 N   0  0  0  0  0  0
  -29.8003  -18.9006   21.0946 N   0  3  1  0  0  0
  -31.4717  -12.4138   19.1273 H   0  0  0  0  0  0
  -30.3355  -11.2926   19.8243 H   0  0  0  0  0  0
  -29.7416  -11.7774   17.4307 H   0  0  0  0  0  0
  -29.6697  -13.4856   17.7727 H   0  0  0  0  0  0
  -27.8273  -11.3057   18.8155 H   0  0  0  0  0  0
  -27.3696  -12.6341   17.7854 H   0  0  0  0  0  0
  -27.7047  -14.2463   19.5748 H   0  0  0  0  0  0
  -28.6772  -11.9432   21.3417 H   0  0  0  0  0  0
  -28.4642  -13.5798   21.8774 H   0  0  0  0  0  0
  -25.2749   -9.5697   22.4745 H   0  0  0  0  0  0
  -24.0023   -7.4626   22.7456 H   0  0  0  0  0  0
  -21.0851   -8.8754   19.8929 H   0  0  0  0  0  0
  -22.3681  -10.9672   19.6159 H   0  0  0  0  0  0
  -21.1978   -7.6137   23.9716 H   0  0  0  0  0  0
  -21.1506   -6.0513   25.9087 H   0  0  0  0  0  0
  -22.0587   -2.7599   23.2850 H   0  0  0  0  0  0
  -22.4122  -11.9896   22.4798 H   0  0  0  0  0  0
  -21.1116  -13.1247   22.2587 H   0  0  0  0  0  0
  -24.6650  -15.8408   20.4867 H   0  0  0  0  0  0
  -26.2731  -15.6107   20.0255 H   0  0  0  0  0  0
  -26.7095  -32.5563   23.1190 H   0  0  0  0  0  0
  -24.9954  -33.9800   25.0414 H   0  0  0  0  0  0
  -22.6885  -31.3048   21.4083 H   0  0  0  0  0  0
  -23.3729  -35.9672   23.3310 H   0  0  0  0  0  0
  -24.3572  -36.8932   22.2054 H   0  0  0  0  0  0
  -23.7253  -37.6541   23.6655 H   0  0  0  0  0  0
  -26.0209  -31.6058   20.5782 H   0  0  0  0  0  0
  -26.8163  -30.9126   21.9635 H   0  0  0  0  0  0
  -28.0844  -29.1876   21.1382 H   0  0  0  0  0  0
  -26.0887  -25.9658   19.0509 H   0  0  0  0  0  0
  -23.9916  -27.2737   19.0539 H   0  0  0  0  0  0
  -23.7099  -30.5881   19.4016 H   0  0  0  0  0  0
  -22.7345  -29.2294   19.8745 H   0  0  0  0  0  0
  -25.1280  -36.1977   25.0829 H   0  0  0  0  0  0
  -20.9950  -28.3214   24.1454 H   0  0  0  0  0  0
  -20.5657  -26.2263   23.3610 H   0  0  0  0  0  0
  -21.6627  -26.7440   22.1223 H   0  0  0  0  0  0
  -19.6906  -25.6304   21.1239 H   0  0  0  0  0  0
  -19.6689  -27.3202   20.6745 H   0  0  0  0  0  0
  -17.4189  -26.6666   21.4030 H   0  0  0  0  0  0
  -18.0322  -26.0073   22.9027 H   0  0  0  0  0  0
  -19.7923  -30.7240   24.2321 H   0  0  0  0  0  0
  -17.5011  -31.6275   24.5161 H   0  0  0  0  0  0
  -15.5344  -30.3020   23.7625 H   0  0  0  0  0  0
  -15.8652  -28.0853   22.7033 H   0  0  0  0  0  0
  -24.5792  -30.7194   25.7772 H   0  0  0  0  0  0
  -24.9000  -32.2906   26.5001 H   0  0  0  0  0  0
  -25.8030  -30.8779   27.0169 H   0  0  0  0  0  0
  -26.2790  -29.6841   24.1103 H   0  0  0  0  0  0
  -27.4026  -29.7265   25.4500 H   0  0  0  0  0  0
  -27.8625  -30.4390   23.9194 H   0  0  0  0  0  0
  -27.2574  -33.3625   26.2079 H   0  0  0  0  0  0
  -28.3820  -32.6909   25.0362 H   0  0  0  0  0  0
  -28.0631  -31.8454   26.5438 H   0  0  0  0  0  0
  -28.2595  -38.0111   24.7484 H   0  0  0  0  0  0
  -28.1071  -36.2638   24.6298 H   0  0  0  0  0  0
  -27.2301  -37.1477   25.8867 H   0  0  0  0  0  0
  -20.9277  -29.8766   21.6994 H   0  0  0  0  0  0
  -26.0175  -38.2868   24.1409 H   0  0  0  0  0  0
  -27.7600  -24.1582   21.3413 H   0  0  0  0  0  0
  -30.6974  -25.9861   19.3591 H   0  0  0  0  0  0
  -31.5783  -27.0919   20.5364 H   0  0  0  0  0  0
  -31.7461  -18.0480   21.5261 H   0  0  0  0  0  0
  -30.4419  -17.5598   22.6783 H   0  0  0  0  0  0
  -28.2048  -17.5334   21.6109 H   0  0  0  0  0  0
  -28.2725  -18.0010   19.8655 H   0  0  0  0  0  0
  -30.7116  -25.7640   22.4692 H   0  0  0  0  0  0
  -30.5379  -17.0578   19.6145 H   0  0  0  0  0  0
  -29.4036  -27.6852   21.6289 H   0  0  0  0  0  0
  -32.2782  -20.5017   20.9352 H   0  0  0  0  0  0
  -32.1287  -20.6356   22.6961 H   0  0  0  0  0  0
  -33.0234  -21.8455   21.7865 H   0  0  0  0  0  0
  -28.2574  -19.8152   22.2208 H   0  0  0  0  0  0
  -29.7951  -19.7994   23.0166 H   0  0  0  0  0  0
  -28.9871  -15.2336   21.3227 H   0  0  0  0  0  0
  -30.1718  -19.2974   20.2460 H   0  0  0  0  0  0
  1 25  1  0  0  0
  1 30  2  0  0  0
  1 85  1  0  0  0
  2  3  1  0  0  0
  2 25  1  0  0  0
  2 87  1  0  0  0
  2 88  1  0  0  0
  3  4  1  0  0  0
  3 89  1  0  0  0
  3 90  1  0  0  0
  4  5  1  0  0  0
  4 91  1  0  0  0
  4 92  1  0  0  0
  5  6  1  0  0  0
  5 26  1  0  0  0
  5 93  1  0  0  0
  6 25  1  0  0  0
  6 94  1  0  0  0
  6 95  1  0  0  0
  7  8  2  0  0  0
  7 26  1  0  0  0
  7 29  1  0  0  0
  8  9  1  0  0  0
  8 22  1  0  0  0
  9 10  1  0  0  0
  9 27  2  0  0  0
 10 11  2  0  0  0
 10 15  1  0  0  0
 11 12  1  0  0  0
 11 96  1  0  0  0
 12 13  2  0  0  0
 12 97  1  0  0  0
 13 14  1  0  0  0
 13 31  1  0  0  0
 14 15  2  0  0  0
 14 98  1  0  0  0
 15 99  1  0  0  0
 16 17  2  0  0  0
 16 21  1  0  0  0
 16 31  1  0  0  0
 17 18  1  0  0  0
 17100  1  0  0  0
 18 19  2  0  0  0
 18101  1  0  0  0
 19 20  1  0  0  0
 19 24  1  0  0  0
 20 21  2  0  0  0
 20102  1  0  0  0
 21 23  1  0  0  0
 22 28  1  0  0  0
 22 32  2  0  0  0
 26 27  1  0  0  0
 28103  1  0  0  0
 28104  1  0  0  0
 29105  1  0  0  0
 29106  1  0  0  0
 33 34  1  0  0  0
 33 66  1  0  0  0
 33 70  2  0  0  0
 34 36  1  0  0  0
 34 59  1  0  0  0
 34107  1  0  0  0
 35 44  2  0  0  0
 35 45  1  0  0  0
 35 68  1  0  0  0
 36 56  1  0  0  0
 36108  1  0  0  0
 37 39  1  0  0  0
 37 47  1  0  0  0
 37 66  1  0  0  0
 37109  1  0  0  0
 38 43  2  0  0  0
 38 46  1  0  0  0
 38 47  1  0  0  0
 39 64  1  0  0  0
 39 67  2  0  0  0
 40 52  1  0  0  0
 40 53  2  0  0  0
 40 58  1  0  0  0
 41110  1  0  0  0
 41111  1  0  0  0
 41112  1  0  0  0
 41 48  1  0  0  0
 42 43  1  0  0  0
 42 66  1  0  0  0
 42113  1  0  0  0
 42114  1  0  0  0
 43 44  1  0  0  0
 44115  1  0  0  0
 45 46  2  0  0  0
 45116  1  0  0  0
 46117  1  0  0  0
 47118  1  0  0  0
 47119  1  0  0  0
 48 56  1  0  0  0
 48 65  1  0  0  0
 48120  1  0  0  0
 49 50  1  0  0  0
 49 53  1  0  0  0
 49 64  1  0  0  0
 49121  1  0  0  0
 50 51  1  0  0  0
 50122  1  0  0  0
 50123  1  0  0  0
 51 52  1  0  0  0
 51124  1  0  0  0
 51125  1  0  0  0
 52126  1  0  0  0
 52127  1  0  0  0
 53 54  1  0  0  0
 54 55  2  0  0  0
 54128  1  0  0  0
 55 57  1  0  0  0
 55129  1  0  0  0
 56 69  2  0  0  0
 57 58  2  0  0  0
 57130  1  0  0  0
 58131  1  0  0  0
 59 60  1  0  0  0
 59 61  1  0  0  0
 59 62  1  0  0  0
 60132  1  0  0  0
 60133  1  0  0  0
 60134  1  0  0  0
 61135  1  0  0  0
 61136  1  0  0  0
 61137  1  0  0  0
 62138  1  0  0  0
 62139  1  0  0  0
 62140  1  0  0  0
 63 65  1  0  0  0
 63141  1  0  0  0
 63142  1  0  0  0
 63143  1  0  0  0
 64144  1  0  0  0
 65145  1  0  0  0
 68 80  1  0  0  0
 71 72  2  0  0  0
 71 83  1  0  0  0
 71146  1  0  0  0
 72 84  1  0  0  0
 72 78  1  0  0  0
 73 74  1  0  0  0
 73 81  1  0  0  0
 73 84  2  0  0  0
 74 82  1  0  0  0
 74 83  2  0  0  0
 75 78  1  0  0  0
 75 80  1  0  0  0
 75147  1  0  0  0
 75148  1  0  0  0
 76 79  1  0  0  0
 76 86  1  0  0  0
 76149  1  0  0  0
 76150  1  0  0  0
 77 79  1  0  0  0
 77 86  1  0  0  0
 77151  1  0  0  0
 77152  1  0  0  0
 78 80  1  0  0  0
 78153  1  0  0  0
 79 85  1  0  0  0
 79154  1  0  0  0
 80155  1  0  0  0
 81156  1  0  0  0
 81157  1  0  0  0
 81158  1  0  0  0
 82159  1  0  0  0
 82160  1  0  0  0
 82 86  1  0  0  0
 85161  1  0  0  0
 86162  1  0  0  0
M  CHG  1  86   1
M  ISO  4   1 100  68 101  80 101  85 100
M  END
> <chiral flag>
0

> <version>
0

> <s_m_source_file>
/data/baiqing/PycharmProjects/Reinvent-master-3.2/result/LINK_invent/BTK/process_docking_weight1_custom_sum_contain_oxygen_bond_distance_aromatic_linkinvent_7_9_3/rearranged_h_0187.sdf

> <i_m_source_file_index>
45

> <r_mmod_Potential_Energy-OPLS-2005>
-138.076202392578

> <r_mmod_Stretch_Energy-OPLS-2005>
42.7757339477539

> <r_mmod_Bend_Energy-OPLS-2005>
148.382186889648

> <r_mmod_Torsional_Energy-OPLS-2005>
262.652160644531

> <r_mmod_Improper_Torsional_Energy-OPLS-2005>
8.06134128570557

> <r_mmod_Van_der_Waal_Energy-OPLS-2005>
152.108978271484

> <r_mmod_Electrostatic_Energy-OPLS-2005>
-275.097381591797

> <r_mmod_Solvation_Energy-OPLS-2005>
-490.17626953125

> <b_mmod_Minimization_Converged-OPLS-2005>
0

> <r_mmod_RMS_Derivative-OPLS-2005>
1.77385187149048

$$$$
45
                    3D
 Structure written by MMmdl.
166175  0  0  1  0            999 V2000
  -30.5904  -14.9061   20.4227 C   0  0  0  0  0  0
  -30.4259  -12.5600   19.4964 C   0  0  0  0  0  0
  -29.5139  -12.5247   18.2505 C   0  0  0  0  0  0
  -28.0444  -12.3246   18.6671 C   0  0  0  0  0  0
  -27.6283  -13.2534   19.8390 C   0  0  2  0  0  0
  -28.6715  -13.2827   20.9758 C   0  0  0  0  0  0
  -25.2458  -13.8228   20.5719 C   0  0  0  0  0  0
  -24.1778  -13.0448   20.9229 C   0  0  0  0  0  0
  -24.6396  -11.6936   20.8749 C   0  0  0  0  0  0
  -23.9085  -10.4300   21.0396 C   0  0  0  0  0  0
  -24.3635   -9.4211   21.9176 C   0  0  0  0  0  0
  -23.6311   -8.2244   22.0746 C   0  0  0  0  0  0
  -22.4289   -8.0287   21.3540 C   0  0  0  0  0  0
  -21.9930   -9.0257   20.4640 C   0  0  0  0  0  0
  -22.7256  -10.2137   20.3045 C   0  0  0  0  0  0
  -21.6856   -6.0739   22.5280 C   0  0  0  0  0  0
  -21.4008   -6.5638   23.8216 C   0  0  0  0  0  0
  -21.3662   -5.6792   24.9179 C   0  0  0  0  0  0
  -21.6052   -4.3054   24.7221 C   0  0  0  0  0  0
  -21.8820   -3.8146   23.4339 C   0  0  0  0  0  0
  -21.9189   -4.6966   22.3398 C   0  0  0  0  0  0
  -22.7801  -13.5217   21.1887 C   0  0  0  0  0  0
  -22.1666   -4.2148   21.0975 F   0  0  0  0  0  0
  -21.5631   -3.4538   25.7733 F   0  0  0  0  0  0
  -29.9476  -13.6725   20.3667 N   0  0  0  0  0  0
  -26.2884  -12.9472   20.3266 N   0  0  0  0  0  0
  -25.9332  -11.6596   20.5748 N   0  0  0  0  0  0
  -22.0438  -12.8201   22.0429 N   0  0  0  0  0  0
  -25.4141  -15.1958   20.4144 N   0  0  0  0  0  0
  -31.7948  -14.9095   20.1423 O   0  0  0  0  0  0
  -21.6644   -6.8888   21.4245 O   0  0  0  0  0  0
  -22.3488  -14.5523   20.6737 O   0  0  0  0  0  0
  -24.6430  -31.8458   23.1912 C   0  0  0  0  0  0
  -25.9207  -32.4700   23.8295 C   0  0  1  0  0  0
  -27.2118  -27.1485   20.1360 C   0  0  0  0  0  0
  -25.5964  -33.8508   24.2206 N   0  0  0  0  0  0
  -23.4449  -30.4682   21.5372 C   0  0  2  0  0  0
  -24.8929  -28.9022   20.1089 C   0  0  0  0  0  0
  -22.7566  -29.4560   22.4866 C   0  0  0  0  0  0
  -18.0303  -28.1394   22.8477 C   0  0  0  0  0  0
  -24.1492  -36.7257   23.2642 C   0  0  0  0  0  0
  -26.0025  -30.7219   21.3907 C   0  0  0  0  0  0
  -26.0725  -29.3364   20.7277 C   0  0  0  0  0  0
  -27.2339  -28.4756   20.7267 C   0  0  0  0  0  0
  -26.0046  -26.8208   19.4760 C   0  0  0  0  0  0
  -24.8711  -27.6564   19.4694 C   0  0  0  0  0  0
  -23.6707  -29.8038   20.1548 C   0  0  0  0  0  0
  -25.4125  -36.3035   24.0317 C   0  0  1  0  0  0
  -20.5917  -28.3719   23.1233 C   0  0  2  0  0  0
  -20.6785  -26.9423   22.5400 C   0  0  0  0  0  0
  -19.5758  -26.6381   21.5209 C   0  0  0  0  0  0
  -18.1942  -26.7933   22.1622 C   0  0  0  0  0  0
  -19.1560  -28.8873   23.2848 C   0  0  0  0  0  0
  -18.9478  -30.1468   23.8873 C   0  0  0  0  0  0
  -17.6475  -30.6589   24.0558 C   0  0  0  0  0  0
  -25.9077  -34.9410   23.5069 C   0  0  0  0  0  0
  -16.5365  -29.9083   23.6337 C   0  0  0  0  0  0
  -16.7286  -28.6502   23.0357 C   0  0  0  0  0  0
  -26.4532  -31.6565   25.0732 C   0  0  0  0  0  0
  -25.3719  -31.3750   26.1429 C   0  0  0  0  0  0
  -27.0400  -30.2958   24.6313 C   0  0  0  0  0  0
  -27.6062  -32.4333   25.7517 C   0  0  0  0  0  0
  -27.5582  -37.1780   24.8461 C   0  0  0  0  0  0
  -21.4259  -29.3047   22.3608 N   0  0  0  0  0  0
  -26.4283  -37.3752   23.9416 N   0  0  0  0  0  0
  -24.7166  -31.0328   22.0945 N   0  0  0  0  0  0
  -23.4217  -28.8101   23.3005 O   0  0  0  0  0  0
  -28.2505  -26.1495   20.2054 O   0  0  0  0  0  0
  -26.5658  -34.8904   22.4644 O   0  0  0  0  0  0
  -23.5553  -32.1335   23.7132 O   0  0  0  0  0  0
  -28.4488  -21.8974   20.1778 C   0  0  0  0  0  0
  -28.8339  -23.3276   20.2570 C   0  0  0  0  0  0
  -29.4363  -20.8315   20.3769 C   0  0  0  0  0  0
  -30.9773  -22.5454   20.6544 C   0  0  0  0  0  0
  -30.2447  -18.6433   19.4099 C   0  0  0  0  0  0
  -29.2913  -18.5193   21.5047 C   0  0  0  0  0  0
  -30.0194  -17.0774   19.1588 C   0  0  0  0  0  0
  -29.1361  -16.9021   21.3855 C   0  0  0  0  0  0
  -32.4341  -22.8944   20.8688 C   0  0  0  0  0  0
  -25.3371  -20.6279   18.3016 C   0  0  0  0  0  0
  -26.9932  -21.4993   19.9219 C   0  0  0  0  0  0
  -27.8831  -24.6506   20.0200 C   0  0  0  0  0  0
  -30.1383  -23.5741   20.4952 N   0  0  0  0  0  0
  -30.6936  -21.2394   20.6121 N   0  0  0  0  0  0
  -29.2602  -19.3582   20.2663 N   0  0  0  0  0  0
  -29.8740  -16.1360   20.3209 N   0  0  0  0  0  0
  -26.7368  -21.0322   18.5404 N   0  3  0  0  0  0
  -31.4638  -12.6878   19.1871 H   0  0  0  0  0  0
  -30.3931  -11.6088   20.0309 H   0  0  0  0  0  0
  -29.8260  -11.7267   17.5752 H   0  0  0  0  0  0
  -29.6169  -13.4576   17.6926 H   0  0  0  0  0  0
  -27.9275  -11.2821   18.9654 H   0  0  0  0  0  0
  -27.3829  -12.4699   17.8120 H   0  0  0  0  0  0
  -27.5941  -14.2588   19.4181 H   0  0  0  0  0  0
  -28.7489  -12.3131   21.4700 H   0  0  0  0  0  0
  -28.3812  -14.0031   21.7417 H   0  0  0  0  0  0
  -25.2764   -9.5694   22.4771 H   0  0  0  0  0  0
  -24.0014   -7.4629   22.7463 H   0  0  0  0  0  0
  -21.0856   -8.8772   19.8951 H   0  0  0  0  0  0
  -22.3696  -10.9679   19.6164 H   0  0  0  0  0  0
  -21.2003   -7.6149   23.9723 H   0  0  0  0  0  0
  -21.1488   -6.0516   25.9086 H   0  0  0  0  0  0
  -22.0599   -2.7608   23.2830 H   0  0  0  0  0  0
  -22.4057  -11.9860   22.4821 H   0  0  0  0  0  0
  -21.1055  -13.1222   22.2624 H   0  0  0  0  0  0
  -24.6492  -15.8505   20.5324 H   0  0  0  0  0  0
  -26.2679  -15.6331   20.0919 H   0  0  0  0  0  0
  -26.7272  -32.5309   23.1026 H   0  0  0  0  0  0
  -25.0095  -33.9627   25.0340 H   0  0  0  0  0  0
  -22.7472  -31.2948   21.3861 H   0  0  0  0  0  0
  -23.3765  -35.9577   23.3276 H   0  0  0  0  0  0
  -24.3585  -36.8914   22.2062 H   0  0  0  0  0  0
  -23.7225  -37.6437   23.6694 H   0  0  0  0  0  0
  -26.1614  -31.4788   20.6215 H   0  0  0  0  0  0
  -26.8720  -30.7669   22.0351 H   0  0  0  0  0  0
  -28.1312  -28.8018   21.2339 H   0  0  0  0  0  0
  -25.8875  -25.8773   18.9672 H   0  0  0  0  0  0
  -23.9717  -27.3197   18.9729 H   0  0  0  0  0  0
  -23.8093  -30.5813   19.4027 H   0  0  0  0  0  0
  -22.7849  -29.2489   19.8414 H   0  0  0  0  0  0
  -25.1307  -36.1866   25.0807 H   0  0  0  0  0  0
  -21.0009  -28.3304   24.1355 H   0  0  0  0  0  0
  -20.5674  -26.2337   23.3621 H   0  0  0  0  0  0
  -21.6651  -26.7427   22.1200 H   0  0  0  0  0  0
  -19.6922  -25.6287   21.1252 H   0  0  0  0  0  0
  -19.6694  -27.3180   20.6730 H   0  0  0  0  0  0
  -17.4213  -26.6673   21.4025 H   0  0  0  0  0  0
  -18.0345  -26.0078   22.9021 H   0  0  0  0  0  0
  -19.7955  -30.7286   24.2234 H   0  0  0  0  0  0
  -17.5031  -31.6267   24.5163 H   0  0  0  0  0  0
  -15.5365  -30.2976   23.7672 H   0  0  0  0  0  0
  -15.8689  -28.0811   22.7086 H   0  0  0  0  0  0
  -24.5894  -30.7108   25.7744 H   0  0  0  0  0  0
  -24.8919  -32.2933   26.4819 H   0  0  0  0  0  0
  -25.8006  -30.8940   27.0230 H   0  0  0  0  0  0
  -26.3019  -29.6676   24.1313 H   0  0  0  0  0  0
  -27.4001  -29.7261   25.4890 H   0  0  0  0  0  0
  -27.8935  -30.4189   23.9642 H   0  0  0  0  0  0
  -27.2652  -33.3651   26.2040 H   0  0  0  0  0  0
  -28.3902  -32.6864   25.0368 H   0  0  0  0  0  0
  -28.0700  -31.8497   26.5478 H   0  0  0  0  0  0
  -28.2566  -38.0108   24.7542 H   0  0  0  0  0  0
  -28.1105  -36.2638   24.6241 H   0  0  0  0  0  0
  -27.2309  -37.1370   25.8863 H   0  0  0  0  0  0
  -20.9469  -29.8773   21.6798 H   0  0  0  0  0  0
  -26.0150  -38.2815   24.1436 H   0  0  0  0  0  0
  -30.2752  -19.1467   18.4419 H   0  0  0  0  0  0
  -31.2413  -18.7827   19.8341 H   0  0  0  0  0  0
  -30.2346  -18.7291   22.0131 H   0  0  0  0  0  0
  -28.5224  -18.8912   22.1834 H   0  0  0  0  0  0
  -30.8253  -16.7251   18.5136 H   0  0  0  0  0  0
  -29.1152  -16.9603   18.5611 H   0  0  0  0  0  0
  -28.0800  -16.6832   21.2280 H   0  0  0  0  0  0
  -29.3737  -16.4580   22.3539 H   0  0  0  0  0  0
  -32.5606  -23.9445   21.1333 H   0  0  0  0  0  0
  -33.0014  -22.7032   19.9576 H   0  0  0  0  0  0
  -32.8608  -22.2909   21.6698 H   0  0  0  0  0  0
  -25.2079  -20.2984   17.2705 H   0  0  0  0  0  0
  -24.6519  -21.4577   18.4777 H   0  0  0  0  0  0
  -25.0509  -19.8021   18.9540 H   0  0  0  0  0  0
  -26.3260  -22.3300   20.1517 H   0  0  0  0  0  0
  -26.7271  -20.7053   20.6226 H   0  0  0  0  0  0
  -26.9915  -24.4802   20.6231 H   0  0  0  0  0  0
  -27.5727  -24.5465   18.9807 H   0  0  0  0  0  0
  -26.9663  -21.7529   17.8748 H   0  0  0  0  0  0
  -27.3139  -20.2305   18.3407 H   0  0  0  0  0  0
  1 25  1  0  0  0
  1 30  2  0  0  0
  1 86  1  0  0  0
  2  3  1  0  0  0
  2 25  1  0  0  0
  2 88  1  0  0  0
  2 89  1  0  0  0
  3  4  1  0  0  0
  3 90  1  0  0  0
  3 91  1  0  0  0
  4  5  1  0  0  0
  4 92  1  0  0  0
  4 93  1  0  0  0
  5  6  1  0  0  0
  5 26  1  0  0  0
  5 94  1  0  0  0
  6 25  1  0  0  0
  6 95  1  0  0  0
  6 96  1  0  0  0
  7  8  2  0  0  0
  7 26  1  0  0  0
  7 29  1  0  0  0
  8  9  1  0  0  0
  8 22  1  0  0  0
  9 10  1  0  0  0
  9 27  2  0  0  0
 10 11  2  0  0  0
 10 15  1  0  0  0
 11 12  1  0  0  0
 11 97  1  0  0  0
 12 13  2  0  0  0
 12 98  1  0  0  0
 13 14  1  0  0  0
 13 31  1  0  0  0
 14 15  2  0  0  0
 14 99  1  0  0  0
 15100  1  0  0  0
 16 17  2  0  0  0
 16 21  1  0  0  0
 16 31  1  0  0  0
 17 18  1  0  0  0
 17101  1  0  0  0
 18 19  2  0  0  0
 18102  1  0  0  0
 19 20  1  0  0  0
 19 24  1  0  0  0
 20 21  2  0  0  0
 20103  1  0  0  0
 21 23  1  0  0  0
 22 28  1  0  0  0
 22 32  2  0  0  0
 26 27  1  0  0  0
 28104  1  0  0  0
 28105  1  0  0  0
 29106  1  0  0  0
 29107  1  0  0  0
 33 34  1  0  0  0
 33 66  1  0  0  0
 33 70  2  0  0  0
 34 36  1  0  0  0
 34 59  1  0  0  0
 34108  1  0  0  0
 35 44  2  0  0  0
 35 45  1  0  0  0
 35 68  1  0  0  0
 36 56  1  0  0  0
 36109  1  0  0  0
 37 39  1  0  0  0
 37 47  1  0  0  0
 37 66  1  0  0  0
 37110  1  0  0  0
 38 43  2  0  0  0
 38 46  1  0  0  0
 38 47  1  0  0  0
 39 64  1  0  0  0
 39 67  2  0  0  0
 40 52  1  0  0  0
 40 53  2  0  0  0
 40 58  1  0  0  0
 41111  1  0  0  0
 41112  1  0  0  0
 41113  1  0  0  0
 41 48  1  0  0  0
 42 43  1  0  0  0
 42 66  1  0  0  0
 42114  1  0  0  0
 42115  1  0  0  0
 43 44  1  0  0  0
 44116  1  0  0  0
 45 46  2  0  0  0
 45117  1  0  0  0
 46118  1  0  0  0
 47119  1  0  0  0
 47120  1  0  0  0
 48 56  1  0  0  0
 48 65  1  0  0  0
 48121  1  0  0  0
 49 50  1  0  0  0
 49 53  1  0  0  0
 49 64  1  0  0  0
 49122  1  0  0  0
 50 51  1  0  0  0
 50123  1  0  0  0
 50124  1  0  0  0
 51 52  1  0  0  0
 51125  1  0  0  0
 51126  1  0  0  0
 52127  1  0  0  0
 52128  1  0  0  0
 53 54  1  0  0  0
 54 55  2  0  0  0
 54129  1  0  0  0
 55 57  1  0  0  0
 55130  1  0  0  0
 56 69  2  0  0  0
 57 58  2  0  0  0
 57131  1  0  0  0
 58132  1  0  0  0
 59 60  1  0  0  0
 59 61  1  0  0  0
 59 62  1  0  0  0
 60133  1  0  0  0
 60134  1  0  0  0
 60135  1  0  0  0
 61136  1  0  0  0
 61137  1  0  0  0
 61138  1  0  0  0
 62139  1  0  0  0
 62140  1  0  0  0
 62141  1  0  0  0
 63 65  1  0  0  0
 63142  1  0  0  0
 63143  1  0  0  0
 63144  1  0  0  0
 64145  1  0  0  0
 65146  1  0  0  0
 68 82  1  0  0  0
 71 72  2  0  0  0
 71 73  1  0  0  0
 71 81  1  0  0  0
 72 82  1  0  0  0
 72 83  1  0  0  0
 73 84  2  0  0  0
 73 85  1  0  0  0
 74 79  1  0  0  0
 74 83  2  0  0  0
 74 84  1  0  0  0
 75 77  1  0  0  0
 75 85  1  0  0  0
 75147  1  0  0  0
 75148  1  0  0  0
 76 78  1  0  0  0
 76 85  1  0  0  0
 76149  1  0  0  0
 76150  1  0  0  0
 77 86  1  0  0  0
 77151  1  0  0  0
 77152  1  0  0  0
 78 86  1  0  0  0
 78153  1  0  0  0
 78154  1  0  0  0
 79155  1  0  0  0
 79156  1  0  0  0
 79157  1  0  0  0
 80 87  1  0  0  0
 80158  1  0  0  0
 80159  1  0  0  0
 80160  1  0  0  0
 81 87  1  0  0  0
 81161  1  0  0  0
 81162  1  0  0  0
 82163  1  0  0  0
 82164  1  0  0  0
 87165  1  0  0  0
 87166  1  0  0  0
M  CHG  1  87   1
M  ISO  4   1 100  68 101  82 101  86 100
M  END
> <chiral flag>
0

> <version>
0

> <s_m_source_file>
/data/baiqing/PycharmProjects/Reinvent-master-3.2/result/LINK_invent/BTK/process_docking_weight1_custom_sum_contain_oxygen_bond_distance_aromatic_linkinvent_7_9_3/rearranged_h_0187.sdf

> <i_m_source_file_index>
46

> <r_mmod_Potential_Energy-OPLS-2005>
-9.30988311767578

> <r_mmod_Stretch_Energy-OPLS-2005>
204.334014892578

> <r_mmod_Bend_Energy-OPLS-2005>
244.958892822266

> <r_mmod_Torsional_Energy-OPLS-2005>
355.259552001953

> <r_mmod_Improper_Torsional_Energy-OPLS-2005>
21.3643188476562

> <r_mmod_Van_der_Waal_Energy-OPLS-2005>
141.993087768555

> <r_mmod_Electrostatic_Energy-OPLS-2005>
-667.508178710938

> <r_mmod_Solvation_Energy-OPLS-2005>
-483.497039794922

> <b_mmod_Minimization_Converged-OPLS-2005>
0

> <r_mmod_RMS_Derivative-OPLS-2005>
1.35656094551086

$$$$
46
                    3D
 Structure written by MMmdl.
165174  0  0  1  0            999 V2000
  -30.7010  -14.6745   20.5023 C   0  0  0  0  0  0
  -30.4256  -12.4410   19.4421 C   0  0  0  0  0  0
  -29.4979  -12.4913   18.2123 C   0  0  0  0  0  0
  -28.0257  -12.3165   18.6326 C   0  0  0  0  0  0
  -27.6384  -13.2170   19.8357 C   0  0  2  0  0  0
  -28.6898  -13.1309   20.9606 C   0  0  0  0  0  0
  -25.2482  -13.8159   20.5629 C   0  0  0  0  0  0
  -24.1764  -13.0432   20.9177 C   0  0  0  0  0  0
  -24.6337  -11.6905   20.8708 C   0  0  0  0  0  0
  -23.9009  -10.4293   21.0380 C   0  0  0  0  0  0
  -24.3571   -9.4219   21.9161 C   0  0  0  0  0  0
  -23.6248   -8.2256   22.0756 C   0  0  0  0  0  0
  -22.4238   -8.0267   21.3531 C   0  0  0  0  0  0
  -21.9842   -9.0242   20.4647 C   0  0  0  0  0  0
  -22.7164  -10.2128   20.3046 C   0  0  0  0  0  0
  -21.6851   -6.0702   22.5267 C   0  0  0  0  0  0
  -21.4036   -6.5615   23.8198 C   0  0  0  0  0  0
  -21.3663   -5.6771   24.9159 C   0  0  0  0  0  0
  -21.6043   -4.3032   24.7204 C   0  0  0  0  0  0
  -21.8832   -3.8122   23.4333 C   0  0  0  0  0  0
  -21.9211   -4.6936   22.3394 C   0  0  0  0  0  0
  -22.7788  -13.5250   21.1809 C   0  0  0  0  0  0
  -22.1665   -4.2124   21.0963 F   0  0  0  0  0  0
  -21.5616   -3.4517   25.7718 F   0  0  0  0  0  0
  -29.9799  -13.5097   20.3693 N   0  0  0  0  0  0
  -26.2893  -12.9343   20.3170 N   0  0  0  0  0  0
  -25.9265  -11.6505   20.5679 N   0  0  0  0  0  0
  -22.0402  -12.8302   22.0387 N   0  0  0  0  0  0
  -25.4139  -15.1868   20.4013 N   0  0  0  0  0  0
  -31.9114  -14.6452   20.2501 O   0  0  0  0  0  0
  -21.6626   -6.8851   21.4227 O   0  0  0  0  0  0
  -22.3501  -14.5555   20.6627 O   0  0  0  0  0  0
  -24.6217  -31.8621   23.2011 C   0  0  0  0  0  0
  -25.9084  -32.4794   23.8344 C   0  0  1  0  0  0
  -27.2504  -27.3648   20.1275 C   0  0  0  0  0  0
  -25.5909  -33.8585   24.2271 N   0  0  0  0  0  0
  -23.4164  -30.4812   21.5402 C   0  0  2  0  0  0
  -24.8701  -28.9281   20.1213 C   0  0  0  0  0  0
  -22.7459  -29.4643   22.4924 C   0  0  0  0  0  0
  -18.0275  -28.1408   22.8476 C   0  0  0  0  0  0
  -24.1490  -36.7319   23.2639 C   0  0  0  0  0  0
  -25.9511  -30.8069   21.3665 C   0  0  0  0  0  0
  -26.0314  -29.4320   20.7205 C   0  0  0  0  0  0
  -27.2268  -28.6602   20.7136 C   0  0  0  0  0  0
  -26.0709  -26.8899   19.5215 C   0  0  0  0  0  0
  -24.8876  -27.6585   19.5146 C   0  0  0  0  0  0
  -23.6346  -29.8043   20.1595 C   0  0  0  0  0  0
  -25.4106  -36.3090   24.0316 C   0  0  1  0  0  0
  -20.5882  -28.3725   23.1276 C   0  0  2  0  0  0
  -20.6769  -26.9438   22.5426 C   0  0  0  0  0  0
  -19.5752  -26.6402   21.5217 C   0  0  0  0  0  0
  -18.1922  -26.7948   22.1613 C   0  0  0  0  0  0
  -19.1532  -28.8871   23.2878 C   0  0  0  0  0  0
  -18.9459  -30.1462   23.8915 C   0  0  0  0  0  0
  -17.6467  -30.6605   24.0569 C   0  0  0  0  0  0
  -25.9040  -34.9454   23.5096 C   0  0  0  0  0  0
  -16.5355  -29.9114   23.6320 C   0  0  0  0  0  0
  -16.7263  -28.6528   23.0340 C   0  0  0  0  0  0
  -26.4485  -31.6592   25.0707 C   0  0  0  0  0  0
  -25.3722  -31.3761   26.1450 C   0  0  0  0  0  0
  -27.0329  -30.3000   24.6190 C   0  0  0  0  0  0
  -27.6045  -32.4333   25.7481 C   0  0  0  0  0  0
  -27.5567  -37.1812   24.8447 C   0  0  0  0  0  0
  -21.4176  -29.3069   22.3661 N   0  0  0  0  0  0
  -26.4289  -37.3773   23.9394 N   0  0  0  0  0  0
  -24.6803  -31.0673   22.0945 N   0  0  0  0  0  0
  -23.4179  -28.8185   23.3016 O   0  0  0  0  0  0
  -28.4067  -26.5888   20.0849 O   0  0  0  0  0  0
  -26.5623  -34.8917   22.4677 O   0  0  0  0  0  0
  -23.5382  -32.1418   23.7367 O   0  0  0  0  0  0
  -30.9426  -22.0727   19.7095 C   0  0  0  0  0  0
  -30.9024  -23.1961   20.7557 C   0  0  0  0  0  0
  -28.8496  -16.4022   21.1283 C   0  0  0  0  0  0
  -30.8819  -17.0816   19.9298 C   0  0  0  0  0  0
  -28.8665  -17.8852   21.6571 C   0  0  0  0  0  0
  -30.1121  -18.4034   19.5873 C   0  0  0  0  0  0
  -29.6277  -21.5502   20.3024 C   0  0  1  0  0  0
  -30.9963  -20.1225   22.0687 C   0  0  0  0  0  0
  -28.7533  -23.9912   20.0882 C   0  0  0  0  0  0
  -28.4428  -25.3462   20.8579 C   0  0  0  0  0  0
  -29.6615  -20.2856   21.2898 C   0  0  2  0  0  0
  -30.0927  -15.9318   20.4705 N   0  0  0  0  0  0
  -29.4616  -22.9372   20.8964 N   0  0  0  0  0  0
  -29.2494  -18.9513   20.6724 N   0  3  0  0  0  0
  -31.4614  -12.5558   19.1181 H   0  0  0  0  0  0
  -30.3774  -11.4670   19.9306 H   0  0  0  0  0  0
  -29.7802  -11.7141   17.4994 H   0  0  0  0  0  0
  -29.6233  -13.4399   17.6889 H   0  0  0  0  0  0
  -27.8837  -11.2671   18.8967 H   0  0  0  0  0  0
  -27.3640  -12.5039   17.7870 H   0  0  0  0  0  0
  -27.6426  -14.2355   19.4476 H   0  0  0  0  0  0
  -28.7423  -12.1138   21.3545 H   0  0  0  0  0  0
  -28.4191  -13.7435   21.8157 H   0  0  0  0  0  0
  -25.2725   -9.5698   22.4710 H   0  0  0  0  0  0
  -23.9956   -7.4666   22.7484 H   0  0  0  0  0  0
  -21.0762   -8.8764   19.8964 H   0  0  0  0  0  0
  -22.3615  -10.9649   19.6148 H   0  0  0  0  0  0
  -21.2056   -7.6127   23.9697 H   0  0  0  0  0  0
  -21.1443   -6.0483   25.9055 H   0  0  0  0  0  0
  -22.0605   -2.7572   23.2831 H   0  0  0  0  0  0
  -22.3980  -12.0033   22.4910 H   0  0  0  0  0  0
  -21.1018  -13.1355   22.2533 H   0  0  0  0  0  0
  -24.6242  -15.8181   20.4742 H   0  0  0  0  0  0
  -26.2323  -15.6163   19.9917 H   0  0  0  0  0  0
  -26.7169  -32.5494   23.1106 H   0  0  0  0  0  0
  -25.0000  -33.9740   25.0384 H   0  0  0  0  0  0
  -22.7080  -31.2985   21.3895 H   0  0  0  0  0  0
  -23.3725  -35.9686   23.3327 H   0  0  0  0  0  0
  -24.3564  -36.8933   22.2049 H   0  0  0  0  0  0
  -23.7293  -37.6541   23.6663 H   0  0  0  0  0  0
  -26.0738  -31.5657   20.5920 H   0  0  0  0  0  0
  -26.8343  -30.8655   21.9911 H   0  0  0  0  0  0
  -28.1233  -29.0489   21.1740 H   0  0  0  0  0  0
  -26.0692  -25.9188   19.0463 H   0  0  0  0  0  0
  -23.9984  -27.2643   19.0418 H   0  0  0  0  0  0
  -23.7554  -30.5754   19.3977 H   0  0  0  0  0  0
  -22.7596  -29.2272   19.8554 H   0  0  0  0  0  0
  -25.1292  -36.1931   25.0807 H   0  0  0  0  0  0
  -20.9965  -28.3326   24.1402 H   0  0  0  0  0  0
  -20.5666  -26.2336   23.3639 H   0  0  0  0  0  0
  -21.6642  -26.7474   22.1228 H   0  0  0  0  0  0
  -19.6917  -25.6309   21.1250 H   0  0  0  0  0  0
  -19.6684  -27.3211   20.6742 H   0  0  0  0  0  0
  -17.4193  -26.6695   21.4009 H   0  0  0  0  0  0
  -18.0309  -26.0095   22.9011 H   0  0  0  0  0  0
  -19.7936  -30.7263   24.2306 H   0  0  0  0  0  0
  -17.5026  -31.6276   24.5192 H   0  0  0  0  0  0
  -15.5360  -30.3028   23.7648 H   0  0  0  0  0  0
  -15.8652  -28.0859   22.7056 H   0  0  0  0  0  0
  -24.5879  -30.7126   25.7787 H   0  0  0  0  0  0
  -24.8943  -32.2954   26.4843 H   0  0  0  0  0  0
  -25.8039  -30.8953   27.0241 H   0  0  0  0  0  0
  -26.2914  -29.6744   24.1210 H   0  0  0  0  0  0
  -27.3998  -29.7257   25.4712 H   0  0  0  0  0  0
  -27.8787  -30.4257   23.9427 H   0  0  0  0  0  0
  -27.2645  -33.3629   26.2057 H   0  0  0  0  0  0
  -28.3852  -32.6914   25.0310 H   0  0  0  0  0  0
  -28.0729  -31.8475   26.5407 H   0  0  0  0  0  0
  -28.2599  -38.0091   24.7454 H   0  0  0  0  0  0
  -28.1046  -36.2619   24.6309 H   0  0  0  0  0  0
  -27.2286  -37.1507   25.8854 H   0  0  0  0  0  0
  -20.9345  -29.8772   21.6854 H   0  0  0  0  0  0
  -26.0163  -38.2855   24.1380 H   0  0  0  0  0  0
  -31.7960  -21.4010   19.8041 H   0  0  0  0  0  0
  -30.8323  -22.4235   18.6819 H   0  0  0  0  0  0
  -31.1373  -24.1952   20.3803 H   0  0  0  0  0  0
  -31.4279  -22.9907   21.6873 H   0  0  0  0  0  0
  -28.0308  -16.2848   20.4224 H   0  0  0  0  0  0
  -28.6172  -15.7894   21.9945 H   0  0  0  0  0  0
  -31.6880  -17.3091   20.6295 H   0  0  0  0  0  0
  -31.3679  -16.7614   19.0060 H   0  0  0  0  0  0
  -29.5473  -17.9066   22.5043 H   0  0  0  0  0  0
  -27.8911  -18.1425   22.0700 H   0  0  0  0  0  0
  -29.4570  -18.1995   18.7389 H   0  0  0  0  0  0
  -30.8087  -19.1636   19.2312 H   0  0  0  0  0  0
  -28.8477  -21.4414   19.5449 H   0  0  0  0  0  0
  -31.3720  -21.0718   22.4384 H   0  0  0  0  0  0
  -31.7808  -19.6666   21.4662 H   0  0  0  0  0  0
  -30.8782  -19.5074   22.9606 H   0  0  0  0  0  0
  -29.3281  -24.2210   19.1897 H   0  0  0  0  0  0
  -27.8115  -23.5833   19.7242 H   0  0  0  0  0  0
  -29.2189  -25.5066   21.6095 H   0  0  0  0  0  0
  -27.5205  -25.2280   21.4275 H   0  0  0  0  0  0
  -28.9001  -20.4854   22.0442 H   0  0  0  0  0  0
  -28.3862  -19.1740   20.2002 H   0  0  0  0  0  0
  1 25  1  0  0  0
  1 30  2  0  0  0
  1 82  1  0  0  0
  2  3  1  0  0  0
  2 25  1  0  0  0
  2 85  1  0  0  0
  2 86  1  0  0  0
  3  4  1  0  0  0
  3 87  1  0  0  0
  3 88  1  0  0  0
  4  5  1  0  0  0
  4 89  1  0  0  0
  4 90  1  0  0  0
  5  6  1  0  0  0
  5 26  1  0  0  0
  5 91  1  0  0  0
  6 25  1  0  0  0
  6 92  1  0  0  0
  6 93  1  0  0  0
  7  8  2  0  0  0
  7 26  1  0  0  0
  7 29  1  0  0  0
  8  9  1  0  0  0
  8 22  1  0  0  0
  9 10  1  0  0  0
  9 27  2  0  0  0
 10 11  2  0  0  0
 10 15  1  0  0  0
 11 12  1  0  0  0
 11 94  1  0  0  0
 12 13  2  0  0  0
 12 95  1  0  0  0
 13 14  1  0  0  0
 13 31  1  0  0  0
 14 15  2  0  0  0
 14 96  1  0  0  0
 15 97  1  0  0  0
 16 17  2  0  0  0
 16 21  1  0  0  0
 16 31  1  0  0  0
 17 18  1  0  0  0
 17 98  1  0  0  0
 18 19  2  0  0  0
 18 99  1  0  0  0
 19 20  1  0  0  0
 19 24  1  0  0  0
 20 21  2  0  0  0
 20100  1  0  0  0
 21 23  1  0  0  0
 22 28  1  0  0  0
 22 32  2  0  0  0
 26 27  1  0  0  0
 28101  1  0  0  0
 28102  1  0  0  0
 29103  1  0  0  0
 29104  1  0  0  0
 33 34  1  0  0  0
 33 66  1  0  0  0
 33 70  2  0  0  0
 34 36  1  0  0  0
 34 59  1  0  0  0
 34105  1  0  0  0
 35 44  2  0  0  0
 35 45  1  0  0  0
 35 68  1  0  0  0
 36 56  1  0  0  0
 36106  1  0  0  0
 37 39  1  0  0  0
 37 47  1  0  0  0
 37 66  1  0  0  0
 37107  1  0  0  0
 38 43  2  0  0  0
 38 46  1  0  0  0
 38 47  1  0  0  0
 39 64  1  0  0  0
 39 67  2  0  0  0
 40 52  1  0  0  0
 40 53  2  0  0  0
 40 58  1  0  0  0
 41108  1  0  0  0
 41109  1  0  0  0
 41110  1  0  0  0
 41 48  1  0  0  0
 42 43  1  0  0  0
 42 66  1  0  0  0
 42111  1  0  0  0
 42112  1  0  0  0
 43 44  1  0  0  0
 44113  1  0  0  0
 45 46  2  0  0  0
 45114  1  0  0  0
 46115  1  0  0  0
 47116  1  0  0  0
 47117  1  0  0  0
 48 56  1  0  0  0
 48 65  1  0  0  0
 48118  1  0  0  0
 49 50  1  0  0  0
 49 53  1  0  0  0
 49 64  1  0  0  0
 49119  1  0  0  0
 50 51  1  0  0  0
 50120  1  0  0  0
 50121  1  0  0  0
 51 52  1  0  0  0
 51122  1  0  0  0
 51123  1  0  0  0
 52124  1  0  0  0
 52125  1  0  0  0
 53 54  1  0  0  0
 54 55  2  0  0  0
 54126  1  0  0  0
 55 57  1  0  0  0
 55127  1  0  0  0
 56 69  2  0  0  0
 57 58  2  0  0  0
 57128  1  0  0  0
 58129  1  0  0  0
 59 60  1  0  0  0
 59 61  1  0  0  0
 59 62  1  0  0  0
 60130  1  0  0  0
 60131  1  0  0  0
 60132  1  0  0  0
 61133  1  0  0  0
 61134  1  0  0  0
 61135  1  0  0  0
 62136  1  0  0  0
 62137  1  0  0  0
 62138  1  0  0  0
 63 65  1  0  0  0
 63139  1  0  0  0
 63140  1  0  0  0
 63141  1  0  0  0
 64142  1  0  0  0
 65143  1  0  0  0
 68 80  1  0  0  0
 71 72  1  0  0  0
 71144  1  0  0  0
 71145  1  0  0  0
 71 77  1  0  0  0
 72 83  1  0  0  0
 72146  1  0  0  0
 72147  1  0  0  0
 73 75  1  0  0  0
 73 82  1  0  0  0
 73148  1  0  0  0
 73149  1  0  0  0
 74 76  1  0  0  0
 74 82  1  0  0  0
 74150  1  0  0  0
 74151  1  0  0  0
 75152  1  0  0  0
 75153  1  0  0  0
 75 84  1  0  0  0
 76 84  1  0  0  0
 76154  1  0  0  0
 76155  1  0  0  0
 77 81  1  0  0  0
 77 83  1  0  0  0
 77156  1  0  0  0
 78157  1  0  0  0
 78158  1  0  0  0
 78159  1  0  0  0
 78 81  1  0  0  0
 79 80  1  0  0  0
 79 83  1  0  0  0
 79160  1  0  0  0
 79161  1  0  0  0
 80162  1  0  0  0
 80163  1  0  0  0
 81 84  1  0  0  0
 81164  1  0  0  0
 84165  1  0  0  0
M  CHG  1  84   1
M  ISO  4   1 100  68 101  80 101  82 100
M  END
> <chiral flag>
0

> <version>
0

> <s_m_source_file>
/data/baiqing/PycharmProjects/Reinvent-master-3.2/result/LINK_invent/BTK/process_docking_weight1_custom_sum_contain_oxygen_bond_distance_aromatic_linkinvent_7_9_3/rearranged_h_0187.sdf

> <i_m_source_file_index>
47

> <r_mmod_Potential_Energy-OPLS-2005>
312.247619628906

> <r_mmod_Stretch_Energy-OPLS-2005>
88.3558197021484

> <r_mmod_Bend_Energy-OPLS-2005>
182.946914672852

> <r_mmod_Torsional_Energy-OPLS-2005>
452.345581054688

> <r_mmod_Improper_Torsional_Energy-OPLS-2005>
13.8406047821045

> <r_mmod_Van_der_Waal_Energy-OPLS-2005>
146.412200927734

> <r_mmod_Electrostatic_Energy-OPLS-2005>
-185.253875732422

> <r_mmod_Solvation_Energy-OPLS-2005>
-438.301300048828

> <b_mmod_Minimization_Converged-OPLS-2005>
0

> <r_mmod_RMS_Derivative-OPLS-2005>
5.18354988098145

$$$$
47
                    3D
 Structure written by MMmdl.
154163  0  0  1  0            999 V2000
  -30.6549  -14.7403   20.4659 C   0  0  0  0  0  0
  -30.4278  -12.4675   19.4507 C   0  0  0  0  0  0
  -29.4952  -12.4962   18.2216 C   0  0  0  0  0  0
  -28.0281  -12.2956   18.6491 C   0  0  0  0  0  0
  -27.6351  -13.1969   19.8468 C   0  0  2  0  0  0
  -28.6953  -13.1406   20.9727 C   0  0  0  0  0  0
  -25.2499  -13.8088   20.5685 C   0  0  0  0  0  0
  -24.1776  -13.0380   20.9225 C   0  0  0  0  0  0
  -24.6343  -11.6854   20.8791 C   0  0  0  0  0  0
  -23.9020  -10.4255   21.0442 C   0  0  0  0  0  0
  -24.3586   -9.4172   21.9208 C   0  0  0  0  0  0
  -23.6271   -8.2206   22.0760 C   0  0  0  0  0  0
  -22.4256   -8.0254   21.3544 C   0  0  0  0  0  0
  -21.9887   -9.0228   20.4650 C   0  0  0  0  0  0
  -22.7206  -10.2109   20.3073 C   0  0  0  0  0  0
  -21.6839   -6.0720   22.5278 C   0  0  0  0  0  0
  -21.4004   -6.5629   23.8211 C   0  0  0  0  0  0
  -21.3659   -5.6787   24.9177 C   0  0  0  0  0  0
  -21.6046   -4.3049   24.7230 C   0  0  0  0  0  0
  -21.8820   -3.8138   23.4353 C   0  0  0  0  0  0
  -21.9189   -4.6950   22.3405 C   0  0  0  0  0  0
  -22.7809  -13.5200   21.1874 C   0  0  0  0  0  0
  -22.1659   -4.2136   21.0983 F   0  0  0  0  0  0
  -21.5634   -3.4536   25.7745 F   0  0  0  0  0  0
  -29.9754  -13.5389   20.3725 N   0  0  0  0  0  0
  -26.2899  -12.9228   20.3316 N   0  0  0  0  0  0
  -25.9261  -11.6413   20.5814 N   0  0  0  0  0  0
  -22.0440  -12.8210   22.0433 N   0  0  0  0  0  0
  -25.4152  -15.1805   20.4033 N   0  0  0  0  0  0
  -31.8610  -14.7493   20.2004 O   0  0  0  0  0  0
  -21.6620   -6.8855   21.4237 O   0  0  0  0  0  0
  -22.3512  -14.5512   20.6716 O   0  0  0  0  0  0
  -24.6285  -31.8576   23.2002 C   0  0  0  0  0  0
  -25.9122  -32.4766   23.8340 C   0  0  1  0  0  0
  -27.2290  -27.2978   20.1061 C   0  0  0  0  0  0
  -25.5928  -33.8568   24.2267 N   0  0  0  0  0  0
  -23.4228  -30.4812   21.5435 C   0  0  2  0  0  0
  -24.8689  -28.9335   20.1088 C   0  0  0  0  0  0
  -22.7484  -29.4615   22.4923 C   0  0  0  0  0  0
  -18.0289  -28.1386   22.8485 C   0  0  0  0  0  0
  -24.1490  -36.7288   23.2639 C   0  0  0  0  0  0
  -25.9662  -30.7808   21.3743 C   0  0  0  0  0  0
  -26.0385  -29.4068   20.7142 C   0  0  0  0  0  0
  -27.2162  -28.5989   20.7065 C   0  0  0  0  0  0
  -26.0234  -26.8733   19.4983 C   0  0  0  0  0  0
  -24.8642  -27.6725   19.4953 C   0  0  0  0  0  0
  -23.6380  -29.8160   20.1587 C   0  0  0  0  0  0
  -25.4115  -36.3077   24.0329 C   0  0  1  0  0  0
  -20.5890  -28.3692   23.1278 C   0  0  2  0  0  0
  -20.6774  -26.9412   22.5410 C   0  0  0  0  0  0
  -19.5752  -26.6385   21.5210 C   0  0  0  0  0  0
  -18.1932  -26.7930   22.1620 C   0  0  0  0  0  0
  -19.1541  -28.8855   23.2878 C   0  0  0  0  0  0
  -18.9463  -30.1456   23.8895 C   0  0  0  0  0  0
  -17.6462  -30.6587   24.0562 C   0  0  0  0  0  0
  -25.9052  -34.9446   23.5099 C   0  0  0  0  0  0
  -16.5354  -29.9085   23.6330 C   0  0  0  0  0  0
  -16.7275  -28.6502   23.0351 C   0  0  0  0  0  0
  -26.4498  -31.6584   25.0721 C   0  0  0  0  0  0
  -25.3726  -31.3729   26.1447 C   0  0  0  0  0  0
  -27.0340  -30.3004   24.6190 C   0  0  0  0  0  0
  -27.6056  -32.4321   25.7493 C   0  0  0  0  0  0
  -27.5581  -37.1800   24.8464 C   0  0  0  0  0  0
  -21.4195  -29.3044   22.3669 N   0  0  0  0  0  0
  -26.4291  -37.3773   23.9409 N   0  0  0  0  0  0
  -24.6916  -31.0571   22.0960 N   0  0  0  0  0  0
  -23.4200  -28.8153   23.3008 O   0  0  0  0  0  0
  -28.3579  -26.4566   20.1846 O   0  0  0  0  0  0
  -26.5621  -34.8917   22.4666 O   0  0  0  0  0  0
  -23.5443  -32.1384   23.7318 O   0  0  0  0  0  0
  -29.6496  -23.5836   21.1156 C   0  0  0  0  0  0
  -30.0241  -22.2492   21.4563 C   0  0  0  0  0  0
  -28.8060  -23.7954   20.0005 C   0  0  0  0  0  0
  -29.5639  -21.1509   20.6802 C   0  0  0  0  0  0
  -28.4396  -17.8345   20.9793 C   0  0  0  0  0  0
  -28.5826  -16.3267   20.6657 C   0  0  0  0  0  0
  -30.7070  -17.3135   20.5863 C   0  0  0  0  0  0
  -29.6706  -18.4953   20.3753 C   0  0  2  0  0  0
  -28.5060  -25.2208   19.3684 C   0  0  0  0  0  0
  -28.3725  -22.6878   19.3090 N   0  0  0  0  0  0
  -28.7295  -21.4137   19.6336 N   0  0  0  0  0  0
  -30.0117  -15.9763   20.6321 N   0  0  0  0  0  0
  -30.0099  -19.8196   20.9925 N   0  0  0  0  0  0
  -31.4625  -12.5956   19.1286 H   0  0  0  0  0  0
  -30.3929  -11.4936   19.9417 H   0  0  0  0  0  0
  -29.7853  -11.7239   17.5079 H   0  0  0  0  0  0
  -29.6000  -13.4496   17.7012 H   0  0  0  0  0  0
  -27.9034  -11.2469   18.9214 H   0  0  0  0  0  0
  -27.3597  -12.4719   17.8054 H   0  0  0  0  0  0
  -27.6083  -14.1928   19.4253 H   0  0  0  0  0  0
  -28.7626  -12.1283   21.3740 H   0  0  0  0  0  0
  -28.4377  -13.7606   21.8284 H   0  0  0  0  0  0
  -25.2731   -9.5649   22.4784 H   0  0  0  0  0  0
  -23.9981   -7.4590   22.7472 H   0  0  0  0  0  0
  -21.0821   -8.8743   19.8952 H   0  0  0  0  0  0
  -22.3670  -10.9654   19.6185 H   0  0  0  0  0  0
  -21.1988   -7.6136   23.9709 H   0  0  0  0  0  0
  -21.1484   -6.0519   25.9079 H   0  0  0  0  0  0
  -22.0603   -2.7601   23.2856 H   0  0  0  0  0  0
  -22.4041  -11.9867   22.4828 H   0  0  0  0  0  0
  -21.1064  -13.1254   22.2637 H   0  0  0  0  0  0
  -24.6460  -15.8313   20.5178 H   0  0  0  0  0  0
  -26.2654  -15.6245   20.0847 H   0  0  0  0  0  0
  -26.7189  -32.5424   23.1085 H   0  0  0  0  0  0
  -25.0073  -33.9709   25.0411 H   0  0  0  0  0  0
  -22.7178  -31.3027   21.3998 H   0  0  0  0  0  0
  -23.3752  -35.9621   23.3302 H   0  0  0  0  0  0
  -24.3582  -36.8907   22.2054 H   0  0  0  0  0  0
  -23.7243  -37.6491   23.6661 H   0  0  0  0  0  0
  -26.1021  -31.5441   20.6069 H   0  0  0  0  0  0
  -26.8452  -30.8280   22.0057 H   0  0  0  0  0  0
  -28.1129  -28.9593   21.1912 H   0  0  0  0  0  0
  -25.9166  -25.8972   19.0540 H   0  0  0  0  0  0
  -23.9614  -27.2966   19.0334 H   0  0  0  0  0  0
  -23.7586  -30.5926   19.4027 H   0  0  0  0  0  0
  -22.7572  -29.2470   19.8558 H   0  0  0  0  0  0
  -25.1296  -36.1926   25.0822 H   0  0  0  0  0  0
  -20.9986  -28.3269   24.1397 H   0  0  0  0  0  0
  -20.5668  -26.2302   23.3612 H   0  0  0  0  0  0
  -21.6644  -26.7436   22.1209 H   0  0  0  0  0  0
  -19.6912  -25.6295   21.1241 H   0  0  0  0  0  0
  -19.6692  -27.3193   20.6737 H   0  0  0  0  0  0
  -17.4203  -26.6679   21.4022 H   0  0  0  0  0  0
  -18.0332  -26.0073   22.9018 H   0  0  0  0  0  0
  -19.7939  -30.7270   24.2269 H   0  0  0  0  0  0
  -17.5017  -31.6268   24.5162 H   0  0  0  0  0  0
  -15.5354  -30.2984   23.7656 H   0  0  0  0  0  0
  -15.8676  -28.0818   22.7069 H   0  0  0  0  0  0
  -24.5907  -30.7068   25.7780 H   0  0  0  0  0  0
  -24.8908  -32.2895   26.4859 H   0  0  0  0  0  0
  -25.8051  -30.8922   27.0230 H   0  0  0  0  0  0
  -26.2917  -29.6754   24.1210 H   0  0  0  0  0  0
  -27.4024  -29.7263   25.4702 H   0  0  0  0  0  0
  -27.8794  -30.4282   23.9425 H   0  0  0  0  0  0
  -27.2667  -33.3625   26.2064 H   0  0  0  0  0  0
  -28.3868  -32.6877   25.0322 H   0  0  0  0  0  0
  -28.0721  -31.8449   26.5413 H   0  0  0  0  0  0
  -28.2598  -38.0097   24.7511 H   0  0  0  0  0  0
  -28.1077  -36.2629   24.6288 H   0  0  0  0  0  0
  -27.2302  -37.1449   25.8868 H   0  0  0  0  0  0
  -20.9372  -29.8768   21.6880 H   0  0  0  0  0  0
  -26.0171  -38.2849   24.1406 H   0  0  0  0  0  0
  -30.0387  -24.4249   21.6697 H   0  0  0  0  0  0
  -30.6879  -22.0839   22.2918 H   0  0  0  0  0  0
  -28.4321  -17.9722   22.0618 H   0  0  0  0  0  0
  -27.5093  -18.2532   20.5923 H   0  0  0  0  0  0
  -28.1785  -16.1691   19.6679 H   0  0  0  0  0  0
  -28.0070  -15.7560   21.3886 H   0  0  0  0  0  0
  -31.2323  -17.4341   21.5348 H   0  0  0  0  0  0
  -31.4657  -17.3326   19.8021 H   0  0  0  0  0  0
  -29.5074  -18.6333   19.3046 H   0  0  0  0  0  0
  -27.7279  -25.1017   18.6204 H   0  0  0  0  0  0
  -29.3861  -25.4236   18.7582 H   0  0  0  0  0  0
  -30.6464  -19.7733   21.7808 H   0  0  0  0  0  0
  1 25  1  0  0  0
  1 30  2  0  0  0
  1 82  1  0  0  0
  2  3  1  0  0  0
  2 25  1  0  0  0
  2 84  1  0  0  0
  2 85  1  0  0  0
  3  4  1  0  0  0
  3 86  1  0  0  0
  3 87  1  0  0  0
  4  5  1  0  0  0
  4 88  1  0  0  0
  4 89  1  0  0  0
  5  6  1  0  0  0
  5 26  1  0  0  0
  5 90  1  0  0  0
  6 25  1  0  0  0
  6 91  1  0  0  0
  6 92  1  0  0  0
  7  8  2  0  0  0
  7 26  1  0  0  0
  7 29  1  0  0  0
  8  9  1  0  0  0
  8 22  1  0  0  0
  9 10  1  0  0  0
  9 27  2  0  0  0
 10 11  2  0  0  0
 10 15  1  0  0  0
 11 12  1  0  0  0
 11 93  1  0  0  0
 12 13  2  0  0  0
 12 94  1  0  0  0
 13 14  1  0  0  0
 13 31  1  0  0  0
 14 15  2  0  0  0
 14 95  1  0  0  0
 15 96  1  0  0  0
 16 17  2  0  0  0
 16 21  1  0  0  0
 16 31  1  0  0  0
 17 18  1  0  0  0
 17 97  1  0  0  0
 18 19  2  0  0  0
 18 98  1  0  0  0
 19 20  1  0  0  0
 19 24  1  0  0  0
 20 21  2  0  0  0
 20 99  1  0  0  0
 21 23  1  0  0  0
 22 28  1  0  0  0
 22 32  2  0  0  0
 26 27  1  0  0  0
 28100  1  0  0  0
 28101  1  0  0  0
 29102  1  0  0  0
 29103  1  0  0  0
 33 34  1  0  0  0
 33 66  1  0  0  0
 33 70  2  0  0  0
 34 36  1  0  0  0
 34 59  1  0  0  0
 34104  1  0  0  0
 35 44  2  0  0  0
 35 45  1  0  0  0
 35 68  1  0  0  0
 36 56  1  0  0  0
 36105  1  0  0  0
 37 39  1  0  0  0
 37 47  1  0  0  0
 37 66  1  0  0  0
 37106  1  0  0  0
 38 43  2  0  0  0
 38 46  1  0  0  0
 38 47  1  0  0  0
 39 64  1  0  0  0
 39 67  2  0  0  0
 40 52  1  0  0  0
 40 53  2  0  0  0
 40 58  1  0  0  0
 41107  1  0  0  0
 41108  1  0  0  0
 41109  1  0  0  0
 41 48  1  0  0  0
 42 43  1  0  0  0
 42 66  1  0  0  0
 42110  1  0  0  0
 42111  1  0  0  0
 43 44  1  0  0  0
 44112  1  0  0  0
 45 46  2  0  0  0
 45113  1  0  0  0
 46114  1  0  0  0
 47115  1  0  0  0
 47116  1  0  0  0
 48 56  1  0  0  0
 48 65  1  0  0  0
 48117  1  0  0  0
 49 50  1  0  0  0
 49 53  1  0  0  0
 49 64  1  0  0  0
 49118  1  0  0  0
 50 51  1  0  0  0
 50119  1  0  0  0
 50120  1  0  0  0
 51 52  1  0  0  0
 51121  1  0  0  0
 51122  1  0  0  0
 52123  1  0  0  0
 52124  1  0  0  0
 53 54  1  0  0  0
 54 55  2  0  0  0
 54125  1  0  0  0
 55 57  1  0  0  0
 55126  1  0  0  0
 56 69  2  0  0  0
 57 58  2  0  0  0
 57127  1  0  0  0
 58128  1  0  0  0
 59 60  1  0  0  0
 59 61  1  0  0  0
 59 62  1  0  0  0
 60129  1  0  0  0
 60130  1  0  0  0
 60131  1  0  0  0
 61132  1  0  0  0
 61133  1  0  0  0
 61134  1  0  0  0
 62135  1  0  0  0
 62136  1  0  0  0
 62137  1  0  0  0
 63 65  1  0  0  0
 63138  1  0  0  0
 63139  1  0  0  0
 63140  1  0  0  0
 64141  1  0  0  0
 65142  1  0  0  0
 68 79  1  0  0  0
 71 72  2  0  0  0
 71 73  1  0  0  0
 71143  1  0  0  0
 72 74  1  0  0  0
 72144  1  0  0  0
 73 79  1  0  0  0
 73 80  2  0  0  0
 74 81  2  0  0  0
 74 83  1  0  0  0
 75 76  1  0  0  0
 75 78  1  0  0  0
 75145  1  0  0  0
 75146  1  0  0  0
 76 82  1  0  0  0
 76147  1  0  0  0
 76148  1  0  0  0
 77 78  1  0  0  0
 77 82  1  0  0  0
 77149  1  0  0  0
 77150  1  0  0  0
 78 83  1  0  0  0
 78151  1  0  0  0
 79152  1  0  0  0
 79153  1  0  0  0
 80 81  1  0  0  0
 83154  1  0  0  0
M  ISO  4   1 100  68 101  79 101  82 100
M  END
> <chiral flag>
0

> <version>
0

> <s_m_source_file>
/data/baiqing/PycharmProjects/Reinvent-master-3.2/result/LINK_invent/BTK/process_docking_weight1_custom_sum_contain_oxygen_bond_distance_aromatic_linkinvent_7_9_3/rearranged_h_0187.sdf

> <i_m_source_file_index>
48

> <r_mmod_Potential_Energy-OPLS-2005>
272.721466064453

> <r_mmod_Stretch_Energy-OPLS-2005>
96.1524658203125

> <r_mmod_Bend_Energy-OPLS-2005>
227.364212036133

> <r_mmod_Torsional_Energy-OPLS-2005>
298.427703857422

> <r_mmod_Improper_Torsional_Energy-OPLS-2005>
5.70825386047363

> <r_mmod_Van_der_Waal_Energy-OPLS-2005>
145.203094482422

> <r_mmod_Electrostatic_Energy-OPLS-2005>
-337.105773925781

> <r_mmod_Solvation_Energy-OPLS-2005>
-237.738693237305

> <b_mmod_Minimization_Converged-OPLS-2005>
0

> <r_mmod_RMS_Derivative-OPLS-2005>
0.2861667573452

$$$$
48
                    3D
 Structure written by MMmdl.
152161  0  0  1  0            999 V2000
  -30.4065  -15.4279   20.3593 C   0  0  0  0  0  0
  -30.4296  -12.9372   19.5152 C   0  0  0  0  0  0
  -29.5337  -12.5985   18.2952 C   0  0  0  0  0  0
  -28.0966  -12.2871   18.7423 C   0  0  0  0  0  0
  -27.5991  -13.2881   19.8121 C   0  0  2  0  0  0
  -28.6309  -13.5484   20.9315 C   0  0  0  0  0  0
  -25.2303  -13.8224   20.5741 C   0  0  0  0  0  0
  -24.1698  -13.0396   20.9281 C   0  0  0  0  0  0
  -24.6394  -11.6911   20.8780 C   0  0  0  0  0  0
  -23.9098  -10.4271   21.0409 C   0  0  0  0  0  0
  -24.3643   -9.4186   21.9188 C   0  0  0  0  0  0
  -23.6302   -8.2233   22.0754 C   0  0  0  0  0  0
  -22.4284   -8.0277   21.3541 C   0  0  0  0  0  0
  -21.9926   -9.0253   20.4650 C   0  0  0  0  0  0
  -22.7266  -10.2128   20.3061 C   0  0  0  0  0  0
  -21.6851   -6.0734   22.5277 C   0  0  0  0  0  0
  -21.4018   -6.5642   23.8209 C   0  0  0  0  0  0
  -21.3658   -5.6796   24.9170 C   0  0  0  0  0  0
  -21.6045   -4.3057   24.7225 C   0  0  0  0  0  0
  -21.8819   -3.8145   23.4347 C   0  0  0  0  0  0
  -21.9197   -4.6962   22.3402 C   0  0  0  0  0  0
  -22.7719  -13.5143   21.1923 C   0  0  0  0  0  0
  -22.1663   -4.2145   21.0981 F   0  0  0  0  0  0
  -21.5626   -3.4543   25.7739 F   0  0  0  0  0  0
  -29.8288  -14.1092   20.2743 N   0  0  0  0  0  0
  -26.2768  -12.9548   20.3224 N   0  0  0  0  0  0
  -25.9339  -11.6641   20.5741 N   0  0  0  0  0  0
  -22.0389  -12.8134   22.0487 N   0  0  0  0  0  0
  -25.3811  -15.1950   20.4125 N   0  0  0  0  0  0
  -31.6437  -15.3517   20.2543 O   0  0  0  0  0  0
  -21.6640   -6.8877   21.4238 O   0  0  0  0  0  0
  -22.3402  -14.5447   20.6763 O   0  0  0  0  0  0
  -24.6724  -31.8149   23.1634 C   0  0  0  0  0  0
  -25.9365  -32.4546   23.8135 C   0  0  1  0  0  0
  -27.2175  -26.8219   20.2145 C   0  0  0  0  0  0
  -25.5991  -33.8362   24.2028 N   0  0  0  0  0  0
  -23.4925  -30.4222   21.5150 C   0  0  2  0  0  0
  -24.9468  -28.7844   20.1260 C   0  0  0  0  0  0
  -22.7715  -29.4397   22.4759 C   0  0  0  0  0  0
  -18.0336  -28.1415   22.8473 C   0  0  0  0  0  0
  -24.1483  -36.7183   23.2628 C   0  0  0  0  0  0
  -26.0673  -30.5867   21.4113 C   0  0  0  0  0  0
  -26.1332  -29.1612   20.7687 C   0  0  0  0  0  0
  -27.2605  -28.2046   20.7849 C   0  0  0  0  0  0
  -26.0017  -26.6267   19.5176 C   0  0  0  0  0  0
  -24.9113  -27.5380   19.4809 C   0  0  0  0  0  0
  -23.7410  -29.7284   20.1470 C   0  0  0  0  0  0
  -25.4116  -36.2938   24.0293 C   0  0  1  0  0  0
  -20.5967  -28.3768   23.1169 C   0  0  2  0  0  0
  -20.6798  -26.9436   22.5402 C   0  0  0  0  0  0
  -19.5765  -26.6377   21.5217 C   0  0  0  0  0  0
  -18.1961  -26.7944   22.1641 C   0  0  0  0  0  0
  -19.1599  -28.8913   23.2809 C   0  0  0  0  0  0
  -18.9500  -30.1501   23.8855 C   0  0  0  0  0  0
  -17.6487  -30.6597   24.0555 C   0  0  0  0  0  0
  -25.9120  -34.9333   23.4994 C   0  0  0  0  0  0
  -16.5382  -29.9083   23.6332 C   0  0  0  0  0  0
  -16.7318  -28.6503   23.0363 C   0  0  0  0  0  0
  -26.4572  -31.6526   25.0708 C   0  0  0  0  0  0
  -25.3669  -31.3831   26.1352 C   0  0  0  0  0  0
  -27.0466  -30.2872   24.6518 C   0  0  0  0  0  0
  -27.6063  -32.4334   25.7515 C   0  0  0  0  0  0
  -27.5610  -37.1676   24.8406 C   0  0  0  0  0  0
  -21.4376  -29.3042   22.3504 N   0  0  0  0  0  0
  -26.4225  -37.3722   23.9493 N   0  0  0  0  0  0
  -24.7666  -30.9711   22.0830 N   0  0  0  0  0  0
  -23.4214  -28.7980   23.3047 O   0  0  0  0  0  0
  -28.2232  -25.6845   20.1614 O   0  0  0  0  0  0
  -26.5752  -34.8890   22.4609 O   0  0  0  0  0  0
  -23.5769  -32.1173   23.6647 O   0  0  0  0  0  0
  -28.7247  -22.8205   19.9262 C   0  0  0  0  0  0
  -28.7045  -21.4020   20.5677 C   0  0  0  0  0  0
  -28.1818  -24.1536   20.5206 C   0  0  0  0  0  0
  -27.6676  -22.6705   22.2820 C   0  0  0  0  0  0
  -27.8729  -18.6570   20.2140 C   0  0  0  0  0  0
  -28.2986  -17.0993   20.0631 C   0  0  0  0  0  0
  -30.1171  -18.3823   20.5795 C   0  0  0  0  0  0
  -29.0449  -19.6895   20.0886 C   0  0  2  0  0  0
  -27.0563  -22.5794   23.6651 C   0  0  0  0  0  0
  -28.1450  -21.5038   21.7949 N   0  0  0  0  0  0
  -27.6549  -23.9052   21.7388 N   0  0  0  0  0  0
  -29.7157  -16.7928   20.3910 N   0  0  0  0  0  0
  -31.4311  -13.1733   19.1541 H   0  0  0  0  0  0
  -30.5520  -12.0684   20.1641 H   0  0  0  0  0  0
  -29.9446  -11.7533   17.7414 H   0  0  0  0  0  0
  -29.5263  -13.4430   17.6043 H   0  0  0  0  0  0
  -28.0954  -11.2806   19.1617 H   0  0  0  0  0  0
  -27.4217  -12.2632   17.8858 H   0  0  0  0  0  0
  -27.4826  -14.2277   19.2718 H   0  0  0  0  0  0
  -28.8506  -12.6414   21.4969 H   0  0  0  0  0  0
  -28.2393  -14.2744   21.6455 H   0  0  0  0  0  0
  -25.2775   -9.5663   22.4778 H   0  0  0  0  0  0
  -23.9995   -7.4624   22.7480 H   0  0  0  0  0  0
  -21.0845   -8.8787   19.8967 H   0  0  0  0  0  0
  -22.3707  -10.9679   19.6189 H   0  0  0  0  0  0
  -21.2010   -7.6152   23.9708 H   0  0  0  0  0  0
  -21.1480   -6.0528   25.9071 H   0  0  0  0  0  0
  -22.0600   -2.7605   23.2854 H   0  0  0  0  0  0
  -22.4021  -11.9803   22.4879 H   0  0  0  0  0  0
  -21.1012  -13.1167   22.2712 H   0  0  0  0  0  0
  -24.6042  -15.8364   20.5263 H   0  0  0  0  0  0
  -26.2173  -15.6422   20.0638 H   0  0  0  0  0  0
  -26.7455  -32.5061   23.0864 H   0  0  0  0  0  0
  -25.0028  -33.9413   25.0102 H   0  0  0  0  0  0
  -22.8121  -31.2569   21.3341 H   0  0  0  0  0  0
  -23.3820  -35.9427   23.3081 H   0  0  0  0  0  0
  -24.3604  -36.9048   22.2090 H   0  0  0  0  0  0
  -23.7119  -37.6254   23.6821 H   0  0  0  0  0  0
  -26.2546  -31.3152   20.6210 H   0  0  0  0  0  0
  -26.9249  -30.6554   22.0686 H   0  0  0  0  0  0
  -28.1661  -28.5020   21.2946 H   0  0  0  0  0  0
  -25.8684  -25.6824   19.0085 H   0  0  0  0  0  0
  -24.0149  -27.2422   18.9528 H   0  0  0  0  0  0
  -23.9131  -30.4911   19.3868 H   0  0  0  0  0  0
  -22.8480  -29.1919   19.8218 H   0  0  0  0  0  0
  -25.1273  -36.1691   25.0767 H   0  0  0  0  0  0
  -21.0061  -28.3386   24.1289 H   0  0  0  0  0  0
  -20.5660  -26.2390   23.3655 H   0  0  0  0  0  0
  -21.6662  -26.7382   22.1222 H   0  0  0  0  0  0
  -19.6911  -25.6275   21.1276 H   0  0  0  0  0  0
  -19.6688  -27.3164   20.6726 H   0  0  0  0  0  0
  -17.4211  -26.6680   21.4066 H   0  0  0  0  0  0
  -18.0366  -26.0107   22.9062 H   0  0  0  0  0  0
  -19.7970  -30.7334   24.2209 H   0  0  0  0  0  0
  -17.5029  -31.6269   24.5170 H   0  0  0  0  0  0
  -15.5378  -30.2965   23.7669 H   0  0  0  0  0  0
  -15.8726  -28.0793   22.7103 H   0  0  0  0  0  0
  -24.5855  -30.7172   25.7672 H   0  0  0  0  0  0
  -24.8860  -32.3055   26.4622 H   0  0  0  0  0  0
  -25.7870  -30.9106   27.0239 H   0  0  0  0  0  0
  -26.3154  -29.6541   24.1487 H   0  0  0  0  0  0
  -27.3903  -29.7254   25.5213 H   0  0  0  0  0  0
  -27.9131  -30.4011   24.0004 H   0  0  0  0  0  0
  -27.2619  -33.3639   26.2033 H   0  0  0  0  0  0
  -28.3910  -32.6887   25.0384 H   0  0  0  0  0  0
  -28.0705  -31.8517   26.5489 H   0  0  0  0  0  0
  -28.2338  -38.0246   24.7865 H   0  0  0  0  0  0
  -28.1392  -36.2827   24.5698 H   0  0  0  0  0  0
  -27.2409  -37.0640   25.8790 H   0  0  0  0  0  0
  -20.9655  -29.8727   21.6615 H   0  0  0  0  0  0
  -26.0046  -38.2712   24.1743 H   0  0  0  0  0  0
  -29.1641  -22.8901   18.9405 H   0  0  0  0  0  0
  -27.4530  -18.7776   21.2136 H   0  0  0  0  0  0
  -27.0626  -18.9082   19.5287 H   0  0  0  0  0  0
  -28.1187  -16.7716   19.0386 H   0  0  0  0  0  0
  -27.6655  -16.4919   20.7060 H   0  0  0  0  0  0
  -30.2830  -18.5002   21.6507 H   0  0  0  0  0  0
  -31.0956  -18.5440   20.1270 H   0  0  0  0  0  0
  -29.2358  -19.7965   19.0202 H   0  0  0  0  0  0
  -26.6707  -21.5793   23.8630 H   0  0  0  0  0  0
  -26.2297  -23.2808   23.7783 H   0  0  0  0  0  0
  -27.8026  -22.8105   24.4242 H   0  0  0  0  0  0
  1 25  1  0  0  0
  1 30  2  0  0  0
  1 82  1  0  0  0
  2  3  1  0  0  0
  2 25  1  0  0  0
  2 83  1  0  0  0
  2 84  1  0  0  0
  3  4  1  0  0  0
  3 85  1  0  0  0
  3 86  1  0  0  0
  4  5  1  0  0  0
  4 87  1  0  0  0
  4 88  1  0  0  0
  5  6  1  0  0  0
  5 26  1  0  0  0
  5 89  1  0  0  0
  6 25  1  0  0  0
  6 90  1  0  0  0
  6 91  1  0  0  0
  7  8  2  0  0  0
  7 26  1  0  0  0
  7 29  1  0  0  0
  8  9  1  0  0  0
  8 22  1  0  0  0
  9 10  1  0  0  0
  9 27  2  0  0  0
 10 11  2  0  0  0
 10 15  1  0  0  0
 11 12  1  0  0  0
 11 92  1  0  0  0
 12 13  2  0  0  0
 12 93  1  0  0  0
 13 14  1  0  0  0
 13 31  1  0  0  0
 14 15  2  0  0  0
 14 94  1  0  0  0
 15 95  1  0  0  0
 16 17  2  0  0  0
 16 21  1  0  0  0
 16 31  1  0  0  0
 17 18  1  0  0  0
 17 96  1  0  0  0
 18 19  2  0  0  0
 18 97  1  0  0  0
 19 20  1  0  0  0
 19 24  1  0  0  0
 20 21  2  0  0  0
 20 98  1  0  0  0
 21 23  1  0  0  0
 22 28  1  0  0  0
 22 32  2  0  0  0
 26 27  1  0  0  0
 28 99  1  0  0  0
 28100  1  0  0  0
 29101  1  0  0  0
 29102  1  0  0  0
 33 34  1  0  0  0
 33 66  1  0  0  0
 33 70  2  0  0  0
 34 36  1  0  0  0
 34 59  1  0  0  0
 34103  1  0  0  0
 35 44  2  0  0  0
 35 45  1  0  0  0
 35 68  1  0  0  0
 36 56  1  0  0  0
 36104  1  0  0  0
 37 39  1  0  0  0
 37 47  1  0  0  0
 37 66  1  0  0  0
 37105  1  0  0  0
 38 43  2  0  0  0
 38 46  1  0  0  0
 38 47  1  0  0  0
 39 64  1  0  0  0
 39 67  2  0  0  0
 40 52  1  0  0  0
 40 53  2  0  0  0
 40 58  1  0  0  0
 41106  1  0  0  0
 41107  1  0  0  0
 41108  1  0  0  0
 41 48  1  0  0  0
 42 43  1  0  0  0
 42 66  1  0  0  0
 42109  1  0  0  0
 42110  1  0  0  0
 43 44  1  0  0  0
 44111  1  0  0  0
 45 46  2  0  0  0
 45112  1  0  0  0
 46113  1  0  0  0
 47114  1  0  0  0
 47115  1  0  0  0
 48 56  1  0  0  0
 48 65  1  0  0  0
 48116  1  0  0  0
 49 50  1  0  0  0
 49 53  1  0  0  0
 49 64  1  0  0  0
 49117  1  0  0  0
 50 51  1  0  0  0
 50118  1  0  0  0
 50119  1  0  0  0
 51 52  1  0  0  0
 51120  1  0  0  0
 51121  1  0  0  0
 52122  1  0  0  0
 52123  1  0  0  0
 53 54  1  0  0  0
 54 55  2  0  0  0
 54124  1  0  0  0
 55 57  1  0  0  0
 55125  1  0  0  0
 56 69  2  0  0  0
 57 58  2  0  0  0
 57126  1  0  0  0
 58127  1  0  0  0
 59 60  1  0  0  0
 59 61  1  0  0  0
 59 62  1  0  0  0
 60128  1  0  0  0
 60129  1  0  0  0
 60130  1  0  0  0
 61131  1  0  0  0
 61132  1  0  0  0
 61133  1  0  0  0
 62134  1  0  0  0
 62135  1  0  0  0
 62136  1  0  0  0
 63 65  1  0  0  0
 63137  1  0  0  0
 63138  1  0  0  0
 63139  1  0  0  0
 64140  1  0  0  0
 65141  1  0  0  0
 68 73  1  0  0  0
 71 72  2  0  0  0
 71 73  1  0  0  0
 71142  1  0  0  0
 72 80  1  0  0  0
 72 78  1  0  0  0
 73 81  2  0  0  0
 74 79  1  0  0  0
 74 80  2  0  0  0
 74 81  1  0  0  0
 75 76  1  0  0  0
 75 78  1  0  0  0
 75143  1  0  0  0
 75144  1  0  0  0
 76 82  1  0  0  0
 76145  1  0  0  0
 76146  1  0  0  0
 77 78  1  0  0  0
 77 82  1  0  0  0
 77147  1  0  0  0
 77148  1  0  0  0
 78149  1  0  0  0
 79150  1  0  0  0
 79151  1  0  0  0
 79152  1  0  0  0
M  ISO  4   1 100  68 101  73 101  82 100
M  END
> <chiral flag>
0

> <version>
0

> <s_m_source_file>
/data/baiqing/PycharmProjects/Reinvent-master-3.2/result/LINK_invent/BTK/process_docking_weight1_custom_sum_contain_oxygen_bond_distance_aromatic_linkinvent_7_9_3/rearranged_h_0187.sdf

> <i_m_source_file_index>
49

> <r_mmod_Potential_Energy-OPLS-2005>
1340.87268066406

> <r_mmod_Stretch_Energy-OPLS-2005>
657.271728515625

> <r_mmod_Bend_Energy-OPLS-2005>
536.077331542969

> <r_mmod_Torsional_Energy-OPLS-2005>
313.620819091797

> <r_mmod_Improper_Torsional_Energy-OPLS-2005>
4.83340501785278

> <r_mmod_Van_der_Waal_Energy-OPLS-2005>
125.294647216797

> <r_mmod_Electrostatic_Energy-OPLS-2005>
-691.922607421875

> <r_mmod_Solvation_Energy-OPLS-2005>
-232.855773925781

> <b_mmod_Minimization_Converged-OPLS-2005>
0

> <r_mmod_RMS_Derivative-OPLS-2005>
1.34234392642975

$$$$
49
                    3D
 Structure written by MMmdl.
157166  0  0  1  0            999 V2000
  -30.5979  -14.9216   20.4186 C   0  0  0  0  0  0
  -30.4335  -12.5697   19.5004 C   0  0  0  0  0  0
  -29.5190  -12.5059   18.2570 C   0  0  0  0  0  0
  -28.0544  -12.2914   18.6799 C   0  0  0  0  0  0
  -27.6284  -13.2438   19.8295 C   0  0  2  0  0  0
  -28.6719  -13.3069   20.9658 C   0  0  0  0  0  0
  -25.2518  -13.8205   20.5761 C   0  0  0  0  0  0
  -24.1803  -13.0465   20.9216 C   0  0  0  0  0  0
  -24.6379  -11.6925   20.8733 C   0  0  0  0  0  0
  -23.9049  -10.4309   21.0392 C   0  0  0  0  0  0
  -24.3608   -9.4223   21.9170 C   0  0  0  0  0  0
  -23.6303   -8.2244   22.0744 C   0  0  0  0  0  0
  -22.4287   -8.0278   21.3539 C   0  0  0  0  0  0
  -21.9900   -9.0258   20.4652 C   0  0  0  0  0  0
  -22.7205  -10.2150   20.3051 C   0  0  0  0  0  0
  -21.6854   -6.0735   22.5275 C   0  0  0  0  0  0
  -21.4023   -6.5642   23.8215 C   0  0  0  0  0  0
  -21.3659   -5.6794   24.9175 C   0  0  0  0  0  0
  -21.6053   -4.3054   24.7219 C   0  0  0  0  0  0
  -21.8827   -3.8142   23.4345 C   0  0  0  0  0  0
  -21.9190   -4.6965   22.3399 C   0  0  0  0  0  0
  -22.7834  -13.5268   21.1872 C   0  0  0  0  0  0
  -22.1659   -4.2150   21.0977 F   0  0  0  0  0  0
  -21.5634   -3.4536   25.7729 F   0  0  0  0  0  0
  -29.9507  -13.6896   20.3584 N   0  0  0  0  0  0
  -26.2900  -12.9413   20.3231 N   0  0  0  0  0  0
  -25.9307  -11.6549   20.5720 N   0  0  0  0  0  0
  -22.0450  -12.8289   22.0432 N   0  0  0  0  0  0
  -25.4347  -15.1939   20.4309 N   0  0  0  0  0  0
  -31.8062  -14.9275   20.1576 O   0  0  0  0  0  0
  -21.6641   -6.8877   21.4242 O   0  0  0  0  0  0
  -22.3529  -14.5573   20.6707 O   0  0  0  0  0  0
  -24.6465  -31.8410   23.1843 C   0  0  0  0  0  0
  -25.9232  -32.4663   23.8239 C   0  0  1  0  0  0
  -27.2290  -27.1193   20.1446 C   0  0  0  0  0  0
  -25.5994  -33.8470   24.2164 N   0  0  0  0  0  0
  -23.4499  -30.4581   21.5320 C   0  0  2  0  0  0
  -24.9002  -28.8775   20.1130 C   0  0  0  0  0  0
  -22.7579  -29.4533   22.4869 C   0  0  0  0  0  0
  -18.0305  -28.1394   22.8484 C   0  0  0  0  0  0
  -24.1502  -36.7241   23.2623 C   0  0  0  0  0  0
  -26.0074  -30.7064   21.3854 C   0  0  0  0  0  0
  -26.0796  -29.3158   20.7281 C   0  0  0  0  0  0
  -27.2427  -28.4537   20.7265 C   0  0  0  0  0  0
  -26.0170  -26.7821   19.4992 C   0  0  0  0  0  0
  -24.8818  -27.6227   19.4859 C   0  0  0  0  0  0
  -23.6768  -29.7817   20.1544 C   0  0  0  0  0  0
  -25.4117  -36.3000   24.0307 C   0  0  1  0  0  0
  -20.5917  -28.3720   23.1238 C   0  0  2  0  0  0
  -20.6801  -26.9425   22.5403 C   0  0  0  0  0  0
  -19.5776  -26.6372   21.5219 C   0  0  0  0  0  0
  -18.1951  -26.7933   22.1622 C   0  0  0  0  0  0
  -19.1558  -28.8879   23.2840 C   0  0  0  0  0  0
  -18.9475  -30.1482   23.8852 C   0  0  0  0  0  0
  -17.6470  -30.6591   24.0549 C   0  0  0  0  0  0
  -25.9086  -34.9385   23.5040 C   0  0  0  0  0  0
  -16.5364  -29.9081   23.6332 C   0  0  0  0  0  0
  -16.7287  -28.6499   23.0354 C   0  0  0  0  0  0
  -26.4547  -31.6527   25.0685 C   0  0  0  0  0  0
  -25.3746  -31.3771   26.1405 C   0  0  0  0  0  0
  -27.0371  -30.2901   24.6282 C   0  0  0  0  0  0
  -27.6105  -32.4273   25.7452 C   0  0  0  0  0  0
  -27.5610  -37.1719   24.8421 C   0  0  0  0  0  0
  -21.4265  -29.3043   22.3611 N   0  0  0  0  0  0
  -26.4255  -37.3745   23.9463 N   0  0  0  0  0  0
  -24.7212  -31.0239   22.0890 N   0  0  0  0  0  0
  -23.4209  -28.8088   23.3030 O   0  0  0  0  0  0
  -28.2882  -26.1329   20.2051 O   0  0  0  0  0  0
  -26.5666  -34.8895   22.4618 O   0  0  0  0  0  0
  -23.5578  -32.1300   23.7057 O   0  0  0  0  0  0
  -31.3722  -22.5140   20.1761 C   0  0  0  0  0  0
  -30.4842  -23.6007   20.0826 C   0  0  0  0  0  0
  -29.0982  -23.3482   20.1585 C   0  0  0  0  0  0
  -29.6966  -20.9437   20.2833 C   0  0  0  0  0  0
  -30.3105  -18.6060   19.3768 C   0  0  0  0  0  0
  -29.1644  -18.6183   21.4341 C   0  0  0  0  0  0
  -29.8851  -17.0656   19.2077 C   0  0  0  0  0  0
  -29.7969  -17.1117   21.5787 C   0  0  0  0  0  0
  -31.0535  -24.9900   19.8469 C   0  0  0  0  0  0
  -28.0184  -24.6002   20.0026 C   0  0  0  0  0  0
  -30.9843  -21.2305   20.2657 N   0  0  0  0  0  0
  -28.7447  -21.9643   20.2474 N   0  0  0  0  0  0
  -29.4580  -19.4762   20.2385 N   0  0  0  0  0  0
  -29.8867  -16.1609   20.4090 N   0  0  0  0  0  0
  -31.4710  -12.6988   19.1887 H   0  0  0  0  0  0
  -30.4083  -11.6285   20.0511 H   0  0  0  0  0  0
  -29.8387  -11.6998   17.5956 H   0  0  0  0  0  0
  -29.6063  -13.4295   17.6839 H   0  0  0  0  0  0
  -27.9638  -11.2565   19.0119 H   0  0  0  0  0  0
  -27.3868  -12.3911   17.8224 H   0  0  0  0  0  0
  -27.5849  -14.2365   19.3796 H   0  0  0  0  0  0
  -28.7526  -12.3489   21.4803 H   0  0  0  0  0  0
  -28.3747  -14.0441   21.7138 H   0  0  0  0  0  0
  -25.2743   -9.5711   22.4765 H   0  0  0  0  0  0
  -24.0019   -7.4633   22.7461 H   0  0  0  0  0  0
  -21.0817   -8.8766   19.8984 H   0  0  0  0  0  0
  -22.3622  -10.9705   19.6183 H   0  0  0  0  0  0
  -21.1997   -7.6143   23.9722 H   0  0  0  0  0  0
  -21.1497   -6.0511   25.9090 H   0  0  0  0  0  0
  -22.0597   -2.7600   23.2821 H   0  0  0  0  0  0
  -22.4017  -11.9943   22.4852 H   0  0  0  0  0  0
  -21.1098  -13.1384   22.2638 H   0  0  0  0  0  0
  -24.7009  -15.8721   20.6005 H   0  0  0  0  0  0
  -26.3224  -15.6201   20.1987 H   0  0  0  0  0  0
  -26.7296  -32.5257   23.0956 H   0  0  0  0  0  0
  -25.0140  -33.9574   25.0316 H   0  0  0  0  0  0
  -22.7525  -31.2847   21.3739 H   0  0  0  0  0  0
  -23.3813  -35.9517   23.3120 H   0  0  0  0  0  0
  -24.3631  -36.9043   22.2076 H   0  0  0  0  0  0
  -23.7172  -37.6349   23.6766 H   0  0  0  0  0  0
  -26.1642  -31.4581   20.6106 H   0  0  0  0  0  0
  -26.8782  -30.7581   22.0280 H   0  0  0  0  0  0
  -28.1402  -28.7857   21.2289 H   0  0  0  0  0  0
  -25.9088  -25.8236   19.0149 H   0  0  0  0  0  0
  -23.9799  -27.2769   18.9998 H   0  0  0  0  0  0
  -23.8127  -30.5527   19.3952 H   0  0  0  0  0  0
  -22.7920  -29.2227   19.8456 H   0  0  0  0  0  0
  -25.1288  -36.1785   25.0791 H   0  0  0  0  0  0
  -20.9995  -28.3312   24.1360 H   0  0  0  0  0  0
  -20.5718  -26.2332   23.3621 H   0  0  0  0  0  0
  -21.6664  -26.7453   22.1177 H   0  0  0  0  0  0
  -19.6938  -25.6269   21.1277 H   0  0  0  0  0  0
  -19.6715  -27.3158   20.6729 H   0  0  0  0  0  0
  -17.4223  -26.6664   21.4024 H   0  0  0  0  0  0
  -18.0353  -26.0082   22.9030 H   0  0  0  0  0  0
  -19.7950  -30.7315   24.2192 H   0  0  0  0  0  0
  -17.5019  -31.6279   24.5138 H   0  0  0  0  0  0
  -15.5357  -30.2965   23.7690 H   0  0  0  0  0  0
  -15.8689  -28.0804   22.7085 H   0  0  0  0  0  0
  -24.5797  -30.7283   25.7708 H   0  0  0  0  0  0
  -24.9108  -32.2994   26.4916 H   0  0  0  0  0  0
  -25.8003  -30.8808   27.0135 H   0  0  0  0  0  0
  -26.2961  -29.6630   24.1307 H   0  0  0  0  0  0
  -27.3969  -29.7202   25.4860 H   0  0  0  0  0  0
  -27.8896  -30.4092   23.9591 H   0  0  0  0  0  0
  -27.2717  -33.3581   26.2014 H   0  0  0  0  0  0
  -28.3922  -32.6814   25.0279 H   0  0  0  0  0  0
  -28.0767  -31.8397   26.5371 H   0  0  0  0  0  0
  -28.2449  -38.0189   24.7718 H   0  0  0  0  0  0
  -28.1281  -36.2743   24.5907 H   0  0  0  0  0  0
  -27.2382  -37.0938   25.8817 H   0  0  0  0  0  0
  -20.9488  -29.8734   21.6763 H   0  0  0  0  0  0
  -26.0101  -38.2769   24.1625 H   0  0  0  0  0  0
  -32.4403  -22.6672   20.1360 H   0  0  0  0  0  0
  -30.3365  -19.0635   18.3866 H   0  0  0  0  0  0
  -31.3395  -18.6495   19.7386 H   0  0  0  0  0  0
  -29.4437  -19.1814   22.3259 H   0  0  0  0  0  0
  -28.0795  -18.5310   21.4821 H   0  0  0  0  0  0
  -30.5429  -16.6311   18.4512 H   0  0  0  0  0  0
  -28.8871  -17.0249   18.7716 H   0  0  0  0  0  0
  -29.2433  -16.5956   22.3647 H   0  0  0  0  0  0
  -30.8132  -17.2140   21.9678 H   0  0  0  0  0  0
  -32.1177  -24.9388   19.6102 H   0  0  0  0  0  0
  -30.9347  -25.6252   20.7249 H   0  0  0  0  0  0
  -30.5611  -25.4654   18.9973 H   0  0  0  0  0  0
  -27.1643  -24.3344   20.6261 H   0  0  0  0  0  0
  -27.6747  -24.4959   18.9726 H   0  0  0  0  0  0
  1 25  1  0  0  0
  1 30  2  0  0  0
  1 84  1  0  0  0
  2  3  1  0  0  0
  2 25  1  0  0  0
  2 85  1  0  0  0
  2 86  1  0  0  0
  3  4  1  0  0  0
  3 87  1  0  0  0
  3 88  1  0  0  0
  4  5  1  0  0  0
  4 89  1  0  0  0
  4 90  1  0  0  0
  5  6  1  0  0  0
  5 26  1  0  0  0
  5 91  1  0  0  0
  6 25  1  0  0  0
  6 92  1  0  0  0
  6 93  1  0  0  0
  7  8  2  0  0  0
  7 26  1  0  0  0
  7 29  1  0  0  0
  8  9  1  0  0  0
  8 22  1  0  0  0
  9 10  1  0  0  0
  9 27  2  0  0  0
 10 11  2  0  0  0
 10 15  1  0  0  0
 11 12  1  0  0  0
 11 94  1  0  0  0
 12 13  2  0  0  0
 12 95  1  0  0  0
 13 14  1  0  0  0
 13 31  1  0  0  0
 14 15  2  0  0  0
 14 96  1  0  0  0
 15 97  1  0  0  0
 16 17  2  0  0  0
 16 21  1  0  0  0
 16 31  1  0  0  0
 17 18  1  0  0  0
 17 98  1  0  0  0
 18 19  2  0  0  0
 18 99  1  0  0  0
 19 20  1  0  0  0
 19 24  1  0  0  0
 20 21  2  0  0  0
 20100  1  0  0  0
 21 23  1  0  0  0
 22 28  1  0  0  0
 22 32  2  0  0  0
 26 27  1  0  0  0
 28101  1  0  0  0
 28102  1  0  0  0
 29103  1  0  0  0
 29104  1  0  0  0
 33 34  1  0  0  0
 33 66  1  0  0  0
 33 70  2  0  0  0
 34 36  1  0  0  0
 34 59  1  0  0  0
 34105  1  0  0  0
 35 44  2  0  0  0
 35 45  1  0  0  0
 35 68  1  0  0  0
 36 56  1  0  0  0
 36106  1  0  0  0
 37 39  1  0  0  0
 37 47  1  0  0  0
 37 66  1  0  0  0
 37107  1  0  0  0
 38 43  2  0  0  0
 38 46  1  0  0  0
 38 47  1  0  0  0
 39 64  1  0  0  0
 39 67  2  0  0  0
 40 52  1  0  0  0
 40 53  2  0  0  0
 40 58  1  0  0  0
 41108  1  0  0  0
 41109  1  0  0  0
 41110  1  0  0  0
 41 48  1  0  0  0
 42 43  1  0  0  0
 42 66  1  0  0  0
 42111  1  0  0  0
 42112  1  0  0  0
 43 44  1  0  0  0
 44113  1  0  0  0
 45 46  2  0  0  0
 45114  1  0  0  0
 46115  1  0  0  0
 47116  1  0  0  0
 47117  1  0  0  0
 48 56  1  0  0  0
 48 65  1  0  0  0
 48118  1  0  0  0
 49 50  1  0  0  0
 49 53  1  0  0  0
 49 64  1  0  0  0
 49119  1  0  0  0
 50 51  1  0  0  0
 50120  1  0  0  0
 50121  1  0  0  0
 51 52  1  0  0  0
 51122  1  0  0  0
 51123  1  0  0  0
 52124  1  0  0  0
 52125  1  0  0  0
 53 54  1  0  0  0
 54 55  2  0  0  0
 54126  1  0  0  0
 55 57  1  0  0  0
 55127  1  0  0  0
 56 69  2  0  0  0
 57 58  2  0  0  0
 57128  1  0  0  0
 58129  1  0  0  0
 59 60  1  0  0  0
 59 61  1  0  0  0
 59 62  1  0  0  0
 60130  1  0  0  0
 60131  1  0  0  0
 60132  1  0  0  0
 61133  1  0  0  0
 61134  1  0  0  0
 61135  1  0  0  0
 62136  1  0  0  0
 62137  1  0  0  0
 62138  1  0  0  0
 63 65  1  0  0  0
 63139  1  0  0  0
 63140  1  0  0  0
 63141  1  0  0  0
 64142  1  0  0  0
 65143  1  0  0  0
 68 80  1  0  0  0
 71 72  2  0  0  0
 71 81  1  0  0  0
 71144  1  0  0  0
 72 73  1  0  0  0
 72 79  1  0  0  0
 73 80  1  0  0  0
 73 82  2  0  0  0
 74 81  2  0  0  0
 74 82  1  0  0  0
 74 83  1  0  0  0
 75 77  1  0  0  0
 75 83  1  0  0  0
 75145  1  0  0  0
 75146  1  0  0  0
 76 78  1  0  0  0
 76 83  1  0  0  0
 76147  1  0  0  0
 76148  1  0  0  0
 77 84  1  0  0  0
 77149  1  0  0  0
 77150  1  0  0  0
 78 84  1  0  0  0
 78151  1  0  0  0
 78152  1  0  0  0
 79153  1  0  0  0
 79154  1  0  0  0
 79155  1  0  0  0
 80156  1  0  0  0
 80157  1  0  0  0
M  ISO  4   1 100  68 101  80 101  84 100
M  END
> <chiral flag>
0

> <version>
0

> <s_m_source_file>
/data/baiqing/PycharmProjects/Reinvent-master-3.2/result/LINK_invent/BTK/process_docking_weight1_custom_sum_contain_oxygen_bond_distance_aromatic_linkinvent_7_9_3/rearranged_h_0187.sdf

> <i_m_source_file_index>
50

> <r_mmod_Potential_Energy-OPLS-2005>
199.644805908203

> <r_mmod_Stretch_Energy-OPLS-2005>
234.702758789062

> <r_mmod_Bend_Energy-OPLS-2005>
262.736389160156

> <r_mmod_Torsional_Energy-OPLS-2005>
379.689697265625

> <r_mmod_Improper_Torsional_Energy-OPLS-2005>
16.8800354003906

> <r_mmod_Van_der_Waal_Energy-OPLS-2005>
149.130599975586

> <r_mmod_Electrostatic_Energy-OPLS-2005>
-797.498840332031

> <r_mmod_Solvation_Energy-OPLS-2005>
-236.413238525391

> <b_mmod_Minimization_Converged-OPLS-2005>
0

> <r_mmod_RMS_Derivative-OPLS-2005>
2.86313152313232

$$$$
50
                    3D
 Structure written by MMmdl.
152161  0  0  1  0            999 V2000
  -30.4998  -15.1050   20.3890 C   0  0  0  0  0  0
  -30.4448  -12.7085   19.4929 C   0  0  0  0  0  0
  -29.5243  -12.5524   18.2609 C   0  0  0  0  0  0
  -28.0627  -12.3099   18.6853 C   0  0  0  0  0  0
  -27.6191  -13.2583   19.8294 C   0  0  2  0  0  0
  -28.6686  -13.3559   20.9525 C   0  0  0  0  0  0
  -25.2465  -13.8252   20.5805 C   0  0  0  0  0  0
  -24.1761  -13.0451   20.9175 C   0  0  0  0  0  0
  -24.6413  -11.6943   20.8708 C   0  0  0  0  0  0
  -23.9091  -10.4299   21.0361 C   0  0  0  0  0  0
  -24.3634   -9.4205   21.9140 C   0  0  0  0  0  0
  -23.6298   -8.2237   22.0747 C   0  0  0  0  0  0
  -22.4274   -8.0271   21.3534 C   0  0  0  0  0  0
  -21.9902   -9.0245   20.4627 C   0  0  0  0  0  0
  -22.7257  -10.2110   20.3017 C   0  0  0  0  0  0
  -21.6871   -6.0722   22.5286 C   0  0  0  0  0  0
  -21.4020   -6.5645   23.8214 C   0  0  0  0  0  0
  -21.3663   -5.6785   24.9168 C   0  0  0  0  0  0
  -21.6069   -4.3052   24.7237 C   0  0  0  0  0  0
  -21.8822   -3.8151   23.4358 C   0  0  0  0  0  0
  -21.9194   -4.6942   22.3402 C   0  0  0  0  0  0
  -22.7772  -13.5196   21.1847 C   0  0  0  0  0  0
  -22.1642   -4.2122   21.0990 F   0  0  0  0  0  0
  -21.5628   -3.4553   25.7756 F   0  0  0  0  0  0
  -29.9087  -13.8291   20.3209 N   0  0  0  0  0  0
  -26.2872  -12.9475   20.3297 N   0  0  0  0  0  0
  -25.9333  -11.6578   20.5749 N   0  0  0  0  0  0
  -22.0467  -12.8162   22.0435 N   0  0  0  0  0  0
  -25.4248  -15.2018   20.4527 N   0  0  0  0  0  0
  -31.7320  -15.1098   20.2633 O   0  0  0  0  0  0
  -21.6656   -6.8860   21.4232 O   0  0  0  0  0  0
  -22.3413  -14.5508   20.6759 O   0  0  0  0  0  0
  -24.6472  -31.8413   23.1822 C   0  0  0  0  0  0
  -25.9209  -32.4701   23.8266 C   0  0  1  0  0  0
  -27.2173  -27.0462   20.2043 C   0  0  0  0  0  0
  -25.5946  -33.8502   24.2203 N   0  0  0  0  0  0
  -23.4609  -30.4483   21.5317 C   0  0  2  0  0  0
  -24.9112  -28.8508   20.1306 C   0  0  0  0  0  0
  -22.7616  -29.4529   22.4896 C   0  0  0  0  0  0
  -18.0321  -28.1388   22.8473 C   0  0  0  0  0  0
  -24.1497  -36.7245   23.2653 C   0  0  0  0  0  0
  -26.0200  -30.6809   21.3982 C   0  0  0  0  0  0
  -26.0905  -29.2762   20.7562 C   0  0  0  0  0  0
  -27.2455  -28.3948   20.7687 C   0  0  0  0  0  0
  -26.0144  -26.7338   19.5379 C   0  0  0  0  0  0
  -24.8898  -27.5930   19.5060 C   0  0  0  0  0  0
  -23.6933  -29.7637   20.1576 C   0  0  0  0  0  0
  -25.4146  -36.3045   24.0318 C   0  0  1  0  0  0
  -20.5941  -28.3748   23.1251 C   0  0  2  0  0  0
  -20.6823  -26.9446   22.5442 C   0  0  0  0  0  0
  -19.5797  -26.6377   21.5256 C   0  0  0  0  0  0
  -18.1947  -26.7915   22.1638 C   0  0  0  0  0  0
  -19.1575  -28.8887   23.2847 C   0  0  0  0  0  0
  -18.9482  -30.1511   23.8841 C   0  0  0  0  0  0
  -17.6464  -30.6595   24.0524 C   0  0  0  0  0  0
  -25.9085  -34.9421   23.5087 C   0  0  0  0  0  0
  -16.5372  -29.9053   23.6327 C   0  0  0  0  0  0
  -16.7306  -28.6480   23.0347 C   0  0  0  0  0  0
  -26.4480  -31.6582   25.0743 C   0  0  0  0  0  0
  -25.3597  -31.3764   26.1385 C   0  0  0  0  0  0
  -27.0376  -30.2979   24.6364 C   0  0  0  0  0  0
  -27.6027  -32.4344   25.7517 C   0  0  0  0  0  0
  -27.5583  -37.1793   24.8467 C   0  0  0  0  0  0
  -21.4302  -29.3079   22.3636 N   0  0  0  0  0  0
  -26.4316  -37.3750   23.9387 N   0  0  0  0  0  0
  -24.7302  -31.0153   22.0917 N   0  0  0  0  0  0
  -23.4220  -28.8116   23.3115 O   0  0  0  0  0  0
  -28.2914  -26.0690   20.0905 O   0  0  0  0  0  0
  -26.5682  -34.8938   22.4669 O   0  0  0  0  0  0
  -23.5562  -32.1363   23.6964 O   0  0  0  0  0  0
  -27.3894  -20.3951   20.8846 C   0  0  0  0  0  0
  -26.8942  -22.6983   20.8696 C   0  0  0  0  0  0
  -28.7520  -20.5784   20.5494 C   0  0  0  0  0  0
  -28.2255  -23.0883   20.5833 C   0  0  0  0  0  0
  -29.1230  -18.4117   18.9072 C   0  0  0  0  0  0
  -29.1453  -16.8317   19.0757 C   0  0  0  0  0  0
  -29.8671  -17.7617   21.0755 C   0  0  0  0  0  0
  -29.6058  -19.1577   20.1764 C   0  0  2  0  0  0
  -28.5558  -24.7201   20.8842 C   0  0  0  0  0  0
  -26.4900  -21.4081   21.0236 N   0  0  0  0  0  0
  -29.1463  -21.9733   20.4150 N   0  0  0  0  0  0
  -29.7453  -16.3590   20.3499 N   0  0  0  0  0  0
  -31.4622  -12.9141   19.1577 H   0  0  0  0  0  0
  -30.4960  -11.7853   20.0721 H   0  0  0  0  0  0
  -29.8694  -11.7278   17.6366 H   0  0  0  0  0  0
  -29.5865  -13.4538   17.6501 H   0  0  0  0  0  0
  -27.9726  -11.2751   19.0176 H   0  0  0  0  0  0
  -27.4013  -12.4040   17.8273 H   0  0  0  0  0  0
  -27.5511  -14.2443   19.3737 H   0  0  0  0  0  0
  -28.8132  -12.3928   21.4428 H   0  0  0  0  0  0
  -28.3574  -14.0602   21.7214 H   0  0  0  0  0  0
  -25.2772   -9.5709   22.4694 H   0  0  0  0  0  0
  -24.0044   -7.4631   22.7478 H   0  0  0  0  0  0
  -21.0824   -8.8772   19.8914 H   0  0  0  0  0  0
  -22.3726  -10.9630   19.6140 H   0  0  0  0  0  0
  -21.2011   -7.6142   23.9733 H   0  0  0  0  0  0
  -21.1483   -6.0493   25.9074 H   0  0  0  0  0  0
  -22.0601   -2.7602   23.2875 H   0  0  0  0  0  0
  -22.4100  -11.9843   22.4868 H   0  0  0  0  0  0
  -21.1067  -13.1111   22.2629 H   0  0  0  0  0  0
  -24.6870  -15.8697   20.6479 H   0  0  0  0  0  0
  -26.3323  -15.6386   20.3400 H   0  0  0  0  0  0
  -26.7310  -32.5288   23.1019 H   0  0  0  0  0  0
  -25.0004  -33.9618   25.0293 H   0  0  0  0  0  0
  -22.7671  -31.2737   21.3647 H   0  0  0  0  0  0
  -23.3795  -35.9534   23.3309 H   0  0  0  0  0  0
  -24.3574  -36.8855   22.2062 H   0  0  0  0  0  0
  -23.7214  -37.6429   23.6686 H   0  0  0  0  0  0
  -26.1867  -31.4209   20.6145 H   0  0  0  0  0  0
  -26.8840  -30.7381   22.0479 H   0  0  0  0  0  0
  -28.1538  -28.7319   21.2496 H   0  0  0  0  0  0
  -25.9335  -25.7792   19.0388 H   0  0  0  0  0  0
  -23.9923  -27.2605   19.0046 H   0  0  0  0  0  0
  -23.8403  -30.5273   19.3926 H   0  0  0  0  0  0
  -22.8062  -29.2026   19.8563 H   0  0  0  0  0  0
  -25.1335  -36.1894   25.0806 H   0  0  0  0  0  0
  -20.9994  -28.3357   24.1388 H   0  0  0  0  0  0
  -21.6674  -26.7493   22.1171 H   0  0  0  0  0  0
  -20.5801  -26.2340   23.3664 H   0  0  0  0  0  0
  -19.6974  -25.6254   21.1359 H   0  0  0  0  0  0
  -19.6711  -27.3212   20.6796 H   0  0  0  0  0  0
  -17.4216  -26.6694   21.4015 H   0  0  0  0  0  0
  -18.0305  -26.0022   22.9004 H   0  0  0  0  0  0
  -19.7936  -30.7353   24.2211 H   0  0  0  0  0  0
  -17.4950  -31.6258   24.5091 H   0  0  0  0  0  0
  -15.5350  -30.2899   23.7598 H   0  0  0  0  0  0
  -15.8712  -28.0752   22.7121 H   0  0  0  0  0  0
  -24.5880  -30.7005   25.7660 H   0  0  0  0  0  0
  -24.8653  -32.2919   26.4641 H   0  0  0  0  0  0
  -25.7818  -30.9060   27.0272 H   0  0  0  0  0  0
  -26.3020  -29.6693   24.1322 H   0  0  0  0  0  0
  -27.3927  -29.7288   25.4962 H   0  0  0  0  0  0
  -27.8950  -30.4240   23.9754 H   0  0  0  0  0  0
  -27.2686  -33.3730   26.1953 H   0  0  0  0  0  0
  -28.3899  -32.6734   25.0356 H   0  0  0  0  0  0
  -28.0617  -31.8535   26.5521 H   0  0  0  0  0  0
  -28.2611  -38.0083   24.7524 H   0  0  0  0  0  0
  -28.1091  -36.2617   24.6323 H   0  0  0  0  0  0
  -27.2291  -37.1444   25.8868 H   0  0  0  0  0  0
  -20.9543  -29.8731   21.6763 H   0  0  0  0  0  0
  -26.0198  -38.2826   24.1353 H   0  0  0  0  0  0
  -26.9914  -19.3969   20.9910 H   0  0  0  0  0  0
  -26.1360  -23.4499   21.0584 H   0  0  0  0  0  0
  -28.1092  -18.7306   18.6548 H   0  0  0  0  0  0
  -29.7393  -18.7083   18.0526 H   0  0  0  0  0  0
  -29.6472  -16.3886   18.2137 H   0  0  0  0  0  0
  -28.1170  -16.4626   19.0444 H   0  0  0  0  0  0
  -30.8429  -17.8155   21.5638 H   0  0  0  0  0  0
  -29.1500  -17.7581   21.8974 H   0  0  0  0  0  0
  -30.6068  -19.5313   19.9480 H   0  0  0  0  0  0
  -28.0991  -24.8974   21.8597 H   0  0  0  0  0  0
  -29.6264  -24.7496   21.0966 H   0  0  0  0  0  0
  1 25  1  0  0  0
  1 30  2  0  0  0
  1 82  1  0  0  0
  2  3  1  0  0  0
  2 25  1  0  0  0
  2 83  1  0  0  0
  2 84  1  0  0  0
  3  4  1  0  0  0
  3 85  1  0  0  0
  3 86  1  0  0  0
  4  5  1  0  0  0
  4 87  1  0  0  0
  4 88  1  0  0  0
  5  6  1  0  0  0
  5 26  1  0  0  0
  5 89  1  0  0  0
  6 25  1  0  0  0
  6 90  1  0  0  0
  6 91  1  0  0  0
  7  8  2  0  0  0
  7 26  1  0  0  0
  7 29  1  0  0  0
  8  9  1  0  0  0
  8 22  1  0  0  0
  9 10  1  0  0  0
  9 27  2  0  0  0
 10 11  2  0  0  0
 10 15  1  0  0  0
 11 12  1  0  0  0
 11 92  1  0  0  0
 12 13  2  0  0  0
 12 93  1  0  0  0
 13 14  1  0  0  0
 13 31  1  0  0  0
 14 15  2  0  0  0
 14 94  1  0  0  0
 15 95  1  0  0  0
 16 17  2  0  0  0
 16 21  1  0  0  0
 16 31  1  0  0  0
 17 18  1  0  0  0
 17 96  1  0  0  0
 18 19  2  0  0  0
 18 97  1  0  0  0
 19 20  1  0  0  0
 19 24  1  0  0  0
 20 21  2  0  0  0
 20 98  1  0  0  0
 21 23  1  0  0  0
 22 28  1  0  0  0
 22 32  2  0  0  0
 26 27  1  0  0  0
 28 99  1  0  0  0
 28100  1  0  0  0
 29101  1  0  0  0
 29102  1  0  0  0
 33 34  1  0  0  0
 33 66  1  0  0  0
 33 70  2  0  0  0
 34 36  1  0  0  0
 34 59  1  0  0  0
 34103  1  0  0  0
 35 44  2  0  0  0
 35 45  1  0  0  0
 35 68  1  0  0  0
 36 56  1  0  0  0
 36104  1  0  0  0
 37 39  1  0  0  0
 37 47  1  0  0  0
 37 66  1  0  0  0
 37105  1  0  0  0
 38 43  2  0  0  0
 38 46  1  0  0  0
 38 47  1  0  0  0
 39 64  1  0  0  0
 39 67  2  0  0  0
 40 52  1  0  0  0
 40 53  2  0  0  0
 40 58  1  0  0  0
 41106  1  0  0  0
 41107  1  0  0  0
 41108  1  0  0  0
 41 48  1  0  0  0
 42 43  1  0  0  0
 42 66  1  0  0  0
 42109  1  0  0  0
 42110  1  0  0  0
 43 44  1  0  0  0
 44111  1  0  0  0
 45 46  2  0  0  0
 45112  1  0  0  0
 46113  1  0  0  0
 47114  1  0  0  0
 47115  1  0  0  0
 48 56  1  0  0  0
 48 65  1  0  0  0
 48116  1  0  0  0
 49 50  1  0  0  0
 49 53  1  0  0  0
 49 64  1  0  0  0
 49117  1  0  0  0
 50 51  1  0  0  0
 50118  1  0  0  0
 50119  1  0  0  0
 51 52  1  0  0  0
 51120  1  0  0  0
 51121  1  0  0  0
 52122  1  0  0  0
 52123  1  0  0  0
 53 54  1  0  0  0
 54 55  2  0  0  0
 54124  1  0  0  0
 55 57  1  0  0  0
 55125  1  0  0  0
 56 69  2  0  0  0
 57 58  2  0  0  0
 57126  1  0  0  0
 58127  1  0  0  0
 59 60  1  0  0  0
 59 61  1  0  0  0
 59 62  1  0  0  0
 60128  1  0  0  0
 60129  1  0  0  0
 60130  1  0  0  0
 61131  1  0  0  0
 61132  1  0  0  0
 61133  1  0  0  0
 62134  1  0  0  0
 62135  1  0  0  0
 62136  1  0  0  0
 63 65  1  0  0  0
 63137  1  0  0  0
 63138  1  0  0  0
 63139  1  0  0  0
 64140  1  0  0  0
 65141  1  0  0  0
 68 79  1  0  0  0
 71 73  2  0  0  0
 71 80  1  0  0  0
 71142  1  0  0  0
 72 74  1  0  0  0
 72 80  2  0  0  0
 72143  1  0  0  0
 73 81  1  0  0  0
 73 78  1  0  0  0
 74 79  1  0  0  0
 74 81  2  0  0  0
 75 76  1  0  0  0
 75 78  1  0  0  0
 75144  1  0  0  0
 75145  1  0  0  0
 76 82  1  0  0  0
 76146  1  0  0  0
 76147  1  0  0  0
 77 78  1  0  0  0
 77 82  1  0  0  0
 77148  1  0  0  0
 77149  1  0  0  0
 78150  1  0  0  0
 79151  1  0  0  0
 79152  1  0  0  0
M  ISO  4   1 100  68 101  79 101  82 100
M  END
> <chiral flag>
0

> <version>
0

> <s_m_source_file>
/data/baiqing/PycharmProjects/Reinvent-master-3.2/result/LINK_invent/BTK/process_docking_weight1_custom_sum_contain_oxygen_bond_distance_aromatic_linkinvent_7_9_3/rearranged_h_0187.sdf

> <i_m_source_file_index>
51

> <r_mmod_Potential_Energy-OPLS-2005>
1161.57275390625

> <r_mmod_Stretch_Energy-OPLS-2005>
359.191711425781

> <r_mmod_Bend_Energy-OPLS-2005>
392.89306640625

> <r_mmod_Torsional_Energy-OPLS-2005>
398.691925048828

> <r_mmod_Improper_Torsional_Energy-OPLS-2005>
12.8835258483887

> <r_mmod_Van_der_Waal_Energy-OPLS-2005>
115.152244567871

> <r_mmod_Electrostatic_Energy-OPLS-2005>
-188.699798583984

> <r_mmod_Solvation_Energy-OPLS-2005>
-220.350799560547

> <b_mmod_Minimization_Converged-OPLS-2005>
0

> <r_mmod_RMS_Derivative-OPLS-2005>
6.77541589736938

$$$$
51
                    3D
 Structure written by MMmdl.
168177  0  0  1  0            999 V2000
  -30.6550  -14.4226   20.5836 C   0  0  0  0  0  0
  -30.4421  -12.2729   19.4073 C   0  0  0  0  0  0
  -29.5094  -12.4981   18.1966 C   0  0  0  0  0  0
  -28.0209  -12.3726   18.5991 C   0  0  0  0  0  0
  -27.6697  -13.1747   19.8829 C   0  0  2  0  0  0
  -28.7067  -12.8893   20.9923 C   0  0  0  0  0  0
  -25.2685  -13.8050   20.5659 C   0  0  0  0  0  0
  -24.1906  -13.0394   20.9113 C   0  0  0  0  0  0
  -24.6395  -11.6836   20.8697 C   0  0  0  0  0  0
  -23.9047  -10.4256   21.0392 C   0  0  0  0  0  0
  -24.3622   -9.4180   21.9168 C   0  0  0  0  0  0
  -23.6301   -8.2221   22.0747 C   0  0  0  0  0  0
  -22.4284   -8.0258   21.3536 C   0  0  0  0  0  0
  -21.9895   -9.0235   20.4651 C   0  0  0  0  0  0
  -22.7223  -10.2104   20.3043 C   0  0  0  0  0  0
  -21.6851   -6.0725   22.5281 C   0  0  0  0  0  0
  -21.4022   -6.5635   23.8214 C   0  0  0  0  0  0
  -21.3670   -5.6784   24.9175 C   0  0  0  0  0  0
  -21.6045   -4.3047   24.7205 C   0  0  0  0  0  0
  -21.8827   -3.8132   23.4332 C   0  0  0  0  0  0
  -21.9199   -4.6955   22.3393 C   0  0  0  0  0  0
  -22.7937  -13.5238   21.1772 C   0  0  0  0  0  0
  -22.1661   -4.2158   21.0963 F   0  0  0  0  0  0
  -21.5640   -3.4524   25.7714 F   0  0  0  0  0  0
  -30.0395  -13.2207   20.4543 N   0  0  0  0  0  0
  -26.3085  -12.9162   20.3351 N   0  0  0  0  0  0
  -25.9304  -11.6355   20.5709 N   0  0  0  0  0  0
  -22.0562  -12.8288   22.0330 N   0  0  0  0  0  0
  -25.4388  -15.1788   20.4170 N   0  0  0  0  0  0
  -31.7844  -14.6582   20.1355 O   0  0  0  0  0  0
  -21.6635   -6.8870   21.4244 O   0  0  0  0  0  0
  -22.3648  -14.5559   20.6624 O   0  0  0  0  0  0
  -24.6128  -31.8695   23.2168 C   0  0  0  0  0  0
  -25.9043  -32.4860   23.8399 C   0  0  1  0  0  0
  -27.2291  -27.4754   20.0756 C   0  0  0  0  0  0
  -25.5897  -33.8656   24.2294 N   0  0  0  0  0  0
  -23.3935  -30.4960   21.5573 C   0  0  2  0  0  0
  -24.8326  -28.9578   20.1230 C   0  0  0  0  0  0
  -22.7371  -29.4688   22.5069 C   0  0  0  0  0  0
  -18.0243  -28.1402   22.8490 C   0  0  0  0  0  0
  -24.1488  -36.7274   23.2620 C   0  0  0  0  0  0
  -25.9151  -30.8489   21.3521 C   0  0  0  0  0  0
  -25.9922  -29.4821   20.7069 C   0  0  0  0  0  0
  -27.1942  -28.7471   20.6802 C   0  0  0  0  0  0
  -26.0524  -26.9476   19.4983 C   0  0  0  0  0  0
  -24.8534  -27.6848   19.5246 C   0  0  0  0  0  0
  -23.5941  -29.8239   20.1730 C   0  0  0  0  0  0
  -25.4135  -36.3120   24.0301 C   0  0  1  0  0  0
  -20.5824  -28.3666   23.1350 C   0  0  2  0  0  0
  -20.6756  -26.9411   22.5435 C   0  0  0  0  0  0
  -19.5742  -26.6394   21.5224 C   0  0  0  0  0  0
  -18.1907  -26.7947   22.1620 C   0  0  0  0  0  0
  -19.1490  -28.8852   23.2909 C   0  0  0  0  0  0
  -18.9447  -30.1450   23.8926 C   0  0  0  0  0  0
  -17.6462  -30.6608   24.0581 C   0  0  0  0  0  0
  -25.9065  -34.9498   23.5088 C   0  0  0  0  0  0
  -16.5343  -29.9134   23.6323 C   0  0  0  0  0  0
  -16.7238  -28.6558   23.0322 C   0  0  0  0  0  0
  -26.4584  -31.6688   25.0693 C   0  0  0  0  0  0
  -25.3952  -31.3749   26.1515 C   0  0  0  0  0  0
  -27.0522  -30.3233   24.5942 C   0  0  0  0  0  0
  -27.6137  -32.4471   25.7429 C   0  0  0  0  0  0
  -27.5590  -37.1797   24.8463 C   0  0  0  0  0  0
  -21.4107  -29.3034   22.3785 N   0  0  0  0  0  0
  -26.4324  -37.3804   23.9396 N   0  0  0  0  0  0
  -24.6598  -31.0851   22.1028 N   0  0  0  0  0  0
  -23.4155  -28.8226   23.3099 O   0  0  0  0  0  0
  -28.4301  -26.8180   20.0051 O   0  0  0  0  0  0
  -26.5640  -34.8943   22.4659 O   0  0  0  0  0  0
  -23.5352  -32.1425   23.7619 O   0  0  0  0  0  0
  -31.7368  -19.9583   21.0049 C   0  0  0  0  0  0
  -31.9800  -21.1326   21.6597 C   0  0  0  0  0  0
  -30.5760  -19.4509   21.6437 C   0  0  0  0  0  0
  -30.2433  -17.6904   20.0225 C   0  0  0  0  0  0
  -30.1344  -17.2712   22.4877 C   0  0  0  0  0  0
  -29.4462  -16.4017   19.8066 C   0  0  0  0  0  0
  -29.4913  -15.8947   22.2032 C   0  0  0  0  0  0
  -33.1119  -22.0904   21.4795 C   0  0  0  0  0  0
  -30.7669  -22.3558   23.5844 C   0  0  0  0  0  0
  -30.6475  -23.7789   22.9992 C   0  0  0  0  0  0
  -29.4214  -25.3080   21.4940 C   0  0  0  0  0  0
  -28.4484  -25.4302   20.3167 C   0  0  0  0  0  0
  -30.1071  -20.2520   22.5836 N   0  0  0  0  0  0
  -30.9619  -21.3025   22.5912 N   0  0  0  0  0  0
  -29.9933  -18.2071   21.3668 N   0  0  0  0  0  0
  -29.7923  -15.4271   20.8447 N   0  0  0  0  0  0
  -29.5688  -23.9219   21.9954 N   0  3  0  0  0  0
  -31.4850  -12.3987   19.1090 H   0  0  0  0  0  0
  -30.3566  -11.2480   19.7738 H   0  0  0  0  0  0
  -29.7429  -11.7779   17.4111 H   0  0  0  0  0  0
  -29.6989  -13.4821   17.7643 H   0  0  0  0  0  0
  -27.8053  -11.3140   18.7519 H   0  0  0  0  0  0
  -27.3862  -12.6960   17.7715 H   0  0  0  0  0  0
  -27.7193  -14.2272   19.6188 H   0  0  0  0  0  0
  -28.6743  -11.8355   21.2763 H   0  0  0  0  0  0
  -28.4708  -13.4405   21.9024 H   0  0  0  0  0  0
  -25.2787   -9.5667   22.4718 H   0  0  0  0  0  0
  -24.0011   -7.4620   22.7487 H   0  0  0  0  0  0
  -21.0802   -8.8783   19.8980 H   0  0  0  0  0  0
  -22.3707  -10.9649   19.6149 H   0  0  0  0  0  0
  -21.2014   -7.6140   23.9732 H   0  0  0  0  0  0
  -21.1496   -6.0492   25.9085 H   0  0  0  0  0  0
  -22.0598   -2.7585   23.2819 H   0  0  0  0  0  0
  -22.4176  -11.9963   22.4738 H   0  0  0  0  0  0
  -21.1197  -13.1374   22.2542 H   0  0  0  0  0  0
  -24.6718  -15.8270   20.5557 H   0  0  0  0  0  0
  -26.3022  -15.6327   20.1502 H   0  0  0  0  0  0
  -26.7079  -32.5615   23.1139 H   0  0  0  0  0  0
  -25.0076  -33.9849   25.0444 H   0  0  0  0  0  0
  -22.6789  -31.3120   21.4231 H   0  0  0  0  0  0
  -23.3794  -35.9564   23.3360 H   0  0  0  0  0  0
  -24.3549  -36.8837   22.2019 H   0  0  0  0  0  0
  -23.7229  -37.6474   23.6629 H   0  0  0  0  0  0
  -26.0047  -31.6120   20.5780 H   0  0  0  0  0  0
  -26.8116  -30.9146   21.9567 H   0  0  0  0  0  0
  -28.0963  -29.1577   21.1107 H   0  0  0  0  0  0
  -26.0591  -25.9885   18.9993 H   0  0  0  0  0  0
  -23.9585  -27.2757   19.0757 H   0  0  0  0  0  0
  -23.7014  -30.5979   19.4116 H   0  0  0  0  0  0
  -22.7175  -29.2423   19.8823 H   0  0  0  0  0  0
  -25.1350  -36.1974   25.0803 H   0  0  0  0  0  0
  -20.9884  -28.3224   24.1485 H   0  0  0  0  0  0
  -20.5667  -26.2271   23.3614 H   0  0  0  0  0  0
  -21.6641  -26.7495   22.1221 H   0  0  0  0  0  0
  -19.6901  -25.6304   21.1260 H   0  0  0  0  0  0
  -19.6690  -27.3214   20.6763 H   0  0  0  0  0  0
  -17.4182  -26.6674   21.4018 H   0  0  0  0  0  0
  -18.0303  -26.0092   22.9024 H   0  0  0  0  0  0
  -19.7924  -30.7239   24.2317 H   0  0  0  0  0  0
  -17.5031  -31.6286   24.5190 H   0  0  0  0  0  0
  -15.5354  -30.3062   23.7638 H   0  0  0  0  0  0
  -15.8627  -28.0909   22.7002 H   0  0  0  0  0  0
  -24.6200  -30.6939   25.8012 H   0  0  0  0  0  0
  -24.9056  -32.2884   26.4915 H   0  0  0  0  0  0
  -25.8460  -30.9116   27.0299 H   0  0  0  0  0  0
  -26.3065  -29.6902   24.1129 H   0  0  0  0  0  0
  -27.4670  -29.7537   25.4266 H   0  0  0  0  0  0
  -27.8683  -30.4786   23.8875 H   0  0  0  0  0  0
  -27.2713  -33.3679   26.2154 H   0  0  0  0  0  0
  -28.3855  -32.7238   25.0236 H   0  0  0  0  0  0
  -28.0955  -31.8572   26.5229 H   0  0  0  0  0  0
  -28.2653  -38.0050   24.7524 H   0  0  0  0  0  0
  -28.1046  -36.2597   24.6328 H   0  0  0  0  0  0
  -27.2272  -37.1474   25.8847 H   0  0  0  0  0  0
  -20.9275  -29.8743   21.6995 H   0  0  0  0  0  0
  -26.0214  -38.2880   24.1404 H   0  0  0  0  0  0
  -32.3404  -19.5174   20.2235 H   0  0  0  0  0  0
  -29.9434  -18.4337   19.2824 H   0  0  0  0  0  0
  -31.3069  -17.5013   19.8723 H   0  0  0  0  0  0
  -31.1943  -17.1419   22.7191 H   0  0  0  0  0  0
  -29.6760  -17.7034   23.3797 H   0  0  0  0  0  0
  -29.6396  -15.9930   18.8121 H   0  0  0  0  0  0
  -28.3753  -16.6057   19.8421 H   0  0  0  0  0  0
  -28.4078  -15.9682   22.3120 H   0  0  0  0  0  0
  -29.8240  -15.1694   22.9501 H   0  0  0  0  0  0
  -33.9356  -21.6110   20.9499 H   0  0  0  0  0  0
  -33.4986  -22.4382   22.4377 H   0  0  0  0  0  0
  -32.8015  -22.9530   20.8906 H   0  0  0  0  0  0
  -29.8824  -22.1284   24.1834 H   0  0  0  0  0  0
  -31.6121  -22.3233   24.2734 H   0  0  0  0  0  0
  -31.5968  -24.0894   22.5666 H   0  0  0  0  0  0
  -30.4582  -24.4748   23.8197 H   0  0  0  0  0  0
  -29.0776  -25.9508   22.3059 H   0  0  0  0  0  0
  -30.3921  -25.6954   21.1769 H   0  0  0  0  0  0
  -27.4737  -25.0218   20.5849 H   0  0  0  0  0  0
  -28.8155  -24.8809   19.4483 H   0  0  0  0  0  0
  -28.7011  -23.6292   22.4185 H   0  0  0  0  0  0
  -29.7590  -23.3023   21.2224 H   0  0  0  0  0  0
  1 25  1  0  0  0
  1 30  2  0  0  0
  1 86  1  0  0  0
  2  3  1  0  0  0
  2 25  1  0  0  0
  2 88  1  0  0  0
  2 89  1  0  0  0
  3  4  1  0  0  0
  3 90  1  0  0  0
  3 91  1  0  0  0
  4  5  1  0  0  0
  4 92  1  0  0  0
  4 93  1  0  0  0
  5  6  1  0  0  0
  5 26  1  0  0  0
  5 94  1  0  0  0
  6 25  1  0  0  0
  6 95  1  0  0  0
  6 96  1  0  0  0
  7  8  2  0  0  0
  7 26  1  0  0  0
  7 29  1  0  0  0
  8  9  1  0  0  0
  8 22  1  0  0  0
  9 10  1  0  0  0
  9 27  2  0  0  0
 10 11  2  0  0  0
 10 15  1  0  0  0
 11 12  1  0  0  0
 11 97  1  0  0  0
 12 13  2  0  0  0
 12 98  1  0  0  0
 13 14  1  0  0  0
 13 31  1  0  0  0
 14 15  2  0  0  0
 14 99  1  0  0  0
 15100  1  0  0  0
 16 17  2  0  0  0
 16 21  1  0  0  0
 16 31  1  0  0  0
 17 18  1  0  0  0
 17101  1  0  0  0
 18 19  2  0  0  0
 18102  1  0  0  0
 19 20  1  0  0  0
 19 24  1  0  0  0
 20 21  2  0  0  0
 20103  1  0  0  0
 21 23  1  0  0  0
 22 28  1  0  0  0
 22 32  2  0  0  0
 26 27  1  0  0  0
 28104  1  0  0  0
 28105  1  0  0  0
 29106  1  0  0  0
 29107  1  0  0  0
 33 34  1  0  0  0
 33 66  1  0  0  0
 33 70  2  0  0  0
 34 36  1  0  0  0
 34 59  1  0  0  0
 34108  1  0  0  0
 35 44  2  0  0  0
 35 45  1  0  0  0
 35 68  1  0  0  0
 36 56  1  0  0  0
 36109  1  0  0  0
 37 39  1  0  0  0
 37 47  1  0  0  0
 37 66  1  0  0  0
 37110  1  0  0  0
 38 43  2  0  0  0
 38 46  1  0  0  0
 38 47  1  0  0  0
 39 64  1  0  0  0
 39 67  2  0  0  0
 40 52  1  0  0  0
 40 53  2  0  0  0
 40 58  1  0  0  0
 41111  1  0  0  0
 41112  1  0  0  0
 41113  1  0  0  0
 41 48  1  0  0  0
 42 43  1  0  0  0
 42 66  1  0  0  0
 42114  1  0  0  0
 42115  1  0  0  0
 43 44  1  0  0  0
 44116  1  0  0  0
 45 46  2  0  0  0
 45117  1  0  0  0
 46118  1  0  0  0
 47119  1  0  0  0
 47120  1  0  0  0
 48 56  1  0  0  0
 48 65  1  0  0  0
 48121  1  0  0  0
 49 50  1  0  0  0
 49 53  1  0  0  0
 49 64  1  0  0  0
 49122  1  0  0  0
 50 51  1  0  0  0
 50123  1  0  0  0
 50124  1  0  0  0
 51 52  1  0  0  0
 51125  1  0  0  0
 51126  1  0  0  0
 52127  1  0  0  0
 52128  1  0  0  0
 53 54  1  0  0  0
 54 55  2  0  0  0
 54129  1  0  0  0
 55 57  1  0  0  0
 55130  1  0  0  0
 56 69  2  0  0  0
 57 58  2  0  0  0
 57131  1  0  0  0
 58132  1  0  0  0
 59 60  1  0  0  0
 59 61  1  0  0  0
 59 62  1  0  0  0
 60133  1  0  0  0
 60134  1  0  0  0
 60135  1  0  0  0
 61136  1  0  0  0
 61137  1  0  0  0
 61138  1  0  0  0
 62139  1  0  0  0
 62140  1  0  0  0
 62141  1  0  0  0
 63 65  1  0  0  0
 63142  1  0  0  0
 63143  1  0  0  0
 63144  1  0  0  0
 64145  1  0  0  0
 65146  1  0  0  0
 68 82  1  0  0  0
 71 72  2  0  0  0
 71 73  1  0  0  0
 71147  1  0  0  0
 72 78  1  0  0  0
 72 84  1  0  0  0
 73 83  2  0  0  0
 73 85  1  0  0  0
 74 76  1  0  0  0
 74 85  1  0  0  0
 74148  1  0  0  0
 74149  1  0  0  0
 75 77  1  0  0  0
 75 85  1  0  0  0
 75150  1  0  0  0
 75151  1  0  0  0
 76 86  1  0  0  0
 76152  1  0  0  0
 76153  1  0  0  0
 77 86  1  0  0  0
 77154  1  0  0  0
 77155  1  0  0  0
 78156  1  0  0  0
 78157  1  0  0  0
 78158  1  0  0  0
 79 80  1  0  0  0
 79 84  1  0  0  0
 79159  1  0  0  0
 79160  1  0  0  0
 80 87  1  0  0  0
 80161  1  0  0  0
 80162  1  0  0  0
 81 82  1  0  0  0
 81 87  1  0  0  0
 81163  1  0  0  0
 81164  1  0  0  0
 82165  1  0  0  0
 82166  1  0  0  0
 83 84  1  0  0  0
 87167  1  0  0  0
 87168  1  0  0  0
M  CHG  1  87   1
M  ISO  4   1 100  68 101  82 101  86 100
M  END
> <chiral flag>
0

> <version>
0

> <s_m_source_file>
/data/baiqing/PycharmProjects/Reinvent-master-3.2/result/LINK_invent/BTK/process_docking_weight1_custom_sum_contain_oxygen_bond_distance_aromatic_linkinvent_7_9_3/rearranged_h_0187.sdf

> <i_m_source_file_index>
52

> <r_mmod_Potential_Energy-OPLS-2005>
-110.409019470215

> <r_mmod_Stretch_Energy-OPLS-2005>
32.1428833007812

> <r_mmod_Bend_Energy-OPLS-2005>
96.9722442626953

> <r_mmod_Torsional_Energy-OPLS-2005>
387.288177490234

> <r_mmod_Improper_Torsional_Energy-OPLS-2005>
17.1222076416016

> <r_mmod_Van_der_Waal_Energy-OPLS-2005>
137.577621459961

> <r_mmod_Electrostatic_Energy-OPLS-2005>
-331.667846679688

> <r_mmod_Solvation_Energy-OPLS-2005>
-460.883026123047

> <b_mmod_Minimization_Converged-OPLS-2005>
0

> <r_mmod_RMS_Derivative-OPLS-2005>
3.91163635253906

$$$$
52
                    3D
 Structure written by MMmdl.
167176  0  0  1  0            999 V2000
  -30.6991  -14.4946   20.5401 C   0  0  0  0  0  0
  -30.4205  -12.3132   19.4279 C   0  0  0  0  0  0
  -29.4946  -12.4972   18.2073 C   0  0  0  0  0  0
  -28.0142  -12.3622   18.6180 C   0  0  0  0  0  0
  -27.6578  -13.2061   19.8722 C   0  0  2  0  0  0
  -28.7018  -12.9905   20.9895 C   0  0  0  0  0  0
  -25.2587  -13.8158   20.5685 C   0  0  0  0  0  0
  -24.1835  -13.0440   20.9178 C   0  0  0  0  0  0
  -24.6386  -11.6905   20.8744 C   0  0  0  0  0  0
  -23.9050  -10.4294   21.0412 C   0  0  0  0  0  0
  -24.3610   -9.4210   21.9182 C   0  0  0  0  0  0
  -23.6294   -8.2242   22.0750 C   0  0  0  0  0  0
  -22.4274   -8.0279   21.3541 C   0  0  0  0  0  0
  -21.9903   -9.0251   20.4644 C   0  0  0  0  0  0
  -22.7226  -10.2135   20.3058 C   0  0  0  0  0  0
  -21.6853   -6.0735   22.5281 C   0  0  0  0  0  0
  -21.4010   -6.5638   23.8214 C   0  0  0  0  0  0
  -21.3661   -5.6792   24.9175 C   0  0  0  0  0  0
  -21.6050   -4.3055   24.7225 C   0  0  0  0  0  0
  -21.8820   -3.8145   23.4346 C   0  0  0  0  0  0
  -21.9192   -4.6963   22.3402 C   0  0  0  0  0  0
  -22.7861  -13.5244   21.1839 C   0  0  0  0  0  0
  -22.1662   -4.2154   21.0979 F   0  0  0  0  0  0
  -21.5633   -3.4535   25.7734 F   0  0  0  0  0  0
  -30.0214  -13.3158   20.4301 N   0  0  0  0  0  0
  -26.3013  -12.9321   20.3369 N   0  0  0  0  0  0
  -25.9311  -11.6484   20.5772 N   0  0  0  0  0  0
  -22.0501  -12.8243   22.0403 N   0  0  0  0  0  0
  -25.4315  -15.1873   20.4082 N   0  0  0  0  0  0
  -31.8696  -14.5982   20.1555 O   0  0  0  0  0  0
  -21.6641   -6.8874   21.4240 O   0  0  0  0  0  0
  -22.3547  -14.5551   20.6687 O   0  0  0  0  0  0
  -24.6126  -31.8689   23.2131 C   0  0  0  0  0  0
  -25.9024  -32.4828   23.8416 C   0  0  1  0  0  0
  -27.2342  -27.4475   20.0982 C   0  0  0  0  0  0
  -25.5884  -33.8628   24.2344 N   0  0  0  0  0  0
  -23.4011  -30.4927   21.5518 C   0  0  2  0  0  0
  -24.8507  -28.9594   20.1183 C   0  0  0  0  0  0
  -22.7400  -29.4662   22.4996 C   0  0  0  0  0  0
  -18.0268  -28.1381   22.8494 C   0  0  0  0  0  0
  -24.1483  -36.7327   23.2644 C   0  0  0  0  0  0
  -25.9291  -30.8357   21.3695 C   0  0  0  0  0  0
  -26.0078  -29.4685   20.7241 C   0  0  0  0  0  0
  -27.2042  -28.7154   20.7239 C   0  0  0  0  0  0
  -26.0686  -26.9555   19.4816 C   0  0  0  0  0  0
  -24.8737  -27.6983   19.4978 C   0  0  0  0  0  0
  -23.6118  -29.8252   20.1663 C   0  0  0  0  0  0
  -25.4101  -36.3120   24.0345 C   0  0  1  0  0  0
  -20.5857  -28.3663   23.1321 C   0  0  2  0  0  0
  -20.6758  -26.9400   22.5418 C   0  0  0  0  0  0
  -19.5743  -26.6390   21.5209 C   0  0  0  0  0  0
  -18.1919  -26.7930   22.1619 C   0  0  0  0  0  0
  -19.1517  -28.8838   23.2908 C   0  0  0  0  0  0
  -18.9448  -30.1442   23.8921 C   0  0  0  0  0  0
  -17.6453  -30.6590   24.0567 C   0  0  0  0  0  0
  -25.9026  -34.9481   23.5142 C   0  0  0  0  0  0
  -16.5342  -29.9095   23.6325 C   0  0  0  0  0  0
  -16.7257  -28.6510   23.0347 C   0  0  0  0  0  0
  -26.4464  -31.6596   25.0730 C   0  0  0  0  0  0
  -25.3741  -31.3709   26.1488 C   0  0  0  0  0  0
  -27.0291  -30.3037   24.6106 C   0  0  0  0  0  0
  -27.6043  -32.4317   25.7482 C   0  0  0  0  0  0
  -27.5579  -37.1817   24.8462 C   0  0  0  0  0  0
  -21.4128  -29.3035   22.3730 N   0  0  0  0  0  0
  -26.4292  -37.3798   23.9407 N   0  0  0  0  0  0
  -24.6649  -31.0806   22.1029 N   0  0  0  0  0  0
  -23.4173  -28.8201   23.3035 O   0  0  0  0  0  0
  -28.3600  -26.6628   20.0259 O   0  0  0  0  0  0
  -26.5590  -34.8928   22.4705 O   0  0  0  0  0  0
  -23.5321  -32.1434   23.7533 O   0  0  0  0  0  0
  -28.1890  -20.3599   22.2367 C   0  0  0  0  0  0
  -29.6212  -20.7877   20.3572 C   0  0  0  0  0  0
  -29.0001  -19.8332   21.2035 C   0  0  0  0  0  0
  -28.0265  -21.7563   22.3763 C   0  0  0  0  0  0
  -28.6830  -22.6065   21.4572 C   0  0  0  0  0  0
  -29.1976  -17.8470   19.6924 C   0  0  0  0  0  0
  -29.3737  -17.5480   22.1802 C   0  0  0  0  0  0
  -30.2109  -16.6938   19.6287 C   0  0  0  0  0  0
  -29.2169  -16.0433   21.8276 C   0  0  0  0  0  0
  -30.6866  -24.7998   22.3032 C   0  0  0  0  0  0
  -27.8965  -22.9559   24.4065 C   0  0  0  0  0  0
  -29.0417  -26.4069   21.2488 C   0  0  0  0  0  0
  -29.5623  -24.9445   21.2612 C   0  0  2  0  0  0
  -29.4750  -22.1299   20.4768 N   0  0  0  0  0  0
  -29.1700  -18.4340   21.0290 N   0  0  0  0  0  0
  -29.9340  -15.6190   20.6055 N   0  0  0  0  0  0
  -28.4767  -23.9931   21.5251 N   0  0  0  0  0  0
  -27.2183  -22.2373   23.3800 O   0  0  0  0  0  0
  -31.4649  -12.4067   19.1248 H   0  0  0  0  0  0
  -30.3221  -11.3066   19.8374 H   0  0  0  0  0  0
  -29.7361  -11.7634   17.4370 H   0  0  0  0  0  0
  -29.6632  -13.4778   17.7587 H   0  0  0  0  0  0
  -27.8238  -11.3068   18.8171 H   0  0  0  0  0  0
  -27.3659  -12.6352   17.7848 H   0  0  0  0  0  0
  -27.6969  -14.2528   19.5707 H   0  0  0  0  0  0
  -28.6883  -11.9509   21.3206 H   0  0  0  0  0  0
  -28.4624  -13.5696   21.8781 H   0  0  0  0  0  0
  -25.2758   -9.5694   22.4752 H   0  0  0  0  0  0
  -24.0012   -7.4633   22.7469 H   0  0  0  0  0  0
  -21.0833   -8.8771   19.8950 H   0  0  0  0  0  0
  -22.3684  -10.9676   19.6172 H   0  0  0  0  0  0
  -21.1998   -7.6146   23.9718 H   0  0  0  0  0  0
  -21.1486   -6.0520   25.9081 H   0  0  0  0  0  0
  -22.0597   -2.7608   23.2844 H   0  0  0  0  0  0
  -22.4106  -11.9915   22.4813 H   0  0  0  0  0  0
  -21.1121  -13.1282   22.2598 H   0  0  0  0  0  0
  -24.6686  -15.8458   20.5188 H   0  0  0  0  0  0
  -26.2924  -15.6246   20.1052 H   0  0  0  0  0  0
  -26.7097  -32.5558   23.1189 H   0  0  0  0  0  0
  -25.0019  -33.9794   25.0476 H   0  0  0  0  0  0
  -22.6894  -31.3091   21.4125 H   0  0  0  0  0  0
  -23.3734  -35.9669   23.3321 H   0  0  0  0  0  0
  -24.3581  -36.8926   22.2057 H   0  0  0  0  0  0
  -23.7245  -37.6541   23.6647 H   0  0  0  0  0  0
  -26.0418  -31.5990   20.5985 H   0  0  0  0  0  0
  -26.8170  -30.8915   21.9874 H   0  0  0  0  0  0
  -28.0974  -29.1106   21.1872 H   0  0  0  0  0  0
  -26.0875  -25.9901   18.9957 H   0  0  0  0  0  0
  -23.9858  -27.3005   19.0259 H   0  0  0  0  0  0
  -23.7213  -30.5999   19.4067 H   0  0  0  0  0  0
  -22.7369  -29.2443   19.8685 H   0  0  0  0  0  0
  -25.1277  -36.1992   25.0839 H   0  0  0  0  0  0
  -20.9946  -28.3221   24.1442 H   0  0  0  0  0  0
  -20.5655  -26.2269   23.3600 H   0  0  0  0  0  0
  -21.6631  -26.7446   22.1210 H   0  0  0  0  0  0
  -19.6902  -25.6304   21.1228 H   0  0  0  0  0  0
  -19.6686  -27.3211   20.6746 H   0  0  0  0  0  0
  -17.4186  -26.6681   21.4019 H   0  0  0  0  0  0
  -18.0322  -26.0069   22.9014 H   0  0  0  0  0  0
  -19.7925  -30.7246   24.2305 H   0  0  0  0  0  0
  -17.5013  -31.6270   24.5167 H   0  0  0  0  0  0
  -15.5347  -30.3008   23.7643 H   0  0  0  0  0  0
  -15.8652  -28.0839   22.7054 H   0  0  0  0  0  0
  -24.5881  -30.7095   25.7829 H   0  0  0  0  0  0
  -24.8971  -32.2874   26.4969 H   0  0  0  0  0  0
  -25.8094  -30.8848   27.0225 H   0  0  0  0  0  0
  -26.2831  -29.6803   24.1160 H   0  0  0  0  0  0
  -27.4053  -29.7274   25.4570 H   0  0  0  0  0  0
  -27.8677  -30.4353   23.9263 H   0  0  0  0  0  0
  -27.2650  -33.3588   26.2121 H   0  0  0  0  0  0
  -28.3809  -32.6925   25.0281 H   0  0  0  0  0  0
  -28.0759  -31.8418   26.5353 H   0  0  0  0  0  0
  -28.2600  -38.0109   24.7493 H   0  0  0  0  0  0
  -28.1071  -36.2640   24.6300 H   0  0  0  0  0  0
  -27.2303  -37.1484   25.8868 H   0  0  0  0  0  0
  -20.9285  -29.8761   21.6958 H   0  0  0  0  0  0
  -26.0188  -38.2885   24.1391 H   0  0  0  0  0  0
  -27.6699  -19.7056   22.9206 H   0  0  0  0  0  0
  -30.2757  -20.4758   19.5573 H   0  0  0  0  0  0
  -28.1999  -17.4762   19.4514 H   0  0  0  0  0  0
  -29.4374  -18.5804   18.9227 H   0  0  0  0  0  0
  -30.3781  -17.7229   22.5700 H   0  0  0  0  0  0
  -28.6863  -17.7895   22.9913 H   0  0  0  0  0  0
  -31.2171  -17.0875   19.7869 H   0  0  0  0  0  0
  -30.1988  -16.2713   18.6215 H   0  0  0  0  0  0
  -28.1574  -15.8318   21.6797 H   0  0  0  0  0  0
  -29.5339  -15.4482   22.6864 H   0  0  0  0  0  0
  -31.5095  -25.4798   22.0798 H   0  0  0  0  0  0
  -31.1033  -23.7926   22.3151 H   0  0  0  0  0  0
  -30.3347  -25.0307   23.3093 H   0  0  0  0  0  0
  -27.3620  -22.8329   25.3483 H   0  0  0  0  0  0
  -27.9278  -24.0231   24.1885 H   0  0  0  0  0  0
  -28.9183  -22.6029   24.5576 H   0  0  0  0  0  0
  -29.8762  -27.1076   21.3020 H   0  0  0  0  0  0
  -28.4177  -26.5971   22.1246 H   0  0  0  0  0  0
  -29.9849  -24.7266   20.2796 H   0  0  0  0  0  0
  -27.7896  -24.2805   22.2112 H   0  0  0  0  0  0
  1 25  1  0  0  0
  1 30  2  0  0  0
  1 86  1  0  0  0
  2  3  1  0  0  0
  2 25  1  0  0  0
  2 89  1  0  0  0
  2 90  1  0  0  0
  3  4  1  0  0  0
  3 91  1  0  0  0
  3 92  1  0  0  0
  4  5  1  0  0  0
  4 93  1  0  0  0
  4 94  1  0  0  0
  5  6  1  0  0  0
  5 26  1  0  0  0
  5 95  1  0  0  0
  6 25  1  0  0  0
  6 96  1  0  0  0
  6 97  1  0  0  0
  7  8  2  0  0  0
  7 26  1  0  0  0
  7 29  1  0  0  0
  8  9  1  0  0  0
  8 22  1  0  0  0
  9 10  1  0  0  0
  9 27  2  0  0  0
 10 11  2  0  0  0
 10 15  1  0  0  0
 11 12  1  0  0  0
 11 98  1  0  0  0
 12 13  2  0  0  0
 12 99  1  0  0  0
 13 14  1  0  0  0
 13 31  1  0  0  0
 14 15  2  0  0  0
 14100  1  0  0  0
 15101  1  0  0  0
 16 17  2  0  0  0
 16 21  1  0  0  0
 16 31  1  0  0  0
 17 18  1  0  0  0
 17102  1  0  0  0
 18 19  2  0  0  0
 18103  1  0  0  0
 19 20  1  0  0  0
 19 24  1  0  0  0
 20 21  2  0  0  0
 20104  1  0  0  0
 21 23  1  0  0  0
 22 28  1  0  0  0
 22 32  2  0  0  0
 26 27  1  0  0  0
 28105  1  0  0  0
 28106  1  0  0  0
 29107  1  0  0  0
 29108  1  0  0  0
 33 34  1  0  0  0
 33 66  1  0  0  0
 33 70  2  0  0  0
 34 36  1  0  0  0
 34 59  1  0  0  0
 34109  1  0  0  0
 35 44  2  0  0  0
 35 45  1  0  0  0
 35 68  1  0  0  0
 36 56  1  0  0  0
 36110  1  0  0  0
 37 39  1  0  0  0
 37 47  1  0  0  0
 37 66  1  0  0  0
 37111  1  0  0  0
 38 43  2  0  0  0
 38 46  1  0  0  0
 38 47  1  0  0  0
 39 64  1  0  0  0
 39 67  2  0  0  0
 40 52  1  0  0  0
 40 53  2  0  0  0
 40 58  1  0  0  0
 41112  1  0  0  0
 41113  1  0  0  0
 41114  1  0  0  0
 41 48  1  0  0  0
 42 43  1  0  0  0
 42 66  1  0  0  0
 42115  1  0  0  0
 42116  1  0  0  0
 43 44  1  0  0  0
 44117  1  0  0  0
 45 46  2  0  0  0
 45118  1  0  0  0
 46119  1  0  0  0
 47120  1  0  0  0
 47121  1  0  0  0
 48 56  1  0  0  0
 48 65  1  0  0  0
 48122  1  0  0  0
 49 50  1  0  0  0
 49 53  1  0  0  0
 49 64  1  0  0  0
 49123  1  0  0  0
 50 51  1  0  0  0
 50124  1  0  0  0
 50125  1  0  0  0
 51 52  1  0  0  0
 51126  1  0  0  0
 51127  1  0  0  0
 52128  1  0  0  0
 52129  1  0  0  0
 53 54  1  0  0  0
 54 55  2  0  0  0
 54130  1  0  0  0
 55 57  1  0  0  0
 55131  1  0  0  0
 56 69  2  0  0  0
 57 58  2  0  0  0
 57132  1  0  0  0
 58133  1  0  0  0
 59 60  1  0  0  0
 59 61  1  0  0  0
 59 62  1  0  0  0
 60134  1  0  0  0
 60135  1  0  0  0
 60136  1  0  0  0
 61137  1  0  0  0
 61138  1  0  0  0
 61139  1  0  0  0
 62140  1  0  0  0
 62141  1  0  0  0
 62142  1  0  0  0
 63 65  1  0  0  0
 63143  1  0  0  0
 63144  1  0  0  0
 63145  1  0  0  0
 64146  1  0  0  0
 65147  1  0  0  0
 68 82  1  0  0  0
 71 73  2  0  0  0
 71 74  1  0  0  0
 71148  1  0  0  0
 72 73  1  0  0  0
 72 84  2  0  0  0
 72149  1  0  0  0
 73 85  1  0  0  0
 74 75  2  0  0  0
 74 88  1  0  0  0
 75 84  1  0  0  0
 75 87  1  0  0  0
 76 78  1  0  0  0
 76 85  1  0  0  0
 76150  1  0  0  0
 76151  1  0  0  0
 77 79  1  0  0  0
 77 85  1  0  0  0
 77152  1  0  0  0
 77153  1  0  0  0
 78 86  1  0  0  0
 78154  1  0  0  0
 78155  1  0  0  0
 79 86  1  0  0  0
 79156  1  0  0  0
 79157  1  0  0  0
 80158  1  0  0  0
 80159  1  0  0  0
 80160  1  0  0  0
 80 83  1  0  0  0
 81 88  1  0  0  0
 81161  1  0  0  0
 81162  1  0  0  0
 81163  1  0  0  0
 82 83  1  0  0  0
 82164  1  0  0  0
 82165  1  0  0  0
 83 87  1  0  0  0
 83166  1  0  0  0
 87167  1  0  0  0
M  ISO  4   1 100  68 101  82 101  86 100
M  END
> <chiral flag>
0

> <version>
0

> <s_m_source_file>
/data/baiqing/PycharmProjects/Reinvent-master-3.2/result/LINK_invent/BTK/process_docking_weight1_custom_sum_contain_oxygen_bond_distance_aromatic_linkinvent_7_9_3/rearranged_h_0187.sdf

> <i_m_source_file_index>
53

> <r_mmod_Potential_Energy-OPLS-2005>
92.4121398925781

> <r_mmod_Stretch_Energy-OPLS-2005>
41.0289268493652

> <r_mmod_Bend_Energy-OPLS-2005>
125.083282470703

> <r_mmod_Torsional_Energy-OPLS-2005>
398.222015380859

> <r_mmod_Improper_Torsional_Energy-OPLS-2005>
18.8879718780518

> <r_mmod_Van_der_Waal_Energy-OPLS-2005>
163.353622436523

> <r_mmod_Electrostatic_Energy-OPLS-2005>
-437.391845703125

> <r_mmod_Solvation_Energy-OPLS-2005>
-232.329406738281

> <b_mmod_Minimization_Converged-OPLS-2005>
0

> <r_mmod_RMS_Derivative-OPLS-2005>
0.858199536800385

$$$$
53
                    3D
 Structure written by MMmdl.
157166  0  0  1  0            999 V2000
  -30.5598  -15.0407   20.4050 C   0  0  0  0  0  0
  -30.4324  -12.6561   19.4948 C   0  0  0  0  0  0
  -29.5191  -12.5499   18.2526 C   0  0  0  0  0  0
  -28.0609  -12.3104   18.6818 C   0  0  0  0  0  0
  -27.6250  -13.2564   19.8316 C   0  0  2  0  0  0
  -28.6710  -13.3380   20.9649 C   0  0  0  0  0  0
  -25.2455  -13.8209   20.5684 C   0  0  0  0  0  0
  -24.1783  -13.0433   20.9233 C   0  0  0  0  0  0
  -24.6404  -11.6926   20.8766 C   0  0  0  0  0  0
  -23.9076  -10.4306   21.0416 C   0  0  0  0  0  0
  -24.3611   -9.4220   21.9186 C   0  0  0  0  0  0
  -23.6293   -8.2255   22.0760 C   0  0  0  0  0  0
  -22.4287   -8.0283   21.3531 C   0  0  0  0  0  0
  -21.9927   -9.0251   20.4632 C   0  0  0  0  0  0
  -22.7253  -10.2134   20.3054 C   0  0  0  0  0  0
  -21.6868   -6.0731   22.5283 C   0  0  0  0  0  0
  -21.4013   -6.5633   23.8216 C   0  0  0  0  0  0
  -21.3669   -5.6785   24.9180 C   0  0  0  0  0  0
  -21.6054   -4.3041   24.7236 C   0  0  0  0  0  0
  -21.8818   -3.8142   23.4362 C   0  0  0  0  0  0
  -21.9206   -4.6963   22.3414 C   0  0  0  0  0  0
  -22.7809  -13.5209   21.1867 C   0  0  0  0  0  0
  -22.1673   -4.2148   21.0989 F   0  0  0  0  0  0
  -21.5632   -3.4522   25.7750 F   0  0  0  0  0  0
  -29.9267  -13.7856   20.3454 N   0  0  0  0  0  0
  -26.2889  -12.9455   20.3255 N   0  0  0  0  0  0
  -25.9339  -11.6573   20.5729 N   0  0  0  0  0  0
  -22.0449  -12.8208   22.0407 N   0  0  0  0  0  0
  -25.4139  -15.1917   20.3987 N   0  0  0  0  0  0
  -31.7625  -15.0251   20.1187 O   0  0  0  0  0  0
  -21.6650   -6.8873   21.4244 O   0  0  0  0  0  0
  -22.3501  -14.5524   20.6719 O   0  0  0  0  0  0
  -24.6506  -31.8372   23.1806 C   0  0  0  0  0  0
  -25.9245  -32.4682   23.8228 C   0  0  1  0  0  0
  -27.2218  -27.0621   20.1547 C   0  0  0  0  0  0
  -25.5965  -33.8482   24.2164 N   0  0  0  0  0  0
  -23.4580  -30.4513   21.5319 C   0  0  2  0  0  0
  -24.9074  -28.8657   20.1111 C   0  0  0  0  0  0
  -22.7599  -29.4514   22.4875 C   0  0  0  0  0  0
  -18.0288  -28.1424   22.8479 C   0  0  0  0  0  0
  -24.1502  -36.7230   23.2642 C   0  0  0  0  0  0
  -26.0175  -30.6895   21.3861 C   0  0  0  0  0  0
  -26.0896  -29.2910   20.7314 C   0  0  0  0  0  0
  -27.2458  -28.4083   20.7292 C   0  0  0  0  0  0
  -26.0062  -26.7565   19.5003 C   0  0  0  0  0  0
  -24.8841  -27.6134   19.4797 C   0  0  0  0  0  0
  -23.6868  -29.7756   20.1537 C   0  0  0  0  0  0
  -25.4146  -36.3033   24.0309 C   0  0  1  0  0  0
  -20.5907  -28.3761   23.1235 C   0  0  2  0  0  0
  -20.6788  -26.9463   22.5412 C   0  0  0  0  0  0
  -19.5764  -26.6412   21.5218 C   0  0  0  0  0  0
  -18.1933  -26.7962   22.1618 C   0  0  0  0  0  0
  -19.1547  -28.8912   23.2844 C   0  0  0  0  0  0
  -18.9468  -30.1499   23.8883 C   0  0  0  0  0  0
  -17.6466  -30.6623   24.0554 C   0  0  0  0  0  0
  -25.9099  -34.9405   23.5054 C   0  0  0  0  0  0
  -16.5355  -29.9119   23.6342 C   0  0  0  0  0  0
  -16.7273  -28.6525   23.0375 C   0  0  0  0  0  0
  -26.4536  -31.6545   25.0686 C   0  0  0  0  0  0
  -25.3710  -31.3685   26.1372 C   0  0  0  0  0  0
  -27.0382  -30.2951   24.6254 C   0  0  0  0  0  0
  -27.6114  -32.4247   25.7454 C   0  0  0  0  0  0
  -27.5582  -37.1779   24.8466 C   0  0  0  0  0  0
  -21.4285  -29.3060   22.3606 N   0  0  0  0  0  0
  -26.4305  -37.3755   23.9406 N   0  0  0  0  0  0
  -24.7305  -31.0141   22.0898 N   0  0  0  0  0  0
  -23.4201  -28.8075   23.3071 O   0  0  0  0  0  0
  -28.2584  -26.0321   20.2112 O   0  0  0  0  0  0
  -26.5693  -34.8901   22.4646 O   0  0  0  0  0  0
  -23.5609  -32.1287   23.6988 O   0  0  0  0  0  0
  -30.3719  -23.4428   20.1932 C   0  0  0  0  0  0
  -29.6386  -20.6841   20.2445 C   0  0  0  0  0  0
  -28.9945  -23.1670   20.2034 C   0  0  0  0  0  0
  -30.9920  -21.1550   20.1918 C   0  0  0  0  0  0
  -28.7899  -18.3416   21.5466 C   0  0  0  0  0  0
  -28.8261  -16.7547   21.3902 C   0  0  0  0  0  0
  -30.3162  -17.7292   19.9120 C   0  0  0  0  0  0
  -29.3034  -19.0140   20.2530 C   0  0  2  0  0  0
  -33.3610  -20.7357   19.5708 C   0  0  0  0  0  0
  -27.9408  -24.4737   20.1078 C   0  0  0  0  0  0
  -31.3241  -22.4750   20.1854 N   0  0  0  0  0  0
  -28.6618  -21.7550   20.2320 N   0  0  0  0  0  0
  -29.8719  -16.3229   20.4380 N   0  0  0  0  0  0
  -32.0877  -20.2827   20.1345 N   0  0  0  0  0  0
  -31.4650  -12.8034   19.1754 H   0  0  0  0  0  0
  -30.4340  -11.7190   20.0516 H   0  0  0  0  0  0
  -29.8496  -11.7460   17.5945 H   0  0  0  0  0  0
  -29.5850  -13.4728   17.6737 H   0  0  0  0  0  0
  -27.9872  -11.2722   19.0118 H   0  0  0  0  0  0
  -27.3905  -12.4065   17.8271 H   0  0  0  0  0  0
  -27.5695  -14.2455   19.3753 H   0  0  0  0  0  0
  -28.7911  -12.3721   21.4573 H   0  0  0  0  0  0
  -28.3474  -14.0371   21.7354 H   0  0  0  0  0  0
  -25.2748   -9.5700   22.4754 H   0  0  0  0  0  0
  -24.0013   -7.4645   22.7469 H   0  0  0  0  0  0
  -21.0870   -8.8750   19.8910 H   0  0  0  0  0  0
  -22.3713  -10.9657   19.6150 H   0  0  0  0  0  0
  -21.1985   -7.6136   23.9709 H   0  0  0  0  0  0
  -21.1495   -6.0516   25.9073 H   0  0  0  0  0  0
  -22.0593   -2.7605   23.2863 H   0  0  0  0  0  0
  -22.4059  -11.9889   22.4838 H   0  0  0  0  0  0
  -21.1052  -13.1206   22.2533 H   0  0  0  0  0  0
  -24.6406  -15.8433   20.4668 H   0  0  0  0  0  0
  -26.2487  -15.6112   20.0110 H   0  0  0  0  0  0
  -26.7310  -32.5280   23.0948 H   0  0  0  0  0  0
  -25.0067  -33.9594   25.0273 H   0  0  0  0  0  0
  -22.7651  -31.2800   21.3719 H   0  0  0  0  0  0
  -23.3809  -35.9513   23.3271 H   0  0  0  0  0  0
  -24.3579  -36.8904   22.2065 H   0  0  0  0  0  0
  -23.7205  -37.6387   23.6700 H   0  0  0  0  0  0
  -26.1695  -31.4401   20.6076 H   0  0  0  0  0  0
  -26.8892  -30.7527   22.0263 H   0  0  0  0  0  0
  -28.1473  -28.7318   21.2298 H   0  0  0  0  0  0
  -25.8836  -25.8034   19.0101 H   0  0  0  0  0  0
  -23.9827  -27.2826   18.9825 H   0  0  0  0  0  0
  -23.8249  -30.5474   19.3959 H   0  0  0  0  0  0
  -22.8018  -29.2189   19.8451 H   0  0  0  0  0  0
  -25.1342  -36.1860   25.0800 H   0  0  0  0  0  0
  -20.9962  -28.3355   24.1368 H   0  0  0  0  0  0
  -20.5710  -26.2370   23.3634 H   0  0  0  0  0  0
  -21.6652  -26.7488   22.1201 H   0  0  0  0  0  0
  -19.6935  -25.6320   21.1273 H   0  0  0  0  0  0
  -19.6707  -27.3208   20.6737 H   0  0  0  0  0  0
  -17.4207  -26.6703   21.4010 H   0  0  0  0  0  0
  -18.0325  -26.0117   22.9026 H   0  0  0  0  0  0
  -19.7946  -30.7311   24.2267 H   0  0  0  0  0  0
  -17.5021  -31.6304   24.5160 H   0  0  0  0  0  0
  -15.5360  -30.3018   23.7689 H   0  0  0  0  0  0
  -15.8664  -28.0838   22.7135 H   0  0  0  0  0  0
  -24.5964  -30.6966   25.7641 H   0  0  0  0  0  0
  -24.8822  -32.2843   26.4731 H   0  0  0  0  0  0
  -25.8023  -30.8902   27.0190 H   0  0  0  0  0  0
  -26.2979  -29.6682   24.1297 H   0  0  0  0  0  0
  -27.4028  -29.7246   25.4798 H   0  0  0  0  0  0
  -27.8870  -30.4181   23.9532 H   0  0  0  0  0  0
  -27.2824  -33.3621   26.1938 H   0  0  0  0  0  0
  -28.3992  -32.6661   25.0303 H   0  0  0  0  0  0
  -28.0704  -31.8400   26.5440 H   0  0  0  0  0  0
  -28.2597  -38.0078   24.7561 H   0  0  0  0  0  0
  -28.1094  -36.2625   24.6271 H   0  0  0  0  0  0
  -27.2291  -37.1387   25.8861 H   0  0  0  0  0  0
  -20.9528  -29.8740   21.6735 H   0  0  0  0  0  0
  -26.0175  -38.2814   24.1435 H   0  0  0  0  0  0
  -30.7249  -24.4630   20.1665 H   0  0  0  0  0  0
  -29.4553  -18.6244   22.3604 H   0  0  0  0  0  0
  -27.7971  -18.7006   21.8204 H   0  0  0  0  0  0
  -27.8677  -16.3986   21.0174 H   0  0  0  0  0  0
  -28.9805  -16.2858   22.3645 H   0  0  0  0  0  0
  -31.2831  -17.8815   20.3862 H   0  0  0  0  0  0
  -30.5075  -17.6825   18.8385 H   0  0  0  0  0  0
  -28.4901  -18.9340   19.5320 H   0  0  0  0  0  0
  -34.0995  -19.9340   19.6022 H   0  0  0  0  0  0
  -33.7799  -21.5796   20.1232 H   0  0  0  0  0  0
  -33.2463  -21.0349   18.5278 H   0  0  0  0  0  0
  -27.1674  -24.2768   20.8497 H   0  0  0  0  0  0
  -27.4491  -24.3238   19.1485 H   0  0  0  0  0  0
  -31.8724  -19.2954   20.0383 H   0  0  0  0  0  0
  1 25  1  0  0  0
  1 30  2  0  0  0
  1 83  1  0  0  0
  2  3  1  0  0  0
  2 25  1  0  0  0
  2 85  1  0  0  0
  2 86  1  0  0  0
  3  4  1  0  0  0
  3 87  1  0  0  0
  3 88  1  0  0  0
  4  5  1  0  0  0
  4 89  1  0  0  0
  4 90  1  0  0  0
  5  6  1  0  0  0
  5 26  1  0  0  0
  5 91  1  0  0  0
  6 25  1  0  0  0
  6 92  1  0  0  0
  6 93  1  0  0  0
  7  8  2  0  0  0
  7 26  1  0  0  0
  7 29  1  0  0  0
  8  9  1  0  0  0
  8 22  1  0  0  0
  9 10  1  0  0  0
  9 27  2  0  0  0
 10 11  2  0  0  0
 10 15  1  0  0  0
 11 12  1  0  0  0
 11 94  1  0  0  0
 12 13  2  0  0  0
 12 95  1  0  0  0
 13 14  1  0  0  0
 13 31  1  0  0  0
 14 15  2  0  0  0
 14 96  1  0  0  0
 15 97  1  0  0  0
 16 17  2  0  0  0
 16 21  1  0  0  0
 16 31  1  0  0  0
 17 18  1  0  0  0
 17 98  1  0  0  0
 18 19  2  0  0  0
 18 99  1  0  0  0
 19 20  1  0  0  0
 19 24  1  0  0  0
 20 21  2  0  0  0
 20100  1  0  0  0
 21 23  1  0  0  0
 22 28  1  0  0  0
 22 32  2  0  0  0
 26 27  1  0  0  0
 28101  1  0  0  0
 28102  1  0  0  0
 29103  1  0  0  0
 29104  1  0  0  0
 33 34  1  0  0  0
 33 66  1  0  0  0
 33 70  2  0  0  0
 34 36  1  0  0  0
 34 59  1  0  0  0
 34105  1  0  0  0
 35 44  2  0  0  0
 35 45  1  0  0  0
 35 68  1  0  0  0
 36 56  1  0  0  0
 36106  1  0  0  0
 37 39  1  0  0  0
 37 47  1  0  0  0
 37 66  1  0  0  0
 37107  1  0  0  0
 38 43  2  0  0  0
 38 46  1  0  0  0
 38 47  1  0  0  0
 39 64  1  0  0  0
 39 67  2  0  0  0
 40 52  1  0  0  0
 40 53  2  0  0  0
 40 58  1  0  0  0
 41108  1  0  0  0
 41109  1  0  0  0
 41110  1  0  0  0
 41 48  1  0  0  0
 42 43  1  0  0  0
 42 66  1  0  0  0
 42111  1  0  0  0
 42112  1  0  0  0
 43 44  1  0  0  0
 44113  1  0  0  0
 45 46  2  0  0  0
 45114  1  0  0  0
 46115  1  0  0  0
 47116  1  0  0  0
 47117  1  0  0  0
 48 56  1  0  0  0
 48 65  1  0  0  0
 48118  1  0  0  0
 49 50  1  0  0  0
 49 53  1  0  0  0
 49 64  1  0  0  0
 49119  1  0  0  0
 50 51  1  0  0  0
 50120  1  0  0  0
 50121  1  0  0  0
 51 52  1  0  0  0
 51122  1  0  0  0
 51123  1  0  0  0
 52124  1  0  0  0
 52125  1  0  0  0
 53 54  1  0  0  0
 54 55  2  0  0  0
 54126  1  0  0  0
 55 57  1  0  0  0
 55127  1  0  0  0
 56 69  2  0  0  0
 57 58  2  0  0  0
 57128  1  0  0  0
 58129  1  0  0  0
 59 60  1  0  0  0
 59 61  1  0  0  0
 59 62  1  0  0  0
 60130  1  0  0  0
 60131  1  0  0  0
 60132  1  0  0  0
 61133  1  0  0  0
 61134  1  0  0  0
 61135  1  0  0  0
 62136  1  0  0  0
 62137  1  0  0  0
 62138  1  0  0  0
 63 65  1  0  0  0
 63139  1  0  0  0
 63140  1  0  0  0
 63141  1  0  0  0
 64142  1  0  0  0
 65143  1  0  0  0
 68 80  1  0  0  0
 71 73  2  0  0  0
 71 81  1  0  0  0
 71144  1  0  0  0
 72 74  1  0  0  0
 72 82  2  0  0  0
 72 78  1  0  0  0
 73 80  1  0  0  0
 73 82  1  0  0  0
 74 81  2  0  0  0
 74 84  1  0  0  0
 75 76  1  0  0  0
 75 78  1  0  0  0
 75145  1  0  0  0
 75146  1  0  0  0
 76 83  1  0  0  0
 76147  1  0  0  0
 76148  1  0  0  0
 77 78  1  0  0  0
 77 83  1  0  0  0
 77149  1  0  0  0
 77150  1  0  0  0
 78151  1  0  0  0
 79 84  1  0  0  0
 79152  1  0  0  0
 79153  1  0  0  0
 79154  1  0  0  0
 80155  1  0  0  0
 80156  1  0  0  0
 84157  1  0  0  0
M  ISO  4   1 100  68 101  80 101  83 100
M  END
> <chiral flag>
0

> <version>
0

> <s_m_source_file>
/data/baiqing/PycharmProjects/Reinvent-master-3.2/result/LINK_invent/BTK/process_docking_weight1_custom_sum_contain_oxygen_bond_distance_aromatic_linkinvent_7_9_3/rearranged_h_0187.sdf

> <i_m_source_file_index>
54

> <r_mmod_Potential_Energy-OPLS-2005>
937.287536621094

> <r_mmod_Stretch_Energy-OPLS-2005>
345.425659179688

> <r_mmod_Bend_Energy-OPLS-2005>
342.825958251953

> <r_mmod_Torsional_Energy-OPLS-2005>
299.980712890625

> <r_mmod_Improper_Torsional_Energy-OPLS-2005>
12.689395904541

> <r_mmod_Van_der_Waal_Energy-OPLS-2005>
131.647094726562

> <r_mmod_Electrostatic_Energy-OPLS-2005>
-218.59602355957

> <r_mmod_Solvation_Energy-OPLS-2005>
-234.720260620117

> <b_mmod_Minimization_Converged-OPLS-2005>
0

> <r_mmod_RMS_Derivative-OPLS-2005>
3.12924671173096

$$$$
54
                    3D
 Structure written by MMmdl.
156165  0  0  1  0            999 V2000
  -30.4700  -15.1596   20.4012 C   0  0  0  0  0  0
  -30.4456  -12.7341   19.5247 C   0  0  0  0  0  0
  -29.5379  -12.5562   18.2826 C   0  0  0  0  0  0
  -28.0803  -12.2979   18.7053 C   0  0  0  0  0  0
  -27.6204  -13.2628   19.8281 C   0  0  2  0  0  0
  -28.6554  -13.3884   20.9660 C   0  0  0  0  0  0
  -25.2435  -13.8226   20.5729 C   0  0  0  0  0  0
  -24.1769  -13.0429   20.9243 C   0  0  0  0  0  0
  -24.6405  -11.6921   20.8755 C   0  0  0  0  0  0
  -23.9090  -10.4294   21.0405 C   0  0  0  0  0  0
  -24.3638   -9.4203   21.9175 C   0  0  0  0  0  0
  -23.6306   -8.2241   22.0745 C   0  0  0  0  0  0
  -22.4278   -8.0289   21.3542 C   0  0  0  0  0  0
  -21.9929   -9.0261   20.4634 C   0  0  0  0  0  0
  -22.7268  -10.2135   20.3043 C   0  0  0  0  0  0
  -21.6855   -6.0738   22.5285 C   0  0  0  0  0  0
  -21.4011   -6.5636   23.8216 C   0  0  0  0  0  0
  -21.3660   -5.6787   24.9178 C   0  0  0  0  0  0
  -21.6041   -4.3051   24.7222 C   0  0  0  0  0  0
  -21.8826   -3.8146   23.4342 C   0  0  0  0  0  0
  -21.9193   -4.6968   22.3404 C   0  0  0  0  0  0
  -22.7789  -13.5205   21.1896 C   0  0  0  0  0  0
  -22.1664   -4.2154   21.0980 F   0  0  0  0  0  0
  -21.5630   -3.4537   25.7734 F   0  0  0  0  0  0
  -29.9033  -13.8653   20.3535 N   0  0  0  0  0  0
  -26.2855  -12.9482   20.3213 N   0  0  0  0  0  0
  -25.9339  -11.6598   20.5704 N   0  0  0  0  0  0
  -22.0437  -12.8180   22.0438 N   0  0  0  0  0  0
  -25.4095  -15.1962   20.4188 N   0  0  0  0  0  0
  -31.6814  -15.1992   20.1525 O   0  0  0  0  0  0
  -21.6639   -6.8882   21.4242 O   0  0  0  0  0  0
  -22.3469  -14.5510   20.6742 O   0  0  0  0  0  0
  -24.6567  -31.8318   23.1778 C   0  0  0  0  0  0
  -25.9273  -32.4646   23.8215 C   0  0  1  0  0  0
  -27.2203  -26.9866   20.1906 C   0  0  0  0  0  0
  -25.5960  -33.8452   24.2133 N   0  0  0  0  0  0
  -23.4682  -30.4453   21.5268 C   0  0  2  0  0  0
  -24.9223  -28.8400   20.1208 C   0  0  0  0  0  0
  -22.7633  -29.4484   22.4828 C   0  0  0  0  0  0
  -18.0313  -28.1436   22.8504 C   0  0  0  0  0  0
  -24.1460  -36.7211   23.2646 C   0  0  0  0  0  0
  -26.0319  -30.6559   21.4005 C   0  0  0  0  0  0
  -26.1015  -29.2481   20.7562 C   0  0  0  0  0  0
  -27.2471  -28.3394   20.7743 C   0  0  0  0  0  0
  -26.0175  -26.7263   19.4963 C   0  0  0  0  0  0
  -24.9001  -27.5948   19.4752 C   0  0  0  0  0  0
  -23.7058  -29.7616   20.1522 C   0  0  0  0  0  0
  -25.4107  -36.3006   24.0309 C   0  0  1  0  0  0
  -20.5929  -28.3772   23.1223 C   0  0  2  0  0  0
  -20.6779  -26.9461   22.5417 C   0  0  0  0  0  0
  -19.5748  -26.6418   21.5227 C   0  0  0  0  0  0
  -18.1938  -26.7971   22.1652 C   0  0  0  0  0  0
  -19.1576  -28.8927   23.2842 C   0  0  0  0  0  0
  -18.9491  -30.1515   23.8875 C   0  0  0  0  0  0
  -17.6483  -30.6624   24.0589 C   0  0  0  0  0  0
  -25.9082  -34.9391   23.5041 C   0  0  0  0  0  0
  -16.5372  -29.9125   23.6365 C   0  0  0  0  0  0
  -16.7295  -28.6545   23.0384 C   0  0  0  0  0  0
  -26.4540  -31.6554   25.0713 C   0  0  0  0  0  0
  -25.3686  -31.3774   26.1389 C   0  0  0  0  0  0
  -27.0421  -30.2937   24.6373 C   0  0  0  0  0  0
  -27.6049  -32.4333   25.7508 C   0  0  0  0  0  0
  -27.5553  -37.1760   24.8475 C   0  0  0  0  0  0
  -21.4309  -29.3054   22.3563 N   0  0  0  0  0  0
  -26.4262  -37.3745   23.9419 N   0  0  0  0  0  0
  -24.7400  -31.0037   22.0892 N   0  0  0  0  0  0
  -23.4204  -28.8068   23.3063 O   0  0  0  0  0  0
  -28.2508  -25.9210   20.1747 O   0  0  0  0  0  0
  -26.5693  -34.8923   22.4639 O   0  0  0  0  0  0
  -23.5652  -32.1265   23.6906 O   0  0  0  0  0  0
  -26.8365  -23.0751   21.7971 C   0  0  0  0  0  0
  -28.4946  -22.0713   20.6418 C   0  0  0  0  0  0
  -28.0308  -24.4956   20.5239 C   0  0  0  0  0  0
  -28.9019  -19.2674   20.9969 C   0  0  0  0  0  0
  -30.1202  -20.3305   19.3430 C   0  0  0  0  0  0
  -29.9398  -18.0241   20.4990 C   0  0  2  0  0  0
  -30.1642  -18.7391   19.1368 C   0  0  2  0  0  0
  -25.6943  -22.9297   22.7795 C   0  0  0  0  0  0
  -27.4957  -21.9526   21.4955 N   0  0  0  0  0  0
  -27.0320  -24.3197   21.3717 N   0  0  0  0  0  0
  -28.8151  -23.3612   20.1249 N   0  0  0  0  0  0
  -29.1328  -20.6959   20.3752 N   0  0  0  0  0  0
  -29.6887  -16.3933   20.5113 N   0  0  0  0  0  0
  -31.3788  -18.2692   18.4523 N   0  3  0  0  0  0
  -31.4710  -12.9244   19.2046 H   0  0  0  0  0  0
  -30.4884  -11.8118   20.1078 H   0  0  0  0  0  0
  -29.9006  -11.7360   17.6614 H   0  0  0  0  0  0
  -29.5881  -13.4539   17.6640 H   0  0  0  0  0  0
  -28.0215  -11.2693   19.0619 H   0  0  0  0  0  0
  -27.4155  -12.3606   17.8437 H   0  0  0  0  0  0
  -27.5522  -14.2407   19.3503 H   0  0  0  0  0  0
  -28.7959  -12.4383   21.4843 H   0  0  0  0  0  0
  -28.3135  -14.1037   21.7158 H   0  0  0  0  0  0
  -25.2781   -9.5675   22.4750 H   0  0  0  0  0  0
  -24.0013   -7.4625   22.7466 H   0  0  0  0  0  0
  -21.0858   -8.8780   19.8937 H   0  0  0  0  0  0
  -22.3729  -10.9668   19.6148 H   0  0  0  0  0  0
  -21.1998   -7.6142   23.9723 H   0  0  0  0  0  0
  -21.1478   -6.0510   25.9078 H   0  0  0  0  0  0
  -22.0604   -2.7609   23.2843 H   0  0  0  0  0  0
  -22.4064  -11.9850   22.4833 H   0  0  0  0  0  0
  -21.1037  -13.1182   22.2619 H   0  0  0  0  0  0
  -24.6419  -15.8478   20.5377 H   0  0  0  0  0  0
  -26.2503  -15.6373   20.0704 H   0  0  0  0  0  0
  -26.7348  -32.5226   23.0947 H   0  0  0  0  0  0
  -25.0029  -33.9527   25.0228 H   0  0  0  0  0  0
  -22.7767  -31.2732   21.3592 H   0  0  0  0  0  0
  -23.3743  -35.9522   23.3317 H   0  0  0  0  0  0
  -24.3518  -36.8847   22.2056 H   0  0  0  0  0  0
  -23.7198  -37.6397   23.6686 H   0  0  0  0  0  0
  -26.1973  -31.3926   20.6132 H   0  0  0  0  0  0
  -26.8970  -30.7240   22.0469 H   0  0  0  0  0  0
  -28.1435  -28.6508   21.2911 H   0  0  0  0  0  0
  -25.9147  -25.7792   18.9863 H   0  0  0  0  0  0
  -24.0083  -27.2750   18.9552 H   0  0  0  0  0  0
  -23.8571  -30.5285   19.3916 H   0  0  0  0  0  0
  -22.8175  -29.2092   19.8398 H   0  0  0  0  0  0
  -25.1297  -36.1817   25.0801 H   0  0  0  0  0  0
  -21.0029  -28.3381   24.1346 H   0  0  0  0  0  0
  -20.5655  -26.2393   23.3654 H   0  0  0  0  0  0
  -21.6643  -26.7438   22.1221 H   0  0  0  0  0  0
  -19.6878  -25.6323   21.1275 H   0  0  0  0  0  0
  -19.6665  -27.3217   20.6744 H   0  0  0  0  0  0
  -17.4191  -26.6742   21.4066 H   0  0  0  0  0  0
  -18.0327  -26.0109   22.9043 H   0  0  0  0  0  0
  -19.7953  -30.7348   24.2229 H   0  0  0  0  0  0
  -17.5033  -31.6303   24.5198 H   0  0  0  0  0  0
  -15.5373  -30.3024   23.7691 H   0  0  0  0  0  0
  -15.8693  -28.0850   22.7126 H   0  0  0  0  0  0
  -24.5888  -30.7102   25.7706 H   0  0  0  0  0  0
  -24.8851  -32.2964   26.4714 H   0  0  0  0  0  0
  -25.7956  -30.9019   27.0231 H   0  0  0  0  0  0
  -26.3078  -29.6640   24.1354 H   0  0  0  0  0  0
  -27.3962  -29.7278   25.4994 H   0  0  0  0  0  0
  -27.9011  -30.4135   23.9774 H   0  0  0  0  0  0
  -27.2640  -33.3663   26.2012 H   0  0  0  0  0  0
  -28.3915  -32.6855   25.0381 H   0  0  0  0  0  0
  -28.0663  -31.8505   26.5494 H   0  0  0  0  0  0
  -28.2594  -38.0033   24.7531 H   0  0  0  0  0  0
  -28.1034  -36.2581   24.6305 H   0  0  0  0  0  0
  -27.2276  -37.1412   25.8880 H   0  0  0  0  0  0
  -20.9555  -29.8737   21.6696 H   0  0  0  0  0  0
  -26.0120  -38.2805   24.1451 H   0  0  0  0  0  0
  -28.9426  -19.3535   22.0832 H   0  0  0  0  0  0
  -27.8742  -18.9848   20.7656 H   0  0  0  0  0  0
  -29.8843  -20.8357   18.4054 H   0  0  0  0  0  0
  -31.0945  -20.6985   19.6685 H   0  0  0  0  0  0
  -30.8508  -18.1556   21.0847 H   0  0  0  0  0  0
  -29.3197  -18.4779   18.4956 H   0  0  0  0  0  0
  -25.4682  -21.8858   22.9934 H   0  0  0  0  0  0
  -24.7923  -23.3949   22.3813 H   0  0  0  0  0  0
  -25.9426  -23.4252   23.7184 H   0  0  0  0  0  0
  -28.7144  -16.1739   20.6510 H   0  0  0  0  0  0
  -32.2044  -18.5099   18.9714 H   0  0  0  0  0  0
  -31.4448  -18.6785   17.5376 H   0  0  0  0  0  0
  -31.3520  -17.2709   18.3499 H   0  0  0  0  0  0
  1 25  1  0  0  0
  1 30  2  0  0  0
  1 83  1  0  0  0
  2  3  1  0  0  0
  2 25  1  0  0  0
  2 85  1  0  0  0
  2 86  1  0  0  0
  3  4  1  0  0  0
  3 87  1  0  0  0
  3 88  1  0  0  0
  4  5  1  0  0  0
  4 89  1  0  0  0
  4 90  1  0  0  0
  5  6  1  0  0  0
  5 26  1  0  0  0
  5 91  1  0  0  0
  6 25  1  0  0  0
  6 92  1  0  0  0
  6 93  1  0  0  0
  7  8  2  0  0  0
  7 26  1  0  0  0
  7 29  1  0  0  0
  8  9  1  0  0  0
  8 22  1  0  0  0
  9 10  1  0  0  0
  9 27  2  0  0  0
 10 11  2  0  0  0
 10 15  1  0  0  0
 11 12  1  0  0  0
 11 94  1  0  0  0
 12 13  2  0  0  0
 12 95  1  0  0  0
 13 14  1  0  0  0
 13 31  1  0  0  0
 14 15  2  0  0  0
 14 96  1  0  0  0
 15 97  1  0  0  0
 16 17  2  0  0  0
 16 21  1  0  0  0
 16 31  1  0  0  0
 17 18  1  0  0  0
 17 98  1  0  0  0
 18 19  2  0  0  0
 18 99  1  0  0  0
 19 20  1  0  0  0
 19 24  1  0  0  0
 20 21  2  0  0  0
 20100  1  0  0  0
 21 23  1  0  0  0
 22 28  1  0  0  0
 22 32  2  0  0  0
 26 27  1  0  0  0
 28101  1  0  0  0
 28102  1  0  0  0
 29103  1  0  0  0
 29104  1  0  0  0
 33 34  1  0  0  0
 33 66  1  0  0  0
 33 70  2  0  0  0
 34 36  1  0  0  0
 34 59  1  0  0  0
 34105  1  0  0  0
 35 44  2  0  0  0
 35 45  1  0  0  0
 35 68  1  0  0  0
 36 56  1  0  0  0
 36106  1  0  0  0
 37 39  1  0  0  0
 37 47  1  0  0  0
 37 66  1  0  0  0
 37107  1  0  0  0
 38 43  2  0  0  0
 38 46  1  0  0  0
 38 47  1  0  0  0
 39 64  1  0  0  0
 39 67  2  0  0  0
 40 52  1  0  0  0
 40 53  2  0  0  0
 40 58  1  0  0  0
 41108  1  0  0  0
 41109  1  0  0  0
 41110  1  0  0  0
 41 48  1  0  0  0
 42 43  1  0  0  0
 42 66  1  0  0  0
 42111  1  0  0  0
 42112  1  0  0  0
 43 44  1  0  0  0
 44113  1  0  0  0
 45 46  2  0  0  0
 45114  1  0  0  0
 46115  1  0  0  0
 47116  1  0  0  0
 47117  1  0  0  0
 48 56  1  0  0  0
 48 65  1  0  0  0
 48118  1  0  0  0
 49 50  1  0  0  0
 49 53  1  0  0  0
 49 64  1  0  0  0
 49119  1  0  0  0
 50 51  1  0  0  0
 50120  1  0  0  0
 50121  1  0  0  0
 51 52  1  0  0  0
 51122  1  0  0  0
 51123  1  0  0  0
 52124  1  0  0  0
 52125  1  0  0  0
 53 54  1  0  0  0
 54 55  2  0  0  0
 54126  1  0  0  0
 55 57  1  0  0  0
 55127  1  0  0  0
 56 69  2  0  0  0
 57 58  2  0  0  0
 57128  1  0  0  0
 58129  1  0  0  0
 59 60  1  0  0  0
 59 61  1  0  0  0
 59 62  1  0  0  0
 60130  1  0  0  0
 60131  1  0  0  0
 60132  1  0  0  0
 61133  1  0  0  0
 61134  1  0  0  0
 61135  1  0  0  0
 62136  1  0  0  0
 62137  1  0  0  0
 62138  1  0  0  0
 63 65  1  0  0  0
 63139  1  0  0  0
 63140  1  0  0  0
 63141  1  0  0  0
 64142  1  0  0  0
 65143  1  0  0  0
 68 73  1  0  0  0
 71 78  1  0  0  0
 71 79  2  0  0  0
 71 80  1  0  0  0
 72 79  1  0  0  0
 72 81  2  0  0  0
 72 82  1  0  0  0
 73 80  2  0  0  0
 73 81  1  0  0  0
 74 76  1  0  0  0
 74 82  1  0  0  0
 74144  1  0  0  0
 74145  1  0  0  0
 75 77  1  0  0  0
 75 82  1  0  0  0
 75146  1  0  0  0
 75147  1  0  0  0
 76 77  1  0  0  0
 76 83  1  0  0  0
 76148  1  0  0  0
 77 84  1  0  0  0
 77149  1  0  0  0
 78150  1  0  0  0
 78151  1  0  0  0
 78152  1  0  0  0
 83153  1  0  0  0
 84154  1  0  0  0
 84155  1  0  0  0
 84156  1  0  0  0
M  CHG  1  84   1
M  ISO  4   1 100  68 101  73 101  83 100
M  END
> <chiral flag>
0

> <version>
0

> <s_m_source_file>
/data/baiqing/PycharmProjects/Reinvent-master-3.2/result/LINK_invent/BTK/process_docking_weight1_custom_sum_contain_oxygen_bond_distance_aromatic_linkinvent_7_9_3/rearranged_h_0187.sdf

> <i_m_source_file_index>
55

> <r_mmod_Potential_Energy-OPLS-2005>
-206.910186767578

> <r_mmod_Stretch_Energy-OPLS-2005>
389.457855224609

> <r_mmod_Bend_Energy-OPLS-2005>
383.113098144531

> <r_mmod_Torsional_Energy-OPLS-2005>
274.269317626953

> <r_mmod_Improper_Torsional_Energy-OPLS-2005>
4.63213920593262

> <r_mmod_Van_der_Waal_Energy-OPLS-2005>
137.130950927734

> <r_mmod_Electrostatic_Energy-OPLS-2005>
-1228.6611328125

> <r_mmod_Solvation_Energy-OPLS-2005>
-525.398864746094

> <b_mmod_Minimization_Converged-OPLS-2005>
0

> <r_mmod_RMS_Derivative-OPLS-2005>
2.45951294898987

$$$$
55
                    3D
 Structure written by MMmdl.
154163  0  0  1  0            999 V2000
  -30.4070  -15.3944   20.3179 C   0  0  0  0  0  0
  -30.4367  -12.8938   19.5487 C   0  0  0  0  0  0
  -29.5514  -12.5883   18.3111 C   0  0  0  0  0  0
  -28.1042  -12.2983   18.7405 C   0  0  0  0  0  0
  -27.6090  -13.2954   19.8171 C   0  0  2  0  0  0
  -28.6357  -13.5326   20.9498 C   0  0  0  0  0  0
  -25.2415  -13.8308   20.5814 C   0  0  0  0  0  0
  -24.1762  -13.0493   20.9310 C   0  0  0  0  0  0
  -24.6443  -11.6992   20.8793 C   0  0  0  0  0  0
  -23.9123  -10.4330   21.0416 C   0  0  0  0  0  0
  -24.3671   -9.4222   21.9172 C   0  0  0  0  0  0
  -23.6341   -8.2243   22.0719 C   0  0  0  0  0  0
  -22.4321   -8.0284   21.3518 C   0  0  0  0  0  0
  -21.9979   -9.0279   20.4631 C   0  0  0  0  0  0
  -22.7313  -10.2167   20.3057 C   0  0  0  0  0  0
  -21.6867   -6.0750   22.5270 C   0  0  0  0  0  0
  -21.4011   -6.5626   23.8203 C   0  0  0  0  0  0
  -21.3683   -5.6776   24.9168 C   0  0  0  0  0  0
  -21.6072   -4.3042   24.7208 C   0  0  0  0  0  0
  -21.8817   -3.8146   23.4329 C   0  0  0  0  0  0
  -21.9197   -4.6962   22.3388 C   0  0  0  0  0  0
  -22.7770  -13.5208   21.1932 C   0  0  0  0  0  0
  -22.1661   -4.2151   21.0975 F   0  0  0  0  0  0
  -21.5648   -3.4520   25.7710 F   0  0  0  0  0  0
  -29.8539  -14.0666   20.3146 N   0  0  0  0  0  0
  -26.2834  -12.9610   20.3235 N   0  0  0  0  0  0
  -25.9370  -11.6693   20.5692 N   0  0  0  0  0  0
  -22.0416  -12.8179   22.0466 N   0  0  0  0  0  0
  -25.4144  -15.2022   20.4274 N   0  0  0  0  0  0
  -31.6276  -15.3598   20.0968 O   0  0  0  0  0  0
  -21.6663   -6.8894   21.4224 O   0  0  0  0  0  0
  -22.3438  -14.5491   20.6744 O   0  0  0  0  0  0
  -24.6738  -31.8126   23.1619 C   0  0  0  0  0  0
  -25.9363  -32.4534   23.8139 C   0  0  1  0  0  0
  -27.2340  -26.8374   20.1677 C   0  0  0  0  0  0
  -25.5980  -33.8363   24.2024 N   0  0  0  0  0  0
  -23.4949  -30.4210   21.5097 C   0  0  2  0  0  0
  -24.9546  -28.7931   20.1068 C   0  0  0  0  0  0
  -22.7730  -29.4391   22.4707 C   0  0  0  0  0  0
  -18.0350  -28.1408   22.8473 C   0  0  0  0  0  0
  -24.1494  -36.7189   23.2642 C   0  0  0  0  0  0
  -26.0700  -30.5850   21.4122 C   0  0  0  0  0  0
  -26.1399  -29.1665   20.7520 C   0  0  0  0  0  0
  -27.2643  -28.2097   20.7627 C   0  0  0  0  0  0
  -26.0223  -26.6467   19.4620 C   0  0  0  0  0  0
  -24.9270  -27.5550   19.4426 C   0  0  0  0  0  0
  -23.7434  -29.7302   20.1390 C   0  0  0  0  0  0
  -25.4139  -36.2938   24.0276 C   0  0  1  0  0  0
  -20.5988  -28.3764   23.1151 C   0  0  2  0  0  0
  -20.6801  -26.9426   22.5397 C   0  0  0  0  0  0
  -19.5770  -26.6361   21.5214 C   0  0  0  0  0  0
  -18.1962  -26.7935   22.1629 C   0  0  0  0  0  0
  -19.1616  -28.8909   23.2806 C   0  0  0  0  0  0
  -18.9502  -30.1493   23.8847 C   0  0  0  0  0  0
  -17.6493  -30.6587   24.0546 C   0  0  0  0  0  0
  -25.9112  -34.9301   23.4971 C   0  0  0  0  0  0
  -16.5397  -29.9061   23.6335 C   0  0  0  0  0  0
  -16.7329  -28.6486   23.0363 C   0  0  0  0  0  0
  -26.4562  -31.6543   25.0733 C   0  0  0  0  0  0
  -25.3654  -31.3834   26.1369 C   0  0  0  0  0  0
  -27.0471  -30.2891   24.6569 C   0  0  0  0  0  0
  -27.6064  -32.4366   25.7539 C   0  0  0  0  0  0
  -27.5585  -37.1741   24.8452 C   0  0  0  0  0  0
  -21.4389  -29.3047   22.3484 N   0  0  0  0  0  0
  -26.4276  -37.3675   23.9413 N   0  0  0  0  0  0
  -24.7685  -30.9690   22.0807 N   0  0  0  0  0  0
  -23.4235  -28.7959   23.2980 O   0  0  0  0  0  0
  -28.1999  -25.6695   20.3002 O   0  0  0  0  0  0
  -26.5747  -34.8855   22.4592 O   0  0  0  0  0  0
  -23.5772  -32.1143   23.6630 O   0  0  0  0  0  0
  -28.0626  -21.7347   21.3607 C   0  0  0  0  0  0
  -28.5720  -22.4579   20.2792 C   0  0  0  0  0  0
  -29.1976  -19.9452   20.3846 C   0  0  0  0  0  0
  -29.3182  -17.4036   19.1256 C   0  0  0  0  0  0
  -29.9617  -18.3398   20.1104 C   0  0  2  0  0  0
  -27.1344  -22.2893   22.3954 C   0  0  0  0  0  0
  -29.3634  -20.6994   17.2492 C   0  0  0  0  0  0
  -28.1385  -24.1008   19.6856 C   0  0  0  0  0  0
  -30.0767  -21.3202   18.4586 C   0  0  0  0  0  0
  -28.4154  -20.3265   21.4151 N   0  0  0  0  0  0
  -29.2947  -21.2358   19.6858 N   0  0  0  0  0  0
  -29.6534  -16.7103   20.3385 N   0  0  0  0  0  0
  -31.4554  -13.0947   19.2135 H   0  0  0  0  0  0
  -30.5154  -12.0121   20.1860 H   0  0  0  0  0  0
  -29.9628  -11.7436   17.7584 H   0  0  0  0  0  0
  -29.5672  -13.4403   17.6292 H   0  0  0  0  0  0
  -28.0837  -11.2869   19.1464 H   0  0  0  0  0  0
  -27.4418  -12.2979   17.8761 H   0  0  0  0  0  0
  -27.5091  -14.2467   19.2948 H   0  0  0  0  0  0
  -28.8246  -12.6241   21.5222 H   0  0  0  0  0  0
  -28.2505  -14.2666   21.6607 H   0  0  0  0  0  0
  -25.2831   -9.5682   22.4733 H   0  0  0  0  0  0
  -24.0051   -7.4645   22.7461 H   0  0  0  0  0  0
  -21.0893   -8.8851   19.8967 H   0  0  0  0  0  0
  -22.3785  -10.9712   19.6159 H   0  0  0  0  0  0
  -21.1979   -7.6140   23.9707 H   0  0  0  0  0  0
  -21.1517   -6.0502   25.9066 H   0  0  0  0  0  0
  -22.0585   -2.7594   23.2821 H   0  0  0  0  0  0
  -22.4060  -11.9871   22.4885 H   0  0  0  0  0  0
  -21.1031  -13.1167   22.2670 H   0  0  0  0  0  0
  -24.6626  -15.8717   20.5536 H   0  0  0  0  0  0
  -26.2844  -15.6308   20.1380 H   0  0  0  0  0  0
  -26.7459  -32.5024   23.0877 H   0  0  0  0  0  0
  -25.0044  -33.9421   25.0114 H   0  0  0  0  0  0
  -22.8140  -31.2546   21.3300 H   0  0  0  0  0  0
  -23.3770  -35.9510   23.3233 H   0  0  0  0  0  0
  -24.3583  -36.8918   22.2077 H   0  0  0  0  0  0
  -23.7222  -37.6333   23.6763 H   0  0  0  0  0  0
  -26.2664  -31.3234   20.6333 H   0  0  0  0  0  0
  -26.9232  -30.6462   22.0767 H   0  0  0  0  0  0
  -28.1525  -28.4914   21.3118 H   0  0  0  0  0  0
  -25.8695  -25.7077   18.9500 H   0  0  0  0  0  0
  -24.0305  -27.2617   18.9133 H   0  0  0  0  0  0
  -23.9053  -30.4951   19.3785 H   0  0  0  0  0  0
  -22.8525  -29.1863   19.8194 H   0  0  0  0  0  0
  -25.1335  -36.1722   25.0762 H   0  0  0  0  0  0
  -21.0106  -28.3369   24.1261 H   0  0  0  0  0  0
  -20.5647  -26.2380   23.3649 H   0  0  0  0  0  0
  -21.6648  -26.7344   22.1215 H   0  0  0  0  0  0
  -19.6894  -25.6246   21.1283 H   0  0  0  0  0  0
  -19.6697  -27.3119   20.6697 H   0  0  0  0  0  0
  -17.4225  -26.6705   21.4041 H   0  0  0  0  0  0
  -18.0355  -26.0100   22.9042 H   0  0  0  0  0  0
  -19.7978  -30.7337   24.2193 H   0  0  0  0  0  0
  -17.5029  -31.6260   24.5150 H   0  0  0  0  0  0
  -15.5376  -30.2930   23.7680 H   0  0  0  0  0  0
  -15.8747  -28.0766   22.7099 H   0  0  0  0  0  0
  -24.5827  -30.7212   25.7640 H   0  0  0  0  0  0
  -24.8845  -32.3042   26.4679 H   0  0  0  0  0  0
  -25.7827  -30.9044   27.0233 H   0  0  0  0  0  0
  -26.3145  -29.6543   24.1575 H   0  0  0  0  0  0
  -27.3926  -29.7315   25.5282 H   0  0  0  0  0  0
  -27.9115  -30.4018   24.0036 H   0  0  0  0  0  0
  -27.2643  -33.3698   26.2019 H   0  0  0  0  0  0
  -28.3922  -32.6887   25.0412 H   0  0  0  0  0  0
  -28.0695  -31.8574   26.5535 H   0  0  0  0  0  0
  -28.2531  -38.0103   24.7555 H   0  0  0  0  0  0
  -28.1145  -36.2629   24.6196 H   0  0  0  0  0  0
  -27.2320  -37.1274   25.8853 H   0  0  0  0  0  0
  -20.9660  -29.8767   21.6630 H   0  0  0  0  0  0
  -26.0114  -38.2724   24.1448 H   0  0  0  0  0  0
  -29.8975  -17.1759   18.2298 H   0  0  0  0  0  0
  -28.2557  -17.5368   18.9373 H   0  0  0  0  0  0
  -31.0175  -18.5497   19.9518 H   0  0  0  0  0  0
  -26.9737  -23.3585   22.2604 H   0  0  0  0  0  0
  -27.5316  -22.1535   23.4027 H   0  0  0  0  0  0
  -26.1579  -21.8057   22.3475 H   0  0  0  0  0  0
  -30.0617  -20.5701   16.4195 H   0  0  0  0  0  0
  -28.5537  -21.3382   16.8939 H   0  0  0  0  0  0
  -28.9442  -19.7196   17.4791 H   0  0  0  0  0  0
  -27.0998  -23.9861   19.3856 H   0  0  0  0  0  0
  -28.6536  -24.2022   18.7310 H   0  0  0  0  0  0
  -30.3323  -22.3623   18.2555 H   0  0  0  0  0  0
  -31.0223  -20.7987   18.6225 H   0  0  0  0  0  0
  1 25  1  0  0  0
  1 30  2  0  0  0
  1 82  1  0  0  0
  2  3  1  0  0  0
  2 25  1  0  0  0
  2 83  1  0  0  0
  2 84  1  0  0  0
  3  4  1  0  0  0
  3 85  1  0  0  0
  3 86  1  0  0  0
  4  5  1  0  0  0
  4 87  1  0  0  0
  4 88  1  0  0  0
  5  6  1  0  0  0
  5 26  1  0  0  0
  5 89  1  0  0  0
  6 25  1  0  0  0
  6 90  1  0  0  0
  6 91  1  0  0  0
  7  8  2  0  0  0
  7 26  1  0  0  0
  7 29  1  0  0  0
  8  9  1  0  0  0
  8 22  1  0  0  0
  9 10  1  0  0  0
  9 27  2  0  0  0
 10 11  2  0  0  0
 10 15  1  0  0  0
 11 12  1  0  0  0
 11 92  1  0  0  0
 12 13  2  0  0  0
 12 93  1  0  0  0
 13 14  1  0  0  0
 13 31  1  0  0  0
 14 15  2  0  0  0
 14 94  1  0  0  0
 15 95  1  0  0  0
 16 17  2  0  0  0
 16 21  1  0  0  0
 16 31  1  0  0  0
 17 18  1  0  0  0
 17 96  1  0  0  0
 18 19  2  0  0  0
 18 97  1  0  0  0
 19 20  1  0  0  0
 19 24  1  0  0  0
 20 21  2  0  0  0
 20 98  1  0  0  0
 21 23  1  0  0  0
 22 28  1  0  0  0
 22 32  2  0  0  0
 26 27  1  0  0  0
 28 99  1  0  0  0
 28100  1  0  0  0
 29101  1  0  0  0
 29102  1  0  0  0
 33 34  1  0  0  0
 33 66  1  0  0  0
 33 70  2  0  0  0
 34 36  1  0  0  0
 34 59  1  0  0  0
 34103  1  0  0  0
 35 44  2  0  0  0
 35 45  1  0  0  0
 35 68  1  0  0  0
 36 56  1  0  0  0
 36104  1  0  0  0
 37 39  1  0  0  0
 37 47  1  0  0  0
 37 66  1  0  0  0
 37105  1  0  0  0
 38 43  2  0  0  0
 38 46  1  0  0  0
 38 47  1  0  0  0
 39 64  1  0  0  0
 39 67  2  0  0  0
 40 52  1  0  0  0
 40 53  2  0  0  0
 40 58  1  0  0  0
 41106  1  0  0  0
 41107  1  0  0  0
 41108  1  0  0  0
 41 48  1  0  0  0
 42 43  1  0  0  0
 42 66  1  0  0  0
 42109  1  0  0  0
 42110  1  0  0  0
 43 44  1  0  0  0
 44111  1  0  0  0
 45 46  2  0  0  0
 45112  1  0  0  0
 46113  1  0  0  0
 47114  1  0  0  0
 47115  1  0  0  0
 48 56  1  0  0  0
 48 65  1  0  0  0
 48116  1  0  0  0
 49 50  1  0  0  0
 49 53  1  0  0  0
 49 64  1  0  0  0
 49117  1  0  0  0
 50 51  1  0  0  0
 50118  1  0  0  0
 50119  1  0  0  0
 51 52  1  0  0  0
 51120  1  0  0  0
 51121  1  0  0  0
 52122  1  0  0  0
 52123  1  0  0  0
 53 54  1  0  0  0
 54 55  2  0  0  0
 54124  1  0  0  0
 55 57  1  0  0  0
 55125  1  0  0  0
 56 69  2  0  0  0
 57 58  2  0  0  0
 57126  1  0  0  0
 58127  1  0  0  0
 59 60  1  0  0  0
 59 61  1  0  0  0
 59 62  1  0  0  0
 60128  1  0  0  0
 60129  1  0  0  0
 60130  1  0  0  0
 61131  1  0  0  0
 61132  1  0  0  0
 61133  1  0  0  0
 62134  1  0  0  0
 62135  1  0  0  0
 62136  1  0  0  0
 63 65  1  0  0  0
 63137  1  0  0  0
 63138  1  0  0  0
 63139  1  0  0  0
 64140  1  0  0  0
 65141  1  0  0  0
 68 78  1  0  0  0
 71 72  2  0  0  0
 71 76  1  0  0  0
 71 80  1  0  0  0
 72 78  1  0  0  0
 72 81  1  0  0  0
 73 80  2  0  0  0
 73 81  1  0  0  0
 73 75  1  0  0  0
 74 75  1  0  0  0
 74 82  1  0  0  0
 74142  1  0  0  0
 74143  1  0  0  0
 75 82  1  0  0  0
 75144  1  0  0  0
 76145  1  0  0  0
 76146  1  0  0  0
 76147  1  0  0  0
 77 79  1  0  0  0
 77148  1  0  0  0
 77149  1  0  0  0
 77150  1  0  0  0
 78151  1  0  0  0
 78152  1  0  0  0
 79 81  1  0  0  0
 79153  1  0  0  0
 79154  1  0  0  0
M  ISO  4   1 100  68 101  78 101  82 100
M  END
> <chiral flag>
0

> <version>
0

> <s_m_source_file>
/data/baiqing/PycharmProjects/Reinvent-master-3.2/result/LINK_invent/BTK/process_docking_weight1_custom_sum_contain_oxygen_bond_distance_aromatic_linkinvent_7_9_3/rearranged_h_0187.sdf

> <i_m_source_file_index>
56

> <r_mmod_Potential_Energy-OPLS-2005>
1714.48388671875

> <r_mmod_Stretch_Energy-OPLS-2005>
729.116821289062

> <r_mmod_Bend_Energy-OPLS-2005>
545.789306640625

> <r_mmod_Torsional_Energy-OPLS-2005>
321.545013427734

> <r_mmod_Improper_Torsional_Energy-OPLS-2005>
15.0834817886353

> <r_mmod_Van_der_Waal_Energy-OPLS-2005>
97.9071502685547

> <r_mmod_Electrostatic_Energy-OPLS-2005>
-377.304046630859

> <r_mmod_Solvation_Energy-OPLS-2005>
-228.350463867188

> <b_mmod_Minimization_Converged-OPLS-2005>
0

> <r_mmod_RMS_Derivative-OPLS-2005>
4.62909126281738

$$$$
56
                    3D
 Structure written by MMmdl.
152161  0  0  1  0            999 V2000
  -30.5994  -14.7422   20.5060 C   0  0  0  0  0  0
  -30.4438  -12.4682   19.4653 C   0  0  0  0  0  0
  -29.5197  -12.5313   18.2305 C   0  0  0  0  0  0
  -28.0440  -12.3460   18.6377 C   0  0  0  0  0  0
  -27.6457  -13.2293   19.8510 C   0  0  2  0  0  0
  -28.6891  -13.1390   20.9866 C   0  0  0  0  0  0
  -25.2547  -13.8198   20.5656 C   0  0  0  0  0  0
  -24.1835  -13.0451   20.9177 C   0  0  0  0  0  0
  -24.6416  -11.6925   20.8695 C   0  0  0  0  0  0
  -23.9086  -10.4308   21.0379 C   0  0  0  0  0  0
  -24.3640   -9.4239   21.9187 C   0  0  0  0  0  0
  -23.6297   -8.2281   22.0769 C   0  0  0  0  0  0
  -22.4284   -8.0306   21.3550 C   0  0  0  0  0  0
  -21.9923   -9.0277   20.4647 C   0  0  0  0  0  0
  -22.7253  -10.2146   20.3043 C   0  0  0  0  0  0
  -21.6880   -6.0739   22.5265 C   0  0  0  0  0  0
  -21.4038   -6.5636   23.8196 C   0  0  0  0  0  0
  -21.3665   -5.6783   24.9158 C   0  0  0  0  0  0
  -21.6056   -4.3048   24.7211 C   0  0  0  0  0  0
  -21.8818   -3.8141   23.4326 C   0  0  0  0  0  0
  -21.9206   -4.6967   22.3381 C   0  0  0  0  0  0
  -22.7859  -13.5242   21.1817 C   0  0  0  0  0  0
  -22.1672   -4.2165   21.0960 F   0  0  0  0  0  0
  -21.5616   -3.4525   25.7712 F   0  0  0  0  0  0
  -29.9890  -13.5108   20.4124 N   0  0  0  0  0  0
  -26.2968  -12.9393   20.3236 N   0  0  0  0  0  0
  -25.9362  -11.6538   20.5713 N   0  0  0  0  0  0
  -22.0488  -12.8266   22.0388 N   0  0  0  0  0  0
  -25.4228  -15.1925   20.4052 N   0  0  0  0  0  0
  -31.7920  -14.8627   20.2099 O   0  0  0  0  0  0
  -21.6660   -6.8897   21.4237 O   0  0  0  0  0  0
  -22.3535  -14.5542   20.6646 O   0  0  0  0  0  0
  -24.6349  -31.8510   23.1961 C   0  0  0  0  0  0
  -25.9154  -32.4737   23.8334 C   0  0  1  0  0  0
  -27.2280  -27.2438   20.1514 C   0  0  0  0  0  0
  -25.5936  -33.8534   24.2255 N   0  0  0  0  0  0
  -23.4340  -30.4716   21.5372 C   0  0  2  0  0  0
  -24.8875  -28.9139   20.1112 C   0  0  0  0  0  0
  -22.7530  -29.4581   22.4892 C   0  0  0  0  0  0
  -18.0304  -28.1394   22.8480 C   0  0  0  0  0  0
  -24.1494  -36.7297   23.2636 C   0  0  0  0  0  0
  -25.9792  -30.7617   21.3775 C   0  0  0  0  0  0
  -26.0568  -29.3797   20.7261 C   0  0  0  0  0  0
  -27.2322  -28.5592   20.7311 C   0  0  0  0  0  0
  -26.0428  -26.8532   19.4937 C   0  0  0  0  0  0
  -24.8885  -27.6629   19.4751 C   0  0  0  0  0  0
  -23.6559  -29.7999   20.1554 C   0  0  0  0  0  0
  -25.4113  -36.3058   24.0332 C   0  0  1  0  0  0
  -20.5911  -28.3708   23.1265 C   0  0  2  0  0  0
  -20.6796  -26.9418   22.5405 C   0  0  0  0  0  0
  -19.5762  -26.6390   21.5217 C   0  0  0  0  0  0
  -18.1942  -26.7935   22.1619 C   0  0  0  0  0  0
  -19.1555  -28.8865   23.2877 C   0  0  0  0  0  0
  -18.9457  -30.1470   23.8900 C   0  0  0  0  0  0
  -17.6450  -30.6580   24.0558 C   0  0  0  0  0  0
  -25.9048  -34.9425   23.5097 C   0  0  0  0  0  0
  -16.5349  -29.9075   23.6325 C   0  0  0  0  0  0
  -16.7283  -28.6495   23.0338 C   0  0  0  0  0  0
  -26.4521  -31.6559   25.0720 C   0  0  0  0  0  0
  -25.3751  -31.3668   26.1438 C   0  0  0  0  0  0
  -27.0364  -30.2978   24.6204 C   0  0  0  0  0  0
  -27.6078  -32.4305   25.7489 C   0  0  0  0  0  0
  -27.5597  -37.1785   24.8450 C   0  0  0  0  0  0
  -21.4233  -29.3044   22.3642 N   0  0  0  0  0  0
  -26.4280  -37.3768   23.9418 N   0  0  0  0  0  0
  -24.7014  -31.0475   22.0938 N   0  0  0  0  0  0
  -23.4215  -28.8127   23.3005 O   0  0  0  0  0  0
  -28.3132  -26.3345   20.1747 O   0  0  0  0  0  0
  -26.5602  -34.8906   22.4658 O   0  0  0  0  0  0
  -23.5488  -32.1325   23.7250 O   0  0  0  0  0  0
  -29.7377  -22.5163   18.1694 C   0  0  0  0  0  0
  -29.2571  -23.6883   18.7849 C   0  0  0  0  0  0
  -29.7313  -21.2913   18.8695 C   0  0  0  0  0  0
  -28.7639  -23.6365   20.1001 C   0  0  0  0  0  0
  -29.2770  -21.2396   20.1989 C   0  0  0  0  0  0
  -30.8337  -18.0845   19.8980 C   0  0  0  0  0  0
  -29.4736  -18.5887   20.3326 C   0  0  1  0  0  0
  -30.1588  -17.2897   20.9896 C   0  0  1  0  0  0
  -28.0876  -24.9449   20.7319 C   0  0  0  0  0  0
  -28.8047  -22.4118   20.7865 N   0  0  0  0  0  0
  -29.3406  -19.9862   20.9264 N   0  0  0  0  0  0
  -29.7989  -15.8507   20.7441 N   0  0  0  0  0  0
  -31.4817  -12.6148   19.1625 H   0  0  0  0  0  0
  -30.4059  -11.4821   19.9290 H   0  0  0  0  0  0
  -29.8088  -11.7764   17.4972 H   0  0  0  0  0  0
  -29.6454  -13.4954   17.7359 H   0  0  0  0  0  0
  -27.8978  -11.2924   18.8773 H   0  0  0  0  0  0
  -27.3950  -12.5592   17.7855 H   0  0  0  0  0  0
  -27.6466  -14.2562   19.4871 H   0  0  0  0  0  0
  -28.7297  -12.1291   21.3945 H   0  0  0  0  0  0
  -28.4176  -13.7933   21.8156 H   0  0  0  0  0  0
  -25.2798   -9.5716   22.4754 H   0  0  0  0  0  0
  -24.0011   -7.4679   22.7506 H   0  0  0  0  0  0
  -21.0854   -8.8782   19.8936 H   0  0  0  0  0  0
  -22.3727  -10.9683   19.6125 H   0  0  0  0  0  0
  -21.2047   -7.6144   23.9701 H   0  0  0  0  0  0
  -21.1489   -6.0513   25.9061 H   0  0  0  0  0  0
  -22.0598   -2.7609   23.2807 H   0  0  0  0  0  0
  -22.4089  -11.9953   22.4835 H   0  0  0  0  0  0
  -21.1086  -13.1286   22.2490 H   0  0  0  0  0  0
  -24.6477  -15.8390   20.5078 H   0  0  0  0  0  0
  -26.2504  -15.6301   20.0230 H   0  0  0  0  0  0
  -26.7217  -32.5388   23.1066 H   0  0  0  0  0  0
  -25.0087  -33.9661   25.0403 H   0  0  0  0  0  0
  -22.7334  -31.2958   21.3861 H   0  0  0  0  0  0
  -23.3767  -35.9622   23.3247 H   0  0  0  0  0  0
  -24.3594  -36.8972   22.2067 H   0  0  0  0  0  0
  -23.7250  -37.6480   23.6695 H   0  0  0  0  0  0
  -26.1119  -31.5190   20.6041 H   0  0  0  0  0  0
  -26.8591  -30.8192   22.0054 H   0  0  0  0  0  0
  -28.1283  -28.9100   21.2224 H   0  0  0  0  0  0
  -26.0025  -25.8955   18.9948 H   0  0  0  0  0  0
  -24.0003  -27.3089   18.9682 H   0  0  0  0  0  0
  -23.7776  -30.5721   19.3952 H   0  0  0  0  0  0
  -22.7767  -29.2292   19.8502 H   0  0  0  0  0  0
  -25.1301  -36.1893   25.0829 H   0  0  0  0  0  0
  -20.9998  -28.3277   24.1387 H   0  0  0  0  0  0
  -20.5721  -26.2296   23.3608 H   0  0  0  0  0  0
  -21.6655  -26.7449   22.1169 H   0  0  0  0  0  0
  -19.6914  -25.6301   21.1247 H   0  0  0  0  0  0
  -19.6704  -27.3214   20.6763 H   0  0  0  0  0  0
  -17.4214  -26.6698   21.4017 H   0  0  0  0  0  0
  -18.0321  -26.0085   22.9019 H   0  0  0  0  0  0
  -19.7918  -30.7303   24.2266 H   0  0  0  0  0  0
  -17.4977  -31.6254   24.5164 H   0  0  0  0  0  0
  -15.5338  -30.2952   23.7662 H   0  0  0  0  0  0
  -15.8683  -28.0817   22.7031 H   0  0  0  0  0  0
  -24.5913  -30.7046   25.7737 H   0  0  0  0  0  0
  -24.8956  -32.2811   26.4951 H   0  0  0  0  0  0
  -25.8078  -30.8759   27.0165 H   0  0  0  0  0  0
  -26.2918  -29.6699   24.1283 H   0  0  0  0  0  0
  -27.4093  -29.7279   25.4730 H   0  0  0  0  0  0
  -27.8797  -30.4254   23.9406 H   0  0  0  0  0  0
  -27.2683  -33.3595   26.2090 H   0  0  0  0  0  0
  -28.3869  -32.6881   25.0296 H   0  0  0  0  0  0
  -28.0769  -31.8410   26.5375 H   0  0  0  0  0  0
  -28.2548  -38.0143   24.7565 H   0  0  0  0  0  0
  -28.1151  -36.2677   24.6173 H   0  0  0  0  0  0
  -27.2311  -37.1310   25.8842 H   0  0  0  0  0  0
  -20.9437  -29.8719   21.6796 H   0  0  0  0  0  0
  -26.0160  -38.2832   24.1449 H   0  0  0  0  0  0
  -30.1056  -22.5524   17.1536 H   0  0  0  0  0  0
  -29.2434  -24.6224   18.2388 H   0  0  0  0  0  0
  -30.0945  -20.4022   18.3760 H   0  0  0  0  0  0
  -31.7183  -18.6450   20.1987 H   0  0  0  0  0  0
  -30.9031  -17.6160   18.9196 H   0  0  0  0  0  0
  -28.6471  -18.4112   19.6482 H   0  0  0  0  0  0
  -30.5264  -17.4649   22.0000 H   0  0  0  0  0  0
  -28.4221  -24.9877   21.7690 H   0  0  0  0  0  0
  -27.0185  -24.7373   20.7963 H   0  0  0  0  0  0
  -29.0496  -20.0250   21.8980 H   0  0  0  0  0  0
  -28.8303  -15.6198   20.9168 H   0  0  0  0  0  0
  1 25  1  0  0  0
  1 30  2  0  0  0
  1 82  1  0  0  0
  2  3  1  0  0  0
  2 25  1  0  0  0
  2 83  1  0  0  0
  2 84  1  0  0  0
  3  4  1  0  0  0
  3 85  1  0  0  0
  3 86  1  0  0  0
  4  5  1  0  0  0
  4 87  1  0  0  0
  4 88  1  0  0  0
  5  6  1  0  0  0
  5 26  1  0  0  0
  5 89  1  0  0  0
  6 25  1  0  0  0
  6 90  1  0  0  0
  6 91  1  0  0  0
  7  8  2  0  0  0
  7 26  1  0  0  0
  7 29  1  0  0  0
  8  9  1  0  0  0
  8 22  1  0  0  0
  9 10  1  0  0  0
  9 27  2  0  0  0
 10 11  2  0  0  0
 10 15  1  0  0  0
 11 12  1  0  0  0
 11 92  1  0  0  0
 12 13  2  0  0  0
 12 93  1  0  0  0
 13 14  1  0  0  0
 13 31  1  0  0  0
 14 15  2  0  0  0
 14 94  1  0  0  0
 15 95  1  0  0  0
 16 17  2  0  0  0
 16 21  1  0  0  0
 16 31  1  0  0  0
 17 18  1  0  0  0
 17 96  1  0  0  0
 18 19  2  0  0  0
 18 97  1  0  0  0
 19 20  1  0  0  0
 19 24  1  0  0  0
 20 21  2  0  0  0
 20 98  1  0  0  0
 21 23  1  0  0  0
 22 28  1  0  0  0
 22 32  2  0  0  0
 26 27  1  0  0  0
 28 99  1  0  0  0
 28100  1  0  0  0
 29101  1  0  0  0
 29102  1  0  0  0
 33 34  1  0  0  0
 33 66  1  0  0  0
 33 70  2  0  0  0
 34 36  1  0  0  0
 34 59  1  0  0  0
 34103  1  0  0  0
 35 44  2  0  0  0
 35 45  1  0  0  0
 35 68  1  0  0  0
 36 56  1  0  0  0
 36104  1  0  0  0
 37 39  1  0  0  0
 37 47  1  0  0  0
 37 66  1  0  0  0
 37105  1  0  0  0
 38 43  2  0  0  0
 38 46  1  0  0  0
 38 47  1  0  0  0
 39 64  1  0  0  0
 39 67  2  0  0  0
 40 52  1  0  0  0
 40 53  2  0  0  0
 40 58  1  0  0  0
 41106  1  0  0  0
 41107  1  0  0  0
 41108  1  0  0  0
 41 48  1  0  0  0
 42 43  1  0  0  0
 42 66  1  0  0  0
 42109  1  0  0  0
 42110  1  0  0  0
 43 44  1  0  0  0
 44111  1  0  0  0
 45 46  2  0  0  0
 45112  1  0  0  0
 46113  1  0  0  0
 47114  1  0  0  0
 47115  1  0  0  0
 48 56  1  0  0  0
 48 65  1  0  0  0
 48116  1  0  0  0
 49 50  1  0  0  0
 49 53  1  0  0  0
 49 64  1  0  0  0
 49117  1  0  0  0
 50 51  1  0  0  0
 50118  1  0  0  0
 50119  1  0  0  0
 51 52  1  0  0  0
 51120  1  0  0  0
 51121  1  0  0  0
 52122  1  0  0  0
 52123  1  0  0  0
 53 54  1  0  0  0
 54 55  2  0  0  0
 54124  1  0  0  0
 55 57  1  0  0  0
 55125  1  0  0  0
 56 69  2  0  0  0
 57 58  2  0  0  0
 57126  1  0  0  0
 58127  1  0  0  0
 59 60  1  0  0  0
 59 61  1  0  0  0
 59 62  1  0  0  0
 60128  1  0  0  0
 60129  1  0  0  0
 60130  1  0  0  0
 61131  1  0  0  0
 61132  1  0  0  0
 61133  1  0  0  0
 62134  1  0  0  0
 62135  1  0  0  0
 62136  1  0  0  0
 63 65  1  0  0  0
 63137  1  0  0  0
 63138  1  0  0  0
 63139  1  0  0  0
 64140  1  0  0  0
 65141  1  0  0  0
 68 79  1  0  0  0
 71 72  2  0  0  0
 71 73  1  0  0  0
 71142  1  0  0  0
 72 74  1  0  0  0
 72143  1  0  0  0
 73 75  2  0  0  0
 73144  1  0  0  0
 74 79  1  0  0  0
 74 80  2  0  0  0
 75 80  1  0  0  0
 75 81  1  0  0  0
 76 77  1  0  0  0
 76 78  1  0  0  0
 76145  1  0  0  0
 76146  1  0  0  0
 77 78  1  0  0  0
 77 81  1  0  0  0
 77147  1  0  0  0
 78 82  1  0  0  0
 78148  1  0  0  0
 79149  1  0  0  0
 79150  1  0  0  0
 81151  1  0  0  0
 82152  1  0  0  0
M  ISO  4   1 100  68 101  79 101  82 100
M  END
> <chiral flag>
0

> <version>
0

> <s_m_source_file>
/data/baiqing/PycharmProjects/Reinvent-master-3.2/result/LINK_invent/BTK/process_docking_weight1_custom_sum_contain_oxygen_bond_distance_aromatic_linkinvent_7_9_3/rearranged_h_0187.sdf

> <i_m_source_file_index>
57

> <r_mmod_Potential_Energy-OPLS-2005>
-8.21850204467773

> <r_mmod_Stretch_Energy-OPLS-2005>
127.459342956543

> <r_mmod_Bend_Energy-OPLS-2005>
166.719482421875

> <r_mmod_Torsional_Energy-OPLS-2005>
296.377075195312

> <r_mmod_Improper_Torsional_Energy-OPLS-2005>
5.38775730133057

> <r_mmod_Van_der_Waal_Energy-OPLS-2005>
132.032379150391

> <r_mmod_Electrostatic_Energy-OPLS-2005>
-589.958190917969

> <r_mmod_Solvation_Energy-OPLS-2005>
-235.884185791016

> <b_mmod_Minimization_Converged-OPLS-2005>
0

> <r_mmod_RMS_Derivative-OPLS-2005>
3.48869562149048

$$$$
57
                    3D
 Structure written by MMmdl.
153162  0  0  1  0            999 V2000
  -30.5641  -14.8591   20.4283 C   0  0  0  0  0  0
  -30.4444  -12.5271   19.4845 C   0  0  0  0  0  0
  -29.5226  -12.5173   18.2433 C   0  0  0  0  0  0
  -28.0494  -12.3255   18.6558 C   0  0  0  0  0  0
  -27.6376  -13.2387   19.8414 C   0  0  2  0  0  0
  -28.6830  -13.2155   20.9776 C   0  0  0  0  0  0
  -25.2502  -13.8197   20.5692 C   0  0  0  0  0  0
  -24.1804  -13.0443   20.9223 C   0  0  0  0  0  0
  -24.6401  -11.6920   20.8747 C   0  0  0  0  0  0
  -23.9075  -10.4298   21.0409 C   0  0  0  0  0  0
  -24.3626   -9.4215   21.9185 C   0  0  0  0  0  0
  -23.6303   -8.2246   22.0752 C   0  0  0  0  0  0
  -22.4280   -8.0286   21.3546 C   0  0  0  0  0  0
  -21.9920   -9.0258   20.4648 C   0  0  0  0  0  0
  -22.7248  -10.2138   20.3059 C   0  0  0  0  0  0
  -21.6850   -6.0740   22.5284 C   0  0  0  0  0  0
  -21.4012   -6.5642   23.8217 C   0  0  0  0  0  0
  -21.3656   -5.6794   24.9178 C   0  0  0  0  0  0
  -21.6044   -4.3058   24.7228 C   0  0  0  0  0  0
  -21.8816   -3.8150   23.4348 C   0  0  0  0  0  0
  -21.9196   -4.6967   22.3406 C   0  0  0  0  0  0
  -22.7827  -13.5226   21.1877 C   0  0  0  0  0  0
  -22.1664   -4.2154   21.0985 F   0  0  0  0  0  0
  -21.5631   -3.4538   25.7740 F   0  0  0  0  0  0
  -29.9684  -13.6079   20.3866 N   0  0  0  0  0  0
  -26.2922  -12.9412   20.3234 N   0  0  0  0  0  0
  -25.9331  -11.6554   20.5724 N   0  0  0  0  0  0
  -22.0453  -12.8219   22.0419 N   0  0  0  0  0  0
  -25.4179  -15.1927   20.4100 N   0  0  0  0  0  0
  -31.7664  -14.9469   20.1584 O   0  0  0  0  0  0
  -21.6645   -6.8882   21.4248 O   0  0  0  0  0  0
  -22.3522  -14.5531   20.6718 O   0  0  0  0  0  0
  -24.6412  -31.8490   23.1941 C   0  0  0  0  0  0
  -25.9200  -32.4724   23.8305 C   0  0  1  0  0  0
  -27.2047  -27.1613   20.1309 C   0  0  0  0  0  0
  -25.5972  -33.8530   24.2232 N   0  0  0  0  0  0
  -23.4419  -30.4725   21.5416 C   0  0  2  0  0  0
  -24.8878  -28.9150   20.1085 C   0  0  0  0  0  0
  -22.7556  -29.4567   22.4892 C   0  0  0  0  0  0
  -18.0300  -28.1391   22.8482 C   0  0  0  0  0  0
  -24.1485  -36.7247   23.2636 C   0  0  0  0  0  0
  -25.9989  -30.7280   21.3927 C   0  0  0  0  0  0
  -26.0676  -29.3444   20.7296 C   0  0  0  0  0  0
  -27.2272  -28.4820   20.7307 C   0  0  0  0  0  0
  -25.9975  -26.8441   19.4608 C   0  0  0  0  0  0
  -24.8644  -27.6758   19.4610 C   0  0  0  0  0  0
  -23.6647  -29.8129   20.1572 C   0  0  0  0  0  0
  -25.4117  -36.3045   24.0322 C   0  0  1  0  0  0
  -20.5912  -28.3706   23.1250 C   0  0  2  0  0  0
  -20.6789  -26.9421   22.5402 C   0  0  0  0  0  0
  -19.5760  -26.6388   21.5213 C   0  0  0  0  0  0
  -18.1940  -26.7934   22.1621 C   0  0  0  0  0  0
  -19.1556  -28.8868   23.2857 C   0  0  0  0  0  0
  -18.9473  -30.1469   23.8869 C   0  0  0  0  0  0
  -17.6471  -30.6594   24.0554 C   0  0  0  0  0  0
  -25.9069  -34.9424   23.5076 C   0  0  0  0  0  0
  -16.5361  -29.9082   23.6346 C   0  0  0  0  0  0
  -16.7285  -28.6501   23.0371 C   0  0  0  0  0  0
  -26.4531  -31.6569   25.0723 C   0  0  0  0  0  0
  -25.3724  -31.3777   26.1430 C   0  0  0  0  0  0
  -27.0378  -30.2960   24.6283 C   0  0  0  0  0  0
  -27.6074  -32.4314   25.7502 C   0  0  0  0  0  0
  -27.5573  -37.1783   24.8461 C   0  0  0  0  0  0
  -21.4251  -29.3042   22.3635 N   0  0  0  0  0  0
  -26.4281  -37.3755   23.9413 N   0  0  0  0  0  0
  -24.7141  -31.0360   22.0980 N   0  0  0  0  0  0
  -23.4217  -28.8107   23.3022 O   0  0  0  0  0  0
  -28.2341  -26.1537   20.2074 O   0  0  0  0  0  0
  -26.5637  -34.8912   22.4644 O   0  0  0  0  0  0
  -23.5539  -32.1367   23.7176 O   0  0  0  0  0  0
  -28.6098  -23.2585   20.1758 C   0  0  0  0  0  0
  -28.6590  -22.4832   21.3881 C   0  0  0  0  0  0
  -29.1594  -20.4470   20.2590 C   0  0  0  0  0  0
  -29.7442  -18.1090   19.0540 C   0  0  0  0  0  0
  -29.0688  -18.8068   20.2128 C   0  0  1  0  0  0
  -30.0932  -17.5123   20.3906 C   0  0  1  0  0  0
  -27.7859  -22.2436   23.6853 C   0  0  0  0  0  0
  -27.8189  -24.6842   19.9579 C   0  0  0  0  0  0
  -28.8854  -22.5018   19.0561 N   0  0  0  0  0  0
  -28.9426  -21.1223   21.4144 N   0  0  0  0  0  0
  -29.1400  -21.1502   19.0899 N   0  0  0  0  0  0
  -28.3433  -23.0720   22.6210 N   0  0  0  0  0  0
  -29.7626  -16.0123   20.5331 N   0  0  0  0  0  0
  -31.4809  -12.6764   19.1774 H   0  0  0  0  0  0
  -30.4214  -11.5628   19.9938 H   0  0  0  0  0  0
  -29.8274  -11.7295   17.5526 H   0  0  0  0  0  0
  -29.6309  -13.4578   17.7004 H   0  0  0  0  0  0
  -27.9208  -11.2795   18.9362 H   0  0  0  0  0  0
  -27.3919  -12.4951   17.8019 H   0  0  0  0  0  0
  -27.6163  -14.2517   19.4390 H   0  0  0  0  0  0
  -28.7488  -12.2232   21.4273 H   0  0  0  0  0  0
  -28.4015  -13.8996   21.7798 H   0  0  0  0  0  0
  -25.2769   -9.5701   22.4761 H   0  0  0  0  0  0
  -24.0021   -7.4636   22.7465 H   0  0  0  0  0  0
  -21.0850   -8.8781   19.8950 H   0  0  0  0  0  0
  -22.3707  -10.9680   19.6170 H   0  0  0  0  0  0
  -21.1998   -7.6149   23.9724 H   0  0  0  0  0  0
  -21.1479   -6.0522   25.9085 H   0  0  0  0  0  0
  -22.0595   -2.7614   23.2845 H   0  0  0  0  0  0
  -22.4051  -11.9889   22.4838 H   0  0  0  0  0  0
  -21.1063  -13.1249   22.2582 H   0  0  0  0  0  0
  -24.6460  -15.8420   20.5165 H   0  0  0  0  0  0
  -26.2531  -15.6296   20.0427 H   0  0  0  0  0  0
  -26.7257  -32.5339   23.1030 H   0  0  0  0  0  0
  -25.0142  -33.9661   25.0396 H   0  0  0  0  0  0
  -22.7421  -31.2982   21.3961 H   0  0  0  0  0  0
  -23.3763  -35.9556   23.3275 H   0  0  0  0  0  0
  -24.3575  -36.8892   22.2051 H   0  0  0  0  0  0
  -23.7213  -37.6430   23.6679 H   0  0  0  0  0  0
  -26.1513  -31.4845   20.6220 H   0  0  0  0  0  0
  -26.8707  -30.7744   22.0338 H   0  0  0  0  0  0
  -28.1205  -28.8023   21.2487 H   0  0  0  0  0  0
  -25.8658  -25.9109   18.9377 H   0  0  0  0  0  0
  -23.9659  -27.3426   18.9592 H   0  0  0  0  0  0
  -23.7952  -30.5917   19.4052 H   0  0  0  0  0  0
  -22.7804  -29.2536   19.8464 H   0  0  0  0  0  0
  -25.1306  -36.1872   25.0812 H   0  0  0  0  0  0
  -21.0001  -28.3279   24.1375 H   0  0  0  0  0  0
  -20.5693  -26.2320   23.3611 H   0  0  0  0  0  0
  -21.6656  -26.7449   22.1190 H   0  0  0  0  0  0
  -19.6918  -25.6293   21.1257 H   0  0  0  0  0  0
  -19.6699  -27.3188   20.6733 H   0  0  0  0  0  0
  -17.4220  -26.6681   21.4014 H   0  0  0  0  0  0
  -18.0332  -26.0080   22.9023 H   0  0  0  0  0  0
  -19.7948  -30.7294   24.2220 H   0  0  0  0  0  0
  -17.5028  -31.6274   24.5154 H   0  0  0  0  0  0
  -15.5358  -30.2977   23.7689 H   0  0  0  0  0  0
  -15.8685  -28.0815   22.7106 H   0  0  0  0  0  0
  -24.5869  -30.7165   25.7759 H   0  0  0  0  0  0
  -24.8958  -32.2976   26.4820 H   0  0  0  0  0  0
  -25.8004  -30.8961   27.0230 H   0  0  0  0  0  0
  -26.2987  -29.6698   24.1274 H   0  0  0  0  0  0
  -27.3978  -29.7239   25.4844 H   0  0  0  0  0  0
  -27.8913  -30.4193   23.9611 H   0  0  0  0  0  0
  -27.2691  -33.3653   26.2004 H   0  0  0  0  0  0
  -28.3930  -32.6801   25.0355 H   0  0  0  0  0  0
  -28.0683  -31.8472   26.5476 H   0  0  0  0  0  0
  -28.2586  -38.0086   24.7520 H   0  0  0  0  0  0
  -28.1077  -36.2617   24.6283 H   0  0  0  0  0  0
  -27.2296  -37.1424   25.8864 H   0  0  0  0  0  0
  -20.9450  -29.8769   21.6834 H   0  0  0  0  0  0
  -26.0148  -38.2823   24.1422 H   0  0  0  0  0  0
  -30.5400  -18.6466   18.5423 H   0  0  0  0  0  0
  -29.0922  -17.5426   18.3912 H   0  0  0  0  0  0
  -28.0211  -18.5634   20.3783 H   0  0  0  0  0  0
  -31.0638  -17.7901   20.7980 H   0  0  0  0  0  0
  -27.4141  -22.8682   24.4983 H   0  0  0  0  0  0
  -28.5407  -21.5710   24.0947 H   0  0  0  0  0  0
  -26.9537  -21.6397   23.3191 H   0  0  0  0  0  0
  -26.8875  -24.5361   20.5069 H   0  0  0  0  0  0
  -27.5482  -24.6449   18.9029 H   0  0  0  0  0  0
  -28.0941  -24.0570   22.6143 H   0  0  0  0  0  0
  -28.7916  -15.8110   20.7208 H   0  0  0  0  0  0
  1 25  1  0  0  0
  1 30  2  0  0  0
  1 83  1  0  0  0
  2  3  1  0  0  0
  2 25  1  0  0  0
  2 84  1  0  0  0
  2 85  1  0  0  0
  3  4  1  0  0  0
  3 86  1  0  0  0
  3 87  1  0  0  0
  4  5  1  0  0  0
  4 88  1  0  0  0
  4 89  1  0  0  0
  5  6  1  0  0  0
  5 26  1  0  0  0
  5 90  1  0  0  0
  6 25  1  0  0  0
  6 91  1  0  0  0
  6 92  1  0  0  0
  7  8  2  0  0  0
  7 26  1  0  0  0
  7 29  1  0  0  0
  8  9  1  0  0  0
  8 22  1  0  0  0
  9 10  1  0  0  0
  9 27  2  0  0  0
 10 11  2  0  0  0
 10 15  1  0  0  0
 11 12  1  0  0  0
 11 93  1  0  0  0
 12 13  2  0  0  0
 12 94  1  0  0  0
 13 14  1  0  0  0
 13 31  1  0  0  0
 14 15  2  0  0  0
 14 95  1  0  0  0
 15 96  1  0  0  0
 16 17  2  0  0  0
 16 21  1  0  0  0
 16 31  1  0  0  0
 17 18  1  0  0  0
 17 97  1  0  0  0
 18 19  2  0  0  0
 18 98  1  0  0  0
 19 20  1  0  0  0
 19 24  1  0  0  0
 20 21  2  0  0  0
 20 99  1  0  0  0
 21 23  1  0  0  0
 22 28  1  0  0  0
 22 32  2  0  0  0
 26 27  1  0  0  0
 28100  1  0  0  0
 28101  1  0  0  0
 29102  1  0  0  0
 29103  1  0  0  0
 33 34  1  0  0  0
 33 66  1  0  0  0
 33 70  2  0  0  0
 34 36  1  0  0  0
 34 59  1  0  0  0
 34104  1  0  0  0
 35 44  2  0  0  0
 35 45  1  0  0  0
 35 68  1  0  0  0
 36 56  1  0  0  0
 36105  1  0  0  0
 37 39  1  0  0  0
 37 47  1  0  0  0
 37 66  1  0  0  0
 37106  1  0  0  0
 38 43  2  0  0  0
 38 46  1  0  0  0
 38 47  1  0  0  0
 39 64  1  0  0  0
 39 67  2  0  0  0
 40 52  1  0  0  0
 40 53  2  0  0  0
 40 58  1  0  0  0
 41107  1  0  0  0
 41108  1  0  0  0
 41109  1  0  0  0
 41 48  1  0  0  0
 42 43  1  0  0  0
 42 66  1  0  0  0
 42110  1  0  0  0
 42111  1  0  0  0
 43 44  1  0  0  0
 44112  1  0  0  0
 45 46  2  0  0  0
 45113  1  0  0  0
 46114  1  0  0  0
 47115  1  0  0  0
 47116  1  0  0  0
 48 56  1  0  0  0
 48 65  1  0  0  0
 48117  1  0  0  0
 49 50  1  0  0  0
 49 53  1  0  0  0
 49 64  1  0  0  0
 49118  1  0  0  0
 50 51  1  0  0  0
 50119  1  0  0  0
 50120  1  0  0  0
 51 52  1  0  0  0
 51121  1  0  0  0
 51122  1  0  0  0
 52123  1  0  0  0
 52124  1  0  0  0
 53 54  1  0  0  0
 54 55  2  0  0  0
 54125  1  0  0  0
 55 57  1  0  0  0
 55126  1  0  0  0
 56 69  2  0  0  0
 57 58  2  0  0  0
 57127  1  0  0  0
 58128  1  0  0  0
 59 60  1  0  0  0
 59 61  1  0  0  0
 59 62  1  0  0  0
 60129  1  0  0  0
 60130  1  0  0  0
 60131  1  0  0  0
 61132  1  0  0  0
 61133  1  0  0  0
 61134  1  0  0  0
 62135  1  0  0  0
 62136  1  0  0  0
 62137  1  0  0  0
 63 65  1  0  0  0
 63138  1  0  0  0
 63139  1  0  0  0
 63140  1  0  0  0
 64141  1  0  0  0
 65142  1  0  0  0
 68 78  1  0  0  0
 71 72  2  0  0  0
 71 78  1  0  0  0
 71 79  1  0  0  0
 72 80  1  0  0  0
 72 82  1  0  0  0
 73 80  2  0  0  0
 73 81  1  0  0  0
 73 75  1  0  0  0
 74 75  1  0  0  0
 74 76  1  0  0  0
 74143  1  0  0  0
 74144  1  0  0  0
 75 76  1  0  0  0
 75145  1  0  0  0
 76 83  1  0  0  0
 76146  1  0  0  0
 77 82  1  0  0  0
 77147  1  0  0  0
 77148  1  0  0  0
 77149  1  0  0  0
 78150  1  0  0  0
 78151  1  0  0  0
 79 81  2  0  0  0
 82152  1  0  0  0
 83153  1  0  0  0
M  ISO  4   1 100  68 101  78 101  83 100
M  END
> <chiral flag>
0

> <version>
0

> <s_m_source_file>
/data/baiqing/PycharmProjects/Reinvent-master-3.2/result/LINK_invent/BTK/process_docking_weight1_custom_sum_contain_oxygen_bond_distance_aromatic_linkinvent_7_9_3/rearranged_h_0187.sdf

> <i_m_source_file_index>
58

> <r_mmod_Potential_Energy-OPLS-2005>
477.478607177734

> <r_mmod_Stretch_Energy-OPLS-2005>
215.988006591797

> <r_mmod_Bend_Energy-OPLS-2005>
252.835250854492

> <r_mmod_Torsional_Energy-OPLS-2005>
261.808349609375

> <r_mmod_Improper_Torsional_Energy-OPLS-2005>
13.5867252349854

> <r_mmod_Van_der_Waal_Energy-OPLS-2005>
148.624816894531

> <r_mmod_Electrostatic_Energy-OPLS-2005>
-314.269409179688

> <r_mmod_Solvation_Energy-OPLS-2005>
-257.490325927734

> <b_mmod_Minimization_Converged-OPLS-2005>
0

> <r_mmod_RMS_Derivative-OPLS-2005>
1.35653591156006

$$$$
58
                    3D
 Structure written by MMmdl.
156166  0  0  1  0            999 V2000
  -30.5464  -15.0016   20.4126 C   0  0  0  0  0  0
  -30.4343  -12.6281   19.5020 C   0  0  0  0  0  0
  -29.5221  -12.5457   18.2564 C   0  0  0  0  0  0
  -28.0577  -12.3201   18.6743 C   0  0  0  0  0  0
  -27.6252  -13.2592   19.8313 C   0  0  2  0  0  0
  -28.6659  -13.3264   20.9691 C   0  0  0  0  0  0
  -25.2459  -13.8236   20.5721 C   0  0  0  0  0  0
  -24.1778  -13.0451   20.9221 C   0  0  0  0  0  0
  -24.6399  -11.6939   20.8734 C   0  0  0  0  0  0
  -23.9085  -10.4303   21.0388 C   0  0  0  0  0  0
  -24.3634   -9.4216   21.9168 C   0  0  0  0  0  0
  -23.6312   -8.2249   22.0744 C   0  0  0  0  0  0
  -22.4294   -8.0280   21.3533 C   0  0  0  0  0  0
  -21.9930   -9.0252   20.4634 C   0  0  0  0  0  0
  -22.7258  -10.2132   20.3038 C   0  0  0  0  0  0
  -21.6856   -6.0737   22.5279 C   0  0  0  0  0  0
  -21.4009   -6.5641   23.8210 C   0  0  0  0  0  0
  -21.3663   -5.6790   24.9173 C   0  0  0  0  0  0
  -21.6048   -4.3055   24.7220 C   0  0  0  0  0  0
  -21.8821   -3.8144   23.4339 C   0  0  0  0  0  0
  -21.9194   -4.6960   22.3398 C   0  0  0  0  0  0
  -22.7794  -13.5212   21.1879 C   0  0  0  0  0  0
  -22.1665   -4.2146   21.0974 F   0  0  0  0  0  0
  -21.5635   -3.4540   25.7734 F   0  0  0  0  0  0
  -29.9326  -13.7458   20.3578 N   0  0  0  0  0  0
  -26.2874  -12.9482   20.3222 N   0  0  0  0  0  0
  -25.9330  -11.6601   20.5702 N   0  0  0  0  0  0
  -22.0450  -12.8189   22.0429 N   0  0  0  0  0  0
  -25.4169  -15.1961   20.4183 N   0  0  0  0  0  0
  -31.7549  -15.0200   20.1528 O   0  0  0  0  0  0
  -21.6651   -6.8880   21.4240 O   0  0  0  0  0  0
  -22.3471  -14.5512   20.6722 O   0  0  0  0  0  0
  -24.6493  -31.8396   23.1856 C   0  0  0  0  0  0
  -25.9247  -32.4669   23.8257 C   0  0  1  0  0  0
  -27.2114  -27.0811   20.1548 C   0  0  0  0  0  0
  -25.5978  -33.8475   24.2172 N   0  0  0  0  0  0
  -23.4553  -30.4593   21.5334 C   0  0  2  0  0  0
  -24.9049  -28.8817   20.1110 C   0  0  0  0  0  0
  -22.7598  -29.4528   22.4856 C   0  0  0  0  0  0
  -18.0304  -28.1409   22.8468 C   0  0  0  0  0  0
  -24.1489  -36.7237   23.2642 C   0  0  0  0  0  0
  -26.0169  -30.6958   21.3939 C   0  0  0  0  0  0
  -26.0868  -29.3030   20.7343 C   0  0  0  0  0  0
  -27.2404  -28.4205   20.7386 C   0  0  0  0  0  0
  -26.0021  -26.7866   19.4817 C   0  0  0  0  0  0
  -24.8795  -27.6388   19.4679 C   0  0  0  0  0  0
  -23.6846  -29.7892   20.1533 C   0  0  0  0  0  0
  -25.4124  -36.3014   24.0313 C   0  0  1  0  0  0
  -20.5916  -28.3733   23.1222 C   0  0  2  0  0  0
  -20.6784  -26.9429   22.5407 C   0  0  0  0  0  0
  -19.5766  -26.6384   21.5207 C   0  0  0  0  0  0
  -18.1945  -26.7945   22.1612 C   0  0  0  0  0  0
  -19.1559  -28.8888   23.2835 C   0  0  0  0  0  0
  -18.9476  -30.1482   23.8867 C   0  0  0  0  0  0
  -17.6469  -30.6598   24.0555 C   0  0  0  0  0  0
  -25.9088  -34.9391   23.5052 C   0  0  0  0  0  0
  -16.5361  -29.9086   23.6339 C   0  0  0  0  0  0
  -16.7289  -28.6511   23.0355 C   0  0  0  0  0  0
  -26.4543  -31.6557   25.0721 C   0  0  0  0  0  0
  -25.3712  -31.3758   26.1404 C   0  0  0  0  0  0
  -27.0415  -30.2944   24.6350 C   0  0  0  0  0  0
  -27.6079  -32.4318   25.7507 C   0  0  0  0  0  0
  -27.5574  -37.1774   24.8461 C   0  0  0  0  0  0
  -21.4283  -29.3048   22.3596 N   0  0  0  0  0  0
  -26.4278  -37.3735   23.9414 N   0  0  0  0  0  0
  -24.7275  -31.0206   22.0920 N   0  0  0  0  0  0
  -23.4218  -28.8073   23.3020 O   0  0  0  0  0  0
  -28.2264  -26.0360   20.2353 O   0  0  0  0  0  0
  -26.5667  -34.8890   22.4627 O   0  0  0  0  0  0
  -23.5597  -32.1293   23.7046 O   0  0  0  0  0  0
  -29.2635  -20.9471   19.2195 C   0  0  0  0  0  0
  -29.3110  -20.1347   20.4006 C   0  0  0  0  0  0
  -29.0037  -21.0095   21.5034 C   0  0  0  0  0  0
  -28.6335  -23.0575   20.2395 C   0  0  0  0  0  0
  -29.8005  -21.1860   24.0048 C   0  0  0  0  0  0
  -30.2752  -19.8569   23.4844 C   0  0  0  0  0  0
  -29.3117  -17.2561   21.3384 C   0  0  0  0  0  0
  -29.9565  -17.4000   19.3671 C   0  0  0  0  0  0
  -29.7868  -18.5184   20.4794 C   0  0  0  0  0  0
  -29.0212  -20.4853   22.9097 C   0  0  0  0  0  0
  -27.8124  -24.5190   20.0697 C   0  0  0  0  0  0
  -28.9370  -22.3032   19.1508 N   0  0  0  0  0  0
  -28.6577  -22.3644   21.4087 N   0  0  0  0  0  0
  -29.7947  -16.2278   20.3259 N   0  0  0  0  0  0
  -31.4682  -12.7830   19.1885 H   0  0  0  0  0  0
  -30.4296  -11.6863   20.0527 H   0  0  0  0  0  0
  -29.8548  -11.7460   17.5937 H   0  0  0  0  0  0
  -29.6008  -13.4710   17.6836 H   0  0  0  0  0  0
  -27.9617  -11.2802   18.9876 H   0  0  0  0  0  0
  -27.3949  -12.4427   17.8161 H   0  0  0  0  0  0
  -27.5767  -14.2554   19.3898 H   0  0  0  0  0  0
  -28.7655  -12.3666   21.4772 H   0  0  0  0  0  0
  -28.3560  -14.0536   21.7224 H   0  0  0  0  0  0
  -25.2770   -9.5698   22.4749 H   0  0  0  0  0  0
  -24.0020   -7.4639   22.7469 H   0  0  0  0  0  0
  -21.0857   -8.8764   19.8941 H   0  0  0  0  0  0
  -22.3704  -10.9666   19.6148 H   0  0  0  0  0  0
  -21.1995   -7.6148   23.9715 H   0  0  0  0  0  0
  -21.1488   -6.0518   25.9078 H   0  0  0  0  0  0
  -22.0597   -2.7607   23.2837 H   0  0  0  0  0  0
  -22.4079  -11.9856   22.4811 H   0  0  0  0  0  0
  -21.1052  -13.1176   22.2617 H   0  0  0  0  0  0
  -24.6583  -15.8585   20.5353 H   0  0  0  0  0  0
  -26.2821  -15.6303   20.1210 H   0  0  0  0  0  0
  -26.7319  -32.5252   23.0982 H   0  0  0  0  0  0
  -25.0107  -33.9580   25.0309 H   0  0  0  0  0  0
  -22.7610  -31.2871   21.3768 H   0  0  0  0  0  0
  -23.3761  -35.9558   23.3277 H   0  0  0  0  0  0
  -24.3581  -36.8898   22.2064 H   0  0  0  0  0  0
  -23.7227  -37.6415   23.6702 H   0  0  0  0  0  0
  -26.1772  -31.4472   20.6192 H   0  0  0  0  0  0
  -26.8858  -30.7484   22.0387 H   0  0  0  0  0  0
  -28.1364  -28.7371   21.2537 H   0  0  0  0  0  0
  -25.8681  -25.8457   18.9730 H   0  0  0  0  0  0
  -23.9798  -27.3119   18.9636 H   0  0  0  0  0  0
  -23.8250  -30.5628   19.3977 H   0  0  0  0  0  0
  -22.7981  -29.2343   19.8415 H   0  0  0  0  0  0
  -25.1311  -36.1830   25.0803 H   0  0  0  0  0  0
  -20.9998  -28.3319   24.1346 H   0  0  0  0  0  0
  -20.5654  -26.2350   23.3630 H   0  0  0  0  0  0
  -21.6652  -26.7425   22.1210 H   0  0  0  0  0  0
  -19.6923  -25.6284   21.1262 H   0  0  0  0  0  0
  -19.6706  -27.3171   20.6719 H   0  0  0  0  0  0
  -17.4212  -26.6680   21.4016 H   0  0  0  0  0  0
  -18.0346  -26.0100   22.9017 H   0  0  0  0  0  0
  -19.7949  -30.7304   24.2224 H   0  0  0  0  0  0
  -17.5024  -31.6272   24.5163 H   0  0  0  0  0  0
  -15.5360  -30.2976   23.7699 H   0  0  0  0  0  0
  -15.8684  -28.0824   22.7089 H   0  0  0  0  0  0
  -24.5940  -30.7043   25.7730 H   0  0  0  0  0  0
  -24.8833  -32.2932   26.4712 H   0  0  0  0  0  0
  -25.7986  -30.9028   27.0256 H   0  0  0  0  0  0
  -26.3051  -29.6657   24.1329 H   0  0  0  0  0  0
  -27.3973  -29.7257   25.4952 H   0  0  0  0  0  0
  -27.8982  -30.4157   23.9716 H   0  0  0  0  0  0
  -27.2701  -33.3665   26.1989 H   0  0  0  0  0  0
  -28.3942  -32.6792   25.0365 H   0  0  0  0  0  0
  -28.0687  -31.8493   26.5494 H   0  0  0  0  0  0
  -28.2565  -38.0093   24.7524 H   0  0  0  0  0  0
  -28.1089  -36.2624   24.6259 H   0  0  0  0  0  0
  -27.2299  -37.1382   25.8862 H   0  0  0  0  0  0
  -20.9519  -29.8762   21.6757 H   0  0  0  0  0  0
  -26.0135  -38.2793   24.1432 H   0  0  0  0  0  0
  -29.4983  -20.4921   18.2682 H   0  0  0  0  0  0
  -30.3791  -22.0669   23.7329 H   0  0  0  0  0  0
  -29.3742  -21.1951   25.0051 H   0  0  0  0  0  0
  -30.1555  -18.9969   24.1396 H   0  0  0  0  0  0
  -31.1776  -19.8610   22.8770 H   0  0  0  0  0  0
  -28.2286  -17.2265   21.4691 H   0  0  0  0  0  0
  -29.7981  -17.1915   22.3126 H   0  0  0  0  0  0
  -30.9233  -17.4425   18.8620 H   0  0  0  0  0  0
  -29.1594  -17.4331   18.6234 H   0  0  0  0  0  0
  -30.8133  -18.6763   20.8131 H   0  0  0  0  0  0
  -28.0648  -20.0353   23.1697 H   0  0  0  0  0  0
  -26.9302  -24.3971   20.6989 H   0  0  0  0  0  0
  -27.4443  -24.4474   19.0474 H   0  0  0  0  0  0
  1 25  1  0  0  0
  1 30  2  0  0  0
  1 84  1  0  0  0
  2  3  1  0  0  0
  2 25  1  0  0  0
  2 85  1  0  0  0
  2 86  1  0  0  0
  3  4  1  0  0  0
  3 87  1  0  0  0
  3 88  1  0  0  0
  4  5  1  0  0  0
  4 89  1  0  0  0
  4 90  1  0  0  0
  5  6  1  0  0  0
  5 26  1  0  0  0
  5 91  1  0  0  0
  6 25  1  0  0  0
  6 92  1  0  0  0
  6 93  1  0  0  0
  7  8  2  0  0  0
  7 26  1  0  0  0
  7 29  1  0  0  0
  8  9  1  0  0  0
  8 22  1  0  0  0
  9 10  1  0  0  0
  9 27  2  0  0  0
 10 11  2  0  0  0
 10 15  1  0  0  0
 11 12  1  0  0  0
 11 94  1  0  0  0
 12 13  2  0  0  0
 12 95  1  0  0  0
 13 14  1  0  0  0
 13 31  1  0  0  0
 14 15  2  0  0  0
 14 96  1  0  0  0
 15 97  1  0  0  0
 16 17  2  0  0  0
 16 21  1  0  0  0
 16 31  1  0  0  0
 17 18  1  0  0  0
 17 98  1  0  0  0
 18 19  2  0  0  0
 18 99  1  0  0  0
 19 20  1  0  0  0
 19 24  1  0  0  0
 20 21  2  0  0  0
 20100  1  0  0  0
 21 23  1  0  0  0
 22 28  1  0  0  0
 22 32  2  0  0  0
 26 27  1  0  0  0
 28101  1  0  0  0
 28102  1  0  0  0
 29103  1  0  0  0
 29104  1  0  0  0
 33 34  1  0  0  0
 33 66  1  0  0  0
 33 70  2  0  0  0
 34 36  1  0  0  0
 34 59  1  0  0  0
 34105  1  0  0  0
 35 44  2  0  0  0
 35 45  1  0  0  0
 35 68  1  0  0  0
 36 56  1  0  0  0
 36106  1  0  0  0
 37 39  1  0  0  0
 37 47  1  0  0  0
 37 66  1  0  0  0
 37107  1  0  0  0
 38 43  2  0  0  0
 38 46  1  0  0  0
 38 47  1  0  0  0
 39 64  1  0  0  0
 39 67  2  0  0  0
 40 52  1  0  0  0
 40 53  2  0  0  0
 40 58  1  0  0  0
 41108  1  0  0  0
 41109  1  0  0  0
 41110  1  0  0  0
 41 48  1  0  0  0
 42 43  1  0  0  0
 42 66  1  0  0  0
 42111  1  0  0  0
 42112  1  0  0  0
 43 44  1  0  0  0
 44113  1  0  0  0
 45 46  2  0  0  0
 45114  1  0  0  0
 46115  1  0  0  0
 47116  1  0  0  0
 47117  1  0  0  0
 48 56  1  0  0  0
 48 65  1  0  0  0
 48118  1  0  0  0
 49 50  1  0  0  0
 49 53  1  0  0  0
 49 64  1  0  0  0
 49119  1  0  0  0
 50 51  1  0  0  0
 50120  1  0  0  0
 50121  1  0  0  0
 51 52  1  0  0  0
 51122  1  0  0  0
 51123  1  0  0  0
 52124  1  0  0  0
 52125  1  0  0  0
 53 54  1  0  0  0
 54 55  2  0  0  0
 54126  1  0  0  0
 55 57  1  0  0  0
 55127  1  0  0  0
 56 69  2  0  0  0
 57 58  2  0  0  0
 57128  1  0  0  0
 58129  1  0  0  0
 59 60  1  0  0  0
 59 61  1  0  0  0
 59 62  1  0  0  0
 60130  1  0  0  0
 60131  1  0  0  0
 60132  1  0  0  0
 61133  1  0  0  0
 61134  1  0  0  0
 61135  1  0  0  0
 62136  1  0  0  0
 62137  1  0  0  0
 62138  1  0  0  0
 63 65  1  0  0  0
 63139  1  0  0  0
 63140  1  0  0  0
 63141  1  0  0  0
 64142  1  0  0  0
 65143  1  0  0  0
 68 81  1  0  0  0
 71 72  2  0  0  0
 71 82  1  0  0  0
 71144  1  0  0  0
 72 73  1  0  0  0
 72 79  1  0  0  0
 73 83  2  0  0  0
 73 80  1  0  0  0
 74 81  1  0  0  0
 74 82  2  0  0  0
 74 83  1  0  0  0
 75 76  1  0  0  0
 75 80  1  0  0  0
 75145  1  0  0  0
 75146  1  0  0  0
 76 80  1  0  0  0
 76147  1  0  0  0
 76148  1  0  0  0
 77 79  1  0  0  0
 77 84  1  0  0  0
 77149  1  0  0  0
 77150  1  0  0  0
 78 79  1  0  0  0
 78 84  1  0  0  0
 78151  1  0  0  0
 78152  1  0  0  0
 79153  1  0  0  0
 80154  1  0  0  0
 81155  1  0  0  0
 81156  1  0  0  0
M  ISO  4   1 100  68 101  81 101  84 100
M  END
> <chiral flag>
0

> <version>
0

> <s_m_source_file>
/data/baiqing/PycharmProjects/Reinvent-master-3.2/result/LINK_invent/BTK/process_docking_weight1_custom_sum_contain_oxygen_bond_distance_aromatic_linkinvent_7_9_3/rearranged_h_0187.sdf

> <i_m_source_file_index>
59

> <r_mmod_Potential_Energy-OPLS-2005>
359.873352050781

> <r_mmod_Stretch_Energy-OPLS-2005>
266.689575195312

> <r_mmod_Bend_Energy-OPLS-2005>
319.956268310547

> <r_mmod_Torsional_Energy-OPLS-2005>
306.597106933594

> <r_mmod_Improper_Torsional_Energy-OPLS-2005>
21.1829032897949

> <r_mmod_Van_der_Waal_Energy-OPLS-2005>
131.231353759766

> <r_mmod_Electrostatic_Energy-OPLS-2005>
-699.991271972656

> <r_mmod_Solvation_Energy-OPLS-2005>
-227.50895690918

> <b_mmod_Minimization_Converged-OPLS-2005>
0

> <r_mmod_RMS_Derivative-OPLS-2005>
1.51152718067169

$$$$
59
                    3D
 Structure written by MMmdl.
157166  0  0  1  0            999 V2000
  -30.6457  -14.6240   20.4654 C   0  0  0  0  0  0
  -30.4255  -12.3720   19.4622 C   0  0  0  0  0  0
  -29.5043  -12.4878   18.2283 C   0  0  0  0  0  0
  -28.0269  -12.3352   18.6402 C   0  0  0  0  0  0
  -27.6495  -13.2189   19.8599 C   0  0  2  0  0  0
  -28.6939  -13.1011   20.9936 C   0  0  0  0  0  0
  -25.2542  -13.8179   20.5687 C   0  0  0  0  0  0
  -24.1818  -13.0446   20.9199 C   0  0  0  0  0  0
  -24.6385  -11.6913   20.8746 C   0  0  0  0  0  0
  -23.9058  -10.4299   21.0412 C   0  0  0  0  0  0
  -24.3615   -9.4213   21.9187 C   0  0  0  0  0  0
  -23.6292   -8.2247   22.0760 C   0  0  0  0  0  0
  -22.4271   -8.0287   21.3550 C   0  0  0  0  0  0
  -21.9906   -9.0257   20.4652 C   0  0  0  0  0  0
  -22.7233  -10.2137   20.3063 C   0  0  0  0  0  0
  -21.6852   -6.0739   22.5278 C   0  0  0  0  0  0
  -21.4015   -6.5642   23.8209 C   0  0  0  0  0  0
  -21.3660   -5.6794   24.9173 C   0  0  0  0  0  0
  -21.6041   -4.3057   24.7222 C   0  0  0  0  0  0
  -21.8818   -3.8151   23.4341 C   0  0  0  0  0  0
  -21.9191   -4.6969   22.3400 C   0  0  0  0  0  0
  -22.7843  -13.5241   21.1855 C   0  0  0  0  0  0
  -22.1660   -4.2157   21.0976 F   0  0  0  0  0  0
  -21.5630   -3.4539   25.7731 F   0  0  0  0  0  0
  -30.0100  -13.4135   20.4216 N   0  0  0  0  0  0
  -26.2973  -12.9364   20.3323 N   0  0  0  0  0  0
  -25.9312  -11.6518   20.5770 N   0  0  0  0  0  0
  -22.0473  -12.8240   22.0406 N   0  0  0  0  0  0
  -25.4252  -15.1902   20.4080 N   0  0  0  0  0  0
  -31.8222  -14.7429   20.1122 O   0  0  0  0  0  0
  -21.6642   -6.8879   21.4238 O   0  0  0  0  0  0
  -22.3534  -14.5547   20.6699 O   0  0  0  0  0  0
  -24.6241  -31.8603   23.2031 C   0  0  0  0  0  0
  -25.9093  -32.4785   23.8357 C   0  0  1  0  0  0
  -27.2313  -27.3369   20.1081 C   0  0  0  0  0  0
  -25.5909  -33.8585   24.2285 N   0  0  0  0  0  0
  -23.4175  -30.4842   21.5437 C   0  0  2  0  0  0
  -24.8640  -28.9370   20.1108 C   0  0  0  0  0  0
  -22.7457  -29.4638   22.4927 C   0  0  0  0  0  0
  -18.0281  -28.1387   22.8488 C   0  0  0  0  0  0
  -24.1481  -36.7295   23.2640 C   0  0  0  0  0  0
  -25.9555  -30.7954   21.3709 C   0  0  0  0  0  0
  -26.0297  -29.4229   20.7149 C   0  0  0  0  0  0
  -27.2127  -28.6319   20.7073 C   0  0  0  0  0  0
  -26.0401  -26.8908   19.4917 C   0  0  0  0  0  0
  -24.8697  -27.6748   19.4948 C   0  0  0  0  0  0
  -23.6316  -29.8161   20.1592 C   0  0  0  0  0  0
  -25.4106  -36.3089   24.0334 C   0  0  1  0  0  0
  -20.5877  -28.3696   23.1275 C   0  0  2  0  0  0
  -20.6761  -26.9414   22.5408 C   0  0  0  0  0  0
  -19.5742  -26.6387   21.5208 C   0  0  0  0  0  0
  -18.1926  -26.7934   22.1624 C   0  0  0  0  0  0
  -19.1532  -28.8855   23.2882 C   0  0  0  0  0  0
  -18.9461  -30.1456   23.8911 C   0  0  0  0  0  0
  -17.6464  -30.6594   24.0567 C   0  0  0  0  0  0
  -25.9041  -34.9459   23.5113 C   0  0  0  0  0  0
  -16.5352  -29.9099   23.6325 C   0  0  0  0  0  0
  -16.7268  -28.6509   23.0355 C   0  0  0  0  0  0
  -26.4494  -31.6593   25.0722 C   0  0  0  0  0  0
  -25.3740  -31.3725   26.1459 C   0  0  0  0  0  0
  -27.0332  -30.3019   24.6160 C   0  0  0  0  0  0
  -27.6050  -32.4327   25.7490 C   0  0  0  0  0  0
  -27.5574  -37.1803   24.8467 C   0  0  0  0  0  0
  -21.4169  -29.3058   22.3670 N   0  0  0  0  0  0
  -26.4289  -37.3781   23.9412 N   0  0  0  0  0  0
  -24.6843  -31.0634   22.0967 N   0  0  0  0  0  0
  -23.4186  -28.8175   23.2997 O   0  0  0  0  0  0
  -28.3755  -26.5331   20.1612 O   0  0  0  0  0  0
  -26.5610  -34.8928   22.4679 O   0  0  0  0  0  0
  -23.5412  -32.1381   23.7378 O   0  0  0  0  0  0
  -28.9639  -18.0245   19.7783 C   0  0  0  0  0  0
  -30.4309  -18.2278   21.2171 C   0  0  0  0  0  0
  -29.7177  -24.4027   19.7570 C   0  0  0  0  0  0
  -27.6975  -23.9847   20.3213 C   0  0  0  0  0  0
  -29.7792  -19.2762   20.2489 C   0  0  2  0  0  0
  -30.1725  -17.1203   20.1637 C   0  0  1  0  0  0
  -29.0442  -23.2243   20.5204 C   0  0  2  0  0  0
  -28.3833  -25.1779   19.5861 C   0  0  1  0  0  0
  -29.1218  -20.6191   20.7905 C   0  0  0  0  0  0
  -29.8623  -15.7306   20.6500 N   0  0  0  0  0  0
  -29.2251  -21.8418   19.8998 N   0  3  0  0  0  0
  -31.4706  -12.4733   19.1649 H   0  0  0  0  0  0
  -30.3409  -11.3852   19.9198 H   0  0  0  0  0  0
  -29.7657  -11.7269   17.4919 H   0  0  0  0  0  0
  -29.6558  -13.4524   17.7405 H   0  0  0  0  0  0
  -27.8624  -11.2852   18.8834 H   0  0  0  0  0  0
  -27.3731  -12.5558   17.7957 H   0  0  0  0  0  0
  -27.6611  -14.2487   19.5042 H   0  0  0  0  0  0
  -28.6965  -12.0957   21.4168 H   0  0  0  0  0  0
  -28.4512  -13.7744   21.8171 H   0  0  0  0  0  0
  -25.2754   -9.5695   22.4771 H   0  0  0  0  0  0
  -24.0002   -7.4639   22.7479 H   0  0  0  0  0  0
  -21.0841   -8.8777   19.8954 H   0  0  0  0  0  0
  -22.3688  -10.9683   19.6185 H   0  0  0  0  0  0
  -21.2008   -7.6149   23.9717 H   0  0  0  0  0  0
  -21.1484   -6.0522   25.9076 H   0  0  0  0  0  0
  -22.0597   -2.7615   23.2835 H   0  0  0  0  0  0
  -22.4076  -11.9903   22.4811 H   0  0  0  0  0  0
  -21.1099  -13.1291   22.2607 H   0  0  0  0  0  0
  -24.6539  -15.8415   20.5093 H   0  0  0  0  0  0
  -26.2654  -15.6260   20.0500 H   0  0  0  0  0  0
  -26.7160  -32.5466   23.1109 H   0  0  0  0  0  0
  -25.0064  -33.9722   25.0437 H   0  0  0  0  0  0
  -22.7110  -31.3048   21.3998 H   0  0  0  0  0  0
  -23.3745  -35.9626   23.3316 H   0  0  0  0  0  0
  -24.3567  -36.8899   22.2049 H   0  0  0  0  0  0
  -23.7230  -37.6503   23.6651 H   0  0  0  0  0  0
  -26.0813  -31.5581   20.6013 H   0  0  0  0  0  0
  -26.8378  -30.8461   21.9979 H   0  0  0  0  0  0
  -28.1093  -29.0007   21.1866 H   0  0  0  0  0  0
  -25.9841  -25.9220   19.0192 H   0  0  0  0  0  0
  -23.9733  -27.2930   19.0260 H   0  0  0  0  0  0
  -23.7502  -30.5911   19.4008 H   0  0  0  0  0  0
  -22.7530  -29.2439   19.8574 H   0  0  0  0  0  0
  -25.1285  -36.1949   25.0829 H   0  0  0  0  0  0
  -20.9975  -28.3277   24.1393 H   0  0  0  0  0  0
  -20.5641  -26.2310   23.3612 H   0  0  0  0  0  0
  -21.6633  -26.7431   22.1216 H   0  0  0  0  0  0
  -19.6900  -25.6299   21.1237 H   0  0  0  0  0  0
  -19.6683  -27.3199   20.6739 H   0  0  0  0  0  0
  -17.4184  -26.6678   21.4033 H   0  0  0  0  0  0
  -18.0337  -26.0076   22.9022 H   0  0  0  0  0  0
  -19.7942  -30.7257   24.2296 H   0  0  0  0  0  0
  -17.5027  -31.6277   24.5162 H   0  0  0  0  0  0
  -15.5359  -30.3010   23.7645 H   0  0  0  0  0  0
  -15.8665  -28.0834   22.7076 H   0  0  0  0  0  0
  -24.5915  -30.7065   25.7808 H   0  0  0  0  0  0
  -24.8935  -32.2887   26.4899 H   0  0  0  0  0  0
  -25.8084  -30.8907   27.0227 H   0  0  0  0  0  0
  -26.2899  -29.6773   24.1191 H   0  0  0  0  0  0
  -27.4041  -29.7274   25.4659 H   0  0  0  0  0  0
  -27.8765  -30.4312   23.9369 H   0  0  0  0  0  0
  -27.2656  -33.3619   26.2085 H   0  0  0  0  0  0
  -28.3858  -32.6903   25.0318 H   0  0  0  0  0  0
  -28.0726  -31.8442   26.5395 H   0  0  0  0  0  0
  -28.2606  -38.0088   24.7504 H   0  0  0  0  0  0
  -28.1054  -36.2617   24.6310 H   0  0  0  0  0  0
  -27.2287  -37.1476   25.8871 H   0  0  0  0  0  0
  -20.9339  -29.8800   21.6905 H   0  0  0  0  0  0
  -26.0173  -38.2858   24.1422 H   0  0  0  0  0  0
  -28.7213  -18.0180   18.7144 H   0  0  0  0  0  0
  -28.0706  -17.8478   20.3816 H   0  0  0  0  0  0
  -29.8672  -18.0900   22.1425 H   0  0  0  0  0  0
  -31.4872  -18.4040   21.4273 H   0  0  0  0  0  0
  -30.1590  -24.1167   18.8014 H   0  0  0  0  0  0
  -30.4474  -24.9369   20.3676 H   0  0  0  0  0  0
  -26.9835  -23.4554   19.6881 H   0  0  0  0  0  0
  -27.2321  -24.2780   21.2632 H   0  0  0  0  0  0
  -30.5223  -19.5174   19.4859 H   0  0  0  0  0  0
  -30.9323  -17.1364   19.3780 H   0  0  0  0  0  0
  -29.3545  -23.2315   21.5669 H   0  0  0  0  0  0
  -28.1125  -25.2067   18.5288 H   0  0  0  0  0  0
  -29.5993  -20.8733   21.7364 H   0  0  0  0  0  0
  -28.0714  -20.4574   21.0323 H   0  0  0  0  0  0
  -28.9125  -15.5472   20.9363 H   0  0  0  0  0  0
  -30.1660  -21.8195   19.5421 H   0  0  0  0  0  0
  -28.6181  -21.7221   19.1049 H   0  0  0  0  0  0
  1 25  1  0  0  0
  1 30  2  0  0  0
  1 80  1  0  0  0
  2  3  1  0  0  0
  2 25  1  0  0  0
  2 82  1  0  0  0
  2 83  1  0  0  0
  3  4  1  0  0  0
  3 84  1  0  0  0
  3 85  1  0  0  0
  4  5  1  0  0  0
  4 86  1  0  0  0
  4 87  1  0  0  0
  5  6  1  0  0  0
  5 26  1  0  0  0
  5 88  1  0  0  0
  6 25  1  0  0  0
  6 89  1  0  0  0
  6 90  1  0  0  0
  7  8  2  0  0  0
  7 26  1  0  0  0
  7 29  1  0  0  0
  8  9  1  0  0  0
  8 22  1  0  0  0
  9 10  1  0  0  0
  9 27  2  0  0  0
 10 11  2  0  0  0
 10 15  1  0  0  0
 11 12  1  0  0  0
 11 91  1  0  0  0
 12 13  2  0  0  0
 12 92  1  0  0  0
 13 14  1  0  0  0
 13 31  1  0  0  0
 14 15  2  0  0  0
 14 93  1  0  0  0
 15 94  1  0  0  0
 16 17  2  0  0  0
 16 21  1  0  0  0
 16 31  1  0  0  0
 17 18  1  0  0  0
 17 95  1  0  0  0
 18 19  2  0  0  0
 18 96  1  0  0  0
 19 20  1  0  0  0
 19 24  1  0  0  0
 20 21  2  0  0  0
 20 97  1  0  0  0
 21 23  1  0  0  0
 22 28  1  0  0  0
 22 32  2  0  0  0
 26 27  1  0  0  0
 28 98  1  0  0  0
 28 99  1  0  0  0
 29100  1  0  0  0
 29101  1  0  0  0
 33 34  1  0  0  0
 33 66  1  0  0  0
 33 70  2  0  0  0
 34 36  1  0  0  0
 34 59  1  0  0  0
 34102  1  0  0  0
 35 44  2  0  0  0
 35 45  1  0  0  0
 35 68  1  0  0  0
 36 56  1  0  0  0
 36103  1  0  0  0
 37 39  1  0  0  0
 37 47  1  0  0  0
 37 66  1  0  0  0
 37104  1  0  0  0
 38 43  2  0  0  0
 38 46  1  0  0  0
 38 47  1  0  0  0
 39 64  1  0  0  0
 39 67  2  0  0  0
 40 52  1  0  0  0
 40 53  2  0  0  0
 40 58  1  0  0  0
 41105  1  0  0  0
 41106  1  0  0  0
 41107  1  0  0  0
 41 48  1  0  0  0
 42 43  1  0  0  0
 42 66  1  0  0  0
 42108  1  0  0  0
 42109  1  0  0  0
 43 44  1  0  0  0
 44110  1  0  0  0
 45 46  2  0  0  0
 45111  1  0  0  0
 46112  1  0  0  0
 47113  1  0  0  0
 47114  1  0  0  0
 48 56  1  0  0  0
 48 65  1  0  0  0
 48115  1  0  0  0
 49 50  1  0  0  0
 49 53  1  0  0  0
 49 64  1  0  0  0
 49116  1  0  0  0
 50 51  1  0  0  0
 50117  1  0  0  0
 50118  1  0  0  0
 51 52  1  0  0  0
 51119  1  0  0  0
 51120  1  0  0  0
 52121  1  0  0  0
 52122  1  0  0  0
 53 54  1  0  0  0
 54 55  2  0  0  0
 54123  1  0  0  0
 55 57  1  0  0  0
 55124  1  0  0  0
 56 69  2  0  0  0
 57 58  2  0  0  0
 57125  1  0  0  0
 58126  1  0  0  0
 59 60  1  0  0  0
 59 61  1  0  0  0
 59 62  1  0  0  0
 60127  1  0  0  0
 60128  1  0  0  0
 60129  1  0  0  0
 61130  1  0  0  0
 61131  1  0  0  0
 61132  1  0  0  0
 62133  1  0  0  0
 62134  1  0  0  0
 62135  1  0  0  0
 63 65  1  0  0  0
 63136  1  0  0  0
 63137  1  0  0  0
 63138  1  0  0  0
 64139  1  0  0  0
 65140  1  0  0  0
 68 78  1  0  0  0
 71 75  1  0  0  0
 71 76  1  0  0  0
 71141  1  0  0  0
 71142  1  0  0  0
 72 75  1  0  0  0
 72 76  1  0  0  0
 72143  1  0  0  0
 72144  1  0  0  0
 73 77  1  0  0  0
 73 78  1  0  0  0
 73145  1  0  0  0
 73146  1  0  0  0
 74 77  1  0  0  0
 74 78  1  0  0  0
 74147  1  0  0  0
 74148  1  0  0  0
 75 79  1  0  0  0
 75149  1  0  0  0
 76 80  1  0  0  0
 76150  1  0  0  0
 77 81  1  0  0  0
 77151  1  0  0  0
 78152  1  0  0  0
 79 81  1  0  0  0
 79153  1  0  0  0
 79154  1  0  0  0
 80155  1  0  0  0
 81156  1  0  0  0
 81157  1  0  0  0
M  CHG  1  81   1
M  ISO  4   1 100  68 101  78 101  80 100
M  END
> <chiral flag>
0

> <version>
0

> <s_m_source_file>
/data/baiqing/PycharmProjects/Reinvent-master-3.2/result/LINK_invent/BTK/process_docking_weight1_custom_sum_contain_oxygen_bond_distance_aromatic_linkinvent_7_9_3/rearranged_h_0187.sdf

> <i_m_source_file_index>
60

> <r_mmod_Potential_Energy-OPLS-2005>
-58.5326194763184

> <r_mmod_Stretch_Energy-OPLS-2005>
68.9746932983398

> <r_mmod_Bend_Energy-OPLS-2005>
164.748641967773

> <r_mmod_Torsional_Energy-OPLS-2005>
273.481689453125

> <r_mmod_Improper_Torsional_Energy-OPLS-2005>
7.03678941726685

> <r_mmod_Van_der_Waal_Energy-OPLS-2005>
123.007476806641

> <r_mmod_Electrostatic_Energy-OPLS-2005>
-247.368011474609

> <r_mmod_Solvation_Energy-OPLS-2005>
-491.503631591797

> <b_mmod_Minimization_Converged-OPLS-2005>
0

> <r_mmod_RMS_Derivative-OPLS-2005>
1.23061442375183

$$$$
60
                    3D
 Structure written by MMmdl.
157166  0  0  1  0            999 V2000
  -30.6446  -14.7591   20.4654 C   0  0  0  0  0  0
  -30.4218  -12.4690   19.4797 C   0  0  0  0  0  0
  -29.5111  -12.5064   18.2355 C   0  0  0  0  0  0
  -28.0387  -12.3299   18.6505 C   0  0  0  0  0  0
  -27.6371  -13.2412   19.8431 C   0  0  2  0  0  0
  -28.6799  -13.2079   20.9802 C   0  0  0  0  0  0
  -25.2486  -13.8213   20.5694 C   0  0  0  0  0  0
  -24.1790  -13.0447   20.9209 C   0  0  0  0  0  0
  -24.6402  -11.6923   20.8747 C   0  0  0  0  0  0
  -23.9078  -10.4300   21.0396 C   0  0  0  0  0  0
  -24.3620   -9.4208   21.9175 C   0  0  0  0  0  0
  -23.6287   -8.2250   22.0754 C   0  0  0  0  0  0
  -22.4275   -8.0285   21.3540 C   0  0  0  0  0  0
  -21.9907   -9.0259   20.4647 C   0  0  0  0  0  0
  -22.7244  -10.2136   20.3047 C   0  0  0  0  0  0
  -21.6853   -6.0731   22.5278 C   0  0  0  0  0  0
  -21.4023   -6.5635   23.8214 C   0  0  0  0  0  0
  -21.3659   -5.6784   24.9171 C   0  0  0  0  0  0
  -21.6047   -4.3048   24.7219 C   0  0  0  0  0  0
  -21.8812   -3.8142   23.4340 C   0  0  0  0  0  0
  -21.9191   -4.6957   22.3399 C   0  0  0  0  0  0
  -22.7810  -13.5215   21.1856 C   0  0  0  0  0  0
  -22.1659   -4.2143   21.0973 F   0  0  0  0  0  0
  -21.5624   -3.4532   25.7732 F   0  0  0  0  0  0
  -29.9747  -13.5565   20.3868 N   0  0  0  0  0  0
  -26.2911  -12.9435   20.3239 N   0  0  0  0  0  0
  -25.9331  -11.6567   20.5730 N   0  0  0  0  0  0
  -22.0438  -12.8229   22.0423 N   0  0  0  0  0  0
  -25.4141  -15.1941   20.4134 N   0  0  0  0  0  0
  -31.8411  -14.7788   20.1628 O   0  0  0  0  0  0
  -21.6637   -6.8878   21.4245 O   0  0  0  0  0  0
  -22.3493  -14.5505   20.6668 O   0  0  0  0  0  0
  -24.6340  -31.8544   23.1959 C   0  0  0  0  0  0
  -25.9165  -32.4744   23.8308 C   0  0  1  0  0  0
  -27.2063  -27.2352   20.1411 C   0  0  0  0  0  0
  -25.5958  -33.8545   24.2242 N   0  0  0  0  0  0
  -23.4324  -30.4770   21.5390 C   0  0  2  0  0  0
  -24.8781  -28.9218   20.1094 C   0  0  0  0  0  0
  -22.7526  -29.4602   22.4882 C   0  0  0  0  0  0
  -18.0305  -28.1385   22.8487 C   0  0  0  0  0  0
  -24.1497  -36.7279   23.2635 C   0  0  0  0  0  0
  -25.9807  -30.7585   21.3809 C   0  0  0  0  0  0
  -26.0514  -29.3782   20.7243 C   0  0  0  0  0  0
  -27.2220  -28.5479   20.7285 C   0  0  0  0  0  0
  -26.0184  -26.8633   19.4759 C   0  0  0  0  0  0
  -24.8676  -27.6728   19.4719 C   0  0  0  0  0  0
  -23.6517  -29.8125   20.1554 C   0  0  0  0  0  0
  -25.4125  -36.3060   24.0319 C   0  0  1  0  0  0
  -20.5913  -28.3710   23.1254 C   0  0  2  0  0  0
  -20.6794  -26.9422   22.5400 C   0  0  0  0  0  0
  -19.5763  -26.6383   21.5214 C   0  0  0  0  0  0
  -18.1947  -26.7928   22.1627 C   0  0  0  0  0  0
  -19.1560  -28.8860   23.2867 C   0  0  0  0  0  0
  -18.9473  -30.1459   23.8887 C   0  0  0  0  0  0
  -17.6471  -30.6581   24.0561 C   0  0  0  0  0  0
  -25.9066  -34.9432   23.5077 C   0  0  0  0  0  0
  -16.5364  -29.9078   23.6328 C   0  0  0  0  0  0
  -16.7289  -28.6495   23.0351 C   0  0  0  0  0  0
  -26.4514  -31.6569   25.0709 C   0  0  0  0  0  0
  -25.3721  -31.3727   26.1415 C   0  0  0  0  0  0
  -27.0361  -30.2981   24.6212 C   0  0  0  0  0  0
  -27.6066  -32.4306   25.7488 C   0  0  0  0  0  0
  -27.5580  -37.1794   24.8461 C   0  0  0  0  0  0
  -21.4229  -29.3058   22.3640 N   0  0  0  0  0  0
  -26.4293  -37.3766   23.9400 N   0  0  0  0  0  0
  -24.7012  -31.0487   22.0944 N   0  0  0  0  0  0
  -23.4217  -28.8141   23.2992 O   0  0  0  0  0  0
  -28.2663  -26.2958   20.1782 O   0  0  0  0  0  0
  -26.5629  -34.8914   22.4646 O   0  0  0  0  0  0
  -23.5484  -32.1368   23.7245 O   0  0  0  0  0  0
  -28.4991  -22.2271   20.6577 C   0  0  0  0  0  0
  -28.7318  -23.5779   20.1749 C   0  0  0  0  0  0
  -29.2639  -21.1176   20.1468 C   0  0  0  0  0  0
  -30.3174  -22.6647   18.7819 C   0  0  0  0  0  0
  -31.1693  -19.1457   21.8096 C   0  0  0  0  0  0
  -30.6680  -17.8009   22.3814 C   0  0  0  0  0  0
  -30.4079  -18.8454   20.4907 C   0  0  1  0  0  0
  -30.7000  -17.2912   20.9450 C   0  0  1  0  0  0
  -31.3115  -22.8817   17.6628 C   0  0  0  0  0  0
  -27.9360  -24.8879   20.6450 C   0  0  0  0  0  0
  -29.6658  -23.7432   19.2179 N   0  0  0  0  0  0
  -30.1670  -21.4047   19.1949 N   0  0  0  0  0  0
  -29.1625  -19.7093   20.5164 N   0  0  0  0  0  0
  -29.9752  -15.9635   20.7027 N   0  0  0  0  0  0
  -31.4659  -12.5697   19.1800 H   0  0  0  0  0  0
  -30.3526  -11.5005   19.9786 H   0  0  0  0  0  0
  -29.7993  -11.7270   17.5296 H   0  0  0  0  0  0
  -29.6398  -13.4540   17.7099 H   0  0  0  0  0  0
  -27.9035  -11.2833   18.9243 H   0  0  0  0  0  0
  -27.3816  -12.5094   17.7985 H   0  0  0  0  0  0
  -27.6244  -14.2577   19.4496 H   0  0  0  0  0  0
  -28.7215  -12.2203   21.4408 H   0  0  0  0  0  0
  -28.4135  -13.9104   21.7716 H   0  0  0  0  0  0
  -25.2770   -9.5675   22.4742 H   0  0  0  0  0  0
  -23.9995   -7.4631   22.7465 H   0  0  0  0  0  0
  -21.0839   -8.8766   19.8952 H   0  0  0  0  0  0
  -22.3700  -10.9657   19.6141 H   0  0  0  0  0  0
  -21.2032   -7.6143   23.9718 H   0  0  0  0  0  0
  -21.1486   -6.0514   25.9072 H   0  0  0  0  0  0
  -22.0597   -2.7603   23.2835 H   0  0  0  0  0  0
  -22.4064  -11.9933   22.4881 H   0  0  0  0  0  0
  -21.1033  -13.1233   22.2560 H   0  0  0  0  0  0
  -24.6416  -15.8411   20.5284 H   0  0  0  0  0  0
  -26.2578  -15.6403   20.0768 H   0  0  0  0  0  0
  -26.7234  -32.5382   23.1046 H   0  0  0  0  0  0
  -25.0132  -33.9679   25.0404 H   0  0  0  0  0  0
  -22.7297  -31.2998   21.3916 H   0  0  0  0  0  0
  -23.3759  -35.9609   23.3287 H   0  0  0  0  0  0
  -24.3594  -36.8914   22.2051 H   0  0  0  0  0  0
  -23.7246  -37.6475   23.6669 H   0  0  0  0  0  0
  -26.1272  -31.5183   20.6117 H   0  0  0  0  0  0
  -26.8551  -30.8050   22.0178 H   0  0  0  0  0  0
  -28.1173  -28.8883   21.2287 H   0  0  0  0  0  0
  -25.9611  -25.9139   18.9634 H   0  0  0  0  0  0
  -23.9746  -27.3232   18.9719 H   0  0  0  0  0  0
  -23.7793  -30.5873   19.3986 H   0  0  0  0  0  0
  -22.7690  -29.2473   19.8492 H   0  0  0  0  0  0
  -25.1307  -36.1899   25.0810 H   0  0  0  0  0  0
  -21.0010  -28.3287   24.1374 H   0  0  0  0  0  0
  -20.5711  -26.2315   23.3611 H   0  0  0  0  0  0
  -21.6660  -26.7451   22.1186 H   0  0  0  0  0  0
  -19.6932  -25.6294   21.1246 H   0  0  0  0  0  0
  -19.6696  -27.3189   20.6740 H   0  0  0  0  0  0
  -17.4222  -26.6675   21.4026 H   0  0  0  0  0  0
  -18.0345  -26.0070   22.9020 H   0  0  0  0  0  0
  -19.7942  -30.7281   24.2252 H   0  0  0  0  0  0
  -17.5017  -31.6260   24.5163 H   0  0  0  0  0  0
  -15.5357  -30.2970   23.7650 H   0  0  0  0  0  0
  -15.8695  -28.0804   22.7067 H   0  0  0  0  0  0
  -24.5923  -30.7050   25.7734 H   0  0  0  0  0  0
  -24.8882  -32.2893   26.4789 H   0  0  0  0  0  0
  -25.8026  -30.8940   27.0218 H   0  0  0  0  0  0
  -26.2944  -29.6720   24.1241 H   0  0  0  0  0  0
  -27.4036  -29.7258   25.4735 H   0  0  0  0  0  0
  -27.8827  -30.4244   23.9465 H   0  0  0  0  0  0
  -27.2687  -33.3629   26.2019 H   0  0  0  0  0  0
  -28.3902  -32.6816   25.0330 H   0  0  0  0  0  0
  -28.0699  -31.8452   26.5436 H   0  0  0  0  0  0
  -28.2585  -38.0105   24.7526 H   0  0  0  0  0  0
  -28.1090  -36.2632   24.6267 H   0  0  0  0  0  0
  -27.2299  -37.1416   25.8867 H   0  0  0  0  0  0
  -20.9414  -29.8771   21.6838 H   0  0  0  0  0  0
  -26.0165  -38.2839   24.1401 H   0  0  0  0  0  0
  -27.7398  -22.0613   21.4097 H   0  0  0  0  0  0
  -32.2540  -19.1742   21.6805 H   0  0  0  0  0  0
  -30.8384  -20.0180   22.3753 H   0  0  0  0  0  0
  -29.6632  -17.8575   22.8036 H   0  0  0  0  0  0
  -31.3649  -17.3099   23.0615 H   0  0  0  0  0  0
  -31.0111  -19.0880   19.6141 H   0  0  0  0  0  0
  -31.7507  -17.1415   20.6759 H   0  0  0  0  0  0
  -30.8147  -22.7670   16.6991 H   0  0  0  0  0  0
  -32.1238  -22.1561   17.7119 H   0  0  0  0  0  0
  -31.7478  -23.8788   17.7091 H   0  0  0  0  0  0
  -28.0242  -24.9119   21.7314 H   0  0  0  0  0  0
  -26.8866  -24.6546   20.4731 H   0  0  0  0  0  0
  -28.5011  -19.5076   21.2576 H   0  0  0  0  0  0
  -28.9801  -15.9279   20.8658 H   0  0  0  0  0  0
  1 25  1  0  0  0
  1 30  2  0  0  0
  1 84  1  0  0  0
  2  3  1  0  0  0
  2 25  1  0  0  0
  2 85  1  0  0  0
  2 86  1  0  0  0
  3  4  1  0  0  0
  3 87  1  0  0  0
  3 88  1  0  0  0
  4  5  1  0  0  0
  4 89  1  0  0  0
  4 90  1  0  0  0
  5  6  1  0  0  0
  5 26  1  0  0  0
  5 91  1  0  0  0
  6 25  1  0  0  0
  6 92  1  0  0  0
  6 93  1  0  0  0
  7  8  2  0  0  0
  7 26  1  0  0  0
  7 29  1  0  0  0
  8  9  1  0  0  0
  8 22  1  0  0  0
  9 10  1  0  0  0
  9 27  2  0  0  0
 10 11  2  0  0  0
 10 15  1  0  0  0
 11 12  1  0  0  0
 11 94  1  0  0  0
 12 13  2  0  0  0
 12 95  1  0  0  0
 13 14  1  0  0  0
 13 31  1  0  0  0
 14 15  2  0  0  0
 14 96  1  0  0  0
 15 97  1  0  0  0
 16 17  2  0  0  0
 16 21  1  0  0  0
 16 31  1  0  0  0
 17 18  1  0  0  0
 17 98  1  0  0  0
 18 19  2  0  0  0
 18 99  1  0  0  0
 19 20  1  0  0  0
 19 24  1  0  0  0
 20 21  2  0  0  0
 20100  1  0  0  0
 21 23  1  0  0  0
 22 28  1  0  0  0
 22 32  2  0  0  0
 26 27  1  0  0  0
 28101  1  0  0  0
 28102  1  0  0  0
 29103  1  0  0  0
 29104  1  0  0  0
 33 34  1  0  0  0
 33 66  1  0  0  0
 33 70  2  0  0  0
 34 36  1  0  0  0
 34 59  1  0  0  0
 34105  1  0  0  0
 35 44  2  0  0  0
 35 45  1  0  0  0
 35 68  1  0  0  0
 36 56  1  0  0  0
 36106  1  0  0  0
 37 39  1  0  0  0
 37 47  1  0  0  0
 37 66  1  0  0  0
 37107  1  0  0  0
 38 43  2  0  0  0
 38 46  1  0  0  0
 38 47  1  0  0  0
 39 64  1  0  0  0
 39 67  2  0  0  0
 40 52  1  0  0  0
 40 53  2  0  0  0
 40 58  1  0  0  0
 41108  1  0  0  0
 41109  1  0  0  0
 41110  1  0  0  0
 41 48  1  0  0  0
 42 43  1  0  0  0
 42 66  1  0  0  0
 42111  1  0  0  0
 42112  1  0  0  0
 43 44  1  0  0  0
 44113  1  0  0  0
 45 46  2  0  0  0
 45114  1  0  0  0
 46115  1  0  0  0
 47116  1  0  0  0
 47117  1  0  0  0
 48 56  1  0  0  0
 48 65  1  0  0  0
 48118  1  0  0  0
 49 50  1  0  0  0
 49 53  1  0  0  0
 49 64  1  0  0  0
 49119  1  0  0  0
 50 51  1  0  0  0
 50120  1  0  0  0
 50121  1  0  0  0
 51 52  1  0  0  0
 51122  1  0  0  0
 51123  1  0  0  0
 52124  1  0  0  0
 52125  1  0  0  0
 53 54  1  0  0  0
 54 55  2  0  0  0
 54126  1  0  0  0
 55 57  1  0  0  0
 55127  1  0  0  0
 56 69  2  0  0  0
 57 58  2  0  0  0
 57128  1  0  0  0
 58129  1  0  0  0
 59 60  1  0  0  0
 59 61  1  0  0  0
 59 62  1  0  0  0
 60130  1  0  0  0
 60131  1  0  0  0
 60132  1  0  0  0
 61133  1  0  0  0
 61134  1  0  0  0
 61135  1  0  0  0
 62136  1  0  0  0
 62137  1  0  0  0
 62138  1  0  0  0
 63 65  1  0  0  0
 63139  1  0  0  0
 63140  1  0  0  0
 63141  1  0  0  0
 64142  1  0  0  0
 65143  1  0  0  0
 68 80  1  0  0  0
 71 72  2  0  0  0
 71 73  1  0  0  0
 71144  1  0  0  0
 72 80  1  0  0  0
 72 81  1  0  0  0
 73 82  2  0  0  0
 73 83  1  0  0  0
 74 79  1  0  0  0
 74 81  2  0  0  0
 74 82  1  0  0  0
 75 76  1  0  0  0
 75 77  1  0  0  0
 75145  1  0  0  0
 75146  1  0  0  0
 76 78  1  0  0  0
 76147  1  0  0  0
 76148  1  0  0  0
 77 78  1  0  0  0
 77 83  1  0  0  0
 77149  1  0  0  0
 78 84  1  0  0  0
 78150  1  0  0  0
 79151  1  0  0  0
 79152  1  0  0  0
 79153  1  0  0  0
 80154  1  0  0  0
 80155  1  0  0  0
 83156  1  0  0  0
 84157  1  0  0  0
M  ISO  4   1 100  68 101  80 101  84 100
M  END
> <chiral flag>
0

> <version>
0

> <s_m_source_file>
/data/baiqing/PycharmProjects/Reinvent-master-3.2/result/LINK_invent/BTK/process_docking_weight1_custom_sum_contain_oxygen_bond_distance_aromatic_linkinvent_7_9_3/rearranged_h_0187.sdf

> <i_m_source_file_index>
61

> <r_mmod_Potential_Energy-OPLS-2005>
-237.143646240234

> <r_mmod_Stretch_Energy-OPLS-2005>
131.950607299805

> <r_mmod_Bend_Energy-OPLS-2005>
279.505615234375

> <r_mmod_Torsional_Energy-OPLS-2005>
259.191314697266

> <r_mmod_Improper_Torsional_Energy-OPLS-2005>
6.65294122695923

> <r_mmod_Van_der_Waal_Energy-OPLS-2005>
160.679779052734

> <r_mmod_Electrostatic_Energy-OPLS-2005>
-924.602111816406

> <r_mmod_Solvation_Energy-OPLS-2005>
-251.116760253906

> <b_mmod_Minimization_Converged-OPLS-2005>
0

> <r_mmod_RMS_Derivative-OPLS-2005>
1.92920362949371

$$$$
61
                    3D
 Structure written by MMmdl.
162173  0  0  1  0            999 V2000
  -30.6830  -14.5214   20.5771 C   0  0  0  0  0  0
  -30.4268  -12.3413   19.4316 C   0  0  0  0  0  0
  -29.4957  -12.5055   18.2120 C   0  0  0  0  0  0
  -28.0196  -12.3470   18.6268 C   0  0  0  0  0  0
  -27.6546  -13.2009   19.8682 C   0  0  2  0  0  0
  -28.6959  -13.0188   20.9944 C   0  0  0  0  0  0
  -25.2571  -13.8141   20.5676 C   0  0  0  0  0  0
  -24.1826  -13.0427   20.9181 C   0  0  0  0  0  0
  -24.6376  -11.6892   20.8739 C   0  0  0  0  0  0
  -23.9048  -10.4284   21.0414 C   0  0  0  0  0  0
  -24.3607   -9.4204   21.9190 C   0  0  0  0  0  0
  -23.6287   -8.2240   22.0755 C   0  0  0  0  0  0
  -22.4268   -8.0280   21.3544 C   0  0  0  0  0  0
  -21.9898   -9.0254   20.4646 C   0  0  0  0  0  0
  -22.7223  -10.2134   20.3058 C   0  0  0  0  0  0
  -21.6856   -6.0738   22.5281 C   0  0  0  0  0  0
  -21.4017   -6.5639   23.8215 C   0  0  0  0  0  0
  -21.3652   -5.6788   24.9177 C   0  0  0  0  0  0
  -21.6045   -4.3052   24.7223 C   0  0  0  0  0  0
  -21.8819   -3.8146   23.4342 C   0  0  0  0  0  0
  -21.9191   -4.6967   22.3402 C   0  0  0  0  0  0
  -22.7851  -13.5237   21.1845 C   0  0  0  0  0  0
  -22.1661   -4.2150   21.0980 F   0  0  0  0  0  0
  -21.5626   -3.4535   25.7736 F   0  0  0  0  0  0
  -30.0228  -13.3354   20.4405 N   0  0  0  0  0  0
  -26.2985  -12.9288   20.3334 N   0  0  0  0  0  0
  -25.9295  -11.6459   20.5761 N   0  0  0  0  0  0
  -22.0489  -12.8233   22.0404 N   0  0  0  0  0  0
  -25.4294  -15.1858   20.4080 N   0  0  0  0  0  0
  -31.8182  -14.6986   20.1251 O   0  0  0  0  0  0
  -21.6637   -6.8878   21.4241 O   0  0  0  0  0  0
  -22.3544  -14.5550   20.6700 O   0  0  0  0  0  0
  -24.6164  -31.8664   23.2076 C   0  0  0  0  0  0
  -25.9049  -32.4813   23.8398 C   0  0  1  0  0  0
  -27.2357  -27.4139   20.1145 C   0  0  0  0  0  0
  -25.5899  -33.8610   24.2332 N   0  0  0  0  0  0
  -23.4065  -30.4885   21.5459 C   0  0  2  0  0  0
  -24.8564  -28.9452   20.1188 C   0  0  0  0  0  0
  -22.7409  -29.4665   22.4954 C   0  0  0  0  0  0
  -18.0277  -28.1370   22.8474 C   0  0  0  0  0  0
  -24.1487  -36.7318   23.2638 C   0  0  0  0  0  0
  -25.9366  -30.8280   21.3618 C   0  0  0  0  0  0
  -26.0161  -29.4573   20.7153 C   0  0  0  0  0  0
  -27.2129  -28.7010   20.7048 C   0  0  0  0  0  0
  -26.0616  -26.9138   19.5190 C   0  0  0  0  0  0
  -24.8743  -27.6738   19.5164 C   0  0  0  0  0  0
  -23.6194  -29.8160   20.1626 C   0  0  0  0  0  0
  -25.4103  -36.3109   24.0341 C   0  0  1  0  0  0
  -20.5863  -28.3690   23.1309 C   0  0  2  0  0  0
  -20.6769  -26.9418   22.5443 C   0  0  0  0  0  0
  -19.5775  -26.6393   21.5218 C   0  0  0  0  0  0
  -18.1943  -26.7916   22.1603 C   0  0  0  0  0  0
  -19.1521  -28.8844   23.2888 C   0  0  0  0  0  0
  -18.9436  -30.1447   23.8898 C   0  0  0  0  0  0
  -17.6439  -30.6577   24.0549 C   0  0  0  0  0  0
  -25.9028  -34.9468   23.5133 C   0  0  0  0  0  0
  -16.5333  -29.9071   23.6311 C   0  0  0  0  0  0
  -16.7260  -28.6485   23.0330 C   0  0  0  0  0  0
  -26.4477  -31.6590   25.0725 C   0  0  0  0  0  0
  -25.3744  -31.3697   26.1480 C   0  0  0  0  0  0
  -27.0306  -30.3032   24.6092 C   0  0  0  0  0  0
  -27.6063  -32.4303   25.7479 C   0  0  0  0  0  0
  -27.5578  -37.1812   24.8465 C   0  0  0  0  0  0
  -21.4135  -29.3057   22.3700 N   0  0  0  0  0  0
  -26.4293  -37.3788   23.9407 N   0  0  0  0  0  0
  -24.6713  -31.0763   22.0969 N   0  0  0  0  0  0
  -23.4168  -28.8208   23.3018 O   0  0  0  0  0  0
  -28.3908  -26.6650   20.0643 O   0  0  0  0  0  0
  -26.5595  -34.8923   22.4696 O   0  0  0  0  0  0
  -23.5353  -32.1423   23.7462 O   0  0  0  0  0  0
  -29.3171  -19.6397   22.1412 C   0  0  0  0  0  0
  -29.5309  -19.0455   20.8840 C   0  0  0  0  0  0
  -29.3244  -19.9070   19.7813 C   0  0  0  0  0  0
  -28.8100  -21.6558   21.1772 C   0  0  0  0  0  0
  -28.4430  -19.8352   17.3062 C   0  0  0  0  0  0
  -28.5436  -18.4127   17.7842 C   0  0  0  0  0  0
  -29.8584  -24.9988   20.8574 C   0  0  0  0  0  0
  -30.6029  -16.7141   21.8485 C   0  0  0  0  0  0
  -29.0285  -16.4044   20.5333 C   0  0  0  0  0  0
  -29.9933  -17.5754   20.7331 C   0  0  0  0  0  0
  -29.4724  -19.4649   18.3560 C   0  0  0  0  0  0
  -28.6886  -24.1170   20.4938 C   0  0  1  0  0  0
  -28.4591  -25.5600   20.9822 C   0  0  2  0  0  0
  -28.9446  -20.9334   22.2776 N   0  0  0  0  0  0
  -28.9895  -21.2110   19.9430 N   0  0  0  0  0  0
  -30.0091  -15.5247   21.2015 N   0  0  0  0  0  0
  -28.4122  -22.9696   21.3724 N   0  0  0  0  0  0
  -31.4696  -12.4520   19.1294 H   0  0  0  0  0  0
  -30.3456  -11.3359   19.8466 H   0  0  0  0  0  0
  -29.7493  -11.7750   17.4421 H   0  0  0  0  0  0
  -29.6461  -13.4877   17.7619 H   0  0  0  0  0  0
  -27.8468  -11.2913   18.8410 H   0  0  0  0  0  0
  -27.3650  -12.5998   17.7922 H   0  0  0  0  0  0
  -27.6797  -14.2375   19.5418 H   0  0  0  0  0  0
  -28.6850  -11.9923   21.3624 H   0  0  0  0  0  0
  -28.4448  -13.6423   21.8542 H   0  0  0  0  0  0
  -25.2757   -9.5684   22.4759 H   0  0  0  0  0  0
  -23.9999   -7.4634   22.7471 H   0  0  0  0  0  0
  -21.0828   -8.8774   19.8954 H   0  0  0  0  0  0
  -22.3687  -10.9676   19.6165 H   0  0  0  0  0  0
  -21.2018   -7.6149   23.9717 H   0  0  0  0  0  0
  -21.1469   -6.0523   25.9079 H   0  0  0  0  0  0
  -22.0603   -2.7608   23.2846 H   0  0  0  0  0  0
  -22.4098  -11.9892   22.4792 H   0  0  0  0  0  0
  -21.1120  -13.1274   22.2626 H   0  0  0  0  0  0
  -24.6659  -15.8432   20.5230 H   0  0  0  0  0  0
  -26.2820  -15.6202   20.0817 H   0  0  0  0  0  0
  -26.7113  -32.5523   23.1161 H   0  0  0  0  0  0
  -25.0052  -33.9774   25.0479 H   0  0  0  0  0  0
  -22.6962  -31.3054   21.4011 H   0  0  0  0  0  0
  -23.3740  -35.9660   23.3312 H   0  0  0  0  0  0
  -24.3586  -36.8921   22.2052 H   0  0  0  0  0  0
  -23.7253  -37.6532   23.6642 H   0  0  0  0  0  0
  -26.0486  -31.5904   20.5894 H   0  0  0  0  0  0
  -26.8247  -30.8868   21.9788 H   0  0  0  0  0  0
  -28.1138  -29.0965   21.1537 H   0  0  0  0  0  0
  -26.0691  -25.9381   19.0533 H   0  0  0  0  0  0
  -23.9822  -27.2745   19.0540 H   0  0  0  0  0  0
  -23.7326  -30.5902   19.4025 H   0  0  0  0  0  0
  -22.7434  -29.2379   19.8623 H   0  0  0  0  0  0
  -25.1274  -36.1974   25.0833 H   0  0  0  0  0  0
  -20.9949  -28.3278   24.1428 H   0  0  0  0  0  0
  -20.5648  -26.2321   23.3648 H   0  0  0  0  0  0
  -21.6649  -26.7443   22.1261 H   0  0  0  0  0  0
  -19.6956  -25.6312   21.1233 H   0  0  0  0  0  0
  -19.6734  -27.3212   20.6758 H   0  0  0  0  0  0
  -17.4220  -26.6655   21.3996 H   0  0  0  0  0  0
  -18.0357  -26.0061   22.9005 H   0  0  0  0  0  0
  -19.7910  -30.7263   24.2279 H   0  0  0  0  0  0
  -17.4983  -31.6256   24.5154 H   0  0  0  0  0  0
  -15.5334  -30.2968   23.7634 H   0  0  0  0  0  0
  -15.8659  -28.0809   22.7036 H   0  0  0  0  0  0
  -24.5912  -30.7046   25.7822 H   0  0  0  0  0  0
  -24.8937  -32.2851   26.4938 H   0  0  0  0  0  0
  -25.8106  -30.8862   27.0228 H   0  0  0  0  0  0
  -26.2846  -29.6790   24.1157 H   0  0  0  0  0  0
  -27.4100  -29.7273   25.4544 H   0  0  0  0  0  0
  -27.8674  -30.4364   23.9230 H   0  0  0  0  0  0
  -27.2695  -33.3590   26.2097 H   0  0  0  0  0  0
  -28.3851  -32.6879   25.0287 H   0  0  0  0  0  0
  -28.0753  -31.8396   26.5358 H   0  0  0  0  0  0
  -28.2604  -38.0100   24.7491 H   0  0  0  0  0  0
  -28.1067  -36.2630   24.6307 H   0  0  0  0  0  0
  -27.2302  -37.1482   25.8873 H   0  0  0  0  0  0
  -20.9288  -29.8786   21.6928 H   0  0  0  0  0  0
  -26.0187  -38.2868   24.1400 H   0  0  0  0  0  0
  -29.4522  -19.0833   23.0562 H   0  0  0  0  0  0
  -27.5769  -20.4122   17.6250 H   0  0  0  0  0  0
  -28.8005  -20.0464   16.3005 H   0  0  0  0  0  0
  -28.9685  -17.6845   17.0966 H   0  0  0  0  0  0
  -27.7365  -18.0475   18.4159 H   0  0  0  0  0  0
  -30.4779  -25.3596   20.0380 H   0  0  0  0  0  0
  -30.3938  -24.7951   21.7832 H   0  0  0  0  0  0
  -30.1861  -16.8953   22.8406 H   0  0  0  0  0  0
  -31.6936  -16.7452   21.8769 H   0  0  0  0  0  0
  -28.8406  -16.1840   19.4821 H   0  0  0  0  0  0
  -28.0950  -16.5034   21.0894 H   0  0  0  0  0  0
  -30.7099  -17.5729   19.9089 H   0  0  0  0  0  0
  -30.5181  -19.4340   18.0586 H   0  0  0  0  0  0
  -28.5060  -23.8955   19.4440 H   0  0  0  0  0  0
  -28.0823  -25.7667   21.9833 H   0  0  0  0  0  0
  -28.2646  -23.1973   22.3470 H   0  0  0  0  0  0
  1 25  1  0  0  0
  1 30  2  0  0  0
  1 86  1  0  0  0
  2  3  1  0  0  0
  2 25  1  0  0  0
  2 88  1  0  0  0
  2 89  1  0  0  0
  3  4  1  0  0  0
  3 90  1  0  0  0
  3 91  1  0  0  0
  4  5  1  0  0  0
  4 92  1  0  0  0
  4 93  1  0  0  0
  5  6  1  0  0  0
  5 26  1  0  0  0
  5 94  1  0  0  0
  6 25  1  0  0  0
  6 95  1  0  0  0
  6 96  1  0  0  0
  7  8  2  0  0  0
  7 26  1  0  0  0
  7 29  1  0  0  0
  8  9  1  0  0  0
  8 22  1  0  0  0
  9 10  1  0  0  0
  9 27  2  0  0  0
 10 11  2  0  0  0
 10 15  1  0  0  0
 11 12  1  0  0  0
 11 97  1  0  0  0
 12 13  2  0  0  0
 12 98  1  0  0  0
 13 14  1  0  0  0
 13 31  1  0  0  0
 14 15  2  0  0  0
 14 99  1  0  0  0
 15100  1  0  0  0
 16 17  2  0  0  0
 16 21  1  0  0  0
 16 31  1  0  0  0
 17 18  1  0  0  0
 17101  1  0  0  0
 18 19  2  0  0  0
 18102  1  0  0  0
 19 20  1  0  0  0
 19 24  1  0  0  0
 20 21  2  0  0  0
 20103  1  0  0  0
 21 23  1  0  0  0
 22 28  1  0  0  0
 22 32  2  0  0  0
 26 27  1  0  0  0
 28104  1  0  0  0
 28105  1  0  0  0
 29106  1  0  0  0
 29107  1  0  0  0
 33 34  1  0  0  0
 33 66  1  0  0  0
 33 70  2  0  0  0
 34 36  1  0  0  0
 34 59  1  0  0  0
 34108  1  0  0  0
 35 44  2  0  0  0
 35 45  1  0  0  0
 35 68  1  0  0  0
 36 56  1  0  0  0
 36109  1  0  0  0
 37 39  1  0  0  0
 37 47  1  0  0  0
 37 66  1  0  0  0
 37110  1  0  0  0
 38 43  2  0  0  0
 38 46  1  0  0  0
 38 47  1  0  0  0
 39 64  1  0  0  0
 39 67  2  0  0  0
 40 52  1  0  0  0
 40 53  2  0  0  0
 40 58  1  0  0  0
 41111  1  0  0  0
 41112  1  0  0  0
 41113  1  0  0  0
 41 48  1  0  0  0
 42 43  1  0  0  0
 42 66  1  0  0  0
 42114  1  0  0  0
 42115  1  0  0  0
 43 44  1  0  0  0
 44116  1  0  0  0
 45 46  2  0  0  0
 45117  1  0  0  0
 46118  1  0  0  0
 47119  1  0  0  0
 47120  1  0  0  0
 48 56  1  0  0  0
 48 65  1  0  0  0
 48121  1  0  0  0
 49 50  1  0  0  0
 49 53  1  0  0  0
 49 64  1  0  0  0
 49122  1  0  0  0
 50 51  1  0  0  0
 50123  1  0  0  0
 50124  1  0  0  0
 51 52  1  0  0  0
 51125  1  0  0  0
 51126  1  0  0  0
 52127  1  0  0  0
 52128  1  0  0  0
 53 54  1  0  0  0
 54 55  2  0  0  0
 54129  1  0  0  0
 55 57  1  0  0  0
 55130  1  0  0  0
 56 69  2  0  0  0
 57 58  2  0  0  0
 57131  1  0  0  0
 58132  1  0  0  0
 59 60  1  0  0  0
 59 61  1  0  0  0
 59 62  1  0  0  0
 60133  1  0  0  0
 60134  1  0  0  0
 60135  1  0  0  0
 61136  1  0  0  0
 61137  1  0  0  0
 61138  1  0  0  0
 62139  1  0  0  0
 62140  1  0  0  0
 62141  1  0  0  0
 63 65  1  0  0  0
 63142  1  0  0  0
 63143  1  0  0  0
 63144  1  0  0  0
 64145  1  0  0  0
 65146  1  0  0  0
 68 83  1  0  0  0
 71 72  2  0  0  0
 71 84  1  0  0  0
 71147  1  0  0  0
 72 73  1  0  0  0
 72 80  1  0  0  0
 73 85  2  0  0  0
 73 81  1  0  0  0
 74 84  2  0  0  0
 74 85  1  0  0  0
 74 87  1  0  0  0
 75 76  1  0  0  0
 75 81  1  0  0  0
 75148  1  0  0  0
 75149  1  0  0  0
 76 81  1  0  0  0
 76150  1  0  0  0
 76151  1  0  0  0
 77 82  1  0  0  0
 77 83  1  0  0  0
 77152  1  0  0  0
 77153  1  0  0  0
 78 80  1  0  0  0
 78 86  1  0  0  0
 78154  1  0  0  0
 78155  1  0  0  0
 79 80  1  0  0  0
 79 86  1  0  0  0
 79156  1  0  0  0
 79157  1  0  0  0
 80158  1  0  0  0
 81159  1  0  0  0
 82 83  1  0  0  0
 82 87  1  0  0  0
 82160  1  0  0  0
 83161  1  0  0  0
 87162  1  0  0  0
M  ISO  4   1 100  68 101  83 101  86 100
M  END
> <chiral flag>
0

> <version>
0

> <s_m_source_file>
/data/baiqing/PycharmProjects/Reinvent-master-3.2/result/LINK_invent/BTK/process_docking_weight1_custom_sum_contain_oxygen_bond_distance_aromatic_linkinvent_7_9_3/rearranged_h_0187.sdf

> <i_m_source_file_index>
62

> <r_mmod_Potential_Energy-OPLS-2005>
-451.201354980469

> <r_mmod_Stretch_Energy-OPLS-2005>
41.0313262939453

> <r_mmod_Bend_Energy-OPLS-2005>
126.396507263184

> <r_mmod_Torsional_Energy-OPLS-2005>
342.037200927734

> <r_mmod_Improper_Torsional_Energy-OPLS-2005>
10.08314037323

> <r_mmod_Van_der_Waal_Energy-OPLS-2005>
142.229156494141

> <r_mmod_Electrostatic_Energy-OPLS-2005>
-892.030944824219

> <r_mmod_Solvation_Energy-OPLS-2005>
-237.905136108398

> <b_mmod_Minimization_Converged-OPLS-2005>
0

> <r_mmod_RMS_Derivative-OPLS-2005>
1.35573029518127

$$$$
62
                    3D
 Structure written by MMmdl.
163173  0  0  1  0            999 V2000
  -30.6727  -14.5069   20.5342 C   0  0  0  0  0  0
  -30.4294  -12.3129   19.4288 C   0  0  0  0  0  0
  -29.4958  -12.4853   18.2112 C   0  0  0  0  0  0
  -28.0180  -12.3435   18.6287 C   0  0  0  0  0  0
  -27.6597  -13.2013   19.8724 C   0  0  2  0  0  0
  -28.7048  -13.0056   20.9946 C   0  0  0  0  0  0
  -25.2602  -13.8147   20.5699 C   0  0  0  0  0  0
  -24.1837  -13.0437   20.9175 C   0  0  0  0  0  0
  -24.6385  -11.6900   20.8739 C   0  0  0  0  0  0
  -23.9053  -10.4292   21.0406 C   0  0  0  0  0  0
  -24.3604   -9.4207   21.9186 C   0  0  0  0  0  0
  -23.6283   -8.2239   22.0757 C   0  0  0  0  0  0
  -22.4268   -8.0276   21.3542 C   0  0  0  0  0  0
  -21.9898   -9.0251   20.4646 C   0  0  0  0  0  0
  -22.7225  -10.2134   20.3061 C   0  0  0  0  0  0
  -21.6850   -6.0731   22.5282 C   0  0  0  0  0  0
  -21.4013   -6.5636   23.8214 C   0  0  0  0  0  0
  -21.3656   -5.6790   24.9174 C   0  0  0  0  0  0
  -21.6046   -4.3054   24.7231 C   0  0  0  0  0  0
  -21.8820   -3.8146   23.4353 C   0  0  0  0  0  0
  -21.9190   -4.6959   22.3406 C   0  0  0  0  0  0
  -22.7860  -13.5238   21.1829 C   0  0  0  0  0  0
  -22.1657   -4.2142   21.0982 F   0  0  0  0  0  0
  -21.5636   -3.4540   25.7746 F   0  0  0  0  0  0
  -30.0280  -13.3124   20.4309 N   0  0  0  0  0  0
  -26.3021  -12.9301   20.3381 N   0  0  0  0  0  0
  -25.9313  -11.6469   20.5793 N   0  0  0  0  0  0
  -22.0501  -12.8235   22.0389 N   0  0  0  0  0  0
  -25.4369  -15.1862   20.4128 N   0  0  0  0  0  0
  -31.8339  -14.6703   20.1474 O   0  0  0  0  0  0
  -21.6636   -6.8873   21.4242 O   0  0  0  0  0  0
  -22.3543  -14.5542   20.6680 O   0  0  0  0  0  0
  -24.6157  -31.8688   23.2100 C   0  0  0  0  0  0
  -25.9039  -32.4833   23.8412 C   0  0  1  0  0  0
  -27.2438  -27.4298   20.0994 C   0  0  0  0  0  0
  -25.5887  -33.8630   24.2343 N   0  0  0  0  0  0
  -23.4063  -30.4907   21.5521 C   0  0  2  0  0  0
  -24.8579  -28.9557   20.1207 C   0  0  0  0  0  0
  -22.7426  -29.4655   22.5002 C   0  0  0  0  0  0
  -18.0278  -28.1381   22.8499 C   0  0  0  0  0  0
  -24.1486  -36.7312   23.2644 C   0  0  0  0  0  0
  -25.9375  -30.8296   21.3702 C   0  0  0  0  0  0
  -26.0179  -29.4623   20.7223 C   0  0  0  0  0  0
  -27.2155  -28.7063   20.7192 C   0  0  0  0  0  0
  -26.0700  -26.9469   19.4904 C   0  0  0  0  0  0
  -24.8774  -27.6931   19.5059 C   0  0  0  0  0  0
  -23.6186  -29.8219   20.1690 C   0  0  0  0  0  0
  -25.4100  -36.3116   24.0351 C   0  0  1  0  0  0
  -20.5868  -28.3662   23.1322 C   0  0  2  0  0  0
  -20.6766  -26.9399   22.5424 C   0  0  0  0  0  0
  -19.5746  -26.6389   21.5220 C   0  0  0  0  0  0
  -18.1918  -26.7928   22.1628 C   0  0  0  0  0  0
  -19.1524  -28.8840   23.2907 C   0  0  0  0  0  0
  -18.9453  -30.1448   23.8915 C   0  0  0  0  0  0
  -17.6455  -30.6586   24.0569 C   0  0  0  0  0  0
  -25.9028  -34.9482   23.5144 C   0  0  0  0  0  0
  -16.5346  -29.9091   23.6335 C   0  0  0  0  0  0
  -16.7262  -28.6507   23.0353 C   0  0  0  0  0  0
  -26.4473  -31.6611   25.0741 C   0  0  0  0  0  0
  -25.3746  -31.3701   26.1495 C   0  0  0  0  0  0
  -27.0325  -30.3055   24.6134 C   0  0  0  0  0  0
  -27.6057  -32.4336   25.7492 C   0  0  0  0  0  0
  -27.5579  -37.1795   24.8468 C   0  0  0  0  0  0
  -21.4154  -29.3020   22.3731 N   0  0  0  0  0  0
  -26.4293  -37.3791   23.9420 N   0  0  0  0  0  0
  -24.6709  -31.0780   22.1014 N   0  0  0  0  0  0
  -23.4183  -28.8186   23.3045 O   0  0  0  0  0  0
  -28.3389  -26.5883   20.0373 O   0  0  0  0  0  0
  -26.5591  -34.8929   22.4705 O   0  0  0  0  0  0
  -23.5338  -32.1445   23.7475 O   0  0  0  0  0  0
  -29.1504  -20.8344   23.0796 C   0  0  0  0  0  0
  -30.2386  -19.9942   20.7214 C   0  0  0  0  0  0
  -29.8979  -18.9988   21.6712 C   0  0  0  0  0  0
  -29.3267  -19.4474   22.8888 C   0  0  0  0  0  0
  -29.5571  -21.7532   22.0912 C   0  0  0  0  0  0
  -29.0918  -26.4106   22.3717 C   0  0  0  0  0  0
  -29.5131  -16.2702   21.9328 C   0  0  0  0  0  0
  -29.9975  -16.8806   20.0065 C   0  0  0  0  0  0
  -30.2307  -17.5149   21.3788 C   0  0  0  0  0  0
  -30.0448  -25.5383   21.5701 C   0  0  2  0  0  0
  -29.4144  -26.7861   20.9435 C   0  0  1  0  0  0
  -28.9353  -18.5024   24.0112 C   0  0  0  0  0  0
  -29.5236  -23.2595   22.4032 C   0  0  0  0  0  0
  -30.0811  -21.3329   20.9153 N   0  0  0  0  0  0
  -29.8481  -15.5759   20.6801 N   0  0  0  0  0  0
  -29.4962  -24.1842   21.2431 N   0  3  0  0  0  0
  -31.4728  -12.4184   19.1261 H   0  0  0  0  0  0
  -30.3398  -11.3080   19.8446 H   0  0  0  0  0  0
  -29.7381  -11.7482   17.4442 H   0  0  0  0  0  0
  -29.6568  -13.4642   17.7570 H   0  0  0  0  0  0
  -27.8361  -11.2899   18.8443 H   0  0  0  0  0  0
  -27.3638  -12.5959   17.7939 H   0  0  0  0  0  0
  -27.6954  -14.2431   19.5552 H   0  0  0  0  0  0
  -28.6862  -11.9780   21.3596 H   0  0  0  0  0  0
  -28.4766  -13.6350   21.8556 H   0  0  0  0  0  0
  -25.2747   -9.5684   22.4758 H   0  0  0  0  0  0
  -23.9994   -7.4629   22.7473 H   0  0  0  0  0  0
  -21.0830   -8.8770   19.8944 H   0  0  0  0  0  0
  -22.3682  -10.9675   19.6173 H   0  0  0  0  0  0
  -21.1999   -7.6145   23.9714 H   0  0  0  0  0  0
  -21.1479   -6.0520   25.9074 H   0  0  0  0  0  0
  -22.0601   -2.7609   23.2859 H   0  0  0  0  0  0
  -22.4111  -11.9895   22.4779 H   0  0  0  0  0  0
  -21.1126  -13.1272   22.2611 H   0  0  0  0  0  0
  -24.6811  -15.8516   20.5323 H   0  0  0  0  0  0
  -26.3058  -15.6187   20.1241 H   0  0  0  0  0  0
  -26.7113  -32.5558   23.1181 H   0  0  0  0  0  0
  -25.0071  -33.9813   25.0510 H   0  0  0  0  0  0
  -22.6953  -31.3068   21.4088 H   0  0  0  0  0  0
  -23.3761  -35.9636   23.3328 H   0  0  0  0  0  0
  -24.3590  -36.8909   22.2057 H   0  0  0  0  0  0
  -23.7224  -37.6518   23.6645 H   0  0  0  0  0  0
  -26.0542  -31.5928   20.6001 H   0  0  0  0  0  0
  -26.8228  -30.8856   21.9920 H   0  0  0  0  0  0
  -28.1031  -29.1060   21.1895 H   0  0  0  0  0  0
  -26.0764  -25.9750   19.0169 H   0  0  0  0  0  0
  -23.9851  -27.2898   19.0473 H   0  0  0  0  0  0
  -23.7277  -30.5961   19.4088 H   0  0  0  0  0  0
  -22.7424  -29.2436   19.8708 H   0  0  0  0  0  0
  -25.1267  -36.1999   25.0844 H   0  0  0  0  0  0
  -20.9949  -28.3222   24.1445 H   0  0  0  0  0  0
  -20.5685  -26.2260   23.3607 H   0  0  0  0  0  0
  -21.6628  -26.7460   22.1191 H   0  0  0  0  0  0
  -19.6922  -25.6312   21.1218 H   0  0  0  0  0  0
  -19.6686  -27.3230   20.6773 H   0  0  0  0  0  0
  -17.4190  -26.6687   21.4024 H   0  0  0  0  0  0
  -18.0323  -26.0072   22.9025 H   0  0  0  0  0  0
  -19.7935  -30.7258   24.2289 H   0  0  0  0  0  0
  -17.5014  -31.6268   24.5174 H   0  0  0  0  0  0
  -15.5345  -30.2986   23.7676 H   0  0  0  0  0  0
  -15.8666  -28.0834   22.7061 H   0  0  0  0  0  0
  -24.5911  -30.7058   25.7828 H   0  0  0  0  0  0
  -24.8941  -32.2847   26.4977 H   0  0  0  0  0  0
  -25.8106  -30.8839   27.0234 H   0  0  0  0  0  0
  -26.2880  -29.6791   24.1201 H   0  0  0  0  0  0
  -27.4118  -29.7313   25.4602 H   0  0  0  0  0  0
  -27.8707  -30.4403   23.9293 H   0  0  0  0  0  0
  -27.2692  -33.3632   26.2102 H   0  0  0  0  0  0
  -28.3837  -32.6906   25.0287 H   0  0  0  0  0  0
  -28.0772  -31.8445   26.5377 H   0  0  0  0  0  0
  -28.2585  -38.0100   24.7515 H   0  0  0  0  0  0
  -28.1080  -36.2625   24.6286 H   0  0  0  0  0  0
  -27.2306  -37.1439   25.8874 H   0  0  0  0  0  0
  -20.9325  -29.8751   21.6963 H   0  0  0  0  0  0
  -26.0200  -38.2883   24.1404 H   0  0  0  0  0  0
  -28.7486  -21.2007   24.0157 H   0  0  0  0  0  0
  -30.6881  -19.7120   19.7801 H   0  0  0  0  0  0
  -29.5154  -27.0461   23.1463 H   0  0  0  0  0  0
  -28.0878  -26.0455   22.5776 H   0  0  0  0  0  0
  -28.4364  -16.3918   22.0576 H   0  0  0  0  0  0
  -29.9714  -15.8571   22.8333 H   0  0  0  0  0  0
  -30.8465  -16.9782   19.3272 H   0  0  0  0  0  0
  -29.0767  -17.2138   19.5246 H   0  0  0  0  0  0
  -31.2921  -17.4171   21.6197 H   0  0  0  0  0  0
  -31.1043  -25.5487   21.8208 H   0  0  0  0  0  0
  -30.0363  -27.6574   20.7405 H   0  0  0  0  0  0
  -28.7109  -19.0459   24.9294 H   0  0  0  0  0  0
  -29.7456  -17.8113   24.2405 H   0  0  0  0  0  0
  -28.0450  -17.9343   23.7415 H   0  0  0  0  0  0
  -30.4164  -23.4645   22.9951 H   0  0  0  0  0  0
  -28.6725  -23.4810   23.0477 H   0  0  0  0  0  0
  -30.0656  -23.7413   20.5393 H   0  0  0  0  0  0
  -28.5622  -24.2425   20.8767 H   0  0  0  0  0  0
  1 25  1  0  0  0
  1 30  2  0  0  0
  1 85  1  0  0  0
  2  3  1  0  0  0
  2 25  1  0  0  0
  2 87  1  0  0  0
  2 88  1  0  0  0
  3  4  1  0  0  0
  3 89  1  0  0  0
  3 90  1  0  0  0
  4  5  1  0  0  0
  4 91  1  0  0  0
  4 92  1  0  0  0
  5  6  1  0  0  0
  5 26  1  0  0  0
  5 93  1  0  0  0
  6 25  1  0  0  0
  6 94  1  0  0  0
  6 95  1  0  0  0
  7  8  2  0  0  0
  7 26  1  0  0  0
  7 29  1  0  0  0
  8  9  1  0  0  0
  8 22  1  0  0  0
  9 10  1  0  0  0
  9 27  2  0  0  0
 10 11  2  0  0  0
 10 15  1  0  0  0
 11 12  1  0  0  0
 11 96  1  0  0  0
 12 13  2  0  0  0
 12 97  1  0  0  0
 13 14  1  0  0  0
 13 31  1  0  0  0
 14 15  2  0  0  0
 14 98  1  0  0  0
 15 99  1  0  0  0
 16 17  2  0  0  0
 16 21  1  0  0  0
 16 31  1  0  0  0
 17 18  1  0  0  0
 17100  1  0  0  0
 18 19  2  0  0  0
 18101  1  0  0  0
 19 20  1  0  0  0
 19 24  1  0  0  0
 20 21  2  0  0  0
 20102  1  0  0  0
 21 23  1  0  0  0
 22 28  1  0  0  0
 22 32  2  0  0  0
 26 27  1  0  0  0
 28103  1  0  0  0
 28104  1  0  0  0
 29105  1  0  0  0
 29106  1  0  0  0
 33 34  1  0  0  0
 33 66  1  0  0  0
 33 70  2  0  0  0
 34 36  1  0  0  0
 34 59  1  0  0  0
 34107  1  0  0  0
 35 44  2  0  0  0
 35 45  1  0  0  0
 35 68  1  0  0  0
 36 56  1  0  0  0
 36108  1  0  0  0
 37 39  1  0  0  0
 37 47  1  0  0  0
 37 66  1  0  0  0
 37109  1  0  0  0
 38 43  2  0  0  0
 38 46  1  0  0  0
 38 47  1  0  0  0
 39 64  1  0  0  0
 39 67  2  0  0  0
 40 52  1  0  0  0
 40 53  2  0  0  0
 40 58  1  0  0  0
 41110  1  0  0  0
 41111  1  0  0  0
 41112  1  0  0  0
 41 48  1  0  0  0
 42 43  1  0  0  0
 42 66  1  0  0  0
 42113  1  0  0  0
 42114  1  0  0  0
 43 44  1  0  0  0
 44115  1  0  0  0
 45 46  2  0  0  0
 45116  1  0  0  0
 46117  1  0  0  0
 47118  1  0  0  0
 47119  1  0  0  0
 48 56  1  0  0  0
 48 65  1  0  0  0
 48120  1  0  0  0
 49 50  1  0  0  0
 49 53  1  0  0  0
 49 64  1  0  0  0
 49121  1  0  0  0
 50 51  1  0  0  0
 50122  1  0  0  0
 50123  1  0  0  0
 51 52  1  0  0  0
 51124  1  0  0  0
 51125  1  0  0  0
 52126  1  0  0  0
 52127  1  0  0  0
 53 54  1  0  0  0
 54 55  2  0  0  0
 54128  1  0  0  0
 55 57  1  0  0  0
 55129  1  0  0  0
 56 69  2  0  0  0
 57 58  2  0  0  0
 57130  1  0  0  0
 58131  1  0  0  0
 59 60  1  0  0  0
 59 61  1  0  0  0
 59 62  1  0  0  0
 60132  1  0  0  0
 60133  1  0  0  0
 60134  1  0  0  0
 61135  1  0  0  0
 61136  1  0  0  0
 61137  1  0  0  0
 62138  1  0  0  0
 62139  1  0  0  0
 62140  1  0  0  0
 63 65  1  0  0  0
 63141  1  0  0  0
 63142  1  0  0  0
 63143  1  0  0  0
 64144  1  0  0  0
 65145  1  0  0  0
 68 81  1  0  0  0
 71 74  2  0  0  0
 71 75  1  0  0  0
 71146  1  0  0  0
 72 73  2  0  0  0
 72 84  1  0  0  0
 72147  1  0  0  0
 73 74  1  0  0  0
 73 79  1  0  0  0
 74 82  1  0  0  0
 75 83  1  0  0  0
 75 84  2  0  0  0
 76 80  1  0  0  0
 76 81  1  0  0  0
 76148  1  0  0  0
 76149  1  0  0  0
 77 79  1  0  0  0
 77 85  1  0  0  0
 77150  1  0  0  0
 77151  1  0  0  0
 78 79  1  0  0  0
 78 85  1  0  0  0
 78152  1  0  0  0
 78153  1  0  0  0
 79154  1  0  0  0
 80 81  1  0  0  0
 80 86  1  0  0  0
 80155  1  0  0  0
 81156  1  0  0  0
 82157  1  0  0  0
 82158  1  0  0  0
 82159  1  0  0  0
 83 86  1  0  0  0
 83160  1  0  0  0
 83161  1  0  0  0
 86162  1  0  0  0
 86163  1  0  0  0
M  CHG  1  86   1
M  ISO  4   1 100  68 101  81 101  85 100
M  END
> <chiral flag>
0

> <version>
0

> <s_m_source_file>
/data/baiqing/PycharmProjects/Reinvent-master-3.2/result/LINK_invent/BTK/process_docking_weight1_custom_sum_contain_oxygen_bond_distance_aromatic_linkinvent_7_9_3/rearranged_h_0187.sdf

> <i_m_source_file_index>
63

> <r_mmod_Potential_Energy-OPLS-2005>
-352.694793701172

> <r_mmod_Stretch_Energy-OPLS-2005>
41.3949508666992

> <r_mmod_Bend_Energy-OPLS-2005>
132.967422485352

> <r_mmod_Torsional_Energy-OPLS-2005>
312.257873535156

> <r_mmod_Improper_Torsional_Energy-OPLS-2005>
18.1534156799316

> <r_mmod_Van_der_Waal_Energy-OPLS-2005>
147.116226196289

> <r_mmod_Electrostatic_Energy-OPLS-2005>
-575.595581054688

> <r_mmod_Solvation_Energy-OPLS-2005>
-447.147064208984

> <b_mmod_Minimization_Converged-OPLS-2005>
0

> <r_mmod_RMS_Derivative-OPLS-2005>
1.6400351524353

$$$$
63
                    3D
 Structure written by MMmdl.
160170  0  0  1  0            999 V2000
  -30.5537  -15.0524   20.4192 C   0  0  0  0  0  0
  -30.4330  -12.6613   19.5143 C   0  0  0  0  0  0
  -29.5281  -12.5555   18.2656 C   0  0  0  0  0  0
  -28.0644  -12.3181   18.6799 C   0  0  0  0  0  0
  -27.6248  -13.2608   19.8312 C   0  0  2  0  0  0
  -28.6664  -13.3382   20.9684 C   0  0  0  0  0  0
  -25.2419  -13.8230   20.5686 C   0  0  0  0  0  0
  -24.1754  -13.0451   20.9230 C   0  0  0  0  0  0
  -24.6395  -11.6948   20.8754 C   0  0  0  0  0  0
  -23.9087  -10.4304   21.0396 C   0  0  0  0  0  0
  -24.3629   -9.4227   21.9171 C   0  0  0  0  0  0
  -23.6314   -8.2255   22.0749 C   0  0  0  0  0  0
  -22.4297   -8.0277   21.3532 C   0  0  0  0  0  0
  -21.9939   -9.0249   20.4636 C   0  0  0  0  0  0
  -22.7261  -10.2133   20.3041 C   0  0  0  0  0  0
  -21.6859   -6.0738   22.5278 C   0  0  0  0  0  0
  -21.4008   -6.5638   23.8212 C   0  0  0  0  0  0
  -21.3667   -5.6780   24.9173 C   0  0  0  0  0  0
  -21.6061   -4.3044   24.7220 C   0  0  0  0  0  0
  -21.8819   -3.8137   23.4333 C   0  0  0  0  0  0
  -21.9184   -4.6956   22.3390 C   0  0  0  0  0  0
  -22.7763  -13.5209   21.1871 C   0  0  0  0  0  0
  -22.1655   -4.2139   21.0969 F   0  0  0  0  0  0
  -21.5651   -3.4526   25.7730 F   0  0  0  0  0  0
  -29.9268  -13.7925   20.3616 N   0  0  0  0  0  0
  -26.2862  -12.9501   20.3214 N   0  0  0  0  0  0
  -25.9333  -11.6624   20.5720 N   0  0  0  0  0  0
  -22.0388  -12.8212   22.0422 N   0  0  0  0  0  0
  -25.4051  -15.1948   20.4092 N   0  0  0  0  0  0
  -31.7538  -15.0424   20.1176 O   0  0  0  0  0  0
  -21.6647   -6.8883   21.4240 O   0  0  0  0  0  0
  -22.3453  -14.5510   20.6701 O   0  0  0  0  0  0
  -24.6490  -31.8375   23.1843 C   0  0  0  0  0  0
  -25.9231  -32.4666   23.8251 C   0  0  1  0  0  0
  -27.2182  -27.0645   20.1648 C   0  0  0  0  0  0
  -25.5971  -33.8479   24.2163 N   0  0  0  0  0  0
  -23.4578  -30.4528   21.5316 C   0  0  2  0  0  0
  -24.9105  -28.8699   20.1128 C   0  0  0  0  0  0
  -22.7595  -29.4499   22.4845 C   0  0  0  0  0  0
  -18.0295  -28.1395   22.8467 C   0  0  0  0  0  0
  -24.1499  -36.7233   23.2648 C   0  0  0  0  0  0
  -26.0186  -30.6881   21.3957 C   0  0  0  0  0  0
  -26.0905  -29.2926   20.7378 C   0  0  0  0  0  0
  -27.2445  -28.4071   20.7453 C   0  0  0  0  0  0
  -26.0112  -26.7668   19.4925 C   0  0  0  0  0  0
  -24.8883  -27.6219   19.4737 C   0  0  0  0  0  0
  -23.6907  -29.7810   20.1527 C   0  0  0  0  0  0
  -25.4136  -36.3024   24.0321 C   0  0  1  0  0  0
  -20.5913  -28.3727   23.1224 C   0  0  2  0  0  0
  -20.6784  -26.9431   22.5405 C   0  0  0  0  0  0
  -19.5769  -26.6379   21.5205 C   0  0  0  0  0  0
  -18.1947  -26.7932   22.1610 C   0  0  0  0  0  0
  -19.1554  -28.8883   23.2830 C   0  0  0  0  0  0
  -18.9465  -30.1466   23.8863 C   0  0  0  0  0  0
  -17.6467  -30.6595   24.0551 C   0  0  0  0  0  0
  -25.9097  -34.9397   23.5054 C   0  0  0  0  0  0
  -16.5353  -29.9082   23.6348 C   0  0  0  0  0  0
  -16.7278  -28.6501   23.0363 C   0  0  0  0  0  0
  -26.4544  -31.6538   25.0696 C   0  0  0  0  0  0
  -25.3712  -31.3722   26.1371 C   0  0  0  0  0  0
  -27.0404  -30.2924   24.6312 C   0  0  0  0  0  0
  -27.6089  -32.4280   25.7476 C   0  0  0  0  0  0
  -27.5585  -37.1777   24.8467 C   0  0  0  0  0  0
  -21.4278  -29.3034   22.3592 N   0  0  0  0  0  0
  -26.4293  -37.3744   23.9415 N   0  0  0  0  0  0
  -24.7289  -31.0153   22.0925 N   0  0  0  0  0  0
  -23.4202  -28.8057   23.3040 O   0  0  0  0  0  0
  -28.2435  -26.0269   20.2330 O   0  0  0  0  0  0
  -26.5680  -34.8901   22.4632 O   0  0  0  0  0  0
  -23.5595  -32.1288   23.7005 O   0  0  0  0  0  0
  -30.8902  -21.0490   20.2687 C   0  0  0  0  0  0
  -30.3172  -23.4395   20.2060 C   0  0  0  0  0  0
  -31.2809  -22.4088   20.1892 C   0  0  0  0  0  0
  -29.5364  -20.6628   20.3324 C   0  0  0  0  0  0
  -28.9452  -23.1621   20.2697 C   0  0  0  0  0  0
  -33.7427  -22.4354   21.1019 C   0  0  0  0  0  0
  -33.3390  -23.8758   20.8713 C   0  0  0  0  0  0
  -28.7154  -18.3040   21.6072 C   0  0  0  0  0  0
  -28.7760  -16.7241   21.4094 C   0  0  0  0  0  0
  -30.2776  -17.7636   19.9885 C   0  0  0  0  0  0
  -32.7263  -22.7719   20.0380 C   0  0  0  0  0  0
  -29.2130  -19.0014   20.3235 C   0  0  2  0  0  0
  -27.8990  -24.4735   20.1854 C   0  0  0  0  0  0
  -28.5962  -21.7568   20.3251 N   0  0  0  0  0  0
  -29.8621  -16.3339   20.4849 N   0  0  0  0  0  0
  -31.4677  -12.8081   19.2039 H   0  0  0  0  0  0
  -30.4342  -11.7220   20.0705 H   0  0  0  0  0  0
  -29.8779  -11.7564   17.6093 H   0  0  0  0  0  0
  -29.6010  -13.4765   17.6855 H   0  0  0  0  0  0
  -27.9768  -11.2786   18.9981 H   0  0  0  0  0  0
  -27.4029  -12.4256   17.8184 H   0  0  0  0  0  0
  -27.5753  -14.2558   19.3873 H   0  0  0  0  0  0
  -28.7853  -12.3730   21.4638 H   0  0  0  0  0  0
  -28.3413  -14.0331   21.7398 H   0  0  0  0  0  0
  -25.2776   -9.5720   22.4750 H   0  0  0  0  0  0
  -24.0025   -7.4658   22.7479 H   0  0  0  0  0  0
  -21.0872   -8.8761   19.8951 H   0  0  0  0  0  0
  -22.3712  -10.9656   19.6141 H   0  0  0  0  0  0
  -21.1995   -7.6145   23.9733 H   0  0  0  0  0  0
  -21.1502   -6.0495   25.9083 H   0  0  0  0  0  0
  -22.0596   -2.7600   23.2826 H   0  0  0  0  0  0
  -22.3977  -11.9885   22.4854 H   0  0  0  0  0  0
  -21.0998  -13.1248   22.2583 H   0  0  0  0  0  0
  -24.6433  -15.8528   20.5383 H   0  0  0  0  0  0
  -26.2566  -15.6352   20.0874 H   0  0  0  0  0  0
  -26.7289  -32.5242   23.0972 H   0  0  0  0  0  0
  -25.0104  -33.9585   25.0303 H   0  0  0  0  0  0
  -22.7652  -31.2821   21.3729 H   0  0  0  0  0  0
  -23.3785  -35.9535   23.3281 H   0  0  0  0  0  0
  -24.3601  -36.8892   22.2069 H   0  0  0  0  0  0
  -23.7216  -37.6411   23.6693 H   0  0  0  0  0  0
  -26.1825  -31.4419   20.6248 H   0  0  0  0  0  0
  -26.8857  -30.7429   22.0419 H   0  0  0  0  0  0
  -28.1389  -28.7243   21.2634 H   0  0  0  0  0  0
  -25.8963  -25.8230   18.9835 H   0  0  0  0  0  0
  -23.9918  -27.2929   18.9659 H   0  0  0  0  0  0
  -23.8348  -30.5553   19.3982 H   0  0  0  0  0  0
  -22.8039  -29.2274   19.8395 H   0  0  0  0  0  0
  -25.1326  -36.1862   25.0817 H   0  0  0  0  0  0
  -20.9982  -28.3313   24.1356 H   0  0  0  0  0  0
  -20.5685  -26.2338   23.3619 H   0  0  0  0  0  0
  -21.6653  -26.7454   22.1199 H   0  0  0  0  0  0
  -19.6949  -25.6281   21.1255 H   0  0  0  0  0  0
  -19.6718  -27.3168   20.6712 H   0  0  0  0  0  0
  -17.4225  -26.6655   21.4010 H   0  0  0  0  0  0
  -18.0356  -26.0074   22.9012 H   0  0  0  0  0  0
  -19.7944  -30.7276   24.2235 H   0  0  0  0  0  0
  -17.5027  -31.6283   24.5137 H   0  0  0  0  0  0
  -15.5353  -30.2972   23.7708 H   0  0  0  0  0  0
  -15.8670  -28.0811   22.7108 H   0  0  0  0  0  0
  -24.5907  -30.7074   25.7664 H   0  0  0  0  0  0
  -24.8867  -32.2883   26.4747 H   0  0  0  0  0  0
  -25.7968  -30.8911   27.0187 H   0  0  0  0  0  0
  -26.3018  -29.6625   24.1341 H   0  0  0  0  0  0
  -27.4028  -29.7260   25.4906 H   0  0  0  0  0  0
  -27.8935  -30.4144   23.9633 H   0  0  0  0  0  0
  -27.2736  -33.3626   26.1974 H   0  0  0  0  0  0
  -28.3935  -32.6750   25.0315 H   0  0  0  0  0  0
  -28.0706  -31.8430   26.5439 H   0  0  0  0  0  0
  -28.2588  -38.0088   24.7550 H   0  0  0  0  0  0
  -28.1098  -36.2629   24.6260 H   0  0  0  0  0  0
  -27.2311  -37.1370   25.8869 H   0  0  0  0  0  0
  -20.9501  -29.8737   21.6755 H   0  0  0  0  0  0
  -26.0165  -38.2822   24.1399 H   0  0  0  0  0  0
  -31.6565  -20.2877   20.2488 H   0  0  0  0  0  0
  -30.6338  -24.4728   20.1373 H   0  0  0  0  0  0
  -33.3861  -21.9469   22.0066 H   0  0  0  0  0  0
  -34.7408  -22.1497   20.7756 H   0  0  0  0  0  0
  -34.0643  -24.5292   20.3888 H   0  0  0  0  0  0
  -32.7197  -24.3498   21.6304 H   0  0  0  0  0  0
  -29.3821  -18.5790   22.4253 H   0  0  0  0  0  0
  -27.7174  -18.6385   21.8924 H   0  0  0  0  0  0
  -27.8391  -16.3739   20.9793 H   0  0  0  0  0  0
  -28.8962  -16.2264   22.3729 H   0  0  0  0  0  0
  -31.2302  -17.9855   20.4696 H   0  0  0  0  0  0
  -30.4851  -17.7254   18.9184 H   0  0  0  0  0  0
  -33.0353  -22.7018   18.9961 H   0  0  0  0  0  0
  -28.4114  -18.9055   19.5913 H   0  0  0  0  0  0
  -27.1527  -24.3079   20.9644 H   0  0  0  0  0  0
  -27.3749  -24.3078   19.2456 H   0  0  0  0  0  0
  1 25  1  0  0  0
  1 30  2  0  0  0
  1 85  1  0  0  0
  2  3  1  0  0  0
  2 25  1  0  0  0
  2 86  1  0  0  0
  2 87  1  0  0  0
  3  4  1  0  0  0
  3 88  1  0  0  0
  3 89  1  0  0  0
  4  5  1  0  0  0
  4 90  1  0  0  0
  4 91  1  0  0  0
  5  6  1  0  0  0
  5 26  1  0  0  0
  5 92  1  0  0  0
  6 25  1  0  0  0
  6 93  1  0  0  0
  6 94  1  0  0  0
  7  8  2  0  0  0
  7 26  1  0  0  0
  7 29  1  0  0  0
  8  9  1  0  0  0
  8 22  1  0  0  0
  9 10  1  0  0  0
  9 27  2  0  0  0
 10 11  2  0  0  0
 10 15  1  0  0  0
 11 12  1  0  0  0
 11 95  1  0  0  0
 12 13  2  0  0  0
 12 96  1  0  0  0
 13 14  1  0  0  0
 13 31  1  0  0  0
 14 15  2  0  0  0
 14 97  1  0  0  0
 15 98  1  0  0  0
 16 17  2  0  0  0
 16 21  1  0  0  0
 16 31  1  0  0  0
 17 18  1  0  0  0
 17 99  1  0  0  0
 18 19  2  0  0  0
 18100  1  0  0  0
 19 20  1  0  0  0
 19 24  1  0  0  0
 20 21  2  0  0  0
 20101  1  0  0  0
 21 23  1  0  0  0
 22 28  1  0  0  0
 22 32  2  0  0  0
 26 27  1  0  0  0
 28102  1  0  0  0
 28103  1  0  0  0
 29104  1  0  0  0
 29105  1  0  0  0
 33 34  1  0  0  0
 33 66  1  0  0  0
 33 70  2  0  0  0
 34 36  1  0  0  0
 34 59  1  0  0  0
 34106  1  0  0  0
 35 44  2  0  0  0
 35 45  1  0  0  0
 35 68  1  0  0  0
 36 56  1  0  0  0
 36107  1  0  0  0
 37 39  1  0  0  0
 37 47  1  0  0  0
 37 66  1  0  0  0
 37108  1  0  0  0
 38 43  2  0  0  0
 38 46  1  0  0  0
 38 47  1  0  0  0
 39 64  1  0  0  0
 39 67  2  0  0  0
 40 52  1  0  0  0
 40 53  2  0  0  0
 40 58  1  0  0  0
 41109  1  0  0  0
 41110  1  0  0  0
 41111  1  0  0  0
 41 48  1  0  0  0
 42 43  1  0  0  0
 42 66  1  0  0  0
 42112  1  0  0  0
 42113  1  0  0  0
 43 44  1  0  0  0
 44114  1  0  0  0
 45 46  2  0  0  0
 45115  1  0  0  0
 46116  1  0  0  0
 47117  1  0  0  0
 47118  1  0  0  0
 48 56  1  0  0  0
 48 65  1  0  0  0
 48119  1  0  0  0
 49 50  1  0  0  0
 49 53  1  0  0  0
 49 64  1  0  0  0
 49120  1  0  0  0
 50 51  1  0  0  0
 50121  1  0  0  0
 50122  1  0  0  0
 51 52  1  0  0  0
 51123  1  0  0  0
 51124  1  0  0  0
 52125  1  0  0  0
 52126  1  0  0  0
 53 54  1  0  0  0
 54 55  2  0  0  0
 54127  1  0  0  0
 55 57  1  0  0  0
 55128  1  0  0  0
 56 69  2  0  0  0
 57 58  2  0  0  0
 57129  1  0  0  0
 58130  1  0  0  0
 59 60  1  0  0  0
 59 61  1  0  0  0
 59 62  1  0  0  0
 60131  1  0  0  0
 60132  1  0  0  0
 60133  1  0  0  0
 61134  1  0  0  0
 61135  1  0  0  0
 61136  1  0  0  0
 62137  1  0  0  0
 62138  1  0  0  0
 62139  1  0  0  0
 63 65  1  0  0  0
 63140  1  0  0  0
 63141  1  0  0  0
 63142  1  0  0  0
 64143  1  0  0  0
 65144  1  0  0  0
 68 83  1  0  0  0
 71 73  2  0  0  0
 71 74  1  0  0  0
 71145  1  0  0  0
 72 73  1  0  0  0
 72 75  2  0  0  0
 72146  1  0  0  0
 73 81  1  0  0  0
 74 84  2  0  0  0
 74 82  1  0  0  0
 75 83  1  0  0  0
 75 84  1  0  0  0
 76 77  1  0  0  0
 76 81  1  0  0  0
 76147  1  0  0  0
 76148  1  0  0  0
 77 81  1  0  0  0
 77149  1  0  0  0
 77150  1  0  0  0
 78 79  1  0  0  0
 78 82  1  0  0  0
 78151  1  0  0  0
 78152  1  0  0  0
 79 85  1  0  0  0
 79153  1  0  0  0
 79154  1  0  0  0
 80 82  1  0  0  0
 80 85  1  0  0  0
 80155  1  0  0  0
 80156  1  0  0  0
 81157  1  0  0  0
 82158  1  0  0  0
 83159  1  0  0  0
 83160  1  0  0  0
M  ISO  4   1 100  68 101  83 101  85 100
M  END
> <chiral flag>
0

> <version>
0

> <s_m_source_file>
/data/baiqing/PycharmProjects/Reinvent-master-3.2/result/LINK_invent/BTK/process_docking_weight1_custom_sum_contain_oxygen_bond_distance_aromatic_linkinvent_7_9_3/rearranged_h_0187.sdf

> <i_m_source_file_index>
64

> <r_mmod_Potential_Energy-OPLS-2005>
748.4716796875

> <r_mmod_Stretch_Energy-OPLS-2005>
330.722412109375

> <r_mmod_Bend_Energy-OPLS-2005>
329.100372314453

> <r_mmod_Torsional_Energy-OPLS-2005>
335.319427490234

> <r_mmod_Improper_Torsional_Energy-OPLS-2005>
9.27850914001465

> <r_mmod_Van_der_Waal_Energy-OPLS-2005>
119.785064697266

> <r_mmod_Electrostatic_Energy-OPLS-2005>
-418.576171875

> <r_mmod_Solvation_Energy-OPLS-2005>
-220.973007202148

> <b_mmod_Minimization_Converged-OPLS-2005>
0

> <r_mmod_RMS_Derivative-OPLS-2005>
2.69624543190002

$$$$
64
                    3D
 Structure written by MMmdl.
154163  0  0  1  0            999 V2000
  -30.6293  -14.8450   20.4410 C   0  0  0  0  0  0
  -30.4255  -12.5258   19.4930 C   0  0  0  0  0  0
  -29.5109  -12.5111   18.2493 C   0  0  0  0  0  0
  -28.0433  -12.3150   18.6702 C   0  0  0  0  0  0
  -27.6314  -13.2466   19.8414 C   0  0  2  0  0  0
  -28.6770  -13.2660   20.9779 C   0  0  0  0  0  0
  -25.2461  -13.8222   20.5734 C   0  0  0  0  0  0
  -24.1772  -13.0442   20.9230 C   0  0  0  0  0  0
  -24.6390  -11.6929   20.8764 C   0  0  0  0  0  0
  -23.9078  -10.4297   21.0417 C   0  0  0  0  0  0
  -24.3625   -9.4209   21.9192 C   0  0  0  0  0  0
  -23.6292   -8.2243   22.0765 C   0  0  0  0  0  0
  -22.4270   -8.0285   21.3555 C   0  0  0  0  0  0
  -21.9911   -9.0262   20.4659 C   0  0  0  0  0  0
  -22.7246  -10.2140   20.3066 C   0  0  0  0  0  0
  -21.6852   -6.0743   22.5284 C   0  0  0  0  0  0
  -21.4014   -6.5643   23.8218 C   0  0  0  0  0  0
  -21.3660   -5.6793   24.9178 C   0  0  0  0  0  0
  -21.6038   -4.3057   24.7226 C   0  0  0  0  0  0
  -21.8815   -3.8152   23.4346 C   0  0  0  0  0  0
  -21.9188   -4.6970   22.3404 C   0  0  0  0  0  0
  -22.7790  -13.5216   21.1883 C   0  0  0  0  0  0
  -22.1658   -4.2156   21.0982 F   0  0  0  0  0  0
  -21.5627   -3.4540   25.7740 F   0  0  0  0  0  0
  -29.9637  -13.6313   20.3760 N   0  0  0  0  0  0
  -26.2895  -12.9458   20.3282 N   0  0  0  0  0  0
  -25.9325  -11.6587   20.5765 N   0  0  0  0  0  0
  -22.0435  -12.8212   22.0439 N   0  0  0  0  0  0
  -25.4127  -15.1954   20.4166 N   0  0  0  0  0  0
  -31.8320  -14.8534   20.1686 O   0  0  0  0  0  0
  -21.6633   -6.8885   21.4245 O   0  0  0  0  0  0
  -22.3480  -14.5517   20.6726 O   0  0  0  0  0  0
  -24.6403  -31.8504   23.1950 C   0  0  0  0  0  0
  -25.9198  -32.4724   23.8314 C   0  0  1  0  0  0
  -27.2033  -27.1749   20.1353 C   0  0  0  0  0  0
  -25.5967  -33.8529   24.2233 N   0  0  0  0  0  0
  -23.4400  -30.4754   21.5409 C   0  0  2  0  0  0
  -24.8873  -28.9218   20.1057 C   0  0  0  0  0  0
  -22.7555  -29.4579   22.4874 C   0  0  0  0  0  0
  -18.0305  -28.1395   22.8478 C   0  0  0  0  0  0
  -24.1490  -36.7264   23.2637 C   0  0  0  0  0  0
  -25.9963  -30.7349   21.3920 C   0  0  0  0  0  0
  -26.0648  -29.3526   20.7296 C   0  0  0  0  0  0
  -27.2246  -28.4932   20.7360 C   0  0  0  0  0  0
  -26.0031  -26.8579   19.4520 C   0  0  0  0  0  0
  -24.8676  -27.6859   19.4523 C   0  0  0  0  0  0
  -23.6633  -29.8188   20.1551 C   0  0  0  0  0  0
  -25.4119  -36.3047   24.0320 C   0  0  1  0  0  0
  -20.5918  -28.3717   23.1239 C   0  0  2  0  0  0
  -20.6795  -26.9424   22.5399 C   0  0  0  0  0  0
  -19.5763  -26.6382   21.5211 C   0  0  0  0  0  0
  -18.1944  -26.7933   22.1626 C   0  0  0  0  0  0
  -19.1564  -28.8873   23.2850 C   0  0  0  0  0  0
  -18.9481  -30.1470   23.8871 C   0  0  0  0  0  0
  -17.6478  -30.6588   24.0560 C   0  0  0  0  0  0
  -25.9073  -34.9420   23.5081 C   0  0  0  0  0  0
  -16.5368  -29.9083   23.6332 C   0  0  0  0  0  0
  -16.7291  -28.6503   23.0349 C   0  0  0  0  0  0
  -26.4533  -31.6568   25.0729 C   0  0  0  0  0  0
  -25.3730  -31.3748   26.1432 C   0  0  0  0  0  0
  -27.0395  -30.2967   24.6282 C   0  0  0  0  0  0
  -27.6063  -32.4329   25.7517 C   0  0  0  0  0  0
  -27.5577  -37.1788   24.8467 C   0  0  0  0  0  0
  -21.4252  -29.3054   22.3622 N   0  0  0  0  0  0
  -26.4283  -37.3756   23.9412 N   0  0  0  0  0  0
  -24.7117  -31.0401   22.0973 N   0  0  0  0  0  0
  -23.4226  -28.8109   23.2989 O   0  0  0  0  0  0
  -28.2304  -26.1708   20.2297 O   0  0  0  0  0  0
  -26.5639  -34.8907   22.4648 O   0  0  0  0  0  0
  -23.5529  -32.1366   23.7184 O   0  0  0  0  0  0
  -28.9145  -22.6088   21.4915 C   0  0  0  0  0  0
  -29.2253  -21.2829   21.1715 C   0  0  0  0  0  0
  -28.5940  -23.3090   20.2481 C   0  0  0  0  0  0
  -29.6399  -19.8859   21.6980 C   0  0  0  0  0  0
  -29.4101  -19.8146   19.2950 C   0  0  0  0  0  0
  -30.2548  -19.0885   20.4501 C   0  0  2  0  0  0
  -27.8280  -24.7143   19.9355 C   0  0  0  0  0  0
  -30.6838  -17.4529   20.4623 C   0  0  0  0  0  0
  -28.7453  -22.3744   19.2517 N   0  0  0  0  0  0
  -29.1148  -21.1767   19.8414 N   0  0  0  0  0  0
  -29.9629  -16.0811   20.5835 N   0  0  0  0  0  0
  -31.6003  -19.6974   20.2916 N   0  3  0  0  0  0
  -31.4658  -12.6422   19.1853 H   0  0  0  0  0  0
  -30.3797  -11.5715   20.0199 H   0  0  0  0  0  0
  -29.8129  -11.7178   17.5641 H   0  0  0  0  0  0
  -29.6170  -13.4484   17.7005 H   0  0  0  0  0  0
  -27.9284  -11.2740   18.9743 H   0  0  0  0  0  0
  -27.3789  -12.4591   17.8172 H   0  0  0  0  0  0
  -27.6007  -14.2507   19.4189 H   0  0  0  0  0  0
  -28.7391  -12.2965   21.4743 H   0  0  0  0  0  0
  -28.3960  -13.9907   21.7437 H   0  0  0  0  0  0
  -25.2768   -9.5677   22.4774 H   0  0  0  0  0  0
  -24.0005   -7.4624   22.7470 H   0  0  0  0  0  0
  -21.0848   -8.8784   19.8952 H   0  0  0  0  0  0
  -22.3710  -10.9685   19.6178 H   0  0  0  0  0  0
  -21.2015   -7.6154   23.9726 H   0  0  0  0  0  0
  -21.1482   -6.0525   25.9082 H   0  0  0  0  0  0
  -22.0595   -2.7615   23.2844 H   0  0  0  0  0  0
  -22.4040  -11.9876   22.4840 H   0  0  0  0  0  0
  -21.1053  -13.1251   22.2636 H   0  0  0  0  0  0
  -24.6426  -15.8458   20.5273 H   0  0  0  0  0  0
  -26.2578  -15.6387   20.0809 H   0  0  0  0  0  0
  -26.7261  -32.5342   23.1043 H   0  0  0  0  0  0
  -25.0119  -33.9660   25.0381 H   0  0  0  0  0  0
  -22.7395  -31.3002   21.3951 H   0  0  0  0  0  0
  -23.3757  -35.9591   23.3289 H   0  0  0  0  0  0
  -24.3576  -36.8899   22.2053 H   0  0  0  0  0  0
  -23.7243  -37.6459   23.6671 H   0  0  0  0  0  0
  -26.1515  -31.4934   20.6233 H   0  0  0  0  0  0
  -26.8672  -30.7795   22.0338 H   0  0  0  0  0  0
  -28.1150  -28.8126   21.2585 H   0  0  0  0  0  0
  -25.8786  -25.9285   18.9197 H   0  0  0  0  0  0
  -23.9725  -27.3568   18.9427 H   0  0  0  0  0  0
  -23.7979  -30.6002   19.4060 H   0  0  0  0  0  0
  -22.7782  -29.2628   19.8406 H   0  0  0  0  0  0
  -25.1301  -36.1882   25.0810 H   0  0  0  0  0  0
  -21.0009  -28.3304   24.1361 H   0  0  0  0  0  0
  -20.5695  -26.2331   23.3615 H   0  0  0  0  0  0
  -21.6659  -26.7436   22.1190 H   0  0  0  0  0  0
  -19.6923  -25.6288   21.1247 H   0  0  0  0  0  0
  -19.6692  -27.3185   20.6733 H   0  0  0  0  0  0
  -17.4211  -26.6672   21.4031 H   0  0  0  0  0  0
  -18.0345  -26.0081   22.9029 H   0  0  0  0  0  0
  -19.7957  -30.7295   24.2224 H   0  0  0  0  0  0
  -17.5030  -31.6262   24.5176 H   0  0  0  0  0  0
  -15.5369  -30.2978   23.7663 H   0  0  0  0  0  0
  -15.8692  -28.0812   22.7076 H   0  0  0  0  0  0
  -24.5924  -30.7072   25.7767 H   0  0  0  0  0  0
  -24.8905  -32.2929   26.4795 H   0  0  0  0  0  0
  -25.8032  -30.8977   27.0247 H   0  0  0  0  0  0
  -26.3009  -29.6696   24.1274 H   0  0  0  0  0  0
  -27.4013  -29.7248   25.4838 H   0  0  0  0  0  0
  -27.8913  -30.4211   23.9591 H   0  0  0  0  0  0
  -27.2649  -33.3643   26.2045 H   0  0  0  0  0  0
  -28.3900  -32.6871   25.0369 H   0  0  0  0  0  0
  -28.0697  -31.8491   26.5479 H   0  0  0  0  0  0
  -28.2583  -38.0095   24.7517 H   0  0  0  0  0  0
  -28.1085  -36.2627   24.6284 H   0  0  0  0  0  0
  -27.2293  -37.1420   25.8868 H   0  0  0  0  0  0
  -20.9455  -29.8795   21.6829 H   0  0  0  0  0  0
  -26.0156  -38.2821   24.1425 H   0  0  0  0  0  0
  -28.8532  -23.0154   22.4917 H   0  0  0  0  0  0
  -28.7580  -19.3634   22.0695 H   0  0  0  0  0  0
  -30.3364  -19.9629   22.5340 H   0  0  0  0  0  0
  -28.4650  -19.2970   19.1279 H   0  0  0  0  0  0
  -29.9306  -19.8845   18.3390 H   0  0  0  0  0  0
  -26.8520  -24.5847   20.4043 H   0  0  0  0  0  0
  -27.6368  -24.7039   18.8619 H   0  0  0  0  0  0
  -31.4295  -17.3731   21.2558 H   0  0  0  0  0  0
  -31.2519  -17.3227   19.5392 H   0  0  0  0  0  0
  -28.9662  -16.0735   20.7415 H   0  0  0  0  0  0
  -31.5273  -20.6983   20.2384 H   0  0  0  0  0  0
  -32.0455  -19.3724   19.4509 H   0  0  0  0  0  0
  -32.1972  -19.4669   21.0669 H   0  0  0  0  0  0
  1 25  1  0  0  0
  1 30  2  0  0  0
  1 81  1  0  0  0
  2  3  1  0  0  0
  2 25  1  0  0  0
  2 83  1  0  0  0
  2 84  1  0  0  0
  3  4  1  0  0  0
  3 85  1  0  0  0
  3 86  1  0  0  0
  4  5  1  0  0  0
  4 87  1  0  0  0
  4 88  1  0  0  0
  5  6  1  0  0  0
  5 26  1  0  0  0
  5 89  1  0  0  0
  6 25  1  0  0  0
  6 90  1  0  0  0
  6 91  1  0  0  0
  7  8  2  0  0  0
  7 26  1  0  0  0
  7 29  1  0  0  0
  8  9  1  0  0  0
  8 22  1  0  0  0
  9 10  1  0  0  0
  9 27  2  0  0  0
 10 11  2  0  0  0
 10 15  1  0  0  0
 11 12  1  0  0  0
 11 92  1  0  0  0
 12 13  2  0  0  0
 12 93  1  0  0  0
 13 14  1  0  0  0
 13 31  1  0  0  0
 14 15  2  0  0  0
 14 94  1  0  0  0
 15 95  1  0  0  0
 16 17  2  0  0  0
 16 21  1  0  0  0
 16 31  1  0  0  0
 17 18  1  0  0  0
 17 96  1  0  0  0
 18 19  2  0  0  0
 18 97  1  0  0  0
 19 20  1  0  0  0
 19 24  1  0  0  0
 20 21  2  0  0  0
 20 98  1  0  0  0
 21 23  1  0  0  0
 22 28  1  0  0  0
 22 32  2  0  0  0
 26 27  1  0  0  0
 28 99  1  0  0  0
 28100  1  0  0  0
 29101  1  0  0  0
 29102  1  0  0  0
 33 34  1  0  0  0
 33 66  1  0  0  0
 33 70  2  0  0  0
 34 36  1  0  0  0
 34 59  1  0  0  0
 34103  1  0  0  0
 35 44  2  0  0  0
 35 45  1  0  0  0
 35 68  1  0  0  0
 36 56  1  0  0  0
 36104  1  0  0  0
 37 39  1  0  0  0
 37 47  1  0  0  0
 37 66  1  0  0  0
 37105  1  0  0  0
 38 43  2  0  0  0
 38 46  1  0  0  0
 38 47  1  0  0  0
 39 64  1  0  0  0
 39 67  2  0  0  0
 40 52  1  0  0  0
 40 53  2  0  0  0
 40 58  1  0  0  0
 41106  1  0  0  0
 41107  1  0  0  0
 41108  1  0  0  0
 41 48  1  0  0  0
 42 43  1  0  0  0
 42 66  1  0  0  0
 42109  1  0  0  0
 42110  1  0  0  0
 43 44  1  0  0  0
 44111  1  0  0  0
 45 46  2  0  0  0
 45112  1  0  0  0
 46113  1  0  0  0
 47114  1  0  0  0
 47115  1  0  0  0
 48 56  1  0  0  0
 48 65  1  0  0  0
 48116  1  0  0  0
 49 50  1  0  0  0
 49 53  1  0  0  0
 49 64  1  0  0  0
 49117  1  0  0  0
 50 51  1  0  0  0
 50118  1  0  0  0
 50119  1  0  0  0
 51 52  1  0  0  0
 51120  1  0  0  0
 51121  1  0  0  0
 52122  1  0  0  0
 52123  1  0  0  0
 53 54  1  0  0  0
 54 55  2  0  0  0
 54124  1  0  0  0
 55 57  1  0  0  0
 55125  1  0  0  0
 56 69  2  0  0  0
 57 58  2  0  0  0
 57126  1  0  0  0
 58127  1  0  0  0
 59 60  1  0  0  0
 59 61  1  0  0  0
 59 62  1  0  0  0
 60128  1  0  0  0
 60129  1  0  0  0
 60130  1  0  0  0
 61131  1  0  0  0
 61132  1  0  0  0
 61133  1  0  0  0
 62134  1  0  0  0
 62135  1  0  0  0
 62136  1  0  0  0
 63 65  1  0  0  0
 63137  1  0  0  0
 63138  1  0  0  0
 63139  1  0  0  0
 64140  1  0  0  0
 65141  1  0  0  0
 68 77  1  0  0  0
 71 72  2  0  0  0
 71 73  1  0  0  0
 71142  1  0  0  0
 72 74  1  0  0  0
 72 80  1  0  0  0
 73 77  1  0  0  0
 73 79  2  0  0  0
 74 76  1  0  0  0
 74143  1  0  0  0
 74144  1  0  0  0
 75 76  1  0  0  0
 75 80  1  0  0  0
 75145  1  0  0  0
 75146  1  0  0  0
 76 78  1  0  0  0
 76 82  1  0  0  0
 77147  1  0  0  0
 77148  1  0  0  0
 78 81  1  0  0  0
 78149  1  0  0  0
 78150  1  0  0  0
 79 80  1  0  0  0
 81151  1  0  0  0
 82152  1  0  0  0
 82153  1  0  0  0
 82154  1  0  0  0
M  CHG  1  82   1
M  ISO  4   1 100  68 101  77 101  81 100
M  END
> <chiral flag>
0

> <version>
0

> <s_m_source_file>
/data/baiqing/PycharmProjects/Reinvent-master-3.2/result/LINK_invent/BTK/process_docking_weight1_custom_sum_contain_oxygen_bond_distance_aromatic_linkinvent_7_9_3/rearranged_h_0187.sdf

> <i_m_source_file_index>
65

> <r_mmod_Potential_Energy-OPLS-2005>
218.881851196289

> <r_mmod_Stretch_Energy-OPLS-2005>
194.669799804688

> <r_mmod_Bend_Energy-OPLS-2005>
388.114318847656

> <r_mmod_Torsional_Energy-OPLS-2005>
252.772598266602

> <r_mmod_Improper_Torsional_Energy-OPLS-2005>
6.65167284011841

> <r_mmod_Van_der_Waal_Energy-OPLS-2005>
130.867691040039

> <r_mmod_Electrostatic_Energy-OPLS-2005>
-370.382476806641

> <r_mmod_Solvation_Energy-OPLS-2005>
-534.291687011719

> <b_mmod_Minimization_Converged-OPLS-2005>
0

> <r_mmod_RMS_Derivative-OPLS-2005>
1.13157415390015

$$$$
65
                    3D
 Structure written by MMmdl.
156165  0  0  1  0            999 V2000
  -30.6129  -14.8307   20.4796 C   0  0  0  0  0  0
  -30.4336  -12.5230   19.4788 C   0  0  0  0  0  0
  -29.5107  -12.5231   18.2393 C   0  0  0  0  0  0
  -28.0386  -12.3252   18.6519 C   0  0  0  0  0  0
  -27.6345  -13.2291   19.8448 C   0  0  2  0  0  0
  -28.6839  -13.1734   20.9772 C   0  0  0  0  0  0
  -25.2421  -13.8153   20.5638 C   0  0  0  0  0  0
  -24.1754  -13.0396   20.9219 C   0  0  0  0  0  0
  -24.6375  -11.6889   20.8769 C   0  0  0  0  0  0
  -23.9062  -10.4270   21.0422 C   0  0  0  0  0  0
  -24.3616   -9.4186   21.9196 C   0  0  0  0  0  0
  -23.6289   -8.2224   22.0761 C   0  0  0  0  0  0
  -22.4270   -8.0271   21.3548 C   0  0  0  0  0  0
  -21.9904   -9.0246   20.4652 C   0  0  0  0  0  0
  -22.7237  -10.2122   20.3064 C   0  0  0  0  0  0
  -21.6846   -6.0730   22.5280 C   0  0  0  0  0  0
  -21.4013   -6.5637   23.8213 C   0  0  0  0  0  0
  -21.3659   -5.6790   24.9175 C   0  0  0  0  0  0
  -21.6044   -4.3053   24.7225 C   0  0  0  0  0  0
  -21.8818   -3.8144   23.4347 C   0  0  0  0  0  0
  -21.9190   -4.6959   22.3403 C   0  0  0  0  0  0
  -22.7776  -13.5183   21.1882 C   0  0  0  0  0  0
  -22.1657   -4.2147   21.0979 F   0  0  0  0  0  0
  -21.5630   -3.4536   25.7738 F   0  0  0  0  0  0
  -29.9648  -13.6010   20.3943 N   0  0  0  0  0  0
  -26.2882  -12.9381   20.3252 N   0  0  0  0  0  0
  -25.9303  -11.6527   20.5765 N   0  0  0  0  0  0
  -22.0431  -12.8185   22.0453 N   0  0  0  0  0  0
  -25.3939  -15.1870   20.3930 N   0  0  0  0  0  0
  -31.8013  -14.8664   20.1393 O   0  0  0  0  0  0
  -21.6633   -6.8871   21.4240 O   0  0  0  0  0  0
  -22.3457  -14.5489   20.6729 O   0  0  0  0  0  0
  -24.6352  -31.8508   23.1933 C   0  0  0  0  0  0
  -25.9165  -32.4724   23.8292 C   0  0  1  0  0  0
  -27.2239  -27.2246   20.1486 C   0  0  0  0  0  0
  -25.5946  -33.8528   24.2226 N   0  0  0  0  0  0
  -23.4336  -30.4714   21.5366 C   0  0  2  0  0  0
  -24.8834  -28.9039   20.1157 C   0  0  0  0  0  0
  -22.7518  -29.4591   22.4892 C   0  0  0  0  0  0
  -18.0301  -28.1388   22.8486 C   0  0  0  0  0  0
  -24.1492  -36.7267   23.2640 C   0  0  0  0  0  0
  -25.9808  -30.7551   21.3748 C   0  0  0  0  0  0
  -26.0567  -29.3706   20.7237 C   0  0  0  0  0  0
  -27.2330  -28.5472   20.7203 C   0  0  0  0  0  0
  -26.0277  -26.8266   19.5183 C   0  0  0  0  0  0
  -24.8759  -27.6415   19.4996 C   0  0  0  0  0  0
  -23.6554  -29.7964   20.1563 C   0  0  0  0  0  0
  -25.4121  -36.3047   24.0319 C   0  0  1  0  0  0
  -20.5906  -28.3709   23.1257 C   0  0  2  0  0  0
  -20.6783  -26.9421   22.5407 C   0  0  0  0  0  0
  -19.5758  -26.6385   21.5211 C   0  0  0  0  0  0
  -18.1943  -26.7929   22.1626 C   0  0  0  0  0  0
  -19.1554  -28.8867   23.2866 C   0  0  0  0  0  0
  -18.9471  -30.1466   23.8887 C   0  0  0  0  0  0
  -17.6467  -30.6589   24.0565 C   0  0  0  0  0  0
  -25.9064  -34.9420   23.5077 C   0  0  0  0  0  0
  -16.5361  -29.9084   23.6331 C   0  0  0  0  0  0
  -16.7286  -28.6502   23.0355 C   0  0  0  0  0  0
  -26.4522  -31.6555   25.0692 C   0  0  0  0  0  0
  -25.3736  -31.3714   26.1405 C   0  0  0  0  0  0
  -27.0368  -30.2963   24.6194 C   0  0  0  0  0  0
  -27.6069  -32.4295   25.7481 C   0  0  0  0  0  0
  -27.5575  -37.1790   24.8467 C   0  0  0  0  0  0
  -21.4222  -29.3047   22.3632 N   0  0  0  0  0  0
  -26.4288  -37.3753   23.9407 N   0  0  0  0  0  0
  -24.7025  -31.0448   22.0912 N   0  0  0  0  0  0
  -23.4200  -28.8144   23.3014 O   0  0  0  0  0  0
  -28.3121  -26.3141   20.1352 O   0  0  0  0  0  0
  -26.5646  -34.8906   22.4649 O   0  0  0  0  0  0
  -23.5497  -32.1339   23.7216 O   0  0  0  0  0  0
  -28.0516  -22.2127   18.3076 C   0  0  0  0  0  0
  -28.4583  -23.5322   20.0724 C   0  0  0  0  0  0
  -28.9717  -21.2472   20.0932 C   0  0  0  0  0  0
  -28.4668  -17.8650   21.5226 C   0  0  0  0  0  0
  -28.6865  -16.3287   21.3819 C   0  0  0  0  0  0
  -30.4100  -17.4626   20.2648 C   0  0  0  0  0  0
  -29.2414  -18.5624   20.3995 C   0  0  2  0  0  0
  -27.5100  -22.0668   16.9013 C   0  0  0  0  0  0
  -28.1738  -24.9502   20.7960 C   0  0  0  0  0  0
  -28.0025  -23.4384   18.8268 N   0  0  0  0  0  0
  -28.5034  -21.0926   18.8706 N   0  0  0  0  0  0
  -28.9760  -22.4449   20.7510 N   0  0  0  0  0  0
  -29.9225  -16.0600   20.6323 N   0  0  0  0  0  0
  -29.5184  -20.0467   20.6877 N   0  0  0  0  0  0
  -31.4700  -12.6579   19.1662 H   0  0  0  0  0  0
  -30.4076  -11.5532   19.9786 H   0  0  0  0  0  0
  -29.8124  -11.7412   17.5417 H   0  0  0  0  0  0
  -29.6179  -13.4676   17.7041 H   0  0  0  0  0  0
  -27.9097  -11.2771   18.9239 H   0  0  0  0  0  0
  -27.3788  -12.5010   17.8015 H   0  0  0  0  0  0
  -27.6182  -14.2403   19.4415 H   0  0  0  0  0  0
  -28.7588  -12.1586   21.3710 H   0  0  0  0  0  0
  -28.3917  -13.7809   21.8292 H   0  0  0  0  0  0
  -25.2760   -9.5662   22.4773 H   0  0  0  0  0  0
  -23.9997   -7.4608   22.7475 H   0  0  0  0  0  0
  -21.0837   -8.8771   19.8951 H   0  0  0  0  0  0
  -22.3703  -10.9668   19.6176 H   0  0  0  0  0  0
  -21.2009   -7.6145   23.9717 H   0  0  0  0  0  0
  -21.1480   -6.0520   25.9079 H   0  0  0  0  0  0
  -22.0598   -2.7607   23.2847 H   0  0  0  0  0  0
  -22.4048  -11.9856   22.4856 H   0  0  0  0  0  0
  -21.1055  -13.1216   22.2666 H   0  0  0  0  0  0
  -24.6147  -15.8277   20.4986 H   0  0  0  0  0  0
  -26.2257  -15.6324   20.0296 H   0  0  0  0  0  0
  -26.7230  -32.5372   23.1030 H   0  0  0  0  0  0
  -25.0083  -33.9646   25.0365 H   0  0  0  0  0  0
  -22.7319  -31.2943   21.3845 H   0  0  0  0  0  0
  -23.3750  -35.9604   23.3300 H   0  0  0  0  0  0
  -24.3582  -36.8895   22.2054 H   0  0  0  0  0  0
  -23.7247  -37.6466   23.6671 H   0  0  0  0  0  0
  -26.1192  -31.5111   20.6009 H   0  0  0  0  0  0
  -26.8576  -30.8098   22.0085 H   0  0  0  0  0  0
  -28.1359  -28.9069   21.1942 H   0  0  0  0  0  0
  -25.9795  -25.8568   19.0426 H   0  0  0  0  0  0
  -23.9783  -27.2793   19.0174 H   0  0  0  0  0  0
  -23.7825  -30.5671   19.3949 H   0  0  0  0  0  0
  -22.7726  -29.2307   19.8536 H   0  0  0  0  0  0
  -25.1304  -36.1882   25.0810 H   0  0  0  0  0  0
  -21.0008  -28.3297   24.1372 H   0  0  0  0  0  0
  -20.5676  -26.2325   23.3618 H   0  0  0  0  0  0
  -21.6652  -26.7432   22.1207 H   0  0  0  0  0  0
  -19.6918  -25.6294   21.1247 H   0  0  0  0  0  0
  -19.6691  -27.3191   20.6736 H   0  0  0  0  0  0
  -17.4210  -26.6680   21.4032 H   0  0  0  0  0  0
  -18.0347  -26.0070   22.9021 H   0  0  0  0  0  0
  -19.7946  -30.7292   24.2248 H   0  0  0  0  0  0
  -17.5019  -31.6267   24.5170 H   0  0  0  0  0  0
  -15.5360  -30.2983   23.7654 H   0  0  0  0  0  0
  -15.8689  -28.0816   22.7070 H   0  0  0  0  0  0
  -24.5940  -30.7025   25.7738 H   0  0  0  0  0  0
  -24.8897  -32.2882   26.4779 H   0  0  0  0  0  0
  -25.8053  -30.8937   27.0209 H   0  0  0  0  0  0
  -26.2952  -29.6698   24.1222 H   0  0  0  0  0  0
  -27.4040  -29.7237   25.4723 H   0  0  0  0  0  0
  -27.8836  -30.4218   23.9442 H   0  0  0  0  0  0
  -27.2679  -33.3612   26.2020 H   0  0  0  0  0  0
  -28.3914  -32.6814   25.0333 H   0  0  0  0  0  0
  -28.0694  -31.8432   26.5432 H   0  0  0  0  0  0
  -28.2591  -38.0088   24.7508 H   0  0  0  0  0  0
  -28.1072  -36.2615   24.6303 H   0  0  0  0  0  0
  -27.2294  -37.1450   25.8871 H   0  0  0  0  0  0
  -20.9418  -29.8752   21.6815 H   0  0  0  0  0  0
  -26.0158  -38.2822   24.1407 H   0  0  0  0  0  0
  -28.8615  -18.1802   22.4901 H   0  0  0  0  0  0
  -27.4071  -18.1253   21.5148 H   0  0  0  0  0  0
  -27.8512  -15.9055   20.8389 H   0  0  0  0  0  0
  -28.7187  -15.8695   22.3705 H   0  0  0  0  0  0
  -30.8243  -17.4632   19.2555 H   0  0  0  0  0  0
  -31.2321  -17.7084   20.9387 H   0  0  0  0  0  0
  -28.6375  -18.5087   19.4921 H   0  0  0  0  0  0
  -26.7436  -22.8137   16.6929 H   0  0  0  0  0  0
  -27.0609  -21.0840   16.7565 H   0  0  0  0  0  0
  -28.3116  -22.1854   16.1729 H   0  0  0  0  0  0
  -28.8270  -24.9818   21.6680 H   0  0  0  0  0  0
  -27.1685  -24.8762   21.2119 H   0  0  0  0  0  0
  -29.9272  -20.2201   21.5981 H   0  0  0  0  0  0
  1 25  1  0  0  0
  1 30  2  0  0  0
  1 83  1  0  0  0
  2  3  1  0  0  0
  2 25  1  0  0  0
  2 85  1  0  0  0
  2 86  1  0  0  0
  3  4  1  0  0  0
  3 87  1  0  0  0
  3 88  1  0  0  0
  4  5  1  0  0  0
  4 89  1  0  0  0
  4 90  1  0  0  0
  5  6  1  0  0  0
  5 26  1  0  0  0
  5 91  1  0  0  0
  6 25  1  0  0  0
  6 92  1  0  0  0
  6 93  1  0  0  0
  7  8  2  0  0  0
  7 26  1  0  0  0
  7 29  1  0  0  0
  8  9  1  0  0  0
  8 22  1  0  0  0
  9 10  1  0  0  0
  9 27  2  0  0  0
 10 11  2  0  0  0
 10 15  1  0  0  0
 11 12  1  0  0  0
 11 94  1  0  0  0
 12 13  2  0  0  0
 12 95  1  0  0  0
 13 14  1  0  0  0
 13 31  1  0  0  0
 14 15  2  0  0  0
 14 96  1  0  0  0
 15 97  1  0  0  0
 16 17  2  0  0  0
 16 21  1  0  0  0
 16 31  1  0  0  0
 17 18  1  0  0  0
 17 98  1  0  0  0
 18 19  2  0  0  0
 18 99  1  0  0  0
 19 20  1  0  0  0
 19 24  1  0  0  0
 20 21  2  0  0  0
 20100  1  0  0  0
 21 23  1  0  0  0
 22 28  1  0  0  0
 22 32  2  0  0  0
 26 27  1  0  0  0
 28101  1  0  0  0
 28102  1  0  0  0
 29103  1  0  0  0
 29104  1  0  0  0
 33 34  1  0  0  0
 33 66  1  0  0  0
 33 70  2  0  0  0
 34 36  1  0  0  0
 34 59  1  0  0  0
 34105  1  0  0  0
 35 44  2  0  0  0
 35 45  1  0  0  0
 35 68  1  0  0  0
 36 56  1  0  0  0
 36106  1  0  0  0
 37 39  1  0  0  0
 37 47  1  0  0  0
 37 66  1  0  0  0
 37107  1  0  0  0
 38 43  2  0  0  0
 38 46  1  0  0  0
 38 47  1  0  0  0
 39 64  1  0  0  0
 39 67  2  0  0  0
 40 52  1  0  0  0
 40 53  2  0  0  0
 40 58  1  0  0  0
 41108  1  0  0  0
 41109  1  0  0  0
 41110  1  0  0  0
 41 48  1  0  0  0
 42 43  1  0  0  0
 42 66  1  0  0  0
 42111  1  0  0  0
 42112  1  0  0  0
 43 44  1  0  0  0
 44113  1  0  0  0
 45 46  2  0  0  0
 45114  1  0  0  0
 46115  1  0  0  0
 47116  1  0  0  0
 47117  1  0  0  0
 48 56  1  0  0  0
 48 65  1  0  0  0
 48118  1  0  0  0
 49 50  1  0  0  0
 49 53  1  0  0  0
 49 64  1  0  0  0
 49119  1  0  0  0
 50 51  1  0  0  0
 50120  1  0  0  0
 50121  1  0  0  0
 51 52  1  0  0  0
 51122  1  0  0  0
 51123  1  0  0  0
 52124  1  0  0  0
 52125  1  0  0  0
 53 54  1  0  0  0
 54 55  2  0  0  0
 54126  1  0  0  0
 55 57  1  0  0  0
 55127  1  0  0  0
 56 69  2  0  0  0
 57 58  2  0  0  0
 57128  1  0  0  0
 58129  1  0  0  0
 59 60  1  0  0  0
 59 61  1  0  0  0
 59 62  1  0  0  0
 60130  1  0  0  0
 60131  1  0  0  0
 60132  1  0  0  0
 61133  1  0  0  0
 61134  1  0  0  0
 61135  1  0  0  0
 62136  1  0  0  0
 62137  1  0  0  0
 62138  1  0  0  0
 63 65  1  0  0  0
 63139  1  0  0  0
 63140  1  0  0  0
 63141  1  0  0  0
 64142  1  0  0  0
 65143  1  0  0  0
 68 79  1  0  0  0
 71 78  1  0  0  0
 71 80  2  0  0  0
 71 81  1  0  0  0
 72 79  1  0  0  0
 72 80  1  0  0  0
 72 82  2  0  0  0
 73 81  2  0  0  0
 73 82  1  0  0  0
 73 84  1  0  0  0
 74 75  1  0  0  0
 74 77  1  0  0  0
 74144  1  0  0  0
 74145  1  0  0  0
 75 83  1  0  0  0
 75146  1  0  0  0
 75147  1  0  0  0
 76 77  1  0  0  0
 76 83  1  0  0  0
 76148  1  0  0  0
 76149  1  0  0  0
 77 84  1  0  0  0
 77150  1  0  0  0
 78151  1  0  0  0
 78152  1  0  0  0
 78153  1  0  0  0
 79154  1  0  0  0
 79155  1  0  0  0
 84156  1  0  0  0
M  ISO  4   1 100  68 101  79 101  83 100
M  END
> <chiral flag>
0

> <version>
0

> <s_m_source_file>
/data/baiqing/PycharmProjects/Reinvent-master-3.2/result/LINK_invent/BTK/process_docking_weight1_custom_sum_contain_oxygen_bond_distance_aromatic_linkinvent_7_9_3/rearranged_h_0187.sdf

> <i_m_source_file_index>
66

> <r_mmod_Potential_Energy-OPLS-2005>
-339.990539550781

> <r_mmod_Stretch_Energy-OPLS-2005>
147.006683349609

> <r_mmod_Bend_Energy-OPLS-2005>
227.065582275391

> <r_mmod_Torsional_Energy-OPLS-2005>
320.4560546875

> <r_mmod_Improper_Torsional_Energy-OPLS-2005>
9.63319396972656

> <r_mmod_Van_der_Waal_Energy-OPLS-2005>
149.271484375

> <r_mmod_Electrostatic_Energy-OPLS-2005>
-1064.931640625

> <r_mmod_Solvation_Energy-OPLS-2005>
-240.221908569336

> <b_mmod_Minimization_Converged-OPLS-2005>
0

> <r_mmod_RMS_Derivative-OPLS-2005>
0.757814764976501

$$$$
66
                    3D
 Structure written by MMmdl.
164173  0  0  1  0            999 V2000
  -30.4767  -15.2101   20.3696 C   0  0  0  0  0  0
  -30.4338  -12.7706   19.5181 C   0  0  0  0  0  0
  -29.5290  -12.5653   18.2790 C   0  0  0  0  0  0
  -28.0755  -12.3011   18.7088 C   0  0  0  0  0  0
  -27.6123  -13.2741   19.8223 C   0  0  2  0  0  0
  -28.6486  -13.4394   20.9535 C   0  0  0  0  0  0
  -25.2404  -13.8258   20.5765 C   0  0  0  0  0  0
  -24.1744  -13.0446   20.9244 C   0  0  0  0  0  0
  -24.6395  -11.6941   20.8755 C   0  0  0  0  0  0
  -23.9089  -10.4295   21.0402 C   0  0  0  0  0  0
  -24.3636   -9.4211   21.9182 C   0  0  0  0  0  0
  -23.6307   -8.2248   22.0752 C   0  0  0  0  0  0
  -22.4288   -8.0282   21.3542 C   0  0  0  0  0  0
  -21.9927   -9.0256   20.4643 C   0  0  0  0  0  0
  -22.7259  -10.2133   20.3051 C   0  0  0  0  0  0
  -21.6857   -6.0738   22.5278 C   0  0  0  0  0  0
  -21.4015   -6.5639   23.8214 C   0  0  0  0  0  0
  -21.3661   -5.6789   24.9174 C   0  0  0  0  0  0
  -21.6044   -4.3053   24.7222 C   0  0  0  0  0  0
  -21.8817   -3.8146   23.4344 C   0  0  0  0  0  0
  -21.9193   -4.6964   22.3400 C   0  0  0  0  0  0
  -22.7762  -13.5199   21.1895 C   0  0  0  0  0  0
  -22.1663   -4.2152   21.0978 F   0  0  0  0  0  0
  -21.5630   -3.4534   25.7734 F   0  0  0  0  0  0
  -29.8847  -13.9217   20.3203 N   0  0  0  0  0  0
  -26.2825  -12.9528   20.3235 N   0  0  0  0  0  0
  -25.9337  -11.6632   20.5732 N   0  0  0  0  0  0
  -22.0419  -12.8179   22.0447 N   0  0  0  0  0  0
  -25.4081  -15.1995   20.4252 N   0  0  0  0  0  0
  -31.7058  -15.1773   20.2068 O   0  0  0  0  0  0
  -21.6647   -6.8882   21.4240 O   0  0  0  0  0  0
  -22.3441  -14.5504   20.6741 O   0  0  0  0  0  0
  -24.6603  -31.8280   23.1744 C   0  0  0  0  0  0
  -25.9303  -32.4609   23.8187 C   0  0  1  0  0  0
  -27.2113  -26.9554   20.1835 C   0  0  0  0  0  0
  -25.5987  -33.8422   24.2093 N   0  0  0  0  0  0
  -23.4728  -30.4427   21.5232 C   0  0  2  0  0  0
  -24.9258  -28.8388   20.1149 C   0  0  0  0  0  0
  -22.7654  -29.4468   22.4792 C   0  0  0  0  0  0
  -18.0325  -28.1413   22.8470 C   0  0  0  0  0  0
  -24.1494  -36.7208   23.2646 C   0  0  0  0  0  0
  -26.0423  -30.6432   21.4032 C   0  0  0  0  0  0
  -26.1102  -29.2362   20.7485 C   0  0  0  0  0  0
  -27.2505  -28.3160   20.7594 C   0  0  0  0  0  0
  -26.0021  -26.7154   19.4908 C   0  0  0  0  0  0
  -24.8959  -27.5975   19.4655 C   0  0  0  0  0  0
  -23.7117  -29.7634   20.1483 C   0  0  0  0  0  0
  -25.4133  -36.2976   24.0303 C   0  0  1  0  0  0
  -20.5947  -28.3754   23.1197 C   0  0  2  0  0  0
  -20.6804  -26.9441   22.5403 C   0  0  0  0  0  0
  -19.5775  -26.6382   21.5219 C   0  0  0  0  0  0
  -18.1955  -26.7947   22.1622 C   0  0  0  0  0  0
  -19.1585  -28.8903   23.2822 C   0  0  0  0  0  0
  -18.9496  -30.1492   23.8858 C   0  0  0  0  0  0
  -17.6490  -30.6603   24.0558 C   0  0  0  0  0  0
  -25.9098  -34.9361   23.5012 C   0  0  0  0  0  0
  -16.5380  -29.9090   23.6349 C   0  0  0  0  0  0
  -16.7306  -28.6511   23.0367 C   0  0  0  0  0  0
  -26.4563  -31.6540   25.0700 C   0  0  0  0  0  0
  -25.3690  -31.3784   26.1352 C   0  0  0  0  0  0
  -27.0460  -30.2911   24.6415 C   0  0  0  0  0  0
  -27.6055  -32.4348   25.7499 C   0  0  0  0  0  0
  -27.5572  -37.1759   24.8464 C   0  0  0  0  0  0
  -21.4328  -29.3050   22.3546 N   0  0  0  0  0  0
  -26.4276  -37.3712   23.9418 N   0  0  0  0  0  0
  -24.7461  -30.9971   22.0869 N   0  0  0  0  0  0
  -23.4219  -28.8027   23.3012 O   0  0  0  0  0  0
  -28.2030  -25.8464   20.2311 O   0  0  0  0  0  0
  -26.5697  -34.8892   22.4600 O   0  0  0  0  0  0
  -23.5680  -32.1240   23.6856 O   0  0  0  0  0  0
  -29.9168  -20.8451   21.2208 C   0  0  0  0  0  0
  -29.4234  -19.6965   20.4575 C   0  0  0  0  0  0
  -28.0483  -21.5530   19.4941 C   0  0  0  0  0  0
  -28.5540  -22.7030   20.2713 C   0  0  0  0  0  0
  -30.1016  -17.3769   19.2097 C   0  0  0  0  0  0
  -30.0909  -18.0733   20.5248 C   0  0  2  0  0  0
  -29.6268  -19.2102   15.2697 C   0  0  0  0  0  0
  -27.2923  -19.7141   14.4192 C   0  0  0  0  0  0
  -26.9162  -21.7930   18.4953 C   0  0  0  0  0  0
  -27.7885  -24.2728   20.3982 C   0  0  0  0  0  0
  -26.8200  -20.7690   17.3433 C   0  0  0  0  0  0
  -28.1673  -19.4879   15.6658 C   0  0  0  0  0  0
  -29.5109  -22.2113   21.1569 N   0  0  0  0  0  0
  -28.4480  -20.1781   19.5862 N   0  0  0  0  0  0
  -29.7425  -16.4961   20.2884 N   0  0  0  0  0  0
  -28.0962  -20.6316   16.6051 N   0  3  0  0  0  0
  -31.4573  -12.9574   19.1899 H   0  0  0  0  0  0
  -30.4804  -11.8620   20.1208 H   0  0  0  0  0  0
  -29.8980  -11.7399   17.6687 H   0  0  0  0  0  0
  -29.5680  -13.4555   17.6490 H   0  0  0  0  0  0
  -28.0237  -11.2752   19.0750 H   0  0  0  0  0  0
  -27.4059  -12.3529   17.8493 H   0  0  0  0  0  0
  -27.5311  -14.2445   19.3309 H   0  0  0  0  0  0
  -28.8047  -12.5069   21.4977 H   0  0  0  0  0  0
  -28.3013  -14.1745   21.6813 H   0  0  0  0  0  0
  -25.2776   -9.5691   22.4762 H   0  0  0  0  0  0
  -24.0012   -7.4641   22.7476 H   0  0  0  0  0  0
  -21.0857   -8.8773   19.8952 H   0  0  0  0  0  0
  -22.3712  -10.9672   19.6161 H   0  0  0  0  0  0
  -21.2007   -7.6147   23.9720 H   0  0  0  0  0  0
  -21.1486   -6.0518   25.9079 H   0  0  0  0  0  0
  -22.0595   -2.7608   23.2840 H   0  0  0  0  0  0
  -22.4048  -11.9843   22.4829 H   0  0  0  0  0  0
  -21.1036  -13.1194   22.2661 H   0  0  0  0  0  0
  -24.6480  -15.8573   20.5588 H   0  0  0  0  0  0
  -26.2740  -15.6445   20.1460 H   0  0  0  0  0  0
  -26.7365  -32.5155   23.0897 H   0  0  0  0  0  0
  -25.0105  -33.9505   25.0223 H   0  0  0  0  0  0
  -22.7844  -31.2738   21.3554 H   0  0  0  0  0  0
  -23.3773  -35.9520   23.3268 H   0  0  0  0  0  0
  -24.3575  -36.8890   22.2068 H   0  0  0  0  0  0
  -23.7230  -37.6378   23.6722 H   0  0  0  0  0  0
  -26.2217  -31.3866   20.6252 H   0  0  0  0  0  0
  -26.9032  -30.6975   22.0577 H   0  0  0  0  0  0
  -28.1468  -28.6189   21.2825 H   0  0  0  0  0  0
  -25.8702  -25.7849   18.9617 H   0  0  0  0  0  0
  -23.9997  -27.2913   18.9428 H   0  0  0  0  0  0
  -23.8675  -30.5335   19.3922 H   0  0  0  0  0  0
  -22.8223  -29.2180   19.8280 H   0  0  0  0  0  0
  -25.1329  -36.1767   25.0792 H   0  0  0  0  0  0
  -21.0038  -28.3359   24.1318 H   0  0  0  0  0  0
  -20.5701  -26.2372   23.3639 H   0  0  0  0  0  0
  -21.6667  -26.7430   22.1198 H   0  0  0  0  0  0
  -19.6936  -25.6282   21.1277 H   0  0  0  0  0  0
  -19.6715  -27.3169   20.6732 H   0  0  0  0  0  0
  -17.4227  -26.6703   21.4019 H   0  0  0  0  0  0
  -18.0342  -26.0098   22.9025 H   0  0  0  0  0  0
  -19.7972  -30.7323   24.2209 H   0  0  0  0  0  0
  -17.5041  -31.6278   24.5167 H   0  0  0  0  0  0
  -15.5378  -30.2977   23.7698 H   0  0  0  0  0  0
  -15.8704  -28.0812   22.7111 H   0  0  0  0  0  0
  -24.5893  -30.7113   25.7655 H   0  0  0  0  0  0
  -24.8856  -32.2986   26.4646 H   0  0  0  0  0  0
  -25.7920  -30.9036   27.0213 H   0  0  0  0  0  0
  -26.3128  -29.6584   24.1401 H   0  0  0  0  0  0
  -27.3987  -29.7272   25.5060 H   0  0  0  0  0  0
  -27.9069  -30.4100   23.9831 H   0  0  0  0  0  0
  -27.2627  -33.3697   26.1944 H   0  0  0  0  0  0
  -28.3933  -32.6831   25.0373 H   0  0  0  0  0  0
  -28.0646  -31.8560   26.5523 H   0  0  0  0  0  0
  -28.2558  -38.0087   24.7536 H   0  0  0  0  0  0
  -28.1102  -36.2614   24.6259 H   0  0  0  0  0  0
  -27.2293  -37.1358   25.8867 H   0  0  0  0  0  0
  -20.9577  -29.8743   21.6681 H   0  0  0  0  0  0
  -26.0120  -38.2766   24.1444 H   0  0  0  0  0  0
  -30.7052  -20.6618   21.9361 H   0  0  0  0  0  0
  -31.0732  -17.2584   18.7324 H   0  0  0  0  0  0
  -29.2959  -17.5982   18.5135 H   0  0  0  0  0  0
  -31.0489  -18.2005   21.0255 H   0  0  0  0  0  0
  -29.6939  -18.3434   14.6113 H   0  0  0  0  0  0
  -30.2448  -18.9977   16.1430 H   0  0  0  0  0  0
  -30.0700  -20.0561   14.7431 H   0  0  0  0  0  0
  -27.3751  -18.8730   13.7302 H   0  0  0  0  0  0
  -27.5890  -20.6122   13.8768 H   0  0  0  0  0  0
  -26.2373  -19.8099   14.6752 H   0  0  0  0  0  0
  -27.0419  -22.7813   18.0529 H   0  0  0  0  0  0
  -25.9736  -21.8176   19.0425 H   0  0  0  0  0  0
  -27.4111  -24.2517   21.4204 H   0  0  0  0  0  0
  -26.8851  -24.1537   19.8102 H   0  0  0  0  0  0
  -26.0254  -21.0652   16.6584 H   0  0  0  0  0  0
  -26.5290  -19.7995   17.7500 H   0  0  0  0  0  0
  -27.8024  -18.5998   16.1851 H   0  0  0  0  0  0
  -28.7968  -20.4853   17.3179 H   0  0  0  0  0  0
  -28.3139  -21.4920   16.1277 H   0  0  0  0  0  0
  1 25  1  0  0  0
  1 30  2  0  0  0
  1 85  1  0  0  0
  2  3  1  0  0  0
  2 25  1  0  0  0
  2 87  1  0  0  0
  2 88  1  0  0  0
  3  4  1  0  0  0
  3 89  1  0  0  0
  3 90  1  0  0  0
  4  5  1  0  0  0
  4 91  1  0  0  0
  4 92  1  0  0  0
  5  6  1  0  0  0
  5 26  1  0  0  0
  5 93  1  0  0  0
  6 25  1  0  0  0
  6 94  1  0  0  0
  6 95  1  0  0  0
  7  8  2  0  0  0
  7 26  1  0  0  0
  7 29  1  0  0  0
  8  9  1  0  0  0
  8 22  1  0  0  0
  9 10  1  0  0  0
  9 27  2  0  0  0
 10 11  2  0  0  0
 10 15  1  0  0  0
 11 12  1  0  0  0
 11 96  1  0  0  0
 12 13  2  0  0  0
 12 97  1  0  0  0
 13 14  1  0  0  0
 13 31  1  0  0  0
 14 15  2  0  0  0
 14 98  1  0  0  0
 15 99  1  0  0  0
 16 17  2  0  0  0
 16 21  1  0  0  0
 16 31  1  0  0  0
 17 18  1  0  0  0
 17100  1  0  0  0
 18 19  2  0  0  0
 18101  1  0  0  0
 19 20  1  0  0  0
 19 24  1  0  0  0
 20 21  2  0  0  0
 20102  1  0  0  0
 21 23  1  0  0  0
 22 28  1  0  0  0
 22 32  2  0  0  0
 26 27  1  0  0  0
 28103  1  0  0  0
 28104  1  0  0  0
 29105  1  0  0  0
 29106  1  0  0  0
 33 34  1  0  0  0
 33 66  1  0  0  0
 33 70  2  0  0  0
 34 36  1  0  0  0
 34 59  1  0  0  0
 34107  1  0  0  0
 35 44  2  0  0  0
 35 45  1  0  0  0
 35 68  1  0  0  0
 36 56  1  0  0  0
 36108  1  0  0  0
 37 39  1  0  0  0
 37 47  1  0  0  0
 37 66  1  0  0  0
 37109  1  0  0  0
 38 43  2  0  0  0
 38 46  1  0  0  0
 38 47  1  0  0  0
 39 64  1  0  0  0
 39 67  2  0  0  0
 40 52  1  0  0  0
 40 53  2  0  0  0
 40 58  1  0  0  0
 41110  1  0  0  0
 41111  1  0  0  0
 41112  1  0  0  0
 41 48  1  0  0  0
 42 43  1  0  0  0
 42 66  1  0  0  0
 42113  1  0  0  0
 42114  1  0  0  0
 43 44  1  0  0  0
 44115  1  0  0  0
 45 46  2  0  0  0
 45116  1  0  0  0
 46117  1  0  0  0
 47118  1  0  0  0
 47119  1  0  0  0
 48 56  1  0  0  0
 48 65  1  0  0  0
 48120  1  0  0  0
 49 50  1  0  0  0
 49 53  1  0  0  0
 49 64  1  0  0  0
 49121  1  0  0  0
 50 51  1  0  0  0
 50122  1  0  0  0
 50123  1  0  0  0
 51 52  1  0  0  0
 51124  1  0  0  0
 51125  1  0  0  0
 52126  1  0  0  0
 52127  1  0  0  0
 53 54  1  0  0  0
 54 55  2  0  0  0
 54128  1  0  0  0
 55 57  1  0  0  0
 55129  1  0  0  0
 56 69  2  0  0  0
 57 58  2  0  0  0
 57130  1  0  0  0
 58131  1  0  0  0
 59 60  1  0  0  0
 59 61  1  0  0  0
 59 62  1  0  0  0
 60132  1  0  0  0
 60133  1  0  0  0
 60134  1  0  0  0
 61135  1  0  0  0
 61136  1  0  0  0
 61137  1  0  0  0
 62138  1  0  0  0
 62139  1  0  0  0
 62140  1  0  0  0
 63 65  1  0  0  0
 63141  1  0  0  0
 63142  1  0  0  0
 63143  1  0  0  0
 64144  1  0  0  0
 65145  1  0  0  0
 68 80  1  0  0  0
 71 72  2  0  0  0
 71 83  1  0  0  0
 71146  1  0  0  0
 72 84  1  0  0  0
 72 76  1  0  0  0
 73 74  1  0  0  0
 73 79  1  0  0  0
 73 84  2  0  0  0
 74 80  1  0  0  0
 74 83  2  0  0  0
 75 76  1  0  0  0
 75 85  1  0  0  0
 75147  1  0  0  0
 75148  1  0  0  0
 76 85  1  0  0  0
 76149  1  0  0  0
 77150  1  0  0  0
 77151  1  0  0  0
 77152  1  0  0  0
 77 82  1  0  0  0
 78 82  1  0  0  0
 78153  1  0  0  0
 78154  1  0  0  0
 78155  1  0  0  0
 79 81  1  0  0  0
 79156  1  0  0  0
 79157  1  0  0  0
 80158  1  0  0  0
 80159  1  0  0  0
 81 86  1  0  0  0
 81160  1  0  0  0
 81161  1  0  0  0
 82 86  1  0  0  0
 82162  1  0  0  0
 86163  1  0  0  0
 86164  1  0  0  0
M  CHG  1  86   1
M  ISO  4   1 100  68 101  80 101  85 100
M  END
> <chiral flag>
0

> <version>
0

> <s_m_source_file>
/data/baiqing/PycharmProjects/Reinvent-master-3.2/result/LINK_invent/BTK/process_docking_weight1_custom_sum_contain_oxygen_bond_distance_aromatic_linkinvent_7_9_3/rearranged_h_0187.sdf

> <i_m_source_file_index>
67

> <r_mmod_Potential_Energy-OPLS-2005>
1173.43774414062

> <r_mmod_Stretch_Energy-OPLS-2005>
508.974426269531

> <r_mmod_Bend_Energy-OPLS-2005>
464.860809326172

> <r_mmod_Torsional_Energy-OPLS-2005>
324.920104980469

> <r_mmod_Improper_Torsional_Energy-OPLS-2005>
17.9049396514893

> <r_mmod_Van_der_Waal_Energy-OPLS-2005>
136.174774169922

> <r_mmod_Electrostatic_Energy-OPLS-2005>
-218.093826293945

> <r_mmod_Solvation_Energy-OPLS-2005>
-471.212493896484

> <b_mmod_Minimization_Converged-OPLS-2005>
0

> <r_mmod_RMS_Derivative-OPLS-2005>
0.682228684425354

$$$$
67
                    3D
 Structure written by MMmdl.
158167  0  0  1  0            999 V2000
  -30.6498  -14.5976   20.4937 C   0  0  0  0  0  0
  -30.4314  -12.3657   19.4424 C   0  0  0  0  0  0
  -29.5041  -12.4927   18.2148 C   0  0  0  0  0  0
  -28.0253  -12.3430   18.6273 C   0  0  0  0  0  0
  -27.6501  -13.2126   19.8579 C   0  0  2  0  0  0
  -28.6965  -13.0744   20.9861 C   0  0  0  0  0  0
  -25.2558  -13.8163   20.5684 C   0  0  0  0  0  0
  -24.1821  -13.0432   20.9180 C   0  0  0  0  0  0
  -24.6380  -11.6897   20.8719 C   0  0  0  0  0  0
  -23.9045  -10.4288   21.0395 C   0  0  0  0  0  0
  -24.3596   -9.4204   21.9168 C   0  0  0  0  0  0
  -23.6288   -8.2231   22.0739 C   0  0  0  0  0  0
  -22.4269   -8.0264   21.3537 C   0  0  0  0  0  0
  -21.9901   -9.0230   20.4645 C   0  0  0  0  0  0
  -22.7216  -10.2116   20.3052 C   0  0  0  0  0  0
  -21.6853   -6.0725   22.5272 C   0  0  0  0  0  0
  -21.4011   -6.5630   23.8201 C   0  0  0  0  0  0
  -21.3661   -5.6783   24.9164 C   0  0  0  0  0  0
  -21.6053   -4.3047   24.7221 C   0  0  0  0  0  0
  -21.8817   -3.8141   23.4338 C   0  0  0  0  0  0
  -21.9190   -4.6954   22.3393 C   0  0  0  0  0  0
  -22.7848  -13.5237   21.1845 C   0  0  0  0  0  0
  -22.1663   -4.2136   21.0974 F   0  0  0  0  0  0
  -21.5637   -3.4535   25.7737 F   0  0  0  0  0  0
  -30.0119  -13.3916   20.4131 N   0  0  0  0  0  0
  -26.2965  -12.9333   20.3291 N   0  0  0  0  0  0
  -25.9305  -11.6493   20.5715 N   0  0  0  0  0  0
  -22.0481  -12.8247   22.0408 N   0  0  0  0  0  0
  -25.4288  -15.1884   20.4129 N   0  0  0  0  0  0
  -31.8256  -14.7386   20.1426 O   0  0  0  0  0  0
  -21.6637   -6.8862   21.4233 O   0  0  0  0  0  0
  -22.3542  -14.5534   20.6666 O   0  0  0  0  0  0
  -24.6227  -31.8634   23.2053 C   0  0  0  0  0  0
  -25.9085  -32.4803   23.8371 C   0  0  1  0  0  0
  -27.2249  -27.3643   20.1065 C   0  0  0  0  0  0
  -25.5925  -33.8609   24.2307 N   0  0  0  0  0  0
  -23.4151  -30.4855   21.5466 C   0  0  2  0  0  0
  -24.8633  -28.9479   20.1075 C   0  0  0  0  0  0
  -22.7459  -29.4627   22.4952 C   0  0  0  0  0  0
  -18.0279  -28.1377   22.8478 C   0  0  0  0  0  0
  -24.1488  -36.7300   23.2629 C   0  0  0  0  0  0
  -25.9526  -30.8069   21.3696 C   0  0  0  0  0  0
  -26.0297  -29.4382   20.7117 C   0  0  0  0  0  0
  -27.2189  -28.6553   20.7059 C   0  0  0  0  0  0
  -26.0451  -26.9184   19.4758 C   0  0  0  0  0  0
  -24.8696  -27.6908   19.4823 C   0  0  0  0  0  0
  -23.6276  -29.8207   20.1613 C   0  0  0  0  0  0
  -25.4105  -36.3100   24.0335 C   0  0  1  0  0  0
  -20.5877  -28.3675   23.1303 C   0  0  2  0  0  0
  -20.6765  -26.9404   22.5415 C   0  0  0  0  0  0
  -19.5754  -26.6383   21.5202 C   0  0  0  0  0  0
  -18.1927  -26.7923   22.1603 C   0  0  0  0  0  0
  -19.1532  -28.8839   23.2884 C   0  0  0  0  0  0
  -18.9453  -30.1439   23.8903 C   0  0  0  0  0  0
  -17.6456  -30.6585   24.0548 C   0  0  0  0  0  0
  -25.9048  -34.9470   23.5117 C   0  0  0  0  0  0
  -16.5346  -29.9081   23.6324 C   0  0  0  0  0  0
  -16.7266  -28.6495   23.0352 C   0  0  0  0  0  0
  -26.4478  -31.6602   25.0730 C   0  0  0  0  0  0
  -25.3731  -31.3756   26.1478 C   0  0  0  0  0  0
  -27.0286  -30.3023   24.6153 C   0  0  0  0  0  0
  -27.6067  -32.4313   25.7484 C   0  0  0  0  0  0
  -27.5597  -37.1775   24.8443 C   0  0  0  0  0  0
  -21.4177  -29.3039   22.3705 N   0  0  0  0  0  0
  -26.4275  -37.3801   23.9439 N   0  0  0  0  0  0
  -24.6816  -31.0674   22.0973 N   0  0  0  0  0  0
  -23.4200  -28.8170   23.3017 O   0  0  0  0  0  0
  -28.3095  -26.4925   20.1503 O   0  0  0  0  0  0
  -26.5607  -34.8930   22.4677 O   0  0  0  0  0  0
  -23.5398  -32.1417   23.7396 O   0  0  0  0  0  0
  -30.0924  -22.4753   19.5851 C   0  0  0  0  0  0
  -28.3288  -22.8394   21.5726 C   0  0  0  0  0  0
  -29.7842  -21.3990   20.4733 C   0  0  0  0  0  0
  -28.6724  -23.9303   20.7218 C   0  0  0  0  0  0
  -29.7729  -16.4971   21.8802 C   0  0  0  0  0  0
  -29.4018  -16.4968   19.4787 C   0  0  0  0  0  0
  -30.3890  -17.9343   21.7754 C   0  0  0  0  0  0
  -30.0443  -17.9135   19.3659 C   0  0  0  0  0  0
  -30.6207  -20.0838   20.4839 C   0  0  0  0  0  0
  -28.0638  -25.3372   21.0205 C   0  0  0  0  0  0
  -28.8701  -21.5894   21.4593 N   0  0  0  0  0  0
  -29.5492  -23.7288   19.7004 N   0  0  0  0  0  0
  -29.8482  -15.7005   20.6419 N   0  0  0  0  0  0
  -29.9254  -18.7426   20.6026 N   0  3  0  0  0  0
  -31.4748  -12.4805   19.1403 H   0  0  0  0  0  0
  -30.3549  -11.3703   19.8823 H   0  0  0  0  0  0
  -29.7617  -11.7383   17.4702 H   0  0  0  0  0  0
  -29.6570  -13.4596   17.7318 H   0  0  0  0  0  0
  -27.8520  -11.2903   18.8545 H   0  0  0  0  0  0
  -27.3737  -12.5790   17.7854 H   0  0  0  0  0  0
  -27.6629  -14.2458   19.5147 H   0  0  0  0  0  0
  -28.6958  -12.0628   21.3937 H   0  0  0  0  0  0
  -28.4538  -13.7376   21.8177 H   0  0  0  0  0  0
  -25.2742   -9.5696   22.4727 H   0  0  0  0  0  0
  -24.0008   -7.4632   22.7460 H   0  0  0  0  0  0
  -21.0824   -8.8749   19.8963 H   0  0  0  0  0  0
  -22.3668  -10.9642   19.6160 H   0  0  0  0  0  0
  -21.2001   -7.6139   23.9698 H   0  0  0  0  0  0
  -21.1495   -6.0518   25.9068 H   0  0  0  0  0  0
  -22.0604   -2.7606   23.2831 H   0  0  0  0  0  0
  -22.4098  -11.9926   22.4827 H   0  0  0  0  0  0
  -21.1085  -13.1275   22.2578 H   0  0  0  0  0  0
  -24.6646  -15.8456   20.5259 H   0  0  0  0  0  0
  -26.2883  -15.6249   20.1082 H   0  0  0  0  0  0
  -26.7166  -32.5487   23.1133 H   0  0  0  0  0  0
  -25.0084  -33.9768   25.0461 H   0  0  0  0  0  0
  -22.7053  -31.3033   21.4051 H   0  0  0  0  0  0
  -23.3779  -35.9599   23.3235 H   0  0  0  0  0  0
  -24.3604  -36.8973   22.2057 H   0  0  0  0  0  0
  -23.7194  -37.6469   23.6678 H   0  0  0  0  0  0
  -26.0771  -31.5721   20.6018 H   0  0  0  0  0  0
  -26.8355  -30.8556   21.9950 H   0  0  0  0  0  0
  -28.1143  -29.0219   21.1877 H   0  0  0  0  0  0
  -26.0270  -25.9486   18.9976 H   0  0  0  0  0  0
  -23.9748  -27.3090   19.0088 H   0  0  0  0  0  0
  -23.7400  -30.5965   19.4031 H   0  0  0  0  0  0
  -22.7495  -29.2440   19.8647 H   0  0  0  0  0  0
  -25.1268  -36.1941   25.0822 H   0  0  0  0  0  0
  -20.9964  -28.3241   24.1425 H   0  0  0  0  0  0
  -20.5652  -26.2286   23.3608 H   0  0  0  0  0  0
  -21.6639  -26.7428   22.1220 H   0  0  0  0  0  0
  -19.6915  -25.6293   21.1235 H   0  0  0  0  0  0
  -19.6712  -27.3189   20.6728 H   0  0  0  0  0  0
  -17.4206  -26.6679   21.3994 H   0  0  0  0  0  0
  -18.0315  -26.0064   22.8997 H   0  0  0  0  0  0
  -19.7933  -30.7227   24.2306 H   0  0  0  0  0  0
  -17.5021  -31.6274   24.5133 H   0  0  0  0  0  0
  -15.5346  -30.2979   23.7655 H   0  0  0  0  0  0
  -15.8668  -28.0805   22.7082 H   0  0  0  0  0  0
  -24.5899  -30.7102   25.7830 H   0  0  0  0  0  0
  -24.8922  -32.2930   26.4887 H   0  0  0  0  0  0
  -25.8074  -30.8960   27.0261 H   0  0  0  0  0  0
  -26.2833  -29.6814   24.1167 H   0  0  0  0  0  0
  -27.3973  -29.7244   25.4638 H   0  0  0  0  0  0
  -27.8717  -30.4304   23.9361 H   0  0  0  0  0  0
  -27.2701  -33.3607   26.2092 H   0  0  0  0  0  0
  -28.3857  -32.6887   25.0294 H   0  0  0  0  0  0
  -28.0761  -31.8415   26.5369 H   0  0  0  0  0  0
  -28.2545  -38.0142   24.7602 H   0  0  0  0  0  0
  -28.1158  -36.2682   24.6106 H   0  0  0  0  0  0
  -27.2348  -37.1229   25.8848 H   0  0  0  0  0  0
  -20.9343  -29.8782   21.6944 H   0  0  0  0  0  0
  -26.0159  -38.2860   24.1516 H   0  0  0  0  0  0
  -30.8346  -22.3500   18.8096 H   0  0  0  0  0  0
  -27.6331  -22.9806   22.3867 H   0  0  0  0  0  0
  -28.7196  -16.5779   22.1551 H   0  0  0  0  0  0
  -30.2480  -15.9578   22.7014 H   0  0  0  0  0  0
  -29.5861  -15.9481   18.5527 H   0  0  0  0  0  0
  -28.3191  -16.6045   19.5445 H   0  0  0  0  0  0
  -31.4753  -17.8367   21.7251 H   0  0  0  0  0  0
  -30.1762  -18.4844   22.6942 H   0  0  0  0  0  0
  -29.6027  -18.4533   18.5260 H   0  0  0  0  0  0
  -31.1007  -17.7884   19.1236 H   0  0  0  0  0  0
  -31.3165  -20.1969   21.3163 H   0  0  0  0  0  0
  -31.2637  -20.0846   19.6024 H   0  0  0  0  0  0
  -28.4263  -25.6188   22.0095 H   0  0  0  0  0  0
  -26.9938  -25.1704   21.1607 H   0  0  0  0  0  0
  -28.9497  -18.9567   20.7503 H   0  0  0  0  0  0
  1 25  1  0  0  0
  1 30  2  0  0  0
  1 83  1  0  0  0
  2  3  1  0  0  0
  2 25  1  0  0  0
  2 85  1  0  0  0
  2 86  1  0  0  0
  3  4  1  0  0  0
  3 87  1  0  0  0
  3 88  1  0  0  0
  4  5  1  0  0  0
  4 89  1  0  0  0
  4 90  1  0  0  0
  5  6  1  0  0  0
  5 26  1  0  0  0
  5 91  1  0  0  0
  6 25  1  0  0  0
  6 92  1  0  0  0
  6 93  1  0  0  0
  7  8  2  0  0  0
  7 26  1  0  0  0
  7 29  1  0  0  0
  8  9  1  0  0  0
  8 22  1  0  0  0
  9 10  1  0  0  0
  9 27  2  0  0  0
 10 11  2  0  0  0
 10 15  1  0  0  0
 11 12  1  0  0  0
 11 94  1  0  0  0
 12 13  2  0  0  0
 12 95  1  0  0  0
 13 14  1  0  0  0
 13 31  1  0  0  0
 14 15  2  0  0  0
 14 96  1  0  0  0
 15 97  1  0  0  0
 16 17  2  0  0  0
 16 21  1  0  0  0
 16 31  1  0  0  0
 17 18  1  0  0  0
 17 98  1  0  0  0
 18 19  2  0  0  0
 18 99  1  0  0  0
 19 20  1  0  0  0
 19 24  1  0  0  0
 20 21  2  0  0  0
 20100  1  0  0  0
 21 23  1  0  0  0
 22 28  1  0  0  0
 22 32  2  0  0  0
 26 27  1  0  0  0
 28101  1  0  0  0
 28102  1  0  0  0
 29103  1  0  0  0
 29104  1  0  0  0
 33 34  1  0  0  0
 33 66  1  0  0  0
 33 70  2  0  0  0
 34 36  1  0  0  0
 34 59  1  0  0  0
 34105  1  0  0  0
 35 44  2  0  0  0
 35 45  1  0  0  0
 35 68  1  0  0  0
 36 56  1  0  0  0
 36106  1  0  0  0
 37 39  1  0  0  0
 37 47  1  0  0  0
 37 66  1  0  0  0
 37107  1  0  0  0
 38 43  2  0  0  0
 38 46  1  0  0  0
 38 47  1  0  0  0
 39 64  1  0  0  0
 39 67  2  0  0  0
 40 52  1  0  0  0
 40 53  2  0  0  0
 40 58  1  0  0  0
 41108  1  0  0  0
 41109  1  0  0  0
 41110  1  0  0  0
 41 48  1  0  0  0
 42 43  1  0  0  0
 42 66  1  0  0  0
 42111  1  0  0  0
 42112  1  0  0  0
 43 44  1  0  0  0
 44113  1  0  0  0
 45 46  2  0  0  0
 45114  1  0  0  0
 46115  1  0  0  0
 47116  1  0  0  0
 47117  1  0  0  0
 48 56  1  0  0  0
 48 65  1  0  0  0
 48118  1  0  0  0
 49 50  1  0  0  0
 49 53  1  0  0  0
 49 64  1  0  0  0
 49119  1  0  0  0
 50 51  1  0  0  0
 50120  1  0  0  0
 50121  1  0  0  0
 51 52  1  0  0  0
 51122  1  0  0  0
 51123  1  0  0  0
 52124  1  0  0  0
 52125  1  0  0  0
 53 54  1  0  0  0
 54 55  2  0  0  0
 54126  1  0  0  0
 55 57  1  0  0  0
 55127  1  0  0  0
 56 69  2  0  0  0
 57 58  2  0  0  0
 57128  1  0  0  0
 58129  1  0  0  0
 59 60  1  0  0  0
 59 61  1  0  0  0
 59 62  1  0  0  0
 60130  1  0  0  0
 60131  1  0  0  0
 60132  1  0  0  0
 61133  1  0  0  0
 61134  1  0  0  0
 61135  1  0  0  0
 62136  1  0  0  0
 62137  1  0  0  0
 62138  1  0  0  0
 63 65  1  0  0  0
 63139  1  0  0  0
 63140  1  0  0  0
 63141  1  0  0  0
 64142  1  0  0  0
 65143  1  0  0  0
 68 80  1  0  0  0
 71 73  2  0  0  0
 71 82  1  0  0  0
 71144  1  0  0  0
 72 74  1  0  0  0
 72 81  2  0  0  0
 72145  1  0  0  0
 73 79  1  0  0  0
 73 81  1  0  0  0
 74 80  1  0  0  0
 74 82  2  0  0  0
 75 77  1  0  0  0
 75 83  1  0  0  0
 75146  1  0  0  0
 75147  1  0  0  0
 76 78  1  0  0  0
 76 83  1  0  0  0
 76148  1  0  0  0
 76149  1  0  0  0
 77 84  1  0  0  0
 77150  1  0  0  0
 77151  1  0  0  0
 78 84  1  0  0  0
 78152  1  0  0  0
 78153  1  0  0  0
 79154  1  0  0  0
 79155  1  0  0  0
 79 84  1  0  0  0
 80156  1  0  0  0
 80157  1  0  0  0
 84158  1  0  0  0
M  CHG  1  84   1
M  ISO  4   1 100  68 101  80 101  83 100
M  END
> <chiral flag>
0

> <version>
0

> <s_m_source_file>
/data/baiqing/PycharmProjects/Reinvent-master-3.2/result/LINK_invent/BTK/process_docking_weight1_custom_sum_contain_oxygen_bond_distance_aromatic_linkinvent_7_9_3/rearranged_h_0187.sdf

> <i_m_source_file_index>
68

> <r_mmod_Potential_Energy-OPLS-2005>
177.838424682617

> <r_mmod_Stretch_Energy-OPLS-2005>
65.2671279907227

> <r_mmod_Bend_Energy-OPLS-2005>
126.034126281738

> <r_mmod_Torsional_Energy-OPLS-2005>
424.207427978516

> <r_mmod_Improper_Torsional_Energy-OPLS-2005>
11.060338973999

> <r_mmod_Van_der_Waal_Energy-OPLS-2005>
146.729385375977

> <r_mmod_Electrostatic_Energy-OPLS-2005>
-178.086196899414

> <r_mmod_Solvation_Energy-OPLS-2005>
-456.382415771484

> <b_mmod_Minimization_Converged-OPLS-2005>
0

> <r_mmod_RMS_Derivative-OPLS-2005>
1.99448692798615

$$$$
68
                    3D
 Structure written by MMmdl.
151160  0  0  1  0            999 V2000
  -30.5447  -15.1271   20.3873 C   0  0  0  0  0  0
  -30.4112  -12.7149   19.5277 C   0  0  0  0  0  0
  -29.5201  -12.5499   18.2773 C   0  0  0  0  0  0
  -28.0608  -12.3087   18.6972 C   0  0  0  0  0  0
  -27.6070  -13.2743   19.8236 C   0  0  2  0  0  0
  -28.6439  -13.4255   20.9564 C   0  0  0  0  0  0
  -25.2352  -13.8275   20.5759 C   0  0  0  0  0  0
  -24.1703  -13.0488   20.9301 C   0  0  0  0  0  0
  -24.6344  -11.6983   20.8801 C   0  0  0  0  0  0
  -23.9053  -10.4322   21.0408 C   0  0  0  0  0  0
  -24.3599   -9.4233   21.9178 C   0  0  0  0  0  0
  -23.6299   -8.2255   22.0748 C   0  0  0  0  0  0
  -22.4288   -8.0278   21.3535 C   0  0  0  0  0  0
  -21.9902   -9.0266   20.4657 C   0  0  0  0  0  0
  -22.7215  -10.2161   20.3069 C   0  0  0  0  0  0
  -21.6871   -6.0726   22.5267 C   0  0  0  0  0  0
  -21.4019   -6.5631   23.8194 C   0  0  0  0  0  0
  -21.3667   -5.6788   24.9160 C   0  0  0  0  0  0
  -21.6048   -4.3050   24.7206 C   0  0  0  0  0  0
  -21.8826   -3.8133   23.4325 C   0  0  0  0  0  0
  -21.9188   -4.6954   22.3388 C   0  0  0  0  0  0
  -22.7718  -13.5248   21.1912 C   0  0  0  0  0  0
  -22.1656   -4.2140   21.0968 F   0  0  0  0  0  0
  -21.5638   -3.4526   25.7710 F   0  0  0  0  0  0
  -29.8854  -13.8797   20.3183 N   0  0  0  0  0  0
  -26.2771  -12.9548   20.3235 N   0  0  0  0  0  0
  -25.9271  -11.6648   20.5756 N   0  0  0  0  0  0
  -22.0313  -12.8288   22.0457 N   0  0  0  0  0  0
  -25.4057  -15.2001   20.4183 N   0  0  0  0  0  0
  -31.7634  -15.0411   20.1953 O   0  0  0  0  0  0
  -21.6661   -6.8868   21.4225 O   0  0  0  0  0  0
  -22.3416  -14.5540   20.6721 O   0  0  0  0  0  0
  -24.6575  -31.8330   23.1803 C   0  0  0  0  0  0
  -25.9275  -32.4646   23.8240 C   0  0  1  0  0  0
  -27.2067  -26.9994   20.1775 C   0  0  0  0  0  0
  -25.5973  -33.8464   24.2133 N   0  0  0  0  0  0
  -23.4677  -30.4479   21.5317 C   0  0  2  0  0  0
  -24.9196  -28.8564   20.1149 C   0  0  0  0  0  0
  -22.7659  -29.4470   22.4851 C   0  0  0  0  0  0
  -18.0311  -28.1420   22.8480 C   0  0  0  0  0  0
  -24.1492  -36.7227   23.2644 C   0  0  0  0  0  0
  -26.0352  -30.6636   21.4007 C   0  0  0  0  0  0
  -26.1047  -29.2626   20.7428 C   0  0  0  0  0  0
  -27.2480  -28.3541   20.7516 C   0  0  0  0  0  0
  -25.9934  -26.7347   19.5035 C   0  0  0  0  0  0
  -24.8855  -27.6120   19.4751 C   0  0  0  0  0  0
  -23.7032  -29.7744   20.1544 C   0  0  0  0  0  0
  -25.4129  -36.3007   24.0301 C   0  0  1  0  0  0
  -20.5942  -28.3739   23.1244 C   0  0  2  0  0  0
  -20.6811  -26.9426   22.5438 C   0  0  0  0  0  0
  -19.5786  -26.6382   21.5253 C   0  0  0  0  0  0
  -18.1951  -26.7957   22.1631 C   0  0  0  0  0  0
  -19.1572  -28.8908   23.2843 C   0  0  0  0  0  0
  -18.9466  -30.1503   23.8858 C   0  0  0  0  0  0
  -17.6456  -30.6612   24.0558 C   0  0  0  0  0  0
  -25.9091  -34.9387   23.5031 C   0  0  0  0  0  0
  -16.5349  -29.9089   23.6357 C   0  0  0  0  0  0
  -16.7287  -28.6517   23.0362 C   0  0  0  0  0  0
  -26.4529  -31.6567   25.0744 C   0  0  0  0  0  0
  -25.3659  -31.3846   26.1414 C   0  0  0  0  0  0
  -27.0374  -30.2922   24.6431 C   0  0  0  0  0  0
  -27.6046  -32.4341   25.7519 C   0  0  0  0  0  0
  -27.5574  -37.1774   24.8452 C   0  0  0  0  0  0
  -21.4329  -29.3029   22.3600 N   0  0  0  0  0  0
  -26.4286  -37.3727   23.9400 N   0  0  0  0  0  0
  -24.7411  -31.0063   22.0905 N   0  0  0  0  0  0
  -23.4232  -28.8036   23.3071 O   0  0  0  0  0  0
  -28.1995  -25.9092   20.2440 O   0  0  0  0  0  0
  -26.5689  -34.8899   22.4618 O   0  0  0  0  0  0
  -23.5659  -32.1257   23.6928 O   0  0  0  0  0  0
  -28.2989  -21.4457   20.6599 C   0  0  0  0  0  0
  -29.2631  -20.4381   20.2982 C   0  0  0  0  0  0
  -28.6316  -22.8603   20.2388 C   0  0  0  0  0  0
  -28.7455  -17.3643   20.5830 C   0  0  0  0  0  0
  -30.6087  -17.7710   19.7983 C   0  0  0  0  0  0
  -29.5858  -18.7614   20.5407 C   0  0  0  0  0  0
  -31.3905  -20.9968   18.9691 C   0  0  0  0  0  0
  -27.7753  -24.3502   20.1964 C   0  0  0  0  0  0
  -29.7975  -22.6749   19.6175 N   0  0  0  0  0  0
  -30.1517  -21.3256   19.6503 N   0  0  0  0  0  0
  -29.9685  -16.4756   20.2974 N   0  0  0  0  0  0
  -31.4467  -12.8574   19.2165 H   0  0  0  0  0  0
  -30.4146  -11.8048   20.1320 H   0  0  0  0  0  0
  -29.8829  -11.7247   17.6658 H   0  0  0  0  0  0
  -29.5808  -13.4477   17.6592 H   0  0  0  0  0  0
  -27.9839  -11.2794   19.0502 H   0  0  0  0  0  0
  -27.3969  -12.3835   17.8357 H   0  0  0  0  0  0
  -27.5338  -14.2516   19.3433 H   0  0  0  0  0  0
  -28.7800  -12.4911   21.5035 H   0  0  0  0  0  0
  -28.3086  -14.1670   21.6834 H   0  0  0  0  0  0
  -25.2696   -9.5765   22.4798 H   0  0  0  0  0  0
  -24.0020   -7.4653   22.7471 H   0  0  0  0  0  0
  -21.0812   -8.8793   19.8989 H   0  0  0  0  0  0
  -22.3600  -10.9727   19.6235 H   0  0  0  0  0  0
  -21.2028   -7.6138   23.9710 H   0  0  0  0  0  0
  -21.1486   -6.0501   25.9074 H   0  0  0  0  0  0
  -22.0600   -2.7592   23.2816 H   0  0  0  0  0  0
  -22.3860  -11.9972   22.4946 H   0  0  0  0  0  0
  -21.0949  -13.1402   22.2631 H   0  0  0  0  0  0
  -24.6486  -15.8629   20.5429 H   0  0  0  0  0  0
  -26.2632  -15.6261   20.0942 H   0  0  0  0  0  0
  -26.7357  -32.5206   23.0984 H   0  0  0  0  0  0
  -25.0081  -33.9550   25.0249 H   0  0  0  0  0  0
  -22.7762  -31.2772   21.3697 H   0  0  0  0  0  0
  -23.3770  -35.9546   23.3298 H   0  0  0  0  0  0
  -24.3568  -36.8870   22.2062 H   0  0  0  0  0  0
  -23.7232  -37.6410   23.6689 H   0  0  0  0  0  0
  -26.2051  -31.4103   20.6245 H   0  0  0  0  0  0
  -26.9008  -30.7200   22.0482 H   0  0  0  0  0  0
  -28.1472  -28.6611   21.2690 H   0  0  0  0  0  0
  -25.8464  -25.7908   19.0049 H   0  0  0  0  0  0
  -23.9867  -27.2906   18.9691 H   0  0  0  0  0  0
  -23.8498  -30.5466   19.3986 H   0  0  0  0  0  0
  -22.8154  -29.2229   19.8398 H   0  0  0  0  0  0
  -25.1331  -36.1832   25.0797 H   0  0  0  0  0  0
  -20.9997  -28.3336   24.1380 H   0  0  0  0  0  0
  -20.5751  -26.2331   23.3658 H   0  0  0  0  0  0
  -21.6665  -26.7466   22.1202 H   0  0  0  0  0  0
  -19.6939  -25.6290   21.1300 H   0  0  0  0  0  0
  -19.6747  -27.3195   20.6791 H   0  0  0  0  0  0
  -17.4241  -26.6735   21.4006 H   0  0  0  0  0  0
  -18.0290  -26.0108   22.9026 H   0  0  0  0  0  0
  -19.7941  -30.7360   24.2182 H   0  0  0  0  0  0
  -17.5000  -31.6285   24.5173 H   0  0  0  0  0  0
  -15.5349  -30.2969   23.7722 H   0  0  0  0  0  0
  -15.8683  -28.0838   22.7074 H   0  0  0  0  0  0
  -24.5818  -30.7211   25.7748 H   0  0  0  0  0  0
  -24.8873  -32.3074   26.4720 H   0  0  0  0  0  0
  -25.7894  -30.9093   27.0278 H   0  0  0  0  0  0
  -26.3019  -29.6646   24.1388 H   0  0  0  0  0  0
  -27.3851  -29.7246   25.5079 H   0  0  0  0  0  0
  -27.9004  -30.4094   23.9866 H   0  0  0  0  0  0
  -27.2630  -33.3665   26.2036 H   0  0  0  0  0  0
  -28.3892  -32.6866   25.0368 H   0  0  0  0  0  0
  -28.0686  -31.8506   26.5486 H   0  0  0  0  0  0
  -28.2591  -38.0065   24.7483 H   0  0  0  0  0  0
  -28.1060  -36.2596   24.6300 H   0  0  0  0  0  0
  -27.2287  -37.1454   25.8850 H   0  0  0  0  0  0
  -20.9570  -29.8680   21.6702 H   0  0  0  0  0  0
  -26.0149  -38.2793   24.1397 H   0  0  0  0  0  0
  -27.3920  -21.1958   21.1945 H   0  0  0  0  0  0
  -27.9908  -17.3092   19.7956 H   0  0  0  0  0  0
  -28.2740  -17.1876   21.5515 H   0  0  0  0  0  0
  -31.6448  -17.9063   20.1190 H   0  0  0  0  0  0
  -30.5634  -17.8710   18.7109 H   0  0  0  0  0  0
  -29.9865  -18.8021   21.5543 H   0  0  0  0  0  0
  -31.1776  -20.7759   17.9231 H   0  0  0  0  0  0
  -31.8783  -20.1400   19.4302 H   0  0  0  0  0  0
  -32.0834  -21.8393   19.0092 H   0  0  0  0  0  0
  -26.9851  -24.2659   20.9453 H   0  0  0  0  0  0
  -27.2487  -24.2747   19.2469 H   0  0  0  0  0  0
  1 25  1  0  0  0
  1 30  2  0  0  0
  1 81  1  0  0  0
  2  3  1  0  0  0
  2 25  1  0  0  0
  2 82  1  0  0  0
  2 83  1  0  0  0
  3  4  1  0  0  0
  3 84  1  0  0  0
  3 85  1  0  0  0
  4  5  1  0  0  0
  4 86  1  0  0  0
  4 87  1  0  0  0
  5  6  1  0  0  0
  5 26  1  0  0  0
  5 88  1  0  0  0
  6 25  1  0  0  0
  6 89  1  0  0  0
  6 90  1  0  0  0
  7  8  2  0  0  0
  7 26  1  0  0  0
  7 29  1  0  0  0
  8  9  1  0  0  0
  8 22  1  0  0  0
  9 10  1  0  0  0
  9 27  2  0  0  0
 10 11  2  0  0  0
 10 15  1  0  0  0
 11 12  1  0  0  0
 11 91  1  0  0  0
 12 13  2  0  0  0
 12 92  1  0  0  0
 13 14  1  0  0  0
 13 31  1  0  0  0
 14 15  2  0  0  0
 14 93  1  0  0  0
 15 94  1  0  0  0
 16 17  2  0  0  0
 16 21  1  0  0  0
 16 31  1  0  0  0
 17 18  1  0  0  0
 17 95  1  0  0  0
 18 19  2  0  0  0
 18 96  1  0  0  0
 19 20  1  0  0  0
 19 24  1  0  0  0
 20 21  2  0  0  0
 20 97  1  0  0  0
 21 23  1  0  0  0
 22 28  1  0  0  0
 22 32  2  0  0  0
 26 27  1  0  0  0
 28 98  1  0  0  0
 28 99  1  0  0  0
 29100  1  0  0  0
 29101  1  0  0  0
 33 34  1  0  0  0
 33 66  1  0  0  0
 33 70  2  0  0  0
 34 36  1  0  0  0
 34 59  1  0  0  0
 34102  1  0  0  0
 35 44  2  0  0  0
 35 45  1  0  0  0
 35 68  1  0  0  0
 36 56  1  0  0  0
 36103  1  0  0  0
 37 39  1  0  0  0
 37 47  1  0  0  0
 37 66  1  0  0  0
 37104  1  0  0  0
 38 43  2  0  0  0
 38 46  1  0  0  0
 38 47  1  0  0  0
 39 64  1  0  0  0
 39 67  2  0  0  0
 40 52  1  0  0  0
 40 53  2  0  0  0
 40 58  1  0  0  0
 41105  1  0  0  0
 41106  1  0  0  0
 41107  1  0  0  0
 41 48  1  0  0  0
 42 43  1  0  0  0
 42 66  1  0  0  0
 42108  1  0  0  0
 42109  1  0  0  0
 43 44  1  0  0  0
 44110  1  0  0  0
 45 46  2  0  0  0
 45111  1  0  0  0
 46112  1  0  0  0
 47113  1  0  0  0
 47114  1  0  0  0
 48 56  1  0  0  0
 48 65  1  0  0  0
 48115  1  0  0  0
 49 50  1  0  0  0
 49 53  1  0  0  0
 49 64  1  0  0  0
 49116  1  0  0  0
 50 51  1  0  0  0
 50117  1  0  0  0
 50118  1  0  0  0
 51 52  1  0  0  0
 51119  1  0  0  0
 51120  1  0  0  0
 52121  1  0  0  0
 52122  1  0  0  0
 53 54  1  0  0  0
 54 55  2  0  0  0
 54123  1  0  0  0
 55 57  1  0  0  0
 55124  1  0  0  0
 56 69  2  0  0  0
 57 58  2  0  0  0
 57125  1  0  0  0
 58126  1  0  0  0
 59 60  1  0  0  0
 59 61  1  0  0  0
 59 62  1  0  0  0
 60127  1  0  0  0
 60128  1  0  0  0
 60129  1  0  0  0
 61130  1  0  0  0
 61131  1  0  0  0
 61132  1  0  0  0
 62133  1  0  0  0
 62134  1  0  0  0
 62135  1  0  0  0
 63 65  1  0  0  0
 63136  1  0  0  0
 63137  1  0  0  0
 63138  1  0  0  0
 64139  1  0  0  0
 65140  1  0  0  0
 68 78  1  0  0  0
 71 72  2  0  0  0
 71 73  1  0  0  0
 71141  1  0  0  0
 72 80  1  0  0  0
 72 76  1  0  0  0
 73 78  1  0  0  0
 73 79  2  0  0  0
 74 76  1  0  0  0
 74 81  1  0  0  0
 74142  1  0  0  0
 74143  1  0  0  0
 75 76  1  0  0  0
 75 81  1  0  0  0
 75144  1  0  0  0
 75145  1  0  0  0
 76146  1  0  0  0
 77 80  1  0  0  0
 77147  1  0  0  0
 77148  1  0  0  0
 77149  1  0  0  0
 78150  1  0  0  0
 78151  1  0  0  0
 79 80  1  0  0  0
M  ISO  4   1 100  68 101  78 101  81 100
M  END
> <chiral flag>
0

> <version>
0

> <s_m_source_file>
/data/baiqing/PycharmProjects/Reinvent-master-3.2/result/LINK_invent/BTK/process_docking_weight1_custom_sum_contain_oxygen_bond_distance_aromatic_linkinvent_7_9_3/rearranged_h_0187.sdf

> <i_m_source_file_index>
69

> <r_mmod_Potential_Energy-OPLS-2005>
975.668334960938

> <r_mmod_Stretch_Energy-OPLS-2005>
386.708892822266

> <r_mmod_Bend_Energy-OPLS-2005>
413.452575683594

> <r_mmod_Torsional_Energy-OPLS-2005>
265.65771484375

> <r_mmod_Improper_Torsional_Energy-OPLS-2005>
11.3838510513306

> <r_mmod_Van_der_Waal_Energy-OPLS-2005>
111.168518066406

> <r_mmod_Electrostatic_Energy-OPLS-2005>
-320.952301025391

> <r_mmod_Solvation_Energy-OPLS-2005>
-234.782577514648

> <b_mmod_Minimization_Converged-OPLS-2005>
0

> <r_mmod_RMS_Derivative-OPLS-2005>
3.80550193786621

$$$$
69
                    3D
 Structure written by MMmdl.
148156  0  0  1  0            999 V2000
  -30.4186  -15.3101   20.3676 C   0  0  0  0  0  0
  -30.4450  -12.8488   19.5030 C   0  0  0  0  0  0
  -29.5316  -12.5711   18.2820 C   0  0  0  0  0  0
  -28.0868  -12.2866   18.7286 C   0  0  0  0  0  0
  -27.6107  -13.2740   19.8215 C   0  0  2  0  0  0
  -28.6522  -13.4676   20.9427 C   0  0  0  0  0  0
  -25.2397  -13.8245   20.5778 C   0  0  0  0  0  0
  -24.1750  -13.0436   20.9286 C   0  0  0  0  0  0
  -24.6403  -11.6930   20.8789 C   0  0  0  0  0  0
  -23.9095  -10.4290   21.0418 C   0  0  0  0  0  0
  -24.3636   -9.4195   21.9187 C   0  0  0  0  0  0
  -23.6301   -8.2235   22.0751 C   0  0  0  0  0  0
  -22.4280   -8.0282   21.3539 C   0  0  0  0  0  0
  -21.9928   -9.0262   20.4644 C   0  0  0  0  0  0
  -22.7269  -10.2134   20.3059 C   0  0  0  0  0  0
  -21.6856   -6.0736   22.5269 C   0  0  0  0  0  0
  -21.4026   -6.5643   23.8203 C   0  0  0  0  0  0
  -21.3658   -5.6797   24.9166 C   0  0  0  0  0  0
  -21.6041   -4.3059   24.7222 C   0  0  0  0  0  0
  -21.8814   -3.8146   23.4342 C   0  0  0  0  0  0
  -21.9192   -4.6962   22.3398 C   0  0  0  0  0  0
  -22.7760  -13.5181   21.1911 C   0  0  0  0  0  0
  -22.1659   -4.2145   21.0976 F   0  0  0  0  0  0
  -21.5620   -3.4541   25.7737 F   0  0  0  0  0  0
  -29.8640  -13.9967   20.2930 N   0  0  0  0  0  0
  -26.2831  -12.9519   20.3273 N   0  0  0  0  0  0
  -25.9347  -11.6628   20.5772 N   0  0  0  0  0  0
  -22.0418  -12.8168   22.0466 N   0  0  0  0  0  0
  -25.4005  -15.1985   20.4181 N   0  0  0  0  0  0
  -31.6529  -15.3039   20.2412 O   0  0  0  0  0  0
  -21.6643   -6.8882   21.4233 O   0  0  0  0  0  0
  -22.3435  -14.5471   20.6728 O   0  0  0  0  0  0
  -24.6643  -31.8236   23.1699 C   0  0  0  0  0  0
  -25.9297  -32.4610   23.8189 C   0  0  1  0  0  0
  -27.2155  -26.9027   20.1980 C   0  0  0  0  0  0
  -25.5944  -33.8424   24.2090 N   0  0  0  0  0  0
  -23.4805  -30.4323   21.5229 C   0  0  2  0  0  0
  -24.9337  -28.8149   20.1184 C   0  0  0  0  0  0
  -22.7682  -29.4413   22.4811 C   0  0  0  0  0  0
  -18.0313  -28.1398   22.8481 C   0  0  0  0  0  0
  -24.1477  -36.7233   23.2651 C   0  0  0  0  0  0
  -26.0504  -30.6246   21.3995 C   0  0  0  0  0  0
  -26.1204  -29.2086   20.7500 C   0  0  0  0  0  0
  -27.2592  -28.2785   20.7559 C   0  0  0  0  0  0
  -25.9968  -26.6642   19.5231 C   0  0  0  0  0  0
  -24.9002  -27.5647   19.4793 C   0  0  0  0  0  0
  -23.7221  -29.7489   20.1490 C   0  0  0  0  0  0
  -25.4117  -36.2996   24.0308 C   0  0  1  0  0  0
  -20.5941  -28.3739   23.1212 C   0  0  2  0  0  0
  -20.6787  -26.9420   22.5417 C   0  0  0  0  0  0
  -19.5756  -26.6370   21.5234 C   0  0  0  0  0  0
  -18.1935  -26.7936   22.1635 C   0  0  0  0  0  0
  -19.1574  -28.8888   23.2828 C   0  0  0  0  0  0
  -18.9485  -30.1482   23.8861 C   0  0  0  0  0  0
  -17.6475  -30.6592   24.0551 C   0  0  0  0  0  0
  -25.9088  -34.9374   23.5029 C   0  0  0  0  0  0
  -16.5365  -29.9087   23.6332 C   0  0  0  0  0  0
  -16.7292  -28.6502   23.0365 C   0  0  0  0  0  0
  -26.4533  -31.6551   25.0718 C   0  0  0  0  0  0
  -25.3660  -31.3780   26.1378 C   0  0  0  0  0  0
  -27.0414  -30.2919   24.6421 C   0  0  0  0  0  0
  -27.6021  -32.4369   25.7508 C   0  0  0  0  0  0
  -27.5573  -37.1756   24.8457 C   0  0  0  0  0  0
  -21.4346  -29.3035   22.3571 N   0  0  0  0  0  0
  -26.4265  -37.3731   23.9425 N   0  0  0  0  0  0
  -24.7541  -30.9871   22.0854 N   0  0  0  0  0  0
  -23.4217  -28.7973   23.3048 O   0  0  0  0  0  0
  -28.2236  -25.7938   20.1904 O   0  0  0  0  0  0
  -26.5719  -34.8904   22.4640 O   0  0  0  0  0  0
  -23.5702  -32.1222   23.6764 O   0  0  0  0  0  0
  -28.6243  -22.6869   19.9540 C   0  0  0  0  0  0
  -27.8229  -19.0449   20.9310 C   0  0  0  0  0  0
  -28.9153  -18.5091   21.8909 C   0  0  0  0  0  0
  -28.9198  -19.7143   20.0893 C   0  0  2  0  0  0
  -29.8094  -18.2404   20.6732 C   0  0  2  0  0  0
  -28.0157  -24.2041   20.6350 C   0  0  0  0  0  0
  -28.8763  -21.3414   20.5588 N   0  0  0  0  0  0
  -29.6354  -16.5834   20.3818 N   0  0  0  0  0  0
  -28.7957  -22.7378   18.7332 O   0  0  0  0  0  0
  -31.4502  -13.0818   19.1493 H   0  0  0  0  0  0
  -30.5511  -11.9589   20.1259 H   0  0  0  0  0  0
  -29.9158  -11.7315   17.7015 H   0  0  0  0  0  0
  -29.5415  -13.4362   17.6178 H   0  0  0  0  0  0
  -28.0620  -11.2708   19.1262 H   0  0  0  0  0  0
  -27.4079  -12.2987   17.8756 H   0  0  0  0  0  0
  -27.5175  -14.2331   19.3108 H   0  0  0  0  0  0
  -28.8460  -12.5358   21.4762 H   0  0  0  0  0  0
  -28.2932  -14.1831   21.6840 H   0  0  0  0  0  0
  -25.2775   -9.5662   22.4778 H   0  0  0  0  0  0
  -23.9999   -7.4620   22.7471 H   0  0  0  0  0  0
  -21.0859   -8.8794   19.8951 H   0  0  0  0  0  0
  -22.3730  -10.9684   19.6178 H   0  0  0  0  0  0
  -21.2034   -7.6152   23.9707 H   0  0  0  0  0  0
  -21.1483   -6.0530   25.9070 H   0  0  0  0  0  0
  -22.0594   -2.7608   23.2846 H   0  0  0  0  0  0
  -22.4073  -11.9864   22.4893 H   0  0  0  0  0  0
  -21.1017  -13.1148   22.2640 H   0  0  0  0  0  0
  -24.6229  -15.8420   20.5192 H   0  0  0  0  0  0
  -26.2329  -15.6394   20.0516 H   0  0  0  0  0  0
  -26.7382  -32.5143   23.0921 H   0  0  0  0  0  0
  -24.9993  -33.9511   25.0170 H   0  0  0  0  0  0
  -22.7940  -31.2640   21.3531 H   0  0  0  0  0  0
  -23.3765  -35.9532   23.3257 H   0  0  0  0  0  0
  -24.3558  -36.8947   22.2078 H   0  0  0  0  0  0
  -23.7195  -37.6389   23.6747 H   0  0  0  0  0  0
  -26.2208  -31.3611   20.6133 H   0  0  0  0  0  0
  -26.9150  -30.6934   22.0481 H   0  0  0  0  0  0
  -28.1664  -28.5880   21.2566 H   0  0  0  0  0  0
  -25.8713  -25.7086   19.0329 H   0  0  0  0  0  0
  -24.0027  -27.2600   18.9586 H   0  0  0  0  0  0
  -23.8821  -30.5228   19.3966 H   0  0  0  0  0  0
  -22.8287  -29.2111   19.8268 H   0  0  0  0  0  0
  -25.1294  -36.1816   25.0795 H   0  0  0  0  0  0
  -21.0013  -28.3343   24.1345 H   0  0  0  0  0  0
  -20.5698  -26.2345   23.3653 H   0  0  0  0  0  0
  -21.6643  -26.7411   22.1202 H   0  0  0  0  0  0
  -19.6914  -25.6275   21.1287 H   0  0  0  0  0  0
  -19.6701  -27.3160   20.6752 H   0  0  0  0  0  0
  -17.4212  -26.6703   21.4025 H   0  0  0  0  0  0
  -18.0296  -26.0080   22.9027 H   0  0  0  0  0  0
  -19.7956  -30.7301   24.2231 H   0  0  0  0  0  0
  -17.5023  -31.6274   24.5148 H   0  0  0  0  0  0
  -15.5361  -30.2969   23.7680 H   0  0  0  0  0  0
  -15.8695  -28.0806   22.7109 H   0  0  0  0  0  0
  -24.5878  -30.7085   25.7698 H   0  0  0  0  0  0
  -24.8792  -32.2957   26.4692 H   0  0  0  0  0  0
  -25.7899  -30.9047   27.0245 H   0  0  0  0  0  0
  -26.3063  -29.6605   24.1418 H   0  0  0  0  0  0
  -27.3946  -29.7273   25.5059 H   0  0  0  0  0  0
  -27.9003  -30.4110   23.9814 H   0  0  0  0  0  0
  -27.2600  -33.3736   26.1921 H   0  0  0  0  0  0
  -28.3892  -32.6831   25.0372 H   0  0  0  0  0  0
  -28.0609  -31.8612   26.5559 H   0  0  0  0  0  0
  -28.2532  -38.0111   24.7565 H   0  0  0  0  0  0
  -28.1131  -36.2640   24.6196 H   0  0  0  0  0  0
  -27.2305  -37.1289   25.8861 H   0  0  0  0  0  0
  -20.9604  -29.8763   21.6732 H   0  0  0  0  0  0
  -26.0131  -38.2786   24.1476 H   0  0  0  0  0  0
  -27.1059  -19.7224   21.3971 H   0  0  0  0  0  0
  -27.2950  -18.2548   20.3933 H   0  0  0  0  0  0
  -28.6215  -17.6276   22.4631 H   0  0  0  0  0  0
  -29.3142  -19.2752   22.5584 H   0  0  0  0  0  0
  -28.7114  -19.6218   19.0222 H   0  0  0  0  0  0
  -30.8525  -18.4886   20.8731 H   0  0  0  0  0  0
  -28.2963  -24.1701   21.6878 H   0  0  0  0  0  0
  -26.9342  -24.0668   20.6492 H   0  0  0  0  0  0
  -28.8453  -21.4176   21.5671 H   0  0  0  0  0  0
  -28.6576  -16.3527   20.2913 H   0  0  0  0  0  0
  1 25  1  0  0  0
  1 30  2  0  0  0
  1 78  1  0  0  0
  2  3  1  0  0  0
  2 25  1  0  0  0
  2 80  1  0  0  0
  2 81  1  0  0  0
  3  4  1  0  0  0
  3 82  1  0  0  0
  3 83  1  0  0  0
  4  5  1  0  0  0
  4 84  1  0  0  0
  4 85  1  0  0  0
  5  6  1  0  0  0
  5 26  1  0  0  0
  5 86  1  0  0  0
  6 25  1  0  0  0
  6 87  1  0  0  0
  6 88  1  0  0  0
  7  8  2  0  0  0
  7 26  1  0  0  0
  7 29  1  0  0  0
  8  9  1  0  0  0
  8 22  1  0  0  0
  9 10  1  0  0  0
  9 27  2  0  0  0
 10 11  2  0  0  0
 10 15  1  0  0  0
 11 12  1  0  0  0
 11 89  1  0  0  0
 12 13  2  0  0  0
 12 90  1  0  0  0
 13 14  1  0  0  0
 13 31  1  0  0  0
 14 15  2  0  0  0
 14 91  1  0  0  0
 15 92  1  0  0  0
 16 17  2  0  0  0
 16 21  1  0  0  0
 16 31  1  0  0  0
 17 18  1  0  0  0
 17 93  1  0  0  0
 18 19  2  0  0  0
 18 94  1  0  0  0
 19 20  1  0  0  0
 19 24  1  0  0  0
 20 21  2  0  0  0
 20 95  1  0  0  0
 21 23  1  0  0  0
 22 28  1  0  0  0
 22 32  2  0  0  0
 26 27  1  0  0  0
 28 96  1  0  0  0
 28 97  1  0  0  0
 29 98  1  0  0  0
 29 99  1  0  0  0
 33 34  1  0  0  0
 33 66  1  0  0  0
 33 70  2  0  0  0
 34 36  1  0  0  0
 34 59  1  0  0  0
 34100  1  0  0  0
 35 44  2  0  0  0
 35 45  1  0  0  0
 35 68  1  0  0  0
 36 56  1  0  0  0
 36101  1  0  0  0
 37 39  1  0  0  0
 37 47  1  0  0  0
 37 66  1  0  0  0
 37102  1  0  0  0
 38 43  2  0  0  0
 38 46  1  0  0  0
 38 47  1  0  0  0
 39 64  1  0  0  0
 39 67  2  0  0  0
 40 52  1  0  0  0
 40 53  2  0  0  0
 40 58  1  0  0  0
 41103  1  0  0  0
 41104  1  0  0  0
 41105  1  0  0  0
 41 48  1  0  0  0
 42 43  1  0  0  0
 42 66  1  0  0  0
 42106  1  0  0  0
 42107  1  0  0  0
 43 44  1  0  0  0
 44108  1  0  0  0
 45 46  2  0  0  0
 45109  1  0  0  0
 46110  1  0  0  0
 47111  1  0  0  0
 47112  1  0  0  0
 48 56  1  0  0  0
 48 65  1  0  0  0
 48113  1  0  0  0
 49 50  1  0  0  0
 49 53  1  0  0  0
 49 64  1  0  0  0
 49114  1  0  0  0
 50 51  1  0  0  0
 50115  1  0  0  0
 50116  1  0  0  0
 51 52  1  0  0  0
 51117  1  0  0  0
 51118  1  0  0  0
 52119  1  0  0  0
 52120  1  0  0  0
 53 54  1  0  0  0
 54 55  2  0  0  0
 54121  1  0  0  0
 55 57  1  0  0  0
 55122  1  0  0  0
 56 69  2  0  0  0
 57 58  2  0  0  0
 57123  1  0  0  0
 58124  1  0  0  0
 59 60  1  0  0  0
 59 61  1  0  0  0
 59 62  1  0  0  0
 60125  1  0  0  0
 60126  1  0  0  0
 60127  1  0  0  0
 61128  1  0  0  0
 61129  1  0  0  0
 61130  1  0  0  0
 62131  1  0  0  0
 62132  1  0  0  0
 62133  1  0  0  0
 63 65  1  0  0  0
 63134  1  0  0  0
 63135  1  0  0  0
 63136  1  0  0  0
 64137  1  0  0  0
 65138  1  0  0  0
 68 76  1  0  0  0
 71 76  1  0  0  0
 71 77  1  0  0  0
 71 79  2  0  0  0
 72 73  1  0  0  0
 72 74  1  0  0  0
 72139  1  0  0  0
 72140  1  0  0  0
 73 75  1  0  0  0
 73141  1  0  0  0
 73142  1  0  0  0
 74 75  1  0  0  0
 74 77  1  0  0  0
 74143  1  0  0  0
 75 78  1  0  0  0
 75144  1  0  0  0
 76145  1  0  0  0
 76146  1  0  0  0
 77147  1  0  0  0
 78148  1  0  0  0
M  ISO  4   1 100  68 101  76 101  78 100
M  END
> <chiral flag>
0

> <version>
0

> <s_m_source_file>
/data/baiqing/PycharmProjects/Reinvent-master-3.2/result/LINK_invent/BTK/process_docking_weight1_custom_sum_contain_oxygen_bond_distance_aromatic_linkinvent_7_9_3/rearranged_h_0187.sdf

> <i_m_source_file_index>
70

> <r_mmod_Potential_Energy-OPLS-2005>
1387.69079589844

> <r_mmod_Stretch_Energy-OPLS-2005>
654.386108398438

> <r_mmod_Bend_Energy-OPLS-2005>
499.838439941406

> <r_mmod_Torsional_Energy-OPLS-2005>
273.51025390625

> <r_mmod_Improper_Torsional_Energy-OPLS-2005>
5.51345443725586

> <r_mmod_Van_der_Waal_Energy-OPLS-2005>
108.605834960938

> <r_mmod_Electrostatic_Energy-OPLS-2005>
-397.658538818359

> <r_mmod_Solvation_Energy-OPLS-2005>
-255.796340942383

> <b_mmod_Minimization_Converged-OPLS-2005>
0

> <r_mmod_RMS_Derivative-OPLS-2005>
1.70718264579773

$$$$
70
                    3D
 Structure written by MMmdl.
161170  0  0  1  0            999 V2000
  -30.5831  -14.7112   20.4814 C   0  0  0  0  0  0
  -30.4334  -12.4337   19.4798 C   0  0  0  0  0  0
  -29.5163  -12.5136   18.2382 C   0  0  0  0  0  0
  -28.0341  -12.3535   18.6331 C   0  0  0  0  0  0
  -27.6452  -13.2238   19.8592 C   0  0  2  0  0  0
  -28.6834  -13.1097   20.9973 C   0  0  0  0  0  0
  -25.2541  -13.8192   20.5701 C   0  0  0  0  0  0
  -24.1806  -13.0434   20.9194 C   0  0  0  0  0  0
  -24.6374  -11.6911   20.8715 C   0  0  0  0  0  0
  -23.9029  -10.4296   21.0367 C   0  0  0  0  0  0
  -24.3604   -9.4234   21.9156 C   0  0  0  0  0  0
  -23.6297   -8.2261   22.0727 C   0  0  0  0  0  0
  -22.4286   -8.0277   21.3513 C   0  0  0  0  0  0
  -21.9901   -9.0239   20.4610 C   0  0  0  0  0  0
  -22.7196  -10.2133   20.3012 C   0  0  0  0  0  0
  -21.6871   -6.0732   22.5262 C   0  0  0  0  0  0
  -21.4022   -6.5631   23.8184 C   0  0  0  0  0  0
  -21.3674   -5.6775   24.9152 C   0  0  0  0  0  0
  -21.6048   -4.3027   24.7199 C   0  0  0  0  0  0
  -21.8827   -3.8135   23.4314 C   0  0  0  0  0  0
  -21.9210   -4.6968   22.3380 C   0  0  0  0  0  0
  -22.7843  -13.5236   21.1868 C   0  0  0  0  0  0
  -22.1661   -4.2148   21.0960 F   0  0  0  0  0  0
  -21.5657   -3.4499   25.7717 F   0  0  0  0  0  0
  -29.9908  -13.4718   20.4390 N   0  0  0  0  0  0
  -26.2934  -12.9354   20.3260 N   0  0  0  0  0  0
  -25.9298  -11.6515   20.5718 N   0  0  0  0  0  0
  -22.0458  -12.8233   22.0415 N   0  0  0  0  0  0
  -25.4285  -15.1910   20.4202 N   0  0  0  0  0  0
  -31.7367  -14.8575   20.0640 O   0  0  0  0  0  0
  -21.6656   -6.8878   21.4219 O   0  0  0  0  0  0
  -22.3538  -14.5554   20.6700 O   0  0  0  0  0  0
  -24.6337  -31.8553   23.2018 C   0  0  0  0  0  0
  -25.9134  -32.4772   23.8399 C   0  0  1  0  0  0
  -27.2082  -27.2264   20.1571 C   0  0  0  0  0  0
  -25.5927  -33.8579   24.2314 N   0  0  0  0  0  0
  -23.4375  -30.4779   21.5423 C   0  0  2  0  0  0
  -24.8870  -28.9263   20.1155 C   0  0  0  0  0  0
  -22.7555  -29.4585   22.4890 C   0  0  0  0  0  0
  -18.0293  -28.1387   22.8482 C   0  0  0  0  0  0
  -24.1480  -36.7261   23.2644 C   0  0  0  0  0  0
  -25.9884  -30.7574   21.3933 C   0  0  0  0  0  0
  -26.0596  -29.3787   20.7318 C   0  0  0  0  0  0
  -27.2271  -28.5438   20.7359 C   0  0  0  0  0  0
  -26.0155  -26.8593   19.4925 C   0  0  0  0  0  0
  -24.8729  -27.6790   19.4785 C   0  0  0  0  0  0
  -23.6641  -29.8203   20.1571 C   0  0  0  0  0  0
  -25.4112  -36.3100   24.0348 C   0  0  1  0  0  0
  -20.5911  -28.3711   23.1247 C   0  0  2  0  0  0
  -20.6778  -26.9422   22.5401 C   0  0  0  0  0  0
  -19.5742  -26.6380   21.5218 C   0  0  0  0  0  0
  -18.1926  -26.7929   22.1630 C   0  0  0  0  0  0
  -19.1550  -28.8863   23.2862 C   0  0  0  0  0  0
  -18.9468  -30.1459   23.8883 C   0  0  0  0  0  0
  -17.6457  -30.6587   24.0557 C   0  0  0  0  0  0
  -25.9054  -34.9456   23.5151 C   0  0  0  0  0  0
  -16.5350  -29.9078   23.6324 C   0  0  0  0  0  0
  -16.7273  -28.6496   23.0357 C   0  0  0  0  0  0
  -26.4494  -31.6586   25.0780 C   0  0  0  0  0  0
  -25.3712  -31.3699   26.1493 C   0  0  0  0  0  0
  -27.0340  -30.2998   24.6282 C   0  0  0  0  0  0
  -27.6076  -32.4315   25.7514 C   0  0  0  0  0  0
  -27.5593  -37.1795   24.8474 C   0  0  0  0  0  0
  -21.4254  -29.3061   22.3640 N   0  0  0  0  0  0
  -26.4305  -37.3793   23.9421 N   0  0  0  0  0  0
  -24.7054  -31.0504   22.1001 N   0  0  0  0  0  0
  -23.4233  -28.8116   23.3002 O   0  0  0  0  0  0
  -28.2675  -26.2858   20.2443 O   0  0  0  0  0  0
  -26.5632  -34.8910   22.4718 O   0  0  0  0  0  0
  -23.5465  -32.1378   23.7255 O   0  0  0  0  0  0
  -29.4591  -17.1192   18.8625 C   0  0  0  0  0  0
  -29.2969  -19.5259   20.2171 C   0  0  0  0  0  0
  -29.0667  -19.4166   18.8170 C   0  0  0  0  0  0
  -29.6801  -17.1172   20.2620 C   0  0  0  0  0  0
  -28.9694  -21.0067   22.4098 C   0  0  0  0  0  0
  -27.7645  -21.8008   21.9190 C   0  0  0  0  0  0
  -29.4361  -20.9453   20.9515 C   0  0  2  0  0  0
  -28.7226  -20.5943   17.9193 C   0  0  0  0  0  0
  -29.9453  -24.0126   21.7656 C   0  0  0  0  0  0
  -27.9191  -24.8084   20.3550 C   0  0  0  0  0  0
  -29.0131  -23.6221   20.5950 C   0  0  2  0  0  0
  -29.1458  -18.2329   18.1621 N   0  0  0  0  0  0
  -29.5991  -18.3490   20.9152 N   0  0  0  0  0  0
  -29.8246  -15.7926   20.8933 N   0  0  0  0  0  0
  -28.4951  -22.1483   20.6911 N   0  3  2  0  0  0
  -31.4777  -12.5572   19.1866 H   0  0  0  0  0  0
  -30.3680  -11.4482   19.9443 H   0  0  0  0  0  0
  -29.7945  -11.7386   17.5217 H   0  0  0  0  0  0
  -29.6647  -13.4713   17.7353 H   0  0  0  0  0  0
  -27.8675  -11.3006   18.8622 H   0  0  0  0  0  0
  -27.3929  -12.5843   17.7805 H   0  0  0  0  0  0
  -27.6532  -14.2562   19.5112 H   0  0  0  0  0  0
  -28.7153  -12.0899   21.3846 H   0  0  0  0  0  0
  -28.4112  -13.7460   21.8418 H   0  0  0  0  0  0
  -25.2733   -9.5744   22.4754 H   0  0  0  0  0  0
  -24.0012   -7.4664   22.7440 H   0  0  0  0  0  0
  -21.0834   -8.8708   19.8932 H   0  0  0  0  0  0
  -22.3586  -10.9674   19.6142 H   0  0  0  0  0  0
  -21.1970   -7.6123   23.9680 H   0  0  0  0  0  0
  -21.1514   -6.0502   25.9056 H   0  0  0  0  0  0
  -22.0602   -2.7597   23.2798 H   0  0  0  0  0  0
  -22.4019  -11.9886   22.4857 H   0  0  0  0  0  0
  -21.1055  -13.1253   22.2535 H   0  0  0  0  0  0
  -24.6689  -15.8516   20.5355 H   0  0  0  0  0  0
  -26.2829  -15.6268   20.0988 H   0  0  0  0  0  0
  -26.7208  -32.5414   23.1153 H   0  0  0  0  0  0
  -25.0086  -33.9743   25.0469 H   0  0  0  0  0  0
  -22.7361  -31.3014   21.3953 H   0  0  0  0  0  0
  -23.3793  -35.9549   23.3307 H   0  0  0  0  0  0
  -24.3582  -36.8865   22.2063 H   0  0  0  0  0  0
  -23.7164  -37.6436   23.6644 H   0  0  0  0  0  0
  -26.1495  -31.5224   20.6325 H   0  0  0  0  0  0
  -26.8578  -30.7980   22.0388 H   0  0  0  0  0  0
  -28.1244  -28.8820   21.2371 H   0  0  0  0  0  0
  -25.9241  -25.9158   18.9813 H   0  0  0  0  0  0
  -23.9800  -27.3359   18.9755 H   0  0  0  0  0  0
  -23.8063  -30.6016   19.4094 H   0  0  0  0  0  0
  -22.7817  -29.2641   19.8378 H   0  0  0  0  0  0
  -25.1291  -36.1997   25.0849 H   0  0  0  0  0  0
  -20.9992  -28.3283   24.1374 H   0  0  0  0  0  0
  -20.5684  -26.2329   23.3621 H   0  0  0  0  0  0
  -21.6639  -26.7443   22.1187 H   0  0  0  0  0  0
  -19.6904  -25.6291   21.1253 H   0  0  0  0  0  0
  -19.6665  -27.3185   20.6746 H   0  0  0  0  0  0
  -17.4202  -26.6682   21.4029 H   0  0  0  0  0  0
  -18.0315  -26.0071   22.9024 H   0  0  0  0  0  0
  -19.7940  -30.7288   24.2255 H   0  0  0  0  0  0
  -17.5005  -31.6264   24.5163 H   0  0  0  0  0  0
  -15.5350  -30.2977   23.7645 H   0  0  0  0  0  0
  -15.8678  -28.0805   22.7082 H   0  0  0  0  0  0
  -24.5914  -30.7028   25.7798 H   0  0  0  0  0  0
  -24.8862  -32.2833   26.4949 H   0  0  0  0  0  0
  -25.8026  -30.8856   27.0266 H   0  0  0  0  0  0
  -26.2926  -29.6750   24.1287 H   0  0  0  0  0  0
  -27.3984  -29.7266   25.4821 H   0  0  0  0  0  0
  -27.8840  -30.4269   23.9573 H   0  0  0  0  0  0
  -27.2735  -33.3632   26.2095 H   0  0  0  0  0  0
  -28.3856  -32.6846   25.0296 H   0  0  0  0  0  0
  -28.0786  -31.8439   26.5408 H   0  0  0  0  0  0
  -28.2615  -38.0092   24.7576 H   0  0  0  0  0  0
  -28.1096  -36.2643   24.6256 H   0  0  0  0  0  0
  -27.2323  -37.1380   25.8877 H   0  0  0  0  0  0
  -20.9457  -29.8811   21.6861 H   0  0  0  0  0  0
  -26.0205  -38.2880   24.1429 H   0  0  0  0  0  0
  -29.4746  -16.2053   18.2868 H   0  0  0  0  0  0
  -28.7248  -20.0485   22.8691 H   0  0  0  0  0  0
  -29.6343  -21.5811   23.0566 H   0  0  0  0  0  0
  -27.4825  -22.6322   22.5638 H   0  0  0  0  0  0
  -26.9121  -21.1498   21.7192 H   0  0  0  0  0  0
  -30.4780  -21.2562   20.8707 H   0  0  0  0  0  0
  -29.4202  -21.4225   18.0364 H   0  0  0  0  0  0
  -27.7087  -20.9394   18.1240 H   0  0  0  0  0  0
  -28.7455  -20.3048   16.8679 H   0  0  0  0  0  0
  -30.3848  -24.9967   21.5960 H   0  0  0  0  0  0
  -30.7755  -23.3166   21.8828 H   0  0  0  0  0  0
  -29.4099  -24.0552   22.7142 H   0  0  0  0  0  0
  -27.1839  -24.7246   21.1576 H   0  0  0  0  0  0
  -27.3923  -24.5172   19.4469 H   0  0  0  0  0  0
  -29.6343  -23.6199   19.7006 H   0  0  0  0  0  0
  -29.0312  -15.5343   21.4580 H   0  0  0  0  0  0
  -27.8865  -21.9585   19.9080 H   0  0  0  0  0  0
  1 25  1  0  0  0
  1 30  2  0  0  0
  1 84  1  0  0  0
  2  3  1  0  0  0
  2 25  1  0  0  0
  2 86  1  0  0  0
  2 87  1  0  0  0
  3  4  1  0  0  0
  3 88  1  0  0  0
  3 89  1  0  0  0
  4  5  1  0  0  0
  4 90  1  0  0  0
  4 91  1  0  0  0
  5  6  1  0  0  0
  5 26  1  0  0  0
  5 92  1  0  0  0
  6 25  1  0  0  0
  6 93  1  0  0  0
  6 94  1  0  0  0
  7  8  2  0  0  0
  7 26  1  0  0  0
  7 29  1  0  0  0
  8  9  1  0  0  0
  8 22  1  0  0  0
  9 10  1  0  0  0
  9 27  2  0  0  0
 10 11  2  0  0  0
 10 15  1  0  0  0
 11 12  1  0  0  0
 11 95  1  0  0  0
 12 13  2  0  0  0
 12 96  1  0  0  0
 13 14  1  0  0  0
 13 31  1  0  0  0
 14 15  2  0  0  0
 14 97  1  0  0  0
 15 98  1  0  0  0
 16 17  2  0  0  0
 16 21  1  0  0  0
 16 31  1  0  0  0
 17 18  1  0  0  0
 17 99  1  0  0  0
 18 19  2  0  0  0
 18100  1  0  0  0
 19 20  1  0  0  0
 19 24  1  0  0  0
 20 21  2  0  0  0
 20101  1  0  0  0
 21 23  1  0  0  0
 22 28  1  0  0  0
 22 32  2  0  0  0
 26 27  1  0  0  0
 28102  1  0  0  0
 28103  1  0  0  0
 29104  1  0  0  0
 29105  1  0  0  0
 33 34  1  0  0  0
 33 66  1  0  0  0
 33 70  2  0  0  0
 34 36  1  0  0  0
 34 59  1  0  0  0
 34106  1  0  0  0
 35 44  2  0  0  0
 35 45  1  0  0  0
 35 68  1  0  0  0
 36 56  1  0  0  0
 36107  1  0  0  0
 37 39  1  0  0  0
 37 47  1  0  0  0
 37 66  1  0  0  0
 37108  1  0  0  0
 38 43  2  0  0  0
 38 46  1  0  0  0
 38 47  1  0  0  0
 39 64  1  0  0  0
 39 67  2  0  0  0
 40 52  1  0  0  0
 40 53  2  0  0  0
 40 58  1  0  0  0
 41109  1  0  0  0
 41110  1  0  0  0
 41111  1  0  0  0
 41 48  1  0  0  0
 42 43  1  0  0  0
 42 66  1  0  0  0
 42112  1  0  0  0
 42113  1  0  0  0
 43 44  1  0  0  0
 44114  1  0  0  0
 45 46  2  0  0  0
 45115  1  0  0  0
 46116  1  0  0  0
 47117  1  0  0  0
 47118  1  0  0  0
 48 56  1  0  0  0
 48 65  1  0  0  0
 48119  1  0  0  0
 49 50  1  0  0  0
 49 53  1  0  0  0
 49 64  1  0  0  0
 49120  1  0  0  0
 50 51  1  0  0  0
 50121  1  0  0  0
 50122  1  0  0  0
 51 52  1  0  0  0
 51123  1  0  0  0
 51124  1  0  0  0
 52125  1  0  0  0
 52126  1  0  0  0
 53 54  1  0  0  0
 54 55  2  0  0  0
 54127  1  0  0  0
 55 57  1  0  0  0
 55128  1  0  0  0
 56 69  2  0  0  0
 57 58  2  0  0  0
 57129  1  0  0  0
 58130  1  0  0  0
 59 60  1  0  0  0
 59 61  1  0  0  0
 59 62  1  0  0  0
 60131  1  0  0  0
 60132  1  0  0  0
 60133  1  0  0  0
 61134  1  0  0  0
 61135  1  0  0  0
 61136  1  0  0  0
 62137  1  0  0  0
 62138  1  0  0  0
 62139  1  0  0  0
 63 65  1  0  0  0
 63140  1  0  0  0
 63141  1  0  0  0
 63142  1  0  0  0
 64143  1  0  0  0
 65144  1  0  0  0
 68 80  1  0  0  0
 71 74  2  0  0  0
 71 82  1  0  0  0
 71145  1  0  0  0
 72 73  1  0  0  0
 72 83  2  0  0  0
 72 77  1  0  0  0
 73 78  1  0  0  0
 73 82  2  0  0  0
 74 83  1  0  0  0
 74 84  1  0  0  0
 75 76  1  0  0  0
 75 77  1  0  0  0
 75146  1  0  0  0
 75147  1  0  0  0
 76148  1  0  0  0
 76149  1  0  0  0
 76 85  1  0  0  0
 77 85  1  0  0  0
 77150  1  0  0  0
 78151  1  0  0  0
 78152  1  0  0  0
 78153  1  0  0  0
 79154  1  0  0  0
 79155  1  0  0  0
 79156  1  0  0  0
 79 81  1  0  0  0
 80 81  1  0  0  0
 80157  1  0  0  0
 80158  1  0  0  0
 81 85  1  0  0  0
 81159  1  0  0  0
 84160  1  0  0  0
 85161  1  0  0  0
M  CHG  1  85   1
M  ISO  4   1 100  68 101  80 101  84 100
M  END
> <chiral flag>
0

> <version>
0

> <s_m_source_file>
/data/baiqing/PycharmProjects/Reinvent-master-3.2/result/LINK_invent/BTK/process_docking_weight1_custom_sum_contain_oxygen_bond_distance_aromatic_linkinvent_7_9_3/rearranged_h_0187.sdf

> <i_m_source_file_index>
71

> <r_mmod_Potential_Energy-OPLS-2005>
117.767791748047

> <r_mmod_Stretch_Energy-OPLS-2005>
142.526107788086

> <r_mmod_Bend_Energy-OPLS-2005>
181.519073486328

> <r_mmod_Torsional_Energy-OPLS-2005>
292.545227050781

> <r_mmod_Improper_Torsional_Energy-OPLS-2005>
5.81286907196045

> <r_mmod_Van_der_Waal_Energy-OPLS-2005>
139.069534301758

> <r_mmod_Electrostatic_Energy-OPLS-2005>
-266.332061767578

> <r_mmod_Solvation_Energy-OPLS-2005>
-469.396484375

> <b_mmod_Minimization_Converged-OPLS-2005>
0

> <r_mmod_RMS_Derivative-OPLS-2005>
4.12100839614868

$$$$
71
                    3D
 Structure written by MMmdl.
154163  0  0  1  0            999 V2000
  -30.6626  -14.6772   20.5399 C   0  0  0  0  0  0
  -30.4323  -12.4326   19.4523 C   0  0  0  0  0  0
  -29.5069  -12.5209   18.2189 C   0  0  0  0  0  0
  -28.0306  -12.3518   18.6321 C   0  0  0  0  0  0
  -27.6481  -13.2264   19.8532 C   0  0  2  0  0  0
  -28.6911  -13.0970   20.9778 C   0  0  0  0  0  0
  -25.2552  -13.8191   20.5721 C   0  0  0  0  0  0
  -24.1825  -13.0444   20.9224 C   0  0  0  0  0  0
  -24.6407  -11.6926   20.8728 C   0  0  0  0  0  0
  -23.9073  -10.4302   21.0393 C   0  0  0  0  0  0
  -24.3630   -9.4225   21.9175 C   0  0  0  0  0  0
  -23.6320   -8.2249   22.0743 C   0  0  0  0  0  0
  -22.4281   -8.0285   21.3539 C   0  0  0  0  0  0
  -21.9912   -9.0246   20.4635 C   0  0  0  0  0  0
  -22.7242  -10.2133   20.3043 C   0  0  0  0  0  0
  -21.6864   -6.0745   22.5293 C   0  0  0  0  0  0
  -21.4014   -6.5650   23.8226 C   0  0  0  0  0  0
  -21.3655   -5.6792   24.9187 C   0  0  0  0  0  0
  -21.6035   -4.3052   24.7239 C   0  0  0  0  0  0
  -21.8813   -3.8149   23.4355 C   0  0  0  0  0  0
  -21.9204   -4.6968   22.3414 C   0  0  0  0  0  0
  -22.7846  -13.5226   21.1909 C   0  0  0  0  0  0
  -22.1672   -4.2157   21.0988 F   0  0  0  0  0  0
  -21.5626   -3.4527   25.7751 F   0  0  0  0  0  0
  -29.9958  -13.4753   20.4117 N   0  0  0  0  0  0
  -26.2966  -12.9387   20.3284 N   0  0  0  0  0  0
  -25.9329  -11.6518   20.5722 N   0  0  0  0  0  0
  -22.0483  -12.8205   22.0451 N   0  0  0  0  0  0
  -25.4273  -15.1924   20.4187 N   0  0  0  0  0  0
  -31.8218  -14.7772   20.1265 O   0  0  0  0  0  0
  -21.6643   -6.8881   21.4244 O   0  0  0  0  0  0
  -22.3523  -14.5532   20.6773 O   0  0  0  0  0  0
  -24.6294  -31.8571   23.1994 C   0  0  0  0  0  0
  -25.9125  -32.4762   23.8333 C   0  0  1  0  0  0
  -27.2318  -27.2953   20.1016 C   0  0  0  0  0  0
  -25.5937  -33.8565   24.2262 N   0  0  0  0  0  0
  -23.4244  -30.4796   21.5428 C   0  0  2  0  0  0
  -24.8700  -28.9307   20.1078 C   0  0  0  0  0  0
  -22.7481  -29.4608   22.4921 C   0  0  0  0  0  0
  -18.0294  -28.1390   22.8491 C   0  0  0  0  0  0
  -24.1490  -36.7280   23.2632 C   0  0  0  0  0  0
  -25.9680  -30.7777   21.3741 C   0  0  0  0  0  0
  -26.0397  -29.4027   20.7138 C   0  0  0  0  0  0
  -27.2181  -28.5949   20.7062 C   0  0  0  0  0  0
  -26.0250  -26.8702   19.4973 C   0  0  0  0  0  0
  -24.8650  -27.6702   19.4942 C   0  0  0  0  0  0
  -23.6400  -29.8135   20.1572 C   0  0  0  0  0  0
  -25.4106  -36.3064   24.0331 C   0  0  1  0  0  0
  -20.5899  -28.3696   23.1279 C   0  0  2  0  0  0
  -20.6784  -26.9416   22.5406 C   0  0  0  0  0  0
  -19.5748  -26.6387   21.5218 C   0  0  0  0  0  0
  -18.1933  -26.7935   22.1631 C   0  0  0  0  0  0
  -19.1551  -28.8861   23.2886 C   0  0  0  0  0  0
  -18.9460  -30.1462   23.8905 C   0  0  0  0  0  0
  -17.6457  -30.6594   24.0556 C   0  0  0  0  0  0
  -25.9061  -34.9446   23.5096 C   0  0  0  0  0  0
  -16.5352  -29.9088   23.6337 C   0  0  0  0  0  0
  -16.7277  -28.6504   23.0363 C   0  0  0  0  0  0
  -26.4499  -31.6584   25.0718 C   0  0  0  0  0  0
  -25.3723  -31.3739   26.1437 C   0  0  0  0  0  0
  -27.0348  -30.3007   24.6200 C   0  0  0  0  0  0
  -27.6056  -32.4323   25.7489 C   0  0  0  0  0  0
  -27.5605  -37.1759   24.8438 C   0  0  0  0  0  0
  -21.4198  -29.3042   22.3665 N   0  0  0  0  0  0
  -26.4267  -37.3782   23.9454 N   0  0  0  0  0  0
  -24.6930  -31.0555   22.0952 N   0  0  0  0  0  0
  -23.4200  -28.8163   23.3003 O   0  0  0  0  0  0
  -28.3591  -26.4487   20.1761 O   0  0  0  0  0  0
  -26.5630  -34.8924   22.4663 O   0  0  0  0  0  0
  -23.5446  -32.1385   23.7301 O   0  0  0  0  0  0
  -29.8287  -23.4588   20.7757 C   0  0  0  0  0  0
  -28.7993  -23.7931   19.8529 C   0  0  0  0  0  0
  -29.5730  -21.1282   20.4206 C   0  0  0  0  0  0
  -28.5307  -21.4580   19.4952 C   0  0  0  0  0  0
  -30.3750  -17.1326   22.4450 C   0  0  0  0  0  0
  -29.3609  -16.0235   22.2151 C   0  0  0  0  0  0
  -30.4815  -17.2680   20.9317 C   0  0  2  0  0  0
  -28.5344  -25.2564   19.2979 C   0  0  0  0  0  0
  -29.6470  -18.4552   20.2633 C   0  0  0  0  0  0
  -30.1967  -22.1632   21.0613 N   0  0  0  0  0  0
  -28.1564  -22.7565   19.2272 N   0  0  0  0  0  0
  -29.9640  -15.8281   20.8880 N   0  0  0  0  0  0
  -30.0541  -19.8128   20.7617 N   0  0  0  0  0  0
  -27.8796  -20.4705   18.8362 F   0  0  0  0  0  0
  -31.4729  -12.5531   19.1442 H   0  0  0  0  0  0
  -30.3747  -11.4405   19.9052 H   0  0  0  0  0  0
  -29.7779  -11.7580   17.4871 H   0  0  0  0  0  0
  -29.6440  -13.4831   17.7217 H   0  0  0  0  0  0
  -27.8762  -11.3010   18.8737 H   0  0  0  0  0  0
  -27.3732  -12.5695   17.7902 H   0  0  0  0  0  0
  -27.6616  -14.2626   19.5135 H   0  0  0  0  0  0
  -28.7236  -12.0751   21.3556 H   0  0  0  0  0  0
  -28.4006  -13.7028   21.8282 H   0  0  0  0  0  0
  -25.2768   -9.5720   22.4758 H   0  0  0  0  0  0
  -24.0049   -7.4624   22.7434 H   0  0  0  0  0  0
  -21.0843   -8.8743   19.8932 H   0  0  0  0  0  0
  -22.3682  -10.9662   19.6154 H   0  0  0  0  0  0
  -21.1985   -7.6157   23.9746 H   0  0  0  0  0  0
  -21.1485   -6.0511   25.9091 H   0  0  0  0  0  0
  -22.0593   -2.7612   23.2851 H   0  0  0  0  0  0
  -22.4098  -11.9883   22.4859 H   0  0  0  0  0  0
  -21.1075  -13.1204   22.2596 H   0  0  0  0  0  0
  -24.6678  -15.8546   20.5326 H   0  0  0  0  0  0
  -26.2894  -15.6270   20.1122 H   0  0  0  0  0  0
  -26.7194  -32.5423   23.1080 H   0  0  0  0  0  0
  -25.0082  -33.9706   25.0406 H   0  0  0  0  0  0
  -22.7192  -31.3023   21.3979 H   0  0  0  0  0  0
  -23.3780  -35.9582   23.3204 H   0  0  0  0  0  0
  -24.3614  -36.8982   22.2069 H   0  0  0  0  0  0
  -23.7192  -37.6436   23.6701 H   0  0  0  0  0  0
  -26.1055  -31.5414   20.6077 H   0  0  0  0  0  0
  -26.8455  -30.8244   22.0062 H   0  0  0  0  0  0
  -28.1139  -28.9510   21.1964 H   0  0  0  0  0  0
  -25.9197  -25.8903   19.0582 H   0  0  0  0  0  0
  -23.9618  -27.2943   19.0305 H   0  0  0  0  0  0
  -23.7578  -30.5907   19.3999 H   0  0  0  0  0  0
  -22.7586  -29.2444   19.8563 H   0  0  0  0  0  0
  -25.1268  -36.1892   25.0818 H   0  0  0  0  0  0
  -20.9998  -28.3268   24.1398 H   0  0  0  0  0  0
  -20.5706  -26.2295   23.3607 H   0  0  0  0  0  0
  -21.6648  -26.7456   22.1183 H   0  0  0  0  0  0
  -19.6908  -25.6298   21.1254 H   0  0  0  0  0  0
  -19.6692  -27.3199   20.6752 H   0  0  0  0  0  0
  -17.4203  -26.6687   21.4033 H   0  0  0  0  0  0
  -18.0325  -26.0085   22.9036 H   0  0  0  0  0  0
  -19.7934  -30.7283   24.2267 H   0  0  0  0  0  0
  -17.5011  -31.6277   24.5147 H   0  0  0  0  0  0
  -15.5350  -30.2980   23.7670 H   0  0  0  0  0  0
  -15.8678  -28.0823   22.7075 H   0  0  0  0  0  0
  -24.5891  -30.7097   25.7762 H   0  0  0  0  0  0
  -24.8926  -32.2913   26.4861 H   0  0  0  0  0  0
  -25.8034  -30.8913   27.0217 H   0  0  0  0  0  0
  -26.2939  -29.6749   24.1220 H   0  0  0  0  0  0
  -27.4026  -29.7271   25.4713 H   0  0  0  0  0  0
  -27.8804  -30.4276   23.9443 H   0  0  0  0  0  0
  -27.2667  -33.3620   26.2067 H   0  0  0  0  0  0
  -28.3866  -32.6889   25.0322 H   0  0  0  0  0  0
  -28.0726  -31.8457   26.5407 H   0  0  0  0  0  0
  -28.2487  -38.0191   24.7678 H   0  0  0  0  0  0
  -28.1229  -36.2741   24.5987 H   0  0  0  0  0  0
  -27.2366  -37.1052   25.8837 H   0  0  0  0  0  0
  -20.9375  -29.8753   21.6878 H   0  0  0  0  0  0
  -26.0132  -38.2819   24.1578 H   0  0  0  0  0  0
  -30.4046  -24.2447   21.2450 H   0  0  0  0  0  0
  -31.2993  -16.7832   22.9098 H   0  0  0  0  0  0
  -29.9700  -18.0043   22.9570 H   0  0  0  0  0  0
  -28.3266  -16.3743   22.1765 H   0  0  0  0  0  0
  -29.4896  -15.2129   22.9357 H   0  0  0  0  0  0
  -31.5359  -17.3386   20.6541 H   0  0  0  0  0  0
  -27.7800  -25.1956   18.5196 H   0  0  0  0  0  0
  -29.4333  -25.4908   18.7268 H   0  0  0  0  0  0
  -28.5780  -18.3230   20.4424 H   0  0  0  0  0  0
  -29.7807  -18.4329   19.1809 H   0  0  0  0  0  0
  -30.8137  -19.7988   21.4316 H   0  0  0  0  0  0
  1 25  1  0  0  0
  1 30  2  0  0  0
  1 82  1  0  0  0
  2  3  1  0  0  0
  2 25  1  0  0  0
  2 85  1  0  0  0
  2 86  1  0  0  0
  3  4  1  0  0  0
  3 87  1  0  0  0
  3 88  1  0  0  0
  4  5  1  0  0  0
  4 89  1  0  0  0
  4 90  1  0  0  0
  5  6  1  0  0  0
  5 26  1  0  0  0
  5 91  1  0  0  0
  6 25  1  0  0  0
  6 92  1  0  0  0
  6 93  1  0  0  0
  7  8  2  0  0  0
  7 26  1  0  0  0
  7 29  1  0  0  0
  8  9  1  0  0  0
  8 22  1  0  0  0
  9 10  1  0  0  0
  9 27  2  0  0  0
 10 11  2  0  0  0
 10 15  1  0  0  0
 11 12  1  0  0  0
 11 94  1  0  0  0
 12 13  2  0  0  0
 12 95  1  0  0  0
 13 14  1  0  0  0
 13 31  1  0  0  0
 14 15  2  0  0  0
 14 96  1  0  0  0
 15 97  1  0  0  0
 16 17  2  0  0  0
 16 21  1  0  0  0
 16 31  1  0  0  0
 17 18  1  0  0  0
 17 98  1  0  0  0
 18 19  2  0  0  0
 18 99  1  0  0  0
 19 20  1  0  0  0
 19 24  1  0  0  0
 20 21  2  0  0  0
 20100  1  0  0  0
 21 23  1  0  0  0
 22 28  1  0  0  0
 22 32  2  0  0  0
 26 27  1  0  0  0
 28101  1  0  0  0
 28102  1  0  0  0
 29103  1  0  0  0
 29104  1  0  0  0
 33 34  1  0  0  0
 33 66  1  0  0  0
 33 70  2  0  0  0
 34 36  1  0  0  0
 34 59  1  0  0  0
 34105  1  0  0  0
 35 44  2  0  0  0
 35 45  1  0  0  0
 35 68  1  0  0  0
 36 56  1  0  0  0
 36106  1  0  0  0
 37 39  1  0  0  0
 37 47  1  0  0  0
 37 66  1  0  0  0
 37107  1  0  0  0
 38 43  2  0  0  0
 38 46  1  0  0  0
 38 47  1  0  0  0
 39 64  1  0  0  0
 39 67  2  0  0  0
 40 52  1  0  0  0
 40 53  2  0  0  0
 40 58  1  0  0  0
 41108  1  0  0  0
 41109  1  0  0  0
 41110  1  0  0  0
 41 48  1  0  0  0
 42 43  1  0  0  0
 42 66  1  0  0  0
 42111  1  0  0  0
 42112  1  0  0  0
 43 44  1  0  0  0
 44113  1  0  0  0
 45 46  2  0  0  0
 45114  1  0  0  0
 46115  1  0  0  0
 47116  1  0  0  0
 47117  1  0  0  0
 48 56  1  0  0  0
 48 65  1  0  0  0
 48118  1  0  0  0
 49 50  1  0  0  0
 49 53  1  0  0  0
 49 64  1  0  0  0
 49119  1  0  0  0
 50 51  1  0  0  0
 50120  1  0  0  0
 50121  1  0  0  0
 51 52  1  0  0  0
 51122  1  0  0  0
 51123  1  0  0  0
 52124  1  0  0  0
 52125  1  0  0  0
 53 54  1  0  0  0
 54 55  2  0  0  0
 54126  1  0  0  0
 55 57  1  0  0  0
 55127  1  0  0  0
 56 69  2  0  0  0
 57 58  2  0  0  0
 57128  1  0  0  0
 58129  1  0  0  0
 59 60  1  0  0  0
 59 61  1  0  0  0
 59 62  1  0  0  0
 60130  1  0  0  0
 60131  1  0  0  0
 60132  1  0  0  0
 61133  1  0  0  0
 61134  1  0  0  0
 61135  1  0  0  0
 62136  1  0  0  0
 62137  1  0  0  0
 62138  1  0  0  0
 63 65  1  0  0  0
 63139  1  0  0  0
 63140  1  0  0  0
 63141  1  0  0  0
 64142  1  0  0  0
 65143  1  0  0  0
 68 78  1  0  0  0
 71 72  2  0  0  0
 71 80  1  0  0  0
 71144  1  0  0  0
 72 78  1  0  0  0
 72 81  1  0  0  0
 73 74  1  0  0  0
 73 80  2  0  0  0
 73 83  1  0  0  0
 74 81  2  0  0  0
 74 84  1  0  0  0
 75 76  1  0  0  0
 75 77  1  0  0  0
 75145  1  0  0  0
 75146  1  0  0  0
 76 82  1  0  0  0
 76147  1  0  0  0
 76148  1  0  0  0
 77 79  1  0  0  0
 77 82  1  0  0  0
 77149  1  0  0  0
 78150  1  0  0  0
 78151  1  0  0  0
 79 83  1  0  0  0
 79152  1  0  0  0
 79153  1  0  0  0
 83154  1  0  0  0
M  ISO  4   1 100  68 101  78 101  82 100
M  END
> <chiral flag>
0

> <version>
0

> <s_m_source_file>
/data/baiqing/PycharmProjects/Reinvent-master-3.2/result/LINK_invent/BTK/process_docking_weight1_custom_sum_contain_oxygen_bond_distance_aromatic_linkinvent_7_9_3/rearranged_h_0187.sdf

> <i_m_source_file_index>
72

> <r_mmod_Potential_Energy-OPLS-2005>
302.812683105469

> <r_mmod_Stretch_Energy-OPLS-2005>
104.545944213867

> <r_mmod_Bend_Energy-OPLS-2005>
192.934829711914

> <r_mmod_Torsional_Energy-OPLS-2005>
267.683349609375

> <r_mmod_Improper_Torsional_Energy-OPLS-2005>
13.3782167434692

> <r_mmod_Van_der_Waal_Energy-OPLS-2005>
146.563415527344

> <r_mmod_Electrostatic_Energy-OPLS-2005>
-268.886871337891

> <r_mmod_Solvation_Energy-OPLS-2005>
-211.824783325195

> <b_mmod_Minimization_Converged-OPLS-2005>
0

> <r_mmod_RMS_Derivative-OPLS-2005>
3.96480894088745

$$$$
72
                    3D
 Structure written by MMmdl.
155164  0  0  1  0            999 V2000
  -30.5805  -14.9940   20.4189 C   0  0  0  0  0  0
  -30.4241  -12.6264   19.5022 C   0  0  0  0  0  0
  -29.5146  -12.5308   18.2582 C   0  0  0  0  0  0
  -28.0520  -12.3121   18.6821 C   0  0  0  0  0  0
  -27.6205  -13.2616   19.8311 C   0  0  2  0  0  0
  -28.6636  -13.3469   20.9653 C   0  0  0  0  0  0
  -25.2429  -13.8246   20.5742 C   0  0  0  0  0  0
  -24.1757  -13.0450   20.9242 C   0  0  0  0  0  0
  -24.6392  -11.6940   20.8763 C   0  0  0  0  0  0
  -23.9086  -10.4300   21.0408 C   0  0  0  0  0  0
  -24.3634   -9.4213   21.9184 C   0  0  0  0  0  0
  -23.6307   -8.2247   22.0752 C   0  0  0  0  0  0
  -22.4288   -8.0284   21.3543 C   0  0  0  0  0  0
  -21.9927   -9.0258   20.4644 C   0  0  0  0  0  0
  -22.7256  -10.2138   20.3057 C   0  0  0  0  0  0
  -21.6857   -6.0741   22.5279 C   0  0  0  0  0  0
  -21.4015   -6.5642   23.8213 C   0  0  0  0  0  0
  -21.3661   -5.6794   24.9174 C   0  0  0  0  0  0
  -21.6045   -4.3057   24.7224 C   0  0  0  0  0  0
  -21.8819   -3.8151   23.4344 C   0  0  0  0  0  0
  -21.9194   -4.6969   22.3401 C   0  0  0  0  0  0
  -22.7776  -13.5207   21.1890 C   0  0  0  0  0  0
  -22.1661   -4.2156   21.0979 F   0  0  0  0  0  0
  -21.5630   -3.4539   25.7735 F   0  0  0  0  0  0
  -29.9256  -13.7600   20.3419 N   0  0  0  0  0  0
  -26.2853  -12.9501   20.3258 N   0  0  0  0  0  0
  -25.9329  -11.6617   20.5753 N   0  0  0  0  0  0
  -22.0432  -12.8187   22.0444 N   0  0  0  0  0  0
  -25.4107  -15.1973   20.4177 N   0  0  0  0  0  0
  -31.7923  -14.9607   20.1788 O   0  0  0  0  0  0
  -21.6647   -6.8884   21.4242 O   0  0  0  0  0  0
  -22.3453  -14.5507   20.6731 O   0  0  0  0  0  0
  -24.6487  -31.8407   23.1870 C   0  0  0  0  0  0
  -25.9240  -32.4678   23.8269 C   0  0  1  0  0  0
  -27.2049  -27.0858   20.1507 C   0  0  0  0  0  0
  -25.5971  -33.8487   24.2177 N   0  0  0  0  0  0
  -23.4539  -30.4619   21.5342 C   0  0  2  0  0  0
  -24.9026  -28.8880   20.1086 C   0  0  0  0  0  0
  -22.7596  -29.4533   22.4846 C   0  0  0  0  0  0
  -18.0309  -28.1403   22.8476 C   0  0  0  0  0  0
  -24.1492  -36.7242   23.2642 C   0  0  0  0  0  0
  -26.0157  -30.6969   21.3964 C   0  0  0  0  0  0
  -26.0838  -29.3057   20.7349 C   0  0  0  0  0  0
  -27.2356  -28.4213   20.7409 C   0  0  0  0  0  0
  -25.9983  -26.7958   19.4709 C   0  0  0  0  0  0
  -24.8763  -27.6482   19.4600 C   0  0  0  0  0  0
  -23.6827  -29.7959   20.1529 C   0  0  0  0  0  0
  -25.4128  -36.3020   24.0310 C   0  0  1  0  0  0
  -20.5927  -28.3733   23.1223 C   0  0  2  0  0  0
  -20.6795  -26.9432   22.5402 C   0  0  0  0  0  0
  -19.5765  -26.6384   21.5216 C   0  0  0  0  0  0
  -18.1946  -26.7938   22.1627 C   0  0  0  0  0  0
  -19.1568  -28.8888   23.2838 C   0  0  0  0  0  0
  -18.9482  -30.1482   23.8866 C   0  0  0  0  0  0
  -17.6477  -30.6596   24.0561 C   0  0  0  0  0  0
  -25.9084  -34.9398   23.5053 C   0  0  0  0  0  0
  -16.5367  -29.9087   23.6342 C   0  0  0  0  0  0
  -16.7293  -28.6508   23.0361 C   0  0  0  0  0  0
  -26.4541  -31.6562   25.0730 C   0  0  0  0  0  0
  -25.3707  -31.3767   26.1410 C   0  0  0  0  0  0
  -27.0415  -30.2947   24.6357 C   0  0  0  0  0  0
  -27.6058  -32.4341   25.7519 C   0  0  0  0  0  0
  -27.5575  -37.1780   24.8466 C   0  0  0  0  0  0
  -21.4283  -29.3050   22.3590 N   0  0  0  0  0  0
  -26.4287  -37.3739   23.9406 N   0  0  0  0  0  0
  -24.7263  -31.0220   22.0934 N   0  0  0  0  0  0
  -23.4219  -28.8076   23.3009 O   0  0  0  0  0  0
  -28.2114  -26.0351   20.2380 O   0  0  0  0  0  0
  -26.5674  -34.8901   22.4634 O   0  0  0  0  0  0
  -23.5593  -32.1311   23.7056 O   0  0  0  0  0  0
  -29.1814  -20.9008   19.2113 C   0  0  0  0  0  0
  -29.2278  -20.1272   20.4271 C   0  0  0  0  0  0
  -28.6211  -22.2821   21.4389 C   0  0  0  0  0  0
  -28.5636  -23.0562   20.2140 C   0  0  0  0  0  0
  -28.9381  -17.1632   21.0130 C   0  0  0  0  0  0
  -30.3812  -17.5288   19.5600 C   0  0  0  0  0  0
  -29.6919  -18.5170   20.5887 C   0  0  0  0  0  0
  -29.5364  -23.3430   23.5481 C   0  0  0  0  0  0
  -28.2809  -22.9355   22.7677 C   0  0  0  0  0  0
  -27.8019  -24.5357   19.9757 C   0  0  0  0  0  0
  -28.8600  -22.2654   19.1132 N   0  0  0  0  0  0
  -28.9519  -20.9150   21.5334 N   0  0  0  0  0  0
  -29.9222  -16.2692   20.2766 N   0  0  0  0  0  0
  -31.4586  -12.7655   19.1852 H   0  0  0  0  0  0
  -30.4123  -11.6921   20.0660 H   0  0  0  0  0  0
  -29.8426  -11.7198   17.6066 H   0  0  0  0  0  0
  -29.5957  -13.4485   17.6734 H   0  0  0  0  0  0
  -27.9582  -11.2753   19.0071 H   0  0  0  0  0  0
  -27.3866  -12.4234   17.8253 H   0  0  0  0  0  0
  -27.5672  -14.2529   19.3791 H   0  0  0  0  0  0
  -28.7667  -12.3939   21.4861 H   0  0  0  0  0  0
  -28.3568  -14.0836   21.7095 H   0  0  0  0  0  0
  -25.2775   -9.5689   22.4766 H   0  0  0  0  0  0
  -24.0015   -7.4638   22.7472 H   0  0  0  0  0  0
  -21.0859   -8.8778   19.8948 H   0  0  0  0  0  0
  -22.3711  -10.9679   19.6171 H   0  0  0  0  0  0
  -21.2005   -7.6150   23.9718 H   0  0  0  0  0  0
  -21.1484   -6.0523   25.9077 H   0  0  0  0  0  0
  -22.0597   -2.7614   23.2842 H   0  0  0  0  0  0
  -22.4066  -11.9857   22.4834 H   0  0  0  0  0  0
  -21.1043  -13.1191   22.2648 H   0  0  0  0  0  0
  -24.6458  -15.8535   20.5309 H   0  0  0  0  0  0
  -26.2637  -15.6324   20.0916 H   0  0  0  0  0  0
  -26.7305  -32.5264   23.0992 H   0  0  0  0  0  0
  -25.0091  -33.9597   25.0307 H   0  0  0  0  0  0
  -22.7587  -31.2898   21.3803 H   0  0  0  0  0  0
  -23.3764  -35.9564   23.3295 H   0  0  0  0  0  0
  -24.3569  -36.8887   22.2057 H   0  0  0  0  0  0
  -23.7242  -37.6431   23.6690 H   0  0  0  0  0  0
  -26.1823  -31.4496   20.6248 H   0  0  0  0  0  0
  -26.8821  -30.7436   22.0442 H   0  0  0  0  0  0
  -28.1294  -28.7328   21.2631 H   0  0  0  0  0  0
  -25.8661  -25.8577   18.9558 H   0  0  0  0  0  0
  -23.9781  -27.3253   18.9516 H   0  0  0  0  0  0
  -23.8242  -30.5726   19.4005 H   0  0  0  0  0  0
  -22.7955  -29.2431   19.8385 H   0  0  0  0  0  0
  -25.1320  -36.1843   25.0803 H   0  0  0  0  0  0
  -21.0017  -28.3329   24.1346 H   0  0  0  0  0  0
  -20.5695  -26.2349   23.3627 H   0  0  0  0  0  0
  -21.6658  -26.7436   22.1196 H   0  0  0  0  0  0
  -19.6926  -25.6289   21.1264 H   0  0  0  0  0  0
  -19.6701  -27.3182   20.6735 H   0  0  0  0  0  0
  -17.4216  -26.6686   21.4031 H   0  0  0  0  0  0
  -18.0342  -26.0089   22.9031 H   0  0  0  0  0  0
  -19.7956  -30.7310   24.2221 H   0  0  0  0  0  0
  -17.5028  -31.6273   24.5169 H   0  0  0  0  0  0
  -15.5367  -30.2979   23.7684 H   0  0  0  0  0  0
  -15.8693  -28.0817   22.7094 H   0  0  0  0  0  0
  -24.5892  -30.7113   25.7725 H   0  0  0  0  0  0
  -24.8893  -32.2956   26.4766 H   0  0  0  0  0  0
  -25.7972  -30.8981   27.0235 H   0  0  0  0  0  0
  -26.3052  -29.6658   24.1340 H   0  0  0  0  0  0
  -27.3976  -29.7262   25.4959 H   0  0  0  0  0  0
  -27.8984  -30.4165   23.9727 H   0  0  0  0  0  0
  -27.2641  -33.3665   26.2025 H   0  0  0  0  0  0
  -28.3907  -32.6864   25.0376 H   0  0  0  0  0  0
  -28.0686  -31.8517   26.5496 H   0  0  0  0  0  0
  -28.2585  -38.0082   24.7511 H   0  0  0  0  0  0
  -28.1079  -36.2611   24.6301 H   0  0  0  0  0  0
  -27.2287  -37.1433   25.8868 H   0  0  0  0  0  0
  -20.9507  -29.8758   21.6756 H   0  0  0  0  0  0
  -26.0150  -38.2803   24.1413 H   0  0  0  0  0  0
  -29.4133  -20.4143   18.2750 H   0  0  0  0  0  0
  -27.9307  -17.1051   20.5996 H   0  0  0  0  0  0
  -28.9047  -17.0133   22.0929 H   0  0  0  0  0  0
  -31.4635  -17.6575   19.5083 H   0  0  0  0  0  0
  -29.9547  -17.6148   18.5597 H   0  0  0  0  0  0
  -30.4451  -18.6411   21.3684 H   0  0  0  0  0  0
  -29.2706  -23.8038   24.4997 H   0  0  0  0  0  0
  -30.1330  -24.0612   22.9847 H   0  0  0  0  0  0
  -30.1656  -22.4784   23.7611 H   0  0  0  0  0  0
  -27.6863  -22.2415   23.3635 H   0  0  0  0  0  0
  -27.6493  -23.8092   22.6107 H   0  0  0  0  0  0
  -26.8429  -24.4045   20.4775 H   0  0  0  0  0  0
  -27.5645  -24.5106   18.9121 H   0  0  0  0  0  0
  1 25  1  0  0  0
  1 30  2  0  0  0
  1 83  1  0  0  0
  2  3  1  0  0  0
  2 25  1  0  0  0
  2 84  1  0  0  0
  2 85  1  0  0  0
  3  4  1  0  0  0
  3 86  1  0  0  0
  3 87  1  0  0  0
  4  5  1  0  0  0
  4 88  1  0  0  0
  4 89  1  0  0  0
  5  6  1  0  0  0
  5 26  1  0  0  0
  5 90  1  0  0  0
  6 25  1  0  0  0
  6 91  1  0  0  0
  6 92  1  0  0  0
  7  8  2  0  0  0
  7 26  1  0  0  0
  7 29  1  0  0  0
  8  9  1  0  0  0
  8 22  1  0  0  0
  9 10  1  0  0  0
  9 27  2  0  0  0
 10 11  2  0  0  0
 10 15  1  0  0  0
 11 12  1  0  0  0
 11 93  1  0  0  0
 12 13  2  0  0  0
 12 94  1  0  0  0
 13 14  1  0  0  0
 13 31  1  0  0  0
 14 15  2  0  0  0
 14 95  1  0  0  0
 15 96  1  0  0  0
 16 17  2  0  0  0
 16 21  1  0  0  0
 16 31  1  0  0  0
 17 18  1  0  0  0
 17 97  1  0  0  0
 18 19  2  0  0  0
 18 98  1  0  0  0
 19 20  1  0  0  0
 19 24  1  0  0  0
 20 21  2  0  0  0
 20 99  1  0  0  0
 21 23  1  0  0  0
 22 28  1  0  0  0
 22 32  2  0  0  0
 26 27  1  0  0  0
 28100  1  0  0  0
 28101  1  0  0  0
 29102  1  0  0  0
 29103  1  0  0  0
 33 34  1  0  0  0
 33 66  1  0  0  0
 33 70  2  0  0  0
 34 36  1  0  0  0
 34 59  1  0  0  0
 34104  1  0  0  0
 35 44  2  0  0  0
 35 45  1  0  0  0
 35 68  1  0  0  0
 36 56  1  0  0  0
 36105  1  0  0  0
 37 39  1  0  0  0
 37 47  1  0  0  0
 37 66  1  0  0  0
 37106  1  0  0  0
 38 43  2  0  0  0
 38 46  1  0  0  0
 38 47  1  0  0  0
 39 64  1  0  0  0
 39 67  2  0  0  0
 40 52  1  0  0  0
 40 53  2  0  0  0
 40 58  1  0  0  0
 41107  1  0  0  0
 41108  1  0  0  0
 41109  1  0  0  0
 41 48  1  0  0  0
 42 43  1  0  0  0
 42 66  1  0  0  0
 42110  1  0  0  0
 42111  1  0  0  0
 43 44  1  0  0  0
 44112  1  0  0  0
 45 46  2  0  0  0
 45113  1  0  0  0
 46114  1  0  0  0
 47115  1  0  0  0
 47116  1  0  0  0
 48 56  1  0  0  0
 48 65  1  0  0  0
 48117  1  0  0  0
 49 50  1  0  0  0
 49 53  1  0  0  0
 49 64  1  0  0  0
 49118  1  0  0  0
 50 51  1  0  0  0
 50119  1  0  0  0
 50120  1  0  0  0
 51 52  1  0  0  0
 51121  1  0  0  0
 51122  1  0  0  0
 52123  1  0  0  0
 52124  1  0  0  0
 53 54  1  0  0  0
 54 55  2  0  0  0
 54125  1  0  0  0
 55 57  1  0  0  0
 55126  1  0  0  0
 56 69  2  0  0  0
 57 58  2  0  0  0
 57127  1  0  0  0
 58128  1  0  0  0
 59 60  1  0  0  0
 59 61  1  0  0  0
 59 62  1  0  0  0
 60129  1  0  0  0
 60130  1  0  0  0
 60131  1  0  0  0
 61132  1  0  0  0
 61133  1  0  0  0
 61134  1  0  0  0
 62135  1  0  0  0
 62136  1  0  0  0
 62137  1  0  0  0
 63 65  1  0  0  0
 63138  1  0  0  0
 63139  1  0  0  0
 63140  1  0  0  0
 64141  1  0  0  0
 65142  1  0  0  0
 68 80  1  0  0  0
 71 72  2  0  0  0
 71 81  1  0  0  0
 71143  1  0  0  0
 72 82  1  0  0  0
 72 77  1  0  0  0
 73 74  1  0  0  0
 73 79  1  0  0  0
 73 82  2  0  0  0
 74 80  1  0  0  0
 74 81  2  0  0  0
 75 77  1  0  0  0
 75 83  1  0  0  0
 75144  1  0  0  0
 75145  1  0  0  0
 76 77  1  0  0  0
 76 83  1  0  0  0
 76146  1  0  0  0
 76147  1  0  0  0
 77148  1  0  0  0
 78 79  1  0  0  0
 78149  1  0  0  0
 78150  1  0  0  0
 78151  1  0  0  0
 79152  1  0  0  0
 79153  1  0  0  0
 80154  1  0  0  0
 80155  1  0  0  0
M  ISO  4   1 100  68 101  80 101  83 100
M  END
> <chiral flag>
0

> <version>
0

> <s_m_source_file>
/data/baiqing/PycharmProjects/Reinvent-master-3.2/result/LINK_invent/BTK/process_docking_weight1_custom_sum_contain_oxygen_bond_distance_aromatic_linkinvent_7_9_3/rearranged_h_0187.sdf

> <i_m_source_file_index>
73

> <r_mmod_Potential_Energy-OPLS-2005>
780.647644042969

> <r_mmod_Stretch_Energy-OPLS-2005>
271.927886962891

> <r_mmod_Bend_Energy-OPLS-2005>
327.426788330078

> <r_mmod_Torsional_Energy-OPLS-2005>
261.29345703125

> <r_mmod_Improper_Torsional_Energy-OPLS-2005>
20.3899173736572

> <r_mmod_Van_der_Waal_Energy-OPLS-2005>
132.550231933594

> <r_mmod_Electrostatic_Energy-OPLS-2005>
-251.162673950195

> <r_mmod_Solvation_Energy-OPLS-2005>
-220.976867675781

> <b_mmod_Minimization_Converged-OPLS-2005>
0

> <r_mmod_RMS_Derivative-OPLS-2005>
0.36761012673378

$$$$
73
                    3D
 Structure written by MMmdl.
149158  0  0  1  0            999 V2000
  -30.3839  -15.4356   20.3514 C   0  0  0  0  0  0
  -30.4291  -12.9336   19.5338 C   0  0  0  0  0  0
  -29.5389  -12.6087   18.3053 C   0  0  0  0  0  0
  -28.1009  -12.2934   18.7443 C   0  0  0  0  0  0
  -27.6013  -13.2906   19.8167 C   0  0  2  0  0  0
  -28.6255  -13.5478   20.9436 C   0  0  0  0  0  0
  -25.2362  -13.8278   20.5798 C   0  0  0  0  0  0
  -24.1721  -13.0444   20.9275 C   0  0  0  0  0  0
  -24.6398  -11.6946   20.8763 C   0  0  0  0  0  0
  -23.9108  -10.4296   21.0408 C   0  0  0  0  0  0
  -24.3651   -9.4206   21.9184 C   0  0  0  0  0  0
  -23.6313   -8.2245   22.0751 C   0  0  0  0  0  0
  -22.4289   -8.0290   21.3549 C   0  0  0  0  0  0
  -21.9941   -9.0267   20.4648 C   0  0  0  0  0  0
  -22.7281  -10.2138   20.3055 C   0  0  0  0  0  0
  -21.6860   -6.0747   22.5284 C   0  0  0  0  0  0
  -21.4017   -6.5649   23.8219 C   0  0  0  0  0  0
  -21.3652   -5.6796   24.9178 C   0  0  0  0  0  0
  -21.6043   -4.3060   24.7226 C   0  0  0  0  0  0
  -21.8819   -3.8155   23.4346 C   0  0  0  0  0  0
  -21.9195   -4.6972   22.3403 C   0  0  0  0  0  0
  -22.7739  -13.5183   21.1923 C   0  0  0  0  0  0
  -22.1665   -4.2159   21.0979 F   0  0  0  0  0  0
  -21.5619   -3.4542   25.7738 F   0  0  0  0  0  0
  -29.8297  -14.1050   20.2996 N   0  0  0  0  0  0
  -26.2783  -12.9573   20.3235 N   0  0  0  0  0  0
  -25.9340  -11.6661   20.5716 N   0  0  0  0  0  0
  -22.0404  -12.8150   22.0471 N   0  0  0  0  0  0
  -25.4043  -15.2020   20.4316 N   0  0  0  0  0  0
  -31.6121  -15.3882   20.1656 O   0  0  0  0  0  0
  -21.6647   -6.8892   21.4248 O   0  0  0  0  0  0
  -22.3413  -14.5481   20.6761 O   0  0  0  0  0  0
  -24.6712  -31.8112   23.1602 C   0  0  0  0  0  0
  -25.9354  -32.4522   23.8104 C   0  0  1  0  0  0
  -27.2207  -26.8108   20.2129 C   0  0  0  0  0  0
  -25.5993  -33.8342   24.2013 N   0  0  0  0  0  0
  -23.4910  -30.4162   21.5114 C   0  0  2  0  0  0
  -24.9442  -28.7723   20.1201 C   0  0  0  0  0  0
  -22.7705  -29.4375   22.4752 C   0  0  0  0  0  0
  -18.0327  -28.1421   22.8464 C   0  0  0  0  0  0
  -24.1488  -36.7168   23.2662 C   0  0  0  0  0  0
  -26.0636  -30.5803   21.4067 C   0  0  0  0  0  0
  -26.1270  -29.1540   20.7626 C   0  0  0  0  0  0
  -27.2517  -28.1971   20.7787 C   0  0  0  0  0  0
  -26.0064  -26.6058   19.5155 C   0  0  0  0  0  0
  -24.9143  -27.5210   19.4776 C   0  0  0  0  0  0
  -23.7372  -29.7161   20.1438 C   0  0  0  0  0  0
  -25.4144  -36.2921   24.0288 C   0  0  1  0  0  0
  -20.5957  -28.3757   23.1176 C   0  0  2  0  0  0
  -20.6795  -26.9429   22.5406 C   0  0  0  0  0  0
  -19.5770  -26.6380   21.5216 C   0  0  0  0  0  0
  -18.1954  -26.7955   22.1621 C   0  0  0  0  0  0
  -19.1594  -28.8913   23.2801 C   0  0  0  0  0  0
  -18.9497  -30.1508   23.8830 C   0  0  0  0  0  0
  -17.6487  -30.6601   24.0554 C   0  0  0  0  0  0
  -25.9101  -34.9308   23.4970 C   0  0  0  0  0  0
  -16.5381  -29.9082   23.6362 C   0  0  0  0  0  0
  -16.7306  -28.6512   23.0364 C   0  0  0  0  0  0
  -26.4585  -31.6520   25.0676 C   0  0  0  0  0  0
  -25.3694  -31.3812   26.1319 C   0  0  0  0  0  0
  -27.0491  -30.2870   24.6491 C   0  0  0  0  0  0
  -27.6053  -32.4369   25.7488 C   0  0  0  0  0  0
  -27.5526  -37.1785   24.8507 C   0  0  0  0  0  0
  -21.4365  -29.3022   22.3507 N   0  0  0  0  0  0
  -26.4298  -37.3646   23.9354 N   0  0  0  0  0  0
  -24.7640  -30.9672   22.0791 N   0  0  0  0  0  0
  -23.4213  -28.7975   23.3046 O   0  0  0  0  0  0
  -28.2839  -25.7254   20.2281 O   0  0  0  0  0  0
  -26.5703  -34.8864   22.4563 O   0  0  0  0  0  0
  -23.5766  -32.1137   23.6632 O   0  0  0  0  0  0
  -27.6189  -21.8008   20.4585 C   0  0  0  0  0  0
  -28.8595  -20.9985   20.3257 C   0  0  0  0  0  0
  -29.8092  -22.1012   20.1358 C   0  0  0  0  0  0
  -28.3588  -24.1837   20.2311 C   0  0  0  0  0  0
  -29.3395  -17.9072   19.4023 C   0  0  0  0  0  0
  -30.0449  -18.1011   21.2252 C   0  0  0  0  0  0
  -29.0793  -19.1895   20.4271 C   0  0  0  0  0  0
  -31.2699  -21.7419   19.9588 C   0  0  0  0  0  0
  -27.3823  -23.2302   20.4215 N   0  0  0  0  0  0
  -29.5687  -23.5216   20.1009 N   0  0  0  0  0  0
  -29.6597  -16.7772   20.4566 N   0  0  0  0  0  0
  -31.4377  -13.1603   19.1861 H   0  0  0  0  0  0
  -30.5373  -12.0597   20.1784 H   0  0  0  0  0  0
  -29.9540  -11.7706   17.7439 H   0  0  0  0  0  0
  -29.5341  -13.4627   17.6265 H   0  0  0  0  0  0
  -28.0966  -11.2840   19.1578 H   0  0  0  0  0  0
  -27.4286  -12.2770   17.8864 H   0  0  0  0  0  0
  -27.4892  -14.2332   19.2793 H   0  0  0  0  0  0
  -28.8379  -12.6422   21.5130 H   0  0  0  0  0  0
  -28.2304  -14.2773   21.6530 H   0  0  0  0  0  0
  -25.2795   -9.5675   22.4761 H   0  0  0  0  0  0
  -24.0020   -7.4635   22.7471 H   0  0  0  0  0  0
  -21.0870   -8.8801   19.8954 H   0  0  0  0  0  0
  -22.3751  -10.9680   19.6163 H   0  0  0  0  0  0
  -21.2013   -7.6157   23.9728 H   0  0  0  0  0  0
  -21.1467   -6.0523   25.9079 H   0  0  0  0  0  0
  -22.0599   -2.7622   23.2846 H   0  0  0  0  0  0
  -22.4041  -11.9814   22.4850 H   0  0  0  0  0  0
  -21.1014  -13.1147   22.2686 H   0  0  0  0  0  0
  -24.6479  -15.8621   20.5779 H   0  0  0  0  0  0
  -26.2710  -15.6469   20.1569 H   0  0  0  0  0  0
  -26.7413  -32.5023   23.0802 H   0  0  0  0  0  0
  -25.0134  -33.9409   25.0160 H   0  0  0  0  0  0
  -22.8084  -31.2486   21.3285 H   0  0  0  0  0  0
  -23.3701  -35.9560   23.3461 H   0  0  0  0  0  0
  -24.3512  -36.8670   22.2045 H   0  0  0  0  0  0
  -23.7340  -37.6438   23.6629 H   0  0  0  0  0  0
  -26.2521  -31.3091   20.6175 H   0  0  0  0  0  0
  -26.9208  -30.6483   22.0652 H   0  0  0  0  0  0
  -28.1543  -28.4979   21.2914 H   0  0  0  0  0  0
  -25.8721  -25.6573   19.0137 H   0  0  0  0  0  0
  -24.0170  -27.2231   18.9531 H   0  0  0  0  0  0
  -23.9019  -30.4752   19.3784 H   0  0  0  0  0  0
  -22.8448  -29.1743   19.8272 H   0  0  0  0  0  0
  -25.1377  -36.1717   25.0789 H   0  0  0  0  0  0
  -21.0044  -28.3365   24.1299 H   0  0  0  0  0  0
  -20.5665  -26.2374   23.3648 H   0  0  0  0  0  0
  -21.6653  -26.7386   22.1216 H   0  0  0  0  0  0
  -19.6917  -25.6275   21.1278 H   0  0  0  0  0  0
  -19.6720  -27.3160   20.6721 H   0  0  0  0  0  0
  -17.4225  -26.6702   21.4023 H   0  0  0  0  0  0
  -18.0338  -26.0117   22.9036 H   0  0  0  0  0  0
  -19.7969  -30.7354   24.2156 H   0  0  0  0  0  0
  -17.5031  -31.6270   24.5162 H   0  0  0  0  0  0
  -15.5369  -30.2949   23.7730 H   0  0  0  0  0  0
  -15.8714  -28.0806   22.7104 H   0  0  0  0  0  0
  -24.5890  -30.7151   25.7625 H   0  0  0  0  0  0
  -24.8875  -32.3033   26.4580 H   0  0  0  0  0  0
  -25.7911  -30.9085   27.0198 H   0  0  0  0  0  0
  -26.3180  -29.6530   24.1466 H   0  0  0  0  0  0
  -27.3940  -29.7269   25.5192 H   0  0  0  0  0  0
  -27.9163  -30.4018   23.9984 H   0  0  0  0  0  0
  -27.2590  -33.3718   26.1909 H   0  0  0  0  0  0
  -28.3939  -32.6858   25.0376 H   0  0  0  0  0  0
  -28.0643  -31.8615   26.5536 H   0  0  0  0  0  0
  -28.2687  -37.9918   24.7278 H   0  0  0  0  0  0
  -28.0860  -36.2440   24.6706 H   0  0  0  0  0  0
  -27.2196  -37.1892   25.8899 H   0  0  0  0  0  0
  -20.9643  -29.8668   21.6581 H   0  0  0  0  0  0
  -26.0144  -38.2734   24.1211 H   0  0  0  0  0  0
  -26.7086  -21.2434   20.6246 H   0  0  0  0  0  0
  -30.1746  -18.0899   18.7209 H   0  0  0  0  0  0
  -28.4576  -17.6907   18.7981 H   0  0  0  0  0  0
  -29.8151  -18.0596   22.2910 H   0  0  0  0  0  0
  -31.1058  -18.3449   21.1253 H   0  0  0  0  0  0
  -28.0905  -18.9723   20.8345 H   0  0  0  0  0  0
  -31.7991  -21.8316   20.9076 H   0  0  0  0  0  0
  -31.7502  -22.3990   19.2331 H   0  0  0  0  0  0
  -31.3799  -20.7176   19.6031 H   0  0  0  0  0  0
  1 25  1  0  0  0
  1 30  2  0  0  0
  1 81  1  0  0  0
  2  3  1  0  0  0
  2 25  1  0  0  0
  2 82  1  0  0  0
  2 83  1  0  0  0
  3  4  1  0  0  0
  3 84  1  0  0  0
  3 85  1  0  0  0
  4  5  1  0  0  0
  4 86  1  0  0  0
  4 87  1  0  0  0
  5  6  1  0  0  0
  5 26  1  0  0  0
  5 88  1  0  0  0
  6 25  1  0  0  0
  6 89  1  0  0  0
  6 90  1  0  0  0
  7  8  2  0  0  0
  7 26  1  0  0  0
  7 29  1  0  0  0
  8  9  1  0  0  0
  8 22  1  0  0  0
  9 10  1  0  0  0
  9 27  2  0  0  0
 10 11  2  0  0  0
 10 15  1  0  0  0
 11 12  1  0  0  0
 11 91  1  0  0  0
 12 13  2  0  0  0
 12 92  1  0  0  0
 13 14  1  0  0  0
 13 31  1  0  0  0
 14 15  2  0  0  0
 14 93  1  0  0  0
 15 94  1  0  0  0
 16 17  2  0  0  0
 16 21  1  0  0  0
 16 31  1  0  0  0
 17 18  1  0  0  0
 17 95  1  0  0  0
 18 19  2  0  0  0
 18 96  1  0  0  0
 19 20  1  0  0  0
 19 24  1  0  0  0
 20 21  2  0  0  0
 20 97  1  0  0  0
 21 23  1  0  0  0
 22 28  1  0  0  0
 22 32  2  0  0  0
 26 27  1  0  0  0
 28 98  1  0  0  0
 28 99  1  0  0  0
 29100  1  0  0  0
 29101  1  0  0  0
 33 34  1  0  0  0
 33 66  1  0  0  0
 33 70  2  0  0  0
 34 36  1  0  0  0
 34 59  1  0  0  0
 34102  1  0  0  0
 35 44  2  0  0  0
 35 45  1  0  0  0
 35 68  1  0  0  0
 36 56  1  0  0  0
 36103  1  0  0  0
 37 39  1  0  0  0
 37 47  1  0  0  0
 37 66  1  0  0  0
 37104  1  0  0  0
 38 43  2  0  0  0
 38 46  1  0  0  0
 38 47  1  0  0  0
 39 64  1  0  0  0
 39 67  2  0  0  0
 40 52  1  0  0  0
 40 53  2  0  0  0
 40 58  1  0  0  0
 41105  1  0  0  0
 41106  1  0  0  0
 41107  1  0  0  0
 41 48  1  0  0  0
 42 43  1  0  0  0
 42 66  1  0  0  0
 42108  1  0  0  0
 42109  1  0  0  0
 43 44  1  0  0  0
 44110  1  0  0  0
 45 46  2  0  0  0
 45111  1  0  0  0
 46112  1  0  0  0
 47113  1  0  0  0
 47114  1  0  0  0
 48 56  1  0  0  0
 48 65  1  0  0  0
 48115  1  0  0  0
 49 50  1  0  0  0
 49 53  1  0  0  0
 49 64  1  0  0  0
 49116  1  0  0  0
 50 51  1  0  0  0
 50117  1  0  0  0
 50118  1  0  0  0
 51 52  1  0  0  0
 51119  1  0  0  0
 51120  1  0  0  0
 52121  1  0  0  0
 52122  1  0  0  0
 53 54  1  0  0  0
 54 55  2  0  0  0
 54123  1  0  0  0
 55 57  1  0  0  0
 55124  1  0  0  0
 56 69  2  0  0  0
 57 58  2  0  0  0
 57125  1  0  0  0
 58126  1  0  0  0
 59 60  1  0  0  0
 59 61  1  0  0  0
 59 62  1  0  0  0
 60127  1  0  0  0
 60128  1  0  0  0
 60129  1  0  0  0
 61130  1  0  0  0
 61131  1  0  0  0
 61132  1  0  0  0
 62133  1  0  0  0
 62134  1  0  0  0
 62135  1  0  0  0
 63 65  1  0  0  0
 63136  1  0  0  0
 63137  1  0  0  0
 63138  1  0  0  0
 64139  1  0  0  0
 65140  1  0  0  0
 68 74  1  0  0  0
 71 72  2  0  0  0
 71 79  1  0  0  0
 71141  1  0  0  0
 72 73  1  0  0  0
 72 77  1  0  0  0
 73 78  1  0  0  0
 73 80  2  0  0  0
 74 79  2  0  0  0
 74 80  1  0  0  0
 75 77  1  0  0  0
 75 81  1  0  0  0
 75142  1  0  0  0
 75143  1  0  0  0
 76 77  1  0  0  0
 76 81  1  0  0  0
 76144  1  0  0  0
 76145  1  0  0  0
 77146  1  0  0  0
 78147  1  0  0  0
 78148  1  0  0  0
 78149  1  0  0  0
M  ISO  4   1 100  68 101  74 101  81 100
M  END
> <chiral flag>
0

> <version>
0

> <s_m_source_file>
/data/baiqing/PycharmProjects/Reinvent-master-3.2/result/LINK_invent/BTK/process_docking_weight1_custom_sum_contain_oxygen_bond_distance_aromatic_linkinvent_7_9_3/rearranged_h_0187.sdf

> <i_m_source_file_index>
74

> <r_mmod_Potential_Energy-OPLS-2005>
1290.275390625

> <r_mmod_Stretch_Energy-OPLS-2005>
609.068969726562

> <r_mmod_Bend_Energy-OPLS-2005>
578.932678222656

> <r_mmod_Torsional_Energy-OPLS-2005>
260.767242431641

> <r_mmod_Improper_Torsional_Energy-OPLS-2005>
9.90229415893555

> <r_mmod_Van_der_Waal_Energy-OPLS-2005>
131.659652709961

> <r_mmod_Electrostatic_Energy-OPLS-2005>
-707.337829589844

> <r_mmod_Solvation_Energy-OPLS-2005>
-224.306365966797

> <b_mmod_Minimization_Converged-OPLS-2005>
0

> <r_mmod_RMS_Derivative-OPLS-2005>
1.39516592025757

$$$$
74
                    3D
 Structure written by MMmdl.
168177  0  0  1  0            999 V2000
  -30.6234  -14.7435   20.4296 C   0  0  0  0  0  0
  -30.4217  -12.4453   19.4831 C   0  0  0  0  0  0
  -29.5101  -12.5036   18.2372 C   0  0  0  0  0  0
  -28.0318  -12.3399   18.6435 C   0  0  0  0  0  0
  -27.6364  -13.2388   19.8464 C   0  0  2  0  0  0
  -28.6793  -13.1854   20.9838 C   0  0  0  0  0  0
  -25.2471  -13.8209   20.5710 C   0  0  0  0  0  0
  -24.1774  -13.0446   20.9235 C   0  0  0  0  0  0
  -24.6371  -11.6929   20.8734 C   0  0  0  0  0  0
  -23.9049  -10.4296   21.0389 C   0  0  0  0  0  0
  -24.3607   -9.4221   21.9175 C   0  0  0  0  0  0
  -23.6293   -8.2246   22.0752 C   0  0  0  0  0  0
  -22.4271   -8.0277   21.3548 C   0  0  0  0  0  0
  -21.9891   -9.0245   20.4659 C   0  0  0  0  0  0
  -22.7209  -10.2132   20.3053 C   0  0  0  0  0  0
  -21.6855   -6.0728   22.5269 C   0  0  0  0  0  0
  -21.4031   -6.5638   23.8202 C   0  0  0  0  0  0
  -21.3662   -5.6787   24.9163 C   0  0  0  0  0  0
  -21.6033   -4.3046   24.7210 C   0  0  0  0  0  0
  -21.8820   -3.8141   23.4330 C   0  0  0  0  0  0
  -21.9200   -4.6960   22.3389 C   0  0  0  0  0  0
  -22.7797  -13.5223   21.1883 C   0  0  0  0  0  0
  -22.1668   -4.2145   21.0966 F   0  0  0  0  0  0
  -21.5617   -3.4534   25.7726 F   0  0  0  0  0  0
  -29.9809  -13.5244   20.3988 N   0  0  0  0  0  0
  -26.2900  -12.9436   20.3260 N   0  0  0  0  0  0
  -25.9306  -11.6574   20.5740 N   0  0  0  0  0  0
  -22.0438  -12.8223   22.0435 N   0  0  0  0  0  0
  -25.4147  -15.1932   20.4122 N   0  0  0  0  0  0
  -31.8327  -14.7729   20.1816 O   0  0  0  0  0  0
  -21.6653   -6.8861   21.4226 O   0  0  0  0  0  0
  -22.3479  -14.5524   20.6721 O   0  0  0  0  0  0
  -24.6319  -31.8546   23.1986 C   0  0  0  0  0  0
  -25.9147  -32.4745   23.8319 C   0  0  1  0  0  0
  -27.2186  -27.2564   20.1077 C   0  0  0  0  0  0
  -25.5939  -33.8546   24.2239 N   0  0  0  0  0  0
  -23.4270  -30.4773   21.5444 C   0  0  2  0  0  0
  -24.8698  -28.9226   20.1119 C   0  0  0  0  0  0
  -22.7496  -29.4588   22.4934 C   0  0  0  0  0  0
  -18.0287  -28.1388   22.8490 C   0  0  0  0  0  0
  -24.1490  -36.7279   23.2636 C   0  0  0  0  0  0
  -25.9741  -30.7629   21.3787 C   0  0  0  0  0  0
  -26.0431  -29.3862   20.7170 C   0  0  0  0  0  0
  -27.2158  -28.5647   20.7053 C   0  0  0  0  0  0
  -26.0132  -26.8598   19.4836 C   0  0  0  0  0  0
  -24.8595  -27.6660   19.4906 C   0  0  0  0  0  0
  -23.6440  -29.8126   20.1602 C   0  0  0  0  0  0
  -25.4115  -36.3057   24.0317 C   0  0  1  0  0  0
  -20.5892  -28.3681   23.1291 C   0  0  2  0  0  0
  -20.6780  -26.9405   22.5413 C   0  0  0  0  0  0
  -19.5753  -26.6384   21.5218 C   0  0  0  0  0  0
  -18.1934  -26.7932   22.1629 C   0  0  0  0  0  0
  -19.1544  -28.8852   23.2883 C   0  0  0  0  0  0
  -18.9463  -30.1459   23.8888 C   0  0  0  0  0  0
  -17.6462  -30.6589   24.0563 C   0  0  0  0  0  0
  -25.9058  -34.9432   23.5080 C   0  0  0  0  0  0
  -16.5351  -29.9082   23.6340 C   0  0  0  0  0  0
  -16.7274  -28.6505   23.0350 C   0  0  0  0  0  0
  -26.4500  -31.6580   25.0719 C   0  0  0  0  0  0
  -25.3724  -31.3750   26.1448 C   0  0  0  0  0  0
  -27.0348  -30.2993   24.6222 C   0  0  0  0  0  0
  -27.6035  -32.4330   25.7505 C   0  0  0  0  0  0
  -27.5578  -37.1794   24.8457 C   0  0  0  0  0  0
  -21.4202  -29.3032   22.3684 N   0  0  0  0  0  0
  -26.4281  -37.3762   23.9412 N   0  0  0  0  0  0
  -24.6973  -31.0496   22.0963 N   0  0  0  0  0  0
  -23.4199  -28.8127   23.3031 O   0  0  0  0  0  0
  -28.3437  -26.3974   20.1724 O   0  0  0  0  0  0
  -26.5632  -34.8911   22.4650 O   0  0  0  0  0  0
  -23.5470  -32.1362   23.7275 O   0  0  0  0  0  0
  -31.1644  -17.4925   19.1410 C   0  0  0  0  0  0
  -31.5583  -18.7617   18.6934 C   0  0  0  0  0  0
  -30.9124  -19.9189   19.1959 C   0  0  0  0  0  0
  -29.8294  -19.7601   20.1051 C   0  0  0  0  0  0
  -30.1628  -17.3114   20.1147 C   0  0  0  0  0  0
  -31.4246  -21.2879   18.7347 C   0  0  0  0  0  0
  -32.7123  -18.8384   17.6933 C   0  0  0  0  0  0
  -32.8081  -21.2392   18.0654 C   0  0  0  0  0  0
  -34.1461  -19.1947   15.0837 C   0  0  0  0  0  0
  -29.0921  -21.0443   20.7294 C   0  0  0  0  0  0
  -34.0400  -20.2913   16.1591 C   0  0  0  0  0  0
  -28.6329  -23.6902   20.5693 C   0  0  0  0  0  0
  -28.3918  -24.9898   19.6277 C   0  0  0  0  0  0
  -29.4987  -18.4679   20.5386 N   0  0  0  0  0  0
  -29.8691  -15.9141   20.5433 N   0  0  0  0  0  0
  -32.8530  -20.1652   17.0493 N   0  3  1  0  0  0
  -28.8527  -22.3143   19.8918 N   0  3  0  0  0  0
  -31.4690  -12.5454   19.1930 H   0  0  0  0  0  0
  -30.3463  -11.4742   19.9754 H   0  0  0  0  0  0
  -29.7892  -11.7272   17.5242 H   0  0  0  0  0  0
  -29.6501  -13.4547   17.7203 H   0  0  0  0  0  0
  -27.8748  -11.2913   18.8994 H   0  0  0  0  0  0
  -27.3801  -12.5441   17.7932 H   0  0  0  0  0  0
  -27.6256  -14.2592   19.4612 H   0  0  0  0  0  0
  -28.7108  -12.1948   21.4397 H   0  0  0  0  0  0
  -28.4160  -13.8817   21.7822 H   0  0  0  0  0  0
  -25.2745   -9.5725   22.4753 H   0  0  0  0  0  0
  -24.0024   -7.4633   22.7460 H   0  0  0  0  0  0
  -21.0825   -8.8743   19.8957 H   0  0  0  0  0  0
  -22.3643  -10.9666   19.6166 H   0  0  0  0  0  0
  -21.2044   -7.6150   23.9703 H   0  0  0  0  0  0
  -21.1481   -6.0521   25.9061 H   0  0  0  0  0  0
  -22.0603   -2.7606   23.2825 H   0  0  0  0  0  0
  -22.4057  -11.9906   22.4853 H   0  0  0  0  0  0
  -21.1047  -13.1243   22.2612 H   0  0  0  0  0  0
  -24.6421  -15.8416   20.5153 H   0  0  0  0  0  0
  -26.2549  -15.6318   20.0586 H   0  0  0  0  0  0
  -26.7205  -32.5384   23.1050 H   0  0  0  0  0  0
  -25.0084  -33.9679   25.0382 H   0  0  0  0  0  0
  -22.7233  -31.3001   21.4004 H   0  0  0  0  0  0
  -23.3750  -35.9612   23.3277 H   0  0  0  0  0  0
  -24.3580  -36.8930   22.2055 H   0  0  0  0  0  0
  -23.7246  -37.6472   23.6681 H   0  0  0  0  0  0
  -26.1170  -31.5252   20.6113 H   0  0  0  0  0  0
  -26.8496  -30.8069   22.0147 H   0  0  0  0  0  0
  -28.1146  -28.9183   21.1893 H   0  0  0  0  0  0
  -25.9022  -25.9066   18.9958 H   0  0  0  0  0  0
  -23.9559  -27.3019   19.0214 H   0  0  0  0  0  0
  -23.7769  -30.5908   19.4078 H   0  0  0  0  0  0
  -22.7602  -29.2521   19.8501 H   0  0  0  0  0  0
  -25.1298  -36.1889   25.0805 H   0  0  0  0  0  0
  -20.9969  -28.3251   24.1419 H   0  0  0  0  0  0
  -20.5699  -26.2277   23.3605 H   0  0  0  0  0  0
  -21.6652  -26.7451   22.1203 H   0  0  0  0  0  0
  -19.6913  -25.6294   21.1253 H   0  0  0  0  0  0
  -19.6701  -27.3194   20.6749 H   0  0  0  0  0  0
  -17.4205  -26.6675   21.4030 H   0  0  0  0  0  0
  -18.0331  -26.0078   22.9027 H   0  0  0  0  0  0
  -19.7935  -30.7288   24.2245 H   0  0  0  0  0  0
  -17.5011  -31.6271   24.5163 H   0  0  0  0  0  0
  -15.5350  -30.2976   23.7673 H   0  0  0  0  0  0
  -15.8675  -28.0824   22.7058 H   0  0  0  0  0  0
  -24.5882  -30.7107   25.7798 H   0  0  0  0  0  0
  -24.8937  -32.2932   26.4864 H   0  0  0  0  0  0
  -25.8051  -30.8943   27.0230 H   0  0  0  0  0  0
  -26.2937  -29.6741   24.1226 H   0  0  0  0  0  0
  -27.3995  -29.7261   25.4756 H   0  0  0  0  0  0
  -27.8830  -30.4258   23.9488 H   0  0  0  0  0  0
  -27.2615  -33.3628   26.2063 H   0  0  0  0  0  0
  -28.3864  -32.6895   25.0356 H   0  0  0  0  0  0
  -28.0674  -31.8470   26.5449 H   0  0  0  0  0  0
  -28.2575  -38.0111   24.7530 H   0  0  0  0  0  0
  -28.1099  -36.2647   24.6248 H   0  0  0  0  0  0
  -27.2305  -37.1399   25.8860 H   0  0  0  0  0  0
  -20.9372  -29.8746   21.6894 H   0  0  0  0  0  0
  -26.0153  -38.2829   24.1428 H   0  0  0  0  0  0
  -31.6822  -16.6431   18.7199 H   0  0  0  0  0  0
  -31.4965  -21.9654   19.5863 H   0  0  0  0  0  0
  -30.7102  -21.7151   18.0291 H   0  0  0  0  0  0
  -32.5438  -18.0743   16.9332 H   0  0  0  0  0  0
  -33.6385  -18.5774   18.2081 H   0  0  0  0  0  0
  -33.5893  -21.0694   18.8080 H   0  0  0  0  0  0
  -33.0184  -22.2082   17.6096 H   0  0  0  0  0  0
  -34.9631  -19.4166   14.3961 H   0  0  0  0  0  0
  -33.2298  -19.1164   14.4982 H   0  0  0  0  0  0
  -34.3617  -18.2188   15.5188 H   0  0  0  0  0  0
  -29.6788  -21.3321   21.6010 H   0  0  0  0  0  0
  -28.1289  -20.7182   21.1233 H   0  0  0  0  0  0
  -33.9962  -21.2598   15.6584 H   0  0  0  0  0  0
  -34.9523  -20.2999   16.7574 H   0  0  0  0  0  0
  -27.7910  -23.5978   21.2559 H   0  0  0  0  0  0
  -29.5040  -23.8925   21.1925 H   0  0  0  0  0  0
  -27.5613  -24.7672   18.9664 H   0  0  0  0  0  0
  -29.2396  -25.0169   18.9422 H   0  0  0  0  0  0
  -28.9273  -15.7715   20.8684 H   0  0  0  0  0  0
  -32.0319  -20.2879   16.4768 H   0  0  0  0  0  0
  -28.0666  -22.1109   19.2946 H   0  0  0  0  0  0
  -29.6532  -22.3875   19.2874 H   0  0  0  0  0  0
  1 25  1  0  0  0
  1 30  2  0  0  0
  1 85  1  0  0  0
  2  3  1  0  0  0
  2 25  1  0  0  0
  2 88  1  0  0  0
  2 89  1  0  0  0
  3  4  1  0  0  0
  3 90  1  0  0  0
  3 91  1  0  0  0
  4  5  1  0  0  0
  4 92  1  0  0  0
  4 93  1  0  0  0
  5  6  1  0  0  0
  5 26  1  0  0  0
  5 94  1  0  0  0
  6 25  1  0  0  0
  6 95  1  0  0  0
  6 96  1  0  0  0
  7  8  2  0  0  0
  7 26  1  0  0  0
  7 29  1  0  0  0
  8  9  1  0  0  0
  8 22  1  0  0  0
  9 10  1  0  0  0
  9 27  2  0  0  0
 10 11  2  0  0  0
 10 15  1  0  0  0
 11 12  1  0  0  0
 11 97  1  0  0  0
 12 13  2  0  0  0
 12 98  1  0  0  0
 13 14  1  0  0  0
 13 31  1  0  0  0
 14 15  2  0  0  0
 14 99  1  0  0  0
 15100  1  0  0  0
 16 17  2  0  0  0
 16 21  1  0  0  0
 16 31  1  0  0  0
 17 18  1  0  0  0
 17101  1  0  0  0
 18 19  2  0  0  0
 18102  1  0  0  0
 19 20  1  0  0  0
 19 24  1  0  0  0
 20 21  2  0  0  0
 20103  1  0  0  0
 21 23  1  0  0  0
 22 28  1  0  0  0
 22 32  2  0  0  0
 26 27  1  0  0  0
 28104  1  0  0  0
 28105  1  0  0  0
 29106  1  0  0  0
 29107  1  0  0  0
 33 34  1  0  0  0
 33 66  1  0  0  0
 33 70  2  0  0  0
 34 36  1  0  0  0
 34 59  1  0  0  0
 34108  1  0  0  0
 35 44  2  0  0  0
 35 45  1  0  0  0
 35 68  1  0  0  0
 36 56  1  0  0  0
 36109  1  0  0  0
 37 39  1  0  0  0
 37 47  1  0  0  0
 37 66  1  0  0  0
 37110  1  0  0  0
 38 43  2  0  0  0
 38 46  1  0  0  0
 38 47  1  0  0  0
 39 64  1  0  0  0
 39 67  2  0  0  0
 40 52  1  0  0  0
 40 53  2  0  0  0
 40 58  1  0  0  0
 41111  1  0  0  0
 41112  1  0  0  0
 41113  1  0  0  0
 41 48  1  0  0  0
 42 43  1  0  0  0
 42 66  1  0  0  0
 42114  1  0  0  0
 42115  1  0  0  0
 43 44  1  0  0  0
 44116  1  0  0  0
 45 46  2  0  0  0
 45117  1  0  0  0
 46118  1  0  0  0
 47119  1  0  0  0
 47120  1  0  0  0
 48 56  1  0  0  0
 48 65  1  0  0  0
 48121  1  0  0  0
 49 50  1  0  0  0
 49 53  1  0  0  0
 49 64  1  0  0  0
 49122  1  0  0  0
 50 51  1  0  0  0
 50123  1  0  0  0
 50124  1  0  0  0
 51 52  1  0  0  0
 51125  1  0  0  0
 51126  1  0  0  0
 52127  1  0  0  0
 52128  1  0  0  0
 53 54  1  0  0  0
 54 55  2  0  0  0
 54129  1  0  0  0
 55 57  1  0  0  0
 55130  1  0  0  0
 56 69  2  0  0  0
 57 58  2  0  0  0
 57131  1  0  0  0
 58132  1  0  0  0
 59 60  1  0  0  0
 59 61  1  0  0  0
 59 62  1  0  0  0
 60133  1  0  0  0
 60134  1  0  0  0
 60135  1  0  0  0
 61136  1  0  0  0
 61137  1  0  0  0
 61138  1  0  0  0
 62139  1  0  0  0
 62140  1  0  0  0
 62141  1  0  0  0
 63 65  1  0  0  0
 63142  1  0  0  0
 63143  1  0  0  0
 63144  1  0  0  0
 64145  1  0  0  0
 65146  1  0  0  0
 68 83  1  0  0  0
 71 72  2  0  0  0
 71 75  1  0  0  0
 71147  1  0  0  0
 72 73  1  0  0  0
 72 77  1  0  0  0
 73 74  2  0  0  0
 73 76  1  0  0  0
 74 80  1  0  0  0
 74 84  1  0  0  0
 75 84  2  0  0  0
 75 85  1  0  0  0
 76 78  1  0  0  0
 76148  1  0  0  0
 76149  1  0  0  0
 77 86  1  0  0  0
 77150  1  0  0  0
 77151  1  0  0  0
 78 86  1  0  0  0
 78152  1  0  0  0
 78153  1  0  0  0
 79 81  1  0  0  0
 79154  1  0  0  0
 79155  1  0  0  0
 79156  1  0  0  0
 80 87  1  0  0  0
 80157  1  0  0  0
 80158  1  0  0  0
 81159  1  0  0  0
 81160  1  0  0  0
 81 86  1  0  0  0
 82 83  1  0  0  0
 82 87  1  0  0  0
 82161  1  0  0  0
 82162  1  0  0  0
 83163  1  0  0  0
 83164  1  0  0  0
 85165  1  0  0  0
 86166  1  0  0  0
 87167  1  0  0  0
 87168  1  0  0  0
M  CHG  2  86   1  87   1
M  ISO  4   1 100  68 101  83 101  85 100
M  END
> <chiral flag>
0

> <version>
0

> <s_m_source_file>
/data/baiqing/PycharmProjects/Reinvent-master-3.2/result/LINK_invent/BTK/process_docking_weight1_custom_sum_contain_oxygen_bond_distance_aromatic_linkinvent_7_9_3/rearranged_h_0187.sdf

> <i_m_source_file_index>
75

> <r_mmod_Potential_Energy-OPLS-2005>
-304.034912109375

> <r_mmod_Stretch_Energy-OPLS-2005>
135.034576416016

> <r_mmod_Bend_Energy-OPLS-2005>
185.952896118164

> <r_mmod_Torsional_Energy-OPLS-2005>
237.50373840332

> <r_mmod_Improper_Torsional_Energy-OPLS-2005>
4.93989515304565

> <r_mmod_Van_der_Waal_Energy-OPLS-2005>
159.186599731445

> <r_mmod_Electrostatic_Energy-OPLS-2005>
-150.248519897461

> <r_mmod_Solvation_Energy-OPLS-2005>
-961.32666015625

> <b_mmod_Minimization_Converged-OPLS-2005>
0

> <r_mmod_RMS_Derivative-OPLS-2005>
2.16770315170288

$$$$
75
                    3D
 Structure written by MMmdl.
163172  0  0  1  0            999 V2000
  -30.5738  -14.8654   20.4381 C   0  0  0  0  0  0
  -30.4332  -12.5329   19.4890 C   0  0  0  0  0  0
  -29.5148  -12.5232   18.2467 C   0  0  0  0  0  0
  -28.0446  -12.3272   18.6624 C   0  0  0  0  0  0
  -27.6339  -13.2454   19.8446 C   0  0  2  0  0  0
  -28.6771  -13.2373   20.9812 C   0  0  0  0  0  0
  -25.2485  -13.8220   20.5727 C   0  0  0  0  0  0
  -24.1785  -13.0446   20.9214 C   0  0  0  0  0  0
  -24.6393  -11.6927   20.8743 C   0  0  0  0  0  0
  -23.9073  -10.4298   21.0400 C   0  0  0  0  0  0
  -24.3623   -9.4213   21.9178 C   0  0  0  0  0  0
  -23.6303   -8.2246   22.0748 C   0  0  0  0  0  0
  -22.4284   -8.0280   21.3542 C   0  0  0  0  0  0
  -21.9916   -9.0253   20.4641 C   0  0  0  0  0  0
  -22.7242  -10.2137   20.3049 C   0  0  0  0  0  0
  -21.6854   -6.0738   22.5281 C   0  0  0  0  0  0
  -21.4014   -6.5641   23.8214 C   0  0  0  0  0  0
  -21.3663   -5.6795   24.9177 C   0  0  0  0  0  0
  -21.6044   -4.3058   24.7227 C   0  0  0  0  0  0
  -21.8819   -3.8149   23.4348 C   0  0  0  0  0  0
  -21.9193   -4.6965   22.3405 C   0  0  0  0  0  0
  -22.7808  -13.5219   21.1878 C   0  0  0  0  0  0
  -22.1661   -4.2148   21.0983 F   0  0  0  0  0  0
  -21.5630   -3.4541   25.7739 F   0  0  0  0  0  0
  -29.9621  -13.6214   20.3866 N   0  0  0  0  0  0
  -26.2910  -12.9445   20.3282 N   0  0  0  0  0  0
  -25.9327  -11.6573   20.5744 N   0  0  0  0  0  0
  -22.0464  -12.8202   22.0436 N   0  0  0  0  0  0
  -25.4195  -15.1944   20.4191 N   0  0  0  0  0  0
  -31.7734  -14.9324   20.1487 O   0  0  0  0  0  0
  -21.6645   -6.8880   21.4241 O   0  0  0  0  0  0
  -22.3482  -14.5524   20.6730 O   0  0  0  0  0  0
  -24.6406  -31.8466   23.1914 C   0  0  0  0  0  0
  -25.9195  -32.4702   23.8285 C   0  0  1  0  0  0
  -27.2117  -27.1652   20.1417 C   0  0  0  0  0  0
  -25.5954  -33.8510   24.2198 N   0  0  0  0  0  0
  -23.4416  -30.4695   21.5362 C   0  0  2  0  0  0
  -24.8893  -28.9053   20.1080 C   0  0  0  0  0  0
  -22.7547  -29.4565   22.4861 C   0  0  0  0  0  0
  -18.0301  -28.1391   22.8470 C   0  0  0  0  0  0
  -24.1498  -36.7265   23.2643 C   0  0  0  0  0  0
  -25.9968  -30.7291   21.3876 C   0  0  0  0  0  0
  -26.0665  -29.3449   20.7267 C   0  0  0  0  0  0
  -27.2286  -28.4896   20.7302 C   0  0  0  0  0  0
  -26.0083  -26.8256   19.4813 C   0  0  0  0  0  0
  -24.8715  -27.6575   19.4709 C   0  0  0  0  0  0
  -23.6658  -29.8041   20.1533 C   0  0  0  0  0  0
  -25.4126  -36.3034   24.0317 C   0  0  1  0  0  0
  -20.5912  -28.3718   23.1233 C   0  0  2  0  0  0
  -20.6789  -26.9425   22.5399 C   0  0  0  0  0  0
  -19.5770  -26.6376   21.5204 C   0  0  0  0  0  0
  -18.1947  -26.7931   22.1611 C   0  0  0  0  0  0
  -19.1557  -28.8872   23.2845 C   0  0  0  0  0  0
  -18.9478  -30.1467   23.8873 C   0  0  0  0  0  0
  -17.6478  -30.6590   24.0559 C   0  0  0  0  0  0
  -25.9074  -34.9410   23.5062 C   0  0  0  0  0  0
  -16.5366  -29.9087   23.6335 C   0  0  0  0  0  0
  -16.7284  -28.6504   23.0352 C   0  0  0  0  0  0
  -26.4524  -31.6562   25.0719 C   0  0  0  0  0  0
  -25.3713  -31.3754   26.1419 C   0  0  0  0  0  0
  -27.0387  -30.2952   24.6299 C   0  0  0  0  0  0
  -27.6053  -32.4328   25.7503 C   0  0  0  0  0  0
  -27.5577  -37.1786   24.8461 C   0  0  0  0  0  0
  -21.4242  -29.3049   22.3609 N   0  0  0  0  0  0
  -26.4287  -37.3744   23.9408 N   0  0  0  0  0  0
  -24.7124  -31.0354   22.0932 N   0  0  0  0  0  0
  -23.4206  -28.8107   23.2995 O   0  0  0  0  0  0
  -28.2637  -26.1875   20.2205 O   0  0  0  0  0  0
  -26.5655  -34.8903   22.4640 O   0  0  0  0  0  0
  -23.5531  -32.1332   23.7150 O   0  0  0  0  0  0
  -28.8001  -22.2246   21.2798 C   0  0  0  0  0  0
  -28.5432  -22.7983   22.5598 C   0  0  0  0  0  0
  -28.9482  -20.7283   21.3201 C   0  0  0  0  0  0
  -28.3977  -20.7674   23.5694 C   0  0  0  0  0  0
  -29.5054  -17.0683   19.5484 C   0  0  0  0  0  0
  -30.2325  -17.2718   21.4014 C   0  0  0  0  0  0
  -29.1759  -18.1497   20.6385 C   0  0  0  0  0  0
  -28.5542  -24.2911   22.8521 C   0  0  0  0  0  0
  -26.5577  -19.6396   24.8955 C   0  0  0  0  0  0
  -28.9348  -23.3270   20.0991 C   0  0  0  0  0  0
  -28.0564  -19.9566   24.8064 C   0  0  0  0  0  0
  -27.9721  -24.6971   19.9424 C   0  0  0  0  0  0
  -28.3192  -22.0753   23.6644 N   0  0  0  0  0  0
  -28.7007  -20.0973   22.4793 N   0  0  0  0  0  0
  -29.8109  -16.0431   20.6203 N   0  0  0  0  0  0
  -29.3623  -19.6823   20.3841 N   0  0  0  0  0  0
  -31.4717  -12.6710   19.1844 H   0  0  0  0  0  0
  -30.3988  -11.5709   20.0025 H   0  0  0  0  0  0
  -29.8175  -11.7348   17.5561 H   0  0  0  0  0  0
  -29.6205  -13.4639   17.7041 H   0  0  0  0  0  0
  -27.9221  -11.2820   18.9483 H   0  0  0  0  0  0
  -27.3834  -12.4877   17.8099 H   0  0  0  0  0  0
  -27.6101  -14.2576   19.4392 H   0  0  0  0  0  0
  -28.7417  -12.2551   21.4515 H   0  0  0  0  0  0
  -28.3943  -13.9413   21.7655 H   0  0  0  0  0  0
  -25.2766   -9.5694   22.4756 H   0  0  0  0  0  0
  -24.0013   -7.4637   22.7468 H   0  0  0  0  0  0
  -21.0848   -8.8769   19.8951 H   0  0  0  0  0  0
  -22.3693  -10.9673   19.6160 H   0  0  0  0  0  0
  -21.2004   -7.6149   23.9720 H   0  0  0  0  0  0
  -21.1486   -6.0524   25.9082 H   0  0  0  0  0  0
  -22.0595   -2.7609   23.2848 H   0  0  0  0  0  0
  -22.4090  -11.9862   22.4814 H   0  0  0  0  0  0
  -21.1078  -13.1204   22.2647 H   0  0  0  0  0  0
  -24.6607  -15.8548   20.5458 H   0  0  0  0  0  0
  -26.2886  -15.6351   20.1449 H   0  0  0  0  0  0
  -26.7259  -32.5311   23.1012 H   0  0  0  0  0  0
  -25.0081  -33.9632   25.0331 H   0  0  0  0  0  0
  -22.7428  -31.2950   21.3850 H   0  0  0  0  0  0
  -23.3755  -35.9599   23.3287 H   0  0  0  0  0  0
  -24.3587  -36.8912   22.2060 H   0  0  0  0  0  0
  -23.7256  -37.6460   23.6690 H   0  0  0  0  0  0
  -26.1526  -31.4870   20.6187 H   0  0  0  0  0  0
  -26.8673  -30.7733   22.0306 H   0  0  0  0  0  0
  -28.1236  -28.8189   21.2390 H   0  0  0  0  0  0
  -25.9000  -25.8757   18.9809 H   0  0  0  0  0  0
  -23.9738  -27.3156   18.9742 H   0  0  0  0  0  0
  -23.8002  -30.5810   19.3997 H   0  0  0  0  0  0
  -22.7810  -29.2460   19.8414 H   0  0  0  0  0  0
  -25.1312  -36.1858   25.0809 H   0  0  0  0  0  0
  -21.0001  -28.3306   24.1355 H   0  0  0  0  0  0
  -20.5673  -26.2335   23.3617 H   0  0  0  0  0  0
  -21.6660  -26.7431   22.1207 H   0  0  0  0  0  0
  -19.6940  -25.6276   21.1257 H   0  0  0  0  0  0
  -19.6716  -27.3166   20.6719 H   0  0  0  0  0  0
  -17.4218  -26.6663   21.4015 H   0  0  0  0  0  0
  -18.0356  -26.0077   22.9013 H   0  0  0  0  0  0
  -19.7957  -30.7284   24.2233 H   0  0  0  0  0  0
  -17.5036  -31.6270   24.5161 H   0  0  0  0  0  0
  -15.5368  -30.2986   23.7678 H   0  0  0  0  0  0
  -15.8680  -28.0820   22.7084 H   0  0  0  0  0  0
  -24.5890  -30.7106   25.7739 H   0  0  0  0  0  0
  -24.8914  -32.2945   26.4793 H   0  0  0  0  0  0
  -25.8000  -30.8955   27.0227 H   0  0  0  0  0  0
  -26.3005  -29.6670   24.1303 H   0  0  0  0  0  0
  -27.3988  -29.7255   25.4875 H   0  0  0  0  0  0
  -27.8918  -30.4178   23.9623 H   0  0  0  0  0  0
  -27.2638  -33.3639   26.2037 H   0  0  0  0  0  0
  -28.3888  -32.6870   25.0353 H   0  0  0  0  0  0
  -28.0697  -31.8485   26.5456 H   0  0  0  0  0  0
  -28.2577  -38.0099   24.7505 H   0  0  0  0  0  0
  -28.1086  -36.2623   24.6279 H   0  0  0  0  0  0
  -27.2297  -37.1425   25.8865 H   0  0  0  0  0  0
  -20.9440  -29.8771   21.6804 H   0  0  0  0  0  0
  -26.0149  -38.2811   24.1407 H   0  0  0  0  0  0
  -30.3646  -17.3140   18.9186 H   0  0  0  0  0  0
  -28.6457  -16.8194   18.9248 H   0  0  0  0  0  0
  -30.0370  -17.2104   22.4728 H   0  0  0  0  0  0
  -31.2700  -17.5709   21.2279 H   0  0  0  0  0  0
  -28.1768  -17.9682   21.0404 H   0  0  0  0  0  0
  -29.3488  -24.8021   22.3095 H   0  0  0  0  0  0
  -28.7350  -24.4829   23.9105 H   0  0  0  0  0  0
  -27.5949  -24.7452   22.6096 H   0  0  0  0  0  0
  -26.3360  -19.0412   25.7788 H   0  0  0  0  0  0
  -26.2255  -19.0832   24.0192 H   0  0  0  0  0  0
  -25.9701  -20.5562   24.9527 H   0  0  0  0  0  0
  -28.7944  -22.7492   19.1846 H   0  0  0  0  0  0
  -29.9784  -23.6396   20.0583 H   0  0  0  0  0  0
  -28.3753  -20.5001   25.6968 H   0  0  0  0  0  0
  -28.6301  -19.0289   24.7989 H   0  0  0  0  0  0
  -27.0072  -24.4506   20.3867 H   0  0  0  0  0  0
  -27.7704  -24.7152   18.8709 H   0  0  0  0  0  0
  -29.5709  -19.9808   19.4375 H   0  0  0  0  0  0
  1 25  1  0  0  0
  1 30  2  0  0  0
  1 85  1  0  0  0
  2  3  1  0  0  0
  2 25  1  0  0  0
  2 87  1  0  0  0
  2 88  1  0  0  0
  3  4  1  0  0  0
  3 89  1  0  0  0
  3 90  1  0  0  0
  4  5  1  0  0  0
  4 91  1  0  0  0
  4 92  1  0  0  0
  5  6  1  0  0  0
  5 26  1  0  0  0
  5 93  1  0  0  0
  6 25  1  0  0  0
  6 94  1  0  0  0
  6 95  1  0  0  0
  7  8  2  0  0  0
  7 26  1  0  0  0
  7 29  1  0  0  0
  8  9  1  0  0  0
  8 22  1  0  0  0
  9 10  1  0  0  0
  9 27  2  0  0  0
 10 11  2  0  0  0
 10 15  1  0  0  0
 11 12  1  0  0  0
 11 96  1  0  0  0
 12 13  2  0  0  0
 12 97  1  0  0  0
 13 14  1  0  0  0
 13 31  1  0  0  0
 14 15  2  0  0  0
 14 98  1  0  0  0
 15 99  1  0  0  0
 16 17  2  0  0  0
 16 21  1  0  0  0
 16 31  1  0  0  0
 17 18  1  0  0  0
 17100  1  0  0  0
 18 19  2  0  0  0
 18101  1  0  0  0
 19 20  1  0  0  0
 19 24  1  0  0  0
 20 21  2  0  0  0
 20102  1  0  0  0
 21 23  1  0  0  0
 22 28  1  0  0  0
 22 32  2  0  0  0
 26 27  1  0  0  0
 28103  1  0  0  0
 28104  1  0  0  0
 29105  1  0  0  0
 29106  1  0  0  0
 33 34  1  0  0  0
 33 66  1  0  0  0
 33 70  2  0  0  0
 34 36  1  0  0  0
 34 59  1  0  0  0
 34107  1  0  0  0
 35 44  2  0  0  0
 35 45  1  0  0  0
 35 68  1  0  0  0
 36 56  1  0  0  0
 36108  1  0  0  0
 37 39  1  0  0  0
 37 47  1  0  0  0
 37 66  1  0  0  0
 37109  1  0  0  0
 38 43  2  0  0  0
 38 46  1  0  0  0
 38 47  1  0  0  0
 39 64  1  0  0  0
 39 67  2  0  0  0
 40 52  1  0  0  0
 40 53  2  0  0  0
 40 58  1  0  0  0
 41110  1  0  0  0
 41111  1  0  0  0
 41112  1  0  0  0
 41 48  1  0  0  0
 42 43  1  0  0  0
 42 66  1  0  0  0
 42113  1  0  0  0
 42114  1  0  0  0
 43 44  1  0  0  0
 44115  1  0  0  0
 45 46  2  0  0  0
 45116  1  0  0  0
 46117  1  0  0  0
 47118  1  0  0  0
 47119  1  0  0  0
 48 56  1  0  0  0
 48 65  1  0  0  0
 48120  1  0  0  0
 49 50  1  0  0  0
 49 53  1  0  0  0
 49 64  1  0  0  0
 49121  1  0  0  0
 50 51  1  0  0  0
 50122  1  0  0  0
 50123  1  0  0  0
 51 52  1  0  0  0
 51124  1  0  0  0
 51125  1  0  0  0
 52126  1  0  0  0
 52127  1  0  0  0
 53 54  1  0  0  0
 54 55  2  0  0  0
 54128  1  0  0  0
 55 57  1  0  0  0
 55129  1  0  0  0
 56 69  2  0  0  0
 57 58  2  0  0  0
 57130  1  0  0  0
 58131  1  0  0  0
 59 60  1  0  0  0
 59 61  1  0  0  0
 59 62  1  0  0  0
 60132  1  0  0  0
 60133  1  0  0  0
 60134  1  0  0  0
 61135  1  0  0  0
 61136  1  0  0  0
 61137  1  0  0  0
 62138  1  0  0  0
 62139  1  0  0  0
 62140  1  0  0  0
 63 65  1  0  0  0
 63141  1  0  0  0
 63142  1  0  0  0
 63143  1  0  0  0
 64144  1  0  0  0
 65145  1  0  0  0
 68 82  1  0  0  0
 71 72  2  0  0  0
 71 73  1  0  0  0
 71 80  1  0  0  0
 72 78  1  0  0  0
 72 83  1  0  0  0
 73 84  2  0  0  0
 73 86  1  0  0  0
 74 81  1  0  0  0
 74 83  2  0  0  0
 74 84  1  0  0  0
 75 77  1  0  0  0
 75 85  1  0  0  0
 75146  1  0  0  0
 75147  1  0  0  0
 76 77  1  0  0  0
 76 85  1  0  0  0
 76148  1  0  0  0
 76149  1  0  0  0
 77 86  1  0  0  0
 77150  1  0  0  0
 78151  1  0  0  0
 78152  1  0  0  0
 78153  1  0  0  0
 79 81  1  0  0  0
 79154  1  0  0  0
 79155  1  0  0  0
 79156  1  0  0  0
 80 82  1  0  0  0
 80157  1  0  0  0
 80158  1  0  0  0
 81159  1  0  0  0
 81160  1  0  0  0
 82161  1  0  0  0
 82162  1  0  0  0
 86163  1  0  0  0
M  ISO  4   1 100  68 101  82 101  85 100
M  END
> <chiral flag>
0

> <version>
0

> <s_m_source_file>
/data/baiqing/PycharmProjects/Reinvent-master-3.2/result/LINK_invent/BTK/process_docking_weight1_custom_sum_contain_oxygen_bond_distance_aromatic_linkinvent_7_9_3/rearranged_h_0187.sdf

> <i_m_source_file_index>
76

> <r_mmod_Potential_Energy-OPLS-2005>
-44.7950019836426

> <r_mmod_Stretch_Energy-OPLS-2005>
207.080841064453

> <r_mmod_Bend_Energy-OPLS-2005>
301.002807617188

> <r_mmod_Torsional_Energy-OPLS-2005>
247.285705566406

> <r_mmod_Improper_Torsional_Energy-OPLS-2005>
12.2302389144897

> <r_mmod_Van_der_Waal_Energy-OPLS-2005>
152.559860229492

> <r_mmod_Electrostatic_Energy-OPLS-2005>
-886.396179199219

> <r_mmod_Solvation_Energy-OPLS-2005>
-231.836975097656

> <b_mmod_Minimization_Converged-OPLS-2005>
0

> <r_mmod_RMS_Derivative-OPLS-2005>
0.716747462749481

$$$$
76
                    3D
 Structure written by MMmdl.
165175  0  0  1  0            999 V2000
  -30.7305  -14.4824   20.5527 C   0  0  0  0  0  0
  -30.4232  -12.3123   19.4242 C   0  0  0  0  0  0
  -29.4946  -12.4956   18.2062 C   0  0  0  0  0  0
  -28.0185  -12.3389   18.6225 C   0  0  0  0  0  0
  -27.6528  -13.1899   19.8652 C   0  0  2  0  0  0
  -28.7039  -13.0322   20.9903 C   0  0  0  0  0  0
  -25.2582  -13.8087   20.5672 C   0  0  0  0  0  0
  -24.1817  -13.0408   20.9207 C   0  0  0  0  0  0
  -24.6362  -11.6876   20.8777 C   0  0  0  0  0  0
  -23.9029  -10.4280   21.0428 C   0  0  0  0  0  0
  -24.3590   -9.4199   21.9211 C   0  0  0  0  0  0
  -23.6300   -8.2207   22.0770 C   0  0  0  0  0  0
  -22.4275   -8.0250   21.3555 C   0  0  0  0  0  0
  -21.9908   -9.0216   20.4649 C   0  0  0  0  0  0
  -22.7212  -10.2113   20.3075 C   0  0  0  0  0  0
  -21.6818   -6.0724   22.5294 C   0  0  0  0  0  0
  -21.3964   -6.5638   23.8230 C   0  0  0  0  0  0
  -21.3670   -5.6797   24.9196 C   0  0  0  0  0  0
  -21.6068   -4.3053   24.7239 C   0  0  0  0  0  0
  -21.8816   -3.8143   23.4361 C   0  0  0  0  0  0
  -21.9175   -4.6964   22.3416 C   0  0  0  0  0  0
  -22.7826  -13.5224   21.1867 C   0  0  0  0  0  0
  -22.1654   -4.2156   21.0992 F   0  0  0  0  0  0
  -21.5690   -3.4543   25.7754 F   0  0  0  0  0  0
  -30.0331  -13.3156   20.4229 N   0  0  0  0  0  0
  -26.2986  -12.9211   20.3344 N   0  0  0  0  0  0
  -25.9280  -11.6401   20.5780 N   0  0  0  0  0  0
  -22.0412  -12.8235   22.0407 N   0  0  0  0  0  0
  -25.4357  -15.1792   20.4010 N   0  0  0  0  0  0
  -31.8894  -14.6200   20.1529 O   0  0  0  0  0  0
  -21.6638   -6.8853   21.4242 O   0  0  0  0  0  0
  -22.3536  -14.5530   20.6707 O   0  0  0  0  0  0
  -24.6119  -31.8678   23.2076 C   0  0  0  0  0  0
  -25.8997  -32.4818   23.8398 C   0  0  1  0  0  0
  -27.2553  -27.4549   20.0992 C   0  0  0  0  0  0
  -25.5860  -33.8611   24.2315 N   0  0  0  0  0  0
  -23.4017  -30.4877   21.5465 C   0  0  2  0  0  0
  -24.8522  -28.9493   20.1171 C   0  0  0  0  0  0
  -22.7409  -29.4657   22.4991 C   0  0  0  0  0  0
  -18.0261  -28.1375   22.8500 C   0  0  0  0  0  0
  -24.1470  -36.7314   23.2647 C   0  0  0  0  0  0
  -25.9261  -30.8381   21.3589 C   0  0  0  0  0  0
  -26.0066  -29.4724   20.7097 C   0  0  0  0  0  0
  -27.2081  -28.7332   20.6943 C   0  0  0  0  0  0
  -26.0803  -26.9359   19.5078 C   0  0  0  0  0  0
  -24.8828  -27.6792   19.5118 C   0  0  0  0  0  0
  -23.6117  -29.8115   20.1642 C   0  0  0  0  0  0
  -25.4093  -36.3110   24.0349 C   0  0  1  0  0  0
  -20.5859  -28.3651   23.1320 C   0  0  2  0  0  0
  -20.6743  -26.9396   22.5414 C   0  0  0  0  0  0
  -19.5726  -26.6395   21.5219 C   0  0  0  0  0  0
  -18.1906  -26.7930   22.1617 C   0  0  0  0  0  0
  -19.1517  -28.8824   23.2908 C   0  0  0  0  0  0
  -18.9444  -30.1437   23.8911 C   0  0  0  0  0  0
  -17.6453  -30.6588   24.0562 C   0  0  0  0  0  0
  -25.9042  -34.9479   23.5141 C   0  0  0  0  0  0
  -16.5339  -29.9099   23.6325 C   0  0  0  0  0  0
  -16.7251  -28.6517   23.0347 C   0  0  0  0  0  0
  -26.4452  -31.6589   25.0708 C   0  0  0  0  0  0
  -25.3747  -31.3657   26.1478 C   0  0  0  0  0  0
  -27.0311  -30.3047   24.6066 C   0  0  0  0  0  0
  -27.6034  -32.4320   25.7464 C   0  0  0  0  0  0
  -27.5574  -37.1799   24.8457 C   0  0  0  0  0  0
  -21.4138  -29.3017   22.3727 N   0  0  0  0  0  0
  -26.4270  -37.3800   23.9438 N   0  0  0  0  0  0
  -24.6641  -31.0808   22.0948 N   0  0  0  0  0  0
  -23.4189  -28.8219   23.3043 O   0  0  0  0  0  0
  -28.4585  -26.7825   20.0925 O   0  0  0  0  0  0
  -26.5624  -34.8931   22.4711 O   0  0  0  0  0  0
  -23.5305  -32.1396   23.7493 O   0  0  0  0  0  0
  -29.2979  -23.2783   22.4041 C   0  0  0  0  0  0
  -30.1904  -22.2174   20.4386 C   0  0  0  0  0  0
  -29.2817  -22.0154   23.0157 C   0  0  0  0  0  0
  -29.7604  -23.4025   21.0775 C   0  0  0  0  0  0
  -30.1477  -20.9910   21.1305 C   0  0  0  0  0  0
  -31.0540  -17.7190   21.7911 C   0  0  0  0  0  0
  -29.7819  -17.6641   19.6581 C   0  0  0  0  0  0
  -31.0017  -25.6602   20.8334 C   0  0  0  0  0  0
  -30.4643  -16.3383   22.1708 C   0  0  0  0  0  0
  -29.1858  -16.3052   20.0539 C   0  0  0  0  0  0
  -30.0860  -18.5133   20.8929 C   0  0  0  0  0  0
  -30.9719  -25.0831   19.4512 C   0  0  1  0  0  0
  -29.8377  -24.7676   20.4198 C   0  0  1  0  0  0
  -28.4431  -25.3505   20.1402 C   0  0  0  0  0  0
  -29.7034  -20.8934   22.3978 N   0  0  0  0  0  0
  -30.0287  -15.5512   21.0010 N   0  0  0  0  0  0
  -30.6059  -19.8256   20.5018 N   0  0  0  0  0  0
  -30.7180  -25.9831   18.4272 F   0  0  0  0  0  0
  -31.4668  -12.4145   19.1190 H   0  0  0  0  0  0
  -30.3286  -11.3106   19.8440 H   0  0  0  0  0  0
  -29.7469  -11.7727   17.4306 H   0  0  0  0  0  0
  -29.6488  -13.4849   17.7712 H   0  0  0  0  0  0
  -27.8428  -11.2827   18.8309 H   0  0  0  0  0  0
  -27.3606  -12.5961   17.7903 H   0  0  0  0  0  0
  -27.6540  -14.2179   19.5264 H   0  0  0  0  0  0
  -28.6886  -12.0225   21.3983 H   0  0  0  0  0  0
  -28.4670  -13.6882   21.8283 H   0  0  0  0  0  0
  -25.2706   -9.5714   22.4805 H   0  0  0  0  0  0
  -24.0041   -7.4583   22.7468 H   0  0  0  0  0  0
  -21.0861   -8.8693   19.8924 H   0  0  0  0  0  0
  -22.3646  -10.9658   19.6200 H   0  0  0  0  0  0
  -21.1904   -7.6143   23.9744 H   0  0  0  0  0  0
  -21.1521   -6.0519   25.9114 H   0  0  0  0  0  0
  -22.0591   -2.7603   23.2843 H   0  0  0  0  0  0
  -22.3931  -11.9876   22.4807 H   0  0  0  0  0  0
  -21.1014  -13.1279   22.2544 H   0  0  0  0  0  0
  -24.6770  -15.8421   20.5176 H   0  0  0  0  0  0
  -26.2953  -15.6055   20.0808 H   0  0  0  0  0  0
  -26.7070  -32.5548   23.1178 H   0  0  0  0  0  0
  -24.9991  -33.9768   25.0441 H   0  0  0  0  0  0
  -22.6913  -31.3033   21.4003 H   0  0  0  0  0  0
  -23.3749  -35.9633   23.3279 H   0  0  0  0  0  0
  -24.3581  -36.8956   22.2067 H   0  0  0  0  0  0
  -23.7186  -37.6497   23.6680 H   0  0  0  0  0  0
  -26.0370  -31.6013   20.5878 H   0  0  0  0  0  0
  -26.8144  -30.8943   21.9758 H   0  0  0  0  0  0
  -28.1007  -29.1416   21.1471 H   0  0  0  0  0  0
  -26.0848  -25.9714   19.0222 H   0  0  0  0  0  0
  -23.9970  -27.2744   19.0420 H   0  0  0  0  0  0
  -23.7203  -30.5800   19.3993 H   0  0  0  0  0  0
  -22.7399  -29.2256   19.8715 H   0  0  0  0  0  0
  -25.1254  -36.1981   25.0846 H   0  0  0  0  0  0
  -20.9948  -28.3188   24.1439 H   0  0  0  0  0  0
  -20.5633  -26.2269   23.3599 H   0  0  0  0  0  0
  -21.6603  -26.7434   22.1188 H   0  0  0  0  0  0
  -19.6888  -25.6321   21.1218 H   0  0  0  0  0  0
  -19.6674  -27.3227   20.6774 H   0  0  0  0  0  0
  -17.4190  -26.6685   21.4009 H   0  0  0  0  0  0
  -18.0292  -26.0054   22.8985 H   0  0  0  0  0  0
  -19.7927  -30.7234   24.2283 H   0  0  0  0  0  0
  -17.5020  -31.6280   24.5155 H   0  0  0  0  0  0
  -15.5341  -30.3018   23.7651 H   0  0  0  0  0  0
  -15.8638  -28.0863   22.7041 H   0  0  0  0  0  0
  -24.5914  -30.7009   25.7793 H   0  0  0  0  0  0
  -24.8959  -32.2806   26.4985 H   0  0  0  0  0  0
  -25.8128  -30.8775   27.0192 H   0  0  0  0  0  0
  -26.2837  -29.6767   24.1190 H   0  0  0  0  0  0
  -27.4176  -29.7307   25.4493 H   0  0  0  0  0  0
  -27.8627  -30.4379   23.9140 H   0  0  0  0  0  0
  -27.2641  -33.3608   26.2061 H   0  0  0  0  0  0
  -28.3832  -32.6890   25.0279 H   0  0  0  0  0  0
  -28.0721  -31.8440   26.5363 H   0  0  0  0  0  0
  -28.2557  -38.0124   24.7569 H   0  0  0  0  0  0
  -28.1109  -36.2672   24.6205 H   0  0  0  0  0  0
  -27.2329  -37.1332   25.8863 H   0  0  0  0  0  0
  -20.9306  -29.8757   21.6954 H   0  0  0  0  0  0
  -26.0163  -38.2880   24.1475 H   0  0  0  0  0  0
  -28.9634  -24.1456   22.9587 H   0  0  0  0  0  0
  -30.5623  -22.2544   19.4245 H   0  0  0  0  0  0
  -28.9289  -21.8976   24.0300 H   0  0  0  0  0  0
  -32.0106  -17.5763   21.2846 H   0  0  0  0  0  0
  -31.2772  -18.2872   22.6959 H   0  0  0  0  0  0
  -29.0763  -18.1838   19.0079 H   0  0  0  0  0  0
  -30.6918  -17.5098   19.0721 H   0  0  0  0  0  0
  -30.8494  -26.7331   20.9160 H   0  0  0  0  0  0
  -31.7421  -25.2409   21.5137 H   0  0  0  0  0  0
  -29.5936  -16.4840   22.8117 H   0  0  0  0  0  0
  -31.1897  -15.7786   22.7667 H   0  0  0  0  0  0
  -29.0411  -15.7495   19.1263 H   0  0  0  0  0  0
  -28.2029  -16.4498   20.5028 H   0  0  0  0  0  0
  -29.1444  -18.6483   21.4301 H   0  0  0  0  0  0
  -31.7032  -24.3311   19.1616 H   0  0  0  0  0  0
  -27.7596  -25.0434   20.9318 H   0  0  0  0  0  0
  -28.0737  -24.9249   19.2068 H   0  0  0  0  0  0
  -30.8668  -19.9275   19.5287 H   0  0  0  0  0  0
  1 25  1  0  0  0
  1 30  2  0  0  0
  1 86  1  0  0  0
  2  3  1  0  0  0
  2 25  1  0  0  0
  2 89  1  0  0  0
  2 90  1  0  0  0
  3  4  1  0  0  0
  3 91  1  0  0  0
  3 92  1  0  0  0
  4  5  1  0  0  0
  4 93  1  0  0  0
  4 94  1  0  0  0
  5  6  1  0  0  0
  5 26  1  0  0  0
  5 95  1  0  0  0
  6 25  1  0  0  0
  6 96  1  0  0  0
  6 97  1  0  0  0
  7  8  2  0  0  0
  7 26  1  0  0  0
  7 29  1  0  0  0
  8  9  1  0  0  0
  8 22  1  0  0  0
  9 10  1  0  0  0
  9 27  2  0  0  0
 10 11  2  0  0  0
 10 15  1  0  0  0
 11 12  1  0  0  0
 11 98  1  0  0  0
 12 13  2  0  0  0
 12 99  1  0  0  0
 13 14  1  0  0  0
 13 31  1  0  0  0
 14 15  2  0  0  0
 14100  1  0  0  0
 15101  1  0  0  0
 16 17  2  0  0  0
 16 21  1  0  0  0
 16 31  1  0  0  0
 17 18  1  0  0  0
 17102  1  0  0  0
 18 19  2  0  0  0
 18103  1  0  0  0
 19 20  1  0  0  0
 19 24  1  0  0  0
 20 21  2  0  0  0
 20104  1  0  0  0
 21 23  1  0  0  0
 22 28  1  0  0  0
 22 32  2  0  0  0
 26 27  1  0  0  0
 28105  1  0  0  0
 28106  1  0  0  0
 29107  1  0  0  0
 29108  1  0  0  0
 33 34  1  0  0  0
 33 66  1  0  0  0
 33 70  2  0  0  0
 34 36  1  0  0  0
 34 59  1  0  0  0
 34109  1  0  0  0
 35 44  2  0  0  0
 35 45  1  0  0  0
 35 68  1  0  0  0
 36 56  1  0  0  0
 36110  1  0  0  0
 37 39  1  0  0  0
 37 47  1  0  0  0
 37 66  1  0  0  0
 37111  1  0  0  0
 38 43  2  0  0  0
 38 46  1  0  0  0
 38 47  1  0  0  0
 39 64  1  0  0  0
 39 67  2  0  0  0
 40 52  1  0  0  0
 40 53  2  0  0  0
 40 58  1  0  0  0
 41112  1  0  0  0
 41113  1  0  0  0
 41114  1  0  0  0
 41 48  1  0  0  0
 42 43  1  0  0  0
 42 66  1  0  0  0
 42115  1  0  0  0
 42116  1  0  0  0
 43 44  1  0  0  0
 44117  1  0  0  0
 45 46  2  0  0  0
 45118  1  0  0  0
 46119  1  0  0  0
 47120  1  0  0  0
 47121  1  0  0  0
 48 56  1  0  0  0
 48 65  1  0  0  0
 48122  1  0  0  0
 49 50  1  0  0  0
 49 53  1  0  0  0
 49 64  1  0  0  0
 49123  1  0  0  0
 50 51  1  0  0  0
 50124  1  0  0  0
 50125  1  0  0  0
 51 52  1  0  0  0
 51126  1  0  0  0
 51127  1  0  0  0
 52128  1  0  0  0
 52129  1  0  0  0
 53 54  1  0  0  0
 54 55  2  0  0  0
 54130  1  0  0  0
 55 57  1  0  0  0
 55131  1  0  0  0
 56 69  2  0  0  0
 57 58  2  0  0  0
 57132  1  0  0  0
 58133  1  0  0  0
 59 60  1  0  0  0
 59 61  1  0  0  0
 59 62  1  0  0  0
 60134  1  0  0  0
 60135  1  0  0  0
 60136  1  0  0  0
 61137  1  0  0  0
 61138  1  0  0  0
 61139  1  0  0  0
 62140  1  0  0  0
 62141  1  0  0  0
 62142  1  0  0  0
 63 65  1  0  0  0
 63143  1  0  0  0
 63144  1  0  0  0
 63145  1  0  0  0
 64146  1  0  0  0
 65147  1  0  0  0
 68 84  1  0  0  0
 71 73  2  0  0  0
 71 74  1  0  0  0
 71148  1  0  0  0
 72 74  2  0  0  0
 72 75  1  0  0  0
 72149  1  0  0  0
 73 85  1  0  0  0
 73150  1  0  0  0
 74 83  1  0  0  0
 75 85  2  0  0  0
 75 87  1  0  0  0
 76 79  1  0  0  0
 76 81  1  0  0  0
 76151  1  0  0  0
 76152  1  0  0  0
 77 80  1  0  0  0
 77 81  1  0  0  0
 77153  1  0  0  0
 77154  1  0  0  0
 78 82  1  0  0  0
 78 83  1  0  0  0
 78155  1  0  0  0
 78156  1  0  0  0
 79 86  1  0  0  0
 79157  1  0  0  0
 79158  1  0  0  0
 80 86  1  0  0  0
 80159  1  0  0  0
 80160  1  0  0  0
 81 87  1  0  0  0
 81161  1  0  0  0
 82 83  1  0  0  0
 82 88  1  0  0  0
 82162  1  0  0  0
 83 84  1  0  0  0
 84163  1  0  0  0
 84164  1  0  0  0
 87165  1  0  0  0
M  ISO  4   1 100  68 101  84 101  86 100
M  END
> <chiral flag>
0

> <version>
0

> <s_m_source_file>
/data/baiqing/PycharmProjects/Reinvent-master-3.2/result/LINK_invent/BTK/process_docking_weight1_custom_sum_contain_oxygen_bond_distance_aromatic_linkinvent_7_9_3/rearranged_h_0187.sdf

> <i_m_source_file_index>
77

> <r_mmod_Potential_Energy-OPLS-2005>
13.7890043258667

> <r_mmod_Stretch_Energy-OPLS-2005>
37.7157096862793

> <r_mmod_Bend_Energy-OPLS-2005>
107.82991027832

> <r_mmod_Torsional_Energy-OPLS-2005>
371.015991210938

> <r_mmod_Improper_Torsional_Energy-OPLS-2005>
7.3921685218811

> <r_mmod_Van_der_Waal_Energy-OPLS-2005>
158.326797485352

> <r_mmod_Electrostatic_Energy-OPLS-2005>
-461.520111083984

> <r_mmod_Solvation_Energy-OPLS-2005>
-222.832275390625

> <b_mmod_Minimization_Converged-OPLS-2005>
0

> <r_mmod_RMS_Derivative-OPLS-2005>
3.67903184890747

$$$$
77
                    3D
 Structure written by MMmdl.
154163  0  0  1  0            999 V2000
  -30.5192  -15.0489   20.4049 C   0  0  0  0  0  0
  -30.4393  -12.6579   19.5035 C   0  0  0  0  0  0
  -29.5278  -12.5489   18.2595 C   0  0  0  0  0  0
  -28.0604  -12.3238   18.6712 C   0  0  0  0  0  0
  -27.6248  -13.2601   19.8310 C   0  0  2  0  0  0
  -28.6681  -13.3327   20.9668 C   0  0  0  0  0  0
  -25.2450  -13.8247   20.5701 C   0  0  0  0  0  0
  -24.1781  -13.0451   20.9210 C   0  0  0  0  0  0
  -24.6408  -11.6947   20.8742 C   0  0  0  0  0  0
  -23.9105  -10.4309   21.0399 C   0  0  0  0  0  0
  -24.3658   -9.4227   21.9176 C   0  0  0  0  0  0
  -23.6320   -8.2266   22.0761 C   0  0  0  0  0  0
  -22.4297   -8.0306   21.3549 C   0  0  0  0  0  0
  -21.9931   -9.0271   20.4646 C   0  0  0  0  0  0
  -22.7272  -10.2143   20.3052 C   0  0  0  0  0  0
  -21.6868   -6.0737   22.5267 C   0  0  0  0  0  0
  -21.4024   -6.5644   23.8204 C   0  0  0  0  0  0
  -21.3679   -5.6799   24.9166 C   0  0  0  0  0  0
  -21.6051   -4.3056   24.7222 C   0  0  0  0  0  0
  -21.8830   -3.8147   23.4336 C   0  0  0  0  0  0
  -21.9204   -4.6959   22.3392 C   0  0  0  0  0  0
  -22.7796  -13.5216   21.1859 C   0  0  0  0  0  0
  -22.1667   -4.2149   21.0973 F   0  0  0  0  0  0
  -21.5632   -3.4548   25.7731 F   0  0  0  0  0  0
  -29.9276  -13.7771   20.3565 N   0  0  0  0  0  0
  -26.2883  -12.9495   20.3225 N   0  0  0  0  0  0
  -25.9342  -11.6610   20.5707 N   0  0  0  0  0  0
  -22.0465  -12.8210   22.0430 N   0  0  0  0  0  0
  -25.4095  -15.1990   20.4112 N   0  0  0  0  0  0
  -31.7304  -15.0821   20.1626 O   0  0  0  0  0  0
  -21.6664   -6.8892   21.4234 O   0  0  0  0  0  0
  -22.3476  -14.5497   20.6676 O   0  0  0  0  0  0
  -24.6516  -31.8353   23.1814 C   0  0  0  0  0  0
  -25.9249  -32.4650   23.8236 C   0  0  1  0  0  0
  -27.2126  -27.0417   20.1874 C   0  0  0  0  0  0
  -25.5972  -33.8456   24.2167 N   0  0  0  0  0  0
  -23.4603  -30.4521   21.5270 C   0  0  2  0  0  0
  -24.9117  -28.8606   20.1143 C   0  0  0  0  0  0
  -22.7612  -29.4498   22.4818 C   0  0  0  0  0  0
  -18.0315  -28.1384   22.8476 C   0  0  0  0  0  0
  -24.1500  -36.7237   23.2646 C   0  0  0  0  0  0
  -26.0216  -30.6807   21.3956 C   0  0  0  0  0  0
  -26.0902  -29.2813   20.7432 C   0  0  0  0  0  0
  -27.2384  -28.3895   20.7607 C   0  0  0  0  0  0
  -26.0129  -26.7501   19.5024 C   0  0  0  0  0  0
  -24.8916  -27.6121   19.4745 C   0  0  0  0  0  0
  -23.6943  -29.7757   20.1492 C   0  0  0  0  0  0
  -25.4132  -36.3004   24.0320 C   0  0  1  0  0  0
  -20.5935  -28.3727   23.1208 C   0  0  2  0  0  0
  -20.6798  -26.9420   22.5407 C   0  0  0  0  0  0
  -19.5768  -26.6372   21.5220 C   0  0  0  0  0  0
  -18.1945  -26.7923   22.1619 C   0  0  0  0  0  0
  -19.1573  -28.8872   23.2836 C   0  0  0  0  0  0
  -18.9480  -30.1469   23.8868 C   0  0  0  0  0  0
  -17.6474  -30.6582   24.0554 C   0  0  0  0  0  0
  -25.9080  -34.9380   23.5053 C   0  0  0  0  0  0
  -16.5368  -29.9071   23.6337 C   0  0  0  0  0  0
  -16.7298  -28.6486   23.0364 C   0  0  0  0  0  0
  -26.4536  -31.6537   25.0713 C   0  0  0  0  0  0
  -25.3704  -31.3747   26.1405 C   0  0  0  0  0  0
  -27.0430  -30.2923   24.6366 C   0  0  0  0  0  0
  -27.6055  -32.4314   25.7501 C   0  0  0  0  0  0
  -27.5585  -37.1775   24.8459 C   0  0  0  0  0  0
  -21.4292  -29.3051   22.3577 N   0  0  0  0  0  0
  -26.4289  -37.3727   23.9409 N   0  0  0  0  0  0
  -24.7312  -31.0139   22.0888 N   0  0  0  0  0  0
  -23.4221  -28.8065   23.3013 O   0  0  0  0  0  0
  -28.2466  -26.0094   20.2673 O   0  0  0  0  0  0
  -26.5674  -34.8887   22.4637 O   0  0  0  0  0  0
  -23.5617  -32.1259   23.6984 O   0  0  0  0  0  0
  -30.4793  -18.1900   19.0054 C   0  0  0  0  0  0
  -29.1215  -18.8995   18.8232 C   0  0  0  0  0  0
  -28.8100  -23.3204   19.3789 C   0  0  0  0  0  0
  -28.4595  -23.3541   21.3563 C   0  0  0  0  0  0
  -30.1271  -17.8467   20.4638 C   0  0  1  0  0  0
  -29.0666  -19.2106   20.3259 C   0  0  1  0  0  0
  -28.4719  -22.0745   20.3595 C   0  0  2  0  0  0
  -27.9960  -24.4278   20.2387 C   0  0  1  0  0  0
  -29.7557  -16.2716   20.5189 N   0  0  0  0  0  0
  -29.4248  -20.7744   20.5932 N   0  3  0  0  0  0
  -31.4689  -12.8295   19.1860 H   0  0  0  0  0  0
  -30.4479  -11.7172   20.0575 H   0  0  0  0  0  0
  -29.8623  -11.7379   17.6110 H   0  0  0  0  0  0
  -29.6042  -13.4654   17.6728 H   0  0  0  0  0  0
  -27.9585  -11.2810   18.9730 H   0  0  0  0  0  0
  -27.4051  -12.4598   17.8092 H   0  0  0  0  0  0
  -27.5722  -14.2557   19.3913 H   0  0  0  0  0  0
  -28.7868  -12.3688   21.4634 H   0  0  0  0  0  0
  -28.3503  -14.0414   21.7340 H   0  0  0  0  0  0
  -25.2817   -9.5707   22.4741 H   0  0  0  0  0  0
  -24.0037   -7.4677   22.7498 H   0  0  0  0  0  0
  -21.0859   -8.8783   19.8952 H   0  0  0  0  0  0
  -22.3729  -10.9676   19.6162 H   0  0  0  0  0  0
  -21.2004   -7.6144   23.9698 H   0  0  0  0  0  0
  -21.1493   -6.0525   25.9071 H   0  0  0  0  0  0
  -22.0582   -2.7602   23.2833 H   0  0  0  0  0  0
  -22.4108  -11.9899   22.4850 H   0  0  0  0  0  0
  -21.1056  -13.1184   22.2591 H   0  0  0  0  0  0
  -24.6350  -15.8452   20.5193 H   0  0  0  0  0  0
  -26.2384  -15.6392   20.0330 H   0  0  0  0  0  0
  -26.7325  -32.5232   23.0965 H   0  0  0  0  0  0
  -25.0093  -33.9547   25.0304 H   0  0  0  0  0  0
  -22.7681  -31.2817   21.3655 H   0  0  0  0  0  0
  -23.3771  -35.9555   23.3260 H   0  0  0  0  0  0
  -24.3598  -36.8913   22.2070 H   0  0  0  0  0  0
  -23.7236  -37.6413   23.6711 H   0  0  0  0  0  0
  -26.1891  -31.4267   20.6178 H   0  0  0  0  0  0
  -26.8872  -30.7348   22.0442 H   0  0  0  0  0  0
  -28.1314  -28.7034   21.2835 H   0  0  0  0  0  0
  -25.9090  -25.8041   18.9942 H   0  0  0  0  0  0
  -23.9973  -27.2866   18.9614 H   0  0  0  0  0  0
  -23.8426  -30.5473   19.3922 H   0  0  0  0  0  0
  -22.8063  -29.2244   19.8351 H   0  0  0  0  0  0
  -25.1322  -36.1821   25.0813 H   0  0  0  0  0  0
  -21.0026  -28.3325   24.1328 H   0  0  0  0  0  0
  -20.5679  -26.2346   23.3638 H   0  0  0  0  0  0
  -21.6660  -26.7411   22.1204 H   0  0  0  0  0  0
  -19.6921  -25.6279   21.1265 H   0  0  0  0  0  0
  -19.6696  -27.3170   20.6740 H   0  0  0  0  0  0
  -17.4223  -26.6686   21.4013 H   0  0  0  0  0  0
  -18.0320  -26.0068   22.9006 H   0  0  0  0  0  0
  -19.7957  -30.7298   24.2220 H   0  0  0  0  0  0
  -17.5020  -31.6258   24.5158 H   0  0  0  0  0  0
  -15.5357  -30.2955   23.7677 H   0  0  0  0  0  0
  -15.8699  -28.0790   22.7098 H   0  0  0  0  0  0
  -24.5863  -30.7130   25.7708 H   0  0  0  0  0  0
  -24.8931  -32.2945   26.4798 H   0  0  0  0  0  0
  -25.7967  -30.8916   27.0211 H   0  0  0  0  0  0
  -26.3084  -29.6604   24.1372 H   0  0  0  0  0  0
  -27.4006  -29.7264   25.4979 H   0  0  0  0  0  0
  -27.8997  -30.4131   23.9735 H   0  0  0  0  0  0
  -27.2637  -33.3615   26.2051 H   0  0  0  0  0  0
  -28.3882  -32.6875   25.0347 H   0  0  0  0  0  0
  -28.0722  -31.8470   26.5444 H   0  0  0  0  0  0
  -28.2569  -38.0106   24.7536 H   0  0  0  0  0  0
  -28.1115  -36.2633   24.6242 H   0  0  0  0  0  0
  -27.2308  -37.1367   25.8863 H   0  0  0  0  0  0
  -20.9514  -29.8760   21.6740 H   0  0  0  0  0  0
  -26.0145  -38.2791   24.1412 H   0  0  0  0  0  0
  -31.3269  -18.8736   18.9291 H   0  0  0  0  0  0
  -30.6170  -17.3394   18.3361 H   0  0  0  0  0  0
  -28.3328  -18.2113   18.5126 H   0  0  0  0  0  0
  -29.1676  -19.7675   18.1630 H   0  0  0  0  0  0
  -28.4188  -23.1873   18.3707 H   0  0  0  0  0  0
  -29.8782  -23.5431   19.3267 H   0  0  0  0  0  0
  -29.4468  -23.5837   21.7638 H   0  0  0  0  0  0
  -27.7496  -23.2477   22.1775 H   0  0  0  0  0  0
  -30.9642  -18.0725   21.1251 H   0  0  0  0  0  0
  -28.0858  -18.9904   20.7478 H   0  0  0  0  0  0
  -27.4496  -21.7307   20.1975 H   0  0  0  0  0  0
  -26.9300  -24.2617   20.0876 H   0  0  0  0  0  0
  -28.7752  -16.0939   20.6741 H   0  0  0  0  0  0
  -30.3241  -20.9672   20.1844 H   0  0  0  0  0  0
  -29.5986  -20.7898   21.5849 H   0  0  0  0  0  0
  1 25  1  0  0  0
  1 30  2  0  0  0
  1 79  1  0  0  0
  2  3  1  0  0  0
  2 25  1  0  0  0
  2 81  1  0  0  0
  2 82  1  0  0  0
  3  4  1  0  0  0
  3 83  1  0  0  0
  3 84  1  0  0  0
  4  5  1  0  0  0
  4 85  1  0  0  0
  4 86  1  0  0  0
  5  6  1  0  0  0
  5 26  1  0  0  0
  5 87  1  0  0  0
  6 25  1  0  0  0
  6 88  1  0  0  0
  6 89  1  0  0  0
  7  8  2  0  0  0
  7 26  1  0  0  0
  7 29  1  0  0  0
  8  9  1  0  0  0
  8 22  1  0  0  0
  9 10  1  0  0  0
  9 27  2  0  0  0
 10 11  2  0  0  0
 10 15  1  0  0  0
 11 12  1  0  0  0
 11 90  1  0  0  0
 12 13  2  0  0  0
 12 91  1  0  0  0
 13 14  1  0  0  0
 13 31  1  0  0  0
 14 15  2  0  0  0
 14 92  1  0  0  0
 15 93  1  0  0  0
 16 17  2  0  0  0
 16 21  1  0  0  0
 16 31  1  0  0  0
 17 18  1  0  0  0
 17 94  1  0  0  0
 18 19  2  0  0  0
 18 95  1  0  0  0
 19 20  1  0  0  0
 19 24  1  0  0  0
 20 21  2  0  0  0
 20 96  1  0  0  0
 21 23  1  0  0  0
 22 28  1  0  0  0
 22 32  2  0  0  0
 26 27  1  0  0  0
 28 97  1  0  0  0
 28 98  1  0  0  0
 29 99  1  0  0  0
 29100  1  0  0  0
 33 34  1  0  0  0
 33 66  1  0  0  0
 33 70  2  0  0  0
 34 36  1  0  0  0
 34 59  1  0  0  0
 34101  1  0  0  0
 35 44  2  0  0  0
 35 45  1  0  0  0
 35 68  1  0  0  0
 36 56  1  0  0  0
 36102  1  0  0  0
 37 39  1  0  0  0
 37 47  1  0  0  0
 37 66  1  0  0  0
 37103  1  0  0  0
 38 43  2  0  0  0
 38 46  1  0  0  0
 38 47  1  0  0  0
 39 64  1  0  0  0
 39 67  2  0  0  0
 40 52  1  0  0  0
 40 53  2  0  0  0
 40 58  1  0  0  0
 41104  1  0  0  0
 41105  1  0  0  0
 41106  1  0  0  0
 41 48  1  0  0  0
 42 43  1  0  0  0
 42 66  1  0  0  0
 42107  1  0  0  0
 42108  1  0  0  0
 43 44  1  0  0  0
 44109  1  0  0  0
 45 46  2  0  0  0
 45110  1  0  0  0
 46111  1  0  0  0
 47112  1  0  0  0
 47113  1  0  0  0
 48 56  1  0  0  0
 48 65  1  0  0  0
 48114  1  0  0  0
 49 50  1  0  0  0
 49 53  1  0  0  0
 49 64  1  0  0  0
 49115  1  0  0  0
 50 51  1  0  0  0
 50116  1  0  0  0
 50117  1  0  0  0
 51 52  1  0  0  0
 51118  1  0  0  0
 51119  1  0  0  0
 52120  1  0  0  0
 52121  1  0  0  0
 53 54  1  0  0  0
 54 55  2  0  0  0
 54122  1  0  0  0
 55 57  1  0  0  0
 55123  1  0  0  0
 56 69  2  0  0  0
 57 58  2  0  0  0
 57124  1  0  0  0
 58125  1  0  0  0
 59 60  1  0  0  0
 59 61  1  0  0  0
 59 62  1  0  0  0
 60126  1  0  0  0
 60127  1  0  0  0
 60128  1  0  0  0
 61129  1  0  0  0
 61130  1  0  0  0
 61131  1  0  0  0
 62132  1  0  0  0
 62133  1  0  0  0
 62134  1  0  0  0
 63 65  1  0  0  0
 63135  1  0  0  0
 63136  1  0  0  0
 63137  1  0  0  0
 64138  1  0  0  0
 65139  1  0  0  0
 68 78  1  0  0  0
 71 72  1  0  0  0
 71 75  1  0  0  0
 71140  1  0  0  0
 71141  1  0  0  0
 72 76  1  0  0  0
 72142  1  0  0  0
 72143  1  0  0  0
 73 77  1  0  0  0
 73 78  1  0  0  0
 73144  1  0  0  0
 73145  1  0  0  0
 74 77  1  0  0  0
 74 78  1  0  0  0
 74146  1  0  0  0
 74147  1  0  0  0
 75 76  1  0  0  0
 75 79  1  0  0  0
 75148  1  0  0  0
 76 80  1  0  0  0
 76149  1  0  0  0
 77 80  1  0  0  0
 77150  1  0  0  0
 78151  1  0  0  0
 79152  1  0  0  0
 80153  1  0  0  0
 80154  1  0  0  0
M  CHG  1  80   1
M  ISO  4   1 100  68 101  78 101  79 100
M  END
> <chiral flag>
0

> <version>
0

> <s_m_source_file>
/data/baiqing/PycharmProjects/Reinvent-master-3.2/result/LINK_invent/BTK/process_docking_weight1_custom_sum_contain_oxygen_bond_distance_aromatic_linkinvent_7_9_3/rearranged_h_0187.sdf

> <i_m_source_file_index>
78

> <r_mmod_Potential_Energy-OPLS-2005>
628.096008300781

> <r_mmod_Stretch_Energy-OPLS-2005>
353.415618896484

> <r_mmod_Bend_Energy-OPLS-2005>
376.040008544922

> <r_mmod_Torsional_Energy-OPLS-2005>
280.640563964844

> <r_mmod_Improper_Torsional_Energy-OPLS-2005>
4.20109796524048

> <r_mmod_Van_der_Waal_Energy-OPLS-2005>
113.263053894043

> <r_mmod_Electrostatic_Energy-OPLS-2005>
-263.763671875

> <r_mmod_Solvation_Energy-OPLS-2005>
-512.321166992188

> <b_mmod_Minimization_Converged-OPLS-2005>
0

> <r_mmod_RMS_Derivative-OPLS-2005>
2.70645189285278

$$$$
78
                    3D
 Structure written by MMmdl.
159168  0  0  1  0            999 V2000
  -30.5634  -14.8894   20.3034 C   0  0  0  0  0  0
  -30.4224  -12.5163   19.4677 C   0  0  0  0  0  0
  -29.4881  -12.4242   18.2414 C   0  0  0  0  0  0
  -28.0099  -12.2908   18.6664 C   0  0  0  0  0  0
  -27.6077  -13.2185   19.8473 C   0  0  2  0  0  0
  -28.6845  -13.2669   20.9523 C   0  0  0  0  0  0
  -25.2293  -13.7967   20.5951 C   0  0  0  0  0  0
  -24.1625  -13.0236   20.9339 C   0  0  0  0  0  0
  -24.6270  -11.6745   20.8891 C   0  0  0  0  0  0
  -23.8951  -10.4184   21.0452 C   0  0  0  0  0  0
  -24.3520   -9.4106   21.9198 C   0  0  0  0  0  0
  -23.6223   -8.2136   22.0740 C   0  0  0  0  0  0
  -22.4204   -8.0186   21.3524 C   0  0  0  0  0  0
  -21.9841   -9.0151   20.4617 C   0  0  0  0  0  0
  -22.7146  -10.2036   20.3053 C   0  0  0  0  0  0
  -21.6806   -6.0689   22.5276 C   0  0  0  0  0  0
  -21.3933   -6.5611   23.8196 C   0  0  0  0  0  0
  -21.3664   -5.6782   24.9177 C   0  0  0  0  0  0
  -21.6086   -4.3045   24.7265 C   0  0  0  0  0  0
  -21.8822   -3.8115   23.4399 C   0  0  0  0  0  0
  -21.9160   -4.6921   22.3441 C   0  0  0  0  0  0
  -22.7673  -13.5077   21.1993 C   0  0  0  0  0  0
  -22.1620   -4.2108   21.1025 F   0  0  0  0  0  0
  -21.5707   -3.4546   25.7793 F   0  0  0  0  0  0
  -29.9479  -13.6444   20.3043 N   0  0  0  0  0  0
  -26.2772  -12.9227   20.3534 N   0  0  0  0  0  0
  -25.9214  -11.6391   20.5994 N   0  0  0  0  0  0
  -22.0316  -12.8080   22.0526 N   0  0  0  0  0  0
  -25.3819  -15.1694   20.4620 N   0  0  0  0  0  0
  -31.7964  -14.9293   20.2425 O   0  0  0  0  0  0
  -21.6565   -6.8800   21.4212 O   0  0  0  0  0  0
  -22.3434  -14.5460   20.6908 O   0  0  0  0  0  0
  -24.6423  -31.8501   23.1962 C   0  0  0  0  0  0
  -25.9209  -32.4711   23.8348 C   0  0  1  0  0  0
  -27.1983  -27.1561   20.1577 C   0  0  0  0  0  0
  -25.5950  -33.8527   24.2260 N   0  0  0  0  0  0
  -23.4475  -30.4711   21.5377 C   0  0  2  0  0  0
  -24.8975  -28.9156   20.1038 C   0  0  0  0  0  0
  -22.7573  -29.4588   22.4889 C   0  0  0  0  0  0
  -18.0297  -28.1378   22.8489 C   0  0  0  0  0  0
  -24.1493  -36.7282   23.2641 C   0  0  0  0  0  0
  -26.0064  -30.7272   21.4012 C   0  0  0  0  0  0
  -26.0732  -29.3438   20.7361 C   0  0  0  0  0  0
  -27.2268  -28.4804   20.7488 C   0  0  0  0  0  0
  -26.0023  -26.8426   19.4657 C   0  0  0  0  0  0
  -24.8766  -27.6790   19.4510 C   0  0  0  0  0  0
  -23.6769  -29.8164   20.1504 C   0  0  0  0  0  0
  -25.4121  -36.3075   24.0344 C   0  0  1  0  0  0
  -20.5913  -28.3706   23.1242 C   0  0  2  0  0  0
  -20.6795  -26.9439   22.5367 C   0  0  0  0  0  0
  -19.5751  -26.6377   21.5200 C   0  0  0  0  0  0
  -18.1918  -26.7921   22.1597 C   0  0  0  0  0  0
  -19.1556  -28.8859   23.2862 C   0  0  0  0  0  0
  -18.9479  -30.1436   23.8916 C   0  0  0  0  0  0
  -17.6473  -30.6564   24.0630 C   0  0  0  0  0  0
  -25.9060  -34.9425   23.5107 C   0  0  0  0  0  0
  -16.5366  -29.9085   23.6373 C   0  0  0  0  0  0
  -16.7286  -28.6522   23.0347 C   0  0  0  0  0  0
  -26.4526  -31.6575   25.0796 C   0  0  0  0  0  0
  -25.3675  -31.3782   26.1486 C   0  0  0  0  0  0
  -27.0405  -30.2956   24.6414 C   0  0  0  0  0  0
  -27.6059  -32.4345   25.7550 C   0  0  0  0  0  0
  -27.5599  -37.1813   24.8473 C   0  0  0  0  0  0
  -21.4270  -29.3095   22.3640 N   0  0  0  0  0  0
  -26.4311  -37.3769   23.9411 N   0  0  0  0  0  0
  -24.7164  -31.0371   22.0975 N   0  0  0  0  0  0
  -23.4230  -28.8113   23.3035 O   0  0  0  0  0  0
  -28.2089  -26.1401   20.2771 O   0  0  0  0  0  0
  -26.5640  -34.8896   22.4684 O   0  0  0  0  0  0
  -23.5531  -32.1391   23.7159 O   0  0  0  0  0  0
  -28.3498  -21.0437   21.4906 C   0  0  0  0  0  0
  -28.0815  -22.4584   21.4126 C   0  0  0  0  0  0
  -29.5641  -21.2381   19.4790 C   0  0  0  0  0  0
  -29.0621  -20.3357   20.4724 C   0  0  0  0  0  0
  -28.5286  -23.2707   20.3266 C   0  0  0  0  0  0
  -27.8262  -16.9488   18.8791 C   0  0  0  0  0  0
  -29.1278  -16.1477   18.7640 C   0  0  0  0  0  0
  -30.1709  -17.5695   20.3768 C   0  0  0  0  0  0
  -28.9603  -18.7074   20.3216 C   0  0  2  0  0  0
  -28.1265  -18.4416   19.0415 C   0  0  2  0  0  0
  -27.8252  -24.6910   19.9232 C   0  0  0  0  0  0
  -29.2868  -22.5969   19.4002 N   0  0  0  0  0  0
  -29.8053  -16.0745   20.0780 N   0  0  0  0  0  0
  -26.8899  -19.2422   19.0234 N   0  3  0  0  0  0
  -31.4602  -12.6451   19.1519 H   0  0  0  0  0  0
  -30.3895  -11.5813   20.0318 H   0  0  0  0  0  0
  -29.7607  -11.5613   17.6338 H   0  0  0  0  0  0
  -29.6277  -13.2850   17.5904 H   0  0  0  0  0  0
  -27.8610  -11.2455   18.9463 H   0  0  0  0  0  0
  -27.3456  -12.4665   17.8188 H   0  0  0  0  0  0
  -27.5095  -14.2116   19.4353 H   0  0  0  0  0  0
  -28.7813  -12.3028   21.4514 H   0  0  0  0  0  0
  -28.4245  -13.9961   21.7186 H   0  0  0  0  0  0
  -25.2648   -9.5627   22.4778 H   0  0  0  0  0  0
  -23.9967   -7.4517   22.7425 H   0  0  0  0  0  0
  -21.0811   -8.8640   19.8900 H   0  0  0  0  0  0
  -22.3581  -10.9577   19.6191 H   0  0  0  0  0  0
  -21.1808   -7.6091   23.9696 H   0  0  0  0  0  0
  -21.1515   -6.0509   25.9094 H   0  0  0  0  0  0
  -22.0591   -2.7569   23.2935 H   0  0  0  0  0  0
  -22.3953  -11.9681   22.4822 H   0  0  0  0  0  0
  -21.0891  -13.1074   22.2678 H   0  0  0  0  0  0
  -24.6224  -15.8015   20.6954 H   0  0  0  0  0  0
  -26.2842  -15.6112   20.4070 H   0  0  0  0  0  0
  -26.7302  -32.5346   23.1110 H   0  0  0  0  0  0
  -25.0120  -33.9654   25.0431 H   0  0  0  0  0  0
  -22.7466  -31.2961   21.3862 H   0  0  0  0  0  0
  -23.3766  -35.9595   23.3279 H   0  0  0  0  0  0
  -24.3593  -36.8927   22.2053 H   0  0  0  0  0  0
  -23.7222  -37.6476   23.6662 H   0  0  0  0  0  0
  -26.1849  -31.4883   20.6401 H   0  0  0  0  0  0
  -26.8679  -30.7570   22.0558 H   0  0  0  0  0  0
  -28.1169  -28.7912   21.2826 H   0  0  0  0  0  0
  -25.8748  -25.9002   18.9516 H   0  0  0  0  0  0
  -23.9864  -27.3528   18.9307 H   0  0  0  0  0  0
  -23.8286  -30.5988   19.4061 H   0  0  0  0  0  0
  -22.7942  -29.2619   19.8243 H   0  0  0  0  0  0
  -25.1292  -36.1947   25.0832 H   0  0  0  0  0  0
  -20.9981  -28.3282   24.1372 H   0  0  0  0  0  0
  -20.5737  -26.2364   23.3620 H   0  0  0  0  0  0
  -21.6627  -26.7427   22.1079 H   0  0  0  0  0  0
  -19.6902  -25.6306   21.1206 H   0  0  0  0  0  0
  -19.6671  -27.3168   20.6736 H   0  0  0  0  0  0
  -17.4220  -26.6720   21.3942 H   0  0  0  0  0  0
  -18.0289  -25.9998   22.8933 H   0  0  0  0  0  0
  -19.7988  -30.7217   24.2288 H   0  0  0  0  0  0
  -17.4998  -31.6229   24.5216 H   0  0  0  0  0  0
  -15.5342  -30.2957   23.7690 H   0  0  0  0  0  0
  -15.8680  -28.0873   22.7060 H   0  0  0  0  0  0
  -24.5843  -30.7149   25.7831 H   0  0  0  0  0  0
  -24.8874  -32.2955   26.4872 H   0  0  0  0  0  0
  -25.7933  -30.8991   27.0309 H   0  0  0  0  0  0
  -26.3060  -29.6674   24.1365 H   0  0  0  0  0  0
  -27.3949  -29.7272   25.5030 H   0  0  0  0  0  0
  -27.8993  -30.4212   23.9817 H   0  0  0  0  0  0
  -27.2665  -33.3654   26.2096 H   0  0  0  0  0  0
  -28.3849  -32.6899   25.0360 H   0  0  0  0  0  0
  -28.0742  -31.8507   26.5483 H   0  0  0  0  0  0
  -28.2621  -38.0107   24.7522 H   0  0  0  0  0  0
  -28.1089  -36.2646   24.6283 H   0  0  0  0  0  0
  -27.2316  -37.1441   25.8874 H   0  0  0  0  0  0
  -20.9498  -29.8872   21.6862 H   0  0  0  0  0  0
  -26.0202  -38.2867   24.1345 H   0  0  0  0  0  0
  -27.8862  -20.4747   22.2872 H   0  0  0  0  0  0
  -27.4205  -22.8929   22.1528 H   0  0  0  0  0  0
  -30.0949  -20.8394   18.6265 H   0  0  0  0  0  0
  -27.2632  -16.6176   19.7414 H   0  0  0  0  0  0
  -27.2034  -16.7762   18.0006 H   0  0  0  0  0  0
  -28.9284  -15.1854   18.3074 H   0  0  0  0  0  0
  -29.7791  -16.6196   18.0248 H   0  0  0  0  0  0
  -30.6900  -17.6116   21.3332 H   0  0  0  0  0  0
  -30.9218  -17.8443   19.6378 H   0  0  0  0  0  0
  -28.3265  -18.4159   21.1630 H   0  0  0  0  0  0
  -28.7131  -18.7638   18.1805 H   0  0  0  0  0  0
  -26.8026  -24.5300   20.2696 H   0  0  0  0  0  0
  -27.7746  -24.6767   18.8336 H   0  0  0  0  0  0
  -26.4482  -19.1823   18.1236 H   0  0  0  0  0  0
  -27.1346  -20.2022   19.1960 H   0  0  0  0  0  0
  -26.2344  -18.9477   19.7235 H   0  0  0  0  0  0
  1 25  1  0  0  0
  1 30  2  0  0  0
  1 83  1  0  0  0
  2  3  1  0  0  0
  2 25  1  0  0  0
  2 85  1  0  0  0
  2 86  1  0  0  0
  3  4  1  0  0  0
  3 87  1  0  0  0
  3 88  1  0  0  0
  4  5  1  0  0  0
  4 89  1  0  0  0
  4 90  1  0  0  0
  5  6  1  0  0  0
  5 26  1  0  0  0
  5 91  1  0  0  0
  6 25  1  0  0  0
  6 92  1  0  0  0
  6 93  1  0  0  0
  7  8  2  0  0  0
  7 26  1  0  0  0
  7 29  1  0  0  0
  8  9  1  0  0  0
  8 22  1  0  0  0
  9 10  1  0  0  0
  9 27  2  0  0  0
 10 11  2  0  0  0
 10 15  1  0  0  0
 11 12  1  0  0  0
 11 94  1  0  0  0
 12 13  2  0  0  0
 12 95  1  0  0  0
 13 14  1  0  0  0
 13 31  1  0  0  0
 14 15  2  0  0  0
 14 96  1  0  0  0
 15 97  1  0  0  0
 16 17  2  0  0  0
 16 21  1  0  0  0
 16 31  1  0  0  0
 17 18  1  0  0  0
 17 98  1  0  0  0
 18 19  2  0  0  0
 18 99  1  0  0  0
 19 20  1  0  0  0
 19 24  1  0  0  0
 20 21  2  0  0  0
 20100  1  0  0  0
 21 23  1  0  0  0
 22 28  1  0  0  0
 22 32  2  0  0  0
 26 27  1  0  0  0
 28101  1  0  0  0
 28102  1  0  0  0
 29103  1  0  0  0
 29104  1  0  0  0
 33 34  1  0  0  0
 33 66  1  0  0  0
 33 70  2  0  0  0
 34 36  1  0  0  0
 34 59  1  0  0  0
 34105  1  0  0  0
 35 44  2  0  0  0
 35 45  1  0  0  0
 35 68  1  0  0  0
 36 56  1  0  0  0
 36106  1  0  0  0
 37 39  1  0  0  0
 37 47  1  0  0  0
 37 66  1  0  0  0
 37107  1  0  0  0
 38 43  2  0  0  0
 38 46  1  0  0  0
 38 47  1  0  0  0
 39 64  1  0  0  0
 39 67  2  0  0  0
 40 52  1  0  0  0
 40 53  2  0  0  0
 40 58  1  0  0  0
 41108  1  0  0  0
 41109  1  0  0  0
 41110  1  0  0  0
 41 48  1  0  0  0
 42 43  1  0  0  0
 42 66  1  0  0  0
 42111  1  0  0  0
 42112  1  0  0  0
 43 44  1  0  0  0
 44113  1  0  0  0
 45 46  2  0  0  0
 45114  1  0  0  0
 46115  1  0  0  0
 47116  1  0  0  0
 47117  1  0  0  0
 48 56  1  0  0  0
 48 65  1  0  0  0
 48118  1  0  0  0
 49 50  1  0  0  0
 49 53  1  0  0  0
 49 64  1  0  0  0
 49119  1  0  0  0
 50 51  1  0  0  0
 50120  1  0  0  0
 50121  1  0  0  0
 51 52  1  0  0  0
 51122  1  0  0  0
 51123  1  0  0  0
 52124  1  0  0  0
 52125  1  0  0  0
 53 54  1  0  0  0
 54 55  2  0  0  0
 54126  1  0  0  0
 55 57  1  0  0  0
 55127  1  0  0  0
 56 69  2  0  0  0
 57 58  2  0  0  0
 57128  1  0  0  0
 58129  1  0  0  0
 59 60  1  0  0  0
 59 61  1  0  0  0
 59 62  1  0  0  0
 60130  1  0  0  0
 60131  1  0  0  0
 60132  1  0  0  0
 61133  1  0  0  0
 61134  1  0  0  0
 61135  1  0  0  0
 62136  1  0  0  0
 62137  1  0  0  0
 62138  1  0  0  0
 63 65  1  0  0  0
 63139  1  0  0  0
 63140  1  0  0  0
 63141  1  0  0  0
 64142  1  0  0  0
 65143  1  0  0  0
 68 81  1  0  0  0
 71 72  2  0  0  0
 71 74  1  0  0  0
 71144  1  0  0  0
 72 75  1  0  0  0
 72145  1  0  0  0
 73 74  2  0  0  0
 73 82  1  0  0  0
 73146  1  0  0  0
 74 79  1  0  0  0
 75 81  1  0  0  0
 75 82  2  0  0  0
 76 77  1  0  0  0
 76 80  1  0  0  0
 76147  1  0  0  0
 76148  1  0  0  0
 77 83  1  0  0  0
 77149  1  0  0  0
 77150  1  0  0  0
 78 79  1  0  0  0
 78 83  1  0  0  0
 78151  1  0  0  0
 78152  1  0  0  0
 79 80  1  0  0  0
 79153  1  0  0  0
 80 84  1  0  0  0
 80154  1  0  0  0
 81155  1  0  0  0
 81156  1  0  0  0
 84157  1  0  0  0
 84158  1  0  0  0
 84159  1  0  0  0
M  CHG  1  84   1
M  ISO  4   1 100  68 101  81 101  83 100
M  END
> <chiral flag>
0

> <version>
0

> <s_m_source_file>
/data/baiqing/PycharmProjects/Reinvent-master-3.2/result/LINK_invent/BTK/process_docking_weight1_custom_sum_contain_oxygen_bond_distance_aromatic_linkinvent_7_9_3/rearranged_h_0187.sdf

> <i_m_source_file_index>
79

> <r_mmod_Potential_Energy-OPLS-2005>
265.461486816406

> <r_mmod_Stretch_Energy-OPLS-2005>
197.353561401367

> <r_mmod_Bend_Energy-OPLS-2005>
246.526992797852

> <r_mmod_Torsional_Energy-OPLS-2005>
368.84521484375

> <r_mmod_Improper_Torsional_Energy-OPLS-2005>
18.1975383758545

> <r_mmod_Van_der_Waal_Energy-OPLS-2005>
159.530059814453

> <r_mmod_Electrostatic_Energy-OPLS-2005>
-398.479858398438

> <r_mmod_Solvation_Energy-OPLS-2005>
-512.918762207031

> <b_mmod_Minimization_Converged-OPLS-2005>
0

> <r_mmod_RMS_Derivative-OPLS-2005>
7.39582872390747

$$$$
79
                    3D
 Structure written by MMmdl.
157166  0  0  1  0            999 V2000
  -30.6105  -14.7631   20.4495 C   0  0  0  0  0  0
  -30.4404  -12.4669   19.4682 C   0  0  0  0  0  0
  -29.5100  -12.5021   18.2344 C   0  0  0  0  0  0
  -28.0349  -12.3307   18.6487 C   0  0  0  0  0  0
  -27.6439  -13.2274   19.8552 C   0  0  2  0  0  0
  -28.6950  -13.1409   20.9824 C   0  0  0  0  0  0
  -25.2544  -13.8173   20.5798 C   0  0  0  0  0  0
  -24.1808  -13.0411   20.9215 C   0  0  0  0  0  0
  -24.6406  -11.6886   20.8746 C   0  0  0  0  0  0
  -23.9084  -10.4273   21.0419 C   0  0  0  0  0  0
  -24.3635   -9.4185   21.9193 C   0  0  0  0  0  0
  -23.6297   -8.2232   22.0765 C   0  0  0  0  0  0
  -22.4280   -8.0272   21.3562 C   0  0  0  0  0  0
  -21.9916   -9.0254   20.4668 C   0  0  0  0  0  0
  -22.7251  -10.2126   20.3078 C   0  0  0  0  0  0
  -21.6857   -6.0736   22.5300 C   0  0  0  0  0  0
  -21.3994   -6.5644   23.8229 C   0  0  0  0  0  0
  -21.3661   -5.6799   24.9197 C   0  0  0  0  0  0
  -21.6047   -4.3065   24.7241 C   0  0  0  0  0  0
  -21.8819   -3.8150   23.4361 C   0  0  0  0  0  0
  -21.9193   -4.6960   22.3419 C   0  0  0  0  0  0
  -22.7842  -13.5211   21.1843 C   0  0  0  0  0  0
  -22.1654   -4.2147   21.0991 F   0  0  0  0  0  0
  -21.5648   -3.4538   25.7751 F   0  0  0  0  0  0
  -29.9839  -13.5311   20.3951 N   0  0  0  0  0  0
  -26.2965  -12.9384   20.3353 N   0  0  0  0  0  0
  -25.9337  -11.6511   20.5756 N   0  0  0  0  0  0
  -22.0464  -12.8264   22.0418 N   0  0  0  0  0  0
  -25.4168  -15.1908   20.4392 N   0  0  0  0  0  0
  -31.7902  -14.8405   20.0892 O   0  0  0  0  0  0
  -21.6633   -6.8865   21.4264 O   0  0  0  0  0  0
  -22.3553  -14.5521   20.6659 O   0  0  0  0  0  0
  -24.6344  -31.8482   23.1885 C   0  0  0  0  0  0
  -25.9176  -32.4709   23.8225 C   0  0  1  0  0  0
  -27.2232  -27.2273   20.1259 C   0  0  0  0  0  0
  -25.5998  -33.8509   24.2162 N   0  0  0  0  0  0
  -23.4311  -30.4700   21.5325 C   0  0  2  0  0  0
  -24.8793  -28.9086   20.0985 C   0  0  0  0  0  0
  -22.7521  -29.4576   22.4867 C   0  0  0  0  0  0
  -18.0300  -28.1399   22.8487 C   0  0  0  0  0  0
  -24.1499  -36.7208   23.2639 C   0  0  0  0  0  0
  -25.9793  -30.7498   21.3742 C   0  0  0  0  0  0
  -26.0476  -29.3708   20.7134 C   0  0  0  0  0  0
  -27.2160  -28.5399   20.7176 C   0  0  0  0  0  0
  -26.0315  -26.8330   19.4811 C   0  0  0  0  0  0
  -24.8808  -27.6507   19.4696 C   0  0  0  0  0  0
  -23.6480  -29.7972   20.1486 C   0  0  0  0  0  0
  -25.4128  -36.3009   24.0319 C   0  0  1  0  0  0
  -20.5903  -28.3713   23.1258 C   0  0  2  0  0  0
  -20.6773  -26.9433   22.5406 C   0  0  0  0  0  0
  -19.5751  -26.6381   21.5214 C   0  0  0  0  0  0
  -18.1934  -26.7940   22.1619 C   0  0  0  0  0  0
  -19.1558  -28.8875   23.2855 C   0  0  0  0  0  0
  -18.9483  -30.1479   23.8867 C   0  0  0  0  0  0
  -17.6469  -30.6593   24.0572 C   0  0  0  0  0  0
  -25.9085  -34.9417   23.5024 C   0  0  0  0  0  0
  -16.5364  -29.9099   23.6354 C   0  0  0  0  0  0
  -16.7285  -28.6513   23.0355 C   0  0  0  0  0  0
  -26.4539  -31.6575   25.0646 C   0  0  0  0  0  0
  -25.3721  -31.3800   26.1339 C   0  0  0  0  0  0
  -27.0349  -30.2958   24.6180 C   0  0  0  0  0  0
  -27.6082  -32.4342   25.7405 C   0  0  0  0  0  0
  -27.5577  -37.1756   24.8472 C   0  0  0  0  0  0
  -21.4220  -29.3037   22.3631 N   0  0  0  0  0  0
  -26.4273  -37.3743   23.9434 N   0  0  0  0  0  0
  -24.7009  -31.0429   22.0877 N   0  0  0  0  0  0
  -23.4207  -28.8143   23.3007 O   0  0  0  0  0  0
  -28.3283  -26.3435   20.2367 O   0  0  0  0  0  0
  -26.5638  -34.8937   22.4593 O   0  0  0  0  0  0
  -23.5495  -32.1331   23.7172 O   0  0  0  0  0  0
  -29.1994  -22.4248   19.9400 C   0  0  0  0  0  0
  -28.2963  -23.5545   20.1065 C   0  0  0  0  0  0
  -28.8011  -21.0874   20.3088 C   0  0  0  0  0  0
  -26.7863  -22.0106   20.9446 C   0  0  0  0  0  0
  -29.1306  -17.9176   21.8179 C   0  0  0  0  0  0
  -29.1112  -16.3596   21.7364 C   0  0  0  0  0  0
  -30.0608  -17.2333   19.7745 C   0  0  0  0  0  0
  -29.1733  -18.4208   20.3728 C   0  0  2  0  0  0
  -25.3876  -21.7383   21.4640 C   0  0  0  0  0  0
  -28.5141  -25.0352   19.4957 C   0  0  0  0  0  0
  -27.0806  -23.2791   20.6313 N   0  0  0  0  0  0
  -27.5666  -20.9346   20.8053 N   0  0  0  0  0  0
  -29.8446  -15.9355   20.5341 N   0  0  0  0  0  0
  -29.5986  -19.8773   20.1758 N   0  0  0  0  0  0
  -31.4755  -12.6018   19.1513 H   0  0  0  0  0  0
  -30.4084  -11.4892   19.9517 H   0  0  0  0  0  0
  -29.7929  -11.7227   17.5258 H   0  0  0  0  0  0
  -29.6297  -13.4513   17.7086 H   0  0  0  0  0  0
  -27.8870  -11.2810   18.9053 H   0  0  0  0  0  0
  -27.3772  -12.5255   17.8010 H   0  0  0  0  0  0
  -27.6420  -14.2538   19.4860 H   0  0  0  0  0  0
  -28.7465  -12.1255   21.3802 H   0  0  0  0  0  0
  -28.4272  -13.7712   21.8290 H   0  0  0  0  0  0
  -25.2777   -9.5654   22.4785 H   0  0  0  0  0  0
  -24.0007   -7.4623   22.7501 H   0  0  0  0  0  0
  -21.0836   -8.8779   19.8987 H   0  0  0  0  0  0
  -22.3703  -10.9682   19.6211 H   0  0  0  0  0  0
  -21.1956   -7.6149   23.9731 H   0  0  0  0  0  0
  -21.1491   -6.0526   25.9104 H   0  0  0  0  0  0
  -22.0585   -2.7610   23.2870 H   0  0  0  0  0  0
  -22.3979  -11.9899   22.4835 H   0  0  0  0  0  0
  -21.1118  -13.1386   22.2625 H   0  0  0  0  0  0
  -24.6497  -15.8307   20.6149 H   0  0  0  0  0  0
  -26.2911  -15.6591   20.2398 H   0  0  0  0  0  0
  -26.7247  -32.5297   23.0960 H   0  0  0  0  0  0
  -25.0272  -33.9669   25.0391 H   0  0  0  0  0  0
  -22.7254  -31.2882   21.3792 H   0  0  0  0  0  0
  -23.3787  -35.9510   23.3284 H   0  0  0  0  0  0
  -24.3590  -36.8823   22.2052 H   0  0  0  0  0  0
  -23.7223  -37.6399   23.6664 H   0  0  0  0  0  0
  -26.1298  -31.5124   20.6094 H   0  0  0  0  0  0
  -26.8527  -30.7864   22.0156 H   0  0  0  0  0  0
  -28.1061  -28.8878   21.2218 H   0  0  0  0  0  0
  -25.9538  -25.8583   19.0222 H   0  0  0  0  0  0
  -23.9870  -27.2880   18.9824 H   0  0  0  0  0  0
  -23.7630  -30.5675   19.3835 H   0  0  0  0  0  0
  -22.7646  -29.2283   19.8525 H   0  0  0  0  0  0
  -25.1320  -36.1805   25.0806 H   0  0  0  0  0  0
  -21.0001  -28.3268   24.1372 H   0  0  0  0  0  0
  -20.5656  -26.2325   23.3605 H   0  0  0  0  0  0
  -21.6645  -26.7432   22.1219 H   0  0  0  0  0  0
  -19.6906  -25.6283   21.1268 H   0  0  0  0  0  0
  -19.6699  -27.3182   20.6740 H   0  0  0  0  0  0
  -17.4213  -26.6724   21.4013 H   0  0  0  0  0  0
  -18.0315  -26.0070   22.8998 H   0  0  0  0  0  0
  -19.7961  -30.7307   24.2211 H   0  0  0  0  0  0
  -17.5037  -31.6286   24.5166 H   0  0  0  0  0  0
  -15.5366  -30.2980   23.7702 H   0  0  0  0  0  0
  -15.8687  -28.0823   22.7076 H   0  0  0  0  0  0
  -24.6036  -30.6973   25.7728 H   0  0  0  0  0  0
  -24.8751  -32.2969   26.4516 H   0  0  0  0  0  0
  -25.8027  -30.9239   27.0254 H   0  0  0  0  0  0
  -26.2927  -29.6715   24.1201 H   0  0  0  0  0  0
  -27.3983  -29.7250   25.4731 H   0  0  0  0  0  0
  -27.8839  -30.4178   23.9444 H   0  0  0  0  0  0
  -27.2721  -33.3726   26.1838 H   0  0  0  0  0  0
  -28.3965  -32.6755   25.0258 H   0  0  0  0  0  0
  -28.0667  -31.8531   26.5422 H   0  0  0  0  0  0
  -28.2594  -38.0060   24.7525 H   0  0  0  0  0  0
  -28.1069  -36.2587   24.6267 H   0  0  0  0  0  0
  -27.2295  -37.1359   25.8878 H   0  0  0  0  0  0
  -20.9415  -29.8762   21.6832 H   0  0  0  0  0  0
  -26.0109  -38.2792   24.1467 H   0  0  0  0  0  0
  -30.1693  -22.5872   19.4879 H   0  0  0  0  0  0
  -30.0293  -18.2379   22.3510 H   0  0  0  0  0  0
  -28.2683  -18.3084   22.3592 H   0  0  0  0  0  0
  -28.0802  -16.0184   21.6457 H   0  0  0  0  0  0
  -29.5306  -15.9101   22.6386 H   0  0  0  0  0  0
  -31.1196  -17.4907   19.8256 H   0  0  0  0  0  0
  -29.8235  -17.0763   18.7212 H   0  0  0  0  0  0
  -28.1652  -18.3226   19.9640 H   0  0  0  0  0  0
  -24.9032  -22.6461   21.8221 H   0  0  0  0  0  0
  -25.4024  -21.0170   22.2824 H   0  0  0  0  0  0
  -24.7681  -21.3178   20.6731 H   0  0  0  0  0  0
  -27.9857  -25.0814   18.5432 H   0  0  0  0  0  0
  -29.5624  -25.0577   19.1956 H   0  0  0  0  0  0
  -30.5388  -20.0112   19.8218 H   0  0  0  0  0  0
  1 25  1  0  0  0
  1 30  2  0  0  0
  1 83  1  0  0  0
  2  3  1  0  0  0
  2 25  1  0  0  0
  2 85  1  0  0  0
  2 86  1  0  0  0
  3  4  1  0  0  0
  3 87  1  0  0  0
  3 88  1  0  0  0
  4  5  1  0  0  0
  4 89  1  0  0  0
  4 90  1  0  0  0
  5  6  1  0  0  0
  5 26  1  0  0  0
  5 91  1  0  0  0
  6 25  1  0  0  0
  6 92  1  0  0  0
  6 93  1  0  0  0
  7  8  2  0  0  0
  7 26  1  0  0  0
  7 29  1  0  0  0
  8  9  1  0  0  0
  8 22  1  0  0  0
  9 10  1  0  0  0
  9 27  2  0  0  0
 10 11  2  0  0  0
 10 15  1  0  0  0
 11 12  1  0  0  0
 11 94  1  0  0  0
 12 13  2  0  0  0
 12 95  1  0  0  0
 13 14  1  0  0  0
 13 31  1  0  0  0
 14 15  2  0  0  0
 14 96  1  0  0  0
 15 97  1  0  0  0
 16 17  2  0  0  0
 16 21  1  0  0  0
 16 31  1  0  0  0
 17 18  1  0  0  0
 17 98  1  0  0  0
 18 19  2  0  0  0
 18 99  1  0  0  0
 19 20  1  0  0  0
 19 24  1  0  0  0
 20 21  2  0  0  0
 20100  1  0  0  0
 21 23  1  0  0  0
 22 28  1  0  0  0
 22 32  2  0  0  0
 26 27  1  0  0  0
 28101  1  0  0  0
 28102  1  0  0  0
 29103  1  0  0  0
 29104  1  0  0  0
 33 34  1  0  0  0
 33 66  1  0  0  0
 33 70  2  0  0  0
 34 36  1  0  0  0
 34 59  1  0  0  0
 34105  1  0  0  0
 35 44  2  0  0  0
 35 45  1  0  0  0
 35 68  1  0  0  0
 36 56  1  0  0  0
 36106  1  0  0  0
 37 39  1  0  0  0
 37 47  1  0  0  0
 37 66  1  0  0  0
 37107  1  0  0  0
 38 43  2  0  0  0
 38 46  1  0  0  0
 38 47  1  0  0  0
 39 64  1  0  0  0
 39 67  2  0  0  0
 40 52  1  0  0  0
 40 53  2  0  0  0
 40 58  1  0  0  0
 41108  1  0  0  0
 41109  1  0  0  0
 41110  1  0  0  0
 41 48  1  0  0  0
 42 43  1  0  0  0
 42 66  1  0  0  0
 42111  1  0  0  0
 42112  1  0  0  0
 43 44  1  0  0  0
 44113  1  0  0  0
 45 46  2  0  0  0
 45114  1  0  0  0
 46115  1  0  0  0
 47116  1  0  0  0
 47117  1  0  0  0
 48 56  1  0  0  0
 48 65  1  0  0  0
 48118  1  0  0  0
 49 50  1  0  0  0
 49 53  1  0  0  0
 49 64  1  0  0  0
 49119  1  0  0  0
 50 51  1  0  0  0
 50120  1  0  0  0
 50121  1  0  0  0
 51 52  1  0  0  0
 51122  1  0  0  0
 51123  1  0  0  0
 52124  1  0  0  0
 52125  1  0  0  0
 53 54  1  0  0  0
 54 55  2  0  0  0
 54126  1  0  0  0
 55 57  1  0  0  0
 55127  1  0  0  0
 56 69  2  0  0  0
 57 58  2  0  0  0
 57128  1  0  0  0
 58129  1  0  0  0
 59 60  1  0  0  0
 59 61  1  0  0  0
 59 62  1  0  0  0
 60130  1  0  0  0
 60131  1  0  0  0
 60132  1  0  0  0
 61133  1  0  0  0
 61134  1  0  0  0
 61135  1  0  0  0
 62136  1  0  0  0
 62137  1  0  0  0
 62138  1  0  0  0
 63 65  1  0  0  0
 63139  1  0  0  0
 63140  1  0  0  0
 63141  1  0  0  0
 64142  1  0  0  0
 65143  1  0  0  0
 68 80  1  0  0  0
 71 72  2  0  0  0
 71 73  1  0  0  0
 71144  1  0  0  0
 72 80  1  0  0  0
 72 81  1  0  0  0
 73 82  2  0  0  0
 73 84  1  0  0  0
 74 79  1  0  0  0
 74 81  2  0  0  0
 74 82  1  0  0  0
 75 76  1  0  0  0
 75 78  1  0  0  0
 75145  1  0  0  0
 75146  1  0  0  0
 76 83  1  0  0  0
 76147  1  0  0  0
 76148  1  0  0  0
 77 78  1  0  0  0
 77 83  1  0  0  0
 77149  1  0  0  0
 77150  1  0  0  0
 78 84  1  0  0  0
 78151  1  0  0  0
 79152  1  0  0  0
 79153  1  0  0  0
 79154  1  0  0  0
 80155  1  0  0  0
 80156  1  0  0  0
 84157  1  0  0  0
M  ISO  4   1 100  68 101  80 101  83 100
M  END
> <chiral flag>
0

> <version>
0

> <s_m_source_file>
/data/baiqing/PycharmProjects/Reinvent-master-3.2/result/LINK_invent/BTK/process_docking_weight1_custom_sum_contain_oxygen_bond_distance_aromatic_linkinvent_7_9_3/rearranged_h_0187.sdf

> <i_m_source_file_index>
80

> <r_mmod_Potential_Energy-OPLS-2005>
-150.082855224609

> <r_mmod_Stretch_Energy-OPLS-2005>
129.584671020508

> <r_mmod_Bend_Energy-OPLS-2005>
231.899261474609

> <r_mmod_Torsional_Energy-OPLS-2005>
305.114318847656

> <r_mmod_Improper_Torsional_Energy-OPLS-2005>
13.4388303756714

> <r_mmod_Van_der_Waal_Energy-OPLS-2005>
133.065795898438

> <r_mmod_Electrostatic_Energy-OPLS-2005>
-822.263122558594

> <r_mmod_Solvation_Energy-OPLS-2005>
-237.676284790039

> <b_mmod_Minimization_Converged-OPLS-2005>
0

> <r_mmod_RMS_Derivative-OPLS-2005>
3.86361837387085

$$$$
80
                    3D
 Structure written by MMmdl.
156165  0  0  1  0            999 V2000
  -30.3837  -15.4545   20.3545 C   0  0  0  0  0  0
  -30.4269  -12.9509   19.5339 C   0  0  0  0  0  0
  -29.5431  -12.6108   18.3053 C   0  0  0  0  0  0
  -28.1028  -12.2952   18.7408 C   0  0  0  0  0  0
  -27.6006  -13.2912   19.8146 C   0  0  2  0  0  0
  -28.6243  -13.5604   20.9389 C   0  0  0  0  0  0
  -25.2359  -13.8268   20.5764 C   0  0  0  0  0  0
  -24.1720  -13.0443   20.9235 C   0  0  0  0  0  0
  -24.6389  -11.6942   20.8744 C   0  0  0  0  0  0
  -23.9092  -10.4300   21.0395 C   0  0  0  0  0  0
  -24.3638   -9.4211   21.9177 C   0  0  0  0  0  0
  -23.6308   -8.2246   22.0752 C   0  0  0  0  0  0
  -22.4288   -8.0278   21.3545 C   0  0  0  0  0  0
  -21.9925   -9.0250   20.4644 C   0  0  0  0  0  0
  -22.7259  -10.2127   20.3048 C   0  0  0  0  0  0
  -21.6862   -6.0727   22.5270 C   0  0  0  0  0  0
  -21.4017   -6.5629   23.8199 C   0  0  0  0  0  0
  -21.3670   -5.6782   24.9164 C   0  0  0  0  0  0
  -21.6052   -4.3043   24.7220 C   0  0  0  0  0  0
  -21.8821   -3.8132   23.4341 C   0  0  0  0  0  0
  -21.9194   -4.6952   22.3395 C   0  0  0  0  0  0
  -22.7741  -13.5196   21.1868 C   0  0  0  0  0  0
  -22.1661   -4.2133   21.0975 F   0  0  0  0  0  0
  -21.5642   -3.4531   25.7737 F   0  0  0  0  0  0
  -29.8210  -14.1267   20.2861 N   0  0  0  0  0  0
  -26.2778  -12.9561   20.3218 N   0  0  0  0  0  0
  -25.9329  -11.6649   20.5703 N   0  0  0  0  0  0
  -22.0396  -12.8187   22.0424 N   0  0  0  0  0  0
  -25.4024  -15.2010   20.4256 N   0  0  0  0  0  0
  -31.6141  -15.3915   20.1817 O   0  0  0  0  0  0
  -21.6652   -6.8877   21.4236 O   0  0  0  0  0  0
  -22.3423  -14.5499   20.6703 O   0  0  0  0  0  0
  -24.6743  -31.8105   23.1609 C   0  0  0  0  0  0
  -25.9375  -32.4513   23.8109 C   0  0  1  0  0  0
  -27.2126  -26.8031   20.2062 C   0  0  0  0  0  0
  -25.5995  -33.8332   24.2008 N   0  0  0  0  0  0
  -23.4934  -30.4186   21.5120 C   0  0  2  0  0  0
  -24.9465  -28.7776   20.1196 C   0  0  0  0  0  0
  -22.7711  -29.4380   22.4733 C   0  0  0  0  0  0
  -18.0334  -28.1421   22.8456 C   0  0  0  0  0  0
  -24.1498  -36.7175   23.2647 C   0  0  0  0  0  0
  -26.0695  -30.5772   21.4088 C   0  0  0  0  0  0
  -26.1345  -29.1527   20.7580 C   0  0  0  0  0  0
  -27.2612  -28.1926   20.7682 C   0  0  0  0  0  0
  -25.9926  -26.6093   19.5175 C   0  0  0  0  0  0
  -24.9086  -27.5298   19.4762 C   0  0  0  0  0  0
  -23.7406  -29.7226   20.1438 C   0  0  0  0  0  0
  -25.4144  -36.2919   24.0285 C   0  0  1  0  0  0
  -20.5959  -28.3770   23.1163 C   0  0  2  0  0  0
  -20.6795  -26.9437   22.5397 C   0  0  0  0  0  0
  -19.5782  -26.6375   21.5201 C   0  0  0  0  0  0
  -18.1966  -26.7949   22.1612 C   0  0  0  0  0  0
  -19.1596  -28.8919   23.2793 C   0  0  0  0  0  0
  -18.9502  -30.1499   23.8840 C   0  0  0  0  0  0
  -17.6496  -30.6601   24.0549 C   0  0  0  0  0  0
  -25.9116  -34.9306   23.4979 C   0  0  0  0  0  0
  -16.5386  -29.9084   23.6347 C   0  0  0  0  0  0
  -16.7313  -28.6504   23.0368 C   0  0  0  0  0  0
  -26.4585  -31.6515   25.0692 C   0  0  0  0  0  0
  -25.3676  -31.3797   26.1324 C   0  0  0  0  0  0
  -27.0495  -30.2868   24.6516 C   0  0  0  0  0  0
  -27.6053  -32.4355   25.7501 C   0  0  0  0  0  0
  -27.5566  -37.1747   24.8465 C   0  0  0  0  0  0
  -21.4371  -29.3041   22.3494 N   0  0  0  0  0  0
  -26.4273  -37.3667   23.9402 N   0  0  0  0  0  0
  -24.7681  -30.9658   22.0799 N   0  0  0  0  0  0
  -23.4214  -28.7963   23.3019 O   0  0  0  0  0  0
  -28.1996  -25.6422   20.2360 O   0  0  0  0  0  0
  -26.5728  -34.8866   22.4578 O   0  0  0  0  0  0
  -23.5793  -32.1125   23.6643 O   0  0  0  0  0  0
  -29.0025  -22.5265   20.0122 C   0  0  0  0  0  0
  -29.3364  -21.0516   20.5802 C   0  0  0  0  0  0
  -30.1262  -23.0281   19.3245 C   0  0  0  0  0  0
  -31.5384  -21.7233   20.5369 C   0  0  0  0  0  0
  -29.3239  -17.9507   21.3025 C   0  0  0  0  0  0
  -30.0666  -18.1267   19.4905 C   0  0  0  0  0  0
  -29.1497  -19.2702   20.2842 C   0  0  0  0  0  0
  -32.9500  -21.4511   21.0060 C   0  0  0  0  0  0
  -29.1770  -24.1363   17.4577 C   0  0  0  0  0  0
  -27.9552  -23.9522   20.3520 C   0  0  0  0  0  0
  -30.5877  -20.9772   21.0702 N   0  0  0  0  0  0
  -31.3764  -22.6268   19.5877 N   0  0  0  0  0  0
  -29.6719  -16.8103   20.2721 N   0  0  0  0  0  0
  -30.0946  -24.1583   18.5463 O   0  0  0  0  0  0
  -30.5367  -12.0828   20.1860 H   0  0  0  0  0  0
  -31.4353  -13.1788   19.1862 H   0  0  0  0  0  0
  -29.9643  -11.7706   17.7516 H   0  0  0  0  0  0
  -29.5379  -13.4593   17.6190 H   0  0  0  0  0  0
  -28.0922  -11.2837   19.1471 H   0  0  0  0  0  0
  -27.4356  -12.2822   17.8780 H   0  0  0  0  0  0
  -27.4852  -14.2331   19.2758 H   0  0  0  0  0  0
  -28.8417  -12.6589   21.5135 H   0  0  0  0  0  0
  -28.2227  -14.2906   21.6434 H   0  0  0  0  0  0
  -25.2782   -9.5692   22.4752 H   0  0  0  0  0  0
  -24.0009   -7.4648   22.7484 H   0  0  0  0  0  0
  -21.0850   -8.8775   19.8967 H   0  0  0  0  0  0
  -22.3713  -10.9662   19.6154 H   0  0  0  0  0  0
  -21.2001   -7.6135   23.9697 H   0  0  0  0  0  0
  -21.1499   -6.0513   25.9069 H   0  0  0  0  0  0
  -22.0593   -2.7590   23.2841 H   0  0  0  0  0  0
  -22.4033  -11.9889   22.4872 H   0  0  0  0  0  0
  -21.1002  -13.1195   22.2610 H   0  0  0  0  0  0
  -24.6398  -15.8571   20.5538 H   0  0  0  0  0  0
  -26.2618  -15.6444   20.1258 H   0  0  0  0  0  0
  -26.7436  -32.5007   23.0807 H   0  0  0  0  0  0
  -25.0072  -33.9377   25.0116 H   0  0  0  0  0  0
  -22.8131  -31.2530   21.3310 H   0  0  0  0  0  0
  -23.3761  -35.9501   23.3277 H   0  0  0  0  0  0
  -24.3569  -36.8863   22.2067 H   0  0  0  0  0  0
  -23.7263  -37.6351   23.6739 H   0  0  0  0  0  0
  -26.2616  -31.3082   20.6228 H   0  0  0  0  0  0
  -26.9243  -30.6401   22.0695 H   0  0  0  0  0  0
  -28.1613  -28.4872   21.2893 H   0  0  0  0  0  0
  -25.8438  -25.6621   19.0187 H   0  0  0  0  0  0
  -24.0095  -27.2360   18.9528 H   0  0  0  0  0  0
  -23.9124  -30.4857   19.3839 H   0  0  0  0  0  0
  -22.8468  -29.1867   19.8191 H   0  0  0  0  0  0
  -25.1355  -36.1679   25.0770 H   0  0  0  0  0  0
  -21.0045  -28.3374   24.1290 H   0  0  0  0  0  0
  -20.5659  -26.2381   23.3642 H   0  0  0  0  0  0
  -21.6659  -26.7393   22.1221 H   0  0  0  0  0  0
  -19.6936  -25.6269   21.1276 H   0  0  0  0  0  0
  -19.6730  -27.3138   20.6696 H   0  0  0  0  0  0
  -17.4230  -26.6682   21.4021 H   0  0  0  0  0  0
  -18.0379  -26.0107   22.9033 H   0  0  0  0  0  0
  -19.7975  -30.7328   24.2184 H   0  0  0  0  0  0
  -17.5048  -31.6278   24.5164 H   0  0  0  0  0  0
  -15.5385  -30.2971   23.7706 H   0  0  0  0  0  0
  -15.8711  -28.0799   22.7125 H   0  0  0  0  0  0
  -24.5883  -30.7124   25.7629 H   0  0  0  0  0  0
  -24.8835  -32.3003   26.4588 H   0  0  0  0  0  0
  -25.7879  -30.9067   27.0208 H   0  0  0  0  0  0
  -26.3185  -29.6516   24.1506 H   0  0  0  0  0  0
  -27.3958  -29.7274   25.5215 H   0  0  0  0  0  0
  -27.9157  -30.4018   23.9999 H   0  0  0  0  0  0
  -27.2607  -33.3715   26.1908 H   0  0  0  0  0  0
  -28.3953  -32.6823   25.0397 H   0  0  0  0  0  0
  -28.0625  -31.8595   26.5556 H   0  0  0  0  0  0
  -28.2560  -38.0063   24.7497 H   0  0  0  0  0  0
  -28.1088  -36.2586   24.6316 H   0  0  0  0  0  0
  -27.2277  -37.1410   25.8866 H   0  0  0  0  0  0
  -20.9642  -29.8720   21.6601 H   0  0  0  0  0  0
  -26.0108  -38.2714   24.1410 H   0  0  0  0  0  0
  -30.1380  -18.1138   22.0126 H   0  0  0  0  0  0
  -28.4172  -17.7611   21.8763 H   0  0  0  0  0  0
  -29.8306  -18.0918   18.4264 H   0  0  0  0  0  0
  -31.1323  -18.3491   19.5794 H   0  0  0  0  0  0
  -28.1463  -19.1997   19.8643 H   0  0  0  0  0  0
  -33.0059  -21.5076   22.0933 H   0  0  0  0  0  0
  -33.6531  -22.1744   20.5931 H   0  0  0  0  0  0
  -33.2643  -20.4536   20.7004 H   0  0  0  0  0  0
  -28.9312  -25.1611   17.1790 H   0  0  0  0  0  0
  -28.2392  -23.6242   17.6745 H   0  0  0  0  0  0
  -29.6330  -23.6504   16.5941 H   0  0  0  0  0  0
  -27.6433  -23.8099   21.3865 H   0  0  0  0  0  0
  -27.0482  -23.7578   19.7801 H   0  0  0  0  0  0
  1 25  1  0  0  0
  1 30  2  0  0  0
  1 83  1  0  0  0
  2  3  1  0  0  0
  2 25  1  0  0  0
  2 85  1  0  0  0
  2 86  1  0  0  0
  3  4  1  0  0  0
  3 87  1  0  0  0
  3 88  1  0  0  0
  4  5  1  0  0  0
  4 89  1  0  0  0
  4 90  1  0  0  0
  5  6  1  0  0  0
  5 26  1  0  0  0
  5 91  1  0  0  0
  6 25  1  0  0  0
  6 92  1  0  0  0
  6 93  1  0  0  0
  7  8  2  0  0  0
  7 26  1  0  0  0
  7 29  1  0  0  0
  8  9  1  0  0  0
  8 22  1  0  0  0
  9 10  1  0  0  0
  9 27  2  0  0  0
 10 11  2  0  0  0
 10 15  1  0  0  0
 11 12  1  0  0  0
 11 94  1  0  0  0
 12 13  2  0  0  0
 12 95  1  0  0  0
 13 14  1  0  0  0
 13 31  1  0  0  0
 14 15  2  0  0  0
 14 96  1  0  0  0
 15 97  1  0  0  0
 16 17  2  0  0  0
 16 21  1  0  0  0
 16 31  1  0  0  0
 17 18  1  0  0  0
 17 98  1  0  0  0
 18 19  2  0  0  0
 18 99  1  0  0  0
 19 20  1  0  0  0
 19 24  1  0  0  0
 20 21  2  0  0  0
 20100  1  0  0  0
 21 23  1  0  0  0
 22 28  1  0  0  0
 22 32  2  0  0  0
 26 27  1  0  0  0
 28101  1  0  0  0
 28102  1  0  0  0
 29103  1  0  0  0
 29104  1  0  0  0
 33 34  1  0  0  0
 33 66  1  0  0  0
 33 70  2  0  0  0
 34 36  1  0  0  0
 34 59  1  0  0  0
 34105  1  0  0  0
 35 44  2  0  0  0
 35 45  1  0  0  0
 35 68  1  0  0  0
 36 56  1  0  0  0
 36106  1  0  0  0
 37 39  1  0  0  0
 37 47  1  0  0  0
 37 66  1  0  0  0
 37107  1  0  0  0
 38 43  2  0  0  0
 38 46  1  0  0  0
 38 47  1  0  0  0
 39 64  1  0  0  0
 39 67  2  0  0  0
 40 52  1  0  0  0
 40 53  2  0  0  0
 40 58  1  0  0  0
 41108  1  0  0  0
 41109  1  0  0  0
 41110  1  0  0  0
 41 48  1  0  0  0
 42 43  1  0  0  0
 42 66  1  0  0  0
 42111  1  0  0  0
 42112  1  0  0  0
 43 44  1  0  0  0
 44113  1  0  0  0
 45 46  2  0  0  0
 45114  1  0  0  0
 46115  1  0  0  0
 47116  1  0  0  0
 47117  1  0  0  0
 48 56  1  0  0  0
 48 65  1  0  0  0
 48118  1  0  0  0
 49 50  1  0  0  0
 49 53  1  0  0  0
 49 64  1  0  0  0
 49119  1  0  0  0
 50 51  1  0  0  0
 50120  1  0  0  0
 50121  1  0  0  0
 51 52  1  0  0  0
 51122  1  0  0  0
 51123  1  0  0  0
 52124  1  0  0  0
 52125  1  0  0  0
 53 54  1  0  0  0
 54 55  2  0  0  0
 54126  1  0  0  0
 55 57  1  0  0  0
 55127  1  0  0  0
 56 69  2  0  0  0
 57 58  2  0  0  0
 57128  1  0  0  0
 58129  1  0  0  0
 59 60  1  0  0  0
 59 61  1  0  0  0
 59 62  1  0  0  0
 60130  1  0  0  0
 60131  1  0  0  0
 60132  1  0  0  0
 61133  1  0  0  0
 61134  1  0  0  0
 61135  1  0  0  0
 62136  1  0  0  0
 62137  1  0  0  0
 62138  1  0  0  0
 63 65  1  0  0  0
 63139  1  0  0  0
 63140  1  0  0  0
 63141  1  0  0  0
 64142  1  0  0  0
 65143  1  0  0  0
 68 80  1  0  0  0
 71 72  1  0  0  0
 71 73  2  0  0  0
 71 80  1  0  0  0
 72 81  2  0  0  0
 72 77  1  0  0  0
 73 82  1  0  0  0
 73 84  1  0  0  0
 74 78  1  0  0  0
 74 81  1  0  0  0
 74 82  2  0  0  0
 75 77  1  0  0  0
 75 83  1  0  0  0
 75144  1  0  0  0
 75145  1  0  0  0
 76 77  1  0  0  0
 76 83  1  0  0  0
 76146  1  0  0  0
 76147  1  0  0  0
 77148  1  0  0  0
 78149  1  0  0  0
 78150  1  0  0  0
 78151  1  0  0  0
 79 84  1  0  0  0
 79152  1  0  0  0
 79153  1  0  0  0
 79154  1  0  0  0
 80155  1  0  0  0
 80156  1  0  0  0
M  ISO  4   1 100  68 101  80 101  83 100
M  END
> <chiral flag>
0

> <version>
0

> <s_m_source_file>
/data/baiqing/PycharmProjects/Reinvent-master-3.2/result/LINK_invent/BTK/process_docking_weight1_custom_sum_contain_oxygen_bond_distance_aromatic_linkinvent_7_9_3/rearranged_h_0187.sdf

> <i_m_source_file_index>
81

> <r_mmod_Potential_Energy-OPLS-2005>
1688.97998046875

> <r_mmod_Stretch_Energy-OPLS-2005>
776.189819335938

> <r_mmod_Bend_Energy-OPLS-2005>
599.803405761719

> <r_mmod_Torsional_Energy-OPLS-2005>
452.64599609375

> <r_mmod_Improper_Torsional_Energy-OPLS-2005>
36.5946502685547

> <r_mmod_Van_der_Waal_Energy-OPLS-2005>
133.804382324219

> <r_mmod_Electrostatic_Energy-OPLS-2005>
-742.810424804688

> <r_mmod_Solvation_Energy-OPLS-2005>
-234.901748657227

> <b_mmod_Minimization_Converged-OPLS-2005>
0

> <r_mmod_RMS_Derivative-OPLS-2005>
1.79943668842316

$$$$
81
                    3D
 Structure written by MMmdl.
162171  0  0  1  0            999 V2000
  -30.6725  -14.7410   20.4834 C   0  0  0  0  0  0
  -30.4198  -12.4663   19.4695 C   0  0  0  0  0  0
  -29.5003  -12.4960   18.2311 C   0  0  0  0  0  0
  -28.0345  -12.2944   18.6538 C   0  0  0  0  0  0
  -27.6315  -13.2171   19.8309 C   0  0  2  0  0  0
  -28.6786  -13.2057   20.9701 C   0  0  0  0  0  0
  -25.2476  -13.8147   20.5650 C   0  0  0  0  0  0
  -24.1782  -13.0409   20.9218 C   0  0  0  0  0  0
  -24.6369  -11.6888   20.8770 C   0  0  0  0  0  0
  -23.9047  -10.4279   21.0429 C   0  0  0  0  0  0
  -24.3605   -9.4196   21.9198 C   0  0  0  0  0  0
  -23.6280   -8.2233   22.0756 C   0  0  0  0  0  0
  -22.4262   -8.0274   21.3548 C   0  0  0  0  0  0
  -21.9901   -9.0247   20.4650 C   0  0  0  0  0  0
  -22.7228  -10.2126   20.3066 C   0  0  0  0  0  0
  -21.6847   -6.0729   22.5284 C   0  0  0  0  0  0
  -21.4007   -6.5635   23.8217 C   0  0  0  0  0  0
  -21.3656   -5.6787   24.9180 C   0  0  0  0  0  0
  -21.6046   -4.3051   24.7231 C   0  0  0  0  0  0
  -21.8819   -3.8142   23.4353 C   0  0  0  0  0  0
  -21.9188   -4.6957   22.3408 C   0  0  0  0  0  0
  -22.7813  -13.5206   21.1874 C   0  0  0  0  0  0
  -22.1661   -4.2143   21.0985 F   0  0  0  0  0  0
  -21.5629   -3.4534   25.7745 F   0  0  0  0  0  0
  -29.9787  -13.5508   20.3825 N   0  0  0  0  0  0
  -26.2881  -12.9329   20.3201 N   0  0  0  0  0  0
  -25.9287  -11.6492   20.5751 N   0  0  0  0  0  0
  -22.0454  -12.8210   22.0437 N   0  0  0  0  0  0
  -25.4107  -15.1860   20.3991 N   0  0  0  0  0  0
  -31.8668  -14.7515   20.1700 O   0  0  0  0  0  0
  -21.6627   -6.8870   21.4245 O   0  0  0  0  0  0
  -22.3516  -14.5519   20.6721 O   0  0  0  0  0  0
  -24.6308  -31.8564   23.1993 C   0  0  0  0  0  0
  -25.9136  -32.4764   23.8339 C   0  0  1  0  0  0
  -27.2200  -27.2780   20.1274 C   0  0  0  0  0  0
  -25.5941  -33.8566   24.2263 N   0  0  0  0  0  0
  -23.4253  -30.4801   21.5422 C   0  0  2  0  0  0
  -24.8715  -28.9299   20.1101 C   0  0  0  0  0  0
  -22.7485  -29.4610   22.4911 C   0  0  0  0  0  0
  -18.0293  -28.1389   22.8487 C   0  0  0  0  0  0
  -24.1486  -36.7285   23.2639 C   0  0  0  0  0  0
  -25.9695  -30.7772   21.3729 C   0  0  0  0  0  0
  -26.0430  -29.4000   20.7167 C   0  0  0  0  0  0
  -27.2206  -28.5879   20.7119 C   0  0  0  0  0  0
  -26.0236  -26.8727   19.4923 C   0  0  0  0  0  0
  -24.8663  -27.6738   19.4866 C   0  0  0  0  0  0
  -23.6419  -29.8151   20.1576 C   0  0  0  0  0  0
  -25.4110  -36.3069   24.0328 C   0  0  1  0  0  0
  -20.5894  -28.3699   23.1271 C   0  0  2  0  0  0
  -20.6774  -26.9420   22.5408 C   0  0  0  0  0  0
  -19.5752  -26.6387   21.5208 C   0  0  0  0  0  0
  -18.1933  -26.7931   22.1624 C   0  0  0  0  0  0
  -19.1546  -28.8858   23.2878 C   0  0  0  0  0  0
  -18.9467  -30.1454   23.8905 C   0  0  0  0  0  0
  -17.6468  -30.6592   24.0563 C   0  0  0  0  0  0
  -25.9049  -34.9444   23.5089 C   0  0  0  0  0  0
  -16.5357  -29.9094   23.6332 C   0  0  0  0  0  0
  -16.7279  -28.6507   23.0361 C   0  0  0  0  0  0
  -26.4513  -31.6585   25.0719 C   0  0  0  0  0  0
  -25.3745  -31.3737   26.1447 C   0  0  0  0  0  0
  -27.0348  -30.3005   24.6177 C   0  0  0  0  0  0
  -27.6067  -32.4319   25.7511 C   0  0  0  0  0  0
  -27.5571  -37.1796   24.8466 C   0  0  0  0  0  0
  -21.4193  -29.3050   22.3656 N   0  0  0  0  0  0
  -26.4281  -37.3771   23.9413 N   0  0  0  0  0  0
  -24.6949  -31.0544   22.0958 N   0  0  0  0  0  0
  -23.4188  -28.8145   23.3005 O   0  0  0  0  0  0
  -28.3216  -26.3954   20.1883 O   0  0  0  0  0  0
  -26.5616  -34.8920   22.4654 O   0  0  0  0  0  0
  -23.5463  -32.1377   23.7300 O   0  0  0  0  0  0
  -29.3228  -22.0267   18.1465 C   0  0  0  0  0  0
  -29.2743  -21.4605   19.4441 C   0  0  0  0  0  0
  -29.5190  -20.0103   19.4582 C   0  0  0  0  0  0
  -29.7557  -20.0397   17.1617 C   0  0  0  0  0  0
  -30.8801  -18.3878   20.7269 C   0  0  0  0  0  0
  -28.4915  -18.0561   20.5706 C   0  0  0  0  0  0
  -30.8255  -17.0346   21.5361 C   0  0  0  0  0  0
  -28.8638  -16.5430   20.2232 C   0  0  0  0  0  0
  -30.0283  -19.2418   15.9058 C   0  0  0  0  0  0
  -29.2442  -23.8715   20.4713 C   0  0  0  0  0  0
  -28.0771  -24.9184   20.0953 C   0  0  0  0  0  0
  -29.5627  -21.3365   17.0238 N   0  0  0  0  0  0
  -29.7373  -19.3662   18.2973 N   0  0  0  0  0  0
  -29.5745  -19.0727   20.5546 N   0  0  0  0  0  0
  -30.0624  -15.9377   20.8731 N   0  0  0  0  0  0
  -28.9739  -22.3698   20.5224 N   0  0  0  0  0  0
  -31.4607  -12.5705   19.1590 H   0  0  0  0  0  0
  -30.3595  -11.4994   19.9715 H   0  0  0  0  0  0
  -29.7948  -11.7213   17.5224 H   0  0  0  0  0  0
  -29.6076  -13.4482   17.7085 H   0  0  0  0  0  0
  -27.9170  -11.2501   18.9459 H   0  0  0  0  0  0
  -27.3690  -12.4491   17.8036 H   0  0  0  0  0  0
  -27.6008  -14.2085   19.3885 H   0  0  0  0  0  0
  -28.7250  -12.2249   21.4452 H   0  0  0  0  0  0
  -28.4048  -13.9134   21.7540 H   0  0  0  0  0  0
  -25.2755   -9.5665   22.4766 H   0  0  0  0  0  0
  -23.9988   -7.4618   22.7469 H   0  0  0  0  0  0
  -21.0834   -8.8765   19.8953 H   0  0  0  0  0  0
  -22.3694  -10.9663   19.6169 H   0  0  0  0  0  0
  -21.2000   -7.6144   23.9719 H   0  0  0  0  0  0
  -21.1476   -6.0520   25.9080 H   0  0  0  0  0  0
  -22.0600   -2.7603   23.2858 H   0  0  0  0  0  0
  -22.4057  -11.9869   22.4834 H   0  0  0  0  0  0
  -21.1079  -13.1254   22.2635 H   0  0  0  0  0  0
  -24.6366  -15.8335   20.5011 H   0  0  0  0  0  0
  -26.2450  -15.6217   20.0307 H   0  0  0  0  0  0
  -26.7199  -32.5421   23.1084 H   0  0  0  0  0  0
  -25.0124  -33.9713   25.0432 H   0  0  0  0  0  0
  -22.7215  -31.3022   21.3967 H   0  0  0  0  0  0
  -23.3748  -35.9616   23.3301 H   0  0  0  0  0  0
  -24.3577  -36.8906   22.2053 H   0  0  0  0  0  0
  -23.7239  -37.6488   23.6657 H   0  0  0  0  0  0
  -26.0978  -31.5366   20.6001 H   0  0  0  0  0  0
  -26.8520  -30.8327   21.9994 H   0  0  0  0  0  0
  -28.1176  -28.9441   21.1988 H   0  0  0  0  0  0
  -25.9508  -25.9138   19.0028 H   0  0  0  0  0  0
  -23.9685  -27.3101   19.0060 H   0  0  0  0  0  0
  -23.7663  -30.5917   19.4017 H   0  0  0  0  0  0
  -22.7594  -29.2498   19.8514 H   0  0  0  0  0  0
  -25.1290  -36.1914   25.0819 H   0  0  0  0  0  0
  -20.9999  -28.3276   24.1387 H   0  0  0  0  0  0
  -20.5654  -26.2318   23.3613 H   0  0  0  0  0  0
  -21.6642  -26.7429   22.1211 H   0  0  0  0  0  0
  -19.6905  -25.6293   21.1247 H   0  0  0  0  0  0
  -19.6684  -27.3188   20.6728 H   0  0  0  0  0  0
  -17.4197  -26.6685   21.4031 H   0  0  0  0  0  0
  -18.0332  -26.0072   22.9023 H   0  0  0  0  0  0
  -19.7940  -30.7267   24.2280 H   0  0  0  0  0  0
  -17.5025  -31.6273   24.5161 H   0  0  0  0  0  0
  -15.5358  -30.3006   23.7640 H   0  0  0  0  0  0
  -15.8679  -28.0821   22.7089 H   0  0  0  0  0  0
  -24.5933  -30.7061   25.7796 H   0  0  0  0  0  0
  -24.8930  -32.2912   26.4834 H   0  0  0  0  0  0
  -25.8083  -30.8959   27.0239 H   0  0  0  0  0  0
  -26.2918  -29.6771   24.1190 H   0  0  0  0  0  0
  -27.4034  -29.7251   25.4678 H   0  0  0  0  0  0
  -27.8794  -30.4302   23.9407 H   0  0  0  0  0  0
  -27.2668  -33.3625   26.2073 H   0  0  0  0  0  0
  -28.3906  -32.6861   25.0363 H   0  0  0  0  0  0
  -28.0703  -31.8450   26.5454 H   0  0  0  0  0  0
  -28.2588  -38.0094   24.7501 H   0  0  0  0  0  0
  -28.1063  -36.2621   24.6296 H   0  0  0  0  0  0
  -27.2289  -37.1456   25.8871 H   0  0  0  0  0  0
  -20.9363  -29.8802   21.6897 H   0  0  0  0  0  0
  -26.0153  -38.2839   24.1423 H   0  0  0  0  0  0
  -29.1460  -23.0790   17.9832 H   0  0  0  0  0  0
  -31.3548  -18.1933   19.7643 H   0  0  0  0  0  0
  -31.5457  -19.0811   21.2432 H   0  0  0  0  0  0
  -28.0669  -18.0774   21.5746 H   0  0  0  0  0  0
  -27.6781  -18.3763   19.9162 H   0  0  0  0  0  0
  -31.8476  -16.7130   21.7430 H   0  0  0  0  0  0
  -30.3851  -17.2120   22.5190 H   0  0  0  0  0  0
  -28.9717  -16.4393   19.1424 H   0  0  0  0  0  0
  -28.0025  -15.9532   20.5154 H   0  0  0  0  0  0
  -29.1869  -18.5848   15.6880 H   0  0  0  0  0  0
  -30.9193  -18.6264   16.0309 H   0  0  0  0  0  0
  -30.1867  -19.8900   15.0439 H   0  0  0  0  0  0
  -30.1024  -24.0609   19.8249 H   0  0  0  0  0  0
  -29.5971  -24.1452   21.4672 H   0  0  0  0  0  0
  -27.2194  -24.6871   20.7291 H   0  0  0  0  0  0
  -27.7673  -24.6984   19.0732 H   0  0  0  0  0  0
  -28.9539  -21.9515   21.4522 H   0  0  0  0  0  0
  1 25  1  0  0  0
  1 30  2  0  0  0
  1 85  1  0  0  0
  2  3  1  0  0  0
  2 25  1  0  0  0
  2 87  1  0  0  0
  2 88  1  0  0  0
  3  4  1  0  0  0
  3 89  1  0  0  0
  3 90  1  0  0  0
  4  5  1  0  0  0
  4 91  1  0  0  0
  4 92  1  0  0  0
  5  6  1  0  0  0
  5 26  1  0  0  0
  5 93  1  0  0  0
  6 25  1  0  0  0
  6 94  1  0  0  0
  6 95  1  0  0  0
  7  8  2  0  0  0
  7 26  1  0  0  0
  7 29  1  0  0  0
  8  9  1  0  0  0
  8 22  1  0  0  0
  9 10  1  0  0  0
  9 27  2  0  0  0
 10 11  2  0  0  0
 10 15  1  0  0  0
 11 12  1  0  0  0
 11 96  1  0  0  0
 12 13  2  0  0  0
 12 97  1  0  0  0
 13 14  1  0  0  0
 13 31  1  0  0  0
 14 15  2  0  0  0
 14 98  1  0  0  0
 15 99  1  0  0  0
 16 17  2  0  0  0
 16 21  1  0  0  0
 16 31  1  0  0  0
 17 18  1  0  0  0
 17100  1  0  0  0
 18 19  2  0  0  0
 18101  1  0  0  0
 19 20  1  0  0  0
 19 24  1  0  0  0
 20 21  2  0  0  0
 20102  1  0  0  0
 21 23  1  0  0  0
 22 28  1  0  0  0
 22 32  2  0  0  0
 26 27  1  0  0  0
 28103  1  0  0  0
 28104  1  0  0  0
 29105  1  0  0  0
 29106  1  0  0  0
 33 34  1  0  0  0
 33 66  1  0  0  0
 33 70  2  0  0  0
 34 36  1  0  0  0
 34 59  1  0  0  0
 34107  1  0  0  0
 35 44  2  0  0  0
 35 45  1  0  0  0
 35 68  1  0  0  0
 36 56  1  0  0  0
 36108  1  0  0  0
 37 39  1  0  0  0
 37 47  1  0  0  0
 37 66  1  0  0  0
 37109  1  0  0  0
 38 43  2  0  0  0
 38 46  1  0  0  0
 38 47  1  0  0  0
 39 64  1  0  0  0
 39 67  2  0  0  0
 40 52  1  0  0  0
 40 53  2  0  0  0
 40 58  1  0  0  0
 41110  1  0  0  0
 41111  1  0  0  0
 41112  1  0  0  0
 41 48  1  0  0  0
 42 43  1  0  0  0
 42 66  1  0  0  0
 42113  1  0  0  0
 42114  1  0  0  0
 43 44  1  0  0  0
 44115  1  0  0  0
 45 46  2  0  0  0
 45116  1  0  0  0
 46117  1  0  0  0
 47118  1  0  0  0
 47119  1  0  0  0
 48 56  1  0  0  0
 48 65  1  0  0  0
 48120  1  0  0  0
 49 50  1  0  0  0
 49 53  1  0  0  0
 49 64  1  0  0  0
 49121  1  0  0  0
 50 51  1  0  0  0
 50122  1  0  0  0
 50123  1  0  0  0
 51 52  1  0  0  0
 51124  1  0  0  0
 51125  1  0  0  0
 52126  1  0  0  0
 52127  1  0  0  0
 53 54  1  0  0  0
 54 55  2  0  0  0
 54128  1  0  0  0
 55 57  1  0  0  0
 55129  1  0  0  0
 56 69  2  0  0  0
 57 58  2  0  0  0
 57130  1  0  0  0
 58131  1  0  0  0
 59 60  1  0  0  0
 59 61  1  0  0  0
 59 62  1  0  0  0
 60132  1  0  0  0
 60133  1  0  0  0
 60134  1  0  0  0
 61135  1  0  0  0
 61136  1  0  0  0
 61137  1  0  0  0
 62138  1  0  0  0
 62139  1  0  0  0
 62140  1  0  0  0
 63 65  1  0  0  0
 63141  1  0  0  0
 63142  1  0  0  0
 63143  1  0  0  0
 64144  1  0  0  0
 65145  1  0  0  0
 68 81  1  0  0  0
 71 72  2  0  0  0
 71 82  1  0  0  0
 71146  1  0  0  0
 72 73  1  0  0  0
 72 86  1  0  0  0
 73 83  2  0  0  0
 73 84  1  0  0  0
 74 79  1  0  0  0
 74 82  2  0  0  0
 74 83  1  0  0  0
 75 77  1  0  0  0
 75 84  1  0  0  0
 75147  1  0  0  0
 75148  1  0  0  0
 76 78  1  0  0  0
 76 84  1  0  0  0
 76149  1  0  0  0
 76150  1  0  0  0
 77 85  1  0  0  0
 77151  1  0  0  0
 77152  1  0  0  0
 78 85  1  0  0  0
 78153  1  0  0  0
 78154  1  0  0  0
 79155  1  0  0  0
 79156  1  0  0  0
 79157  1  0  0  0
 80 81  1  0  0  0
 80 86  1  0  0  0
 80158  1  0  0  0
 80159  1  0  0  0
 81160  1  0  0  0
 81161  1  0  0  0
 86162  1  0  0  0
M  ISO  4   1 100  68 101  81 101  85 100
M  END
> <chiral flag>
0

> <version>
0

> <s_m_source_file>
/data/baiqing/PycharmProjects/Reinvent-master-3.2/result/LINK_invent/BTK/process_docking_weight1_custom_sum_contain_oxygen_bond_distance_aromatic_linkinvent_7_9_3/rearranged_h_0187.sdf

> <i_m_source_file_index>
82

> <r_mmod_Potential_Energy-OPLS-2005>
29.056547164917

> <r_mmod_Stretch_Energy-OPLS-2005>
117.254692077637

> <r_mmod_Bend_Energy-OPLS-2005>
203.605285644531

> <r_mmod_Torsional_Energy-OPLS-2005>
355.084686279297

> <r_mmod_Improper_Torsional_Energy-OPLS-2005>
10.4835710525513

> <r_mmod_Van_der_Waal_Energy-OPLS-2005>
170.306610107422

> <r_mmod_Electrostatic_Energy-OPLS-2005>
-667.388854980469

> <r_mmod_Solvation_Energy-OPLS-2005>
-243.498168945312

> <b_mmod_Minimization_Converged-OPLS-2005>
0

> <r_mmod_RMS_Derivative-OPLS-2005>
1.06321120262146

$$$$
82
                    3D
 Structure written by MMmdl.
148156  0  0  1  0            999 V2000
  -30.5000  -15.0937   20.4023 C   0  0  0  0  0  0
  -30.4386  -12.6898   19.5116 C   0  0  0  0  0  0
  -29.5273  -12.5494   18.2696 C   0  0  0  0  0  0
  -28.0678  -12.3077   18.6939 C   0  0  0  0  0  0
  -27.6197  -13.2641   19.8293 C   0  0  2  0  0  0
  -28.6577  -13.3677   20.9658 C   0  0  0  0  0  0
  -25.2435  -13.8249   20.5756 C   0  0  0  0  0  0
  -24.1759  -13.0445   20.9242 C   0  0  0  0  0  0
  -24.6394  -11.6936   20.8747 C   0  0  0  0  0  0
  -23.9083  -10.4296   21.0401 C   0  0  0  0  0  0
  -24.3625   -9.4210   21.9180 C   0  0  0  0  0  0
  -23.6297   -8.2248   22.0751 C   0  0  0  0  0  0
  -22.4278   -8.0286   21.3547 C   0  0  0  0  0  0
  -21.9919   -9.0259   20.4647 C   0  0  0  0  0  0
  -22.7252  -10.2137   20.3052 C   0  0  0  0  0  0
  -21.6856   -6.0736   22.5279 C   0  0  0  0  0  0
  -21.4020   -6.5638   23.8213 C   0  0  0  0  0  0
  -21.3660   -5.6792   24.9174 C   0  0  0  0  0  0
  -21.6041   -4.3053   24.7225 C   0  0  0  0  0  0
  -21.8818   -3.8147   23.4345 C   0  0  0  0  0  0
  -21.9193   -4.6965   22.3403 C   0  0  0  0  0  0
  -22.7777  -13.5206   21.1894 C   0  0  0  0  0  0
  -22.1661   -4.2151   21.0981 F   0  0  0  0  0  0
  -21.5626   -3.4536   25.7737 F   0  0  0  0  0  0
  -29.9115  -13.8171   20.3483 N   0  0  0  0  0  0
  -26.2846  -12.9498   20.3235 N   0  0  0  0  0  0
  -25.9328  -11.6611   20.5719 N   0  0  0  0  0  0
  -22.0424  -12.8192   22.0446 N   0  0  0  0  0  0
  -25.4136  -15.1982   20.4266 N   0  0  0  0  0  0
  -31.7160  -15.1128   20.1695 O   0  0  0  0  0  0
  -21.6644   -6.8882   21.4240 O   0  0  0  0  0  0
  -22.3460  -14.5505   20.6729 O   0  0  0  0  0  0
  -24.6535  -31.8336   23.1797 C   0  0  0  0  0  0
  -25.9263  -32.4644   23.8225 C   0  0  1  0  0  0
  -27.2164  -27.0330   20.1746 C   0  0  0  0  0  0
  -25.5968  -33.8454   24.2139 N   0  0  0  0  0  0
  -23.4627  -30.4494   21.5259 C   0  0  2  0  0  0
  -24.9145  -28.8564   20.1109 C   0  0  0  0  0  0
  -22.7622  -29.4493   22.4814 C   0  0  0  0  0  0
  -18.0316  -28.1404   22.8482 C   0  0  0  0  0  0
  -24.1488  -36.7231   23.2646 C   0  0  0  0  0  0
  -26.0255  -30.6760   21.3931 C   0  0  0  0  0  0
  -26.0950  -29.2763   20.7368 C   0  0  0  0  0  0
  -27.2452  -28.3842   20.7441 C   0  0  0  0  0  0
  -26.0076  -26.7367   19.5075 C   0  0  0  0  0  0
  -24.8903  -27.6045   19.4769 C   0  0  0  0  0  0
  -23.6964  -29.7718   20.1487 C   0  0  0  0  0  0
  -25.4125  -36.3005   24.0310 C   0  0  1  0  0  0
  -20.5937  -28.3744   23.1212 C   0  0  2  0  0  0
  -20.6797  -26.9436   22.5404 C   0  0  0  0  0  0
  -19.5766  -26.6388   21.5220 C   0  0  0  0  0  0
  -18.1950  -26.7942   22.1636 C   0  0  0  0  0  0
  -19.1575  -28.8894   23.2837 C   0  0  0  0  0  0
  -18.9483  -30.1487   23.8869 C   0  0  0  0  0  0
  -17.6478  -30.6596   24.0562 C   0  0  0  0  0  0
  -25.9083  -34.9380   23.5041 C   0  0  0  0  0  0
  -16.5370  -29.9087   23.6340 C   0  0  0  0  0  0
  -16.7298  -28.6507   23.0366 C   0  0  0  0  0  0
  -26.4548  -31.6548   25.0709 C   0  0  0  0  0  0
  -25.3702  -31.3774   26.1386 C   0  0  0  0  0  0
  -27.0430  -30.2928   24.6369 C   0  0  0  0  0  0
  -27.6050  -32.4342   25.7511 C   0  0  0  0  0  0
  -27.5568  -37.1780   24.8473 C   0  0  0  0  0  0
  -21.4301  -29.3050   22.3564 N   0  0  0  0  0  0
  -26.4286  -37.3724   23.9405 N   0  0  0  0  0  0
  -24.7343  -31.0104   22.0874 N   0  0  0  0  0  0
  -23.4220  -28.8054   23.3012 O   0  0  0  0  0  0
  -28.2451  -25.9906   20.2531 O   0  0  0  0  0  0
  -26.5676  -34.8891   22.4626 O   0  0  0  0  0  0
  -23.5631  -32.1260   23.6953 O   0  0  0  0  0  0
  -29.5589  -20.2581   20.4013 C   0  0  0  0  0  0
  -29.7974  -17.4991   19.4369 C   0  0  0  0  0  0
  -29.8371  -17.5222   21.4123 C   0  0  0  0  0  0
  -29.1531  -18.5958   20.4217 C   0  0  0  0  0  0
  -29.0250  -23.0393   20.4007 C   0  0  0  0  0  0
  -27.9768  -24.4116   20.1396 C   0  0  0  0  0  0
  -29.7358  -16.3363   20.4409 N   0  0  0  0  0  0
  -28.7165  -21.4393   20.3310 N   0  0  0  0  0  0
  -30.7677  -20.4806   20.4749 O   0  0  0  0  0  0
  -31.4669  -12.8661   19.1928 H   0  0  0  0  0  0
  -30.4632  -11.7617   20.0852 H   0  0  0  0  0  0
  -29.8748  -11.7350   17.6324 H   0  0  0  0  0  0
  -29.5876  -13.4581   17.6683 H   0  0  0  0  0  0
  -27.9942  -11.2748   19.0363 H   0  0  0  0  0  0
  -27.4005  -12.3936   17.8356 H   0  0  0  0  0  0
  -27.5590  -14.2498   19.3659 H   0  0  0  0  0  0
  -28.7815  -12.4163   21.4852 H   0  0  0  0  0  0
  -28.3318  -14.0934   21.7128 H   0  0  0  0  0  0
  -25.2761   -9.5693   22.4762 H   0  0  0  0  0  0
  -24.0004   -7.4641   22.7471 H   0  0  0  0  0  0
  -21.0849   -8.8779   19.8954 H   0  0  0  0  0  0
  -22.3703  -10.9673   19.6165 H   0  0  0  0  0  0
  -21.2017   -7.6148   23.9719 H   0  0  0  0  0  0
  -21.1483   -6.0521   25.9078 H   0  0  0  0  0  0
  -22.0596   -2.7610   23.2845 H   0  0  0  0  0  0
  -22.4045  -11.9860   22.4843 H   0  0  0  0  0  0
  -21.1032  -13.1212   22.2632 H   0  0  0  0  0  0
  -24.6558  -15.8582   20.5641 H   0  0  0  0  0  0
  -26.2821  -15.6411   20.1522 H   0  0  0  0  0  0
  -26.7330  -32.5217   23.0945 H   0  0  0  0  0  0
  -25.0093  -33.9548   25.0277 H   0  0  0  0  0  0
  -22.7711  -31.2785   21.3626 H   0  0  0  0  0  0
  -23.3755  -35.9559   23.3301 H   0  0  0  0  0  0
  -24.3565  -36.8874   22.2062 H   0  0  0  0  0  0
  -23.7238  -37.6421   23.6691 H   0  0  0  0  0  0
  -26.1933  -31.4235   20.6167 H   0  0  0  0  0  0
  -26.8911  -30.7304   22.0416 H   0  0  0  0  0  0
  -28.1425  -28.7019   21.2563 H   0  0  0  0  0  0
  -25.8942  -25.7776   19.0244 H   0  0  0  0  0  0
  -23.9909  -27.2780   18.9733 H   0  0  0  0  0  0
  -23.8432  -30.5425   19.3909 H   0  0  0  0  0  0
  -22.8089  -29.2195   19.8340 H   0  0  0  0  0  0
  -25.1317  -36.1825   25.0803 H   0  0  0  0  0  0
  -21.0036  -28.3344   24.1334 H   0  0  0  0  0  0
  -20.5693  -26.2361   23.3634 H   0  0  0  0  0  0
  -21.6655  -26.7427   22.1196 H   0  0  0  0  0  0
  -19.6918  -25.6293   21.1268 H   0  0  0  0  0  0
  -19.6692  -27.3180   20.6733 H   0  0  0  0  0  0
  -17.4215  -26.6695   21.4040 H   0  0  0  0  0  0
  -18.0340  -26.0088   22.9036 H   0  0  0  0  0  0
  -19.7956  -30.7314   24.2230 H   0  0  0  0  0  0
  -17.5026  -31.6273   24.5166 H   0  0  0  0  0  0
  -15.5368  -30.2978   23.7673 H   0  0  0  0  0  0
  -15.8705  -28.0808   22.7104 H   0  0  0  0  0  0
  -24.5894  -30.7105   25.7709 H   0  0  0  0  0  0
  -24.8881  -32.2970   26.4712 H   0  0  0  0  0  0
  -25.7966  -30.9018   27.0228 H   0  0  0  0  0  0
  -26.3075  -29.6630   24.1354 H   0  0  0  0  0  0
  -27.3975  -29.7260   25.4988 H   0  0  0  0  0  0
  -27.9010  -30.4136   23.9753 H   0  0  0  0  0  0
  -27.2619  -33.3675   26.1988 H   0  0  0  0  0  0
  -28.3919  -32.6853   25.0385 H   0  0  0  0  0  0
  -28.0651  -31.8536   26.5517 H   0  0  0  0  0  0
  -28.2590  -38.0071   24.7492 H   0  0  0  0  0  0
  -28.1059  -36.2597   24.6337 H   0  0  0  0  0  0
  -27.2279  -37.1466   25.8875 H   0  0  0  0  0  0
  -20.9534  -29.8752   21.6714 H   0  0  0  0  0  0
  -26.0145  -38.2795   24.1390 H   0  0  0  0  0  0
  -29.1809  -17.3353   18.5523 H   0  0  0  0  0  0
  -30.8121  -17.7534   19.1206 H   0  0  0  0  0  0
  -29.2580  -17.3811   22.3257 H   0  0  0  0  0  0
  -30.8638  -17.7825   21.6830 H   0  0  0  0  0  0
  -28.0683  -18.4896   20.4448 H   0  0  0  0  0  0
  -29.4364  -23.1823   21.4004 H   0  0  0  0  0  0
  -29.8797  -23.1862   19.7396 H   0  0  0  0  0  0
  -27.1149  -24.2409   20.7846 H   0  0  0  0  0  0
  -27.5917  -24.2741   19.1297 H   0  0  0  0  0  0
  -27.7290  -21.2234   20.2732 H   0  0  0  0  0  0
  1 25  1  0  0  0
  1 30  2  0  0  0
  1 77  1  0  0  0
  2  3  1  0  0  0
  2 25  1  0  0  0
  2 80  1  0  0  0
  2 81  1  0  0  0
  3  4  1  0  0  0
  3 82  1  0  0  0
  3 83  1  0  0  0
  4  5  1  0  0  0
  4 84  1  0  0  0
  4 85  1  0  0  0
  5  6  1  0  0  0
  5 26  1  0  0  0
  5 86  1  0  0  0
  6 25  1  0  0  0
  6 87  1  0  0  0
  6 88  1  0  0  0
  7  8  2  0  0  0
  7 26  1  0  0  0
  7 29  1  0  0  0
  8  9  1  0  0  0
  8 22  1  0  0  0
  9 10  1  0  0  0
  9 27  2  0  0  0
 10 11  2  0  0  0
 10 15  1  0  0  0
 11 12  1  0  0  0
 11 89  1  0  0  0
 12 13  2  0  0  0
 12 90  1  0  0  0
 13 14  1  0  0  0
 13 31  1  0  0  0
 14 15  2  0  0  0
 14 91  1  0  0  0
 15 92  1  0  0  0
 16 17  2  0  0  0
 16 21  1  0  0  0
 16 31  1  0  0  0
 17 18  1  0  0  0
 17 93  1  0  0  0
 18 19  2  0  0  0
 18 94  1  0  0  0
 19 20  1  0  0  0
 19 24  1  0  0  0
 20 21  2  0  0  0
 20 95  1  0  0  0
 21 23  1  0  0  0
 22 28  1  0  0  0
 22 32  2  0  0  0
 26 27  1  0  0  0
 28 96  1  0  0  0
 28 97  1  0  0  0
 29 98  1  0  0  0
 29 99  1  0  0  0
 33 34  1  0  0  0
 33 66  1  0  0  0
 33 70  2  0  0  0
 34 36  1  0  0  0
 34 59  1  0  0  0
 34100  1  0  0  0
 35 44  2  0  0  0
 35 45  1  0  0  0
 35 68  1  0  0  0
 36 56  1  0  0  0
 36101  1  0  0  0
 37 39  1  0  0  0
 37 47  1  0  0  0
 37 66  1  0  0  0
 37102  1  0  0  0
 38 43  2  0  0  0
 38 46  1  0  0  0
 38 47  1  0  0  0
 39 64  1  0  0  0
 39 67  2  0  0  0
 40 52  1  0  0  0
 40 53  2  0  0  0
 40 58  1  0  0  0
 41103  1  0  0  0
 41104  1  0  0  0
 41105  1  0  0  0
 41 48  1  0  0  0
 42 43  1  0  0  0
 42 66  1  0  0  0
 42106  1  0  0  0
 42107  1  0  0  0
 43 44  1  0  0  0
 44108  1  0  0  0
 45 46  2  0  0  0
 45109  1  0  0  0
 46110  1  0  0  0
 47111  1  0  0  0
 47112  1  0  0  0
 48 56  1  0  0  0
 48 65  1  0  0  0
 48113  1  0  0  0
 49 50  1  0  0  0
 49 53  1  0  0  0
 49 64  1  0  0  0
 49114  1  0  0  0
 50 51  1  0  0  0
 50115  1  0  0  0
 50116  1  0  0  0
 51 52  1  0  0  0
 51117  1  0  0  0
 51118  1  0  0  0
 52119  1  0  0  0
 52120  1  0  0  0
 53 54  1  0  0  0
 54 55  2  0  0  0
 54121  1  0  0  0
 55 57  1  0  0  0
 55122  1  0  0  0
 56 69  2  0  0  0
 57 58  2  0  0  0
 57123  1  0  0  0
 58124  1  0  0  0
 59 60  1  0  0  0
 59 61  1  0  0  0
 59 62  1  0  0  0
 60125  1  0  0  0
 60126  1  0  0  0
 60127  1  0  0  0
 61128  1  0  0  0
 61129  1  0  0  0
 61130  1  0  0  0
 62131  1  0  0  0
 62132  1  0  0  0
 62133  1  0  0  0
 63 65  1  0  0  0
 63134  1  0  0  0
 63135  1  0  0  0
 63136  1  0  0  0
 64137  1  0  0  0
 65138  1  0  0  0
 68 76  1  0  0  0
 71 78  1  0  0  0
 71 79  2  0  0  0
 71 74  1  0  0  0
 72 74  1  0  0  0
 72 77  1  0  0  0
 72139  1  0  0  0
 72140  1  0  0  0
 73 74  1  0  0  0
 73 77  1  0  0  0
 73141  1  0  0  0
 73142  1  0  0  0
 74143  1  0  0  0
 75 76  1  0  0  0
 75 78  1  0  0  0
 75144  1  0  0  0
 75145  1  0  0  0
 76146  1  0  0  0
 76147  1  0  0  0
 78148  1  0  0  0
M  ISO  4   1 100  68 101  76 101  77 100
M  END
> <chiral flag>
0

> <version>
0

> <s_m_source_file>
/data/baiqing/PycharmProjects/Reinvent-master-3.2/result/LINK_invent/BTK/process_docking_weight1_custom_sum_contain_oxygen_bond_distance_aromatic_linkinvent_7_9_3/rearranged_h_0187.sdf

> <i_m_source_file_index>
83

> <r_mmod_Potential_Energy-OPLS-2005>
788.837585449219

> <r_mmod_Stretch_Energy-OPLS-2005>
377.022369384766

> <r_mmod_Bend_Energy-OPLS-2005>
338.547485351562

> <r_mmod_Torsional_Energy-OPLS-2005>
253.05256652832

> <r_mmod_Improper_Torsional_Energy-OPLS-2005>
13.3481664657593

> <r_mmod_Van_der_Waal_Energy-OPLS-2005>
108.920013427734

> <r_mmod_Electrostatic_Energy-OPLS-2005>
-365.391906738281

> <r_mmod_Solvation_Energy-OPLS-2005>
-240.803482055664

> <b_mmod_Minimization_Converged-OPLS-2005>
0

> <r_mmod_RMS_Derivative-OPLS-2005>
1.15381288528442

$$$$
83
                    3D
 Structure written by MMmdl.
162171  0  0  1  0            999 V2000
  -30.7299  -14.4845   20.6002 C   0  0  0  0  0  0
  -30.4154  -12.3234   19.4310 C   0  0  0  0  0  0
  -29.4914  -12.5061   18.2106 C   0  0  0  0  0  0
  -28.0150  -12.3588   18.6258 C   0  0  0  0  0  0
  -27.6560  -13.2118   19.8720 C   0  0  2  0  0  0
  -28.6975  -13.0185   20.9961 C   0  0  0  0  0  0
  -25.2558  -13.8171   20.5688 C   0  0  0  0  0  0
  -24.1808  -13.0446   20.9179 C   0  0  0  0  0  0
  -24.6367  -11.6913   20.8735 C   0  0  0  0  0  0
  -23.9038  -10.4300   21.0412 C   0  0  0  0  0  0
  -24.3601   -9.4217   21.9186 C   0  0  0  0  0  0
  -23.6280   -8.2250   22.0755 C   0  0  0  0  0  0
  -22.4270   -8.0280   21.3545 C   0  0  0  0  0  0
  -21.9892   -9.0249   20.4644 C   0  0  0  0  0  0
  -22.7217  -10.2135   20.3057 C   0  0  0  0  0  0
  -21.6853   -6.0736   22.5292 C   0  0  0  0  0  0
  -21.4009   -6.5631   23.8218 C   0  0  0  0  0  0
  -21.3658   -5.6787   24.9180 C   0  0  0  0  0  0
  -21.6046   -4.3048   24.7225 C   0  0  0  0  0  0
  -21.8817   -3.8143   23.4351 C   0  0  0  0  0  0
  -21.9179   -4.6959   22.3409 C   0  0  0  0  0  0
  -22.7828  -13.5251   21.1856 C   0  0  0  0  0  0
  -22.1650   -4.2156   21.0986 F   0  0  0  0  0  0
  -21.5631   -3.4530   25.7741 F   0  0  0  0  0  0
  -30.0264  -13.3248   20.4424 N   0  0  0  0  0  0
  -26.2982  -12.9343   20.3361 N   0  0  0  0  0  0
  -25.9297  -11.6501   20.5779 N   0  0  0  0  0  0
  -22.0459  -12.8247   22.0415 N   0  0  0  0  0  0
  -25.4293  -15.1889   20.4107 N   0  0  0  0  0  0
  -31.8330  -14.6500   20.0718 O   0  0  0  0  0  0
  -21.6636   -6.8873   21.4251 O   0  0  0  0  0  0
  -22.3530  -14.5567   20.6714 O   0  0  0  0  0  0
  -24.6176  -31.8666   23.2102 C   0  0  0  0  0  0
  -25.9058  -32.4815   23.8412 C   0  0  1  0  0  0
  -27.2261  -27.4061   20.1083 C   0  0  0  0  0  0
  -25.5910  -33.8617   24.2344 N   0  0  0  0  0  0
  -23.4069  -30.4919   21.5500 C   0  0  2  0  0  0
  -24.8532  -28.9593   20.1131 C   0  0  0  0  0  0
  -22.7422  -29.4658   22.4976 C   0  0  0  0  0  0
  -18.0274  -28.1382   22.8499 C   0  0  0  0  0  0
  -24.1481  -36.7308   23.2636 C   0  0  0  0  0  0
  -25.9391  -30.8250   21.3681 C   0  0  0  0  0  0
  -26.0163  -29.4584   20.7142 C   0  0  0  0  0  0
  -27.2083  -28.6909   20.7067 C   0  0  0  0  0  0
  -26.0506  -26.9438   19.4756 C   0  0  0  0  0  0
  -24.8670  -27.7023   19.4880 C   0  0  0  0  0  0
  -23.6171  -29.8282   20.1638 C   0  0  0  0  0  0
  -25.4096  -36.3106   24.0342 C   0  0  1  0  0  0
  -20.5864  -28.3669   23.1304 C   0  0  2  0  0  0
  -20.6758  -26.9403   22.5413 C   0  0  0  0  0  0
  -19.5736  -26.6386   21.5212 C   0  0  0  0  0  0
  -18.1915  -26.7927   22.1627 C   0  0  0  0  0  0
  -19.1525  -28.8841   23.2902 C   0  0  0  0  0  0
  -18.9450  -30.1445   23.8922 C   0  0  0  0  0  0
  -17.6450  -30.6582   24.0574 C   0  0  0  0  0  0
  -25.9032  -34.9472   23.5138 C   0  0  0  0  0  0
  -16.5343  -29.9090   23.6327 C   0  0  0  0  0  0
  -16.7257  -28.6503   23.0352 C   0  0  0  0  0  0
  -26.4476  -31.6593   25.0744 C   0  0  0  0  0  0
  -25.3753  -31.3701   26.1507 C   0  0  0  0  0  0
  -27.0292  -30.3022   24.6132 C   0  0  0  0  0  0
  -27.6068  -32.4300   25.7490 C   0  0  0  0  0  0
  -27.5581  -37.1802   24.8463 C   0  0  0  0  0  0
  -21.4148  -29.3041   22.3717 N   0  0  0  0  0  0
  -26.4279  -37.3796   23.9428 N   0  0  0  0  0  0
  -24.6725  -31.0757   22.1013 N   0  0  0  0  0  0
  -23.4182  -28.8193   23.3021 O   0  0  0  0  0  0
  -28.3598  -26.6109   20.1329 O   0  0  0  0  0  0
  -26.5598  -34.8920   22.4703 O   0  0  0  0  0  0
  -23.5358  -32.1425   23.7488 O   0  0  0  0  0  0
  -27.9183  -20.7107   20.1689 C   0  0  0  0  0  0
  -30.8596  -16.8533   22.5889 C   0  0  0  0  0  0
  -27.7438  -22.2348   20.0185 C   0  0  0  0  0  0
  -29.9340  -15.6459   22.6398 C   0  0  0  0  0  0
  -29.9634  -21.8694   20.5688 C   0  0  0  0  0  0
  -29.2755  -20.5119   20.8527 C   0  0  2  0  0  0
  -30.5507  -16.9569   21.0986 C   0  0  2  0  0  0
  -29.4692  -17.9639   20.6234 C   0  0  0  0  0  0
  -29.2024  -24.2146   20.2222 C   0  0  0  0  0  0
  -28.1571  -25.2791   20.6710 C   0  0  0  0  0  0
  -30.0882  -15.5376   21.1822 N   0  0  0  0  0  0
  -28.8810  -22.8517   20.7079 N   0  0  0  0  0  0
  -30.0476  -19.3215   20.3824 N   0  3  0  0  0  0
  -31.4622  -12.4082   19.1319 H   0  0  0  0  0  0
  -30.3094  -11.3180   19.8415 H   0  0  0  0  0  0
  -29.7373  -11.7746   17.4386 H   0  0  0  0  0  0
  -29.6545  -13.4887   17.7655 H   0  0  0  0  0  0
  -27.8386  -11.3037   18.8389 H   0  0  0  0  0  0
  -27.3590  -12.6121   17.7923 H   0  0  0  0  0  0
  -27.6924  -14.2565   19.5618 H   0  0  0  0  0  0
  -28.6784  -11.9917   21.3630 H   0  0  0  0  0  0
  -28.4422  -13.6367   21.8549 H   0  0  0  0  0  0
  -25.2745   -9.5705   22.4751 H   0  0  0  0  0  0
  -23.9986   -7.4658   22.7486 H   0  0  0  0  0  0
  -21.0812   -8.8767   19.8962 H   0  0  0  0  0  0
  -22.3668  -10.9664   19.6165 H   0  0  0  0  0  0
  -21.2015   -7.6140   23.9728 H   0  0  0  0  0  0
  -21.1473   -6.0511   25.9080 H   0  0  0  0  0  0
  -22.0593   -2.7605   23.2844 H   0  0  0  0  0  0
  -22.4024  -11.9875   22.4784 H   0  0  0  0  0  0
  -21.1095  -13.1322   22.2655 H   0  0  0  0  0  0
  -24.6701  -15.8503   20.5287 H   0  0  0  0  0  0
  -26.2932  -15.6232   20.1136 H   0  0  0  0  0  0
  -26.7133  -32.5513   23.1182 H   0  0  0  0  0  0
  -25.0063  -33.9780   25.0490 H   0  0  0  0  0  0
  -22.6970  -31.3095   21.4106 H   0  0  0  0  0  0
  -23.3760  -35.9623   23.3257 H   0  0  0  0  0  0
  -24.3596  -36.8970   22.2064 H   0  0  0  0  0  0
  -23.7203  -37.6484   23.6678 H   0  0  0  0  0  0
  -26.0538  -31.5895   20.5987 H   0  0  0  0  0  0
  -26.8261  -30.8804   21.9870 H   0  0  0  0  0  0
  -28.1027  -29.0690   21.1812 H   0  0  0  0  0  0
  -26.0384  -25.9901   18.9670 H   0  0  0  0  0  0
  -23.9775  -27.3165   19.0085 H   0  0  0  0  0  0
  -23.7303  -30.6046   19.4068 H   0  0  0  0  0  0
  -22.7403  -29.2520   19.8637 H   0  0  0  0  0  0
  -25.1271  -36.1971   25.0836 H   0  0  0  0  0  0
  -20.9953  -28.3235   24.1422 H   0  0  0  0  0  0
  -20.5641  -26.2289   23.3607 H   0  0  0  0  0  0
  -21.6630  -26.7437   22.1212 H   0  0  0  0  0  0
  -19.6893  -25.6299   21.1231 H   0  0  0  0  0  0
  -19.6663  -27.3210   20.6753 H   0  0  0  0  0  0
  -17.4177  -26.6676   21.4031 H   0  0  0  0  0  0
  -18.0319  -26.0059   22.9018 H   0  0  0  0  0  0
  -19.7920  -30.7262   24.2297 H   0  0  0  0  0  0
  -17.4997  -31.6263   24.5172 H   0  0  0  0  0  0
  -15.5343  -30.3002   23.7630 H   0  0  0  0  0  0
  -15.8651  -28.0827   22.7063 H   0  0  0  0  0  0
  -24.5907  -30.7067   25.7848 H   0  0  0  0  0  0
  -24.8981  -32.2858   26.5009 H   0  0  0  0  0  0
  -25.8117  -30.8823   27.0234 H   0  0  0  0  0  0
  -26.2831  -29.6779   24.1199 H   0  0  0  0  0  0
  -27.4055  -29.7263   25.4597 H   0  0  0  0  0  0
  -27.8678  -30.4317   23.9287 H   0  0  0  0  0  0
  -27.2729  -33.3627   26.2045 H   0  0  0  0  0  0
  -28.3895  -32.6800   25.0316 H   0  0  0  0  0  0
  -28.0710  -31.8430   26.5423 H   0  0  0  0  0  0
  -28.2572  -38.0127   24.7560 H   0  0  0  0  0  0
  -28.1111  -36.2670   24.6218 H   0  0  0  0  0  0
  -27.2321  -37.1368   25.8870 H   0  0  0  0  0  0
  -20.9308  -29.8784   21.6960 H   0  0  0  0  0  0
  -26.0164  -38.2862   24.1477 H   0  0  0  0  0  0
  -27.8866  -20.2440   19.1832 H   0  0  0  0  0  0
  -27.1129  -20.2727   20.7594 H   0  0  0  0  0  0
  -31.9009  -16.6010   22.7938 H   0  0  0  0  0  0
  -30.5318  -17.7054   23.1854 H   0  0  0  0  0  0
  -26.7954  -22.5766   20.4348 H   0  0  0  0  0  0
  -27.7489  -22.4953   18.9579 H   0  0  0  0  0  0
  -28.9172  -15.8855   22.9537 H   0  0  0  0  0  0
  -30.3394  -14.8147   23.2208 H   0  0  0  0  0  0
  -30.3579  -21.8977   19.5503 H   0  0  0  0  0  0
  -30.7893  -22.0708   21.2533 H   0  0  0  0  0  0
  -29.1237  -20.4236   21.9298 H   0  0  0  0  0  0
  -31.4764  -17.0706   20.5329 H   0  0  0  0  0  0
  -28.6656  -18.0316   21.3579 H   0  0  0  0  0  0
  -29.0030  -17.6234   19.6978 H   0  0  0  0  0  0
  -30.1820  -24.5106   20.6034 H   0  0  0  0  0  0
  -29.2869  -24.2099   19.1342 H   0  0  0  0  0  0
  -28.1791  -25.3593   21.7586 H   0  0  0  0  0  0
  -27.1689  -24.8913   20.4354 H   0  0  0  0  0  0
  -30.9367  -19.3490   20.8558 H   0  0  0  0  0  0
  -30.2401  -19.4139   19.3976 H   0  0  0  0  0  0
  1 25  1  0  0  0
  1 30  2  0  0  0
  1 81  1  0  0  0
  2  3  1  0  0  0
  2 25  1  0  0  0
  2 84  1  0  0  0
  2 85  1  0  0  0
  3  4  1  0  0  0
  3 86  1  0  0  0
  3 87  1  0  0  0
  4  5  1  0  0  0
  4 88  1  0  0  0
  4 89  1  0  0  0
  5  6  1  0  0  0
  5 26  1  0  0  0
  5 90  1  0  0  0
  6 25  1  0  0  0
  6 91  1  0  0  0
  6 92  1  0  0  0
  7  8  2  0  0  0
  7 26  1  0  0  0
  7 29  1  0  0  0
  8  9  1  0  0  0
  8 22  1  0  0  0
  9 10  1  0  0  0
  9 27  2  0  0  0
 10 11  2  0  0  0
 10 15  1  0  0  0
 11 12  1  0  0  0
 11 93  1  0  0  0
 12 13  2  0  0  0
 12 94  1  0  0  0
 13 14  1  0  0  0
 13 31  1  0  0  0
 14 15  2  0  0  0
 14 95  1  0  0  0
 15 96  1  0  0  0
 16 17  2  0  0  0
 16 21  1  0  0  0
 16 31  1  0  0  0
 17 18  1  0  0  0
 17 97  1  0  0  0
 18 19  2  0  0  0
 18 98  1  0  0  0
 19 20  1  0  0  0
 19 24  1  0  0  0
 20 21  2  0  0  0
 20 99  1  0  0  0
 21 23  1  0  0  0
 22 28  1  0  0  0
 22 32  2  0  0  0
 26 27  1  0  0  0
 28100  1  0  0  0
 28101  1  0  0  0
 29102  1  0  0  0
 29103  1  0  0  0
 33 34  1  0  0  0
 33 66  1  0  0  0
 33 70  2  0  0  0
 34 36  1  0  0  0
 34 59  1  0  0  0
 34104  1  0  0  0
 35 44  2  0  0  0
 35 45  1  0  0  0
 35 68  1  0  0  0
 36 56  1  0  0  0
 36105  1  0  0  0
 37 39  1  0  0  0
 37 47  1  0  0  0
 37 66  1  0  0  0
 37106  1  0  0  0
 38 43  2  0  0  0
 38 46  1  0  0  0
 38 47  1  0  0  0
 39 64  1  0  0  0
 39 67  2  0  0  0
 40 52  1  0  0  0
 40 53  2  0  0  0
 40 58  1  0  0  0
 41107  1  0  0  0
 41108  1  0  0  0
 41109  1  0  0  0
 41 48  1  0  0  0
 42 43  1  0  0  0
 42 66  1  0  0  0
 42110  1  0  0  0
 42111  1  0  0  0
 43 44  1  0  0  0
 44112  1  0  0  0
 45 46  2  0  0  0
 45113  1  0  0  0
 46114  1  0  0  0
 47115  1  0  0  0
 47116  1  0  0  0
 48 56  1  0  0  0
 48 65  1  0  0  0
 48117  1  0  0  0
 49 50  1  0  0  0
 49 53  1  0  0  0
 49 64  1  0  0  0
 49118  1  0  0  0
 50 51  1  0  0  0
 50119  1  0  0  0
 50120  1  0  0  0
 51 52  1  0  0  0
 51121  1  0  0  0
 51122  1  0  0  0
 52123  1  0  0  0
 52124  1  0  0  0
 53 54  1  0  0  0
 54 55  2  0  0  0
 54125  1  0  0  0
 55 57  1  0  0  0
 55126  1  0  0  0
 56 69  2  0  0  0
 57 58  2  0  0  0
 57127  1  0  0  0
 58128  1  0  0  0
 59 60  1  0  0  0
 59 61  1  0  0  0
 59 62  1  0  0  0
 60129  1  0  0  0
 60130  1  0  0  0
 60131  1  0  0  0
 61132  1  0  0  0
 61133  1  0  0  0
 61134  1  0  0  0
 62135  1  0  0  0
 62136  1  0  0  0
 62137  1  0  0  0
 63 65  1  0  0  0
 63138  1  0  0  0
 63139  1  0  0  0
 63140  1  0  0  0
 64141  1  0  0  0
 65142  1  0  0  0
 68 80  1  0  0  0
 71 73  1  0  0  0
 71 76  1  0  0  0
 71143  1  0  0  0
 71144  1  0  0  0
 72 74  1  0  0  0
 72 77  1  0  0  0
 72145  1  0  0  0
 72146  1  0  0  0
 73 82  1  0  0  0
 73147  1  0  0  0
 73148  1  0  0  0
 74 81  1  0  0  0
 74149  1  0  0  0
 74150  1  0  0  0
 75 76  1  0  0  0
 75 82  1  0  0  0
 75151  1  0  0  0
 75152  1  0  0  0
 76 83  1  0  0  0
 76153  1  0  0  0
 77 78  1  0  0  0
 77 81  1  0  0  0
 77154  1  0  0  0
 78 83  1  0  0  0
 78155  1  0  0  0
 78156  1  0  0  0
 79 80  1  0  0  0
 79 82  1  0  0  0
 79157  1  0  0  0
 79158  1  0  0  0
 80159  1  0  0  0
 80160  1  0  0  0
 83161  1  0  0  0
 83162  1  0  0  0
M  CHG  1  83   1
M  ISO  4   1 100  68 101  80 101  81 100
M  END
> <chiral flag>
0

> <version>
0

> <s_m_source_file>
/data/baiqing/PycharmProjects/Reinvent-master-3.2/result/LINK_invent/BTK/process_docking_weight1_custom_sum_contain_oxygen_bond_distance_aromatic_linkinvent_7_9_3/rearranged_h_0187.sdf

> <i_m_source_file_index>
84

> <r_mmod_Potential_Energy-OPLS-2005>
1.55476224422455

> <r_mmod_Stretch_Energy-OPLS-2005>
46.4500923156738

> <r_mmod_Bend_Energy-OPLS-2005>
126.935020446777

> <r_mmod_Torsional_Energy-OPLS-2005>
355.516448974609

> <r_mmod_Improper_Torsional_Energy-OPLS-2005>
10.9039316177368

> <r_mmod_Van_der_Waal_Energy-OPLS-2005>
132.693161010742

> <r_mmod_Electrostatic_Energy-OPLS-2005>
-220.046142578125

> <r_mmod_Solvation_Energy-OPLS-2005>
-467.804412841797

> <b_mmod_Minimization_Converged-OPLS-2005>
0

> <r_mmod_RMS_Derivative-OPLS-2005>
1.97265708446503

$$$$
84
                    3D
 Structure written by MMmdl.
164173  0  0  1  0            999 V2000
  -30.6573  -14.4664   20.6002 C   0  0  0  0  0  0
  -30.4349  -12.3117   19.4130 C   0  0  0  0  0  0
  -29.5035  -12.5285   18.1995 C   0  0  0  0  0  0
  -28.0150  -12.3996   18.5903 C   0  0  0  0  0  0
  -27.6640  -13.1963   19.8762 C   0  0  2  0  0  0
  -28.7006  -12.8931   20.9796 C   0  0  0  0  0  0
  -25.2605  -13.8140   20.5627 C   0  0  0  0  0  0
  -24.1844  -13.0428   20.9156 C   0  0  0  0  0  0
  -24.6392  -11.6897   20.8715 C   0  0  0  0  0  0
  -23.9070  -10.4272   21.0387 C   0  0  0  0  0  0
  -24.3622   -9.4174   21.9150 C   0  0  0  0  0  0
  -23.6274   -8.2230   22.0733 C   0  0  0  0  0  0
  -22.4250   -8.0277   21.3552 C   0  0  0  0  0  0
  -21.9899   -9.0247   20.4655 C   0  0  0  0  0  0
  -22.7240  -10.2113   20.3041 C   0  0  0  0  0  0
  -21.6861   -6.0731   22.5279 C   0  0  0  0  0  0
  -21.4020   -6.5624   23.8213 C   0  0  0  0  0  0
  -21.3650   -5.6775   24.9169 C   0  0  0  0  0  0
  -21.6045   -4.3042   24.7215 C   0  0  0  0  0  0
  -21.8827   -3.8137   23.4338 C   0  0  0  0  0  0
  -21.9188   -4.6957   22.3397 C   0  0  0  0  0  0
  -22.7881  -13.5240   21.1820 C   0  0  0  0  0  0
  -22.1656   -4.2142   21.0972 F   0  0  0  0  0  0
  -21.5614   -3.4508   25.7727 F   0  0  0  0  0  0
  -30.0284  -13.2623   20.4607 N   0  0  0  0  0  0
  -26.3020  -12.9284   20.3316 N   0  0  0  0  0  0
  -25.9298  -11.6455   20.5708 N   0  0  0  0  0  0
  -22.0512  -12.8259   22.0401 N   0  0  0  0  0  0
  -25.4343  -15.1850   20.4033 N   0  0  0  0  0  0
  -31.7705  -14.6861   20.1098 O   0  0  0  0  0  0
  -21.6630   -6.8866   21.4250 O   0  0  0  0  0  0
  -22.3566  -14.5515   20.6621 O   0  0  0  0  0  0
  -24.6129  -31.8690   23.2141 C   0  0  0  0  0  0
  -25.9063  -32.4820   23.8394 C   0  0  1  0  0  0
  -27.2168  -27.4259   20.0813 C   0  0  0  0  0  0
  -25.5887  -33.8635   24.2278 N   0  0  0  0  0  0
  -23.4005  -30.5005   21.5536 C   0  0  2  0  0  0
  -24.8415  -28.9680   20.1121 C   0  0  0  0  0  0
  -22.7416  -29.4694   22.4976 C   0  0  0  0  0  0
  -18.0277  -28.1369   22.8496 C   0  0  0  0  0  0
  -24.1454  -36.7348   23.2643 C   0  0  0  0  0  0
  -25.9392  -30.8221   21.3865 C   0  0  0  0  0  0
  -26.0050  -29.4656   20.7110 C   0  0  0  0  0  0
  -27.1950  -28.7033   20.6872 C   0  0  0  0  0  0
  -26.0330  -26.9435   19.4782 C   0  0  0  0  0  0
  -24.8520  -27.7072   19.4923 C   0  0  0  0  0  0
  -23.6085  -29.8390   20.1660 C   0  0  0  0  0  0
  -25.4103  -36.3121   24.0288 C   0  0  1  0  0  0
  -20.5878  -28.3646   23.1280 C   0  0  2  0  0  0
  -20.6760  -26.9383   22.5385 C   0  0  0  0  0  0
  -19.5743  -26.6367   21.5189 C   0  0  0  0  0  0
  -18.1925  -26.7921   22.1621 C   0  0  0  0  0  0
  -19.1532  -28.8821   23.2897 C   0  0  0  0  0  0
  -18.9468  -30.1419   23.8913 C   0  0  0  0  0  0
  -17.6476  -30.6574   24.0562 C   0  0  0  0  0  0
  -25.9032  -34.9479   23.5095 C   0  0  0  0  0  0
  -16.5359  -29.9077   23.6342 C   0  0  0  0  0  0
  -16.7273  -28.6495   23.0376 C   0  0  0  0  0  0
  -26.4491  -31.6648   25.0779 C   0  0  0  0  0  0
  -25.3739  -31.3825   26.1540 C   0  0  0  0  0  0
  -27.0486  -30.3077   24.6359 C   0  0  0  0  0  0
  -27.6007  -32.4433   25.7529 C   0  0  0  0  0  0
  -27.5571  -37.1821   24.8433 C   0  0  0  0  0  0
  -21.4157  -29.3035   22.3699 N   0  0  0  0  0  0
  -26.4283  -37.3812   23.9374 N   0  0  0  0  0  0
  -24.6672  -31.0781   22.1054 N   0  0  0  0  0  0
  -23.4214  -28.8232   23.3012 O   0  0  0  0  0  0
  -28.3935  -26.7046   20.1000 O   0  0  0  0  0  0
  -26.5599  -34.8897   22.4660 O   0  0  0  0  0  0
  -23.5316  -32.1484   23.7510 O   0  0  0  0  0  0
  -29.7794  -21.9586   22.8836 C   0  0  0  0  0  0
  -29.2541  -23.2014   22.4883 C   0  0  0  0  0  0
  -29.3072  -20.7952   22.2487 C   0  0  0  0  0  0
  -28.2837  -23.2064   21.4608 C   0  0  0  0  0  0
  -29.2787  -15.6769   22.2934 C   0  0  0  0  0  0
  -29.6746  -16.6778   20.0729 C   0  0  0  0  0  0
  -29.6432  -17.0231   22.9430 C   0  0  0  0  0  0
  -30.1003  -18.0039   20.7456 C   0  0  0  0  0  0
  -29.7133  -24.4715   23.1797 C   0  0  0  0  0  0
  -27.6172  -24.5155   21.0217 C   0  0  0  0  0  0
  -29.8160  -19.4459   22.7694 C   0  0  0  0  0  0
  -28.3618  -25.2784   19.8978 C   0  0  0  0  0  0
  -28.3804  -20.8583   21.2534 N   0  0  0  0  0  0
  -27.8909  -22.0499   20.8592 N   0  0  0  0  0  0
  -29.8481  -15.5047   20.9491 N   0  0  0  0  0  0
  -29.4280  -18.1986   22.0555 N   0  3  0  0  0  0
  -31.4789  -12.4315   19.1218 H   0  0  0  0  0  0
  -30.3501  -11.2876   19.7776 H   0  0  0  0  0  0
  -29.7464  -11.8154   17.4085 H   0  0  0  0  0  0
  -29.6784  -13.5213   17.7790 H   0  0  0  0  0  0
  -27.7970  -11.3407   18.7360 H   0  0  0  0  0  0
  -27.3859  -12.7282   17.7605 H   0  0  0  0  0  0
  -27.7241  -14.2549   19.6261 H   0  0  0  0  0  0
  -28.6886  -11.8268   21.2111 H   0  0  0  0  0  0
  -28.4310  -13.3604   21.9197 H   0  0  0  0  0  0
  -25.2779   -9.5644   22.4694 H   0  0  0  0  0  0
  -23.9993   -7.4637   22.7450 H   0  0  0  0  0  0
  -21.0821   -8.8796   19.8964 H   0  0  0  0  0  0
  -22.3723  -10.9656   19.6136 H   0  0  0  0  0  0
  -21.2033   -7.6126   23.9734 H   0  0  0  0  0  0
  -21.1461   -6.0479   25.9080 H   0  0  0  0  0  0
  -22.0621   -2.7592   23.2836 H   0  0  0  0  0  0
  -22.4112  -11.9939   22.4859 H   0  0  0  0  0  0
  -21.1138  -13.1320   22.2586 H   0  0  0  0  0  0
  -24.6591  -15.8335   20.4918 H   0  0  0  0  0  0
  -26.2753  -15.6223   20.0459 H   0  0  0  0  0  0
  -26.7133  -32.5490   23.1140 H   0  0  0  0  0  0
  -24.9924  -33.9816   25.0333 H   0  0  0  0  0  0
  -22.6895  -31.3174   21.4199 H   0  0  0  0  0  0
  -23.3695  -35.9716   23.3332 H   0  0  0  0  0  0
  -24.3499  -36.8994   22.2061 H   0  0  0  0  0  0
  -23.7261  -37.6557   23.6681 H   0  0  0  0  0  0
  -26.1005  -31.6070   20.6461 H   0  0  0  0  0  0
  -26.8066  -30.8285   22.0368 H   0  0  0  0  0  0
  -28.0960  -29.0888   21.1437 H   0  0  0  0  0  0
  -25.9987  -25.9837   18.9853 H   0  0  0  0  0  0
  -23.9571  -27.3249   19.0215 H   0  0  0  0  0  0
  -23.7191  -30.6199   19.4125 H   0  0  0  0  0  0
  -22.7293  -29.2657   19.8656 H   0  0  0  0  0  0
  -25.1290  -36.1968   25.0774 H   0  0  0  0  0  0
  -21.0000  -28.3217   24.1393 H   0  0  0  0  0  0
  -20.5624  -26.2292   23.3586 H   0  0  0  0  0  0
  -21.6632  -26.7397   22.1200 H   0  0  0  0  0  0
  -19.6887  -25.6278   21.1213 H   0  0  0  0  0  0
  -19.6645  -27.3198   20.6733 H   0  0  0  0  0  0
  -17.4184  -26.6661   21.4032 H   0  0  0  0  0  0
  -18.0322  -26.0053   22.9003 H   0  0  0  0  0  0
  -19.7945  -30.7217   24.2303 H   0  0  0  0  0  0
  -17.5041  -31.6268   24.5150 H   0  0  0  0  0  0
  -15.5366  -30.2991   23.7639 H   0  0  0  0  0  0
  -15.8679  -28.0793   22.7104 H   0  0  0  0  0  0
  -24.5773  -30.7410   25.7795 H   0  0  0  0  0  0
  -24.9114  -32.3060   26.5097 H   0  0  0  0  0  0
  -25.8005  -30.8821   27.0251 H   0  0  0  0  0  0
  -26.3223  -29.6669   24.1365 H   0  0  0  0  0  0
  -27.4176  -29.7454   25.4952 H   0  0  0  0  0  0
  -27.9061  -30.4394   23.9742 H   0  0  0  0  0  0
  -27.2593  -33.3689   26.2202 H   0  0  0  0  0  0
  -28.3763  -32.7069   25.0348 H   0  0  0  0  0  0
  -28.0815  -31.8586   26.5381 H   0  0  0  0  0  0
  -28.2577  -38.0121   24.7476 H   0  0  0  0  0  0
  -28.1053  -36.2649   24.6233 H   0  0  0  0  0  0
  -27.2282  -37.1482   25.8830 H   0  0  0  0  0  0
  -20.9300  -29.8787   21.6947 H   0  0  0  0  0  0
  -26.0160  -38.2886   24.1366 H   0  0  0  0  0  0
  -30.5034  -21.8873   23.6825 H   0  0  0  0  0  0
  -28.1948  -15.5893   22.2264 H   0  0  0  0  0  0
  -29.6208  -14.8879   22.9649 H   0  0  0  0  0  0
  -30.2087  -16.5558   19.1272 H   0  0  0  0  0  0
  -28.6187  -16.7309   19.8048 H   0  0  0  0  0  0
  -30.6927  -16.9956   23.2481 H   0  0  0  0  0  0
  -29.0620  -17.1328   23.8606 H   0  0  0  0  0  0
  -29.8791  -18.8376   20.0787 H   0  0  0  0  0  0
  -31.1822  -18.0070   20.8888 H   0  0  0  0  0  0
  -30.5935  -24.2829   23.7939 H   0  0  0  0  0  0
  -28.9230  -24.8542   23.8242 H   0  0  0  0  0  0
  -29.9675  -25.2398   22.4516 H   0  0  0  0  0  0
  -27.5228  -25.1589   21.8940 H   0  0  0  0  0  0
  -26.5908  -24.3191   20.7140 H   0  0  0  0  0  0
  -29.4253  -19.3888   23.7855 H   0  0  0  0  0  0
  -30.9004  -19.4883   22.8679 H   0  0  0  0  0  0
  -29.4060  -24.9652   19.9001 H   0  0  0  0  0  0
  -27.9809  -25.0048   18.9130 H   0  0  0  0  0  0
  -28.4368  -18.2841   21.8799 H   0  0  0  0  0  0
  1 25  1  0  0  0
  1 30  2  0  0  0
  1 85  1  0  0  0
  2  3  1  0  0  0
  2 25  1  0  0  0
  2 87  1  0  0  0
  2 88  1  0  0  0
  3  4  1  0  0  0
  3 89  1  0  0  0
  3 90  1  0  0  0
  4  5  1  0  0  0
  4 91  1  0  0  0
  4 92  1  0  0  0
  5  6  1  0  0  0
  5 26  1  0  0  0
  5 93  1  0  0  0
  6 25  1  0  0  0
  6 94  1  0  0  0
  6 95  1  0  0  0
  7  8  2  0  0  0
  7 26  1  0  0  0
  7 29  1  0  0  0
  8  9  1  0  0  0
  8 22  1  0  0  0
  9 10  1  0  0  0
  9 27  2  0  0  0
 10 11  2  0  0  0
 10 15  1  0  0  0
 11 12  1  0  0  0
 11 96  1  0  0  0
 12 13  2  0  0  0
 12 97  1  0  0  0
 13 14  1  0  0  0
 13 31  1  0  0  0
 14 15  2  0  0  0
 14 98  1  0  0  0
 15 99  1  0  0  0
 16 17  2  0  0  0
 16 21  1  0  0  0
 16 31  1  0  0  0
 17 18  1  0  0  0
 17100  1  0  0  0
 18 19  2  0  0  0
 18101  1  0  0  0
 19 20  1  0  0  0
 19 24  1  0  0  0
 20 21  2  0  0  0
 20102  1  0  0  0
 21 23  1  0  0  0
 22 28  1  0  0  0
 22 32  2  0  0  0
 26 27  1  0  0  0
 28103  1  0  0  0
 28104  1  0  0  0
 29105  1  0  0  0
 29106  1  0  0  0
 33 34  1  0  0  0
 33 66  1  0  0  0
 33 70  2  0  0  0
 34 36  1  0  0  0
 34 59  1  0  0  0
 34107  1  0  0  0
 35 44  2  0  0  0
 35 45  1  0  0  0
 35 68  1  0  0  0
 36 56  1  0  0  0
 36108  1  0  0  0
 37 39  1  0  0  0
 37 47  1  0  0  0
 37 66  1  0  0  0
 37109  1  0  0  0
 38 43  2  0  0  0
 38 46  1  0  0  0
 38 47  1  0  0  0
 39 64  1  0  0  0
 39 67  2  0  0  0
 40 52  1  0  0  0
 40 53  2  0  0  0
 40 58  1  0  0  0
 41110  1  0  0  0
 41111  1  0  0  0
 41112  1  0  0  0
 41 48  1  0  0  0
 42 43  1  0  0  0
 42 66  1  0  0  0
 42113  1  0  0  0
 42114  1  0  0  0
 43 44  1  0  0  0
 44115  1  0  0  0
 45 46  2  0  0  0
 45116  1  0  0  0
 46117  1  0  0  0
 47118  1  0  0  0
 47119  1  0  0  0
 48 56  1  0  0  0
 48 65  1  0  0  0
 48120  1  0  0  0
 49 50  1  0  0  0
 49 53  1  0  0  0
 49 64  1  0  0  0
 49121  1  0  0  0
 50 51  1  0  0  0
 50122  1  0  0  0
 50123  1  0  0  0
 51 52  1  0  0  0
 51124  1  0  0  0
 51125  1  0  0  0
 52126  1  0  0  0
 52127  1  0  0  0
 53 54  1  0  0  0
 54 55  2  0  0  0
 54128  1  0  0  0
 55 57  1  0  0  0
 55129  1  0  0  0
 56 69  2  0  0  0
 57 58  2  0  0  0
 57130  1  0  0  0
 58131  1  0  0  0
 59 60  1  0  0  0
 59 61  1  0  0  0
 59 62  1  0  0  0
 60132  1  0  0  0
 60133  1  0  0  0
 60134  1  0  0  0
 61135  1  0  0  0
 61136  1  0  0  0
 61137  1  0  0  0
 62138  1  0  0  0
 62139  1  0  0  0
 62140  1  0  0  0
 63 65  1  0  0  0
 63141  1  0  0  0
 63142  1  0  0  0
 63143  1  0  0  0
 64144  1  0  0  0
 65145  1  0  0  0
 68 82  1  0  0  0
 71 72  2  0  0  0
 71 73  1  0  0  0
 71146  1  0  0  0
 72 74  1  0  0  0
 72 79  1  0  0  0
 73 81  1  0  0  0
 73 83  2  0  0  0
 74 80  1  0  0  0
 74 84  2  0  0  0
 75 77  1  0  0  0
 75 85  1  0  0  0
 75147  1  0  0  0
 75148  1  0  0  0
 76 78  1  0  0  0
 76 85  1  0  0  0
 76149  1  0  0  0
 76150  1  0  0  0
 77 86  1  0  0  0
 77151  1  0  0  0
 77152  1  0  0  0
 78 86  1  0  0  0
 78153  1  0  0  0
 78154  1  0  0  0
 79155  1  0  0  0
 79156  1  0  0  0
 79157  1  0  0  0
 80 82  1  0  0  0
 80158  1  0  0  0
 80159  1  0  0  0
 81160  1  0  0  0
 81161  1  0  0  0
 81 86  1  0  0  0
 82162  1  0  0  0
 82163  1  0  0  0
 83 84  1  0  0  0
 86164  1  0  0  0
M  CHG  1  86   1
M  ISO  4   1 100  68 101  82 101  85 100
M  END
> <chiral flag>
0

> <version>
0

> <s_m_source_file>
/data/baiqing/PycharmProjects/Reinvent-master-3.2/result/LINK_invent/BTK/process_docking_weight1_custom_sum_contain_oxygen_bond_distance_aromatic_linkinvent_7_9_3/rearranged_h_0187.sdf

> <i_m_source_file_index>
85

> <r_mmod_Potential_Energy-OPLS-2005>
-5.07828569412231

> <r_mmod_Stretch_Energy-OPLS-2005>
42.4297294616699

> <r_mmod_Bend_Energy-OPLS-2005>
117.810760498047

> <r_mmod_Torsional_Energy-OPLS-2005>
368.493896484375

> <r_mmod_Improper_Torsional_Energy-OPLS-2005>
11.4491109848022

> <r_mmod_Van_der_Waal_Energy-OPLS-2005>
163.335815429688

> <r_mmod_Electrostatic_Energy-OPLS-2005>
-271.420623779297

> <r_mmod_Solvation_Energy-OPLS-2005>
-451.338562011719

> <b_mmod_Minimization_Converged-OPLS-2005>
0

> <r_mmod_RMS_Derivative-OPLS-2005>
3.992516040802

$$$$
85
                    3D
 Structure written by MMmdl.
155164  0  0  1  0            999 V2000
  -30.5745  -14.8910   20.4264 C   0  0  0  0  0  0
  -30.4328  -12.5514   19.4931 C   0  0  0  0  0  0
  -29.5150  -12.5160   18.2507 C   0  0  0  0  0  0
  -28.0461  -12.3175   18.6689 C   0  0  0  0  0  0
  -27.6302  -13.2461   19.8404 C   0  0  2  0  0  0
  -28.6736  -13.2593   20.9776 C   0  0  0  0  0  0
  -25.2461  -13.8218   20.5721 C   0  0  0  0  0  0
  -24.1776  -13.0442   20.9236 C   0  0  0  0  0  0
  -24.6387  -11.6925   20.8760 C   0  0  0  0  0  0
  -23.9073  -10.4291   21.0411 C   0  0  0  0  0  0
  -24.3623   -9.4204   21.9184 C   0  0  0  0  0  0
  -23.6298   -8.2239   22.0747 C   0  0  0  0  0  0
  -22.4279   -8.0279   21.3539 C   0  0  0  0  0  0
  -21.9918   -9.0254   20.4640 C   0  0  0  0  0  0
  -22.7248  -10.2133   20.3056 C   0  0  0  0  0  0
  -21.6854   -6.0735   22.5277 C   0  0  0  0  0  0
  -21.4011   -6.5638   23.8210 C   0  0  0  0  0  0
  -21.3659   -5.6791   24.9172 C   0  0  0  0  0  0
  -21.6047   -4.3054   24.7224 C   0  0  0  0  0  0
  -21.8821   -3.8146   23.4345 C   0  0  0  0  0  0
  -21.9194   -4.6962   22.3401 C   0  0  0  0  0  0
  -22.7797  -13.5209   21.1892 C   0  0  0  0  0  0
  -22.1665   -4.2147   21.0979 F   0  0  0  0  0  0
  -21.5631   -3.4537   25.7737 F   0  0  0  0  0  0
  -29.9543  -13.6488   20.3780 N   0  0  0  0  0  0
  -26.2884  -12.9447   20.3261 N   0  0  0  0  0  0
  -25.9319  -11.6577   20.5752 N   0  0  0  0  0  0
  -22.0450  -12.8188   22.0444 N   0  0  0  0  0  0
  -25.4138  -15.1944   20.4134 N   0  0  0  0  0  0
  -31.7773  -14.9391   20.1533 O   0  0  0  0  0  0
  -21.6642   -6.8877   21.4237 O   0  0  0  0  0  0
  -22.3478  -14.5512   20.6737 O   0  0  0  0  0  0
  -24.6401  -31.8456   23.1892 C   0  0  0  0  0  0
  -25.9187  -32.4701   23.8274 C   0  0  1  0  0  0
  -27.2152  -27.1617   20.1505 C   0  0  0  0  0  0
  -25.5946  -33.8506   24.2195 N   0  0  0  0  0  0
  -23.4421  -30.4653   21.5334 C   0  0  2  0  0  0
  -24.8910  -28.8955   20.1077 C   0  0  0  0  0  0
  -22.7548  -29.4555   22.4861 C   0  0  0  0  0  0
  -18.0298  -28.1393   22.8484 C   0  0  0  0  0  0
  -24.1484  -36.7249   23.2643 C   0  0  0  0  0  0
  -25.9952  -30.7287   21.3825 C   0  0  0  0  0  0
  -26.0663  -29.3419   20.7246 C   0  0  0  0  0  0
  -27.2294  -28.4904   20.7291 C   0  0  0  0  0  0
  -26.0165  -26.8091   19.4925 C   0  0  0  0  0  0
  -24.8778  -27.6424   19.4756 C   0  0  0  0  0  0
  -23.6656  -29.7936   20.1522 C   0  0  0  0  0  0
  -25.4116  -36.3035   24.0321 C   0  0  1  0  0  0
  -20.5910  -28.3713   23.1241 C   0  0  2  0  0  0
  -20.6779  -26.9418   22.5406 C   0  0  0  0  0  0
  -19.5754  -26.6386   21.5210 C   0  0  0  0  0  0
  -18.1937  -26.7933   22.1629 C   0  0  0  0  0  0
  -19.1554  -28.8870   23.2858 C   0  0  0  0  0  0
  -18.9476  -30.1467   23.8883 C   0  0  0  0  0  0
  -17.6474  -30.6595   24.0557 C   0  0  0  0  0  0
  -25.9071  -34.9410   23.5069 C   0  0  0  0  0  0
  -16.5363  -29.9090   23.6337 C   0  0  0  0  0  0
  -16.7284  -28.6503   23.0369 C   0  0  0  0  0  0
  -26.4521  -31.6563   25.0704 C   0  0  0  0  0  0
  -25.3727  -31.3756   26.1416 C   0  0  0  0  0  0
  -27.0369  -30.2960   24.6265 C   0  0  0  0  0  0
  -27.6056  -32.4326   25.7485 C   0  0  0  0  0  0
  -27.5568  -37.1781   24.8469 C   0  0  0  0  0  0
  -21.4243  -29.3044   22.3610 N   0  0  0  0  0  0
  -26.4276  -37.3752   23.9416 N   0  0  0  0  0  0
  -24.7121  -31.0342   22.0904 N   0  0  0  0  0  0
  -23.4204  -28.8110   23.3007 O   0  0  0  0  0  0
  -28.2771  -26.1994   20.2339 O   0  0  0  0  0  0
  -26.5654  -34.8909   22.4646 O   0  0  0  0  0  0
  -23.5534  -32.1313   23.7141 O   0  0  0  0  0  0
  -29.0079  -20.9862   21.5653 C   0  0  0  0  0  0
  -29.0747  -21.8691   20.4414 C   0  0  0  0  0  0
  -29.3751  -21.0976   19.2762 C   0  0  0  0  0  0
  -29.5881  -18.9858   20.4086 C   0  0  0  0  0  0
  -30.6942  -21.3849   17.0190 C   0  0  0  0  0  0
  -30.6553  -22.7346   17.6790 C   0  0  0  0  0  0
  -29.5365  -21.7439   17.9310 C   0  0  0  0  0  0
  -29.1084  -23.5147   20.5837 C   0  0  0  0  0  0
  -30.3763  -17.5455   20.4302 C   0  0  0  0  0  0
  -28.0388  -24.6792   20.0630 C   0  0  0  0  0  0
  -29.2698  -19.6245   21.5501 N   0  0  0  0  0  0
  -29.6030  -19.7282   19.2809 N   0  0  0  0  0  0
  -29.8396  -16.0871   20.5645 N   0  0  0  0  0  0
  -31.4692  -12.6932   19.1825 H   0  0  0  0  0  0
  -30.4097  -11.5967   20.0206 H   0  0  0  0  0  0
  -29.8226  -11.7163   17.5752 H   0  0  0  0  0  0
  -29.6161  -13.4474   17.6912 H   0  0  0  0  0  0
  -27.9305  -11.2749   18.9688 H   0  0  0  0  0  0
  -27.3840  -12.4632   17.8146 H   0  0  0  0  0  0
  -27.5992  -14.2517   19.4205 H   0  0  0  0  0  0
  -28.7470  -12.2822   21.4573 H   0  0  0  0  0  0
  -28.3847  -13.9669   21.7564 H   0  0  0  0  0  0
  -25.2766   -9.5681   22.4761 H   0  0  0  0  0  0
  -24.0010   -7.4626   22.7459 H   0  0  0  0  0  0
  -21.0854   -8.8773   19.8941 H   0  0  0  0  0  0
  -22.3707  -10.9673   19.6165 H   0  0  0  0  0  0
  -21.1998   -7.6145   23.9711 H   0  0  0  0  0  0
  -21.1482   -6.0521   25.9075 H   0  0  0  0  0  0
  -22.0601   -2.7607   23.2846 H   0  0  0  0  0  0
  -22.4087  -11.9856   22.4833 H   0  0  0  0  0  0
  -21.1059  -13.1189   22.2646 H   0  0  0  0  0  0
  -24.6444  -15.8464   20.5226 H   0  0  0  0  0  0
  -26.2527  -15.6314   20.0552 H   0  0  0  0  0  0
  -26.7246  -32.5317   23.0999 H   0  0  0  0  0  0
  -25.0081  -33.9625   25.0333 H   0  0  0  0  0  0
  -22.7436  -31.2907   21.3805 H   0  0  0  0  0  0
  -23.3755  -35.9573   23.3298 H   0  0  0  0  0  0
  -24.3576  -36.8889   22.2061 H   0  0  0  0  0  0
  -23.7226  -37.6441   23.6679 H   0  0  0  0  0  0
  -26.1480  -31.4846   20.6112 H   0  0  0  0  0  0
  -26.8668  -30.7791   22.0236 H   0  0  0  0  0  0
  -28.1248  -28.8260   21.2333 H   0  0  0  0  0  0
  -25.9293  -25.8495   19.0048 H   0  0  0  0  0  0
  -23.9808  -27.2969   18.9803 H   0  0  0  0  0  0
  -23.7974  -30.5661   19.3941 H   0  0  0  0  0  0
  -22.7814  -29.2320   19.8453 H   0  0  0  0  0  0
  -25.1305  -36.1862   25.0813 H   0  0  0  0  0  0
  -21.0010  -28.3299   24.1360 H   0  0  0  0  0  0
  -20.5661  -26.2330   23.3624 H   0  0  0  0  0  0
  -21.6647  -26.7426   22.1206 H   0  0  0  0  0  0
  -19.6915  -25.6294   21.1248 H   0  0  0  0  0  0
  -19.6684  -27.3185   20.6727 H   0  0  0  0  0  0
  -17.4202  -26.6675   21.4035 H   0  0  0  0  0  0
  -18.0341  -26.0077   22.9028 H   0  0  0  0  0  0
  -19.7953  -30.7283   24.2248 H   0  0  0  0  0  0
  -17.5032  -31.6274   24.5160 H   0  0  0  0  0  0
  -15.5363  -30.2991   23.7670 H   0  0  0  0  0  0
  -15.8684  -28.0812   22.7109 H   0  0  0  0  0  0
  -24.5890  -30.7116   25.7746 H   0  0  0  0  0  0
  -24.8933  -32.2941   26.4809 H   0  0  0  0  0  0
  -25.8026  -30.8949   27.0213 H   0  0  0  0  0  0
  -26.2966  -29.6696   24.1271 H   0  0  0  0  0  0
  -27.3982  -29.7250   25.4829 H   0  0  0  0  0  0
  -27.8883  -30.4194   23.9570 H   0  0  0  0  0  0
  -27.2648  -33.3652   26.1996 H   0  0  0  0  0  0
  -28.3898  -32.6845   25.0331 H   0  0  0  0  0  0
  -28.0682  -31.8492   26.5459 H   0  0  0  0  0  0
  -28.2588  -38.0075   24.7515 H   0  0  0  0  0  0
  -28.1065  -36.2609   24.6296 H   0  0  0  0  0  0
  -27.2295  -37.1426   25.8876 H   0  0  0  0  0  0
  -20.9443  -29.8756   21.6794 H   0  0  0  0  0  0
  -26.0145  -38.2820   24.1428 H   0  0  0  0  0  0
  -28.8297  -21.3989   22.5474 H   0  0  0  0  0  0
  -31.4285  -20.6708   17.3872 H   0  0  0  0  0  0
  -30.5058  -21.3528   15.9480 H   0  0  0  0  0  0
  -30.4392  -23.5906   17.0437 H   0  0  0  0  0  0
  -31.3777  -22.9086   18.4732 H   0  0  0  0  0  0
  -28.5697  -21.9465   17.4744 H   0  0  0  0  0  0
  -30.0783  -23.8110   20.1866 H   0  0  0  0  0  0
  -29.2136  -23.6920   21.6543 H   0  0  0  0  0  0
  -31.1169  -17.6460   21.2238 H   0  0  0  0  0  0
  -30.9731  -17.5410   19.5175 H   0  0  0  0  0  0
  -27.0840  -24.4517   20.5379 H   0  0  0  0  0  0
  -27.8817  -24.5148   18.9971 H   0  0  0  0  0  0
  -28.8510  -16.0060   20.7423 H   0  0  0  0  0  0
  1 25  1  0  0  0
  1 30  2  0  0  0
  1 83  1  0  0  0
  2  3  1  0  0  0
  2 25  1  0  0  0
  2 84  1  0  0  0
  2 85  1  0  0  0
  3  4  1  0  0  0
  3 86  1  0  0  0
  3 87  1  0  0  0
  4  5  1  0  0  0
  4 88  1  0  0  0
  4 89  1  0  0  0
  5  6  1  0  0  0
  5 26  1  0  0  0
  5 90  1  0  0  0
  6 25  1  0  0  0
  6 91  1  0  0  0
  6 92  1  0  0  0
  7  8  2  0  0  0
  7 26  1  0  0  0
  7 29  1  0  0  0
  8  9  1  0  0  0
  8 22  1  0  0  0
  9 10  1  0  0  0
  9 27  2  0  0  0
 10 11  2  0  0  0
 10 15  1  0  0  0
 11 12  1  0  0  0
 11 93  1  0  0  0
 12 13  2  0  0  0
 12 94  1  0  0  0
 13 14  1  0  0  0
 13 31  1  0  0  0
 14 15  2  0  0  0
 14 95  1  0  0  0
 15 96  1  0  0  0
 16 17  2  0  0  0
 16 21  1  0  0  0
 16 31  1  0  0  0
 17 18  1  0  0  0
 17 97  1  0  0  0
 18 19  2  0  0  0
 18 98  1  0  0  0
 19 20  1  0  0  0
 19 24  1  0  0  0
 20 21  2  0  0  0
 20 99  1  0  0  0
 21 23  1  0  0  0
 22 28  1  0  0  0
 22 32  2  0  0  0
 26 27  1  0  0  0
 28100  1  0  0  0
 28101  1  0  0  0
 29102  1  0  0  0
 29103  1  0  0  0
 33 34  1  0  0  0
 33 66  1  0  0  0
 33 70  2  0  0  0
 34 36  1  0  0  0
 34 59  1  0  0  0
 34104  1  0  0  0
 35 44  2  0  0  0
 35 45  1  0  0  0
 35 68  1  0  0  0
 36 56  1  0  0  0
 36105  1  0  0  0
 37 39  1  0  0  0
 37 47  1  0  0  0
 37 66  1  0  0  0
 37106  1  0  0  0
 38 43  2  0  0  0
 38 46  1  0  0  0
 38 47  1  0  0  0
 39 64  1  0  0  0
 39 67  2  0  0  0
 40 52  1  0  0  0
 40 53  2  0  0  0
 40 58  1  0  0  0
 41107  1  0  0  0
 41108  1  0  0  0
 41109  1  0  0  0
 41 48  1  0  0  0
 42 43  1  0  0  0
 42 66  1  0  0  0
 42110  1  0  0  0
 42111  1  0  0  0
 43 44  1  0  0  0
 44112  1  0  0  0
 45 46  2  0  0  0
 45113  1  0  0  0
 46114  1  0  0  0
 47115  1  0  0  0
 47116  1  0  0  0
 48 56  1  0  0  0
 48 65  1  0  0  0
 48117  1  0  0  0
 49 50  1  0  0  0
 49 53  1  0  0  0
 49 64  1  0  0  0
 49118  1  0  0  0
 50 51  1  0  0  0
 50119  1  0  0  0
 50120  1  0  0  0
 51 52  1  0  0  0
 51121  1  0  0  0
 51122  1  0  0  0
 52123  1  0  0  0
 52124  1  0  0  0
 53 54  1  0  0  0
 54 55  2  0  0  0
 54125  1  0  0  0
 55 57  1  0  0  0
 55126  1  0  0  0
 56 69  2  0  0  0
 57 58  2  0  0  0
 57127  1  0  0  0
 58128  1  0  0  0
 59 60  1  0  0  0
 59 61  1  0  0  0
 59 62  1  0  0  0
 60129  1  0  0  0
 60130  1  0  0  0
 60131  1  0  0  0
 61132  1  0  0  0
 61133  1  0  0  0
 61134  1  0  0  0
 62135  1  0  0  0
 62136  1  0  0  0
 62137  1  0  0  0
 63 65  1  0  0  0
 63138  1  0  0  0
 63139  1  0  0  0
 63140  1  0  0  0
 64141  1  0  0  0
 65142  1  0  0  0
 68 80  1  0  0  0
 71 72  2  0  0  0
 71 81  1  0  0  0
 71143  1  0  0  0
 72 73  1  0  0  0
 72 78  1  0  0  0
 73 82  2  0  0  0
 73 77  1  0  0  0
 74 79  1  0  0  0
 74 81  2  0  0  0
 74 82  1  0  0  0
 75 76  1  0  0  0
 75 77  1  0  0  0
 75144  1  0  0  0
 75145  1  0  0  0
 76 77  1  0  0  0
 76146  1  0  0  0
 76147  1  0  0  0
 77148  1  0  0  0
 78 80  1  0  0  0
 78149  1  0  0  0
 78150  1  0  0  0
 79 83  1  0  0  0
 79151  1  0  0  0
 79152  1  0  0  0
 80153  1  0  0  0
 80154  1  0  0  0
 83155  1  0  0  0
M  ISO  4   1 100  68 101  80 101  83 100
M  END
> <chiral flag>
0

> <version>
0

> <s_m_source_file>
/data/baiqing/PycharmProjects/Reinvent-master-3.2/result/LINK_invent/BTK/process_docking_weight1_custom_sum_contain_oxygen_bond_distance_aromatic_linkinvent_7_9_3/rearranged_h_0187.sdf

> <i_m_source_file_index>
86

> <r_mmod_Potential_Energy-OPLS-2005>
-167.030502319336

> <r_mmod_Stretch_Energy-OPLS-2005>
196.705078125

> <r_mmod_Bend_Energy-OPLS-2005>
246.583084106445

> <r_mmod_Torsional_Energy-OPLS-2005>
240.456466674805

> <r_mmod_Improper_Torsional_Energy-OPLS-2005>
10.0464563369751

> <r_mmod_Van_der_Waal_Energy-OPLS-2005>
137.214309692383

> <r_mmod_Electrostatic_Energy-OPLS-2005>
-924.73291015625

> <r_mmod_Solvation_Energy-OPLS-2005>
-235.458297729492

> <b_mmod_Minimization_Converged-OPLS-2005>
0

> <r_mmod_RMS_Derivative-OPLS-2005>
0.812257826328278

$$$$
86
                    3D
 Structure written by MMmdl.
149158  0  0  1  0            999 V2000
  -30.4915  -15.0808   20.3996 C   0  0  0  0  0  0
  -30.4436  -12.6794   19.5053 C   0  0  0  0  0  0
  -29.5279  -12.5497   18.2648 C   0  0  0  0  0  0
  -28.0651  -12.3124   18.6860 C   0  0  0  0  0  0
  -27.6227  -13.2587   19.8320 C   0  0  2  0  0  0
  -28.6644  -13.3414   20.9669 C   0  0  0  0  0  0
  -25.2436  -13.8229   20.5724 C   0  0  0  0  0  0
  -24.1769  -13.0439   20.9245 C   0  0  0  0  0  0
  -24.6399  -11.6928   20.8759 C   0  0  0  0  0  0
  -23.9093  -10.4290   21.0408 C   0  0  0  0  0  0
  -24.3637   -9.4204   21.9185 C   0  0  0  0  0  0
  -23.6302   -8.2244   22.0756 C   0  0  0  0  0  0
  -22.4283   -8.0282   21.3548 C   0  0  0  0  0  0
  -21.9927   -9.0261   20.4649 C   0  0  0  0  0  0
  -22.7264  -10.2134   20.3057 C   0  0  0  0  0  0
  -21.6859   -6.0737   22.5281 C   0  0  0  0  0  0
  -21.4016   -6.5640   23.8213 C   0  0  0  0  0  0
  -21.3659   -5.6791   24.9176 C   0  0  0  0  0  0
  -21.6047   -4.3056   24.7227 C   0  0  0  0  0  0
  -21.8817   -3.8148   23.4347 C   0  0  0  0  0  0
  -21.9192   -4.6963   22.3404 C   0  0  0  0  0  0
  -22.7788  -13.5200   21.1895 C   0  0  0  0  0  0
  -22.1661   -4.2148   21.0981 F   0  0  0  0  0  0
  -21.5629   -3.4539   25.7739 F   0  0  0  0  0  0
  -29.9200  -13.7967   20.3541 N   0  0  0  0  0  0
  -26.2859  -12.9473   20.3230 N   0  0  0  0  0  0
  -25.9332  -11.6595   20.5734 N   0  0  0  0  0  0
  -22.0441  -12.8183   22.0449 N   0  0  0  0  0  0
  -25.4065  -15.1961   20.4127 N   0  0  0  0  0  0
  -31.7058  -15.1288   20.1670 O   0  0  0  0  0  0
  -21.6646   -6.8879   21.4241 O   0  0  0  0  0  0
  -22.3467  -14.5494   20.6727 O   0  0  0  0  0  0
  -24.6520  -31.8354   23.1802 C   0  0  0  0  0  0
  -25.9248  -32.4645   23.8229 C   0  0  1  0  0  0
  -27.2145  -27.0384   20.1646 C   0  0  0  0  0  0
  -25.5961  -33.8457   24.2143 N   0  0  0  0  0  0
  -23.4602  -30.4521   21.5276 C   0  0  2  0  0  0
  -24.9106  -28.8606   20.1126 C   0  0  0  0  0  0
  -22.7609  -29.4512   22.4819 C   0  0  0  0  0  0
  -18.0319  -28.1388   22.8464 C   0  0  0  0  0  0
  -24.1494  -36.7235   23.2644 C   0  0  0  0  0  0
  -26.0231  -30.6767   21.3949 C   0  0  0  0  0  0
  -26.0911  -29.2779   20.7383 C   0  0  0  0  0  0
  -27.2399  -28.3848   20.7447 C   0  0  0  0  0  0
  -26.0073  -26.7508   19.4888 C   0  0  0  0  0  0
  -24.8873  -27.6145   19.4697 C   0  0  0  0  0  0
  -23.6930  -29.7758   20.1504 C   0  0  0  0  0  0
  -25.4129  -36.2999   24.0309 C   0  0  1  0  0  0
  -20.5930  -28.3729   23.1179 C   0  0  2  0  0  0
  -20.6807  -26.9433   22.5342 C   0  0  0  0  0  0
  -19.5759  -26.6349   21.5194 C   0  0  0  0  0  0
  -18.1951  -26.7919   22.1625 C   0  0  0  0  0  0
  -19.1576  -28.8875   23.2818 C   0  0  0  0  0  0
  -18.9500  -30.1470   23.8845 C   0  0  0  0  0  0
  -17.6494  -30.6582   24.0540 C   0  0  0  0  0  0
  -25.9086  -34.9378   23.5040 C   0  0  0  0  0  0
  -16.5386  -29.9067   23.6334 C   0  0  0  0  0  0
  -16.7302  -28.6486   23.0355 C   0  0  0  0  0  0
  -26.4541  -31.6547   25.0711 C   0  0  0  0  0  0
  -25.3699  -31.3765   26.1387 C   0  0  0  0  0  0
  -27.0423  -30.2930   24.6365 C   0  0  0  0  0  0
  -27.6049  -32.4336   25.7509 C   0  0  0  0  0  0
  -27.5576  -37.1773   24.8462 C   0  0  0  0  0  0
  -21.4293  -29.3048   22.3550 N   0  0  0  0  0  0
  -26.4284  -37.3724   23.9407 N   0  0  0  0  0  0
  -24.7321  -31.0121   22.0884 N   0  0  0  0  0  0
  -23.4199  -28.8076   23.3020 O   0  0  0  0  0  0
  -28.2562  -26.0094   20.2365 O   0  0  0  0  0  0
  -26.5680  -34.8885   22.4624 O   0  0  0  0  0  0
  -23.5619  -32.1282   23.6960 O   0  0  0  0  0  0
  -29.4581  -20.9576   20.4901 C   0  0  0  0  0  0
  -29.2141  -18.5730   21.6321 C   0  0  0  0  0  0
  -29.1873  -23.4180   19.4514 C   0  0  0  0  0  0
  -28.1604  -23.2475   21.1302 C   0  0  0  0  0  0
  -29.0688  -19.3310   20.3403 C   0  0  2  0  0  0
  -29.9911  -17.8623   20.5447 C   0  0  2  0  0  0
  -28.0736  -24.4254   20.0285 C   0  0  0  0  0  0
  -28.6259  -22.1841   20.1435 N   0  0  0  0  0  0
  -29.6950  -16.2867   20.5188 N   0  0  0  0  0  0
  -30.5912  -21.2062   20.9048 O   0  0  0  0  0  0
  -31.4702  -12.8637   19.1848 H   0  0  0  0  0  0
  -30.4726  -11.7445   20.0677 H   0  0  0  0  0  0
  -29.8693  -11.7379   17.6207 H   0  0  0  0  0  0
  -29.5921  -13.4627   17.6699 H   0  0  0  0  0  0
  -27.9829  -11.2751   19.0144 H   0  0  0  0  0  0
  -27.3994  -12.4156   17.8277 H   0  0  0  0  0  0
  -27.5671  -14.2492   19.3798 H   0  0  0  0  0  0
  -28.7889  -12.3787   21.4641 H   0  0  0  0  0  0
  -28.3415  -14.0483   21.7329 H   0  0  0  0  0  0
  -25.2775   -9.5676   22.4769 H   0  0  0  0  0  0
  -24.0005   -7.4637   22.7479 H   0  0  0  0  0  0
  -21.0858   -8.8785   19.8954 H   0  0  0  0  0  0
  -22.3723  -10.9676   19.6168 H   0  0  0  0  0  0
  -21.2012   -7.6149   23.9715 H   0  0  0  0  0  0
  -21.1483   -6.0526   25.9078 H   0  0  0  0  0  0
  -22.0595   -2.7609   23.2852 H   0  0  0  0  0  0
  -22.4066  -11.9854   22.4841 H   0  0  0  0  0  0
  -21.1050  -13.1194   22.2639 H   0  0  0  0  0  0
  -24.6293  -15.8396   20.5152 H   0  0  0  0  0  0
  -26.2347  -15.6371   20.0350 H   0  0  0  0  0  0
  -26.7315  -32.5221   23.0951 H   0  0  0  0  0  0
  -25.0068  -33.9563   25.0264 H   0  0  0  0  0  0
  -22.7682  -31.2815   21.3655 H   0  0  0  0  0  0
  -23.3766  -35.9557   23.3278 H   0  0  0  0  0  0
  -24.3573  -36.8907   22.2063 H   0  0  0  0  0  0
  -23.7241  -37.6416   23.6711 H   0  0  0  0  0  0
  -26.1906  -31.4250   20.6192 H   0  0  0  0  0  0
  -26.8891  -30.7292   22.0428 H   0  0  0  0  0  0
  -28.1366  -28.7015   21.2584 H   0  0  0  0  0  0
  -25.8835  -25.8117   18.9751 H   0  0  0  0  0  0
  -23.9895  -27.2924   18.9597 H   0  0  0  0  0  0
  -23.8391  -30.5481   19.3944 H   0  0  0  0  0  0
  -22.8055  -29.2250   19.8345 H   0  0  0  0  0  0
  -25.1321  -36.1814   25.0803 H   0  0  0  0  0  0
  -21.0028  -28.3319   24.1294 H   0  0  0  0  0  0
  -20.5780  -26.2327   23.3552 H   0  0  0  0  0  0
  -21.6641  -26.7464   22.1060 H   0  0  0  0  0  0
  -19.6918  -25.6236   21.1290 H   0  0  0  0  0  0
  -19.6688  -27.3102   20.6676 H   0  0  0  0  0  0
  -17.4208  -26.6659   21.4040 H   0  0  0  0  0  0
  -18.0354  -26.0077   22.9040 H   0  0  0  0  0  0
  -19.7980  -30.7289   24.2195 H   0  0  0  0  0  0
  -17.5044  -31.6257   24.5146 H   0  0  0  0  0  0
  -15.5388  -30.2951   23.7694 H   0  0  0  0  0  0
  -15.8697  -28.0778   22.7119 H   0  0  0  0  0  0
  -24.5896  -30.7091   25.7712 H   0  0  0  0  0  0
  -24.8869  -32.2955   26.4715 H   0  0  0  0  0  0
  -25.7963  -30.9008   27.0228 H   0  0  0  0  0  0
  -26.3069  -29.6626   24.1356 H   0  0  0  0  0  0
  -27.3983  -29.7258   25.4976 H   0  0  0  0  0  0
  -27.8994  -30.4144   23.9737 H   0  0  0  0  0  0
  -27.2627  -33.3670   26.1988 H   0  0  0  0  0  0
  -28.3912  -32.6844   25.0376 H   0  0  0  0  0  0
  -28.0654  -31.8526   26.5510 H   0  0  0  0  0  0
  -28.2568  -38.0092   24.7516 H   0  0  0  0  0  0
  -28.1096  -36.2618   24.6281 H   0  0  0  0  0  0
  -27.2287  -37.1400   25.8862 H   0  0  0  0  0  0
  -20.9531  -29.8725   21.6684 H   0  0  0  0  0  0
  -26.0141  -38.2787   24.1422 H   0  0  0  0  0  0
  -28.3044  -18.1009   21.9982 H   0  0  0  0  0  0
  -29.8053  -19.0319   22.4233 H   0  0  0  0  0  0
  -30.1966  -23.6695   19.7892 H   0  0  0  0  0  0
  -29.1731  -23.3395   18.3641 H   0  0  0  0  0  0
  -27.1948  -23.0115   21.5791 H   0  0  0  0  0  0
  -28.8962  -23.4459   21.9140 H   0  0  0  0  0  0
  -28.1336  -19.1893   19.8033 H   0  0  0  0  0  0
  -31.0595  -18.0698   20.5133 H   0  0  0  0  0  0
  -27.1734  -24.2595   19.4419 H   0  0  0  0  0  0
  -28.7167  -16.0684   20.6347 H   0  0  0  0  0  0
  1 25  1  0  0  0
  1 30  2  0  0  0
  1 79  1  0  0  0
  2  3  1  0  0  0
  2 25  1  0  0  0
  2 81  1  0  0  0
  2 82  1  0  0  0
  3  4  1  0  0  0
  3 83  1  0  0  0
  3 84  1  0  0  0
  4  5  1  0  0  0
  4 85  1  0  0  0
  4 86  1  0  0  0
  5  6  1  0  0  0
  5 26  1  0  0  0
  5 87  1  0  0  0
  6 25  1  0  0  0
  6 88  1  0  0  0
  6 89  1  0  0  0
  7  8  2  0  0  0
  7 26  1  0  0  0
  7 29  1  0  0  0
  8  9  1  0  0  0
  8 22  1  0  0  0
  9 10  1  0  0  0
  9 27  2  0  0  0
 10 11  2  0  0  0
 10 15  1  0  0  0
 11 12  1  0  0  0
 11 90  1  0  0  0
 12 13  2  0  0  0
 12 91  1  0  0  0
 13 14  1  0  0  0
 13 31  1  0  0  0
 14 15  2  0  0  0
 14 92  1  0  0  0
 15 93  1  0  0  0
 16 17  2  0  0  0
 16 21  1  0  0  0
 16 31  1  0  0  0
 17 18  1  0  0  0
 17 94  1  0  0  0
 18 19  2  0  0  0
 18 95  1  0  0  0
 19 20  1  0  0  0
 19 24  1  0  0  0
 20 21  2  0  0  0
 20 96  1  0  0  0
 21 23  1  0  0  0
 22 28  1  0  0  0
 22 32  2  0  0  0
 26 27  1  0  0  0
 28 97  1  0  0  0
 28 98  1  0  0  0
 29 99  1  0  0  0
 29100  1  0  0  0
 33 34  1  0  0  0
 33 66  1  0  0  0
 33 70  2  0  0  0
 34 36  1  0  0  0
 34 59  1  0  0  0
 34101  1  0  0  0
 35 44  2  0  0  0
 35 45  1  0  0  0
 35 68  1  0  0  0
 36 56  1  0  0  0
 36102  1  0  0  0
 37 39  1  0  0  0
 37 47  1  0  0  0
 37 66  1  0  0  0
 37103  1  0  0  0
 38 43  2  0  0  0
 38 46  1  0  0  0
 38 47  1  0  0  0
 39 64  1  0  0  0
 39 67  2  0  0  0
 40 52  1  0  0  0
 40 53  2  0  0  0
 40 58  1  0  0  0
 41104  1  0  0  0
 41105  1  0  0  0
 41106  1  0  0  0
 41 48  1  0  0  0
 42 43  1  0  0  0
 42 66  1  0  0  0
 42107  1  0  0  0
 42108  1  0  0  0
 43 44  1  0  0  0
 44109  1  0  0  0
 45 46  2  0  0  0
 45110  1  0  0  0
 46111  1  0  0  0
 47112  1  0  0  0
 47113  1  0  0  0
 48 56  1  0  0  0
 48 65  1  0  0  0
 48114  1  0  0  0
 49 50  1  0  0  0
 49 53  1  0  0  0
 49 64  1  0  0  0
 49115  1  0  0  0
 50 51  1  0  0  0
 50116  1  0  0  0
 50117  1  0  0  0
 51 52  1  0  0  0
 51118  1  0  0  0
 51119  1  0  0  0
 52120  1  0  0  0
 52121  1  0  0  0
 53 54  1  0  0  0
 54 55  2  0  0  0
 54122  1  0  0  0
 55 57  1  0  0  0
 55123  1  0  0  0
 56 69  2  0  0  0
 57 58  2  0  0  0
 57124  1  0  0  0
 58125  1  0  0  0
 59 60  1  0  0  0
 59 61  1  0  0  0
 59 62  1  0  0  0
 60126  1  0  0  0
 60127  1  0  0  0
 60128  1  0  0  0
 61129  1  0  0  0
 61130  1  0  0  0
 61131  1  0  0  0
 62132  1  0  0  0
 62133  1  0  0  0
 62134  1  0  0  0
 63 65  1  0  0  0
 63135  1  0  0  0
 63136  1  0  0  0
 63137  1  0  0  0
 64138  1  0  0  0
 65139  1  0  0  0
 68 77  1  0  0  0
 71 78  1  0  0  0
 71 80  2  0  0  0
 71 75  1  0  0  0
 72 75  1  0  0  0
 72 76  1  0  0  0
 72140  1  0  0  0
 72141  1  0  0  0
 73 77  1  0  0  0
 73 78  1  0  0  0
 73142  1  0  0  0
 73143  1  0  0  0
 74 77  1  0  0  0
 74 78  1  0  0  0
 74144  1  0  0  0
 74145  1  0  0  0
 75 76  1  0  0  0
 75146  1  0  0  0
 76 79  1  0  0  0
 76147  1  0  0  0
 77148  1  0  0  0
 79149  1  0  0  0
M  ISO  4   1 100  68 101  77 101  79 100
M  END
> <chiral flag>
0

> <version>
0

> <s_m_source_file>
/data/baiqing/PycharmProjects/Reinvent-master-3.2/result/LINK_invent/BTK/process_docking_weight1_custom_sum_contain_oxygen_bond_distance_aromatic_linkinvent_7_9_3/rearranged_h_0187.sdf

> <i_m_source_file_index>
87

> <r_mmod_Potential_Energy-OPLS-2005>
816.960693359375

> <r_mmod_Stretch_Energy-OPLS-2005>
383.943420410156

> <r_mmod_Bend_Energy-OPLS-2005>
355.846649169922

> <r_mmod_Torsional_Energy-OPLS-2005>
269.808654785156

> <r_mmod_Improper_Torsional_Energy-OPLS-2005>
11.814398765564

> <r_mmod_Van_der_Waal_Energy-OPLS-2005>
115.453125

> <r_mmod_Electrostatic_Energy-OPLS-2005>
-361.350738525391

> <r_mmod_Solvation_Energy-OPLS-2005>
-250.580444335938

> <b_mmod_Minimization_Converged-OPLS-2005>
0

> <r_mmod_RMS_Derivative-OPLS-2005>
1.15532255172729

$$$$
87
                    3D
 Structure written by MMmdl.
157166  0  0  1  0            999 V2000
  -30.5924  -14.9099   20.4240 C   0  0  0  0  0  0
  -30.4283  -12.5634   19.4982 C   0  0  0  0  0  0
  -29.5162  -12.5217   18.2530 C   0  0  0  0  0  0
  -28.0483  -12.3191   18.6710 C   0  0  0  0  0  0
  -27.6292  -13.2518   19.8389 C   0  0  2  0  0  0
  -28.6722  -13.2872   20.9758 C   0  0  0  0  0  0
  -25.2468  -13.8229   20.5728 C   0  0  0  0  0  0
  -24.1780  -13.0448   20.9222 C   0  0  0  0  0  0
  -24.6398  -11.6935   20.8746 C   0  0  0  0  0  0
  -23.9084  -10.4302   21.0397 C   0  0  0  0  0  0
  -24.3625   -9.4215   21.9176 C   0  0  0  0  0  0
  -23.6307   -8.2248   22.0746 C   0  0  0  0  0  0
  -22.4289   -8.0280   21.3538 C   0  0  0  0  0  0
  -21.9925   -9.0257   20.4640 C   0  0  0  0  0  0
  -22.7252  -10.2138   20.3051 C   0  0  0  0  0  0
  -21.6858   -6.0736   22.5277 C   0  0  0  0  0  0
  -21.4015   -6.5639   23.8210 C   0  0  0  0  0  0
  -21.3664   -5.6791   24.9171 C   0  0  0  0  0  0
  -21.6046   -4.3055   24.7219 C   0  0  0  0  0  0
  -21.8819   -3.8147   23.4341 C   0  0  0  0  0  0
  -21.9194   -4.6962   22.3398 C   0  0  0  0  0  0
  -22.7801  -13.5222   21.1875 C   0  0  0  0  0  0
  -22.1662   -4.2148   21.0975 F   0  0  0  0  0  0
  -21.5634   -3.4539   25.7732 F   0  0  0  0  0  0
  -29.9491  -13.6762   20.3677 N   0  0  0  0  0  0
  -26.2893  -12.9466   20.3267 N   0  0  0  0  0  0
  -25.9331  -11.6591   20.5742 N   0  0  0  0  0  0
  -22.0449  -12.8212   22.0428 N   0  0  0  0  0  0
  -25.4158  -15.1956   20.4174 N   0  0  0  0  0  0
  -31.7961  -14.9146   20.1399 O   0  0  0  0  0  0
  -21.6646   -6.8880   21.4241 O   0  0  0  0  0  0
  -22.3483  -14.5525   20.6719 O   0  0  0  0  0  0
  -24.6433  -31.8460   23.1906 C   0  0  0  0  0  0
  -25.9210  -32.4704   23.8289 C   0  0  1  0  0  0
  -27.2061  -27.1455   20.1389 C   0  0  0  0  0  0
  -25.5963  -33.8510   24.2207 N   0  0  0  0  0  0
  -23.4452  -30.4686   21.5369 C   0  0  2  0  0  0
  -24.8915  -28.9017   20.1080 C   0  0  0  0  0  0
  -22.7568  -29.4562   22.4869 C   0  0  0  0  0  0
  -18.0302  -28.1400   22.8478 C   0  0  0  0  0  0
  -24.1492  -36.7266   23.2641 C   0  0  0  0  0  0
  -26.0021  -30.7220   21.3886 C   0  0  0  0  0  0
  -26.0708  -29.3355   20.7268 C   0  0  0  0  0  0
  -27.2305  -28.4729   20.7277 C   0  0  0  0  0  0
  -26.0011  -26.8184   19.4752 C   0  0  0  0  0  0
  -24.8692  -27.6563   19.4675 C   0  0  0  0  0  0
  -23.6697  -29.8039   20.1540 C   0  0  0  0  0  0
  -25.4123  -36.3041   24.0318 C   0  0  1  0  0  0
  -20.5916  -28.3726   23.1239 C   0  0  2  0  0  0
  -20.6790  -26.9432   22.5402 C   0  0  0  0  0  0
  -19.5760  -26.6384   21.5216 C   0  0  0  0  0  0
  -18.1942  -26.7937   22.1625 C   0  0  0  0  0  0
  -19.1559  -28.8880   23.2851 C   0  0  0  0  0  0
  -18.9478  -30.1476   23.8876 C   0  0  0  0  0  0
  -17.6474  -30.6595   24.0559 C   0  0  0  0  0  0
  -25.9072  -34.9413   23.5070 C   0  0  0  0  0  0
  -16.5364  -29.9089   23.6335 C   0  0  0  0  0  0
  -16.7286  -28.6507   23.0355 C   0  0  0  0  0  0
  -26.4521  -31.6568   25.0731 C   0  0  0  0  0  0
  -25.3702  -31.3765   26.1428 C   0  0  0  0  0  0
  -27.0378  -30.2961   24.6310 C   0  0  0  0  0  0
  -27.6050  -32.4332   25.7517 C   0  0  0  0  0  0
  -27.5580  -37.1787   24.8461 C   0  0  0  0  0  0
  -21.4263  -29.3054   22.3616 N   0  0  0  0  0  0
  -26.4284  -37.3757   23.9410 N   0  0  0  0  0  0
  -24.7167  -31.0326   22.0938 N   0  0  0  0  0  0
  -23.4219  -28.8108   23.3011 O   0  0  0  0  0  0
  -28.2408  -26.1449   20.2184 O   0  0  0  0  0  0
  -26.5657  -34.8905   22.4645 O   0  0  0  0  0  0
  -23.5551  -32.1340   23.7129 O   0  0  0  0  0  0
  -28.4816  -21.9148   20.1281 C   0  0  0  0  0  0
  -28.8186  -23.3356   20.3285 C   0  0  0  0  0  0
  -29.4027  -20.8340   20.4734 C   0  0  0  0  0  0
  -30.8335  -22.5407   21.1349 C   0  0  0  0  0  0
  -30.1708  -18.6744   19.4035 C   0  0  0  0  0  0
  -29.3650  -18.5145   21.5579 C   0  0  0  0  0  0
  -29.9978  -17.0901   19.1772 C   0  0  0  0  0  0
  -29.1891  -16.9041   21.4383 C   0  0  0  0  0  0
  -32.1940  -22.8864   21.6979 C   0  0  0  0  0  0
  -27.8854  -24.6462   20.0007 C   0  0  0  0  0  0
  -30.0389  -23.5764   20.8461 N   0  0  0  0  0  0
  -30.5809  -21.2348   20.9807 N   0  0  0  0  0  0
  -29.2360  -19.3630   20.3331 N   0  0  0  0  0  0
  -29.8763  -16.1420   20.3404 N   0  0  0  0  0  0
  -31.4666  -12.6914   19.1892 H   0  0  0  0  0  0
  -30.3970  -11.6137   20.0350 H   0  0  0  0  0  0
  -29.8307  -11.7225   17.5803 H   0  0  0  0  0  0
  -29.6144  -13.4529   17.6919 H   0  0  0  0  0  0
  -27.9377  -11.2784   18.9771 H   0  0  0  0  0  0
  -27.3858  -12.4555   17.8154 H   0  0  0  0  0  0
  -27.5934  -14.2548   19.4126 H   0  0  0  0  0  0
  -28.7497  -12.3200   21.4746 H   0  0  0  0  0  0
  -28.3799  -14.0102   21.7388 H   0  0  0  0  0  0
  -25.2761   -9.5703   22.4759 H   0  0  0  0  0  0
  -24.0019   -7.4640   22.7470 H   0  0  0  0  0  0
  -21.0852   -8.8778   19.8953 H   0  0  0  0  0  0
  -22.3699  -10.9678   19.6173 H   0  0  0  0  0  0
  -21.2005   -7.6146   23.9714 H   0  0  0  0  0  0
  -21.1492   -6.0516   25.9076 H   0  0  0  0  0  0
  -22.0596   -2.7610   23.2832 H   0  0  0  0  0  0
  -22.4068  -11.9888   22.4840 H   0  0  0  0  0  0
  -21.1061  -13.1232   22.2614 H   0  0  0  0  0  0
  -24.6531  -15.8525   20.5391 H   0  0  0  0  0  0
  -26.2718  -15.6356   20.1033 H   0  0  0  0  0  0
  -26.7283  -32.5314   23.1024 H   0  0  0  0  0  0
  -25.0070  -33.9624   25.0326 H   0  0  0  0  0  0
  -22.7471  -31.2951   21.3862 H   0  0  0  0  0  0
  -23.3759  -35.9592   23.3281 H   0  0  0  0  0  0
  -24.3584  -36.8918   22.2061 H   0  0  0  0  0  0
  -23.7235  -37.6452   23.6688 H   0  0  0  0  0  0
  -26.1585  -31.4782   20.6181 H   0  0  0  0  0  0
  -26.8730  -30.7692   22.0306 H   0  0  0  0  0  0
  -28.1273  -28.7971   21.2369 H   0  0  0  0  0  0
  -25.8861  -25.8720   18.9701 H   0  0  0  0  0  0
  -23.9689  -27.3210   18.9701 H   0  0  0  0  0  0
  -23.8080  -30.5814   19.4015 H   0  0  0  0  0  0
  -22.7834  -29.2490   19.8417 H   0  0  0  0  0  0
  -25.1305  -36.1871   25.0809 H   0  0  0  0  0  0
  -21.0002  -28.3314   24.1363 H   0  0  0  0  0  0
  -20.5692  -26.2344   23.3621 H   0  0  0  0  0  0
  -21.6656  -26.7446   22.1196 H   0  0  0  0  0  0
  -19.6922  -25.6290   21.1261 H   0  0  0  0  0  0
  -19.6691  -27.3180   20.6733 H   0  0  0  0  0  0
  -17.4213  -26.6681   21.4026 H   0  0  0  0  0  0
  -18.0339  -26.0086   22.9028 H   0  0  0  0  0  0
  -19.7956  -30.7296   24.2238 H   0  0  0  0  0  0
  -17.5028  -31.6270   24.5169 H   0  0  0  0  0  0
  -15.5365  -30.2981   23.7670 H   0  0  0  0  0  0
  -15.8688  -28.0816   22.7079 H   0  0  0  0  0  0
  -24.5865  -30.7134   25.7749 H   0  0  0  0  0  0
  -24.8908  -32.2952   26.4820 H   0  0  0  0  0  0
  -25.7976  -30.8951   27.0233 H   0  0  0  0  0  0
  -26.2992  -29.6690   24.1305 H   0  0  0  0  0  0
  -27.3975  -29.7257   25.4884 H   0  0  0  0  0  0
  -27.8911  -30.4195   23.9637 H   0  0  0  0  0  0
  -27.2635  -33.3638   26.2064 H   0  0  0  0  0  0
  -28.3876  -32.6889   25.0361 H   0  0  0  0  0  0
  -28.0705  -31.8485   26.5461 H   0  0  0  0  0  0
  -28.2577  -38.0102   24.7527 H   0  0  0  0  0  0
  -28.1091  -36.2633   24.6255 H   0  0  0  0  0  0
  -27.2304  -37.1402   25.8863 H   0  0  0  0  0  0
  -20.9477  -29.8780   21.6805 H   0  0  0  0  0  0
  -26.0152  -38.2822   24.1417 H   0  0  0  0  0  0
  -27.5151  -21.6637   19.7120 H   0  0  0  0  0  0
  -30.0998  -19.1727   18.4354 H   0  0  0  0  0  0
  -31.1898  -18.8631   19.7459 H   0  0  0  0  0  0
  -30.3473  -18.7146   21.9909 H   0  0  0  0  0  0
  -28.6552  -18.8895   22.2962 H   0  0  0  0  0  0
  -30.8105  -16.7543   18.5303 H   0  0  0  0  0  0
  -29.0956  -16.9397   18.5833 H   0  0  0  0  0  0
  -28.1250  -16.6909   21.3327 H   0  0  0  0  0  0
  -29.4743  -16.4572   22.3922 H   0  0  0  0  0  0
  -32.2575  -23.9398   21.9724 H   0  0  0  0  0  0
  -32.9687  -22.6811   20.9598 H   0  0  0  0  0  0
  -32.4012  -22.2955   22.5894 H   0  0  0  0  0  0
  -26.9583  -24.4621   20.5447 H   0  0  0  0  0  0
  -27.6361  -24.5404   18.9447 H   0  0  0  0  0  0
  1 25  1  0  0  0
  1 30  2  0  0  0
  1 84  1  0  0  0
  2  3  1  0  0  0
  2 25  1  0  0  0
  2 85  1  0  0  0
  2 86  1  0  0  0
  3  4  1  0  0  0
  3 87  1  0  0  0
  3 88  1  0  0  0
  4  5  1  0  0  0
  4 89  1  0  0  0
  4 90  1  0  0  0
  5  6  1  0  0  0
  5 26  1  0  0  0
  5 91  1  0  0  0
  6 25  1  0  0  0
  6 92  1  0  0  0
  6 93  1  0  0  0
  7  8  2  0  0  0
  7 26  1  0  0  0
  7 29  1  0  0  0
  8  9  1  0  0  0
  8 22  1  0  0  0
  9 10  1  0  0  0
  9 27  2  0  0  0
 10 11  2  0  0  0
 10 15  1  0  0  0
 11 12  1  0  0  0
 11 94  1  0  0  0
 12 13  2  0  0  0
 12 95  1  0  0  0
 13 14  1  0  0  0
 13 31  1  0  0  0
 14 15  2  0  0  0
 14 96  1  0  0  0
 15 97  1  0  0  0
 16 17  2  0  0  0
 16 21  1  0  0  0
 16 31  1  0  0  0
 17 18  1  0  0  0
 17 98  1  0  0  0
 18 19  2  0  0  0
 18 99  1  0  0  0
 19 20  1  0  0  0
 19 24  1  0  0  0
 20 21  2  0  0  0
 20100  1  0  0  0
 21 23  1  0  0  0
 22 28  1  0  0  0
 22 32  2  0  0  0
 26 27  1  0  0  0
 28101  1  0  0  0
 28102  1  0  0  0
 29103  1  0  0  0
 29104  1  0  0  0
 33 34  1  0  0  0
 33 66  1  0  0  0
 33 70  2  0  0  0
 34 36  1  0  0  0
 34 59  1  0  0  0
 34105  1  0  0  0
 35 44  2  0  0  0
 35 45  1  0  0  0
 35 68  1  0  0  0
 36 56  1  0  0  0
 36106  1  0  0  0
 37 39  1  0  0  0
 37 47  1  0  0  0
 37 66  1  0  0  0
 37107  1  0  0  0
 38 43  2  0  0  0
 38 46  1  0  0  0
 38 47  1  0  0  0
 39 64  1  0  0  0
 39 67  2  0  0  0
 40 52  1  0  0  0
 40 53  2  0  0  0
 40 58  1  0  0  0
 41108  1  0  0  0
 41109  1  0  0  0
 41110  1  0  0  0
 41 48  1  0  0  0
 42 43  1  0  0  0
 42 66  1  0  0  0
 42111  1  0  0  0
 42112  1  0  0  0
 43 44  1  0  0  0
 44113  1  0  0  0
 45 46  2  0  0  0
 45114  1  0  0  0
 46115  1  0  0  0
 47116  1  0  0  0
 47117  1  0  0  0
 48 56  1  0  0  0
 48 65  1  0  0  0
 48118  1  0  0  0
 49 50  1  0  0  0
 49 53  1  0  0  0
 49 64  1  0  0  0
 49119  1  0  0  0
 50 51  1  0  0  0
 50120  1  0  0  0
 50121  1  0  0  0
 51 52  1  0  0  0
 51122  1  0  0  0
 51123  1  0  0  0
 52124  1  0  0  0
 52125  1  0  0  0
 53 54  1  0  0  0
 54 55  2  0  0  0
 54126  1  0  0  0
 55 57  1  0  0  0
 55127  1  0  0  0
 56 69  2  0  0  0
 57 58  2  0  0  0
 57128  1  0  0  0
 58129  1  0  0  0
 59 60  1  0  0  0
 59 61  1  0  0  0
 59 62  1  0  0  0
 60130  1  0  0  0
 60131  1  0  0  0
 60132  1  0  0  0
 61133  1  0  0  0
 61134  1  0  0  0
 61135  1  0  0  0
 62136  1  0  0  0
 62137  1  0  0  0
 62138  1  0  0  0
 63 65  1  0  0  0
 63139  1  0  0  0
 63140  1  0  0  0
 63141  1  0  0  0
 64142  1  0  0  0
 65143  1  0  0  0
 68 80  1  0  0  0
 71 72  2  0  0  0
 71 73  1  0  0  0
 71144  1  0  0  0
 72 80  1  0  0  0
 72 81  1  0  0  0
 73 82  2  0  0  0
 73 83  1  0  0  0
 74 79  1  0  0  0
 74 81  2  0  0  0
 74 82  1  0  0  0
 75 77  1  0  0  0
 75 83  1  0  0  0
 75145  1  0  0  0
 75146  1  0  0  0
 76 78  1  0  0  0
 76 83  1  0  0  0
 76147  1  0  0  0
 76148  1  0  0  0
 77 84  1  0  0  0
 77149  1  0  0  0
 77150  1  0  0  0
 78 84  1  0  0  0
 78151  1  0  0  0
 78152  1  0  0  0
 79153  1  0  0  0
 79154  1  0  0  0
 79155  1  0  0  0
 80156  1  0  0  0
 80157  1  0  0  0
M  ISO  4   1 100  68 101  80 101  84 100
M  END
> <chiral flag>
0

> <version>
0

> <s_m_source_file>
/data/baiqing/PycharmProjects/Reinvent-master-3.2/result/LINK_invent/BTK/process_docking_weight1_custom_sum_contain_oxygen_bond_distance_aromatic_linkinvent_7_9_3/rearranged_h_0187.sdf

> <i_m_source_file_index>
88

> <r_mmod_Potential_Energy-OPLS-2005>
86.1469268798828

> <r_mmod_Stretch_Energy-OPLS-2005>
198.10188293457

> <r_mmod_Bend_Energy-OPLS-2005>
242.389770507812

> <r_mmod_Torsional_Energy-OPLS-2005>
363.217712402344

> <r_mmod_Improper_Torsional_Energy-OPLS-2005>
20.4750194549561

> <r_mmod_Van_der_Waal_Energy-OPLS-2005>
147.790512084961

> <r_mmod_Electrostatic_Energy-OPLS-2005>
-819.910583496094

> <r_mmod_Solvation_Energy-OPLS-2005>
-243.180969238281

> <b_mmod_Minimization_Converged-OPLS-2005>
0

> <r_mmod_RMS_Derivative-OPLS-2005>
1.05898225307465

$$$$
88
                    3D
 Structure written by MMmdl.
154163  0  0  1  0            999 V2000
  -30.6339  -14.8115   20.4417 C   0  0  0  0  0  0
  -30.4207  -12.5050   19.4736 C   0  0  0  0  0  0
  -29.5030  -12.5126   18.2339 C   0  0  0  0  0  0
  -28.0325  -12.3310   18.6542 C   0  0  0  0  0  0
  -27.6324  -13.2444   19.8451 C   0  0  2  0  0  0
  -28.6835  -13.2190   20.9749 C   0  0  0  0  0  0
  -25.2471  -13.8225   20.5723 C   0  0  0  0  0  0
  -24.1778  -13.0450   20.9228 C   0  0  0  0  0  0
  -24.6390  -11.6933   20.8767 C   0  0  0  0  0  0
  -23.9076  -10.4300   21.0415 C   0  0  0  0  0  0
  -24.3625   -9.4211   21.9189 C   0  0  0  0  0  0
  -23.6296   -8.2248   22.0756 C   0  0  0  0  0  0
  -22.4279   -8.0285   21.3544 C   0  0  0  0  0  0
  -21.9917   -9.0260   20.4647 C   0  0  0  0  0  0
  -22.7250  -10.2137   20.3062 C   0  0  0  0  0  0
  -21.6855   -6.0739   22.5280 C   0  0  0  0  0  0
  -21.4015   -6.5641   23.8214 C   0  0  0  0  0  0
  -21.3660   -5.6793   24.9175 C   0  0  0  0  0  0
  -21.6045   -4.3056   24.7227 C   0  0  0  0  0  0
  -21.8817   -3.8150   23.4347 C   0  0  0  0  0  0
  -21.9191   -4.6966   22.3402 C   0  0  0  0  0  0
  -22.7797  -13.5218   21.1876 C   0  0  0  0  0  0
  -22.1657   -4.2153   21.0979 F   0  0  0  0  0  0
  -21.5631   -3.4537   25.7738 F   0  0  0  0  0  0
  -29.9602  -13.6031   20.3640 N   0  0  0  0  0  0
  -26.2901  -12.9453   20.3302 N   0  0  0  0  0  0
  -25.9326  -11.6584   20.5778 N   0  0  0  0  0  0
  -22.0444  -12.8206   22.0429 N   0  0  0  0  0  0
  -25.4156  -15.1949   20.4134 N   0  0  0  0  0  0
  -31.8454  -14.7870   20.1981 O   0  0  0  0  0  0
  -21.6643   -6.8882   21.4241 O   0  0  0  0  0  0
  -22.3478  -14.5517   20.6713 O   0  0  0  0  0  0
  -24.6364  -31.8513   23.1954 C   0  0  0  0  0  0
  -25.9171  -32.4730   23.8311 C   0  0  1  0  0  0
  -27.2152  -27.2169   20.1178 C   0  0  0  0  0  0
  -25.5950  -33.8534   24.2232 N   0  0  0  0  0  0
  -23.4339  -30.4752   21.5403 C   0  0  2  0  0  0
  -24.8788  -28.9190   20.1062 C   0  0  0  0  0  0
  -22.7524  -29.4589   22.4894 C   0  0  0  0  0  0
  -18.0296  -28.1393   22.8484 C   0  0  0  0  0  0
  -24.1491  -36.7268   23.2640 C   0  0  0  0  0  0
  -25.9847  -30.7494   21.3820 C   0  0  0  0  0  0
  -26.0538  -29.3698   20.7191 C   0  0  0  0  0  0
  -27.2199  -28.5305   20.7163 C   0  0  0  0  0  0
  -26.0051  -26.8419   19.4887 C   0  0  0  0  0  0
  -24.8625  -27.6647   19.4821 C   0  0  0  0  0  0
  -23.6527  -29.8115   20.1560 C   0  0  0  0  0  0
  -25.4120  -36.3052   24.0322 C   0  0  1  0  0  0
  -20.5902  -28.3708   23.1257 C   0  0  2  0  0  0
  -20.6784  -26.9420   22.5406 C   0  0  0  0  0  0
  -19.5758  -26.6385   21.5212 C   0  0  0  0  0  0
  -18.1938  -26.7934   22.1623 C   0  0  0  0  0  0
  -19.1551  -28.8868   23.2863 C   0  0  0  0  0  0
  -18.9469  -30.1466   23.8885 C   0  0  0  0  0  0
  -17.6467  -30.6591   24.0562 C   0  0  0  0  0  0
  -25.9065  -34.9425   23.5079 C   0  0  0  0  0  0
  -16.5359  -29.9086   23.6333 C   0  0  0  0  0  0
  -16.7281  -28.6504   23.0358 C   0  0  0  0  0  0
  -26.4519  -31.6571   25.0722 C   0  0  0  0  0  0
  -25.3724  -31.3734   26.1428 C   0  0  0  0  0  0
  -27.0378  -30.2980   24.6247 C   0  0  0  0  0  0
  -27.6060  -32.4323   25.7501 C   0  0  0  0  0  0
  -27.5580  -37.1789   24.8465 C   0  0  0  0  0  0
  -21.4226  -29.3048   22.3639 N   0  0  0  0  0  0
  -26.4288  -37.3760   23.9411 N   0  0  0  0  0  0
  -24.7045  -31.0444   22.0948 N   0  0  0  0  0  0
  -23.4206  -28.8129   23.3007 O   0  0  0  0  0  0
  -28.3003  -26.2967   20.2168 O   0  0  0  0  0  0
  -26.5641  -34.8910   22.4652 O   0  0  0  0  0  0
  -23.5503  -32.1359   23.7224 O   0  0  0  0  0  0
  -27.6008  -22.6567   20.5050 C   0  0  0  0  0  0
  -27.8197  -21.2407   20.6677 C   0  0  0  0  0  0
  -28.6351  -23.5043   20.0122 C   0  0  0  0  0  0
  -29.0713  -20.6426   20.3299 C   0  0  0  0  0  0
  -30.6212  -18.5916   19.9359 C   0  0  0  0  0  0
  -28.4147  -18.1602   20.8855 C   0  0  0  0  0  0
  -30.4770  -17.1137   19.3713 C   0  0  0  0  0  0
  -29.0210  -16.7128   21.2627 C   0  0  0  0  0  0
  -28.3920  -24.9997   19.4296 C   0  0  0  0  0  0
  -29.8263  -22.8686   19.7356 N   0  0  0  0  0  0
  -30.0338  -21.5230   19.8950 N   0  0  0  0  0  0
  -29.3612  -19.2009   20.4040 N   0  0  0  0  0  0
  -29.9618  -16.0495   20.3003 N   0  0  0  0  0  0
  -31.4598  -12.6204   19.1617 H   0  0  0  0  0  0
  -30.3725  -11.5435   19.9872 H   0  0  0  0  0  0
  -29.7949  -11.7246   17.5383 H   0  0  0  0  0  0
  -29.6186  -13.4553   17.6967 H   0  0  0  0  0  0
  -27.9007  -11.2844   18.9316 H   0  0  0  0  0  0
  -27.3714  -12.5052   17.8045 H   0  0  0  0  0  0
  -27.6122  -14.2595   19.4474 H   0  0  0  0  0  0
  -28.7487  -12.2262   21.4229 H   0  0  0  0  0  0
  -28.4152  -13.8950   21.7852 H   0  0  0  0  0  0
  -25.2768   -9.5687   22.4766 H   0  0  0  0  0  0
  -24.0004   -7.4639   22.7475 H   0  0  0  0  0  0
  -21.0849   -8.8783   19.8949 H   0  0  0  0  0  0
  -22.3712  -10.9676   19.6173 H   0  0  0  0  0  0
  -21.2009   -7.6149   23.9717 H   0  0  0  0  0  0
  -21.1483   -6.0526   25.9077 H   0  0  0  0  0  0
  -22.0595   -2.7612   23.2849 H   0  0  0  0  0  0
  -22.4064  -11.9869   22.4817 H   0  0  0  0  0  0
  -21.1061  -13.1230   22.2631 H   0  0  0  0  0  0
  -24.6473  -15.8485   20.5191 H   0  0  0  0  0  0
  -26.2627  -15.6289   20.0716 H   0  0  0  0  0  0
  -26.7233  -32.5358   23.1041 H   0  0  0  0  0  0
  -25.0092  -33.9663   25.0376 H   0  0  0  0  0  0
  -22.7327  -31.2993   21.3942 H   0  0  0  0  0  0
  -23.3760  -35.9593   23.3288 H   0  0  0  0  0  0
  -24.3581  -36.8909   22.2057 H   0  0  0  0  0  0
  -23.7234  -37.6458   23.6679 H   0  0  0  0  0  0
  -26.1328  -31.5100   20.6145 H   0  0  0  0  0  0
  -26.8587  -30.7945   22.0202 H   0  0  0  0  0  0
  -28.1160  -28.8701   21.2166 H   0  0  0  0  0  0
  -25.8716  -25.8752   19.0334 H   0  0  0  0  0  0
  -23.9578  -27.3081   19.0088 H   0  0  0  0  0  0
  -23.7811  -30.5892   19.4023 H   0  0  0  0  0  0
  -22.7687  -29.2497   19.8485 H   0  0  0  0  0  0
  -25.1304  -36.1891   25.0814 H   0  0  0  0  0  0
  -20.9997  -28.3290   24.1377 H   0  0  0  0  0  0
  -20.5684  -26.2318   23.3615 H   0  0  0  0  0  0
  -21.6651  -26.7440   22.1198 H   0  0  0  0  0  0
  -19.6919  -25.6291   21.1250 H   0  0  0  0  0  0
  -19.6695  -27.3188   20.6736 H   0  0  0  0  0  0
  -17.4207  -26.6681   21.4026 H   0  0  0  0  0  0
  -18.0337  -26.0078   22.9021 H   0  0  0  0  0  0
  -19.7945  -30.7289   24.2248 H   0  0  0  0  0  0
  -17.5020  -31.6271   24.5164 H   0  0  0  0  0  0
  -15.5359  -30.2984   23.7666 H   0  0  0  0  0  0
  -15.8682  -28.0818   22.7082 H   0  0  0  0  0  0
  -24.5910  -30.7076   25.7750 H   0  0  0  0  0  0
  -24.8909  -32.2907   26.4823 H   0  0  0  0  0  0
  -25.8028  -30.8928   27.0223 H   0  0  0  0  0  0
  -26.2979  -29.6711   24.1257 H   0  0  0  0  0  0
  -27.4025  -29.7263   25.4791 H   0  0  0  0  0  0
  -27.8872  -30.4239   23.9529 H   0  0  0  0  0  0
  -27.2662  -33.3634   26.2049 H   0  0  0  0  0  0
  -28.3890  -32.6864   25.0343 H   0  0  0  0  0  0
  -28.0710  -31.8467   26.5444 H   0  0  0  0  0  0
  -28.2583  -38.0099   24.7525 H   0  0  0  0  0  0
  -28.1090  -36.2629   24.6275 H   0  0  0  0  0  0
  -27.2299  -37.1416   25.8867 H   0  0  0  0  0  0
  -20.9420  -29.8766   21.6835 H   0  0  0  0  0  0
  -26.0160  -38.2829   24.1421 H   0  0  0  0  0  0
  -26.6218  -23.0717   20.6930 H   0  0  0  0  0  0
  -27.0053  -20.6223   21.0122 H   0  0  0  0  0  0
  -31.0494  -19.2184   19.1522 H   0  0  0  0  0  0
  -31.3402  -18.6040   20.7566 H   0  0  0  0  0  0
  -27.8817  -18.5483   21.7548 H   0  0  0  0  0  0
  -27.6586  -18.0294   20.1099 H   0  0  0  0  0  0
  -31.4454  -16.8319   18.9559 H   0  0  0  0  0  0
  -29.8090  -17.1318   18.5094 H   0  0  0  0  0  0
  -28.1815  -16.0464   21.4527 H   0  0  0  0  0  0
  -29.5492  -16.7963   22.2136 H   0  0  0  0  0  0
  -27.5990  -24.9037   18.6957 H   0  0  0  0  0  0
  -29.2590  -25.1778   18.7932 H   0  0  0  0  0  0
  1 25  1  0  0  0
  1 30  2  0  0  0
  1 83  1  0  0  0
  2  3  1  0  0  0
  2 25  1  0  0  0
  2 84  1  0  0  0
  2 85  1  0  0  0
  3  4  1  0  0  0
  3 86  1  0  0  0
  3 87  1  0  0  0
  4  5  1  0  0  0
  4 88  1  0  0  0
  4 89  1  0  0  0
  5  6  1  0  0  0
  5 26  1  0  0  0
  5 90  1  0  0  0
  6 25  1  0  0  0
  6 91  1  0  0  0
  6 92  1  0  0  0
  7  8  2  0  0  0
  7 26  1  0  0  0
  7 29  1  0  0  0
  8  9  1  0  0  0
  8 22  1  0  0  0
  9 10  1  0  0  0
  9 27  2  0  0  0
 10 11  2  0  0  0
 10 15  1  0  0  0
 11 12  1  0  0  0
 11 93  1  0  0  0
 12 13  2  0  0  0
 12 94  1  0  0  0
 13 14  1  0  0  0
 13 31  1  0  0  0
 14 15  2  0  0  0
 14 95  1  0  0  0
 15 96  1  0  0  0
 16 17  2  0  0  0
 16 21  1  0  0  0
 16 31  1  0  0  0
 17 18  1  0  0  0
 17 97  1  0  0  0
 18 19  2  0  0  0
 18 98  1  0  0  0
 19 20  1  0  0  0
 19 24  1  0  0  0
 20 21  2  0  0  0
 20 99  1  0  0  0
 21 23  1  0  0  0
 22 28  1  0  0  0
 22 32  2  0  0  0
 26 27  1  0  0  0
 28100  1  0  0  0
 28101  1  0  0  0
 29102  1  0  0  0
 29103  1  0  0  0
 33 34  1  0  0  0
 33 66  1  0  0  0
 33 70  2  0  0  0
 34 36  1  0  0  0
 34 59  1  0  0  0
 34104  1  0  0  0
 35 44  2  0  0  0
 35 45  1  0  0  0
 35 68  1  0  0  0
 36 56  1  0  0  0
 36105  1  0  0  0
 37 39  1  0  0  0
 37 47  1  0  0  0
 37 66  1  0  0  0
 37106  1  0  0  0
 38 43  2  0  0  0
 38 46  1  0  0  0
 38 47  1  0  0  0
 39 64  1  0  0  0
 39 67  2  0  0  0
 40 52  1  0  0  0
 40 53  2  0  0  0
 40 58  1  0  0  0
 41107  1  0  0  0
 41108  1  0  0  0
 41109  1  0  0  0
 41 48  1  0  0  0
 42 43  1  0  0  0
 42 66  1  0  0  0
 42110  1  0  0  0
 42111  1  0  0  0
 43 44  1  0  0  0
 44112  1  0  0  0
 45 46  2  0  0  0
 45113  1  0  0  0
 46114  1  0  0  0
 47115  1  0  0  0
 47116  1  0  0  0
 48 56  1  0  0  0
 48 65  1  0  0  0
 48117  1  0  0  0
 49 50  1  0  0  0
 49 53  1  0  0  0
 49 64  1  0  0  0
 49118  1  0  0  0
 50 51  1  0  0  0
 50119  1  0  0  0
 50120  1  0  0  0
 51 52  1  0  0  0
 51121  1  0  0  0
 51122  1  0  0  0
 52123  1  0  0  0
 52124  1  0  0  0
 53 54  1  0  0  0
 54 55  2  0  0  0
 54125  1  0  0  0
 55 57  1  0  0  0
 55126  1  0  0  0
 56 69  2  0  0  0
 57 58  2  0  0  0
 57127  1  0  0  0
 58128  1  0  0  0
 59 60  1  0  0  0
 59 61  1  0  0  0
 59 62  1  0  0  0
 60129  1  0  0  0
 60130  1  0  0  0
 60131  1  0  0  0
 61132  1  0  0  0
 61133  1  0  0  0
 61134  1  0  0  0
 62135  1  0  0  0
 62136  1  0  0  0
 62137  1  0  0  0
 63 65  1  0  0  0
 63138  1  0  0  0
 63139  1  0  0  0
 63140  1  0  0  0
 64141  1  0  0  0
 65142  1  0  0  0
 68 79  1  0  0  0
 71 72  2  0  0  0
 71 73  1  0  0  0
 71143  1  0  0  0
 72 74  1  0  0  0
 72144  1  0  0  0
 73 79  1  0  0  0
 73 80  2  0  0  0
 74 81  2  0  0  0
 74 82  1  0  0  0
 75 77  1  0  0  0
 75 82  1  0  0  0
 75145  1  0  0  0
 75146  1  0  0  0
 76 78  1  0  0  0
 76 82  1  0  0  0
 76147  1  0  0  0
 76148  1  0  0  0
 77 83  1  0  0  0
 77149  1  0  0  0
 77150  1  0  0  0
 78 83  1  0  0  0
 78151  1  0  0  0
 78152  1  0  0  0
 79153  1  0  0  0
 79154  1  0  0  0
 80 81  1  0  0  0
M  ISO  4   1 100  68 101  79 101  83 100
M  END
> <chiral flag>
0

> <version>
0

> <s_m_source_file>
/data/baiqing/PycharmProjects/Reinvent-master-3.2/result/LINK_invent/BTK/process_docking_weight1_custom_sum_contain_oxygen_bond_distance_aromatic_linkinvent_7_9_3/rearranged_h_0187.sdf

> <i_m_source_file_index>
89

> <r_mmod_Potential_Energy-OPLS-2005>
482.034515380859

> <r_mmod_Stretch_Energy-OPLS-2005>
149.898498535156

> <r_mmod_Bend_Energy-OPLS-2005>
240.858734130859

> <r_mmod_Torsional_Energy-OPLS-2005>
340.850402832031

> <r_mmod_Improper_Torsional_Energy-OPLS-2005>
19.0823783874512

> <r_mmod_Van_der_Waal_Energy-OPLS-2005>
152.401290893555

> <r_mmod_Electrostatic_Energy-OPLS-2005>
-293.330505371094

> <r_mmod_Solvation_Energy-OPLS-2005>
-245.108673095703

> <b_mmod_Minimization_Converged-OPLS-2005>
0

> <r_mmod_RMS_Derivative-OPLS-2005>
0.468498051166534

$$$$
89
                    3D
 Structure written by MMmdl.
156165  0  0  1  0            999 V2000
  -30.5743  -14.9528   20.4379 C   0  0  0  0  0  0
  -30.4311  -12.6012   19.5017 C   0  0  0  0  0  0
  -29.5185  -12.5493   18.2555 C   0  0  0  0  0  0
  -28.0507  -12.3316   18.6664 C   0  0  0  0  0  0
  -27.6255  -13.2568   19.8385 C   0  0  2  0  0  0
  -28.6685  -13.3020   20.9763 C   0  0  0  0  0  0
  -25.2462  -13.8224   20.5751 C   0  0  0  0  0  0
  -24.1768  -13.0443   20.9220 C   0  0  0  0  0  0
  -24.6390  -11.6927   20.8736 C   0  0  0  0  0  0
  -23.9060  -10.4298   21.0387 C   0  0  0  0  0  0
  -24.3614   -9.4218   21.9174 C   0  0  0  0  0  0
  -23.6311   -8.2246   22.0747 C   0  0  0  0  0  0
  -22.4295   -8.0278   21.3531 C   0  0  0  0  0  0
  -21.9915   -9.0248   20.4630 C   0  0  0  0  0  0
  -22.7225  -10.2142   20.3028 C   0  0  0  0  0  0
  -21.6850   -6.0733   22.5280 C   0  0  0  0  0  0
  -21.4021   -6.5639   23.8214 C   0  0  0  0  0  0
  -21.3665   -5.6796   24.9177 C   0  0  0  0  0  0
  -21.6056   -4.3060   24.7220 C   0  0  0  0  0  0
  -21.8821   -3.8140   23.4342 C   0  0  0  0  0  0
  -21.9196   -4.6961   22.3403 C   0  0  0  0  0  0
  -22.7796  -13.5226   21.1885 C   0  0  0  0  0  0
  -22.1657   -4.2152   21.0975 F   0  0  0  0  0  0
  -21.5635   -3.4540   25.7729 F   0  0  0  0  0  0
  -29.9394  -13.7113   20.3686 N   0  0  0  0  0  0
  -26.2877  -12.9460   20.3265 N   0  0  0  0  0  0
  -25.9322  -11.6581   20.5724 N   0  0  0  0  0  0
  -22.0428  -12.8213   22.0416 N   0  0  0  0  0  0
  -25.4192  -15.1952   20.4254 N   0  0  0  0  0  0
  -31.7875  -14.9561   20.1930 O   0  0  0  0  0  0
  -21.6650   -6.8877   21.4243 O   0  0  0  0  0  0
  -22.3497  -14.5549   20.6747 O   0  0  0  0  0  0
  -24.6454  -31.8439   23.1873 C   0  0  0  0  0  0
  -25.9223  -32.4695   23.8256 C   0  0  1  0  0  0
  -27.2166  -27.1240   20.1463 C   0  0  0  0  0  0
  -25.5980  -33.8500   24.2193 N   0  0  0  0  0  0
  -23.4484  -30.4622   21.5365 C   0  0  2  0  0  0
  -24.8958  -28.8849   20.1173 C   0  0  0  0  0  0
  -22.7568  -29.4558   22.4903 C   0  0  0  0  0  0
  -18.0302  -28.1394   22.8482 C   0  0  0  0  0  0
  -24.1500  -36.7254   23.2636 C   0  0  0  0  0  0
  -26.0050  -30.7134   21.3852 C   0  0  0  0  0  0
  -26.0765  -29.3210   20.7327 C   0  0  0  0  0  0
  -27.2388  -28.4573   20.7294 C   0  0  0  0  0  0
  -26.0097  -26.7993   19.4869 C   0  0  0  0  0  0
  -24.8761  -27.6369   19.4798 C   0  0  0  0  0  0
  -23.6726  -29.7866   20.1585 C   0  0  0  0  0  0
  -25.4127  -36.3034   24.0320 C   0  0  1  0  0  0
  -20.5917  -28.3724   23.1249 C   0  0  2  0  0  0
  -20.6800  -26.9434   22.5409 C   0  0  0  0  0  0
  -19.5776  -26.6387   21.5218 C   0  0  0  0  0  0
  -18.1950  -26.7937   22.1613 C   0  0  0  0  0  0
  -19.1559  -28.8876   23.2860 C   0  0  0  0  0  0
  -18.9471  -30.1471   23.8883 C   0  0  0  0  0  0
  -17.6471  -30.6597   24.0550 C   0  0  0  0  0  0
  -25.9085  -34.9411   23.5065 C   0  0  0  0  0  0
  -16.5363  -29.9087   23.6335 C   0  0  0  0  0  0
  -16.7287  -28.6502   23.0362 C   0  0  0  0  0  0
  -26.4540  -31.6543   25.0686 C   0  0  0  0  0  0
  -25.3721  -31.3719   26.1377 C   0  0  0  0  0  0
  -27.0392  -30.2946   24.6229 C   0  0  0  0  0  0
  -27.6091  -32.4275   25.7478 C   0  0  0  0  0  0
  -27.5591  -37.1774   24.8448 C   0  0  0  0  0  0
  -21.4264  -29.3053   22.3632 N   0  0  0  0  0  0
  -26.4284  -37.3756   23.9422 N   0  0  0  0  0  0
  -24.7203  -31.0277   22.0922 N   0  0  0  0  0  0
  -23.4204  -28.8107   23.3061 O   0  0  0  0  0  0
  -28.2696  -26.1304   20.1715 O   0  0  0  0  0  0
  -26.5657  -34.8907   22.4635 O   0  0  0  0  0  0
  -23.5574  -32.1324   23.7087 O   0  0  0  0  0  0
  -30.8531  -22.6672   19.0470 C   0  0  0  0  0  0
  -28.9645  -23.3304   20.0544 C   0  0  0  0  0  0
  -29.6135  -21.0252   19.9729 C   0  0  0  0  0  0
  -30.4410  -18.6124   19.3648 C   0  0  0  0  0  0
  -28.9051  -18.6503   21.1617 C   0  0  0  0  0  0
  -29.9675  -17.0877   19.1640 C   0  0  0  0  0  0
  -29.5971  -17.1878   21.4865 C   0  0  0  0  0  0
  -32.0935  -23.0194   18.2471 C   0  0  0  0  0  0
  -27.9518  -24.6035   20.3525 C   0  0  0  0  0  0
  -30.0567  -23.6763   19.3819 N   0  0  0  0  0  0
  -30.6950  -21.3735   19.2962 N   0  0  0  0  0  0
  -28.7000  -21.9855   20.3858 N   0  0  0  0  0  0
  -29.5468  -19.5347   20.1357 N   0  0  0  0  0  0
  -29.8552  -16.1923   20.3660 N   0  0  0  0  0  0
  -31.4674  -12.7464   19.1918 H   0  0  0  0  0  0
  -30.4136  -11.6532   20.0407 H   0  0  0  0  0  0
  -29.8444  -11.7600   17.5765 H   0  0  0  0  0  0
  -29.6072  -13.4853   17.7025 H   0  0  0  0  0  0
  -27.9427  -11.2872   18.9598 H   0  0  0  0  0  0
  -27.3908  -12.4731   17.8083 H   0  0  0  0  0  0
  -27.5833  -14.2602   19.4142 H   0  0  0  0  0  0
  -28.7601  -12.3324   21.4681 H   0  0  0  0  0  0
  -28.3678  -14.0168   21.7436 H   0  0  0  0  0  0
  -25.2740   -9.5719   22.4785 H   0  0  0  0  0  0
  -24.0022   -7.4637   22.7469 H   0  0  0  0  0  0
  -21.0843   -8.8739   19.8950 H   0  0  0  0  0  0
  -22.3641  -10.9688   19.6154 H   0  0  0  0  0  0
  -21.2000   -7.6147   23.9720 H   0  0  0  0  0  0
  -21.1500   -6.0517   25.9090 H   0  0  0  0  0  0
  -22.0597   -2.7604   23.2821 H   0  0  0  0  0  0
  -22.4005  -11.9841   22.4786 H   0  0  0  0  0  0
  -21.1056  -13.1262   22.2607 H   0  0  0  0  0  0
  -24.6691  -15.8630   20.5621 H   0  0  0  0  0  0
  -26.2915  -15.6298   20.1538 H   0  0  0  0  0  0
  -26.7287  -32.5299   23.0982 H   0  0  0  0  0  0
  -25.0116  -33.9614   25.0337 H   0  0  0  0  0  0
  -22.7518  -31.2887   21.3802 H   0  0  0  0  0  0
  -23.3793  -35.9549   23.3220 H   0  0  0  0  0  0
  -24.3607  -36.8958   22.2066 H   0  0  0  0  0  0
  -23.7198  -37.6407   23.6715 H   0  0  0  0  0  0
  -26.1489  -31.4609   20.6046 H   0  0  0  0  0  0
  -26.8817  -30.7757   22.0179 H   0  0  0  0  0  0
  -28.1405  -28.7894   21.2242 H   0  0  0  0  0  0
  -25.9062  -25.8643   18.9604 H   0  0  0  0  0  0
  -23.9786  -27.3005   18.9795 H   0  0  0  0  0  0
  -23.8028  -30.5571   19.3977 H   0  0  0  0  0  0
  -22.7879  -29.2238   19.8542 H   0  0  0  0  0  0
  -25.1307  -36.1861   25.0811 H   0  0  0  0  0  0
  -20.9991  -28.3306   24.1376 H   0  0  0  0  0  0
  -20.5709  -26.2338   23.3621 H   0  0  0  0  0  0
  -21.6662  -26.7460   22.1187 H   0  0  0  0  0  0
  -19.6943  -25.6292   21.1261 H   0  0  0  0  0  0
  -19.6720  -27.3186   20.6738 H   0  0  0  0  0  0
  -17.4231  -26.6693   21.4003 H   0  0  0  0  0  0
  -18.0339  -26.0076   22.9001 H   0  0  0  0  0  0
  -19.7951  -30.7292   24.2246 H   0  0  0  0  0  0
  -17.5025  -31.6280   24.5140 H   0  0  0  0  0  0
  -15.5362  -30.2982   23.7676 H   0  0  0  0  0  0
  -15.8680  -28.0808   22.7100 H   0  0  0  0  0  0
  -24.5931  -30.7046   25.7678 H   0  0  0  0  0  0
  -24.8881  -32.2891   26.4742 H   0  0  0  0  0  0
  -25.8002  -30.8923   27.0188 H   0  0  0  0  0  0
  -26.2987  -29.6675   24.1259 H   0  0  0  0  0  0
  -27.4053  -29.7236   25.4770 H   0  0  0  0  0  0
  -27.8875  -30.4197   23.9500 H   0  0  0  0  0  0
  -27.2734  -33.3628   26.1969 H   0  0  0  0  0  0
  -28.3967  -32.6728   25.0339 H   0  0  0  0  0  0
  -28.0679  -31.8423   26.5462 H   0  0  0  0  0  0
  -28.2539  -38.0143   24.7595 H   0  0  0  0  0  0
  -28.1161  -36.2679   24.6147 H   0  0  0  0  0  0
  -27.2324  -37.1248   25.8849 H   0  0  0  0  0  0
  -20.9490  -29.8738   21.6774 H   0  0  0  0  0  0
  -26.0147  -38.2816   24.1467 H   0  0  0  0  0  0
  -30.5860  -19.0331   18.3687 H   0  0  0  0  0  0
  -31.4275  -18.6290   19.8304 H   0  0  0  0  0  0
  -28.8211  -19.2221   22.0874 H   0  0  0  0  0  0
  -27.8786  -18.4811   20.8368 H   0  0  0  0  0  0
  -30.6481  -16.6221   18.4490 H   0  0  0  0  0  0
  -28.9952  -17.0854   18.6704 H   0  0  0  0  0  0
  -28.9902  -16.6800   22.2387 H   0  0  0  0  0  0
  -30.5556  -17.3701   21.9763 H   0  0  0  0  0  0
  -32.3892  -24.0580   18.3918 H   0  0  0  0  0  0
  -31.9128  -22.8606   17.1842 H   0  0  0  0  0  0
  -32.9355  -22.3910   18.5386 H   0  0  0  0  0  0
  -27.6420  -24.4930   21.3920 H   0  0  0  0  0  0
  -27.0676  -24.3509   19.7742 H   0  0  0  0  0  0
  1 25  1  0  0  0
  1 30  2  0  0  0
  1 84  1  0  0  0
  2  3  1  0  0  0
  2 25  1  0  0  0
  2 85  1  0  0  0
  2 86  1  0  0  0
  3  4  1  0  0  0
  3 87  1  0  0  0
  3 88  1  0  0  0
  4  5  1  0  0  0
  4 89  1  0  0  0
  4 90  1  0  0  0
  5  6  1  0  0  0
  5 26  1  0  0  0
  5 91  1  0  0  0
  6 25  1  0  0  0
  6 92  1  0  0  0
  6 93  1  0  0  0
  7  8  2  0  0  0
  7 26  1  0  0  0
  7 29  1  0  0  0
  8  9  1  0  0  0
  8 22  1  0  0  0
  9 10  1  0  0  0
  9 27  2  0  0  0
 10 11  2  0  0  0
 10 15  1  0  0  0
 11 12  1  0  0  0
 11 94  1  0  0  0
 12 13  2  0  0  0
 12 95  1  0  0  0
 13 14  1  0  0  0
 13 31  1  0  0  0
 14 15  2  0  0  0
 14 96  1  0  0  0
 15 97  1  0  0  0
 16 17  2  0  0  0
 16 21  1  0  0  0
 16 31  1  0  0  0
 17 18  1  0  0  0
 17 98  1  0  0  0
 18 19  2  0  0  0
 18 99  1  0  0  0
 19 20  1  0  0  0
 19 24  1  0  0  0
 20 21  2  0  0  0
 20100  1  0  0  0
 21 23  1  0  0  0
 22 28  1  0  0  0
 22 32  2  0  0  0
 26 27  1  0  0  0
 28101  1  0  0  0
 28102  1  0  0  0
 29103  1  0  0  0
 29104  1  0  0  0
 33 34  1  0  0  0
 33 66  1  0  0  0
 33 70  2  0  0  0
 34 36  1  0  0  0
 34 59  1  0  0  0
 34105  1  0  0  0
 35 44  2  0  0  0
 35 45  1  0  0  0
 35 68  1  0  0  0
 36 56  1  0  0  0
 36106  1  0  0  0
 37 39  1  0  0  0
 37 47  1  0  0  0
 37 66  1  0  0  0
 37107  1  0  0  0
 38 43  2  0  0  0
 38 46  1  0  0  0
 38 47  1  0  0  0
 39 64  1  0  0  0
 39 67  2  0  0  0
 40 52  1  0  0  0
 40 53  2  0  0  0
 40 58  1  0  0  0
 41108  1  0  0  0
 41109  1  0  0  0
 41110  1  0  0  0
 41 48  1  0  0  0
 42 43  1  0  0  0
 42 66  1  0  0  0
 42111  1  0  0  0
 42112  1  0  0  0
 43 44  1  0  0  0
 44113  1  0  0  0
 45 46  2  0  0  0
 45114  1  0  0  0
 46115  1  0  0  0
 47116  1  0  0  0
 47117  1  0  0  0
 48 56  1  0  0  0
 48 65  1  0  0  0
 48118  1  0  0  0
 49 50  1  0  0  0
 49 53  1  0  0  0
 49 64  1  0  0  0
 49119  1  0  0  0
 50 51  1  0  0  0
 50120  1  0  0  0
 50121  1  0  0  0
 51 52  1  0  0  0
 51122  1  0  0  0
 51123  1  0  0  0
 52124  1  0  0  0
 52125  1  0  0  0
 53 54  1  0  0  0
 54 55  2  0  0  0
 54126  1  0  0  0
 55 57  1  0  0  0
 55127  1  0  0  0
 56 69  2  0  0  0
 57 58  2  0  0  0
 57128  1  0  0  0
 58129  1  0  0  0
 59 60  1  0  0  0
 59 61  1  0  0  0
 59 62  1  0  0  0
 60130  1  0  0  0
 60131  1  0  0  0
 60132  1  0  0  0
 61133  1  0  0  0
 61134  1  0  0  0
 61135  1  0  0  0
 62136  1  0  0  0
 62137  1  0  0  0
 62138  1  0  0  0
 63 65  1  0  0  0
 63139  1  0  0  0
 63140  1  0  0  0
 63141  1  0  0  0
 64142  1  0  0  0
 65143  1  0  0  0
 68 79  1  0  0  0
 71 78  1  0  0  0
 71 80  2  0  0  0
 71 81  1  0  0  0
 72 79  1  0  0  0
 72 80  1  0  0  0
 72 82  2  0  0  0
 73 81  2  0  0  0
 73 82  1  0  0  0
 73 83  1  0  0  0
 74 76  1  0  0  0
 74 83  1  0  0  0
 74144  1  0  0  0
 74145  1  0  0  0
 75 77  1  0  0  0
 75 83  1  0  0  0
 75146  1  0  0  0
 75147  1  0  0  0
 76 84  1  0  0  0
 76148  1  0  0  0
 76149  1  0  0  0
 77 84  1  0  0  0
 77150  1  0  0  0
 77151  1  0  0  0
 78152  1  0  0  0
 78153  1  0  0  0
 78154  1  0  0  0
 79155  1  0  0  0
 79156  1  0  0  0
M  ISO  4   1 100  68 101  79 101  84 100
M  END
> <chiral flag>
0

> <version>
0

> <s_m_source_file>
/data/baiqing/PycharmProjects/Reinvent-master-3.2/result/LINK_invent/BTK/process_docking_weight1_custom_sum_contain_oxygen_bond_distance_aromatic_linkinvent_7_9_3/rearranged_h_0187.sdf

> <i_m_source_file_index>
90

> <r_mmod_Potential_Energy-OPLS-2005>
-32.3341484069824

> <r_mmod_Stretch_Energy-OPLS-2005>
241.76286315918

> <r_mmod_Bend_Energy-OPLS-2005>
275.590362548828

> <r_mmod_Torsional_Energy-OPLS-2005>
355.689727783203

> <r_mmod_Improper_Torsional_Energy-OPLS-2005>
15.340425491333

> <r_mmod_Van_der_Waal_Energy-OPLS-2005>
167.034957885742

> <r_mmod_Electrostatic_Energy-OPLS-2005>
-1038.48315429688

> <r_mmod_Solvation_Energy-OPLS-2005>
-245.539459228516

> <b_mmod_Minimization_Converged-OPLS-2005>
0

> <r_mmod_RMS_Derivative-OPLS-2005>
2.42874813079834

$$$$
90
                    3D
 Structure written by MMmdl.
150159  0  0  1  0            999 V2000
  -30.4907  -15.1343   20.3509 C   0  0  0  0  0  0
  -30.4368  -12.7098   19.5146 C   0  0  0  0  0  0
  -29.5312  -12.5438   18.2719 C   0  0  0  0  0  0
  -28.0734  -12.2967   18.6956 C   0  0  0  0  0  0
  -27.6151  -13.2661   19.8147 C   0  0  2  0  0  0
  -28.6499  -13.4010   20.9497 C   0  0  0  0  0  0
  -25.2419  -13.8267   20.5746 C   0  0  0  0  0  0
  -24.1733  -13.0467   20.9254 C   0  0  0  0  0  0
  -24.6379  -11.6969   20.8790 C   0  0  0  0  0  0
  -23.9075  -10.4309   21.0420 C   0  0  0  0  0  0
  -24.3615   -9.4233   21.9198 C   0  0  0  0  0  0
  -23.6288   -8.2261   22.0754 C   0  0  0  0  0  0
  -22.4269   -8.0298   21.3563 C   0  0  0  0  0  0
  -21.9910   -9.0263   20.4662 C   0  0  0  0  0  0
  -22.7242  -10.2150   20.3082 C   0  0  0  0  0  0
  -21.6853   -6.0737   22.5276 C   0  0  0  0  0  0
  -21.4016   -6.5637   23.8219 C   0  0  0  0  0  0
  -21.3666   -5.6780   24.9176 C   0  0  0  0  0  0
  -21.6059   -4.3053   24.7221 C   0  0  0  0  0  0
  -21.8813   -3.8144   23.4332 C   0  0  0  0  0  0
  -21.9181   -4.6968   22.3395 C   0  0  0  0  0  0
  -22.7744  -13.5245   21.1849 C   0  0  0  0  0  0
  -22.1650   -4.2155   21.0977 F   0  0  0  0  0  0
  -21.5623   -3.4531   25.7729 F   0  0  0  0  0  0
  -29.9037  -13.8528   20.3281 N   0  0  0  0  0  0
  -26.2821  -12.9507   20.3132 N   0  0  0  0  0  0
  -25.9315  -11.6649   20.5694 N   0  0  0  0  0  0
  -22.0342  -12.8299   22.0423 N   0  0  0  0  0  0
  -25.4108  -15.1999   20.4302 N   0  0  0  0  0  0
  -31.7105  -15.1394   20.1355 O   0  0  0  0  0  0
  -21.6646   -6.8888   21.4243 O   0  0  0  0  0  0
  -22.3444  -14.5503   20.6615 O   0  0  0  0  0  0
  -24.6536  -31.8337   23.1782 C   0  0  0  0  0  0
  -25.9287  -32.4619   23.8198 C   0  0  1  0  0  0
  -27.2230  -27.0373   20.1564 C   0  0  0  0  0  0
  -25.6017  -33.8432   24.2124 N   0  0  0  0  0  0
  -23.4621  -30.4497   21.5252 C   0  0  2  0  0  0
  -24.9126  -28.8587   20.1122 C   0  0  0  0  0  0
  -22.7624  -29.4497   22.4808 C   0  0  0  0  0  0
  -18.0318  -28.1393   22.8467 C   0  0  0  0  0  0
  -24.1488  -36.7220   23.2641 C   0  0  0  0  0  0
  -26.0235  -30.6769   21.3913 C   0  0  0  0  0  0
  -26.0950  -29.2755   20.7379 C   0  0  0  0  0  0
  -27.2495  -28.3846   20.7385 C   0  0  0  0  0  0
  -26.0131  -26.7539   19.4836 C   0  0  0  0  0  0
  -24.8905  -27.6120   19.4695 C   0  0  0  0  0  0
  -23.6959  -29.7741   20.1469 C   0  0  0  0  0  0
  -25.4125  -36.2979   24.0299 C   0  0  1  0  0  0
  -20.5934  -28.3740   23.1182 C   0  0  2  0  0  0
  -20.6794  -26.9429   22.5383 C   0  0  0  0  0  0
  -19.5765  -26.6382   21.5198 C   0  0  0  0  0  0
  -18.1955  -26.7934   22.1621 C   0  0  0  0  0  0
  -19.1578  -28.8893   23.2808 C   0  0  0  0  0  0
  -18.9490  -30.1484   23.8835 C   0  0  0  0  0  0
  -17.6478  -30.6575   24.0577 C   0  0  0  0  0  0
  -25.9090  -34.9370   23.5014 C   0  0  0  0  0  0
  -16.5373  -29.9070   23.6342 C   0  0  0  0  0  0
  -16.7301  -28.6504   23.0349 C   0  0  0  0  0  0
  -26.4585  -31.6507   25.0668 C   0  0  0  0  0  0
  -25.3761  -31.3742   26.1357 C   0  0  0  0  0  0
  -27.0489  -30.2888   24.6311 C   0  0  0  0  0  0
  -27.6090  -32.4294   25.7474 C   0  0  0  0  0  0
  -27.5545  -37.1756   24.8458 C   0  0  0  0  0  0
  -21.4302  -29.3050   22.3556 N   0  0  0  0  0  0
  -26.4264  -37.3695   23.9411 N   0  0  0  0  0  0
  -24.7329  -31.0100   22.0862 N   0  0  0  0  0  0
  -23.4234  -28.8074   23.2993 O   0  0  0  0  0  0
  -28.2553  -25.9926   20.1596 O   0  0  0  0  0  0
  -26.5669  -34.8908   22.4587 O   0  0  0  0  0  0
  -23.5644  -32.1269   23.6957 O   0  0  0  0  0  0
  -30.4973  -20.8196   19.2190 C   0  0  0  0  0  0
  -28.5821  -21.5842   20.4040 C   0  0  0  0  0  0
  -30.7074  -22.1836   18.8908 C   0  0  0  0  0  0
  -29.4134  -20.3830   20.0117 C   0  0  0  0  0  0
  -28.8414  -23.0331   20.0431 C   0  0  0  0  0  0
  -29.6403  -17.4638   19.2943 C   0  0  0  0  0  0
  -30.0638  -17.6624   21.2130 C   0  0  0  0  0  0
  -29.2666  -18.6939   20.2682 C   0  0  0  0  0  0
  -27.9445  -24.4342   20.4045 C   0  0  0  0  0  0
  -29.9356  -23.2377   19.2750 N   0  0  0  0  0  0
  -29.7415  -16.3943   20.3963 N   0  0  0  0  0  0
  -31.4655  -12.8811   19.1980 H   0  0  0  0  0  0
  -30.4619  -11.7938   20.1080 H   0  0  0  0  0  0
  -29.8867  -11.7197   17.6521 H   0  0  0  0  0  0
  -29.5835  -13.4407   17.6527 H   0  0  0  0  0  0
  -28.0223  -11.2715   19.0603 H   0  0  0  0  0  0
  -27.4063  -12.3552   17.8363 H   0  0  0  0  0  0
  -27.5449  -14.2444   19.3363 H   0  0  0  0  0  0
  -28.7775  -12.4650   21.4967 H   0  0  0  0  0  0
  -28.3099  -14.1425   21.6745 H   0  0  0  0  0  0
  -25.2765   -9.5691   22.4758 H   0  0  0  0  0  0
  -23.9997   -7.4666   22.7479 H   0  0  0  0  0  0
  -21.0837   -8.8823   19.8969 H   0  0  0  0  0  0
  -22.3732  -10.9691   19.6183 H   0  0  0  0  0  0
  -21.2033   -7.6149   23.9724 H   0  0  0  0  0  0
  -21.1479   -6.0513   25.9079 H   0  0  0  0  0  0
  -22.0581   -2.7609   23.2826 H   0  0  0  0  0  0
  -22.3929  -12.0027   22.4959 H   0  0  0  0  0  0
  -21.0910  -13.1326   22.2467 H   0  0  0  0  0  0
  -24.6572  -15.8576   20.5941 H   0  0  0  0  0  0
  -26.2740  -15.6440   20.1433 H   0  0  0  0  0  0
  -26.7364  -32.5215   23.0946 H   0  0  0  0  0  0
  -25.0281  -33.9515   25.0346 H   0  0  0  0  0  0
  -22.7701  -31.2775   21.3605 H   0  0  0  0  0  0
  -23.3744  -35.9532   23.3275 H   0  0  0  0  0  0
  -24.3586  -36.8883   22.2051 H   0  0  0  0  0  0
  -23.7228  -37.6411   23.6701 H   0  0  0  0  0  0
  -26.1914  -31.4227   20.6136 H   0  0  0  0  0  0
  -26.8900  -30.7318   22.0374 H   0  0  0  0  0  0
  -28.1481  -28.7083   21.2475 H   0  0  0  0  0  0
  -25.9179  -25.8192   18.9535 H   0  0  0  0  0  0
  -23.9949  -27.2923   18.9520 H   0  0  0  0  0  0
  -23.8512  -30.5441   19.3883 H   0  0  0  0  0  0
  -22.8065  -29.2233   19.8316 H   0  0  0  0  0  0
  -25.1298  -36.1798   25.0770 H   0  0  0  0  0  0
  -21.0020  -28.3363   24.1297 H   0  0  0  0  0  0
  -20.5676  -26.2372   23.3629 H   0  0  0  0  0  0
  -21.6667  -26.7416   22.1187 H   0  0  0  0  0  0
  -19.6928  -25.6288   21.1245 H   0  0  0  0  0  0
  -19.6688  -27.3180   20.6723 H   0  0  0  0  0  0
  -17.4218  -26.6671   21.4032 H   0  0  0  0  0  0
  -18.0364  -26.0071   22.9017 H   0  0  0  0  0  0
  -19.7970  -30.7322   24.2159 H   0  0  0  0  0  0
  -17.5038  -31.6238   24.5210 H   0  0  0  0  0  0
  -15.5381  -30.2969   23.7648 H   0  0  0  0  0  0
  -15.8723  -28.0813   22.7051 H   0  0  0  0  0  0
  -24.5957  -30.7052   25.7699 H   0  0  0  0  0  0
  -24.8961  -32.2953   26.4652 H   0  0  0  0  0  0
  -25.8052  -30.9022   27.0199 H   0  0  0  0  0  0
  -26.3139  -29.6565   24.1317 H   0  0  0  0  0  0
  -27.4096  -29.7212   25.4897 H   0  0  0  0  0  0
  -27.9034  -30.4101   23.9655 H   0  0  0  0  0  0
  -27.2655  -33.3630   26.1927 H   0  0  0  0  0  0
  -28.3980  -32.6776   25.0364 H   0  0  0  0  0  0
  -28.0669  -31.8509   26.5505 H   0  0  0  0  0  0
  -28.2541  -38.0077   24.7532 H   0  0  0  0  0  0
  -28.1078  -36.2613   24.6261 H   0  0  0  0  0  0
  -27.2295  -37.1363   25.8870 H   0  0  0  0  0  0
  -20.9537  -29.8793   21.6742 H   0  0  0  0  0  0
  -26.0132  -38.2738   24.1457 H   0  0  0  0  0  0
  -31.1912  -20.0937   18.8182 H   0  0  0  0  0  0
  -27.6969  -21.3969   21.0008 H   0  0  0  0  0  0
  -31.5487  -22.4393   18.2636 H   0  0  0  0  0  0
  -28.8666  -17.2713   18.5507 H   0  0  0  0  0  0
  -30.5871  -17.6154   18.7684 H   0  0  0  0  0  0
  -31.1324  -17.8821   21.2527 H   0  0  0  0  0  0
  -29.6695  -17.6579   22.2296 H   0  0  0  0  0  0
  -28.2079  -18.5862   20.5115 H   0  0  0  0  0  0
  -27.8365  -24.3779   21.4855 H   0  0  0  0  0  0
  -26.9467  -24.2243   20.0288 H   0  0  0  0  0  0
  1 25  1  0  0  0
  1 30  2  0  0  0
  1 81  1  0  0  0
  2  3  1  0  0  0
  2 25  1  0  0  0
  2 82  1  0  0  0
  2 83  1  0  0  0
  3  4  1  0  0  0
  3 84  1  0  0  0
  3 85  1  0  0  0
  4  5  1  0  0  0
  4 86  1  0  0  0
  4 87  1  0  0  0
  5  6  1  0  0  0
  5 26  1  0  0  0
  5 88  1  0  0  0
  6 25  1  0  0  0
  6 89  1  0  0  0
  6 90  1  0  0  0
  7  8  2  0  0  0
  7 26  1  0  0  0
  7 29  1  0  0  0
  8  9  1  0  0  0
  8 22  1  0  0  0
  9 10  1  0  0  0
  9 27  2  0  0  0
 10 11  2  0  0  0
 10 15  1  0  0  0
 11 12  1  0  0  0
 11 91  1  0  0  0
 12 13  2  0  0  0
 12 92  1  0  0  0
 13 14  1  0  0  0
 13 31  1  0  0  0
 14 15  2  0  0  0
 14 93  1  0  0  0
 15 94  1  0  0  0
 16 17  2  0  0  0
 16 21  1  0  0  0
 16 31  1  0  0  0
 17 18  1  0  0  0
 17 95  1  0  0  0
 18 19  2  0  0  0
 18 96  1  0  0  0
 19 20  1  0  0  0
 19 24  1  0  0  0
 20 21  2  0  0  0
 20 97  1  0  0  0
 21 23  1  0  0  0
 22 28  1  0  0  0
 22 32  2  0  0  0
 26 27  1  0  0  0
 28 98  1  0  0  0
 28 99  1  0  0  0
 29100  1  0  0  0
 29101  1  0  0  0
 33 34  1  0  0  0
 33 66  1  0  0  0
 33 70  2  0  0  0
 34 36  1  0  0  0
 34 59  1  0  0  0
 34102  1  0  0  0
 35 44  2  0  0  0
 35 45  1  0  0  0
 35 68  1  0  0  0
 36 56  1  0  0  0
 36103  1  0  0  0
 37 39  1  0  0  0
 37 47  1  0  0  0
 37 66  1  0  0  0
 37104  1  0  0  0
 38 43  2  0  0  0
 38 46  1  0  0  0
 38 47  1  0  0  0
 39 64  1  0  0  0
 39 67  2  0  0  0
 40 52  1  0  0  0
 40 53  2  0  0  0
 40 58  1  0  0  0
 41105  1  0  0  0
 41106  1  0  0  0
 41107  1  0  0  0
 41 48  1  0  0  0
 42 43  1  0  0  0
 42 66  1  0  0  0
 42108  1  0  0  0
 42109  1  0  0  0
 43 44  1  0  0  0
 44110  1  0  0  0
 45 46  2  0  0  0
 45111  1  0  0  0
 46112  1  0  0  0
 47113  1  0  0  0
 47114  1  0  0  0
 48 56  1  0  0  0
 48 65  1  0  0  0
 48115  1  0  0  0
 49 50  1  0  0  0
 49 53  1  0  0  0
 49 64  1  0  0  0
 49116  1  0  0  0
 50 51  1  0  0  0
 50117  1  0  0  0
 50118  1  0  0  0
 51 52  1  0  0  0
 51119  1  0  0  0
 51120  1  0  0  0
 52121  1  0  0  0
 52122  1  0  0  0
 53 54  1  0  0  0
 54 55  2  0  0  0
 54123  1  0  0  0
 55 57  1  0  0  0
 55124  1  0  0  0
 56 69  2  0  0  0
 57 58  2  0  0  0
 57125  1  0  0  0
 58126  1  0  0  0
 59 60  1  0  0  0
 59 61  1  0  0  0
 59 62  1  0  0  0
 60127  1  0  0  0
 60128  1  0  0  0
 60129  1  0  0  0
 61130  1  0  0  0
 61131  1  0  0  0
 61132  1  0  0  0
 62133  1  0  0  0
 62134  1  0  0  0
 62135  1  0  0  0
 63 65  1  0  0  0
 63136  1  0  0  0
 63137  1  0  0  0
 63138  1  0  0  0
 64139  1  0  0  0
 65140  1  0  0  0
 68 79  1  0  0  0
 71 73  2  0  0  0
 71 74  1  0  0  0
 71141  1  0  0  0
 72 74  2  0  0  0
 72 75  1  0  0  0
 72142  1  0  0  0
 73 80  1  0  0  0
 73143  1  0  0  0
 74 78  1  0  0  0
 75 79  1  0  0  0
 75 80  2  0  0  0
 76 78  1  0  0  0
 76 81  1  0  0  0
 76144  1  0  0  0
 76145  1  0  0  0
 77 78  1  0  0  0
 77 81  1  0  0  0
 77146  1  0  0  0
 77147  1  0  0  0
 78148  1  0  0  0
 79149  1  0  0  0
 79150  1  0  0  0
M  ISO  4   1 100  68 101  79 101  81 100
M  END
> <chiral flag>
0

> <version>
0

> <s_m_source_file>
/data/baiqing/PycharmProjects/Reinvent-master-3.2/result/LINK_invent/BTK/process_docking_weight1_custom_sum_contain_oxygen_bond_distance_aromatic_linkinvent_7_9_3/rearranged_h_0187.sdf

> <i_m_source_file_index>
91

> <r_mmod_Potential_Energy-OPLS-2005>
777.105224609375

> <r_mmod_Stretch_Energy-OPLS-2005>
369.147216796875

> <r_mmod_Bend_Energy-OPLS-2005>
328.242828369141

> <r_mmod_Torsional_Energy-OPLS-2005>
275.18359375

> <r_mmod_Improper_Torsional_Energy-OPLS-2005>
11.8457660675049

> <r_mmod_Van_der_Waal_Energy-OPLS-2005>
128.0205078125

> <r_mmod_Electrostatic_Energy-OPLS-2005>
-430.800323486328

> <r_mmod_Solvation_Energy-OPLS-2005>
-225.287261962891

> <b_mmod_Minimization_Converged-OPLS-2005>
0

> <r_mmod_RMS_Derivative-OPLS-2005>
4.38176345825195

$$$$
91
                    3D
 Structure written by MMmdl.
161170  0  0  1  0            999 V2000
  -30.6691  -14.5925   20.4667 C   0  0  0  0  0  0
  -30.4212  -12.3600   19.4443 C   0  0  0  0  0  0
  -29.4975  -12.4843   18.2153 C   0  0  0  0  0  0
  -28.0220  -12.3335   18.6340 C   0  0  0  0  0  0
  -27.6467  -13.2189   19.8530 C   0  0  2  0  0  0
  -28.6939  -13.1088   20.9830 C   0  0  0  0  0  0
  -25.2547  -13.8189   20.5689 C   0  0  0  0  0  0
  -24.1822  -13.0445   20.9194 C   0  0  0  0  0  0
  -24.6398  -11.6916   20.8745 C   0  0  0  0  0  0
  -23.9073  -10.4290   21.0406 C   0  0  0  0  0  0
  -24.3629   -9.4203   21.9173 C   0  0  0  0  0  0
  -23.6300   -8.2234   22.0743 C   0  0  0  0  0  0
  -22.4278   -8.0268   21.3533 C   0  0  0  0  0  0
  -21.9916   -9.0242   20.4638 C   0  0  0  0  0  0
  -22.7249  -10.2117   20.3055 C   0  0  0  0  0  0
  -21.6854   -6.0736   22.5277 C   0  0  0  0  0  0
  -21.4013   -6.5643   23.8210 C   0  0  0  0  0  0
  -21.3657   -5.6793   24.9166 C   0  0  0  0  0  0
  -21.6046   -4.3057   24.7218 C   0  0  0  0  0  0
  -21.8823   -3.8146   23.4343 C   0  0  0  0  0  0
  -21.9198   -4.6963   22.3398 C   0  0  0  0  0  0
  -22.7838  -13.5217   21.1852 C   0  0  0  0  0  0
  -22.1665   -4.2152   21.0975 F   0  0  0  0  0  0
  -21.5629   -3.4543   25.7731 F   0  0  0  0  0  0
  -30.0050  -13.4032   20.3970 N   0  0  0  0  0  0
  -26.2963  -12.9370   20.3303 N   0  0  0  0  0  0
  -25.9317  -11.6525   20.5762 N   0  0  0  0  0  0
  -22.0502  -12.8192   22.0419 N   0  0  0  0  0  0
  -25.4275  -15.1909   20.4087 N   0  0  0  0  0  0
  -31.8807  -14.6534   20.2414 O   0  0  0  0  0  0
  -21.6643   -6.8867   21.4232 O   0  0  0  0  0  0
  -22.3519  -14.5525   20.6702 O   0  0  0  0  0  0
  -24.6216  -31.8623   23.2051 C   0  0  0  0  0  0
  -25.9088  -32.4794   23.8372 C   0  0  1  0  0  0
  -27.2302  -27.3674   20.1253 C   0  0  0  0  0  0
  -25.5929  -33.8596   24.2307 N   0  0  0  0  0  0
  -23.4135  -30.4849   21.5456 C   0  0  2  0  0  0
  -24.8630  -28.9379   20.1184 C   0  0  0  0  0  0
  -22.7425  -29.4662   22.4955 C   0  0  0  0  0  0
  -18.0299  -28.1350   22.8498 C   0  0  0  0  0  0
  -24.1492  -36.7309   23.2639 C   0  0  0  0  0  0
  -25.9487  -30.8100   21.3658 C   0  0  0  0  0  0
  -26.0274  -29.4385   20.7157 C   0  0  0  0  0  0
  -27.2188  -28.6651   20.7066 C   0  0  0  0  0  0
  -26.0498  -26.8952   19.5178 C   0  0  0  0  0  0
  -24.8730  -27.6702   19.5103 C   0  0  0  0  0  0
  -23.6281  -29.8120   20.1632 C   0  0  0  0  0  0
  -25.4111  -36.3099   24.0334 C   0  0  1  0  0  0
  -20.5888  -28.3698   23.1293 C   0  0  2  0  0  0
  -20.6808  -26.9416   22.5410 C   0  0  0  0  0  0
  -19.5786  -26.6392   21.5217 C   0  0  0  0  0  0
  -18.1961  -26.7899   22.1632 C   0  0  0  0  0  0
  -19.1539  -28.8838   23.2899 C   0  0  0  0  0  0
  -18.9440  -30.1435   23.8905 C   0  0  0  0  0  0
  -17.6437  -30.6559   24.0558 C   0  0  0  0  0  0
  -25.9038  -34.9460   23.5115 C   0  0  0  0  0  0
  -16.5339  -29.9045   23.6313 C   0  0  0  0  0  0
  -16.7283  -28.6463   23.0347 C   0  0  0  0  0  0
  -26.4504  -31.6591   25.0718 C   0  0  0  0  0  0
  -25.3761  -31.3696   26.1452 C   0  0  0  0  0  0
  -27.0327  -30.3021   24.6125 C   0  0  0  0  0  0
  -27.6086  -32.4304   25.7488 C   0  0  0  0  0  0
  -27.5581  -37.1809   24.8467 C   0  0  0  0  0  0
  -21.4145  -29.3082   22.3686 N   0  0  0  0  0  0
  -26.4298  -37.3786   23.9403 N   0  0  0  0  0  0
  -24.6797  -31.0693   22.0963 N   0  0  0  0  0  0
  -23.4155  -28.8180   23.3022 O   0  0  0  0  0  0
  -28.3602  -26.5626   20.1096 O   0  0  0  0  0  0
  -26.5600  -34.8924   22.4673 O   0  0  0  0  0  0
  -23.5401  -32.1392   23.7423 O   0  0  0  0  0  0
  -29.5634  -21.7330   21.3476 C   0  0  0  0  0  0
  -30.1367  -18.0094   19.4002 C   0  0  0  0  0  0
  -27.2875  -20.5073   21.2620 C   0  0  0  0  0  0
  -30.2048  -16.5205   19.0139 C   0  0  0  0  0  0
  -29.4105  -16.6763   21.2305 C   0  0  0  0  0  0
  -27.7846  -19.3654   22.1487 C   0  0  0  0  0  0
  -28.7021  -20.6034   20.6961 C   0  0  2  0  0  0
  -29.0793  -18.0194   20.4871 C   0  0  1  0  0  0
  -28.5400  -23.9490   20.3264 C   0  0  0  0  0  0
  -28.3424  -25.3830   20.9697 C   0  0  0  0  0  0
  -29.9055  -15.7074   20.2144 N   0  0  0  0  0  0
  -29.4058  -23.0728   21.1617 N   0  0  0  0  0  0
  -28.9980  -19.2745   21.3271 N   0  3  2  0  0  0
  -30.4630  -21.3698   22.1096 O   0  0  0  0  0  0
  -31.4644  -12.4605   19.1404 H   0  0  0  0  0  0
  -30.3310  -11.3720   19.8984 H   0  0  0  0  0  0
  -29.7557  -11.7301   17.4701 H   0  0  0  0  0  0
  -29.6453  -13.4532   17.7338 H   0  0  0  0  0  0
  -27.8595  -11.2848   18.8776 H   0  0  0  0  0  0
  -27.3678  -12.5530   17.7900 H   0  0  0  0  0  0
  -27.6548  -14.2477   19.4936 H   0  0  0  0  0  0
  -28.6919  -12.1106   21.4239 H   0  0  0  0  0  0
  -28.4599  -13.8047   21.7893 H   0  0  0  0  0  0
  -25.2766   -9.5681   22.4747 H   0  0  0  0  0  0
  -24.0011   -7.4628   22.7464 H   0  0  0  0  0  0
  -21.0845   -8.8762   19.8943 H   0  0  0  0  0  0
  -22.3704  -10.9653   19.6165 H   0  0  0  0  0  0
  -21.2005   -7.6149   23.9715 H   0  0  0  0  0  0
  -21.1476   -6.0520   25.9072 H   0  0  0  0  0  0
  -22.0609   -2.7614   23.2843 H   0  0  0  0  0  0
  -22.4131  -11.9851   22.4788 H   0  0  0  0  0  0
  -21.1109  -13.1176   22.2626 H   0  0  0  0  0  0
  -24.6543  -15.8419   20.4901 H   0  0  0  0  0  0
  -26.2747  -15.6195   20.0595 H   0  0  0  0  0  0
  -26.7140  -32.5487   23.1111 H   0  0  0  0  0  0
  -25.0059  -33.9742   25.0439 H   0  0  0  0  0  0
  -22.7058  -31.3026   21.3973 H   0  0  0  0  0  0
  -23.3742  -35.9654   23.3316 H   0  0  0  0  0  0
  -24.3580  -36.8913   22.2052 H   0  0  0  0  0  0
  -23.7257  -37.6522   23.6641 H   0  0  0  0  0  0
  -26.0696  -31.5705   20.5937 H   0  0  0  0  0  0
  -26.8328  -30.8658   21.9889 H   0  0  0  0  0  0
  -28.1208  -29.0486   21.1644 H   0  0  0  0  0  0
  -26.0406  -25.9184   19.0559 H   0  0  0  0  0  0
  -23.9805  -27.2796   19.0408 H   0  0  0  0  0  0
  -23.7445  -30.5829   19.4003 H   0  0  0  0  0  0
  -22.7516  -29.2333   19.8656 H   0  0  0  0  0  0
  -25.1296  -36.1960   25.0831 H   0  0  0  0  0  0
  -20.9997  -28.3293   24.1410 H   0  0  0  0  0  0
  -20.5749  -26.2274   23.3586 H   0  0  0  0  0  0
  -21.6676  -26.7495   22.1181 H   0  0  0  0  0  0
  -19.6962  -25.6311   21.1224 H   0  0  0  0  0  0
  -19.6734  -27.3232   20.6767 H   0  0  0  0  0  0
  -17.4236  -26.6646   21.4027 H   0  0  0  0  0  0
  -18.0374  -26.0037   22.9028 H   0  0  0  0  0  0
  -19.7889  -30.7280   24.2281 H   0  0  0  0  0  0
  -17.4970  -31.6235   24.5152 H   0  0  0  0  0  0
  -15.5327  -30.2931   23.7624 H   0  0  0  0  0  0
  -15.8703  -28.0769   22.7040 H   0  0  0  0  0  0
  -24.5950  -30.7037   25.7773 H   0  0  0  0  0  0
  -24.8934  -32.2848   26.4897 H   0  0  0  0  0  0
  -25.8106  -30.8850   27.0207 H   0  0  0  0  0  0
  -26.2869  -29.6777   24.1194 H   0  0  0  0  0  0
  -27.4088  -29.7277   25.4601 H   0  0  0  0  0  0
  -27.8725  -30.4300   23.9288 H   0  0  0  0  0  0
  -27.2721  -33.3591   26.2108 H   0  0  0  0  0  0
  -28.3906  -32.6870   25.0324 H   0  0  0  0  0  0
  -28.0756  -31.8404   26.5384 H   0  0  0  0  0  0
  -28.2613  -38.0093   24.7500 H   0  0  0  0  0  0
  -28.1070  -36.2624   24.6319 H   0  0  0  0  0  0
  -27.2300  -37.1501   25.8871 H   0  0  0  0  0  0
  -20.9319  -29.8792   21.6882 H   0  0  0  0  0  0
  -26.0185  -38.2873   24.1368 H   0  0  0  0  0  0
  -29.8832  -18.6482   18.5530 H   0  0  0  0  0  0
  -31.0990  -18.3401   19.7950 H   0  0  0  0  0  0
  -26.9449  -21.3810   21.8173 H   0  0  0  0  0  0
  -26.5582  -20.1916   20.5145 H   0  0  0  0  0  0
  -31.1651  -16.2940   18.5454 H   0  0  0  0  0  0
  -29.4429  -16.2949   18.2664 H   0  0  0  0  0  0
  -28.5297  -16.2823   21.7385 H   0  0  0  0  0  0
  -30.1844  -16.8320   21.9849 H   0  0  0  0  0  0
  -27.1463  -18.4804   22.1352 H   0  0  0  0  0  0
  -28.0047  -19.6774   23.1719 H   0  0  0  0  0  0
  -28.7547  -20.6028   19.6074 H   0  0  0  0  0  0
  -28.1132  -17.8985   19.9929 H   0  0  0  0  0  0
  -29.0223  -24.0587   19.3542 H   0  0  0  0  0  0
  -27.5740  -23.4781   20.1398 H   0  0  0  0  0  0
  -29.1598  -25.5558   21.6708 H   0  0  0  0  0  0
  -27.4477  -25.3717   21.5944 H   0  0  0  0  0  0
  -30.0738  -23.6031   21.7051 H   0  0  0  0  0  0
  -29.8307  -19.4207   21.8848 H   0  0  0  0  0  0
  1 25  1  0  0  0
  1 30  2  0  0  0
  1 81  1  0  0  0
  2  3  1  0  0  0
  2 25  1  0  0  0
  2 85  1  0  0  0
  2 86  1  0  0  0
  3  4  1  0  0  0
  3 87  1  0  0  0
  3 88  1  0  0  0
  4  5  1  0  0  0
  4 89  1  0  0  0
  4 90  1  0  0  0
  5  6  1  0  0  0
  5 26  1  0  0  0
  5 91  1  0  0  0
  6 25  1  0  0  0
  6 92  1  0  0  0
  6 93  1  0  0  0
  7  8  2  0  0  0
  7 26  1  0  0  0
  7 29  1  0  0  0
  8  9  1  0  0  0
  8 22  1  0  0  0
  9 10  1  0  0  0
  9 27  2  0  0  0
 10 11  2  0  0  0
 10 15  1  0  0  0
 11 12  1  0  0  0
 11 94  1  0  0  0
 12 13  2  0  0  0
 12 95  1  0  0  0
 13 14  1  0  0  0
 13 31  1  0  0  0
 14 15  2  0  0  0
 14 96  1  0  0  0
 15 97  1  0  0  0
 16 17  2  0  0  0
 16 21  1  0  0  0
 16 31  1  0  0  0
 17 18  1  0  0  0
 17 98  1  0  0  0
 18 19  2  0  0  0
 18 99  1  0  0  0
 19 20  1  0  0  0
 19 24  1  0  0  0
 20 21  2  0  0  0
 20100  1  0  0  0
 21 23  1  0  0  0
 22 28  1  0  0  0
 22 32  2  0  0  0
 26 27  1  0  0  0
 28101  1  0  0  0
 28102  1  0  0  0
 29103  1  0  0  0
 29104  1  0  0  0
 33 34  1  0  0  0
 33 66  1  0  0  0
 33 70  2  0  0  0
 34 36  1  0  0  0
 34 59  1  0  0  0
 34105  1  0  0  0
 35 44  2  0  0  0
 35 45  1  0  0  0
 35 68  1  0  0  0
 36 56  1  0  0  0
 36106  1  0  0  0
 37 39  1  0  0  0
 37 47  1  0  0  0
 37 66  1  0  0  0
 37107  1  0  0  0
 38 43  2  0  0  0
 38 46  1  0  0  0
 38 47  1  0  0  0
 39 64  1  0  0  0
 39 67  2  0  0  0
 40 52  1  0  0  0
 40 53  2  0  0  0
 40 58  1  0  0  0
 41108  1  0  0  0
 41109  1  0  0  0
 41110  1  0  0  0
 41 48  1  0  0  0
 42 43  1  0  0  0
 42 66  1  0  0  0
 42111  1  0  0  0
 42112  1  0  0  0
 43 44  1  0  0  0
 44113  1  0  0  0
 45 46  2  0  0  0
 45114  1  0  0  0
 46115  1  0  0  0
 47116  1  0  0  0
 47117  1  0  0  0
 48 56  1  0  0  0
 48 65  1  0  0  0
 48118  1  0  0  0
 49 50  1  0  0  0
 49 53  1  0  0  0
 49 64  1  0  0  0
 49119  1  0  0  0
 50 51  1  0  0  0
 50120  1  0  0  0
 50121  1  0  0  0
 51 52  1  0  0  0
 51122  1  0  0  0
 51123  1  0  0  0
 52124  1  0  0  0
 52125  1  0  0  0
 53 54  1  0  0  0
 54 55  2  0  0  0
 54126  1  0  0  0
 55 57  1  0  0  0
 55127  1  0  0  0
 56 69  2  0  0  0
 57 58  2  0  0  0
 57128  1  0  0  0
 58129  1  0  0  0
 59 60  1  0  0  0
 59 61  1  0  0  0
 59 62  1  0  0  0
 60130  1  0  0  0
 60131  1  0  0  0
 60132  1  0  0  0
 61133  1  0  0  0
 61134  1  0  0  0
 61135  1  0  0  0
 62136  1  0  0  0
 62137  1  0  0  0
 62138  1  0  0  0
 63 65  1  0  0  0
 63139  1  0  0  0
 63140  1  0  0  0
 63141  1  0  0  0
 64142  1  0  0  0
 65143  1  0  0  0
 68 80  1  0  0  0
 71 82  1  0  0  0
 71 84  2  0  0  0
 71 77  1  0  0  0
 72 74  1  0  0  0
 72144  1  0  0  0
 72145  1  0  0  0
 72 78  1  0  0  0
 73 76  1  0  0  0
 73 77  1  0  0  0
 73146  1  0  0  0
 73147  1  0  0  0
 74 81  1  0  0  0
 74148  1  0  0  0
 74149  1  0  0  0
 75 78  1  0  0  0
 75 81  1  0  0  0
 75150  1  0  0  0
 75151  1  0  0  0
 76152  1  0  0  0
 76153  1  0  0  0
 76 83  1  0  0  0
 77 83  1  0  0  0
 77154  1  0  0  0
 78 83  1  0  0  0
 78155  1  0  0  0
 79 80  1  0  0  0
 79 82  1  0  0  0
 79156  1  0  0  0
 79157  1  0  0  0
 80158  1  0  0  0
 80159  1  0  0  0
 82160  1  0  0  0
 83161  1  0  0  0
M  CHG  1  83   1
M  ISO  4   1 100  68 101  80 101  81 100
M  END
> <chiral flag>
0

> <version>
0

> <s_m_source_file>
/data/baiqing/PycharmProjects/Reinvent-master-3.2/result/LINK_invent/BTK/process_docking_weight1_custom_sum_contain_oxygen_bond_distance_aromatic_linkinvent_7_9_3/rearranged_h_0187.sdf

> <i_m_source_file_index>
92

> <r_mmod_Potential_Energy-OPLS-2005>
72.8734436035156

> <r_mmod_Stretch_Energy-OPLS-2005>
60.5984420776367

> <r_mmod_Bend_Energy-OPLS-2005>
181.730117797852

> <r_mmod_Torsional_Energy-OPLS-2005>
416.9345703125

> <r_mmod_Improper_Torsional_Energy-OPLS-2005>
22.8277149200439

> <r_mmod_Van_der_Waal_Energy-OPLS-2005>
115.545776367188

> <r_mmod_Electrostatic_Energy-OPLS-2005>
-319.608367919922

> <r_mmod_Solvation_Energy-OPLS-2005>
-443.985626220703

> <b_mmod_Minimization_Converged-OPLS-2005>
0

> <r_mmod_RMS_Derivative-OPLS-2005>
2.23759794235229

$$$$
92
                    3D
 Structure written by MMmdl.
162171  0  0  1  0            999 V2000
  -30.6948  -14.5769   20.4957 C   0  0  0  0  0  0
  -30.4185  -12.3586   19.4423 C   0  0  0  0  0  0
  -29.4944  -12.4891   18.2145 C   0  0  0  0  0  0
  -28.0180  -12.3453   18.6322 C   0  0  0  0  0  0
  -27.6476  -13.2232   19.8576 C   0  0  2  0  0  0
  -28.6957  -13.1039   20.9856 C   0  0  0  0  0  0
  -25.2541  -13.8193   20.5703 C   0  0  0  0  0  0
  -24.1813  -13.0445   20.9188 C   0  0  0  0  0  0
  -24.6387  -11.6919   20.8738 C   0  0  0  0  0  0
  -23.9061  -10.4299   21.0396 C   0  0  0  0  0  0
  -24.3618   -9.4220   21.9178 C   0  0  0  0  0  0
  -23.6297   -8.2257   22.0750 C   0  0  0  0  0  0
  -22.4281   -8.0284   21.3541 C   0  0  0  0  0  0
  -21.9910   -9.0255   20.4641 C   0  0  0  0  0  0
  -22.7236  -10.2137   20.3047 C   0  0  0  0  0  0
  -21.6856   -6.0736   22.5276 C   0  0  0  0  0  0
  -21.4001   -6.5641   23.8209 C   0  0  0  0  0  0
  -21.3645   -5.6794   24.9169 C   0  0  0  0  0  0
  -21.6044   -4.3055   24.7223 C   0  0  0  0  0  0
  -21.8826   -3.8147   23.4346 C   0  0  0  0  0  0
  -21.9202   -4.6965   22.3403 C   0  0  0  0  0  0
  -22.7838  -13.5229   21.1863 C   0  0  0  0  0  0
  -22.1675   -4.2147   21.0981 F   0  0  0  0  0  0
  -21.5624   -3.4539   25.7737 F   0  0  0  0  0  0
  -30.0105  -13.3980   20.4038 N   0  0  0  0  0  0
  -26.2970  -12.9386   20.3335 N   0  0  0  0  0  0
  -25.9322  -11.6534   20.5777 N   0  0  0  0  0  0
  -22.0486  -12.8201   22.0406 N   0  0  0  0  0  0
  -25.4281  -15.1910   20.4139 N   0  0  0  0  0  0
  -31.8884  -14.6525   20.1898 O   0  0  0  0  0  0
  -21.6648   -6.8879   21.4236 O   0  0  0  0  0  0
  -22.3527  -14.5547   20.6731 O   0  0  0  0  0  0
  -24.6249  -31.8642   23.2075 C   0  0  0  0  0  0
  -25.9123  -32.4795   23.8378 C   0  0  1  0  0  0
  -27.2099  -27.3480   20.1096 C   0  0  0  0  0  0
  -25.5968  -33.8593   24.2303 N   0  0  0  0  0  0
  -23.4143  -30.4939   21.5497 C   0  0  2  0  0  0
  -24.8561  -28.9603   20.1097 C   0  0  0  0  0  0
  -22.7458  -29.4662   22.4948 C   0  0  0  0  0  0
  -18.0282  -28.1389   22.8491 C   0  0  0  0  0  0
  -24.1481  -36.7262   23.2629 C   0  0  0  0  0  0
  -25.9549  -30.8062   21.3734 C   0  0  0  0  0  0
  -26.0265  -29.4377   20.7135 C   0  0  0  0  0  0
  -27.2086  -28.6437   20.7056 C   0  0  0  0  0  0
  -26.0170  -26.9271   19.4730 C   0  0  0  0  0  0
  -24.8517  -27.7089   19.4821 C   0  0  0  0  0  0
  -23.6262  -29.8390   20.1617 C   0  0  0  0  0  0
  -25.4099  -36.3072   24.0342 C   0  0  1  0  0  0
  -20.5883  -28.3688   23.1292 C   0  0  2  0  0  0
  -20.6776  -26.9420   22.5407 C   0  0  0  0  0  0
  -19.5752  -26.6400   21.5210 C   0  0  0  0  0  0
  -18.1929  -26.7938   22.1617 C   0  0  0  0  0  0
  -19.1537  -28.8852   23.2887 C   0  0  0  0  0  0
  -18.9457  -30.1456   23.8899 C   0  0  0  0  0  0
  -17.6463  -30.6587   24.0569 C   0  0  0  0  0  0
  -25.9062  -34.9460   23.5112 C   0  0  0  0  0  0
  -16.5348  -29.9086   23.6345 C   0  0  0  0  0  0
  -16.7267  -28.6514   23.0356 C   0  0  0  0  0  0
  -26.4514  -31.6580   25.0724 C   0  0  0  0  0  0
  -25.3776  -31.3708   26.1467 C   0  0  0  0  0  0
  -27.0333  -30.3005   24.6141 C   0  0  0  0  0  0
  -27.6083  -32.4306   25.7486 C   0  0  0  0  0  0
  -27.5588  -37.1752   24.8442 C   0  0  0  0  0  0
  -21.4180  -29.3049   22.3683 N   0  0  0  0  0  0
  -26.4239  -37.3802   23.9481 N   0  0  0  0  0  0
  -24.6835  -31.0703   22.1003 N   0  0  0  0  0  0
  -23.4206  -28.8204   23.3011 O   0  0  0  0  0  0
  -28.3184  -26.4945   20.1654 O   0  0  0  0  0  0
  -26.5606  -34.8934   22.4659 O   0  0  0  0  0  0
  -23.5429  -32.1418   23.7436 O   0  0  0  0  0  0
  -29.1120  -20.8243   19.0723 C   0  0  0  0  0  0
  -30.3735  -16.7113   21.6617 C   0  0  0  0  0  0
  -29.7586  -16.4575   19.3529 C   0  0  0  0  0  0
  -29.5531  -18.0497   21.6909 C   0  0  0  0  0  0
  -28.9156  -17.7516   19.4784 C   0  0  0  0  0  0
  -28.8118  -20.0128   20.3206 C   0  0  2  0  0  0
  -29.4883  -21.4195   20.4016 C   0  0  2  0  0  0
  -30.1430  -24.4150   21.5915 C   0  0  0  0  0  0
  -28.0068  -25.0603   20.3056 C   0  0  0  0  0  0
  -29.1579  -23.9978   20.4833 C   0  0  2  0  0  0
  -29.9637  -15.7294   20.6241 N   0  0  0  0  0  0
  -29.5532  -18.7194   20.3813 N   0  0  0  0  0  0
  -28.6172  -22.6035   20.7417 N   0  3  0  0  0  0
  -31.4624  -12.4540   19.1368 H   0  0  0  0  0  0
  -30.3270  -11.3704   19.8941 H   0  0  0  0  0  0
  -29.7449  -11.7310   17.4711 H   0  0  0  0  0  0
  -29.6494  -13.4537   17.7289 H   0  0  0  0  0  0
  -27.8435  -11.2946   18.8639 H   0  0  0  0  0  0
  -27.3638  -12.5799   17.7915 H   0  0  0  0  0  0
  -27.6569  -14.2546   19.5062 H   0  0  0  0  0  0
  -28.6921  -12.1022   21.4174 H   0  0  0  0  0  0
  -28.4634  -13.7927   21.7998 H   0  0  0  0  0  0
  -25.2766   -9.5701   22.4742 H   0  0  0  0  0  0
  -24.0014   -7.4653   22.7468 H   0  0  0  0  0  0
  -21.0844   -8.8767   19.8951 H   0  0  0  0  0  0
  -22.3693  -10.9671   19.6147 H   0  0  0  0  0  0
  -21.1972   -7.6147   23.9705 H   0  0  0  0  0  0
  -21.1450   -6.0520   25.9072 H   0  0  0  0  0  0
  -22.0612   -2.7608   23.2844 H   0  0  0  0  0  0
  -22.4108  -11.9846   22.4761 H   0  0  0  0  0  0
  -21.1107  -13.1215   22.2641 H   0  0  0  0  0  0
  -24.6645  -15.8511   20.5131 H   0  0  0  0  0  0
  -26.2974  -15.6258   20.1334 H   0  0  0  0  0  0
  -26.7194  -32.5477   23.1135 H   0  0  0  0  0  0
  -25.0197  -33.9735   25.0504 H   0  0  0  0  0  0
  -22.7065  -31.3139   21.4149 H   0  0  0  0  0  0
  -23.3803  -35.9525   23.3173 H   0  0  0  0  0  0
  -24.3614  -36.8987   22.2068 H   0  0  0  0  0  0
  -23.7141  -37.6392   23.6715 H   0  0  0  0  0  0
  -26.0853  -31.5734   20.6086 H   0  0  0  0  0  0
  -26.8369  -30.8495   22.0012 H   0  0  0  0  0  0
  -28.1046  -29.0057   21.1909 H   0  0  0  0  0  0
  -25.9382  -25.9856   18.9536 H   0  0  0  0  0  0
  -23.9569  -27.3403   18.9998 H   0  0  0  0  0  0
  -23.7471  -30.6214   19.4113 H   0  0  0  0  0  0
  -22.7451  -29.2709   19.8565 H   0  0  0  0  0  0
  -25.1257  -36.1888   25.0827 H   0  0  0  0  0  0
  -20.9971  -28.3258   24.1413 H   0  0  0  0  0  0
  -20.5691  -26.2300   23.3605 H   0  0  0  0  0  0
  -21.6644  -26.7469   22.1188 H   0  0  0  0  0  0
  -19.6916  -25.6316   21.1232 H   0  0  0  0  0  0
  -19.6697  -27.3216   20.6751 H   0  0  0  0  0  0
  -17.4210  -26.6701   21.4007 H   0  0  0  0  0  0
  -18.0313  -26.0065   22.8997 H   0  0  0  0  0  0
  -19.7936  -30.7275   24.2268 H   0  0  0  0  0  0
  -17.5019  -31.6263   24.5174 H   0  0  0  0  0  0
  -15.5353  -30.2991   23.7678 H   0  0  0  0  0  0
  -15.8664  -28.0839   22.7064 H   0  0  0  0  0  0
  -24.5974  -30.7008   25.7826 H   0  0  0  0  0  0
  -24.8936  -32.2860   26.4885 H   0  0  0  0  0  0
  -25.8135  -30.8923   27.0245 H   0  0  0  0  0  0
  -26.2862  -29.6760   24.1216 H   0  0  0  0  0  0
  -27.4091  -29.7256   25.4616 H   0  0  0  0  0  0
  -27.8727  -30.4284   23.9302 H   0  0  0  0  0  0
  -27.2705  -33.3636   26.2012 H   0  0  0  0  0  0
  -28.3920  -32.6800   25.0320 H   0  0  0  0  0  0
  -28.0715  -31.8451   26.5438 H   0  0  0  0  0  0
  -28.2472  -38.0179   24.7697 H   0  0  0  0  0  0
  -28.1203  -36.2731   24.5973 H   0  0  0  0  0  0
  -27.2357  -37.1033   25.8839 H   0  0  0  0  0  0
  -20.9353  -29.8770   21.6893 H   0  0  0  0  0  0
  -26.0098  -38.2832   24.1628 H   0  0  0  0  0  0
  -28.2576  -21.2316   18.5333 H   0  0  0  0  0  0
  -29.9363  -20.5005   18.4390 H   0  0  0  0  0  0
  -30.3038  -16.2319   22.6393 H   0  0  0  0  0  0
  -31.4302  -16.9522   21.5245 H   0  0  0  0  0  0
  -30.7269  -16.7120   18.9163 H   0  0  0  0  0  0
  -29.2726  -15.7969   18.6329 H   0  0  0  0  0  0
  -29.9826  -18.7212   22.4363 H   0  0  0  0  0  0
  -28.5296  -17.8491   22.0163 H   0  0  0  0  0  0
  -27.9056  -17.5123   19.8194 H   0  0  0  0  0  0
  -28.8051  -18.1905   18.4856 H   0  0  0  0  0  0
  -27.7645  -19.9988   20.6230 H   0  0  0  0  0  0
  -30.5327  -21.4999   20.6972 H   0  0  0  0  0  0
  -30.5887  -25.3849   21.3673 H   0  0  0  0  0  0
  -30.9621  -23.7020   21.6927 H   0  0  0  0  0  0
  -29.6491  -24.4990   22.5612 H   0  0  0  0  0  0
  -27.3158  -24.9582   21.1444 H   0  0  0  0  0  0
  -27.4734  -24.7225   19.4191 H   0  0  0  0  0  0
  -29.7025  -23.9645   19.5386 H   0  0  0  0  0  0
  -28.3469  -22.5345   21.7109 H   0  0  0  0  0  0
  -27.7691  -22.4937   20.2084 H   0  0  0  0  0  0
  1 25  1  0  0  0
  1 30  2  0  0  0
  1 81  1  0  0  0
  2  3  1  0  0  0
  2 25  1  0  0  0
  2 84  1  0  0  0
  2 85  1  0  0  0
  3  4  1  0  0  0
  3 86  1  0  0  0
  3 87  1  0  0  0
  4  5  1  0  0  0
  4 88  1  0  0  0
  4 89  1  0  0  0
  5  6  1  0  0  0
  5 26  1  0  0  0
  5 90  1  0  0  0
  6 25  1  0  0  0
  6 91  1  0  0  0
  6 92  1  0  0  0
  7  8  2  0  0  0
  7 26  1  0  0  0
  7 29  1  0  0  0
  8  9  1  0  0  0
  8 22  1  0  0  0
  9 10  1  0  0  0
  9 27  2  0  0  0
 10 11  2  0  0  0
 10 15  1  0  0  0
 11 12  1  0  0  0
 11 93  1  0  0  0
 12 13  2  0  0  0
 12 94  1  0  0  0
 13 14  1  0  0  0
 13 31  1  0  0  0
 14 15  2  0  0  0
 14 95  1  0  0  0
 15 96  1  0  0  0
 16 17  2  0  0  0
 16 21  1  0  0  0
 16 31  1  0  0  0
 17 18  1  0  0  0
 17 97  1  0  0  0
 18 19  2  0  0  0
 18 98  1  0  0  0
 19 20  1  0  0  0
 19 24  1  0  0  0
 20 21  2  0  0  0
 20 99  1  0  0  0
 21 23  1  0  0  0
 22 28  1  0  0  0
 22 32  2  0  0  0
 26 27  1  0  0  0
 28100  1  0  0  0
 28101  1  0  0  0
 29102  1  0  0  0
 29103  1  0  0  0
 33 34  1  0  0  0
 33 66  1  0  0  0
 33 70  2  0  0  0
 34 36  1  0  0  0
 34 59  1  0  0  0
 34104  1  0  0  0
 35 44  2  0  0  0
 35 45  1  0  0  0
 35 68  1  0  0  0
 36 56  1  0  0  0
 36105  1  0  0  0
 37 39  1  0  0  0
 37 47  1  0  0  0
 37 66  1  0  0  0
 37106  1  0  0  0
 38 43  2  0  0  0
 38 46  1  0  0  0
 38 47  1  0  0  0
 39 64  1  0  0  0
 39 67  2  0  0  0
 40 52  1  0  0  0
 40 53  2  0  0  0
 40 58  1  0  0  0
 41107  1  0  0  0
 41108  1  0  0  0
 41109  1  0  0  0
 41 48  1  0  0  0
 42 43  1  0  0  0
 42 66  1  0  0  0
 42110  1  0  0  0
 42111  1  0  0  0
 43 44  1  0  0  0
 44112  1  0  0  0
 45 46  2  0  0  0
 45113  1  0  0  0
 46114  1  0  0  0
 47115  1  0  0  0
 47116  1  0  0  0
 48 56  1  0  0  0
 48 65  1  0  0  0
 48117  1  0  0  0
 49 50  1  0  0  0
 49 53  1  0  0  0
 49 64  1  0  0  0
 49118  1  0  0  0
 50 51  1  0  0  0
 50119  1  0  0  0
 50120  1  0  0  0
 51 52  1  0  0  0
 51121  1  0  0  0
 51122  1  0  0  0
 52123  1  0  0  0
 52124  1  0  0  0
 53 54  1  0  0  0
 54 55  2  0  0  0
 54125  1  0  0  0
 55 57  1  0  0  0
 55126  1  0  0  0
 56 69  2  0  0  0
 57 58  2  0  0  0
 57127  1  0  0  0
 58128  1  0  0  0
 59 60  1  0  0  0
 59 61  1  0  0  0
 59 62  1  0  0  0
 60129  1  0  0  0
 60130  1  0  0  0
 60131  1  0  0  0
 61132  1  0  0  0
 61133  1  0  0  0
 61134  1  0  0  0
 62135  1  0  0  0
 62136  1  0  0  0
 62137  1  0  0  0
 63 65  1  0  0  0
 63138  1  0  0  0
 63139  1  0  0  0
 63140  1  0  0  0
 64141  1  0  0  0
 65142  1  0  0  0
 68 79  1  0  0  0
 71 76  1  0  0  0
 71 77  1  0  0  0
 71143  1  0  0  0
 71144  1  0  0  0
 72 74  1  0  0  0
 72 81  1  0  0  0
 72145  1  0  0  0
 72146  1  0  0  0
 73 75  1  0  0  0
 73 81  1  0  0  0
 73147  1  0  0  0
 73148  1  0  0  0
 74149  1  0  0  0
 74150  1  0  0  0
 74 82  1  0  0  0
 75 82  1  0  0  0
 75151  1  0  0  0
 75152  1  0  0  0
 76 77  1  0  0  0
 76 82  1  0  0  0
 76153  1  0  0  0
 77 83  1  0  0  0
 77154  1  0  0  0
 78155  1  0  0  0
 78156  1  0  0  0
 78157  1  0  0  0
 78 80  1  0  0  0
 79 80  1  0  0  0
 79158  1  0  0  0
 79159  1  0  0  0
 80 83  1  0  0  0
 80160  1  0  0  0
 83161  1  0  0  0
 83162  1  0  0  0
M  CHG  1  83   1
M  ISO  4   1 100  68 101  79 101  81 100
M  END
> <chiral flag>
0

> <version>
0

> <s_m_source_file>
/data/baiqing/PycharmProjects/Reinvent-master-3.2/result/LINK_invent/BTK/process_docking_weight1_custom_sum_contain_oxygen_bond_distance_aromatic_linkinvent_7_9_3/rearranged_h_0187.sdf

> <i_m_source_file_index>
93

> <r_mmod_Potential_Energy-OPLS-2005>
152.040908813477

> <r_mmod_Stretch_Energy-OPLS-2005>
64.2685394287109

> <r_mmod_Bend_Energy-OPLS-2005>
137.678176879883

> <r_mmod_Torsional_Energy-OPLS-2005>
412.318450927734

> <r_mmod_Improper_Torsional_Energy-OPLS-2005>
12.4913816452026

> <r_mmod_Van_der_Waal_Energy-OPLS-2005>
136.201736450195

> <r_mmod_Electrostatic_Energy-OPLS-2005>
-203.154525756836

> <r_mmod_Solvation_Energy-OPLS-2005>
-449.002136230469

> <b_mmod_Minimization_Converged-OPLS-2005>
0

> <r_mmod_RMS_Derivative-OPLS-2005>
1.5950049161911

$$$$
93
                    3D
 Structure written by MMmdl.
156166  0  0  1  0            999 V2000
  -31.0077  -14.1628   21.0104 C   0  0  0  0  0  0
  -31.1861  -12.8392   18.7889 C   0  0  0  0  0  0
  -30.0705  -12.9282   17.6609 C   0  0  0  0  0  0
  -28.6778  -13.4932   18.1160 C   0  0  0  0  0  0
  -28.4349  -14.0486   19.7001 C   0  0  2  0  0  0
  -29.5323  -12.8221   20.0184 C   0  0  0  0  0  0
  -24.6094  -14.4423   20.8121 C   0  0  0  0  0  0
  -23.7454  -13.3673   20.8516 C   0  0  0  0  0  0
  -24.3796  -12.1361   21.0320 C   0  0  0  0  0  0
  -23.8685  -10.6775   21.1233 C   0  0  0  0  0  0
  -24.3590   -9.6317   21.9644 C   0  0  0  0  0  0
  -23.6882   -8.3718   22.0855 C   0  0  0  0  0  0
  -22.4992   -8.1044   21.3585 C   0  0  0  0  0  0
  -22.0649   -9.0897   20.4543 C   0  0  0  0  0  0
  -22.7441  -10.3239   20.3284 C   0  0  0  0  0  0
  -21.7363   -6.1086   22.5211 C   0  0  0  0  0  0
  -21.4379   -6.5886   23.8159 C   0  0  0  0  0  0
  -21.3757   -5.6962   24.9079 C   0  0  0  0  0  0
  -21.6022   -4.3205   24.7116 C   0  0  0  0  0  0
  -21.8764   -3.8339   23.4222 C   0  0  0  0  0  0
  -21.9351   -4.7222   22.3321 C   0  0  0  0  0  0
  -22.3330  -13.5893   21.0744 C   0  0  0  0  0  0
  -22.1740   -4.2342   21.0908 F   0  0  0  0  0  0
  -21.5523   -3.4654   25.7609 F   0  0  0  0  0  0
  -30.7393  -13.2279   20.1057 N   0  0  0  0  0  0
  -25.8717  -14.0718   21.0955 N   0  0  0  0  0  0
  -25.2537  -12.8203   21.7550 N   0  0  0  0  0  0
  -21.7477  -12.8229   21.9847 N   0  0  0  0  0  0
  -24.4243  -15.7798   20.6338 N   0  0  0  0  0  0
  -31.8625  -14.9815   20.6825 O   0  0  0  0  0  0
  -21.7567   -6.9355   21.4185 O   0  0  0  0  0  0
  -21.8094  -14.5654   20.5641 O   0  0  0  0  0  0
  -24.7259  -31.7470   23.1221 C   0  0  0  0  0  0
  -25.9657  -32.4184   23.7875 C   0  0  1  0  0  0
  -26.8717  -26.1286   20.2315 C   0  0  0  0  0  0
  -25.6062  -33.8055   24.1695 N   0  0  0  0  0  0
  -23.5477  -30.3604   21.4929 C   0  0  2  0  0  0
  -24.9299  -28.6119   20.0970 C   0  0  0  0  0  0
  -22.7858  -29.4093   22.4589 C   0  0  0  0  0  0
  -18.0347  -28.1438   22.8432 C   0  0  0  0  0  0
  -24.1493  -36.7028   23.2663 C   0  0  0  0  0  0
  -26.1375  -30.2742   21.4631 C   0  0  0  0  0  0
  -26.1211  -28.7914   20.8028 C   0  0  0  0  0  0
  -27.0810  -27.5836   20.8297 C   0  0  0  0  0  0
  -25.7280  -26.3170   19.4182 C   0  0  0  0  0  0
  -24.8118  -27.4180   19.3705 C   0  0  0  0  0  0
  -23.7981  -29.6645   20.1231 C   0  0  0  0  0  0
  -25.4167  -36.2739   24.0243 C   0  0  1  0  0  0
  -20.5992  -28.3805   23.1069 C   0  0  2  0  0  0
  -20.6798  -26.9433   22.5404 C   0  0  0  0  0  0
  -19.5782  -26.6353   21.5217 C   0  0  0  0  0  0
  -18.1963  -26.7961   22.1607 C   0  0  0  0  0  0
  -19.1621  -28.8952   23.2727 C   0  0  0  0  0  0
  -18.9528  -30.1531   23.8783 C   0  0  0  0  0  0
  -17.6516  -30.6611   24.0543 C   0  0  0  0  0  0
  -25.9184  -34.9142   23.4835 C   0  0  0  0  0  0
  -16.5401  -29.9089   23.6366 C   0  0  0  0  0  0
  -16.7326  -28.6517   23.0372 C   0  0  0  0  0  0
  -26.4670  -31.6465   25.0718 C   0  0  0  0  0  0
  -25.3610  -31.3945   26.1253 C   0  0  0  0  0  0
  -27.0686  -30.2756   24.7005 C   0  0  0  0  0  0
  -27.6017  -32.4468   25.7547 C   0  0  0  0  0  0
  -27.5548  -37.1677   24.8465 C   0  0  0  0  0  0
  -21.4482  -29.2984   22.3343 N   0  0  0  0  0  0
  -26.4247  -37.3558   23.9408 N   0  0  0  0  0  0
  -24.8387  -30.8425   22.0748 N   0  0  0  0  0  0
  -23.4154  -28.7717   23.3059 O   0  0  0  0  0  0
  -27.5020  -24.5737   20.2864 O   0  0  0  0  0  0
  -26.5878  -34.8810   22.4490 O   0  0  0  0  0  0
  -23.6217  -32.0835   23.5909 O   0  0  0  0  0  0
  -26.5248  -12.9274   19.3069 C   0  0  0  0  0  0
  -26.4296  -14.8439   18.9878 C   0  0  0  0  0  0
  -27.4103  -12.4292   20.9303 C   0  0  0  0  0  0
  -27.0672  -16.1527   20.1446 C   0  0  0  0  0  0
  -27.9804  -13.8242   21.9289 C   0  0  0  0  0  0
  -26.8862  -19.4040   19.1425 C   0  0  0  0  0  0
  -28.7570  -11.7882   22.7865 C   0  0  0  0  0  0
  -26.8502  -18.3240   20.2423 C   0  0  2  0  0  0
  -29.1004  -13.3813   22.7899 C   0  0  1  0  0  0
  -27.4005  -20.4448   20.1918 C   0  0  2  0  0  0
  -26.9993  -22.6257   20.1266 C   0  0  0  0  0  0
  -27.7662  -15.4574   21.4948 N   0  0  0  0  0  0
  -27.8054  -11.2948   21.6862 N   0  0  0  0  0  0
  -30.4614  -13.9439   22.2820 N   0  0  0  0  0  0
  -32.0164  -13.4878   18.5039 H   0  0  0  0  0  0
  -31.6134  -11.8356   18.8356 H   0  0  0  0  0  0
  -29.9404  -11.9293   17.2373 H   0  0  0  0  0  0
  -30.4495  -13.5258   16.8302 H   0  0  0  0  0  0
  -28.0372  -12.7411   17.6583 H   0  0  0  0  0  0
  -28.5006  -14.3597   17.4764 H   0  0  0  0  0  0
  -28.9989  -14.9878   19.6287 H   0  0  0  0  0  0
  -29.2946  -11.8560   19.5295 H   0  0  0  0  0  0
  -29.7478  -12.1935   20.8403 H   0  0  0  0  0  0
  -25.2346   -9.8277   22.5681 H   0  0  0  0  0  0
  -24.0864   -7.6299   22.7626 H   0  0  0  0  0  0
  -21.1864   -8.9087   19.8515 H   0  0  0  0  0  0
  -22.3442  -11.0531   19.6380 H   0  0  0  0  0  0
  -21.2548   -7.6414   23.9735 H   0  0  0  0  0  0
  -21.1547   -6.0679   25.8981 H   0  0  0  0  0  0
  -22.0369   -2.7775   23.2668 H   0  0  0  0  0  0
  -22.2602  -12.0813   22.4402 H   0  0  0  0  0  0
  -20.7838  -12.9855   22.2373 H   0  0  0  0  0  0
  -23.4805  -16.1432   20.5648 H   0  0  0  0  0  0
  -25.0908  -16.4358   21.0138 H   0  0  0  0  0  0
  -26.7764  -32.4478   23.0586 H   0  0  0  0  0  0
  -25.0070  -33.9027   24.9756 H   0  0  0  0  0  0
  -22.9002  -31.2189   21.3010 H   0  0  0  0  0  0
  -23.3797  -35.9312   23.3233 H   0  0  0  0  0  0
  -24.3538  -36.8815   22.2096 H   0  0  0  0  0  0
  -23.7211  -37.6144   23.6841 H   0  0  0  0  0  0
  -26.4213  -30.9625   20.6663 H   0  0  0  0  0  0
  -26.9711  -30.3146   22.1494 H   0  0  0  0  0  0
  -27.9648  -27.7078   21.4398 H   0  0  0  0  0  0
  -25.4305  -25.4567   18.8352 H   0  0  0  0  0  0
  -23.9293  -27.2905   18.7580 H   0  0  0  0  0  0
  -24.0410  -30.4255   19.3799 H   0  0  0  0  0  0
  -22.8731  -29.2051   19.7716 H   0  0  0  0  0  0
  -25.1399  -36.1438   25.0729 H   0  0  0  0  0  0
  -21.0071  -28.3470   24.1199 H   0  0  0  0  0  0
  -20.5641  -26.2441   23.3698 H   0  0  0  0  0  0
  -21.6659  -26.7334   22.1239 H   0  0  0  0  0  0
  -19.6933  -25.6234   21.1322 H   0  0  0  0  0  0
  -19.6744  -27.3101   20.6701 H   0  0  0  0  0  0
  -17.4238  -26.6704   21.4004 H   0  0  0  0  0  0
  -18.0333  -26.0129   22.9026 H   0  0  0  0  0  0
  -19.8005  -30.7374   24.2101 H   0  0  0  0  0  0
  -17.5068  -31.6282   24.5167 H   0  0  0  0  0  0
  -15.5398  -30.2957   23.7761 H   0  0  0  0  0  0
  -15.8724  -28.0804   22.7149 H   0  0  0  0  0  0
  -24.5831  -30.7250   25.7560 H   0  0  0  0  0  0
  -24.8768  -32.3224   26.4313 H   0  0  0  0  0  0
  -25.7677  -30.9355   27.0273 H   0  0  0  0  0  0
  -26.3463  -29.6170   24.2178 H   0  0  0  0  0  0
  -27.4061  -29.7474   25.5933 H   0  0  0  0  0  0
  -27.9469  -30.3775   24.0631 H   0  0  0  0  0  0
  -27.2481  -33.3902   26.1724 H   0  0  0  0  0  0
  -28.4015  -32.6827   25.0515 H   0  0  0  0  0  0
  -28.0478  -31.8895   26.5794 H   0  0  0  0  0  0
  -28.2501  -38.0030   24.7524 H   0  0  0  0  0  0
  -28.1106  -36.2547   24.6280 H   0  0  0  0  0  0
  -27.2261  -37.1286   25.8864 H   0  0  0  0  0  0
  -20.9846  -29.8615   21.6342 H   0  0  0  0  0  0
  -26.0033  -38.2581   24.1435 H   0  0  0  0  0  0
  -26.1052  -12.1996   18.6246 H   0  0  0  0  0  0
  -25.9107  -15.1856   18.1029 H   0  0  0  0  0  0
  -25.9058  -19.6213   18.7185 H   0  0  0  0  0  0
  -27.5970  -19.2082   18.3428 H   0  0  0  0  0  0
  -28.2776  -11.5495   23.7368 H   0  0  0  0  0  0
  -29.6757  -11.2004   22.7829 H   0  0  0  0  0  0
  -25.9537  -18.3015   20.8573 H   0  0  0  0  0  0
  -28.9348  -13.7778   23.7928 H   0  0  0  0  0  0
  -28.4602  -20.4181   20.4372 H   0  0  0  0  0  0
  -26.1523  -22.6635   20.8117 H   0  0  0  0  0  0
  -26.5187  -22.6899   19.1506 H   0  0  0  0  0  0
  -28.0445  -10.4457   21.1808 H   0  0  0  0  0  0
  -30.9116  -14.5090   22.9855 H   0  0  0  0  0  0
  1 25  1  0  0  0
  1 30  2  0  0  0
  1 84  1  0  0  0
  2  3  1  0  0  0
  2 25  1  0  0  0
  2 85  1  0  0  0
  2 86  1  0  0  0
  3  4  1  0  0  0
  3 87  1  0  0  0
  3 88  1  0  0  0
  4  5  1  0  0  0
  4 89  1  0  0  0
  4 90  1  0  0  0
  5  6  1  0  0  0
  5 26  1  0  0  0
  5 91  1  0  0  0
  6 25  1  0  0  0
  6 92  1  0  0  0
  6 93  1  0  0  0
  7  8  2  0  0  0
  7 26  1  0  0  0
  7 29  1  0  0  0
  8  9  1  0  0  0
  8 22  1  0  0  0
  9 10  1  0  0  0
  9 27  2  0  0  0
 10 11  2  0  0  0
 10 15  1  0  0  0
 11 12  1  0  0  0
 11 94  1  0  0  0
 12 13  2  0  0  0
 12 95  1  0  0  0
 13 14  1  0  0  0
 13 31  1  0  0  0
 14 15  2  0  0  0
 14 96  1  0  0  0
 15 97  1  0  0  0
 16 17  2  0  0  0
 16 21  1  0  0  0
 16 31  1  0  0  0
 17 18  1  0  0  0
 17 98  1  0  0  0
 18 19  2  0  0  0
 18 99  1  0  0  0
 19 20  1  0  0  0
 19 24  1  0  0  0
 20 21  2  0  0  0
 20100  1  0  0  0
 21 23  1  0  0  0
 22 28  1  0  0  0
 22 32  2  0  0  0
 26 27  1  0  0  0
 28101  1  0  0  0
 28102  1  0  0  0
 29103  1  0  0  0
 29104  1  0  0  0
 33 34  1  0  0  0
 33 66  1  0  0  0
 33 70  2  0  0  0
 34 36  1  0  0  0
 34 59  1  0  0  0
 34105  1  0  0  0
 35 44  2  0  0  0
 35 45  1  0  0  0
 35 68  1  0  0  0
 36 56  1  0  0  0
 36106  1  0  0  0
 37 39  1  0  0  0
 37 47  1  0  0  0
 37 66  1  0  0  0
 37107  1  0  0  0
 38 43  2  0  0  0
 38 46  1  0  0  0
 38 47  1  0  0  0
 39 64  1  0  0  0
 39 67  2  0  0  0
 40 52  1  0  0  0
 40 53  2  0  0  0
 40 58  1  0  0  0
 41108  1  0  0  0
 41109  1  0  0  0
 41110  1  0  0  0
 41 48  1  0  0  0
 42 43  1  0  0  0
 42 66  1  0  0  0
 42111  1  0  0  0
 42112  1  0  0  0
 43 44  1  0  0  0
 44113  1  0  0  0
 45 46  2  0  0  0
 45114  1  0  0  0
 46115  1  0  0  0
 47116  1  0  0  0
 47117  1  0  0  0
 48 56  1  0  0  0
 48 65  1  0  0  0
 48118  1  0  0  0
 49 50  1  0  0  0
 49 53  1  0  0  0
 49 64  1  0  0  0
 49119  1  0  0  0
 50 51  1  0  0  0
 50120  1  0  0  0
 50121  1  0  0  0
 51 52  1  0  0  0
 51122  1  0  0  0
 51123  1  0  0  0
 52124  1  0  0  0
 52125  1  0  0  0
 53 54  1  0  0  0
 54 55  2  0  0  0
 54126  1  0  0  0
 55 57  1  0  0  0
 55127  1  0  0  0
 56 69  2  0  0  0
 57 58  2  0  0  0
 57128  1  0  0  0
 58129  1  0  0  0
 59 60  1  0  0  0
 59 61  1  0  0  0
 59 62  1  0  0  0
 60130  1  0  0  0
 60131  1  0  0  0
 60132  1  0  0  0
 61133  1  0  0  0
 61134  1  0  0  0
 61135  1  0  0  0
 62136  1  0  0  0
 62137  1  0  0  0
 62138  1  0  0  0
 63 65  1  0  0  0
 63139  1  0  0  0
 63140  1  0  0  0
 63141  1  0  0  0
 64142  1  0  0  0
 65143  1  0  0  0
 68 81  1  0  0  0
 71 72  2  0  0  0
 71 73  1  0  0  0
 71144  1  0  0  0
 72 74  1  0  0  0
 72145  1  0  0  0
 73 75  2  0  0  0
 73 83  1  0  0  0
 74 82  2  0  0  0
 74 78  1  0  0  0
 75 79  1  0  0  0
 75 82  1  0  0  0
 76 78  1  0  0  0
 76 80  1  0  0  0
 76146  1  0  0  0
 76147  1  0  0  0
 77 79  1  0  0  0
 77 83  1  0  0  0
 77148  1  0  0  0
 77149  1  0  0  0
 78 80  1  0  0  0
 78150  1  0  0  0
 79 84  1  0  0  0
 79151  1  0  0  0
 80 81  1  0  0  0
 80152  1  0  0  0
 81153  1  0  0  0
 81154  1  0  0  0
 83155  1  0  0  0
 84156  1  0  0  0
M  ISO  4   1 100  68 101  81 101  84 100
M  END
> <chiral flag>
0

> <version>
0

> <s_m_source_file>
/data/baiqing/PycharmProjects/Reinvent-master-3.2/result/LINK_invent/BTK/process_docking_weight1_custom_sum_contain_oxygen_bond_distance_aromatic_linkinvent_7_9_3/rearranged_h_0187.sdf

> <i_m_source_file_index>
94

> <r_mmod_Potential_Energy-OPLS-2005>
14783.76171875

> <r_mmod_Stretch_Energy-OPLS-2005>
8014.45068359375

> <r_mmod_Bend_Energy-OPLS-2005>
1367.44274902344

> <r_mmod_Torsional_Energy-OPLS-2005>
498.895538330078

> <r_mmod_Improper_Torsional_Energy-OPLS-2005>
48.9191513061523

> <r_mmod_Van_der_Waal_Energy-OPLS-2005>
2813.14819335938

> <r_mmod_Electrostatic_Energy-OPLS-2005>
-563.945190429688

> <r_mmod_Solvation_Energy-OPLS-2005>
-240.287124633789

> <b_mmod_Minimization_Converged-OPLS-2005>
0

> <r_mmod_RMS_Derivative-OPLS-2005>
3.61957669258118

$$$$
94
                    3D
 Structure written by MMmdl.
159168  0  0  1  0            999 V2000
  -30.5962  -14.8005   20.4291 C   0  0  0  0  0  0
  -30.4354  -12.4836   19.4889 C   0  0  0  0  0  0
  -29.5165  -12.5078   18.2464 C   0  0  0  0  0  0
  -28.0427  -12.3278   18.6586 C   0  0  0  0  0  0
  -27.6402  -13.2362   19.8507 C   0  0  2  0  0  0
  -28.6858  -13.2000   20.9882 C   0  0  0  0  0  0
  -25.2497  -13.8195   20.5708 C   0  0  0  0  0  0
  -24.1792  -13.0434   20.9205 C   0  0  0  0  0  0
  -24.6393  -11.6918   20.8748 C   0  0  0  0  0  0
  -23.9073  -10.4293   21.0402 C   0  0  0  0  0  0
  -24.3618   -9.4209   21.9183 C   0  0  0  0  0  0
  -23.6289   -8.2248   22.0757 C   0  0  0  0  0  0
  -22.4266   -8.0287   21.3552 C   0  0  0  0  0  0
  -21.9905   -9.0262   20.4652 C   0  0  0  0  0  0
  -22.7244  -10.2136   20.3057 C   0  0  0  0  0  0
  -21.6857   -6.0734   22.5275 C   0  0  0  0  0  0
  -21.4022   -6.5636   23.8208 C   0  0  0  0  0  0
  -21.3658   -5.6787   24.9170 C   0  0  0  0  0  0
  -21.6040   -4.3050   24.7220 C   0  0  0  0  0  0
  -21.8822   -3.8144   23.4342 C   0  0  0  0  0  0
  -21.9193   -4.6959   22.3397 C   0  0  0  0  0  0
  -22.7813  -13.5217   21.1856 C   0  0  0  0  0  0
  -22.1660   -4.2148   21.0974 F   0  0  0  0  0  0
  -21.5629   -3.4534   25.7733 F   0  0  0  0  0  0
  -29.9829  -13.5627   20.4026 N   0  0  0  0  0  0
  -26.2933  -12.9412   20.3297 N   0  0  0  0  0  0
  -25.9328  -11.6551   20.5764 N   0  0  0  0  0  0
  -22.0454  -12.8219   22.0414 N   0  0  0  0  0  0
  -25.4170  -15.1925   20.4141 N   0  0  0  0  0  0
  -31.7782  -14.8932   20.0912 O   0  0  0  0  0  0
  -21.6645   -6.8877   21.4236 O   0  0  0  0  0  0
  -22.3504  -14.5525   20.6699 O   0  0  0  0  0  0
  -24.6366  -31.8513   23.1962 C   0  0  0  0  0  0
  -25.9169  -32.4732   23.8324 C   0  0  1  0  0  0
  -27.2173  -27.2145   20.1300 C   0  0  0  0  0  0
  -25.5944  -33.8535   24.2248 N   0  0  0  0  0  0
  -23.4352  -30.4742   21.5405 C   0  0  2  0  0  0
  -24.8831  -28.9186   20.1081 C   0  0  0  0  0  0
  -22.7532  -29.4579   22.4891 C   0  0  0  0  0  0
  -18.0296  -28.1393   22.8473 C   0  0  0  0  0  0
  -24.1484  -36.7264   23.2640 C   0  0  0  0  0  0
  -25.9862  -30.7486   21.3853 C   0  0  0  0  0  0
  -26.0577  -29.3682   20.7245 C   0  0  0  0  0  0
  -27.2252  -28.5295   20.7259 C   0  0  0  0  0  0
  -26.0213  -26.8576   19.4642 C   0  0  0  0  0  0
  -24.8734  -27.6728   19.4671 C   0  0  0  0  0  0
  -23.6564  -29.8107   20.1565 C   0  0  0  0  0  0
  -25.4114  -36.3052   24.0323 C   0  0  1  0  0  0
  -20.5905  -28.3706   23.1248 C   0  0  2  0  0  0
  -20.6779  -26.9415   22.5402 C   0  0  0  0  0  0
  -19.5752  -26.6381   21.5205 C   0  0  0  0  0  0
  -18.1935  -26.7933   22.1621 C   0  0  0  0  0  0
  -19.1555  -28.8869   23.2855 C   0  0  0  0  0  0
  -18.9476  -30.1468   23.8878 C   0  0  0  0  0  0
  -17.6472  -30.6585   24.0563 C   0  0  0  0  0  0
  -25.9059  -34.9421   23.5089 C   0  0  0  0  0  0
  -16.5365  -29.9084   23.6333 C   0  0  0  0  0  0
  -16.7283  -28.6504   23.0344 C   0  0  0  0  0  0
  -26.4515  -31.6574   25.0737 C   0  0  0  0  0  0
  -25.3721  -31.3742   26.1448 C   0  0  0  0  0  0
  -27.0374  -30.2979   24.6273 C   0  0  0  0  0  0
  -27.6059  -32.4324   25.7517 C   0  0  0  0  0  0
  -27.5571  -37.1793   24.8465 C   0  0  0  0  0  0
  -21.4233  -29.3042   22.3634 N   0  0  0  0  0  0
  -26.4286  -37.3755   23.9405 N   0  0  0  0  0  0
  -24.7052  -31.0436   22.0961 N   0  0  0  0  0  0
  -23.4213  -28.8115   23.3004 O   0  0  0  0  0  0
  -28.2833  -26.2695   20.2206 O   0  0  0  0  0  0
  -26.5639  -34.8905   22.4665 O   0  0  0  0  0  0
  -23.5505  -32.1353   23.7230 O   0  0  0  0  0  0
  -30.3099  -22.8234   22.0453 C   0  0  0  0  0  0
  -28.8948  -23.5673   20.4801 C   0  0  0  0  0  0
  -29.4109  -21.2977   20.6884 C   0  0  0  0  0  0
  -29.7411  -18.6678   21.1134 C   0  0  0  0  0  0
  -29.2705  -19.4417   18.9311 C   0  0  0  0  0  0
  -30.0867  -17.4184   20.1595 C   0  0  2  0  0  0
  -29.2533  -17.8794   18.9377 C   0  0  2  0  0  0
  -31.2592  -23.1295   23.1846 C   0  0  0  0  0  0
  -28.0206  -24.7962   19.9070 C   0  0  0  0  0  0
  -29.7004  -23.8692   21.4929 N   0  0  0  0  0  0
  -30.1975  -21.5369   21.7200 N   0  0  0  0  0  0
  -28.7357  -22.2760   20.0166 N   0  0  0  0  0  0
  -29.3453  -19.8950   20.3154 N   0  0  0  0  0  0
  -29.8172  -15.9493   20.5802 N   0  0  0  0  0  0
  -29.6943  -17.2889   17.6620 N   0  3  0  0  0  0
  -31.4771  -12.6049   19.1872 H   0  0  0  0  0  0
  -30.3822  -11.5156   19.9887 H   0  0  0  0  0  0
  -29.8065  -11.7246   17.5440 H   0  0  0  0  0  0
  -29.6384  -13.4527   17.7161 H   0  0  0  0  0  0
  -27.9037  -11.2816   18.9311 H   0  0  0  0  0  0
  -27.3865  -12.5086   17.8070 H   0  0  0  0  0  0
  -27.6237  -14.2520   19.4566 H   0  0  0  0  0  0
  -28.7317  -12.2099   21.4436 H   0  0  0  0  0  0
  -28.4137  -13.8918   21.7872 H   0  0  0  0  0  0
  -25.2758   -9.5688   22.4768 H   0  0  0  0  0  0
  -23.9992   -7.4643   22.7482 H   0  0  0  0  0  0
  -21.0838   -8.8786   19.8960 H   0  0  0  0  0  0
  -22.3696  -10.9676   19.6172 H   0  0  0  0  0  0
  -21.2021   -7.6144   23.9710 H   0  0  0  0  0  0
  -21.1474   -6.0519   25.9071 H   0  0  0  0  0  0
  -22.0600   -2.7604   23.2847 H   0  0  0  0  0  0
  -22.4048  -11.9874   22.4809 H   0  0  0  0  0  0
  -21.1077  -13.1261   22.2619 H   0  0  0  0  0  0
  -24.6462  -15.8413   20.5323 H   0  0  0  0  0  0
  -26.2581  -15.6375   20.0750 H   0  0  0  0  0  0
  -26.7234  -32.5369   23.1059 H   0  0  0  0  0  0
  -25.0071  -33.9662   25.0380 H   0  0  0  0  0  0
  -22.7334  -31.2979   21.3939 H   0  0  0  0  0  0
  -23.3747  -35.9596   23.3307 H   0  0  0  0  0  0
  -24.3563  -36.8885   22.2051 H   0  0  0  0  0  0
  -23.7240  -37.6466   23.6668 H   0  0  0  0  0  0
  -26.1332  -31.5079   20.6160 H   0  0  0  0  0  0
  -26.8602  -30.7971   22.0230 H   0  0  0  0  0  0
  -28.1183  -28.8650   21.2338 H   0  0  0  0  0  0
  -25.9301  -25.9155   18.9450 H   0  0  0  0  0  0
  -23.9769  -27.3258   18.9719 H   0  0  0  0  0  0
  -23.7883  -30.5885   19.4037 H   0  0  0  0  0  0
  -22.7727  -29.2497   19.8468 H   0  0  0  0  0  0
  -25.1297  -36.1893   25.0815 H   0  0  0  0  0  0
  -21.0002  -28.3293   24.1367 H   0  0  0  0  0  0
  -20.5661  -26.2320   23.3613 H   0  0  0  0  0  0
  -21.6648  -26.7415   22.1208 H   0  0  0  0  0  0
  -19.6906  -25.6291   21.1236 H   0  0  0  0  0  0
  -19.6685  -27.3187   20.6732 H   0  0  0  0  0  0
  -17.4200  -26.6678   21.4028 H   0  0  0  0  0  0
  -18.0333  -26.0081   22.9022 H   0  0  0  0  0  0
  -19.7954  -30.7288   24.2235 H   0  0  0  0  0  0
  -17.5026  -31.6262   24.5180 H   0  0  0  0  0  0
  -15.5363  -30.2976   23.7664 H   0  0  0  0  0  0
  -15.8684  -28.0815   22.7069 H   0  0  0  0  0  0
  -24.5895  -30.7091   25.7777 H   0  0  0  0  0  0
  -24.8914  -32.2918   26.4843 H   0  0  0  0  0  0
  -25.8023  -30.8937   27.0245 H   0  0  0  0  0  0
  -26.2981  -29.6710   24.1276 H   0  0  0  0  0  0
  -27.4005  -29.7260   25.4825 H   0  0  0  0  0  0
  -27.8877  -30.4229   23.9563 H   0  0  0  0  0  0
  -27.2664  -33.3634   26.2066 H   0  0  0  0  0  0
  -28.3885  -32.6871   25.0358 H   0  0  0  0  0  0
  -28.0709  -31.8469   26.5460 H   0  0  0  0  0  0
  -28.2595  -38.0081   24.7498 H   0  0  0  0  0  0
  -28.1059  -36.2614   24.6309 H   0  0  0  0  0  0
  -27.2286  -37.1461   25.8868 H   0  0  0  0  0  0
  -20.9434  -29.8774   21.6834 H   0  0  0  0  0  0
  -26.0158  -38.2825   24.1412 H   0  0  0  0  0  0
  -30.5863  -18.8917   21.7664 H   0  0  0  0  0  0
  -28.9029  -18.4161   21.7643 H   0  0  0  0  0  0
  -28.3895  -19.8512   18.4344 H   0  0  0  0  0  0
  -30.1482  -19.8218   18.4066 H   0  0  0  0  0  0
  -31.1455  -17.5023   19.9065 H   0  0  0  0  0  0
  -28.2199  -17.5673   19.1001 H   0  0  0  0  0  0
  -31.3023  -24.1978   23.3971 H   0  0  0  0  0  0
  -32.2673  -22.7981   22.9356 H   0  0  0  0  0  0
  -30.9445  -22.6178   24.0936 H   0  0  0  0  0  0
  -27.0160  -24.5544   20.2539 H   0  0  0  0  0  0
  -28.0005  -24.6928   18.8214 H   0  0  0  0  0  0
  -28.8743  -15.7656   20.8903 H   0  0  0  0  0  0
  -30.6397  -17.5505   17.4451 H   0  0  0  0  0  0
  -29.1017  -17.6008   16.9123 H   0  0  0  0  0  0
  -29.6437  -16.2880   17.6964 H   0  0  0  0  0  0
  1 25  1  0  0  0
  1 30  2  0  0  0
  1 84  1  0  0  0
  2  3  1  0  0  0
  2 25  1  0  0  0
  2 86  1  0  0  0
  2 87  1  0  0  0
  3  4  1  0  0  0
  3 88  1  0  0  0
  3 89  1  0  0  0
  4  5  1  0  0  0
  4 90  1  0  0  0
  4 91  1  0  0  0
  5  6  1  0  0  0
  5 26  1  0  0  0
  5 92  1  0  0  0
  6 25  1  0  0  0
  6 93  1  0  0  0
  6 94  1  0  0  0
  7  8  2  0  0  0
  7 26  1  0  0  0
  7 29  1  0  0  0
  8  9  1  0  0  0
  8 22  1  0  0  0
  9 10  1  0  0  0
  9 27  2  0  0  0
 10 11  2  0  0  0
 10 15  1  0  0  0
 11 12  1  0  0  0
 11 95  1  0  0  0
 12 13  2  0  0  0
 12 96  1  0  0  0
 13 14  1  0  0  0
 13 31  1  0  0  0
 14 15  2  0  0  0
 14 97  1  0  0  0
 15 98  1  0  0  0
 16 17  2  0  0  0
 16 21  1  0  0  0
 16 31  1  0  0  0
 17 18  1  0  0  0
 17 99  1  0  0  0
 18 19  2  0  0  0
 18100  1  0  0  0
 19 20  1  0  0  0
 19 24  1  0  0  0
 20 21  2  0  0  0
 20101  1  0  0  0
 21 23  1  0  0  0
 22 28  1  0  0  0
 22 32  2  0  0  0
 26 27  1  0  0  0
 28102  1  0  0  0
 28103  1  0  0  0
 29104  1  0  0  0
 29105  1  0  0  0
 33 34  1  0  0  0
 33 66  1  0  0  0
 33 70  2  0  0  0
 34 36  1  0  0  0
 34 59  1  0  0  0
 34106  1  0  0  0
 35 44  2  0  0  0
 35 45  1  0  0  0
 35 68  1  0  0  0
 36 56  1  0  0  0
 36107  1  0  0  0
 37 39  1  0  0  0
 37 47  1  0  0  0
 37 66  1  0  0  0
 37108  1  0  0  0
 38 43  2  0  0  0
 38 46  1  0  0  0
 38 47  1  0  0  0
 39 64  1  0  0  0
 39 67  2  0  0  0
 40 52  1  0  0  0
 40 53  2  0  0  0
 40 58  1  0  0  0
 41109  1  0  0  0
 41110  1  0  0  0
 41111  1  0  0  0
 41 48  1  0  0  0
 42 43  1  0  0  0
 42 66  1  0  0  0
 42112  1  0  0  0
 42113  1  0  0  0
 43 44  1  0  0  0
 44114  1  0  0  0
 45 46  2  0  0  0
 45115  1  0  0  0
 46116  1  0  0  0
 47117  1  0  0  0
 47118  1  0  0  0
 48 56  1  0  0  0
 48 65  1  0  0  0
 48119  1  0  0  0
 49 50  1  0  0  0
 49 53  1  0  0  0
 49 64  1  0  0  0
 49120  1  0  0  0
 50 51  1  0  0  0
 50121  1  0  0  0
 50122  1  0  0  0
 51 52  1  0  0  0
 51123  1  0  0  0
 51124  1  0  0  0
 52125  1  0  0  0
 52126  1  0  0  0
 53 54  1  0  0  0
 54 55  2  0  0  0
 54127  1  0  0  0
 55 57  1  0  0  0
 55128  1  0  0  0
 56 69  2  0  0  0
 57 58  2  0  0  0
 57129  1  0  0  0
 58130  1  0  0  0
 59 60  1  0  0  0
 59 61  1  0  0  0
 59 62  1  0  0  0
 60131  1  0  0  0
 60132  1  0  0  0
 60133  1  0  0  0
 61134  1  0  0  0
 61135  1  0  0  0
 61136  1  0  0  0
 62137  1  0  0  0
 62138  1  0  0  0
 62139  1  0  0  0
 63 65  1  0  0  0
 63140  1  0  0  0
 63141  1  0  0  0
 63142  1  0  0  0
 64143  1  0  0  0
 65144  1  0  0  0
 68 79  1  0  0  0
 71 78  1  0  0  0
 71 80  2  0  0  0
 71 81  1  0  0  0
 72 79  1  0  0  0
 72 80  1  0  0  0
 72 82  2  0  0  0
 73 81  2  0  0  0
 73 82  1  0  0  0
 73 83  1  0  0  0
 74 76  1  0  0  0
 74 83  1  0  0  0
 74145  1  0  0  0
 74146  1  0  0  0
 75 77  1  0  0  0
 75 83  1  0  0  0
 75147  1  0  0  0
 75148  1  0  0  0
 76 77  1  0  0  0
 76 84  1  0  0  0
 76149  1  0  0  0
 77 85  1  0  0  0
 77150  1  0  0  0
 78151  1  0  0  0
 78152  1  0  0  0
 78153  1  0  0  0
 79154  1  0  0  0
 79155  1  0  0  0
 84156  1  0  0  0
 85157  1  0  0  0
 85158  1  0  0  0
 85159  1  0  0  0
M  CHG  1  85   1
M  ISO  4   1 100  68 101  79 101  84 100
M  END
> <chiral flag>
0

> <version>
0

> <s_m_source_file>
/data/baiqing/PycharmProjects/Reinvent-master-3.2/result/LINK_invent/BTK/process_docking_weight1_custom_sum_contain_oxygen_bond_distance_aromatic_linkinvent_7_9_3/rearranged_h_0187.sdf

> <i_m_source_file_index>
95

> <r_mmod_Potential_Energy-OPLS-2005>
-852.009460449219

> <r_mmod_Stretch_Energy-OPLS-2005>
142.932022094727

> <r_mmod_Bend_Energy-OPLS-2005>
208.396499633789

> <r_mmod_Torsional_Energy-OPLS-2005>
287.764495849609

> <r_mmod_Improper_Torsional_Energy-OPLS-2005>
7.57298803329468

> <r_mmod_Van_der_Waal_Energy-OPLS-2005>
152.025024414062

> <r_mmod_Electrostatic_Energy-OPLS-2005>
-1212.37817382812

> <r_mmod_Solvation_Energy-OPLS-2005>
-555.187133789062

> <b_mmod_Minimization_Converged-OPLS-2005>
0

> <r_mmod_RMS_Derivative-OPLS-2005>
1.27839469909668

$$$$
95
                    3D
 Structure written by MMmdl.
176186  0  0  1  0            999 V2000
  -30.7091  -14.7240   20.4253 C   0  0  0  0  0  0
  -30.4149  -12.4582   19.4483 C   0  0  0  0  0  0
  -29.4954  -12.4895   18.2121 C   0  0  0  0  0  0
  -28.0245  -12.3139   18.6366 C   0  0  0  0  0  0
  -27.6317  -13.2202   19.8344 C   0  0  2  0  0  0
  -28.6947  -13.1953   20.9592 C   0  0  0  0  0  0
  -25.2492  -13.8147   20.5690 C   0  0  0  0  0  0
  -24.1793  -13.0416   20.9237 C   0  0  0  0  0  0
  -24.6370  -11.6885   20.8763 C   0  0  0  0  0  0
  -23.9036  -10.4279   21.0445 C   0  0  0  0  0  0
  -24.3589   -9.4194   21.9221 C   0  0  0  0  0  0
  -23.6284   -8.2219   22.0764 C   0  0  0  0  0  0
  -22.4274   -8.0264   21.3548 C   0  0  0  0  0  0
  -21.9902   -9.0234   20.4653 C   0  0  0  0  0  0
  -22.7217  -10.2126   20.3077 C   0  0  0  0  0  0
  -21.6845   -6.0730   22.5279 C   0  0  0  0  0  0
  -21.4010   -6.5636   23.8212 C   0  0  0  0  0  0
  -21.3649   -5.6784   24.9169 C   0  0  0  0  0  0
  -21.6040   -4.3047   24.7229 C   0  0  0  0  0  0
  -21.8810   -3.8141   23.4352 C   0  0  0  0  0  0
  -21.9189   -4.6957   22.3407 C   0  0  0  0  0  0
  -22.7816  -13.5234   21.1859 C   0  0  0  0  0  0
  -22.1669   -4.2153   21.0984 F   0  0  0  0  0  0
  -21.5631   -3.4528   25.7742 F   0  0  0  0  0  0
  -29.9736  -13.5594   20.3380 N   0  0  0  0  0  0
  -26.2900  -12.9329   20.3262 N   0  0  0  0  0  0
  -25.9285  -11.6480   20.5729 N   0  0  0  0  0  0
  -22.0405  -12.8266   22.0405 N   0  0  0  0  0  0
  -25.4085  -15.1874   20.4083 N   0  0  0  0  0  0
  -31.9247  -14.6371   20.2443 O   0  0  0  0  0  0
  -21.6637   -6.8874   21.4246 O   0  0  0  0  0  0
  -22.3529  -14.5544   20.6675 O   0  0  0  0  0  0
  -24.6267  -31.8614   23.2009 C   0  0  0  0  0  0
  -25.9112  -32.4781   23.8347 C   0  0  1  0  0  0
  -27.1996  -27.2863   20.0871 C   0  0  0  0  0  0
  -25.5903  -33.8570   24.2262 N   0  0  0  0  0  0
  -23.4220  -30.4908   21.5432 C   0  0  2  0  0  0
  -24.8608  -28.9462   20.1088 C   0  0  0  0  0  0
  -22.7493  -29.4656   22.4877 C   0  0  0  0  0  0
  -18.0289  -28.1443   22.8502 C   0  0  0  0  0  0
  -24.1480  -36.7302   23.2639 C   0  0  0  0  0  0
  -25.9693  -30.7725   21.3845 C   0  0  0  0  0  0
  -26.0335  -29.3992   20.7226 C   0  0  0  0  0  0
  -27.2051  -28.5767   20.7133 C   0  0  0  0  0  0
  -26.0038  -26.9061   19.4382 C   0  0  0  0  0  0
  -24.8458  -27.7034   19.4625 C   0  0  0  0  0  0
  -23.6390  -29.8395   20.1547 C   0  0  0  0  0  0
  -25.4108  -36.3079   24.0322 C   0  0  1  0  0  0
  -20.5906  -28.3735   23.1266 C   0  0  2  0  0  0
  -20.6805  -26.9458   22.5404 C   0  0  0  0  0  0
  -19.5764  -26.6430   21.5228 C   0  0  0  0  0  0
  -18.1940  -26.7990   22.1641 C   0  0  0  0  0  0
  -19.1553  -28.8902   23.2887 C   0  0  0  0  0  0
  -18.9475  -30.1502   23.8903 C   0  0  0  0  0  0
  -17.6475  -30.6627   24.0597 C   0  0  0  0  0  0
  -25.9061  -34.9456   23.5096 C   0  0  0  0  0  0
  -16.5368  -29.9137   23.6352 C   0  0  0  0  0  0
  -16.7275  -28.6574   23.0346 C   0  0  0  0  0  0
  -26.4473  -31.6577   25.0731 C   0  0  0  0  0  0
  -25.3707  -31.3722   26.1466 C   0  0  0  0  0  0
  -27.0312  -30.2976   24.6223 C   0  0  0  0  0  0
  -27.6044  -32.4305   25.7515 C   0  0  0  0  0  0
  -27.5578  -37.1828   24.8464 C   0  0  0  0  0  0
  -21.4201  -29.3088   22.3649 N   0  0  0  0  0  0
  -26.4285  -37.3770   23.9403 N   0  0  0  0  0  0
  -24.6916  -31.0594   22.0983 N   0  0  0  0  0  0
  -23.4190  -28.8159   23.2933 O   0  0  0  0  0  0
  -28.3143  -26.4231   20.1259 O   0  0  0  0  0  0
  -26.5636  -34.8894   22.4676 O   0  0  0  0  0  0
  -23.5434  -32.1449   23.7307 O   0  0  0  0  0  0
  -29.6604  -22.1937   22.6319 C   0  0  0  0  0  0
  -29.5267  -23.5866   22.8308 C   0  0  0  0  0  0
  -29.2138  -21.6846   21.3917 C   0  0  0  0  0  0
  -28.7762  -23.8934   20.6922 C   0  0  0  0  0  0
  -31.5265  -21.5879   24.3911 C   0  0  0  0  0  0
  -31.3838  -20.3850   23.5010 C   0  0  0  0  0  0
  -28.4119  -17.8801   20.9488 C   0  0  0  0  0  0
  -30.7161  -18.5506   20.6639 C   0  0  0  0  0  0
  -28.7287  -16.4596   20.3439 C   0  0  0  0  0  0
  -30.9826  -17.1796   19.9516 C   0  0  0  0  0  0
  -30.1945  -21.2966   23.7286 C   0  0  0  0  0  0
  -29.2781  -19.1021   20.5034 C   0  0  0  0  0  0
  -30.7255  -25.3186   24.2282 C   0  0  0  0  0  0
  -27.9586  -25.4944   25.6840 C   0  0  0  0  0  0
  -28.2299  -24.9817   19.7039 C   0  0  0  0  0  0
  -29.5887  -24.2761   24.1886 C   0  0  1  0  0  0
  -29.1036  -24.4067   21.8636 N   0  0  0  0  0  0
  -28.7794  -22.5508   20.4195 N   0  0  0  0  0  0
  -30.1452  -16.0137   20.3892 N   0  0  0  0  0  0
  -28.9637  -20.2710   21.3845 N   0  0  0  0  0  0
  -28.2514  -24.8819   24.3750 N   0  3  0  0  0  0
  -31.4544  -12.5553   19.1304 H   0  0  0  0  0  0
  -30.3592  -11.4970   19.9605 H   0  0  0  0  0  0
  -29.7796  -11.7066   17.5066 H   0  0  0  0  0  0
  -29.6220  -13.4358   17.6837 H   0  0  0  0  0  0
  -27.8827  -11.2662   18.9032 H   0  0  0  0  0  0
  -27.3649  -12.5043   17.7886 H   0  0  0  0  0  0
  -27.6025  -14.2209   19.4119 H   0  0  0  0  0  0
  -28.7600  -12.2093   21.4215 H   0  0  0  0  0  0
  -28.4421  -13.8778   21.7694 H   0  0  0  0  0  0
  -25.2733   -9.5692   22.4796 H   0  0  0  0  0  0
  -23.9996   -7.4613   22.7485 H   0  0  0  0  0  0
  -21.0824   -8.8751   19.8969 H   0  0  0  0  0  0
  -22.3678  -10.9660   19.6176 H   0  0  0  0  0  0
  -21.1999   -7.6139   23.9726 H   0  0  0  0  0  0
  -21.1484   -6.0510   25.9078 H   0  0  0  0  0  0
  -22.0602   -2.7605   23.2843 H   0  0  0  0  0  0
  -22.3976  -11.9957   22.4875 H   0  0  0  0  0  0
  -21.0991  -13.1315   22.2478 H   0  0  0  0  0  0
  -24.6373  -15.8311   20.5477 H   0  0  0  0  0  0
  -26.2455  -15.6428   20.0706 H   0  0  0  0  0  0
  -26.7198  -32.5413   23.1111 H   0  0  0  0  0  0
  -24.9981  -33.9692   25.0353 H   0  0  0  0  0  0
  -22.7165  -31.3117   21.4055 H   0  0  0  0  0  0
  -23.3715  -35.9666   23.3314 H   0  0  0  0  0  0
  -24.3578  -36.8896   22.2052 H   0  0  0  0  0  0
  -23.7261  -37.6516   23.6663 H   0  0  0  0  0  0
  -26.1160  -31.5320   20.6152 H   0  0  0  0  0  0
  -26.8475  -30.8133   22.0179 H   0  0  0  0  0  0
  -28.1018  -28.9177   21.2122 H   0  0  0  0  0  0
  -25.9098  -25.9921   18.8801 H   0  0  0  0  0  0
  -23.9505  -27.3587   18.9618 H   0  0  0  0  0  0
  -23.7756  -30.6254   19.4093 H   0  0  0  0  0  0
  -22.7542  -29.2851   19.8408 H   0  0  0  0  0  0
  -25.1303  -36.1938   25.0817 H   0  0  0  0  0  0
  -21.0030  -28.3346   24.1375 H   0  0  0  0  0  0
  -20.5757  -26.2352   23.3613 H   0  0  0  0  0  0
  -21.6669  -26.7527   22.1187 H   0  0  0  0  0  0
  -19.6902  -25.6334   21.1272 H   0  0  0  0  0  0
  -19.6706  -27.3251   20.6767 H   0  0  0  0  0  0
  -17.4232  -26.6749   21.4027 H   0  0  0  0  0  0
  -18.0317  -26.0145   22.9047 H   0  0  0  0  0  0
  -19.7931  -30.7362   24.2261 H   0  0  0  0  0  0
  -17.5010  -31.6296   24.5229 H   0  0  0  0  0  0
  -15.5366  -30.3052   23.7665 H   0  0  0  0  0  0
  -15.8684  -28.0911   22.7024 H   0  0  0  0  0  0
  -24.5886  -30.7057   25.7807 H   0  0  0  0  0  0
  -24.8894  -32.2885   26.4893 H   0  0  0  0  0  0
  -25.8026  -30.8914   27.0253 H   0  0  0  0  0  0
  -26.2896  -29.6735   24.1239 H   0  0  0  0  0  0
  -27.3955  -29.7209   25.4733 H   0  0  0  0  0  0
  -27.8786  -30.4195   23.9480 H   0  0  0  0  0  0
  -27.2678  -33.3602   26.2107 H   0  0  0  0  0  0
  -28.3874  -32.6872   25.0374 H   0  0  0  0  0  0
  -28.0722  -31.8440   26.5428 H   0  0  0  0  0  0
  -28.2630  -38.0095   24.7504 H   0  0  0  0  0  0
  -28.1042  -36.2635   24.6327 H   0  0  0  0  0  0
  -27.2313  -37.1538   25.8869 H   0  0  0  0  0  0
  -20.9351  -29.8817   21.6905 H   0  0  0  0  0  0
  -26.0149  -38.2839   24.1372 H   0  0  0  0  0  0
  -32.1316  -22.4071   24.0056 H   0  0  0  0  0  0
  -31.6339  -21.3832   25.4544 H   0  0  0  0  0  0
  -31.3849  -19.4132   23.9905 H   0  0  0  0  0  0
  -31.9029  -20.4254   22.5449 H   0  0  0  0  0  0
  -28.4973  -17.7796   22.0336 H   0  0  0  0  0  0
  -27.3614  -18.1062   20.7610 H   0  0  0  0  0  0
  -31.4281  -19.2925   20.2997 H   0  0  0  0  0  0
  -30.9397  -18.4119   21.7197 H   0  0  0  0  0  0
  -28.4035  -16.4400   19.3013 H   0  0  0  0  0  0
  -28.0968  -15.7688   20.8866 H   0  0  0  0  0  0
  -32.0482  -16.9818   20.0647 H   0  0  0  0  0  0
  -30.8319  -17.3047   18.8772 H   0  0  0  0  0  0
  -29.3916  -20.9212   24.3617 H   0  0  0  0  0  0
  -29.0794  -19.3538   19.4602 H   0  0  0  0  0  0
  -31.6886  -24.8447   24.0381 H   0  0  0  0  0  0
  -30.7900  -25.8167   25.1937 H   0  0  0  0  0  0
  -30.5913  -26.0877   23.4652 H   0  0  0  0  0  0
  -26.8965  -25.7374   25.7526 H   0  0  0  0  0  0
  -28.5184  -26.4206   25.8184 H   0  0  0  0  0  0
  -28.2004  -24.8168   26.5039 H   0  0  0  0  0  0
  -27.2202  -24.6369   19.5092 H   0  0  0  0  0  0
  -28.7715  -24.8702   18.7652 H   0  0  0  0  0  0
  -29.7372  -23.5448   24.9827 H   0  0  0  0  0  0
  -29.0556  -19.9652   22.3440 H   0  0  0  0  0  0
  -28.1473  -25.5407   23.6178 H   0  0  0  0  0  0
  -27.5854  -24.1470   24.1964 H   0  0  0  0  0  0
  1 25  1  0  0  0
  1 30  2  0  0  0
  1 89  1  0  0  0
  2  3  1  0  0  0
  2 25  1  0  0  0
  2 92  1  0  0  0
  2 93  1  0  0  0
  3  4  1  0  0  0
  3 94  1  0  0  0
  3 95  1  0  0  0
  4  5  1  0  0  0
  4 96  1  0  0  0
  4 97  1  0  0  0
  5  6  1  0  0  0
  5 26  1  0  0  0
  5 98  1  0  0  0
  6 25  1  0  0  0
  6 99  1  0  0  0
  6100  1  0  0  0
  7  8  2  0  0  0
  7 26  1  0  0  0
  7 29  1  0  0  0
  8  9  1  0  0  0
  8 22  1  0  0  0
  9 10  1  0  0  0
  9 27  2  0  0  0
 10 11  2  0  0  0
 10 15  1  0  0  0
 11 12  1  0  0  0
 11101  1  0  0  0
 12 13  2  0  0  0
 12102  1  0  0  0
 13 14  1  0  0  0
 13 31  1  0  0  0
 14 15  2  0  0  0
 14103  1  0  0  0
 15104  1  0  0  0
 16 17  2  0  0  0
 16 21  1  0  0  0
 16 31  1  0  0  0
 17 18  1  0  0  0
 17105  1  0  0  0
 18 19  2  0  0  0
 18106  1  0  0  0
 19 20  1  0  0  0
 19 24  1  0  0  0
 20 21  2  0  0  0
 20107  1  0  0  0
 21 23  1  0  0  0
 22 28  1  0  0  0
 22 32  2  0  0  0
 26 27  1  0  0  0
 28108  1  0  0  0
 28109  1  0  0  0
 29110  1  0  0  0
 29111  1  0  0  0
 33 34  1  0  0  0
 33 66  1  0  0  0
 33 70  2  0  0  0
 34 36  1  0  0  0
 34 59  1  0  0  0
 34112  1  0  0  0
 35 44  2  0  0  0
 35 45  1  0  0  0
 35 68  1  0  0  0
 36 56  1  0  0  0
 36113  1  0  0  0
 37 39  1  0  0  0
 37 47  1  0  0  0
 37 66  1  0  0  0
 37114  1  0  0  0
 38 43  2  0  0  0
 38 46  1  0  0  0
 38 47  1  0  0  0
 39 64  1  0  0  0
 39 67  2  0  0  0
 40 52  1  0  0  0
 40 53  2  0  0  0
 40 58  1  0  0  0
 41115  1  0  0  0
 41116  1  0  0  0
 41117  1  0  0  0
 41 48  1  0  0  0
 42 43  1  0  0  0
 42 66  1  0  0  0
 42118  1  0  0  0
 42119  1  0  0  0
 43 44  1  0  0  0
 44120  1  0  0  0
 45 46  2  0  0  0
 45121  1  0  0  0
 46122  1  0  0  0
 47123  1  0  0  0
 47124  1  0  0  0
 48 56  1  0  0  0
 48 65  1  0  0  0
 48125  1  0  0  0
 49 50  1  0  0  0
 49 53  1  0  0  0
 49 64  1  0  0  0
 49126  1  0  0  0
 50 51  1  0  0  0
 50127  1  0  0  0
 50128  1  0  0  0
 51 52  1  0  0  0
 51129  1  0  0  0
 51130  1  0  0  0
 52131  1  0  0  0
 52132  1  0  0  0
 53 54  1  0  0  0
 54 55  2  0  0  0
 54133  1  0  0  0
 55 57  1  0  0  0
 55134  1  0  0  0
 56 69  2  0  0  0
 57 58  2  0  0  0
 57135  1  0  0  0
 58136  1  0  0  0
 59 60  1  0  0  0
 59 61  1  0  0  0
 59 62  1  0  0  0
 60137  1  0  0  0
 60138  1  0  0  0
 60139  1  0  0  0
 61140  1  0  0  0
 61141  1  0  0  0
 61142  1  0  0  0
 62143  1  0  0  0
 62144  1  0  0  0
 62145  1  0  0  0
 63 65  1  0  0  0
 63146  1  0  0  0
 63147  1  0  0  0
 63148  1  0  0  0
 64149  1  0  0  0
 65150  1  0  0  0
 68 85  1  0  0  0
 71 72  2  0  0  0
 71 73  1  0  0  0
 71 81  1  0  0  0
 72 86  1  0  0  0
 72 87  1  0  0  0
 73 88  2  0  0  0
 73 90  1  0  0  0
 74 85  1  0  0  0
 74 87  2  0  0  0
 74 88  1  0  0  0
 75 76  1  0  0  0
 75 81  1  0  0  0
 75151  1  0  0  0
 75152  1  0  0  0
 76 81  1  0  0  0
 76153  1  0  0  0
 76154  1  0  0  0
 77 79  1  0  0  0
 77 82  1  0  0  0
 77155  1  0  0  0
 77156  1  0  0  0
 78 80  1  0  0  0
 78 82  1  0  0  0
 78157  1  0  0  0
 78158  1  0  0  0
 79 89  1  0  0  0
 79159  1  0  0  0
 79160  1  0  0  0
 80 89  1  0  0  0
 80161  1  0  0  0
 80162  1  0  0  0
 81163  1  0  0  0
 82 90  1  0  0  0
 82164  1  0  0  0
 83165  1  0  0  0
 83166  1  0  0  0
 83167  1  0  0  0
 83 86  1  0  0  0
 84 91  1  0  0  0
 84168  1  0  0  0
 84169  1  0  0  0
 84170  1  0  0  0
 85171  1  0  0  0
 85172  1  0  0  0
 86 91  1  0  0  0
 86173  1  0  0  0
 90174  1  0  0  0
 91175  1  0  0  0
 91176  1  0  0  0
M  CHG  1  91   1
M  ISO  4   1 100  68 101  85 101  89 100
M  END
> <chiral flag>
0

> <version>
0

> <s_m_source_file>
/data/baiqing/PycharmProjects/Reinvent-master-3.2/result/LINK_invent/BTK/process_docking_weight1_custom_sum_contain_oxygen_bond_distance_aromatic_linkinvent_7_9_3/rearranged_h_0187.sdf

> <i_m_source_file_index>
96

> <r_mmod_Potential_Energy-OPLS-2005>
-300.244171142578

> <r_mmod_Stretch_Energy-OPLS-2005>
96.7162628173828

> <r_mmod_Bend_Energy-OPLS-2005>
254.199172973633

> <r_mmod_Torsional_Energy-OPLS-2005>
343.961578369141

> <r_mmod_Improper_Torsional_Energy-OPLS-2005>
15.8411140441895

> <r_mmod_Van_der_Waal_Energy-OPLS-2005>
167.871765136719

> <r_mmod_Electrostatic_Energy-OPLS-2005>
-809.823364257812

> <r_mmod_Solvation_Energy-OPLS-2005>
-453.241119384766

> <b_mmod_Minimization_Converged-OPLS-2005>
0

> <r_mmod_RMS_Derivative-OPLS-2005>
4.39920902252197

$$$$
96
                    3D
 Structure written by MMmdl.
157166  0  0  1  0            999 V2000
  -30.6044  -14.8712   20.4383 C   0  0  0  0  0  0
  -30.4163  -12.5339   19.4992 C   0  0  0  0  0  0
  -29.5150  -12.5235   18.2467 C   0  0  0  0  0  0
  -28.0390  -12.3440   18.6498 C   0  0  0  0  0  0
  -27.6273  -13.2564   19.8382 C   0  0  2  0  0  0
  -28.6682  -13.2622   20.9766 C   0  0  0  0  0  0
  -25.2437  -13.8234   20.5689 C   0  0  0  0  0  0
  -24.1757  -13.0441   20.9207 C   0  0  0  0  0  0
  -24.6392  -11.6937   20.8731 C   0  0  0  0  0  0
  -23.9075  -10.4295   21.0379 C   0  0  0  0  0  0
  -24.3623   -9.4212   21.9163 C   0  0  0  0  0  0
  -23.6302   -8.2247   22.0747 C   0  0  0  0  0  0
  -22.4281   -8.0278   21.3543 C   0  0  0  0  0  0
  -21.9909   -9.0252   20.4649 C   0  0  0  0  0  0
  -22.7237  -10.2131   20.3036 C   0  0  0  0  0  0
  -21.6871   -6.0724   22.5281 C   0  0  0  0  0  0
  -21.4037   -6.5631   23.8215 C   0  0  0  0  0  0
  -21.3658   -5.6783   24.9178 C   0  0  0  0  0  0
  -21.6040   -4.3044   24.7226 C   0  0  0  0  0  0
  -21.8823   -3.8134   23.4350 C   0  0  0  0  0  0
  -21.9202   -4.6953   22.3404 C   0  0  0  0  0  0
  -22.7777  -13.5212   21.1877 C   0  0  0  0  0  0
  -22.1668   -4.2138   21.0983 F   0  0  0  0  0  0
  -21.5618   -3.4524   25.7734 F   0  0  0  0  0  0
  -29.9498  -13.6459   20.3760 N   0  0  0  0  0  0
  -26.2872  -12.9491   20.3233 N   0  0  0  0  0  0
  -25.9328  -11.6612   20.5715 N   0  0  0  0  0  0
  -22.0434  -12.8204   22.0445 N   0  0  0  0  0  0
  -25.4080  -15.1951   20.4083 N   0  0  0  0  0  0
  -31.8076  -14.8672   20.1512 O   0  0  0  0  0  0
  -21.6662   -6.8861   21.4234 O   0  0  0  0  0  0
  -22.3446  -14.5507   20.6722 O   0  0  0  0  0  0
  -24.6406  -31.8451   23.1906 C   0  0  0  0  0  0
  -25.9195  -32.4713   23.8276 C   0  0  1  0  0  0
  -27.2207  -27.1661   20.1413 C   0  0  0  0  0  0
  -25.5958  -33.8523   24.2177 N   0  0  0  0  0  0
  -23.4430  -30.4660   21.5338 C   0  0  2  0  0  0
  -24.8893  -28.8950   20.1048 C   0  0  0  0  0  0
  -22.7542  -29.4563   22.4849 C   0  0  0  0  0  0
  -18.0308  -28.1422   22.8467 C   0  0  0  0  0  0
  -24.1473  -36.7255   23.2643 C   0  0  0  0  0  0
  -25.9954  -30.7254   21.3860 C   0  0  0  0  0  0
  -26.0619  -29.3406   20.7252 C   0  0  0  0  0  0
  -27.2240  -28.4898   20.7311 C   0  0  0  0  0  0
  -26.0197  -26.8055   19.4923 C   0  0  0  0  0  0
  -24.8783  -27.6389   19.4767 C   0  0  0  0  0  0
  -23.6654  -29.7964   20.1512 C   0  0  0  0  0  0
  -25.4114  -36.3037   24.0299 C   0  0  1  0  0  0
  -20.5915  -28.3740   23.1229 C   0  0  2  0  0  0
  -20.6787  -26.9440   22.5409 C   0  0  0  0  0  0
  -19.5769  -26.6400   21.5211 C   0  0  0  0  0  0
  -18.1948  -26.7970   22.1611 C   0  0  0  0  0  0
  -19.1564  -28.8902   23.2846 C   0  0  0  0  0  0
  -18.9480  -30.1500   23.8873 C   0  0  0  0  0  0
  -17.6477  -30.6613   24.0579 C   0  0  0  0  0  0
  -25.9061  -34.9416   23.5032 C   0  0  0  0  0  0
  -16.5367  -29.9103   23.6368 C   0  0  0  0  0  0
  -16.7294  -28.6532   23.0359 C   0  0  0  0  0  0
  -26.4507  -31.6630   25.0755 C   0  0  0  0  0  0
  -25.3684  -31.3862   26.1455 C   0  0  0  0  0  0
  -27.0394  -30.3040   24.6372 C   0  0  0  0  0  0
  -27.6020  -32.4418   25.7550 C   0  0  0  0  0  0
  -27.5562  -37.1789   24.8453 C   0  0  0  0  0  0
  -21.4240  -29.3059   22.3589 N   0  0  0  0  0  0
  -26.4269  -37.3764   23.9409 N   0  0  0  0  0  0
  -24.7123  -31.0337   22.0919 N   0  0  0  0  0  0
  -23.4193  -28.8101   23.2990 O   0  0  0  0  0  0
  -28.2997  -26.2270   20.2579 O   0  0  0  0  0  0
  -26.5646  -34.8911   22.4611 O   0  0  0  0  0  0
  -23.5540  -32.1307   23.7162 O   0  0  0  0  0  0
  -31.0457  -21.0440   21.4220 C   0  0  0  0  0  0
  -30.3784  -23.0630   21.2832 C   0  0  0  0  0  0
  -29.8259  -20.9536   20.7760 C   0  0  0  0  0  0
  -30.3524  -18.6328   19.4991 C   0  0  0  0  0  0
  -29.2329  -18.4048   21.5902 C   0  0  0  0  0  0
  -30.1023  -17.0785   19.2039 C   0  0  0  0  0  0
  -29.0242  -16.8174   21.3279 C   0  0  0  0  0  0
  -29.3330  -19.4527   20.3894 C   0  0  0  0  0  0
  -28.2080  -23.2656   20.1943 C   0  0  0  0  0  0
  -28.3970  -24.8316   19.6064 C   0  0  0  0  0  0
  -31.3877  -22.3468   21.7414 N   0  0  0  0  0  0
  -29.3933  -22.3892   20.6673 N   0  0  0  0  0  0
  -29.9041  -16.1104   20.3375 N   0  0  0  0  0  0
  -31.4631  -12.6351   19.2066 H   0  0  0  0  0  0
  -30.3496  -11.5786   20.0231 H   0  0  0  0  0  0
  -29.8191  -11.7246   17.5684 H   0  0  0  0  0  0
  -29.6372  -13.4572   17.6963 H   0  0  0  0  0  0
  -27.8996  -11.2975   18.9198 H   0  0  0  0  0  0
  -27.3877  -12.5207   17.7925 H   0  0  0  0  0  0
  -27.5992  -14.2695   19.4357 H   0  0  0  0  0  0
  -28.7318  -12.2836   21.4572 H   0  0  0  0  0  0
  -28.3794  -13.9687   21.7550 H   0  0  0  0  0  0
  -25.2762   -9.5716   22.4735 H   0  0  0  0  0  0
  -24.0029   -7.4645   22.7464 H   0  0  0  0  0  0
  -21.0839   -8.8764   19.8961 H   0  0  0  0  0  0
  -22.3681  -10.9664   19.6144 H   0  0  0  0  0  0
  -21.2057   -7.6145   23.9722 H   0  0  0  0  0  0
  -21.1467   -6.0510   25.9081 H   0  0  0  0  0  0
  -22.0604   -2.7596   23.2857 H   0  0  0  0  0  0
  -22.4082  -11.9904   22.4875 H   0  0  0  0  0  0
  -21.1040  -13.1205   22.2628 H   0  0  0  0  0  0
  -24.6363  -15.8447   20.5140 H   0  0  0  0  0  0
  -26.2517  -15.6323   20.0602 H   0  0  0  0  0  0
  -26.7265  -32.5299   23.1007 H   0  0  0  0  0  0
  -25.0136  -33.9647   25.0347 H   0  0  0  0  0  0
  -22.7469  -31.2936   21.3838 H   0  0  0  0  0  0
  -23.3744  -35.9580   23.3297 H   0  0  0  0  0  0
  -24.3546  -36.8903   22.2061 H   0  0  0  0  0  0
  -23.7224  -37.6441   23.6692 H   0  0  0  0  0  0
  -26.1570  -31.4823   20.6180 H   0  0  0  0  0  0
  -26.8638  -30.7681   22.0320 H   0  0  0  0  0  0
  -28.1129  -28.8275   21.2448 H   0  0  0  0  0  0
  -25.9178  -25.8346   19.0321 H   0  0  0  0  0  0
  -23.9774  -27.2860   18.9931 H   0  0  0  0  0  0
  -23.8024  -30.5737   19.3980 H   0  0  0  0  0  0
  -22.7792  -29.2394   19.8408 H   0  0  0  0  0  0
  -25.1314  -36.1850   25.0794 H   0  0  0  0  0  0
  -21.0031  -28.3343   24.1342 H   0  0  0  0  0  0
  -20.5688  -26.2349   23.3627 H   0  0  0  0  0  0
  -21.6648  -26.7451   22.1201 H   0  0  0  0  0  0
  -19.6915  -25.6300   21.1269 H   0  0  0  0  0  0
  -19.6727  -27.3183   20.6719 H   0  0  0  0  0  0
  -17.4220  -26.6735   21.4011 H   0  0  0  0  0  0
  -18.0332  -26.0129   22.9021 H   0  0  0  0  0  0
  -19.7952  -30.7335   24.2221 H   0  0  0  0  0  0
  -17.5032  -31.6297   24.5178 H   0  0  0  0  0  0
  -15.5368  -30.2992   23.7737 H   0  0  0  0  0  0
  -15.8690  -28.0863   22.7069 H   0  0  0  0  0  0
  -24.5798  -30.7287   25.7781 H   0  0  0  0  0  0
  -24.8955  -32.3081   26.4865 H   0  0  0  0  0  0
  -25.7945  -30.9028   27.0256 H   0  0  0  0  0  0
  -26.3048  -29.6782   24.1306 H   0  0  0  0  0  0
  -27.3920  -29.7347   25.4982 H   0  0  0  0  0  0
  -27.8975  -30.4302   23.9766 H   0  0  0  0  0  0
  -27.2583  -33.3723   26.2089 H   0  0  0  0  0  0
  -28.3865  -32.7000   25.0418 H   0  0  0  0  0  0
  -28.0658  -31.8595   26.5522 H   0  0  0  0  0  0
  -28.2573  -38.0094   24.7529 H   0  0  0  0  0  0
  -28.1066  -36.2635   24.6243 H   0  0  0  0  0  0
  -27.2281  -37.1383   25.8854 H   0  0  0  0  0  0
  -20.9436  -29.8772   21.6775 H   0  0  0  0  0  0
  -26.0118  -38.2813   24.1476 H   0  0  0  0  0  0
  -31.7128  -20.2407   21.7053 H   0  0  0  0  0  0
  -30.3492  -24.1372   21.4158 H   0  0  0  0  0  0
  -30.4547  -19.1407   18.5396 H   0  0  0  0  0  0
  -31.3413  -18.6983   19.9543 H   0  0  0  0  0  0
  -30.1519  -18.4854   22.1727 H   0  0  0  0  0  0
  -28.4525  -18.7442   22.2730 H   0  0  0  0  0  0
  -30.9198  -16.7217   18.5737 H   0  0  0  0  0  0
  -29.2146  -16.9994   18.5759 H   0  0  0  0  0  0
  -27.9957  -16.6658   20.9975 H   0  0  0  0  0  0
  -29.0994  -16.2957   22.2833 H   0  0  0  0  0  0
  -28.3724  -19.5068   19.8747 H   0  0  0  0  0  0
  -27.7394  -22.6874   19.3965 H   0  0  0  0  0  0
  -27.4685  -23.2774   20.9942 H   0  0  0  0  0  0
  -27.7832  -24.8746   18.7082 H   0  0  0  0  0  0
  -29.3982  -24.8395   19.1752 H   0  0  0  0  0  0
  1 25  1  0  0  0
  1 30  2  0  0  0
  1 83  1  0  0  0
  2  3  1  0  0  0
  2 25  1  0  0  0
  2 84  1  0  0  0
  2 85  1  0  0  0
  3  4  1  0  0  0
  3 86  1  0  0  0
  3 87  1  0  0  0
  4  5  1  0  0  0
  4 88  1  0  0  0
  4 89  1  0  0  0
  5  6  1  0  0  0
  5 26  1  0  0  0
  5 90  1  0  0  0
  6 25  1  0  0  0
  6 91  1  0  0  0
  6 92  1  0  0  0
  7  8  2  0  0  0
  7 26  1  0  0  0
  7 29  1  0  0  0
  8  9  1  0  0  0
  8 22  1  0  0  0
  9 10  1  0  0  0
  9 27  2  0  0  0
 10 11  2  0  0  0
 10 15  1  0  0  0
 11 12  1  0  0  0
 11 93  1  0  0  0
 12 13  2  0  0  0
 12 94  1  0  0  0
 13 14  1  0  0  0
 13 31  1  0  0  0
 14 15  2  0  0  0
 14 95  1  0  0  0
 15 96  1  0  0  0
 16 17  2  0  0  0
 16 21  1  0  0  0
 16 31  1  0  0  0
 17 18  1  0  0  0
 17 97  1  0  0  0
 18 19  2  0  0  0
 18 98  1  0  0  0
 19 20  1  0  0  0
 19 24  1  0  0  0
 20 21  2  0  0  0
 20 99  1  0  0  0
 21 23  1  0  0  0
 22 28  1  0  0  0
 22 32  2  0  0  0
 26 27  1  0  0  0
 28100  1  0  0  0
 28101  1  0  0  0
 29102  1  0  0  0
 29103  1  0  0  0
 33 34  1  0  0  0
 33 66  1  0  0  0
 33 70  2  0  0  0
 34 36  1  0  0  0
 34 59  1  0  0  0
 34104  1  0  0  0
 35 44  2  0  0  0
 35 45  1  0  0  0
 35 68  1  0  0  0
 36 56  1  0  0  0
 36105  1  0  0  0
 37 39  1  0  0  0
 37 47  1  0  0  0
 37 66  1  0  0  0
 37106  1  0  0  0
 38 43  2  0  0  0
 38 46  1  0  0  0
 38 47  1  0  0  0
 39 64  1  0  0  0
 39 67  2  0  0  0
 40 52  1  0  0  0
 40 53  2  0  0  0
 40 58  1  0  0  0
 41107  1  0  0  0
 41108  1  0  0  0
 41109  1  0  0  0
 41 48  1  0  0  0
 42 43  1  0  0  0
 42 66  1  0  0  0
 42110  1  0  0  0
 42111  1  0  0  0
 43 44  1  0  0  0
 44112  1  0  0  0
 45 46  2  0  0  0
 45113  1  0  0  0
 46114  1  0  0  0
 47115  1  0  0  0
 47116  1  0  0  0
 48 56  1  0  0  0
 48 65  1  0  0  0
 48117  1  0  0  0
 49 50  1  0  0  0
 49 53  1  0  0  0
 49 64  1  0  0  0
 49118  1  0  0  0
 50 51  1  0  0  0
 50119  1  0  0  0
 50120  1  0  0  0
 51 52  1  0  0  0
 51121  1  0  0  0
 51122  1  0  0  0
 52123  1  0  0  0
 52124  1  0  0  0
 53 54  1  0  0  0
 54 55  2  0  0  0
 54125  1  0  0  0
 55 57  1  0  0  0
 55126  1  0  0  0
 56 69  2  0  0  0
 57 58  2  0  0  0
 57127  1  0  0  0
 58128  1  0  0  0
 59 60  1  0  0  0
 59 61  1  0  0  0
 59 62  1  0  0  0
 60129  1  0  0  0
 60130  1  0  0  0
 60131  1  0  0  0
 61132  1  0  0  0
 61133  1  0  0  0
 61134  1  0  0  0
 62135  1  0  0  0
 62136  1  0  0  0
 62137  1  0  0  0
 63 65  1  0  0  0
 63138  1  0  0  0
 63139  1  0  0  0
 63140  1  0  0  0
 64141  1  0  0  0
 65142  1  0  0  0
 68 80  1  0  0  0
 71 73  2  0  0  0
 71 81  1  0  0  0
 71143  1  0  0  0
 72 81  2  0  0  0
 72 82  1  0  0  0
 72144  1  0  0  0
 73 82  1  0  0  0
 73 78  1  0  0  0
 74 76  1  0  0  0
 74 78  1  0  0  0
 74145  1  0  0  0
 74146  1  0  0  0
 75 77  1  0  0  0
 75 78  1  0  0  0
 75147  1  0  0  0
 75148  1  0  0  0
 76 83  1  0  0  0
 76149  1  0  0  0
 76150  1  0  0  0
 77 83  1  0  0  0
 77151  1  0  0  0
 77152  1  0  0  0
 78153  1  0  0  0
 79 80  1  0  0  0
 79 82  1  0  0  0
 79154  1  0  0  0
 79155  1  0  0  0
 80156  1  0  0  0
 80157  1  0  0  0
M  ISO  4   1 100  68 101  80 101  83 100
M  END
> <chiral flag>
0

> <version>
0

> <s_m_source_file>
/data/baiqing/PycharmProjects/Reinvent-master-3.2/result/LINK_invent/BTK/process_docking_weight1_custom_sum_contain_oxygen_bond_distance_aromatic_linkinvent_7_9_3/rearranged_h_0187.sdf

> <i_m_source_file_index>
97

> <r_mmod_Potential_Energy-OPLS-2005>
693.813171386719

> <r_mmod_Stretch_Energy-OPLS-2005>
222.020385742188

> <r_mmod_Bend_Energy-OPLS-2005>
340.429504394531

> <r_mmod_Torsional_Energy-OPLS-2005>
339.248931884766

> <r_mmod_Improper_Torsional_Energy-OPLS-2005>
15.7452707290649

> <r_mmod_Van_der_Waal_Energy-OPLS-2005>
113.847412109375

> <r_mmod_Electrostatic_Energy-OPLS-2005>
-268.562927246094

> <r_mmod_Solvation_Energy-OPLS-2005>
-220.771560668945

> <b_mmod_Minimization_Converged-OPLS-2005>
0

> <r_mmod_RMS_Derivative-OPLS-2005>
2.56761193275452

$$$$
97
                    3D
 Structure written by MMmdl.
152161  0  0  1  0            999 V2000
  -30.3793  -15.3801   20.3514 C   0  0  0  0  0  0
  -30.4337  -12.8858   19.5469 C   0  0  0  0  0  0
  -29.5449  -12.6129   18.3048 C   0  0  0  0  0  0
  -28.0971  -12.3118   18.7243 C   0  0  0  0  0  0
  -27.6092  -13.2858   19.8248 C   0  0  2  0  0  0
  -28.6329  -13.4978   20.9623 C   0  0  0  0  0  0
  -25.2383  -13.8261   20.5762 C   0  0  0  0  0  0
  -24.1734  -13.0440   20.9252 C   0  0  0  0  0  0
  -24.6394  -11.6939   20.8740 C   0  0  0  0  0  0
  -23.9086  -10.4299   21.0396 C   0  0  0  0  0  0
  -24.3634   -9.4223   21.9183 C   0  0  0  0  0  0
  -23.6313   -8.2257   22.0759 C   0  0  0  0  0  0
  -22.4288   -8.0289   21.3552 C   0  0  0  0  0  0
  -21.9921   -9.0254   20.4638 C   0  0  0  0  0  0
  -22.7250  -10.2138   20.3052 C   0  0  0  0  0  0
  -21.6861   -6.0728   22.5285 C   0  0  0  0  0  0
  -21.4014   -6.5633   23.8212 C   0  0  0  0  0  0
  -21.3666   -5.6790   24.9176 C   0  0  0  0  0  0
  -21.6044   -4.3052   24.7226 C   0  0  0  0  0  0
  -21.8822   -3.8143   23.4345 C   0  0  0  0  0  0
  -21.9202   -4.6958   22.3404 C   0  0  0  0  0  0
  -22.7752  -13.5185   21.1905 C   0  0  0  0  0  0
  -22.1670   -4.2152   21.0979 F   0  0  0  0  0  0
  -21.5643   -3.4533   25.7736 F   0  0  0  0  0  0
  -29.8524  -14.0430   20.3424 N   0  0  0  0  0  0
  -26.2808  -12.9540   20.3216 N   0  0  0  0  0  0
  -25.9331  -11.6628   20.5675 N   0  0  0  0  0  0
  -22.0419  -12.8163   22.0454 N   0  0  0  0  0  0
  -25.4039  -15.1999   20.4233 N   0  0  0  0  0  0
  -31.5891  -15.3786   20.0734 O   0  0  0  0  0  0
  -21.6652   -6.8876   21.4250 O   0  0  0  0  0  0
  -22.3434  -14.5485   20.6748 O   0  0  0  0  0  0
  -24.6701  -31.8169   23.1632 C   0  0  0  0  0  0
  -25.9356  -32.4556   23.8121 C   0  0  1  0  0  0
  -27.2178  -26.8535   20.1928 C   0  0  0  0  0  0
  -25.6001  -33.8370   24.2030 N   0  0  0  0  0  0
  -23.4876  -30.4239   21.5148 C   0  0  2  0  0  0
  -24.9443  -28.7987   20.1086 C   0  0  0  0  0  0
  -22.7700  -29.4403   22.4754 C   0  0  0  0  0  0
  -18.0330  -28.1415   22.8467 C   0  0  0  0  0  0
  -24.1494  -36.7181   23.2646 C   0  0  0  0  0  0
  -26.0606  -30.5971   21.4079 C   0  0  0  0  0  0
  -26.1272  -29.1799   20.7525 C   0  0  0  0  0  0
  -27.2535  -28.2285   20.7716 C   0  0  0  0  0  0
  -26.0113  -26.6503   19.4835 C   0  0  0  0  0  0
  -24.9176  -27.5579   19.4508 C   0  0  0  0  0  0
  -23.7315  -29.7345   20.1430 C   0  0  0  0  0  0
  -25.4149  -36.2951   24.0287 C   0  0  1  0  0  0
  -20.5961  -28.3767   23.1174 C   0  0  2  0  0  0
  -20.6804  -26.9443   22.5411 C   0  0  0  0  0  0
  -19.5776  -26.6380   21.5224 C   0  0  0  0  0  0
  -18.1952  -26.7956   22.1622 C   0  0  0  0  0  0
  -19.1588  -28.8919   23.2805 C   0  0  0  0  0  0
  -18.9495  -30.1507   23.8846 C   0  0  0  0  0  0
  -17.6487  -30.6615   24.0555 C   0  0  0  0  0  0
  -25.9114  -34.9336   23.4987 C   0  0  0  0  0  0
  -16.5384  -29.9095   23.6351 C   0  0  0  0  0  0
  -16.7312  -28.6516   23.0373 C   0  0  0  0  0  0
  -26.4586  -31.6519   25.0673 C   0  0  0  0  0  0
  -25.3693  -31.3814   26.1318 C   0  0  0  0  0  0
  -27.0481  -30.2869   24.6462 C   0  0  0  0  0  0
  -27.6068  -32.4331   25.7488 C   0  0  0  0  0  0
  -27.5565  -37.1768   24.8472 C   0  0  0  0  0  0
  -21.4367  -29.3045   22.3510 N   0  0  0  0  0  0
  -26.4291  -37.3683   23.9391 N   0  0  0  0  0  0
  -24.7613  -30.9755   22.0814 N   0  0  0  0  0  0
  -23.4219  -28.7985   23.3030 O   0  0  0  0  0  0
  -28.1875  -25.6987   20.3175 O   0  0  0  0  0  0
  -26.5714  -34.8880   22.4580 O   0  0  0  0  0  0
  -23.5755  -32.1178   23.6676 O   0  0  0  0  0  0
  -28.9961  -22.4607   21.8973 C   0  0  0  0  0  0
  -29.3774  -21.2454   22.5202 C   0  0  0  0  0  0
  -28.6626  -22.5209   20.5370 C   0  0  0  0  0  0
  -29.2309  -19.9072   20.5961 C   0  0  0  0  0  0
  -28.7694  -20.6338   24.9945 C   0  0  0  0  0  0
  -29.0394  -22.1191   24.9873 C   0  0  0  0  0  0
  -29.7249  -21.2190   23.9810 C   0  0  0  0  0  0
  -28.0000  -24.0676   19.9259 C   0  0  0  0  0  0
  -29.6652  -18.2956   19.9686 C   0  0  0  0  0  0
  -29.4762  -20.0369   21.8978 N   0  0  0  0  0  0
  -28.8190  -21.1582   19.9370 N   0  0  0  0  0  0
  -29.6047  -16.6661   20.4732 N   0  0  0  0  0  0
  -31.4512  -13.0987   19.2141 H   0  0  0  0  0  0
  -30.5159  -11.9883   20.1621 H   0  0  0  0  0  0
  -29.9464  -11.7876   17.7142 H   0  0  0  0  0  0
  -29.5590  -13.4908   17.6570 H   0  0  0  0  0  0
  -28.0653  -11.2868   19.0954 H   0  0  0  0  0  0
  -27.4347  -12.3456   17.8575 H   0  0  0  0  0  0
  -27.5104  -14.2441   19.3140 H   0  0  0  0  0  0
  -28.8233  -12.5721   21.5069 H   0  0  0  0  0  0
  -28.2457  -14.2115   21.6916 H   0  0  0  0  0  0
  -25.2779   -9.5699   22.4737 H   0  0  0  0  0  0
  -24.0035   -7.4630   22.7458 H   0  0  0  0  0  0
  -21.0872   -8.8743   19.8909 H   0  0  0  0  0  0
  -22.3716  -10.9659   19.6142 H   0  0  0  0  0  0
  -21.1985   -7.6135   23.9713 H   0  0  0  0  0  0
  -21.1499   -6.0520   25.9079 H   0  0  0  0  0  0
  -22.0592   -2.7607   23.2848 H   0  0  0  0  0  0
  -22.4070  -11.9847   22.4848 H   0  0  0  0  0  0
  -21.1017  -13.1156   22.2608 H   0  0  0  0  0  0
  -24.6343  -15.8510   20.5284 H   0  0  0  0  0  0
  -26.2441  -15.6383   20.0705 H   0  0  0  0  0  0
  -26.7426  -32.5070   23.0829 H   0  0  0  0  0  0
  -25.0145  -33.9444   25.0185 H   0  0  0  0  0  0
  -22.8049  -31.2574   21.3381 H   0  0  0  0  0  0
  -23.3757  -35.9511   23.3326 H   0  0  0  0  0  0
  -24.3542  -36.8810   22.2051 H   0  0  0  0  0  0
  -23.7254  -37.6378   23.6690 H   0  0  0  0  0  0
  -26.2482  -31.3330   20.6241 H   0  0  0  0  0  0
  -26.9180  -30.6580   22.0655 H   0  0  0  0  0  0
  -28.1414  -28.5152   21.3179 H   0  0  0  0  0  0
  -25.8692  -25.7054   18.9801 H   0  0  0  0  0  0
  -24.0231  -27.2627   18.9204 H   0  0  0  0  0  0
  -23.8890  -30.5002   19.3825 H   0  0  0  0  0  0
  -22.8411  -29.1900   19.8254 H   0  0  0  0  0  0
  -25.1351  -36.1747   25.0772 H   0  0  0  0  0  0
  -21.0042  -28.3394   24.1299 H   0  0  0  0  0  0
  -20.5683  -26.2395   23.3662 H   0  0  0  0  0  0
  -21.6666  -26.7412   22.1219 H   0  0  0  0  0  0
  -19.6935  -25.6274   21.1292 H   0  0  0  0  0  0
  -19.6727  -27.3164   20.6728 H   0  0  0  0  0  0
  -17.4233  -26.6718   21.4009 H   0  0  0  0  0  0
  -18.0330  -26.0115   22.9019 H   0  0  0  0  0  0
  -19.7966  -30.7331   24.2195 H   0  0  0  0  0  0
  -17.5041  -31.6284   24.5160 H   0  0  0  0  0  0
  -15.5381  -30.2976   23.7704 H   0  0  0  0  0  0
  -15.8714  -28.0811   22.7125 H   0  0  0  0  0  0
  -24.5889  -30.7145   25.7625 H   0  0  0  0  0  0
  -24.8876  -32.3045   26.4559 H   0  0  0  0  0  0
  -25.7906  -30.9099   27.0207 H   0  0  0  0  0  0
  -26.3161  -29.6537   24.1436 H   0  0  0  0  0  0
  -27.3944  -29.7238   25.5133 H   0  0  0  0  0  0
  -27.9131  -30.4005   23.9927 H   0  0  0  0  0  0
  -27.2635  -33.3683   26.1925 H   0  0  0  0  0  0
  -28.3975  -32.6815   25.0391 H   0  0  0  0  0  0
  -28.0644  -31.8553   26.5531 H   0  0  0  0  0  0
  -28.2603  -38.0039   24.7453 H   0  0  0  0  0  0
  -28.1043  -36.2560   24.6396 H   0  0  0  0  0  0
  -27.2265  -37.1528   25.8872 H   0  0  0  0  0  0
  -20.9635  -29.8728   21.6624 H   0  0  0  0  0  0
  -26.0140  -38.2746   24.1362 H   0  0  0  0  0  0
  -28.9276  -23.3674   22.4831 H   0  0  0  0  0  0
  -27.7971  -20.3015   24.6367 H   0  0  0  0  0  0
  -29.1896  -20.0589   25.8164 H   0  0  0  0  0  0
  -29.6369  -22.5135   25.8066 H   0  0  0  0  0  0
  -28.2345  -22.7641   24.6432 H   0  0  0  0  0  0
  -30.7872  -21.0322   24.1233 H   0  0  0  0  0  0
  -26.9252  -23.9100   20.0122 H   0  0  0  0  0  0
  -28.1849  -24.0298   18.8533 H   0  0  0  0  0  0
  -30.7031  -18.4202   19.6616 H   0  0  0  0  0  0
  -29.1248  -18.2657   19.0224 H   0  0  0  0  0  0
  -28.6758  -16.4702   20.8161 H   0  0  0  0  0  0
  1 25  1  0  0  0
  1 30  2  0  0  0
  1 82  1  0  0  0
  2  3  1  0  0  0
  2 25  1  0  0  0
  2 83  1  0  0  0
  2 84  1  0  0  0
  3  4  1  0  0  0
  3 85  1  0  0  0
  3 86  1  0  0  0
  4  5  1  0  0  0
  4 87  1  0  0  0
  4 88  1  0  0  0
  5  6  1  0  0  0
  5 26  1  0  0  0
  5 89  1  0  0  0
  6 25  1  0  0  0
  6 90  1  0  0  0
  6 91  1  0  0  0
  7  8  2  0  0  0
  7 26  1  0  0  0
  7 29  1  0  0  0
  8  9  1  0  0  0
  8 22  1  0  0  0
  9 10  1  0  0  0
  9 27  2  0  0  0
 10 11  2  0  0  0
 10 15  1  0  0  0
 11 12  1  0  0  0
 11 92  1  0  0  0
 12 13  2  0  0  0
 12 93  1  0  0  0
 13 14  1  0  0  0
 13 31  1  0  0  0
 14 15  2  0  0  0
 14 94  1  0  0  0
 15 95  1  0  0  0
 16 17  2  0  0  0
 16 21  1  0  0  0
 16 31  1  0  0  0
 17 18  1  0  0  0
 17 96  1  0  0  0
 18 19  2  0  0  0
 18 97  1  0  0  0
 19 20  1  0  0  0
 19 24  1  0  0  0
 20 21  2  0  0  0
 20 98  1  0  0  0
 21 23  1  0  0  0
 22 28  1  0  0  0
 22 32  2  0  0  0
 26 27  1  0  0  0
 28 99  1  0  0  0
 28100  1  0  0  0
 29101  1  0  0  0
 29102  1  0  0  0
 33 34  1  0  0  0
 33 66  1  0  0  0
 33 70  2  0  0  0
 34 36  1  0  0  0
 34 59  1  0  0  0
 34103  1  0  0  0
 35 44  2  0  0  0
 35 45  1  0  0  0
 35 68  1  0  0  0
 36 56  1  0  0  0
 36104  1  0  0  0
 37 39  1  0  0  0
 37 47  1  0  0  0
 37 66  1  0  0  0
 37105  1  0  0  0
 38 43  2  0  0  0
 38 46  1  0  0  0
 38 47  1  0  0  0
 39 64  1  0  0  0
 39 67  2  0  0  0
 40 52  1  0  0  0
 40 53  2  0  0  0
 40 58  1  0  0  0
 41106  1  0  0  0
 41107  1  0  0  0
 41108  1  0  0  0
 41 48  1  0  0  0
 42 43  1  0  0  0
 42 66  1  0  0  0
 42109  1  0  0  0
 42110  1  0  0  0
 43 44  1  0  0  0
 44111  1  0  0  0
 45 46  2  0  0  0
 45112  1  0  0  0
 46113  1  0  0  0
 47114  1  0  0  0
 47115  1  0  0  0
 48 56  1  0  0  0
 48 65  1  0  0  0
 48116  1  0  0  0
 49 50  1  0  0  0
 49 53  1  0  0  0
 49 64  1  0  0  0
 49117  1  0  0  0
 50 51  1  0  0  0
 50118  1  0  0  0
 50119  1  0  0  0
 51 52  1  0  0  0
 51120  1  0  0  0
 51121  1  0  0  0
 52122  1  0  0  0
 52123  1  0  0  0
 53 54  1  0  0  0
 54 55  2  0  0  0
 54124  1  0  0  0
 55 57  1  0  0  0
 55125  1  0  0  0
 56 69  2  0  0  0
 57 58  2  0  0  0
 57126  1  0  0  0
 58127  1  0  0  0
 59 60  1  0  0  0
 59 61  1  0  0  0
 59 62  1  0  0  0
 60128  1  0  0  0
 60129  1  0  0  0
 60130  1  0  0  0
 61131  1  0  0  0
 61132  1  0  0  0
 61133  1  0  0  0
 62134  1  0  0  0
 62135  1  0  0  0
 62136  1  0  0  0
 63 65  1  0  0  0
 63137  1  0  0  0
 63138  1  0  0  0
 63139  1  0  0  0
 64140  1  0  0  0
 65141  1  0  0  0
 68 78  1  0  0  0
 71 72  2  0  0  0
 71 73  1  0  0  0
 71142  1  0  0  0
 72 80  1  0  0  0
 72 77  1  0  0  0
 73 78  1  0  0  0
 73 81  2  0  0  0
 74 79  1  0  0  0
 74 80  2  0  0  0
 74 81  1  0  0  0
 75 76  1  0  0  0
 75 77  1  0  0  0
 75143  1  0  0  0
 75144  1  0  0  0
 76 77  1  0  0  0
 76145  1  0  0  0
 76146  1  0  0  0
 77147  1  0  0  0
 78148  1  0  0  0
 78149  1  0  0  0
 79 82  1  0  0  0
 79150  1  0  0  0
 79151  1  0  0  0
 82152  1  0  0  0
M  ISO  4   1 100  68 101  78 101  82 100
M  END
> <chiral flag>
0

> <version>
0

> <s_m_source_file>
/data/baiqing/PycharmProjects/Reinvent-master-3.2/result/LINK_invent/BTK/process_docking_weight1_custom_sum_contain_oxygen_bond_distance_aromatic_linkinvent_7_9_3/rearranged_h_0187.sdf

> <i_m_source_file_index>
98

> <r_mmod_Potential_Energy-OPLS-2005>
1002.72784423828

> <r_mmod_Stretch_Energy-OPLS-2005>
696.214782714844

> <r_mmod_Bend_Energy-OPLS-2005>
487.697387695312

> <r_mmod_Torsional_Energy-OPLS-2005>
240.332122802734

> <r_mmod_Improper_Torsional_Energy-OPLS-2005>
5.93567085266113

> <r_mmod_Van_der_Waal_Energy-OPLS-2005>
127.162254333496

> <r_mmod_Electrostatic_Energy-OPLS-2005>
-884.579040527344

> <r_mmod_Solvation_Energy-OPLS-2005>
-257.5419921875

> <b_mmod_Minimization_Converged-OPLS-2005>
0

> <r_mmod_RMS_Derivative-OPLS-2005>
2.47035789489746

$$$$
98
                    3D
 Structure written by MMmdl.
162171  0  0  1  0            999 V2000
  -30.7297  -14.5894   20.5364 C   0  0  0  0  0  0
  -30.4153  -12.3787   19.4540 C   0  0  0  0  0  0
  -29.4973  -12.4935   18.2204 C   0  0  0  0  0  0
  -28.0251  -12.3142   18.6338 C   0  0  0  0  0  0
  -27.6445  -13.1971   19.8501 C   0  0  2  0  0  0
  -28.6950  -13.0907   20.9870 C   0  0  0  0  0  0
  -25.2537  -13.8107   20.5634 C   0  0  0  0  0  0
  -24.1816  -13.0404   20.9206 C   0  0  0  0  0  0
  -24.6371  -11.6875   20.8758 C   0  0  0  0  0  0
  -23.9055  -10.4268   21.0428 C   0  0  0  0  0  0
  -24.3622   -9.4184   21.9195 C   0  0  0  0  0  0
  -23.6297   -8.2223   22.0750 C   0  0  0  0  0  0
  -22.4278   -8.0273   21.3542 C   0  0  0  0  0  0
  -21.9914   -9.0244   20.4644 C   0  0  0  0  0  0
  -22.7242  -10.2120   20.3061 C   0  0  0  0  0  0
  -21.6846   -6.0736   22.5279 C   0  0  0  0  0  0
  -21.4006   -6.5639   23.8213 C   0  0  0  0  0  0
  -21.3657   -5.6786   24.9174 C   0  0  0  0  0  0
  -21.6046   -4.3048   24.7210 C   0  0  0  0  0  0
  -21.8825   -3.8144   23.4327 C   0  0  0  0  0  0
  -21.9187   -4.6966   22.3392 C   0  0  0  0  0  0
  -22.7843  -13.5226   21.1850 C   0  0  0  0  0  0
  -22.1665   -4.2155   21.0965 F   0  0  0  0  0  0
  -21.5631   -3.4538   25.7723 F   0  0  0  0  0  0
  -30.0047  -13.4284   20.4149 N   0  0  0  0  0  0
  -26.2935  -12.9258   20.3254 N   0  0  0  0  0  0
  -25.9283  -11.6438   20.5746 N   0  0  0  0  0  0
  -22.0462  -12.8243   22.0404 N   0  0  0  0  0  0
  -25.4185  -15.1818   20.3943 N   0  0  0  0  0  0
  -31.9013  -14.6055   20.1478 O   0  0  0  0  0  0
  -21.6635   -6.8883   21.4244 O   0  0  0  0  0  0
  -22.3557  -14.5534   20.6677 O   0  0  0  0  0  0
  -24.6181  -31.8649   23.2074 C   0  0  0  0  0  0
  -25.9054  -32.4801   23.8388 C   0  0  1  0  0  0
  -27.2300  -27.3760   20.1145 C   0  0  0  0  0  0
  -25.5895  -33.8602   24.2321 N   0  0  0  0  0  0
  -23.4075  -30.4891   21.5500 C   0  0  2  0  0  0
  -24.8522  -28.9429   20.1215 C   0  0  0  0  0  0
  -22.7410  -29.4651   22.4986 C   0  0  0  0  0  0
  -18.0263  -28.1378   22.8472 C   0  0  0  0  0  0
  -24.1480  -36.7307   23.2645 C   0  0  0  0  0  0
  -25.9422  -30.8100   21.3709 C   0  0  0  0  0  0
  -26.0153  -29.4390   20.7228 C   0  0  0  0  0  0
  -27.2018  -28.6629   20.7172 C   0  0  0  0  0  0
  -26.0433  -26.9119   19.4981 C   0  0  0  0  0  0
  -24.8636  -27.6805   19.5075 C   0  0  0  0  0  0
  -23.6186  -29.8195   20.1663 C   0  0  0  0  0  0
  -25.4097  -36.3105   24.0347 C   0  0  1  0  0  0
  -20.5853  -28.3664   23.1308 C   0  0  2  0  0  0
  -20.6750  -26.9402   22.5413 C   0  0  0  0  0  0
  -19.5739  -26.6385   21.5200 C   0  0  0  0  0  0
  -18.1917  -26.7921   22.1607 C   0  0  0  0  0  0
  -19.1513  -28.8835   23.2888 C   0  0  0  0  0  0
  -18.9444  -30.1439   23.8901 C   0  0  0  0  0  0
  -17.6451  -30.6588   24.0559 C   0  0  0  0  0  0
  -25.9029  -34.9471   23.5137 C   0  0  0  0  0  0
  -16.5340  -29.9086   23.6335 C   0  0  0  0  0  0
  -16.7253  -28.6507   23.0343 C   0  0  0  0  0  0
  -26.4472  -31.6595   25.0732 C   0  0  0  0  0  0
  -25.3739  -31.3722   26.1488 C   0  0  0  0  0  0
  -27.0318  -30.3027   24.6147 C   0  0  0  0  0  0
  -27.6041  -32.4332   25.7491 C   0  0  0  0  0  0
  -27.5583  -37.1810   24.8468 C   0  0  0  0  0  0
  -21.4132  -29.3041   22.3721 N   0  0  0  0  0  0
  -26.4294  -37.3785   23.9412 N   0  0  0  0  0  0
  -24.6745  -31.0711   22.1002 N   0  0  0  0  0  0
  -23.4166  -28.8184   23.3030 O   0  0  0  0  0  0
  -28.4199  -26.6501   20.1035 O   0  0  0  0  0  0
  -26.5600  -34.8930   22.4705 O   0  0  0  0  0  0
  -23.5368  -32.1435   23.7444 O   0  0  0  0  0  0
  -29.2948  -23.4211   21.2308 C   0  0  0  0  0  0
  -28.9916  -22.5893   20.1292 C   0  0  0  0  0  0
  -28.3269  -23.2639   19.0727 C   0  0  0  0  0  0
  -28.4250  -25.2827   20.1876 C   0  0  0  0  0  0
  -28.8527  -16.2730   20.5770 C   0  0  0  0  0  0
  -31.1453  -16.8299   21.4213 C   0  0  0  0  0  0
  -28.4252  -17.7258   20.9589 C   0  0  0  0  0  0
  -30.5819  -18.2029   21.8819 C   0  0  0  0  0  0
  -27.8917  -22.5669   17.7970 C   0  0  0  0  0  0
  -29.0930  -20.1376   21.2406 C   0  0  0  0  0  0
  -29.4266  -21.0919   20.0437 C   0  0  2  0  0  0
  -29.0303  -24.7533   21.2483 N   0  0  0  0  0  0
  -28.0774  -24.5930   19.1039 N   0  0  0  0  0  0
  -30.1781  -15.7644   21.0203 N   0  0  0  0  0  0
  -29.5277  -18.7141   20.9773 N   0  3  0  0  0  0
  -30.8233  -20.9840   19.8298 O   0  0  0  0  0  0
  -31.4600  -12.4599   19.1476 H   0  0  0  0  0  0
  -30.3230  -11.3910   19.9085 H   0  0  0  0  0  0
  -29.7738  -11.7462   17.4750 H   0  0  0  0  0  0
  -29.6325  -13.4654   17.7441 H   0  0  0  0  0  0
  -27.8760  -11.2628   18.8785 H   0  0  0  0  0  0
  -27.3676  -12.5248   17.7893 H   0  0  0  0  0  0
  -27.6399  -14.2061   19.4503 H   0  0  0  0  0  0
  -28.7133  -12.0761   21.3866 H   0  0  0  0  0  0
  -28.4517  -13.7229   21.8402 H   0  0  0  0  0  0
  -25.2770   -9.5673   22.4759 H   0  0  0  0  0  0
  -24.0003   -7.4631   22.7482 H   0  0  0  0  0  0
  -21.0837   -8.8782   19.8966 H   0  0  0  0  0  0
  -22.3712  -10.9670   19.6169 H   0  0  0  0  0  0
  -21.2005   -7.6150   23.9719 H   0  0  0  0  0  0
  -21.1475   -6.0513   25.9082 H   0  0  0  0  0  0
  -22.0605   -2.7606   23.2812 H   0  0  0  0  0  0
  -22.4068  -11.9913   22.4822 H   0  0  0  0  0  0
  -21.1077  -13.1287   22.2571 H   0  0  0  0  0  0
  -24.6310  -15.8165   20.4739 H   0  0  0  0  0  0
  -26.2212  -15.6018   19.9480 H   0  0  0  0  0  0
  -26.7116  -32.5490   23.1141 H   0  0  0  0  0  0
  -25.0043  -33.9758   25.0466 H   0  0  0  0  0  0
  -22.7000  -31.3092   21.4094 H   0  0  0  0  0  0
  -23.3751  -35.9635   23.3307 H   0  0  0  0  0  0
  -24.3581  -36.8915   22.2065 H   0  0  0  0  0  0
  -23.7228  -37.6511   23.6646 H   0  0  0  0  0  0
  -26.0663  -31.5708   20.5991 H   0  0  0  0  0  0
  -26.8263  -30.8619   21.9947 H   0  0  0  0  0  0
  -28.0995  -29.0465   21.1833 H   0  0  0  0  0  0
  -26.0051  -25.9549   19.0008 H   0  0  0  0  0  0
  -23.9706  -27.2939   19.0356 H   0  0  0  0  0  0
  -23.7343  -30.5939   19.4069 H   0  0  0  0  0  0
  -22.7393  -29.2455   19.8680 H   0  0  0  0  0  0
  -25.1283  -36.1979   25.0842 H   0  0  0  0  0  0
  -20.9941  -28.3233   24.1426 H   0  0  0  0  0  0
  -20.5628  -26.2282   23.3597 H   0  0  0  0  0  0
  -21.6627  -26.7431   22.1230 H   0  0  0  0  0  0
  -19.6906  -25.6295   21.1233 H   0  0  0  0  0  0
  -19.6687  -27.3189   20.6722 H   0  0  0  0  0  0
  -17.4184  -26.6647   21.4016 H   0  0  0  0  0  0
  -18.0333  -26.0068   22.9012 H   0  0  0  0  0  0
  -19.7924  -30.7249   24.2278 H   0  0  0  0  0  0
  -17.5010  -31.6272   24.5161 H   0  0  0  0  0  0
  -15.5336  -30.2992   23.7675 H   0  0  0  0  0  0
  -15.8641  -28.0844   22.7042 H   0  0  0  0  0  0
  -24.5877  -30.7098   25.7832 H   0  0  0  0  0  0
  -24.8974  -32.2895   26.4961 H   0  0  0  0  0  0
  -25.8099  -30.8870   27.0232 H   0  0  0  0  0  0
  -26.2878  -29.6775   24.1184 H   0  0  0  0  0  0
  -27.4059  -29.7271   25.4630 H   0  0  0  0  0  0
  -27.8726  -30.4334   23.9326 H   0  0  0  0  0  0
  -27.2626  -33.3601   26.2108 H   0  0  0  0  0  0
  -28.3809  -32.6950   25.0294 H   0  0  0  0  0  0
  -28.0744  -31.8443   26.5375 H   0  0  0  0  0  0
  -28.2616  -38.0097   24.7509 H   0  0  0  0  0  0
  -28.1071  -36.2638   24.6291 H   0  0  0  0  0  0
  -27.2312  -37.1448   25.8875 H   0  0  0  0  0  0
  -20.9289  -29.8781   21.6960 H   0  0  0  0  0  0
  -26.0199  -38.2873   24.1386 H   0  0  0  0  0  0
  -29.8087  -23.0285   22.0957 H   0  0  0  0  0  0
  -28.8097  -16.1806   19.4901 H   0  0  0  0  0  0
  -28.0707  -15.6469   20.9900 H   0  0  0  0  0  0
  -31.8007  -16.4441   22.2042 H   0  0  0  0  0  0
  -31.7960  -17.0395   20.5685 H   0  0  0  0  0  0
  -27.9705  -17.7091   21.9514 H   0  0  0  0  0  0
  -27.6365  -18.0582   20.2809 H   0  0  0  0  0  0
  -31.4002  -18.9237   21.9376 H   0  0  0  0  0  0
  -30.1853  -18.1196   22.8949 H   0  0  0  0  0  0
  -28.7453  -22.1119   17.2950 H   0  0  0  0  0  0
  -27.4318  -23.2641   17.0956 H   0  0  0  0  0  0
  -27.1584  -21.7910   18.0163 H   0  0  0  0  0  0
  -28.0173  -20.1683   21.4260 H   0  0  0  0  0  0
  -29.5594  -20.5053   22.1566 H   0  0  0  0  0  0
  -28.9463  -20.6502   19.1708 H   0  0  0  0  0  0
  -29.9436  -18.7504   20.0584 H   0  0  0  0  0  0
  -31.0295  -21.3058   18.9560 H   0  0  0  0  0  0
  1 25  1  0  0  0
  1 30  2  0  0  0
  1 84  1  0  0  0
  2  3  1  0  0  0
  2 25  1  0  0  0
  2 87  1  0  0  0
  2 88  1  0  0  0
  3  4  1  0  0  0
  3 89  1  0  0  0
  3 90  1  0  0  0
  4  5  1  0  0  0
  4 91  1  0  0  0
  4 92  1  0  0  0
  5  6  1  0  0  0
  5 26  1  0  0  0
  5 93  1  0  0  0
  6 25  1  0  0  0
  6 94  1  0  0  0
  6 95  1  0  0  0
  7  8  2  0  0  0
  7 26  1  0  0  0
  7 29  1  0  0  0
  8  9  1  0  0  0
  8 22  1  0  0  0
  9 10  1  0  0  0
  9 27  2  0  0  0
 10 11  2  0  0  0
 10 15  1  0  0  0
 11 12  1  0  0  0
 11 96  1  0  0  0
 12 13  2  0  0  0
 12 97  1  0  0  0
 13 14  1  0  0  0
 13 31  1  0  0  0
 14 15  2  0  0  0
 14 98  1  0  0  0
 15 99  1  0  0  0
 16 17  2  0  0  0
 16 21  1  0  0  0
 16 31  1  0  0  0
 17 18  1  0  0  0
 17100  1  0  0  0
 18 19  2  0  0  0
 18101  1  0  0  0
 19 20  1  0  0  0
 19 24  1  0  0  0
 20 21  2  0  0  0
 20102  1  0  0  0
 21 23  1  0  0  0
 22 28  1  0  0  0
 22 32  2  0  0  0
 26 27  1  0  0  0
 28103  1  0  0  0
 28104  1  0  0  0
 29105  1  0  0  0
 29106  1  0  0  0
 33 34  1  0  0  0
 33 66  1  0  0  0
 33 70  2  0  0  0
 34 36  1  0  0  0
 34 59  1  0  0  0
 34107  1  0  0  0
 35 44  2  0  0  0
 35 45  1  0  0  0
 35 68  1  0  0  0
 36 56  1  0  0  0
 36108  1  0  0  0
 37 39  1  0  0  0
 37 47  1  0  0  0
 37 66  1  0  0  0
 37109  1  0  0  0
 38 43  2  0  0  0
 38 46  1  0  0  0
 38 47  1  0  0  0
 39 64  1  0  0  0
 39 67  2  0  0  0
 40 52  1  0  0  0
 40 53  2  0  0  0
 40 58  1  0  0  0
 41110  1  0  0  0
 41111  1  0  0  0
 41112  1  0  0  0
 41 48  1  0  0  0
 42 43  1  0  0  0
 42 66  1  0  0  0
 42113  1  0  0  0
 42114  1  0  0  0
 43 44  1  0  0  0
 44115  1  0  0  0
 45 46  2  0  0  0
 45116  1  0  0  0
 46117  1  0  0  0
 47118  1  0  0  0
 47119  1  0  0  0
 48 56  1  0  0  0
 48 65  1  0  0  0
 48120  1  0  0  0
 49 50  1  0  0  0
 49 53  1  0  0  0
 49 64  1  0  0  0
 49121  1  0  0  0
 50 51  1  0  0  0
 50122  1  0  0  0
 50123  1  0  0  0
 51 52  1  0  0  0
 51124  1  0  0  0
 51125  1  0  0  0
 52126  1  0  0  0
 52127  1  0  0  0
 53 54  1  0  0  0
 54 55  2  0  0  0
 54128  1  0  0  0
 55 57  1  0  0  0
 55129  1  0  0  0
 56 69  2  0  0  0
 57 58  2  0  0  0
 57130  1  0  0  0
 58131  1  0  0  0
 59 60  1  0  0  0
 59 61  1  0  0  0
 59 62  1  0  0  0
 60132  1  0  0  0
 60133  1  0  0  0
 60134  1  0  0  0
 61135  1  0  0  0
 61136  1  0  0  0
 61137  1  0  0  0
 62138  1  0  0  0
 62139  1  0  0  0
 62140  1  0  0  0
 63 65  1  0  0  0
 63141  1  0  0  0
 63142  1  0  0  0
 63143  1  0  0  0
 64144  1  0  0  0
 65145  1  0  0  0
 68 74  1  0  0  0
 71 72  2  0  0  0
 71 82  1  0  0  0
 71146  1  0  0  0
 72 73  1  0  0  0
 72 81  1  0  0  0
 73 79  1  0  0  0
 73 83  2  0  0  0
 74 82  2  0  0  0
 74 83  1  0  0  0
 75 77  1  0  0  0
 75 84  1  0  0  0
 75147  1  0  0  0
 75148  1  0  0  0
 76 78  1  0  0  0
 76 84  1  0  0  0
 76149  1  0  0  0
 76150  1  0  0  0
 77 85  1  0  0  0
 77151  1  0  0  0
 77152  1  0  0  0
 78 85  1  0  0  0
 78153  1  0  0  0
 78154  1  0  0  0
 79155  1  0  0  0
 79156  1  0  0  0
 79157  1  0  0  0
 80 81  1  0  0  0
 80158  1  0  0  0
 80159  1  0  0  0
 80 85  1  0  0  0
 81 86  1  0  0  0
 81160  1  0  0  0
 85161  1  0  0  0
 86162  1  0  0  0
M  CHG  1  85   1
M  ISO  4   1 100  68 101  74 101  84 100
M  END
> <chiral flag>
0

> <version>
0

> <s_m_source_file>
/data/baiqing/PycharmProjects/Reinvent-master-3.2/result/LINK_invent/BTK/process_docking_weight1_custom_sum_contain_oxygen_bond_distance_aromatic_linkinvent_7_9_3/rearranged_h_0187.sdf

> <i_m_source_file_index>
99

> <r_mmod_Potential_Energy-OPLS-2005>
-238.494155883789

> <r_mmod_Stretch_Energy-OPLS-2005>
58.9660301208496

> <r_mmod_Bend_Energy-OPLS-2005>
152.17790222168

> <r_mmod_Torsional_Energy-OPLS-2005>
400.696319580078

> <r_mmod_Improper_Torsional_Energy-OPLS-2005>
6.88064241409302

> <r_mmod_Van_der_Waal_Energy-OPLS-2005>
172.754501342773

> <r_mmod_Electrostatic_Energy-OPLS-2005>
-585.34814453125

> <r_mmod_Solvation_Energy-OPLS-2005>
-476.713958740234

> <b_mmod_Minimization_Converged-OPLS-2005>
0

> <r_mmod_RMS_Derivative-OPLS-2005>
1.9050315618515

$$$$
