0
                    3D
 Structure written by MMmdl.
172181  0  0  1  0            999 V2000
  -30.6450  -14.6055   20.4950 C   0  0  0  0  0  0
  -30.4300  -12.3676   19.4562 C   0  0  0  0  0  0
  -29.5052  -12.5011   18.2263 C   0  0  0  0  0  0
  -28.0276  -12.3460   18.6368 C   0  0  0  0  0  0
  -27.6538  -13.2163   19.8666 C   0  0  2  0  0  0
  -28.6974  -13.0717   20.9983 C   0  0  0  0  0  0
  -25.2556  -13.8175   20.5690 C   0  0  0  0  0  0
  -24.1823  -13.0439   20.9193 C   0  0  0  0  0  0
  -24.6392  -11.6911   20.8746 C   0  0  0  0  0  0
  -23.9062  -10.4293   21.0409 C   0  0  0  0  0  0
  -24.3614   -9.4207   21.9185 C   0  0  0  0  0  0
  -23.6290   -8.2241   22.0755 C   0  0  0  0  0  0
  -22.4272   -8.0281   21.3544 C   0  0  0  0  0  0
  -21.9908   -9.0254   20.4647 C   0  0  0  0  0  0
  -22.7235  -10.2134   20.3056 C   0  0  0  0  0  0
  -21.6851   -6.0734   22.5278 C   0  0  0  0  0  0
  -21.4013   -6.5639   23.8212 C   0  0  0  0  0  0
  -21.3661   -5.6791   24.9174 C   0  0  0  0  0  0
  -21.6045   -4.3053   24.7226 C   0  0  0  0  0  0
  -21.8819   -3.8145   23.4346 C   0  0  0  0  0  0
  -21.9193   -4.6961   22.3402 C   0  0  0  0  0  0
  -22.7846  -13.5231   21.1856 C   0  0  0  0  0  0
  -22.1660   -4.2148   21.0980 F   0  0  0  0  0  0
  -21.5631   -3.4538   25.7738 F   0  0  0  0  0  0
  -30.0167  -13.3923   20.4343 N   0  0  0  0  0  0
  -26.2988  -12.9356   20.3338 N   0  0  0  0  0  0
  -25.9321  -11.6510   20.5772 N   0  0  0  0  0  0
  -22.0487  -12.8221   22.0411 N   0  0  0  0  0  0
  -25.4265  -15.1896   20.4092 N   0  0  0  0  0  0
  -31.8054  -14.7529   20.1036 O   0  0  0  0  0  0
  -21.6637   -6.8877   21.4240 O   0  0  0  0  0  0
  -22.3535  -14.5541   20.6711 O   0  0  0  0  0  0
  -24.6231  -31.8614   23.2046 C   0  0  0  0  0  0
  -25.9091  -32.4789   23.8364 C   0  0  1  0  0  0
  -27.2243  -27.3436   20.1166 C   0  0  0  0  0  0
  -25.5919  -33.8591   24.2291 N   0  0  0  0  0  0
  -23.4153  -30.4849   21.5468 C   0  0  2  0  0  0
  -24.8615  -28.9434   20.1103 C   0  0  0  0  0  0
  -22.7456  -29.4627   22.4952 C   0  0  0  0  0  0
  -18.0282  -28.1379   22.8492 C   0  0  0  0  0  0
  -24.1490  -36.7296   23.2638 C   0  0  0  0  0  0
  -25.9532  -30.8007   21.3714 C   0  0  0  0  0  0
  -26.0280  -29.4301   20.7136 C   0  0  0  0  0  0
  -27.2124  -28.6412   20.7067 C   0  0  0  0  0  0
  -26.0399  -26.9067   19.4809 C   0  0  0  0  0  0
  -24.8679  -27.6864   19.4855 C   0  0  0  0  0  0
  -23.6278  -29.8200   20.1613 C   0  0  0  0  0  0
  -25.4116  -36.3091   24.0328 C   0  0  1  0  0  0
  -20.5878  -28.3679   23.1296 C   0  0  2  0  0  0
  -20.6771  -26.9406   22.5415 C   0  0  0  0  0  0
  -19.5749  -26.6383   21.5216 C   0  0  0  0  0  0
  -18.1926  -26.7925   22.1625 C   0  0  0  0  0  0
  -19.1533  -28.8847   23.2888 C   0  0  0  0  0  0
  -18.9458  -30.1453   23.8899 C   0  0  0  0  0  0
  -17.6458  -30.6584   24.0564 C   0  0  0  0  0  0
  -25.9048  -34.9458   23.5108 C   0  0  0  0  0  0
  -16.5349  -29.9083   23.6331 C   0  0  0  0  0  0
  -16.7270  -28.6500   23.0353 C   0  0  0  0  0  0
  -26.4488  -31.6593   25.0725 C   0  0  0  0  0  0
  -25.3733  -31.3714   26.1459 C   0  0  0  0  0  0
  -27.0332  -30.3026   24.6159 C   0  0  0  0  0  0
  -27.6055  -32.4324   25.7491 C   0  0  0  0  0  0
  -27.5582  -37.1803   24.8465 C   0  0  0  0  0  0
  -21.4171  -29.3035   22.3693 N   0  0  0  0  0  0
  -26.4295  -37.3785   23.9408 N   0  0  0  0  0  0
  -24.6825  -31.0648   22.0983 N   0  0  0  0  0  0
  -23.4191  -28.8167   23.3020 O   0  0  0  0  0  0
  -28.3566  -26.5239   20.1678 O   0  0  0  0  0  0
  -26.5614  -34.8918   22.4672 O   0  0  0  0  0  0
  -23.5403  -32.1402   23.7393 O   0  0  0  0  0  0
  -31.9588  -18.1340   22.7064 C   0  0  0  0  0  0
  -32.2519  -19.5852   22.2942 C   0  0  0  0  0  0
  -30.4462  -17.8671   22.8141 C   0  0  0  0  0  0
  -31.4628  -20.0268   21.0459 C   0  0  0  0  0  0
  -28.4190  -22.7757   19.0156 C   0  0  0  0  0  0
  -28.8291  -22.8480   21.4889 C   0  0  0  0  0  0
  -28.6010  -24.3280   18.9382 C   0  0  0  0  0  0
  -29.0004  -24.4060   21.3875 C   0  0  0  0  0  0
  -29.7008  -18.2082   21.5008 C   0  0  1  0  0  0
  -29.1986  -22.0764   20.1820 C   0  0  1  0  0  0
  -29.9421  -19.7823   21.2269 C   0  0  2  0  0  0
  -28.1854  -25.0601   20.2398 C   0  0  1  0  0  0
  -27.6474  -20.0889   20.2839 C   0  0  0  0  0  0
  -30.0914  -17.1255   20.4071 C   0  0  0  0  0  0
  -29.8564  -15.6845   20.7754 N   0  0  0  0  0  0
  -29.0635  -20.5401   20.2309 N   0  3  1  0  0  0
  -31.4744  -12.4750   19.1578 H   0  0  0  0  0  0
  -30.3463  -11.3722   19.8951 H   0  0  0  0  0  0
  -29.7647  -11.7537   17.4755 H   0  0  0  0  0  0
  -29.6557  -13.4735   17.7545 H   0  0  0  0  0  0
  -27.8590  -11.2931   18.8659 H   0  0  0  0  0  0
  -27.3746  -12.5812   17.7956 H   0  0  0  0  0  0
  -27.6733  -14.2516   19.5262 H   0  0  0  0  0  0
  -28.6973  -12.0548   21.3930 H   0  0  0  0  0  0
  -28.4527  -13.7200   21.8412 H   0  0  0  0  0  0
  -25.2760   -9.5681   22.4759 H   0  0  0  0  0  0
  -24.0000   -7.4630   22.7472 H   0  0  0  0  0  0
  -21.0840   -8.8772   19.8950 H   0  0  0  0  0  0
  -22.3696  -10.9673   19.6165 H   0  0  0  0  0  0
  -21.2005   -7.6147   23.9716 H   0  0  0  0  0  0
  -21.1483   -6.0521   25.9078 H   0  0  0  0  0  0
  -22.0598   -2.7607   23.2847 H   0  0  0  0  0  0
  -22.4099  -11.9877   22.4791 H   0  0  0  0  0  0
  -21.1107  -13.1248   22.2623 H   0  0  0  0  0  0
  -24.6558  -15.8413   20.5097 H   0  0  0  0  0  0
  -26.2712  -15.6259   20.0637 H   0  0  0  0  0  0
  -26.7159  -32.5466   23.1115 H   0  0  0  0  0  0
  -25.0075  -33.9744   25.0441 H   0  0  0  0  0  0
  -22.7084  -31.3048   21.4057 H   0  0  0  0  0  0
  -23.3755  -35.9626   23.3303 H   0  0  0  0  0  0
  -24.3581  -36.8918   22.2053 H   0  0  0  0  0  0
  -23.7239  -37.6496   23.6660 H   0  0  0  0  0  0
  -26.0806  -31.5659   20.6043 H   0  0  0  0  0  0
  -26.8350  -30.8492   21.9987 H   0  0  0  0  0  0
  -28.1083  -29.0091   21.1871 H   0  0  0  0  0  0
  -26.0020  -25.9505   18.9798 H   0  0  0  0  0  0
  -23.9747  -27.3112   19.0051 H   0  0  0  0  0  0
  -23.7427  -30.5966   19.4041 H   0  0  0  0  0  0
  -22.7489  -29.2464   19.8617 H   0  0  0  0  0  0
  -25.1297  -36.1946   25.0821 H   0  0  0  0  0  0
  -20.9973  -28.3250   24.1415 H   0  0  0  0  0  0
  -20.5684  -26.2282   23.3608 H   0  0  0  0  0  0
  -21.6639  -26.7442   22.1205 H   0  0  0  0  0  0
  -19.6910  -25.6297   21.1239 H   0  0  0  0  0  0
  -19.6689  -27.3198   20.6750 H   0  0  0  0  0  0
  -17.4199  -26.6681   21.4022 H   0  0  0  0  0  0
  -18.0320  -26.0063   22.9017 H   0  0  0  0  0  0
  -19.7934  -30.7271   24.2266 H   0  0  0  0  0  0
  -17.5012  -31.6265   24.5164 H   0  0  0  0  0  0
  -15.5350  -30.2985   23.7654 H   0  0  0  0  0  0
  -15.8670  -28.0821   22.7065 H   0  0  0  0  0  0
  -24.5914  -30.7056   25.7786 H   0  0  0  0  0  0
  -24.8913  -32.2871   26.4891 H   0  0  0  0  0  0
  -25.8068  -30.8890   27.0228 H   0  0  0  0  0  0
  -26.2897  -29.6776   24.1197 H   0  0  0  0  0  0
  -27.4060  -29.7279   25.4646 H   0  0  0  0  0  0
  -27.8751  -30.4325   23.9356 H   0  0  0  0  0  0
  -27.2675  -33.3627   26.2066 H   0  0  0  0  0  0
  -28.3863  -32.6880   25.0315 H   0  0  0  0  0  0
  -28.0725  -31.8451   26.5407 H   0  0  0  0  0  0
  -28.2598  -38.0103   24.7520 H   0  0  0  0  0  0
  -28.1079  -36.2634   24.6284 H   0  0  0  0  0  0
  -27.2295  -37.1446   25.8866 H   0  0  0  0  0  0
  -20.9342  -29.8756   21.6907 H   0  0  0  0  0  0
  -26.0177  -38.2858   24.1417 H   0  0  0  0  0  0
  -32.4371  -17.9235   23.6641 H   0  0  0  0  0  0
  -32.4147  -17.4461   21.9936 H   0  0  0  0  0  0
  -33.3216  -19.7101   22.1208 H   0  0  0  0  0  0
  -32.0042  -20.2477   23.1255 H   0  0  0  0  0  0
  -30.0366  -18.4615   23.6324 H   0  0  0  0  0  0
  -30.2747  -16.8307   23.1053 H   0  0  0  0  0  0
  -31.8287  -19.5037   20.1624 H   0  0  0  0  0  0
  -31.6945  -21.0775   20.8899 H   0  0  0  0  0  0
  -28.7151  -22.3355   18.0628 H   0  0  0  0  0  0
  -27.3486  -22.6013   19.1120 H   0  0  0  0  0  0
  -27.7972  -22.6280   21.7638 H   0  0  0  0  0  0
  -29.4438  -22.4945   22.3163 H   0  0  0  0  0  0
  -28.0174  -24.7174   18.1034 H   0  0  0  0  0  0
  -29.6422  -24.5597   18.7094 H   0  0  0  0  0  0
  -30.0571  -24.6437   21.2583 H   0  0  0  0  0  0
  -28.7071  -24.8596   22.3348 H   0  0  0  0  0  0
  -28.6466  -18.0587   21.7321 H   0  0  0  0  0  0
  -30.2443  -22.2920   19.9722 H   0  0  0  0  0  0
  -29.6744  -20.2576   22.1710 H   0  0  0  0  0  0
  -27.1456  -24.8149   20.4571 H   0  0  0  0  0  0
  -27.0295  -20.5440   19.5141 H   0  0  0  0  0  0
  -27.1980  -20.3058   21.2532 H   0  0  0  0  0  0
  -27.5620  -19.0194   20.1000 H   0  0  0  0  0  0
  -31.1322  -17.2548   20.1094 H   0  0  0  0  0  0
  -29.5143  -17.3200   19.5026 H   0  0  0  0  0  0
  -28.9264  -15.4555   21.0926 H   0  0  0  0  0  0
  -29.3865  -20.2307   19.3255 H   0  0  0  0  0  0
  1 25  1  0  0  0
  1 30  2  0  0  0
  1 85  1  0  0  0
  2  3  1  0  0  0
  2 25  1  0  0  0
  2 87  1  0  0  0
  2 88  1  0  0  0
  3  4  1  0  0  0
  3 89  1  0  0  0
  3 90  1  0  0  0
  4  5  1  0  0  0
  4 91  1  0  0  0
  4 92  1  0  0  0
  5  6  1  0  0  0
  5 26  1  0  0  0
  5 93  1  0  0  0
  6 25  1  0  0  0
  6 94  1  0  0  0
  6 95  1  0  0  0
  7  8  2  0  0  0
  7 26  1  0  0  0
  7 29  1  0  0  0
  8  9  1  0  0  0
  8 22  1  0  0  0
  9 10  1  0  0  0
  9 27  2  0  0  0
 10 11  2  0  0  0
 10 15  1  0  0  0
 11 12  1  0  0  0
 11 96  1  0  0  0
 12 13  2  0  0  0
 12 97  1  0  0  0
 13 14  1  0  0  0
 13 31  1  0  0  0
 14 15  2  0  0  0
 14 98  1  0  0  0
 15 99  1  0  0  0
 16 17  2  0  0  0
 16 21  1  0  0  0
 16 31  1  0  0  0
 17 18  1  0  0  0
 17100  1  0  0  0
 18 19  2  0  0  0
 18101  1  0  0  0
 19 20  1  0  0  0
 19 24  1  0  0  0
 20 21  2  0  0  0
 20102  1  0  0  0
 21 23  1  0  0  0
 22 28  1  0  0  0
 22 32  2  0  0  0
 26 27  1  0  0  0
 28103  1  0  0  0
 28104  1  0  0  0
 29105  1  0  0  0
 29106  1  0  0  0
 33 34  1  0  0  0
 33 66  1  0  0  0
 33 70  2  0  0  0
 34 36  1  0  0  0
 34 59  1  0  0  0
 34107  1  0  0  0
 35 44  2  0  0  0
 35 45  1  0  0  0
 35 68  1  0  0  0
 36 56  1  0  0  0
 36108  1  0  0  0
 37 39  1  0  0  0
 37 47  1  0  0  0
 37 66  1  0  0  0
 37109  1  0  0  0
 38 43  2  0  0  0
 38 46  1  0  0  0
 38 47  1  0  0  0
 39 64  1  0  0  0
 39 67  2  0  0  0
 40 52  1  0  0  0
 40 53  2  0  0  0
 40 58  1  0  0  0
 41110  1  0  0  0
 41111  1  0  0  0
 41112  1  0  0  0
 41 48  1  0  0  0
 42 43  1  0  0  0
 42 66  1  0  0  0
 42113  1  0  0  0
 42114  1  0  0  0
 43 44  1  0  0  0
 44115  1  0  0  0
 45 46  2  0  0  0
 45116  1  0  0  0
 46117  1  0  0  0
 47118  1  0  0  0
 47119  1  0  0  0
 48 56  1  0  0  0
 48 65  1  0  0  0
 48120  1  0  0  0
 49 50  1  0  0  0
 49 53  1  0  0  0
 49 64  1  0  0  0
 49121  1  0  0  0
 50 51  1  0  0  0
 50122  1  0  0  0
 50123  1  0  0  0
 51 52  1  0  0  0
 51124  1  0  0  0
 51125  1  0  0  0
 52126  1  0  0  0
 52127  1  0  0  0
 53 54  1  0  0  0
 54 55  2  0  0  0
 54128  1  0  0  0
 55 57  1  0  0  0
 55129  1  0  0  0
 56 69  2  0  0  0
 57 58  2  0  0  0
 57130  1  0  0  0
 58131  1  0  0  0
 59 60  1  0  0  0
 59 61  1  0  0  0
 59 62  1  0  0  0
 60132  1  0  0  0
 60133  1  0  0  0
 60134  1  0  0  0
 61135  1  0  0  0
 61136  1  0  0  0
 61137  1  0  0  0
 62138  1  0  0  0
 62139  1  0  0  0
 62140  1  0  0  0
 63 65  1  0  0  0
 63141  1  0  0  0
 63142  1  0  0  0
 63143  1  0  0  0
 64144  1  0  0  0
 65145  1  0  0  0
 68 82  1  0  0  0
 71 72  1  0  0  0
 71 73  1  0  0  0
 71146  1  0  0  0
 71147  1  0  0  0
 72 74  1  0  0  0
 72148  1  0  0  0
 72149  1  0  0  0
 73 79  1  0  0  0
 73150  1  0  0  0
 73151  1  0  0  0
 74152  1  0  0  0
 74153  1  0  0  0
 74 81  1  0  0  0
 75 77  1  0  0  0
 75154  1  0  0  0
 75155  1  0  0  0
 75 80  1  0  0  0
 76 78  1  0  0  0
 76 80  1  0  0  0
 76156  1  0  0  0
 76157  1  0  0  0
 77 82  1  0  0  0
 77158  1  0  0  0
 77159  1  0  0  0
 78 82  1  0  0  0
 78160  1  0  0  0
 78161  1  0  0  0
 79 81  1  0  0  0
 79 84  1  0  0  0
 79162  1  0  0  0
 80 86  1  0  0  0
 80163  1  0  0  0
 81 86  1  0  0  0
 81164  1  0  0  0
 82165  1  0  0  0
 83166  1  0  0  0
 83167  1  0  0  0
 83168  1  0  0  0
 83 86  1  0  0  0
 84 85  1  0  0  0
 84169  1  0  0  0
 84170  1  0  0  0
 85171  1  0  0  0
 86172  1  0  0  0
M  CHG  1  86   1
M  ISO  4   1 100  68 101  82 101  85 100
M  END
> <chiral flag>
0

> <version>
0

> <s_m_source_file>
/data/baiqing/PycharmProjects/Reinvent-master-3.2/result/LINK_invent/BTK/process_docking_weight1_custom_sum_contain_oxygen_bond_distance_aromatic_linkinvent_7_9_3/rearranged_h_0117.sdf

> <i_m_source_file_index>
1

> <r_mmod_Potential_Energy-OPLS-2005>
31.0388793945312

> <r_mmod_Stretch_Energy-OPLS-2005>
81.7336807250977

> <r_mmod_Bend_Energy-OPLS-2005>
151.774871826172

> <r_mmod_Torsional_Energy-OPLS-2005>
280.914459228516

> <r_mmod_Improper_Torsional_Energy-OPLS-2005>
6.07303762435913

> <r_mmod_Van_der_Waal_Energy-OPLS-2005>
138.490829467773

> <r_mmod_Electrostatic_Energy-OPLS-2005>
-225.721923828125

> <r_mmod_Solvation_Energy-OPLS-2005>
-440.840576171875

> <b_mmod_Minimization_Converged-OPLS-2005>
0

> <r_mmod_RMS_Derivative-OPLS-2005>
0.390882968902588

$$$$
1
                    3D
 Structure written by MMmdl.
158166  0  0  1  0            999 V2000
  -30.3264  -15.5658   20.3278 C   0  0  0  0  0  0
  -30.4251  -13.0292   19.5286 C   0  0  0  0  0  0
  -29.5442  -12.6417   18.3096 C   0  0  0  0  0  0
  -28.1117  -12.3021   18.7483 C   0  0  0  0  0  0
  -27.5964  -13.3009   19.8105 C   0  0  2  0  0  0
  -28.6182  -13.6072   20.9289 C   0  0  0  0  0  0
  -25.2334  -13.8285   20.5765 C   0  0  0  0  0  0
  -24.1722  -13.0441   20.9295 C   0  0  0  0  0  0
  -24.6410  -11.6942   20.8760 C   0  0  0  0  0  0
  -23.9106  -10.4296   21.0395 C   0  0  0  0  0  0
  -24.3642   -9.4211   21.9174 C   0  0  0  0  0  0
  -23.6315   -8.2247   22.0747 C   0  0  0  0  0  0
  -22.4299   -8.0276   21.3537 C   0  0  0  0  0  0
  -21.9939   -9.0251   20.4637 C   0  0  0  0  0  0
  -22.7274  -10.2135   20.3050 C   0  0  0  0  0  0
  -21.6869   -6.0727   22.5271 C   0  0  0  0  0  0
  -21.4023   -6.5630   23.8202 C   0  0  0  0  0  0
  -21.3669   -5.6787   24.9166 C   0  0  0  0  0  0
  -21.6053   -4.3051   24.7225 C   0  0  0  0  0  0
  -21.8818   -3.8146   23.4344 C   0  0  0  0  0  0
  -21.9201   -4.6959   22.3399 C   0  0  0  0  0  0
  -22.7734  -13.5170   21.1939 C   0  0  0  0  0  0
  -22.1664   -4.2136   21.0980 F   0  0  0  0  0  0
  -21.5641   -3.4542   25.7747 F   0  0  0  0  0  0
  -29.8000  -14.2089   20.2719 N   0  0  0  0  0  0
  -26.2770  -12.9596   20.3216 N   0  0  0  0  0  0
  -25.9352  -11.6672   20.5697 N   0  0  0  0  0  0
  -22.0402  -12.8127   22.0481 N   0  0  0  0  0  0
  -25.3948  -15.2021   20.4172 N   0  0  0  0  0  0
  -31.5628  -15.5172   20.1921 O   0  0  0  0  0  0
  -21.6658   -6.8876   21.4238 O   0  0  0  0  0  0
  -22.3405  -14.5470   20.6780 O   0  0  0  0  0  0
  -24.6810  -31.8028   23.1524 C   0  0  0  0  0  0
  -25.9399  -32.4482   23.8064 C   0  0  1  0  0  0
  -27.2262  -26.7348   20.2093 C   0  0  0  0  0  0
  -25.5991  -33.8309   24.1954 N   0  0  0  0  0  0
  -23.5058  -30.4047   21.5064 C   0  0  2  0  0  0
  -24.9622  -28.7508   20.1168 C   0  0  0  0  0  0
  -22.7763  -29.4321   22.4722 C   0  0  0  0  0  0
  -18.0338  -28.1421   22.8458 C   0  0  0  0  0  0
  -24.1495  -36.7160   23.2647 C   0  0  0  0  0  0
  -26.0850  -30.5472   21.4114 C   0  0  0  0  0  0
  -26.1505  -29.1148   20.7609 C   0  0  0  0  0  0
  -27.2696  -28.1338   20.7734 C   0  0  0  0  0  0
  -26.0032  -26.5693   19.5130 C   0  0  0  0  0  0
  -24.9256  -27.5040   19.4692 C   0  0  0  0  0  0
  -23.7565  -29.7022   20.1407 C   0  0  0  0  0  0
  -25.4147  -36.2907   24.0279 C   0  0  1  0  0  0
  -20.5971  -28.3767   23.1158 C   0  0  2  0  0  0
  -20.6802  -26.9431   22.5405 C   0  0  0  0  0  0
  -19.5775  -26.6367   21.5221 C   0  0  0  0  0  0
  -18.1957  -26.7948   22.1621 C   0  0  0  0  0  0
  -19.1602  -28.8918   23.2787 C   0  0  0  0  0  0
  -18.9511  -30.1504   23.8828 C   0  0  0  0  0  0
  -17.6492  -30.6598   24.0549 C   0  0  0  0  0  0
  -25.9125  -34.9295   23.4950 C   0  0  0  0  0  0
  -16.5385  -29.9082   23.6348 C   0  0  0  0  0  0
  -16.7318  -28.6501   23.0365 C   0  0  0  0  0  0
  -26.4585  -31.6506   25.0674 C   0  0  0  0  0  0
  -25.3651  -31.3813   26.1287 C   0  0  0  0  0  0
  -27.0504  -30.2850   24.6539 C   0  0  0  0  0  0
  -27.6044  -32.4360   25.7487 C   0  0  0  0  0  0
  -27.5571  -37.1735   24.8463 C   0  0  0  0  0  0
  -21.4410  -29.3022   22.3485 N   0  0  0  0  0  0
  -26.4275  -37.3670   23.9406 N   0  0  0  0  0  0
  -24.7805  -30.9507   22.0760 N   0  0  0  0  0  0
  -23.4227  -28.7920   23.3050 O   0  0  0  0  0  0
  -28.2055  -25.5418   20.2754 O   0  0  0  0  0  0
  -26.5764  -34.8873   22.4567 O   0  0  0  0  0  0
  -23.5832  -32.1085   23.6494 O   0  0  0  0  0  0
  -28.2020  -19.0340   18.1816 C   0  0  0  0  0  0
  -29.2975  -19.4923   19.1202 C   0  0  1  0  0  0
  -28.8307  -20.3059   20.3191 C   0  0  1  0  0  0
  -29.7624  -18.6416   20.3197 C   0  0  1  0  0  0
  -28.7565  -20.7721   16.3717 C   0  0  0  0  0  0
  -29.8426  -22.4413   21.6378 C   0  0  0  0  0  0
  -28.0185  -23.8060   20.1889 C   0  0  0  0  0  0
  -27.6452  -20.0832   17.1927 C   0  0  1  0  0  0
  -29.0575  -22.1938   20.3458 C   0  0  2  0  0  0
  -29.5487  -16.9059   20.3362 N   0  0  0  0  0  0
  -26.6804  -19.3893   16.3181 N   0  3  0  0  0  0
  -27.7652  -17.8781   18.2288 O   0  0  0  0  0  0
  -31.4234  -13.2825   19.1706 H   0  0  0  0  0  0
  -30.5671  -12.1748   20.1915 H   0  0  0  0  0  0
  -29.9845  -11.8018   17.7710 H   0  0  0  0  0  0
  -29.5191  -13.4774   17.6101 H   0  0  0  0  0  0
  -28.1195  -11.2955   19.1661 H   0  0  0  0  0  0
  -27.4438  -12.2727   17.8857 H   0  0  0  0  0  0
  -27.4669  -14.2312   19.2556 H   0  0  0  0  0  0
  -28.8662  -12.7177   21.5104 H   0  0  0  0  0  0
  -28.1968  -14.3265   21.6324 H   0  0  0  0  0  0
  -25.2782   -9.5695   22.4757 H   0  0  0  0  0  0
  -24.0025   -7.4644   22.7467 H   0  0  0  0  0  0
  -21.0874   -8.8766   19.8937 H   0  0  0  0  0  0
  -22.3714  -10.9670   19.6165 H   0  0  0  0  0  0
  -21.1994   -7.6136   23.9701 H   0  0  0  0  0  0
  -21.1505   -6.0518   25.9067 H   0  0  0  0  0  0
  -22.0589   -2.7606   23.2855 H   0  0  0  0  0  0
  -22.4055  -11.9805   22.4861 H   0  0  0  0  0  0
  -21.1000  -13.1107   22.2669 H   0  0  0  0  0  0
  -24.6213  -15.8509   20.5120 H   0  0  0  0  0  0
  -26.2227  -15.6342   20.0294 H   0  0  0  0  0  0
  -26.7483  -32.4970   23.0782 H   0  0  0  0  0  0
  -25.0065  -33.9363   25.0057 H   0  0  0  0  0  0
  -22.8281  -31.2407   21.3181 H   0  0  0  0  0  0
  -23.3784  -35.9459   23.3250 H   0  0  0  0  0  0
  -24.3561  -36.8880   22.2071 H   0  0  0  0  0  0
  -23.7223  -37.6310   23.6763 H   0  0  0  0  0  0
  -26.2845  -31.2751   20.6241 H   0  0  0  0  0  0
  -26.9376  -30.6144   22.0746 H   0  0  0  0  0  0
  -28.1669  -28.4177   21.3043 H   0  0  0  0  0  0
  -25.8423  -25.6230   19.0168 H   0  0  0  0  0  0
  -24.0276  -27.2189   18.9382 H   0  0  0  0  0  0
  -23.9263  -30.4617   19.3771 H   0  0  0  0  0  0
  -22.8635  -29.1640   19.8189 H   0  0  0  0  0  0
  -25.1355  -36.1669   25.0770 H   0  0  0  0  0  0
  -21.0051  -28.3388   24.1287 H   0  0  0  0  0  0
  -20.5665  -26.2394   23.3662 H   0  0  0  0  0  0
  -21.6666  -26.7374   22.1225 H   0  0  0  0  0  0
  -19.6925  -25.6260   21.1297 H   0  0  0  0  0  0
  -19.6723  -27.3143   20.6723 H   0  0  0  0  0  0
  -17.4229  -26.6697   21.4022 H   0  0  0  0  0  0
  -18.0342  -26.0113   22.9035 H   0  0  0  0  0  0
  -19.7982  -30.7339   24.2174 H   0  0  0  0  0  0
  -17.5043  -31.6276   24.5156 H   0  0  0  0  0  0
  -15.5382  -30.2952   23.7710 H   0  0  0  0  0  0
  -15.8727  -28.0794   22.7118 H   0  0  0  0  0  0
  -24.5850  -30.7160   25.7571 H   0  0  0  0  0  0
  -24.8828  -32.3034   26.4542 H   0  0  0  0  0  0
  -25.7825  -30.9070   27.0178 H   0  0  0  0  0  0
  -26.3201  -29.6479   24.1541 H   0  0  0  0  0  0
  -27.3961  -29.7284   25.5260 H   0  0  0  0  0  0
  -27.9181  -30.3989   24.0038 H   0  0  0  0  0  0
  -27.2592  -33.3731   26.1871 H   0  0  0  0  0  0
  -28.3951  -32.6807   25.0381 H   0  0  0  0  0  0
  -28.0608  -31.8613   26.5555 H   0  0  0  0  0  0
  -28.2543  -38.0072   24.7534 H   0  0  0  0  0  0
  -28.1112  -36.2595   24.6266 H   0  0  0  0  0  0
  -27.2290  -37.1346   25.8866 H   0  0  0  0  0  0
  -20.9707  -29.8698   21.6570 H   0  0  0  0  0  0
  -26.0101  -38.2713   24.1440 H   0  0  0  0  0  0
  -30.1307  -19.9343   18.5792 H   0  0  0  0  0  0
  -27.8315  -20.1106   20.7048 H   0  0  0  0  0  0
  -30.7769  -18.8456   20.6578 H   0  0  0  0  0  0
  -29.3758  -21.4096   17.0030 H   0  0  0  0  0  0
  -28.3338  -21.4191   15.6023 H   0  0  0  0  0  0
  -29.4104  -20.0514   15.8790 H   0  0  0  0  0  0
  -30.6679  -21.7358   21.7428 H   0  0  0  0  0  0
  -29.1959  -22.3320   22.5084 H   0  0  0  0  0  0
  -30.2643  -23.4476   21.6588 H   0  0  0  0  0  0
  -27.2226  -23.6506   20.9174 H   0  0  0  0  0  0
  -27.5122  -23.6833   19.2306 H   0  0  0  0  0  0
  -27.1013  -20.8393   17.7582 H   0  0  0  0  0  0
  -29.7796  -22.3351   19.5404 H   0  0  0  0  0  0
  -28.5620  -16.6876   20.3544 H   0  0  0  0  0  0
  -27.1429  -18.6612   15.8031 H   0  0  0  0  0  0
  -26.2310  -20.0224   15.6821 H   0  0  0  0  0  0
  -25.9824  -18.9502   16.8917 H   0  0  0  0  0  0
  1 25  1  0  0  0
  1 30  2  0  0  0
  1 80  1  0  0  0
  2  3  1  0  0  0
  2 25  1  0  0  0
  2 83  1  0  0  0
  2 84  1  0  0  0
  3  4  1  0  0  0
  3 85  1  0  0  0
  3 86  1  0  0  0
  4  5  1  0  0  0
  4 87  1  0  0  0
  4 88  1  0  0  0
  5  6  1  0  0  0
  5 26  1  0  0  0
  5 89  1  0  0  0
  6 25  1  0  0  0
  6 90  1  0  0  0
  6 91  1  0  0  0
  7  8  2  0  0  0
  7 26  1  0  0  0
  7 29  1  0  0  0
  8  9  1  0  0  0
  8 22  1  0  0  0
  9 10  1  0  0  0
  9 27  2  0  0  0
 10 11  2  0  0  0
 10 15  1  0  0  0
 11 12  1  0  0  0
 11 92  1  0  0  0
 12 13  2  0  0  0
 12 93  1  0  0  0
 13 14  1  0  0  0
 13 31  1  0  0  0
 14 15  2  0  0  0
 14 94  1  0  0  0
 15 95  1  0  0  0
 16 17  2  0  0  0
 16 21  1  0  0  0
 16 31  1  0  0  0
 17 18  1  0  0  0
 17 96  1  0  0  0
 18 19  2  0  0  0
 18 97  1  0  0  0
 19 20  1  0  0  0
 19 24  1  0  0  0
 20 21  2  0  0  0
 20 98  1  0  0  0
 21 23  1  0  0  0
 22 28  1  0  0  0
 22 32  2  0  0  0
 26 27  1  0  0  0
 28 99  1  0  0  0
 28100  1  0  0  0
 29101  1  0  0  0
 29102  1  0  0  0
 33 34  1  0  0  0
 33 66  1  0  0  0
 33 70  2  0  0  0
 34 36  1  0  0  0
 34 59  1  0  0  0
 34103  1  0  0  0
 35 44  2  0  0  0
 35 45  1  0  0  0
 35 68  1  0  0  0
 36 56  1  0  0  0
 36104  1  0  0  0
 37 39  1  0  0  0
 37 47  1  0  0  0
 37 66  1  0  0  0
 37105  1  0  0  0
 38 43  2  0  0  0
 38 46  1  0  0  0
 38 47  1  0  0  0
 39 64  1  0  0  0
 39 67  2  0  0  0
 40 52  1  0  0  0
 40 53  2  0  0  0
 40 58  1  0  0  0
 41106  1  0  0  0
 41107  1  0  0  0
 41108  1  0  0  0
 41 48  1  0  0  0
 42 43  1  0  0  0
 42 66  1  0  0  0
 42109  1  0  0  0
 42110  1  0  0  0
 43 44  1  0  0  0
 44111  1  0  0  0
 45 46  2  0  0  0
 45112  1  0  0  0
 46113  1  0  0  0
 47114  1  0  0  0
 47115  1  0  0  0
 48 56  1  0  0  0
 48 65  1  0  0  0
 48116  1  0  0  0
 49 50  1  0  0  0
 49 53  1  0  0  0
 49 64  1  0  0  0
 49117  1  0  0  0
 50 51  1  0  0  0
 50118  1  0  0  0
 50119  1  0  0  0
 51 52  1  0  0  0
 51120  1  0  0  0
 51121  1  0  0  0
 52122  1  0  0  0
 52123  1  0  0  0
 53 54  1  0  0  0
 54 55  2  0  0  0
 54124  1  0  0  0
 55 57  1  0  0  0
 55125  1  0  0  0
 56 69  2  0  0  0
 57 58  2  0  0  0
 57126  1  0  0  0
 58127  1  0  0  0
 59 60  1  0  0  0
 59 61  1  0  0  0
 59 62  1  0  0  0
 60128  1  0  0  0
 60129  1  0  0  0
 60130  1  0  0  0
 61131  1  0  0  0
 61132  1  0  0  0
 61133  1  0  0  0
 62134  1  0  0  0
 62135  1  0  0  0
 62136  1  0  0  0
 63 65  1  0  0  0
 63137  1  0  0  0
 63138  1  0  0  0
 63139  1  0  0  0
 64140  1  0  0  0
 65141  1  0  0  0
 68 77  1  0  0  0
 71 78  1  0  0  0
 71 82  2  0  0  0
 71 72  1  0  0  0
 72 73  1  0  0  0
 72 74  1  0  0  0
 72142  1  0  0  0
 73 74  1  0  0  0
 73 79  1  0  0  0
 73143  1  0  0  0
 74 80  1  0  0  0
 74144  1  0  0  0
 75145  1  0  0  0
 75146  1  0  0  0
 75147  1  0  0  0
 75 78  1  0  0  0
 76148  1  0  0  0
 76149  1  0  0  0
 76150  1  0  0  0
 76 79  1  0  0  0
 77 79  1  0  0  0
 77151  1  0  0  0
 77152  1  0  0  0
 78 81  1  0  0  0
 78153  1  0  0  0
 79154  1  0  0  0
 80155  1  0  0  0
 81156  1  0  0  0
 81157  1  0  0  0
 81158  1  0  0  0
M  CHG  1  81   1
M  ISO  4   1 100  68 101  77 101  80 100
M  END
> <chiral flag>
0

> <version>
0

> <s_m_source_file>
/data/baiqing/PycharmProjects/Reinvent-master-3.2/result/LINK_invent/BTK/process_docking_weight1_custom_sum_contain_oxygen_bond_distance_aromatic_linkinvent_7_9_3/rearranged_h_0117.sdf

> <i_m_source_file_index>
2

> <r_mmod_Potential_Energy-OPLS-2005>
2019.4111328125

> <r_mmod_Stretch_Energy-OPLS-2005>
1108.96936035156

> <r_mmod_Bend_Energy-OPLS-2005>
585.754028320312

> <r_mmod_Torsional_Energy-OPLS-2005>
269.879272460938

> <r_mmod_Improper_Torsional_Energy-OPLS-2005>
4.23561000823975

> <r_mmod_Van_der_Waal_Energy-OPLS-2005>
107.013336181641

> <r_mmod_Electrostatic_Energy-OPLS-2005>
-343.476867675781

> <r_mmod_Solvation_Energy-OPLS-2005>
-527.035949707031

> <b_mmod_Minimization_Converged-OPLS-2005>
0

> <r_mmod_RMS_Derivative-OPLS-2005>
1.78412234783173

$$$$
2
                    3D
 Structure written by MMmdl.
168176  0  0  1  0            999 V2000
  -30.7707  -14.3703   20.6773 C   0  0  0  0  0  0
  -30.4091  -12.2909   19.3994 C   0  0  0  0  0  0
  -29.4830  -12.5303   18.1932 C   0  0  0  0  0  0
  -28.0053  -12.3939   18.6032 C   0  0  0  0  0  0
  -27.6620  -13.2109   19.8763 C   0  0  2  0  0  0
  -28.6997  -12.9606   20.9926 C   0  0  0  0  0  0
  -25.2568  -13.8177   20.5658 C   0  0  0  0  0  0
  -24.1824  -13.0436   20.9148 C   0  0  0  0  0  0
  -24.6379  -11.6904   20.8691 C   0  0  0  0  0  0
  -23.9049  -10.4287   21.0375 C   0  0  0  0  0  0
  -24.3605   -9.4207   21.9159 C   0  0  0  0  0  0
  -23.6281   -8.2246   22.0757 C   0  0  0  0  0  0
  -22.4272   -8.0271   21.3541 C   0  0  0  0  0  0
  -21.9887   -9.0251   20.4659 C   0  0  0  0  0  0
  -22.7214  -10.2123   20.3041 C   0  0  0  0  0  0
  -21.6870   -6.0708   22.5277 C   0  0  0  0  0  0
  -21.4030   -6.5616   23.8209 C   0  0  0  0  0  0
  -21.3662   -5.6783   24.9179 C   0  0  0  0  0  0
  -21.6051   -4.3049   24.7237 C   0  0  0  0  0  0
  -21.8824   -3.8123   23.4363 C   0  0  0  0  0  0
  -21.9211   -4.6932   22.3408 C   0  0  0  0  0  0
  -22.7844  -13.5229   21.1829 C   0  0  0  0  0  0
  -22.1671   -4.2101   21.0992 F   0  0  0  0  0  0
  -21.5620   -3.4540   25.7756 F   0  0  0  0  0  0
  -30.0440  -13.2451   20.4553 N   0  0  0  0  0  0
  -26.3017  -12.9353   20.3346 N   0  0  0  0  0  0
  -25.9310  -11.6504   20.5707 N   0  0  0  0  0  0
  -22.0490  -12.8215   22.0395 N   0  0  0  0  0  0
  -25.4308  -15.1883   20.4116 N   0  0  0  0  0  0
  -31.8082  -14.6436   20.0611 O   0  0  0  0  0  0
  -21.6660   -6.8847   21.4235 O   0  0  0  0  0  0
  -22.3537  -14.5541   20.6690 O   0  0  0  0  0  0
  -24.6148  -31.8681   23.2104 C   0  0  0  0  0  0
  -25.9055  -32.4808   23.8380 C   0  0  1  0  0  0
  -27.2414  -27.4471   20.0670 C   0  0  0  0  0  0
  -25.5930  -33.8603   24.2322 N   0  0  0  0  0  0
  -23.3978  -30.4941   21.5536 C   0  0  2  0  0  0
  -24.8399  -28.9558   20.1213 C   0  0  0  0  0  0
  -22.7390  -29.4681   22.5022 C   0  0  0  0  0  0
  -18.0268  -28.1374   22.8502 C   0  0  0  0  0  0
  -24.1488  -36.7307   23.2627 C   0  0  0  0  0  0
  -25.9256  -30.8365   21.3589 C   0  0  0  0  0  0
  -26.0018  -29.4696   20.7084 C   0  0  0  0  0  0
  -27.1993  -28.7210   20.6792 C   0  0  0  0  0  0
  -26.0461  -26.9341   19.5034 C   0  0  0  0  0  0
  -24.8554  -27.6841   19.5253 C   0  0  0  0  0  0
  -23.6029  -29.8238   20.1690 C   0  0  0  0  0  0
  -25.4104  -36.3081   24.0323 C   0  0  1  0  0  0
  -20.5852  -28.3674   23.1326 C   0  0  2  0  0  0
  -20.6764  -26.9413   22.5427 C   0  0  0  0  0  0
  -19.5741  -26.6397   21.5222 C   0  0  0  0  0  0
  -18.1917  -26.7922   22.1634 C   0  0  0  0  0  0
  -19.1514  -28.8842   23.2912 C   0  0  0  0  0  0
  -18.9454  -30.1447   23.8928 C   0  0  0  0  0  0
  -17.6459  -30.6590   24.0566 C   0  0  0  0  0  0
  -25.9043  -34.9457   23.5113 C   0  0  0  0  0  0
  -16.5349  -29.9093   23.6316 C   0  0  0  0  0  0
  -16.7263  -28.6502   23.0351 C   0  0  0  0  0  0
  -26.4500  -31.6573   25.0692 C   0  0  0  0  0  0
  -25.3788  -31.3699   26.1458 C   0  0  0  0  0  0
  -27.0318  -30.3008   24.6050 C   0  0  0  0  0  0
  -27.6056  -32.4295   25.7482 C   0  0  0  0  0  0
  -27.5575  -37.1806   24.8466 C   0  0  0  0  0  0
  -21.4123  -29.3042   22.3742 N   0  0  0  0  0  0
  -26.4286  -37.3767   23.9406 N   0  0  0  0  0  0
  -24.6646  -31.0798   22.1001 N   0  0  0  0  0  0
  -23.4172  -28.8230   23.3063 O   0  0  0  0  0  0
  -28.4638  -26.7983   20.0272 O   0  0  0  0  0  0
  -26.5593  -34.8917   22.4664 O   0  0  0  0  0  0
  -23.5357  -32.1457   23.7512 O   0  0  0  0  0  0
  -29.5472  -19.6525   22.9627 C   0  0  0  0  0  0
  -30.3623  -18.5091   22.9825 C   0  0  0  0  0  0
  -28.6009  -19.8173   21.9279 C   0  0  0  0  0  0
  -28.5212  -18.7954   20.9443 C   0  0  0  0  0  0
  -30.1914  -17.5458   21.9818 C   0  0  0  0  0  0
  -28.2814  -19.5092   18.5309 C   0  0  0  0  0  0
  -29.9046  -25.3118   18.8234 C   0  0  0  0  0  0
  -27.6581  -21.0255   21.9906 C   0  0  0  0  0  0
  -27.5952  -18.8542   19.7369 C   0  0  0  0  0  0
  -28.3523  -23.0306   20.6130 C   0  0  0  0  0  0
  -28.5044  -24.5458   20.8694 C   0  0  1  0  0  0
  -28.5819  -25.4328   19.6025 C   0  0  1  0  0  0
  -29.2992  -17.6884   20.9829 N   0  0  0  0  0  0
  -29.6849  -24.7845   21.6862 N   0  0  0  0  0  0
  -30.9353  -16.3691   22.0086 N   0  0  0  0  0  0
  -30.3129  -15.1633   21.6501 N   0  0  0  0  0  0
  -28.3279  -22.3430   21.9200 N   0  3  0  0  0  0
  -31.4551  -12.3770   19.1001 H   0  0  0  0  0  0
  -30.2950  -11.2723   19.7722 H   0  0  0  0  0  0
  -29.7137  -11.8224   17.3962 H   0  0  0  0  0  0
  -29.6595  -13.5251   17.7810 H   0  0  0  0  0  0
  -27.7997  -11.3355   18.7682 H   0  0  0  0  0  0
  -27.3597  -12.7025   17.7805 H   0  0  0  0  0  0
  -27.7138  -14.2640   19.5978 H   0  0  0  0  0  0
  -28.6573  -11.9213   21.3229 H   0  0  0  0  0  0
  -28.4479  -13.5507   21.8735 H   0  0  0  0  0  0
  -25.2748   -9.5692   22.4725 H   0  0  0  0  0  0
  -23.9994   -7.4640   22.7477 H   0  0  0  0  0  0
  -21.0813   -8.8773   19.8955 H   0  0  0  0  0  0
  -22.3674  -10.9655   19.6150 H   0  0  0  0  0  0
  -21.2021   -7.6127   23.9689 H   0  0  0  0  0  0
  -21.1481   -6.0520   25.9072 H   0  0  0  0  0  0
  -22.0598   -2.7575   23.2895 H   0  0  0  0  0  0
  -22.4139  -11.9904   22.4795 H   0  0  0  0  0  0
  -21.1097  -13.1211   22.2583 H   0  0  0  0  0  0
  -26.3045  -15.6226   20.1428 H   0  0  0  0  0  0
  -24.6712  -15.8497   20.5258 H   0  0  0  0  0  0
  -26.7112  -32.5517   23.1133 H   0  0  0  0  0  0
  -25.0105  -33.9763   25.0481 H   0  0  0  0  0  0
  -22.6859  -31.3108   21.4152 H   0  0  0  0  0  0
  -23.3723  -35.9668   23.3308 H   0  0  0  0  0  0
  -24.3589  -36.8910   22.2041 H   0  0  0  0  0  0
  -23.7287  -37.6530   23.6644 H   0  0  0  0  0  0
  -26.0299  -31.6025   20.5890 H   0  0  0  0  0  0
  -26.8167  -30.8913   21.9735 H   0  0  0  0  0  0
  -28.0999  -29.1230   21.1221 H   0  0  0  0  0  0
  -25.9889  -25.9708   19.0236 H   0  0  0  0  0  0
  -23.9579  -27.2779   19.0779 H   0  0  0  0  0  0
  -23.7123  -30.5984   19.4080 H   0  0  0  0  0  0
  -22.7245  -29.2461   19.8750 H   0  0  0  0  0  0
  -25.1283  -36.1923   25.0815 H   0  0  0  0  0  0
  -20.9952  -28.3248   24.1443 H   0  0  0  0  0  0
  -20.5675  -26.2286   23.3617 H   0  0  0  0  0  0
  -21.6632  -26.7474   22.1213 H   0  0  0  0  0  0
  -19.6902  -25.6318   21.1229 H   0  0  0  0  0  0
  -19.6657  -27.3228   20.6765 H   0  0  0  0  0  0
  -17.4188  -26.6684   21.4030 H   0  0  0  0  0  0
  -18.0312  -26.0058   22.9027 H   0  0  0  0  0  0
  -19.7939  -30.7240   24.2315 H   0  0  0  0  0  0
  -17.5023  -31.6270   24.5160 H   0  0  0  0  0  0
  -15.5347  -30.3006   23.7624 H   0  0  0  0  0  0
  -15.8665  -28.0823   22.7059 H   0  0  0  0  0  0
  -24.5949  -30.7039   25.7843 H   0  0  0  0  0  0
  -24.9008  -32.2873   26.4905 H   0  0  0  0  0  0
  -25.8180  -30.8896   27.0206 H   0  0  0  0  0  0
  -26.2865  -29.6787   24.1080 H   0  0  0  0  0  0
  -27.4066  -29.7219   25.4498 H   0  0  0  0  0  0
  -27.8703  -30.4313   23.9199 H   0  0  0  0  0  0
  -27.2628  -33.3554   26.2111 H   0  0  0  0  0  0
  -28.3862  -32.6928   25.0332 H   0  0  0  0  0  0
  -28.0718  -31.8386   26.5378 H   0  0  0  0  0  0
  -28.2582  -38.0104   24.7481 H   0  0  0  0  0  0
  -28.1081  -36.2636   24.6320 H   0  0  0  0  0  0
  -27.2306  -37.1484   25.8873 H   0  0  0  0  0  0
  -20.9290  -29.8758   21.6955 H   0  0  0  0  0  0
  -26.0164  -38.2835   24.1408 H   0  0  0  0  0  0
  -29.6439  -20.3910   23.7468 H   0  0  0  0  0  0
  -31.0814  -18.3688   23.7779 H   0  0  0  0  0  0
  -27.6130  -19.5456   17.6704 H   0  0  0  0  0  0
  -29.1685  -18.9458   18.2400 H   0  0  0  0  0  0
  -28.5987  -20.5262   18.7565 H   0  0  0  0  0  0
  -30.7674  -25.6396   19.4047 H   0  0  0  0  0  0
  -29.8724  -25.9284   17.9250 H   0  0  0  0  0  0
  -30.0867  -24.2868   18.5015 H   0  0  0  0  0  0
  -27.1723  -20.9735   22.9662 H   0  0  0  0  0  0
  -26.8389  -20.9812   21.2765 H   0  0  0  0  0  0
  -26.6550  -19.3483   19.9692 H   0  0  0  0  0  0
  -27.3085  -17.8380   19.4608 H   0  0  0  0  0  0
  -29.1536  -22.6277   19.9905 H   0  0  0  0  0  0
  -27.4156  -22.8575   20.0812 H   0  0  0  0  0  0
  -27.6341  -24.8684   21.4438 H   0  0  0  0  0  0
  -27.8081  -25.1313   18.9026 H   0  0  0  0  0  0
  -29.6684  -25.7703   21.9312 H   0  0  0  0  0  0
  -30.4926  -24.7206   21.0742 H   0  0  0  0  0  0
  -31.6729  -16.3061   22.7014 H   0  0  0  0  0  0
  -29.4546  -14.9529   22.1392 H   0  0  0  0  0  0
  -27.8256  -22.9695   22.5287 H   0  0  0  0  0  0
  -29.2693  -22.3225   22.2764 H   0  0  0  0  0  0
  1 25  1  0  0  0
  1 30  2  0  0  0
  1 86  1  0  0  0
  2  3  1  0  0  0
  2 25  1  0  0  0
  2 88  1  0  0  0
  2 89  1  0  0  0
  3  4  1  0  0  0
  3 90  1  0  0  0
  3 91  1  0  0  0
  4  5  1  0  0  0
  4 92  1  0  0  0
  4 93  1  0  0  0
  5  6  1  0  0  0
  5 26  1  0  0  0
  5 94  1  0  0  0
  6 25  1  0  0  0
  6 95  1  0  0  0
  6 96  1  0  0  0
  7  8  2  0  0  0
  7 26  1  0  0  0
  7 29  1  0  0  0
  8  9  1  0  0  0
  8 22  1  0  0  0
  9 10  1  0  0  0
  9 27  2  0  0  0
 10 11  2  0  0  0
 10 15  1  0  0  0
 11 12  1  0  0  0
 11 97  1  0  0  0
 12 13  2  0  0  0
 12 98  1  0  0  0
 13 14  1  0  0  0
 13 31  1  0  0  0
 14 15  2  0  0  0
 14 99  1  0  0  0
 15100  1  0  0  0
 16 17  2  0  0  0
 16 21  1  0  0  0
 16 31  1  0  0  0
 17 18  1  0  0  0
 17101  1  0  0  0
 18 19  2  0  0  0
 18102  1  0  0  0
 19 20  1  0  0  0
 19 24  1  0  0  0
 20 21  2  0  0  0
 20103  1  0  0  0
 21 23  1  0  0  0
 22 28  1  0  0  0
 22 32  2  0  0  0
 26 27  1  0  0  0
 28104  1  0  0  0
 28105  1  0  0  0
 29106  1  0  0  0
 29107  1  0  0  0
 33 34  1  0  0  0
 33 66  1  0  0  0
 33 70  2  0  0  0
 34 36  1  0  0  0
 34 59  1  0  0  0
 34108  1  0  0  0
 35 44  2  0  0  0
 35 45  1  0  0  0
 35 68  1  0  0  0
 36 56  1  0  0  0
 36109  1  0  0  0
 37 39  1  0  0  0
 37 47  1  0  0  0
 37 66  1  0  0  0
 37110  1  0  0  0
 38 43  2  0  0  0
 38 46  1  0  0  0
 38 47  1  0  0  0
 39 64  1  0  0  0
 39 67  2  0  0  0
 40 52  1  0  0  0
 40 53  2  0  0  0
 40 58  1  0  0  0
 41111  1  0  0  0
 41112  1  0  0  0
 41113  1  0  0  0
 41 48  1  0  0  0
 42 43  1  0  0  0
 42 66  1  0  0  0
 42114  1  0  0  0
 42115  1  0  0  0
 43 44  1  0  0  0
 44116  1  0  0  0
 45 46  2  0  0  0
 45117  1  0  0  0
 46118  1  0  0  0
 47119  1  0  0  0
 47120  1  0  0  0
 48 56  1  0  0  0
 48 65  1  0  0  0
 48121  1  0  0  0
 49 50  1  0  0  0
 49 53  1  0  0  0
 49 64  1  0  0  0
 49122  1  0  0  0
 50 51  1  0  0  0
 50123  1  0  0  0
 50124  1  0  0  0
 51 52  1  0  0  0
 51125  1  0  0  0
 51126  1  0  0  0
 52127  1  0  0  0
 52128  1  0  0  0
 53 54  1  0  0  0
 54 55  2  0  0  0
 54129  1  0  0  0
 55 57  1  0  0  0
 55130  1  0  0  0
 56 69  2  0  0  0
 57 58  2  0  0  0
 57131  1  0  0  0
 58132  1  0  0  0
 59 60  1  0  0  0
 59 61  1  0  0  0
 59 62  1  0  0  0
 60133  1  0  0  0
 60134  1  0  0  0
 60135  1  0  0  0
 61136  1  0  0  0
 61137  1  0  0  0
 61138  1  0  0  0
 62139  1  0  0  0
 62140  1  0  0  0
 62141  1  0  0  0
 63 65  1  0  0  0
 63142  1  0  0  0
 63143  1  0  0  0
 63144  1  0  0  0
 64145  1  0  0  0
 65146  1  0  0  0
 68 82  1  0  0  0
 71 72  2  0  0  0
 71 73  1  0  0  0
 71147  1  0  0  0
 72 75  1  0  0  0
 72148  1  0  0  0
 73 74  2  0  0  0
 73 78  1  0  0  0
 74 79  1  0  0  0
 74 83  1  0  0  0
 75 83  2  0  0  0
 75 85  1  0  0  0
 76 79  1  0  0  0
 76149  1  0  0  0
 76150  1  0  0  0
 76151  1  0  0  0
 77152  1  0  0  0
 77153  1  0  0  0
 77154  1  0  0  0
 77 82  1  0  0  0
 78 87  1  0  0  0
 78155  1  0  0  0
 78156  1  0  0  0
 79157  1  0  0  0
 79158  1  0  0  0
 80 81  1  0  0  0
 80 87  1  0  0  0
 80159  1  0  0  0
 80160  1  0  0  0
 81 82  1  0  0  0
 81 84  1  0  0  0
 81161  1  0  0  0
 82162  1  0  0  0
 84163  1  0  0  0
 84164  1  0  0  0
 85 86  1  0  0  0
 85165  1  0  0  0
 86166  1  0  0  0
 87167  1  0  0  0
 87168  1  0  0  0
M  CHG  1  87   1
M  ISO  4   1 100  68 101  82 101  86 100
M  END
> <chiral flag>
0

> <version>
0

> <s_m_source_file>
/data/baiqing/PycharmProjects/Reinvent-master-3.2/result/LINK_invent/BTK/process_docking_weight1_custom_sum_contain_oxygen_bond_distance_aromatic_linkinvent_7_9_3/rearranged_h_0117.sdf

> <i_m_source_file_index>
3

> <r_mmod_Potential_Energy-OPLS-2005>
-564.122253417969

> <r_mmod_Stretch_Energy-OPLS-2005>
34.8802795410156

> <r_mmod_Bend_Energy-OPLS-2005>
116.650588989258

> <r_mmod_Torsional_Energy-OPLS-2005>
205.017730712891

> <r_mmod_Improper_Torsional_Energy-OPLS-2005>
4.32765579223633

> <r_mmod_Van_der_Waal_Energy-OPLS-2005>
161.608734130859

> <r_mmod_Electrostatic_Energy-OPLS-2005>
-626.174987792969

> <r_mmod_Solvation_Energy-OPLS-2005>
-468.894927978516

> <b_mmod_Minimization_Converged-OPLS-2005>
0

> <r_mmod_RMS_Derivative-OPLS-2005>
2.49457931518555

$$$$
3
                    3D
 Structure written by MMmdl.
170178  0  0  1  0            999 V2000
  -30.7373  -14.4070   20.5896 C   0  0  0  0  0  0
  -30.4190  -12.2661   19.4168 C   0  0  0  0  0  0
  -29.4985  -12.4994   18.2015 C   0  0  0  0  0  0
  -28.0193  -12.3496   18.6112 C   0  0  0  0  0  0
  -27.6649  -13.1958   19.8643 C   0  0  2  0  0  0
  -28.6991  -12.9581   20.9867 C   0  0  0  0  0  0
  -25.2586  -13.8143   20.5641 C   0  0  0  0  0  0
  -24.1812  -13.0444   20.9140 C   0  0  0  0  0  0
  -24.6340  -11.6895   20.8666 C   0  0  0  0  0  0
  -23.8992  -10.4280   21.0358 C   0  0  0  0  0  0
  -24.3559   -9.4210   21.9151 C   0  0  0  0  0  0
  -23.6263   -8.2232   22.0744 C   0  0  0  0  0  0
  -22.4233   -8.0267   21.3551 C   0  0  0  0  0  0
  -21.9845   -9.0221   20.4647 C   0  0  0  0  0  0
  -22.7153  -10.2107   20.3032 C   0  0  0  0  0  0
  -21.6847   -6.0713   22.5278 C   0  0  0  0  0  0
  -21.4028   -6.5626   23.8217 C   0  0  0  0  0  0
  -21.3674   -5.6776   24.9187 C   0  0  0  0  0  0
  -21.6034   -4.3036   24.7228 C   0  0  0  0  0  0
  -21.8818   -3.8129   23.4351 C   0  0  0  0  0  0
  -21.9190   -4.6945   22.3402 C   0  0  0  0  0  0
  -22.7834  -13.5272   21.1831 C   0  0  0  0  0  0
  -22.1648   -4.2136   21.0979 F   0  0  0  0  0  0
  -21.5630   -3.4529   25.7741 F   0  0  0  0  0  0
  -30.0467  -13.2427   20.4483 N   0  0  0  0  0  0
  -26.3021  -12.9302   20.3268 N   0  0  0  0  0  0
  -25.9266  -11.6462   20.5648 N   0  0  0  0  0  0
  -22.0426  -12.8304   22.0390 N   0  0  0  0  0  0
  -25.4277  -15.1872   20.4065 N   0  0  0  0  0  0
  -31.8262  -14.6086   20.0375 O   0  0  0  0  0  0
  -21.6623   -6.8850   21.4236 O   0  0  0  0  0  0
  -22.3503  -14.5559   20.6662 O   0  0  0  0  0  0
  -24.6116  -31.8692   23.2153 C   0  0  0  0  0  0
  -25.9041  -32.4826   23.8414 C   0  0  1  0  0  0
  -27.2442  -27.4518   20.1109 C   0  0  0  0  0  0
  -25.5940  -33.8629   24.2381 N   0  0  0  0  0  0
  -23.3974  -30.4982   21.5484 C   0  0  2  0  0  0
  -24.8467  -28.9598   20.1195 C   0  0  0  0  0  0
  -22.7402  -29.4678   22.4953 C   0  0  0  0  0  0
  -18.0279  -28.1324   22.8503 C   0  0  0  0  0  0
  -24.1491  -36.7320   23.2638 C   0  0  0  0  0  0
  -25.9255  -30.8425   21.3675 C   0  0  0  0  0  0
  -26.0048  -29.4770   20.7152 C   0  0  0  0  0  0
  -27.2023  -28.7322   20.7080 C   0  0  0  0  0  0
  -26.0649  -26.9427   19.5148 C   0  0  0  0  0  0
  -24.8714  -27.6897   19.5186 C   0  0  0  0  0  0
  -23.6112  -29.8320   20.1611 C   0  0  0  0  0  0
  -25.4105  -36.3128   24.0348 C   0  0  1  0  0  0
  -20.5883  -28.3628   23.1307 C   0  0  2  0  0  0
  -20.6771  -26.9360   22.5407 C   0  0  0  0  0  0
  -19.5750  -26.6347   21.5199 C   0  0  0  0  0  0
  -18.1930  -26.7875   22.1616 C   0  0  0  0  0  0
  -19.1533  -28.8775   23.2919 C   0  0  0  0  0  0
  -18.9476  -30.1392   23.8917 C   0  0  0  0  0  0
  -17.6479  -30.6558   24.0536 C   0  0  0  0  0  0
  -25.9030  -34.9481   23.5151 C   0  0  0  0  0  0
  -16.5354  -29.9064   23.6311 C   0  0  0  0  0  0
  -16.7266  -28.6465   23.0350 C   0  0  0  0  0  0
  -26.4475  -31.6588   25.0715 C   0  0  0  0  0  0
  -25.3780  -31.3714   26.1495 C   0  0  0  0  0  0
  -27.0290  -30.3023   24.6101 C   0  0  0  0  0  0
  -27.6074  -32.4260   25.7471 C   0  0  0  0  0  0
  -27.5589  -37.1827   24.8463 C   0  0  0  0  0  0
  -21.4130  -29.3021   22.3722 N   0  0  0  0  0  0
  -26.4293  -37.3809   23.9416 N   0  0  0  0  0  0
  -24.6619  -31.0845   22.1017 N   0  0  0  0  0  0
  -23.4213  -28.8228   23.2967 O   0  0  0  0  0  0
  -28.4315  -26.7500   20.1184 O   0  0  0  0  0  0
  -26.5561  -34.8907   22.4699 O   0  0  0  0  0  0
  -23.5331  -32.1407   23.7602 O   0  0  0  0  0  0
  -30.3199  -18.6977   22.8372 C   0  0  0  0  0  0
  -30.6219  -19.4694   21.7000 C   0  0  0  0  0  0
  -30.2452  -17.2911   22.7097 C   0  0  0  0  0  0
  -30.8447  -18.8157   20.4736 C   0  0  0  0  0  0
  -30.4021  -16.7183   21.4249 C   0  0  0  0  0  0
  -30.5304  -22.0104   18.9280 C   0  0  0  0  0  0
  -29.7235  -16.9169   26.1698 C   0  0  0  0  0  0
  -28.1540  -15.4391   24.8374 C   0  0  0  0  0  0
  -31.3423  -19.5359   19.2177 C   0  0  0  0  0  0
  -31.6566  -21.0523   19.3434 C   0  0  0  0  0  0
  -28.5787  -24.6179   18.9048 C   0  0  0  0  0  0
  -30.0606  -24.4391   18.5127 C   0  0  0  0  0  0
  -28.3634  -25.3233   20.2518 C   0  0  0  0  0  0
  -29.0713  -16.6689   24.8067 C   0  0  0  0  0  0
  -30.7021  -17.4776   20.3419 N   0  0  0  0  0  0
  -30.1076  -16.4403   23.8206 N   0  0  0  0  0  0
  -30.1512  -15.3235   21.3595 N   0  0  0  0  0  0
  -30.7465  -23.3143   19.1628 N   0  0  0  0  0  0
  -29.5290  -21.5984   18.3394 O   0  0  0  0  0  0
  -31.4707  -12.3333   19.1273 H   0  0  0  0  0  0
  -30.2916  -11.2506   19.7994 H   0  0  0  0  0  0
  -29.7419  -11.7935   17.4060 H   0  0  0  0  0  0
  -29.6639  -13.4976   17.7893 H   0  0  0  0  0  0
  -27.8405  -11.2950   18.8240 H   0  0  0  0  0  0
  -27.3661  -12.6105   17.7774 H   0  0  0  0  0  0
  -27.7187  -14.2431   19.5661 H   0  0  0  0  0  0
  -28.6520  -11.9207   21.3189 H   0  0  0  0  0  0
  -28.4508  -13.5458   21.8701 H   0  0  0  0  0  0
  -25.2704   -9.5750   22.4714 H   0  0  0  0  0  0
  -24.0012   -7.4638   22.7469 H   0  0  0  0  0  0
  -21.0771   -8.8729   19.8945 H   0  0  0  0  0  0
  -22.3596  -10.9647   19.6143 H   0  0  0  0  0  0
  -21.2032   -7.6140   23.9735 H   0  0  0  0  0  0
  -21.1489   -6.0497   25.9097 H   0  0  0  0  0  0
  -22.0581   -2.7590   23.2838 H   0  0  0  0  0  0
  -22.4007  -12.0049   22.4952 H   0  0  0  0  0  0
  -21.1033  -13.1368   22.2514 H   0  0  0  0  0  0
  -24.6527  -15.8361   20.5060 H   0  0  0  0  0  0
  -26.2807  -15.6313   20.0919 H   0  0  0  0  0  0
  -26.7103  -32.5550   23.1172 H   0  0  0  0  0  0
  -25.0179  -33.9772   25.0589 H   0  0  0  0  0  0
  -22.6820  -31.3128   21.4139 H   0  0  0  0  0  0
  -23.3740  -35.9663   23.3301 H   0  0  0  0  0  0
  -24.3618  -36.8911   22.2053 H   0  0  0  0  0  0
  -23.7218  -37.6524   23.6627 H   0  0  0  0  0  0
  -26.0447  -31.6153   20.6063 H   0  0  0  0  0  0
  -26.8101  -30.8912   21.9914 H   0  0  0  0  0  0
  -28.0914  -29.1301   21.1782 H   0  0  0  0  0  0
  -26.0570  -25.9667   19.0511 H   0  0  0  0  0  0
  -23.9784  -27.2827   19.0622 H   0  0  0  0  0  0
  -23.7353  -30.6089   19.4045 H   0  0  0  0  0  0
  -22.7301  -29.2633   19.8577 H   0  0  0  0  0  0
  -25.1283  -36.2004   25.0836 H   0  0  0  0  0  0
  -21.0007  -28.3188   24.1409 H   0  0  0  0  0  0
  -20.5654  -26.2242   23.3607 H   0  0  0  0  0  0
  -21.6658  -26.7383   22.1223 H   0  0  0  0  0  0
  -19.6916  -25.6267   21.1208 H   0  0  0  0  0  0
  -19.6671  -27.3179   20.6755 H   0  0  0  0  0  0
  -17.4211  -26.6638   21.3988 H   0  0  0  0  0  0
  -18.0312  -25.9978   22.8986 H   0  0  0  0  0  0
  -19.7943  -30.7201   24.2308 H   0  0  0  0  0  0
  -17.5027  -31.6252   24.5120 H   0  0  0  0  0  0
  -15.5350  -30.2974   23.7602 H   0  0  0  0  0  0
  -15.8673  -28.0778   22.7058 H   0  0  0  0  0  0
  -24.5989  -30.6983   25.7906 H   0  0  0  0  0  0
  -24.8922  -32.2877   26.4870 H   0  0  0  0  0  0
  -25.8182  -30.8989   27.0297 H   0  0  0  0  0  0
  -26.2844  -29.6782   24.1148 H   0  0  0  0  0  0
  -27.4047  -29.7243   25.4563 H   0  0  0  0  0  0
  -27.8696  -30.4300   23.9267 H   0  0  0  0  0  0
  -27.2747  -33.3561   26.2090 H   0  0  0  0  0  0
  -28.3904  -32.6803   25.0315 H   0  0  0  0  0  0
  -28.0739  -31.8344   26.5359 H   0  0  0  0  0  0
  -28.2635  -38.0106   24.7530 H   0  0  0  0  0  0
  -28.1063  -36.2647   24.6276 H   0  0  0  0  0  0
  -27.2336  -37.1486   25.8875 H   0  0  0  0  0  0
  -20.9273  -29.8771   21.6985 H   0  0  0  0  0  0
  -26.0187  -38.2898   24.1377 H   0  0  0  0  0  0
  -30.2055  -19.1827   23.7973 H   0  0  0  0  0  0
  -30.7216  -20.5397   21.7972 H   0  0  0  0  0  0
  -28.9787  -17.0790   26.9503 H   0  0  0  0  0  0
  -30.3755  -17.7920   26.1424 H   0  0  0  0  0  0
  -30.3344  -16.0652   26.4730 H   0  0  0  0  0  0
  -27.3659  -15.5439   25.5828 H   0  0  0  0  0  0
  -28.7100  -14.5337   25.0829 H   0  0  0  0  0  0
  -27.6767  -15.2744   23.8717 H   0  0  0  0  0  0
  -30.6587  -19.3355   18.3917 H   0  0  0  0  0  0
  -32.2698  -19.0411   18.9280 H   0  0  0  0  0  0
  -32.0730  -21.3119   20.3164 H   0  0  0  0  0  0
  -32.4580  -21.2638   18.6356 H   0  0  0  0  0  0
  -28.0804  -23.6495   18.9206 H   0  0  0  0  0  0
  -28.0759  -25.1929   18.1272 H   0  0  0  0  0  0
  -30.6095  -25.3576   18.7279 H   0  0  0  0  0  0
  -30.1358  -24.3038   17.4329 H   0  0  0  0  0  0
  -29.1308  -25.0004   20.9566 H   0  0  0  0  0  0
  -27.4186  -25.0094   20.6959 H   0  0  0  0  0  0
  -28.4733  -17.5419   24.5382 H   0  0  0  0  0  0
  -30.3472  -15.4666   23.6617 H   0  0  0  0  0  0
  -29.3626  -15.0123   21.9038 H   0  0  0  0  0  0
  -31.5960  -23.5430   19.6634 H   0  0  0  0  0  0
  1 25  1  0  0  0
  1 30  2  0  0  0
  1 87  1  0  0  0
  2  3  1  0  0  0
  2 25  1  0  0  0
  2 90  1  0  0  0
  2 91  1  0  0  0
  3  4  1  0  0  0
  3 92  1  0  0  0
  3 93  1  0  0  0
  4  5  1  0  0  0
  4 94  1  0  0  0
  4 95  1  0  0  0
  5  6  1  0  0  0
  5 26  1  0  0  0
  5 96  1  0  0  0
  6 25  1  0  0  0
  6 97  1  0  0  0
  6 98  1  0  0  0
  7  8  2  0  0  0
  7 26  1  0  0  0
  7 29  1  0  0  0
  8  9  1  0  0  0
  8 22  1  0  0  0
  9 10  1  0  0  0
  9 27  2  0  0  0
 10 11  2  0  0  0
 10 15  1  0  0  0
 11 12  1  0  0  0
 11 99  1  0  0  0
 12 13  2  0  0  0
 12100  1  0  0  0
 13 14  1  0  0  0
 13 31  1  0  0  0
 14 15  2  0  0  0
 14101  1  0  0  0
 15102  1  0  0  0
 16 17  2  0  0  0
 16 21  1  0  0  0
 16 31  1  0  0  0
 17 18  1  0  0  0
 17103  1  0  0  0
 18 19  2  0  0  0
 18104  1  0  0  0
 19 20  1  0  0  0
 19 24  1  0  0  0
 20 21  2  0  0  0
 20105  1  0  0  0
 21 23  1  0  0  0
 22 28  1  0  0  0
 22 32  2  0  0  0
 26 27  1  0  0  0
 28106  1  0  0  0
 28107  1  0  0  0
 29108  1  0  0  0
 29109  1  0  0  0
 33 34  1  0  0  0
 33 66  1  0  0  0
 33 70  2  0  0  0
 34 36  1  0  0  0
 34 59  1  0  0  0
 34110  1  0  0  0
 35 44  2  0  0  0
 35 45  1  0  0  0
 35 68  1  0  0  0
 36 56  1  0  0  0
 36111  1  0  0  0
 37 39  1  0  0  0
 37 47  1  0  0  0
 37 66  1  0  0  0
 37112  1  0  0  0
 38 43  2  0  0  0
 38 46  1  0  0  0
 38 47  1  0  0  0
 39 64  1  0  0  0
 39 67  2  0  0  0
 40 52  1  0  0  0
 40 53  2  0  0  0
 40 58  1  0  0  0
 41113  1  0  0  0
 41114  1  0  0  0
 41115  1  0  0  0
 41 48  1  0  0  0
 42 43  1  0  0  0
 42 66  1  0  0  0
 42116  1  0  0  0
 42117  1  0  0  0
 43 44  1  0  0  0
 44118  1  0  0  0
 45 46  2  0  0  0
 45119  1  0  0  0
 46120  1  0  0  0
 47121  1  0  0  0
 47122  1  0  0  0
 48 56  1  0  0  0
 48 65  1  0  0  0
 48123  1  0  0  0
 49 50  1  0  0  0
 49 53  1  0  0  0
 49 64  1  0  0  0
 49124  1  0  0  0
 50 51  1  0  0  0
 50125  1  0  0  0
 50126  1  0  0  0
 51 52  1  0  0  0
 51127  1  0  0  0
 51128  1  0  0  0
 52129  1  0  0  0
 52130  1  0  0  0
 53 54  1  0  0  0
 54 55  2  0  0  0
 54131  1  0  0  0
 55 57  1  0  0  0
 55132  1  0  0  0
 56 69  2  0  0  0
 57 58  2  0  0  0
 57133  1  0  0  0
 58134  1  0  0  0
 59 60  1  0  0  0
 59 61  1  0  0  0
 59 62  1  0  0  0
 60135  1  0  0  0
 60136  1  0  0  0
 60137  1  0  0  0
 61138  1  0  0  0
 61139  1  0  0  0
 61140  1  0  0  0
 62141  1  0  0  0
 62142  1  0  0  0
 62143  1  0  0  0
 63 65  1  0  0  0
 63144  1  0  0  0
 63145  1  0  0  0
 63146  1  0  0  0
 64147  1  0  0  0
 65148  1  0  0  0
 68 83  1  0  0  0
 71 72  2  0  0  0
 71 73  1  0  0  0
 71149  1  0  0  0
 72 74  1  0  0  0
 72150  1  0  0  0
 73 75  2  0  0  0
 73 86  1  0  0  0
 74 79  1  0  0  0
 74 85  2  0  0  0
 75 85  1  0  0  0
 75 87  1  0  0  0
 76 80  1  0  0  0
 76 88  1  0  0  0
 76 89  2  0  0  0
 77151  1  0  0  0
 77152  1  0  0  0
 77153  1  0  0  0
 77 84  1  0  0  0
 78 84  1  0  0  0
 78154  1  0  0  0
 78155  1  0  0  0
 78156  1  0  0  0
 79 80  1  0  0  0
 79157  1  0  0  0
 79158  1  0  0  0
 80159  1  0  0  0
 80160  1  0  0  0
 81 82  1  0  0  0
 81 83  1  0  0  0
 81161  1  0  0  0
 81162  1  0  0  0
 82 88  1  0  0  0
 82163  1  0  0  0
 82164  1  0  0  0
 83165  1  0  0  0
 83166  1  0  0  0
 84 86  1  0  0  0
 84167  1  0  0  0
 86168  1  0  0  0
 87169  1  0  0  0
 88170  1  0  0  0
M  ISO  4   1 100  68 101  83 101  87 100
M  END
> <chiral flag>
0

> <version>
0

> <s_m_source_file>
/data/baiqing/PycharmProjects/Reinvent-master-3.2/result/LINK_invent/BTK/process_docking_weight1_custom_sum_contain_oxygen_bond_distance_aromatic_linkinvent_7_9_3/rearranged_h_0117.sdf

> <i_m_source_file_index>
4

> <r_mmod_Potential_Energy-OPLS-2005>
-362.993133544922

> <r_mmod_Stretch_Energy-OPLS-2005>
36.7145729064941

> <r_mmod_Bend_Energy-OPLS-2005>
118.010246276855

> <r_mmod_Torsional_Energy-OPLS-2005>
241.945678710938

> <r_mmod_Improper_Torsional_Energy-OPLS-2005>
6.09055614471436

> <r_mmod_Van_der_Waal_Energy-OPLS-2005>
161.622940063477

> <r_mmod_Electrostatic_Energy-OPLS-2005>
-680.314331054688

> <r_mmod_Solvation_Energy-OPLS-2005>
-256.959197998047

> <b_mmod_Minimization_Converged-OPLS-2005>
0

> <r_mmod_RMS_Derivative-OPLS-2005>
4.76659107208252

$$$$
4
                    3D
 Structure written by MMmdl.
186194  0  0  1  0            999 V2000
  -30.7085  -14.5056   20.6761 C   0  0  0  0  0  0
  -30.4208  -12.3499   19.4481 C   0  0  0  0  0  0
  -29.5070  -12.5191   18.2135 C   0  0  0  0  0  0
  -28.0266  -12.3474   18.6022 C   0  0  0  0  0  0
  -27.6537  -13.1817   19.8503 C   0  0  2  0  0  0
  -28.6757  -12.9940   20.9825 C   0  0  0  0  0  0
  -25.2527  -13.7784   20.5382 C   0  0  0  0  0  0
  -24.1800  -13.0191   20.9158 C   0  0  0  0  0  0
  -24.6366  -11.6660   20.8727 C   0  0  0  0  0  0
  -23.9010  -10.4108   21.0421 C   0  0  0  0  0  0
  -24.3585   -9.4045   21.9225 C   0  0  0  0  0  0
  -23.6231   -8.2109   22.0798 C   0  0  0  0  0  0
  -22.4224   -8.0181   21.3567 C   0  0  0  0  0  0
  -21.9845   -9.0133   20.4672 C   0  0  0  0  0  0
  -22.7175  -10.1996   20.3064 C   0  0  0  0  0  0
  -21.6767   -6.0676   22.5283 C   0  0  0  0  0  0
  -21.3954   -6.5607   23.8222 C   0  0  0  0  0  0
  -21.3656   -5.6798   24.9194 C   0  0  0  0  0  0
  -21.6049   -4.3053   24.7272 C   0  0  0  0  0  0
  -21.8798   -3.8117   23.4389 C   0  0  0  0  0  0
  -21.9166   -4.6909   22.3433 C   0  0  0  0  0  0
  -22.7877  -13.5108   21.1844 C   0  0  0  0  0  0
  -22.1645   -4.2105   21.1005 F   0  0  0  0  0  0
  -21.5655   -3.4539   25.7783 F   0  0  0  0  0  0
  -30.0173  -13.3374   20.4748 N   0  0  0  0  0  0
  -26.2970  -12.8996   20.3164 N   0  0  0  0  0  0
  -25.9281  -11.6192   20.5722 N   0  0  0  0  0  0
  -22.0504  -12.8131   22.0406 N   0  0  0  0  0  0
  -25.4181  -15.1318   20.3277 N   0  0  0  0  0  0
  -31.7780  -14.7232   20.0918 O   0  0  0  0  0  0
  -21.6566   -6.8782   21.4234 O   0  0  0  0  0  0
  -22.3615  -14.5493   20.6759 O   0  0  0  0  0  0
  -24.6188  -31.8624   23.2083 C   0  0  0  0  0  0
  -25.9116  -32.4761   23.8351 C   0  0  1  0  0  0
  -27.2572  -27.4187   20.0904 C   0  0  0  0  0  0
  -25.5920  -33.8541   24.2266 N   0  0  0  0  0  0
  -23.4039  -30.4883   21.5447 C   0  0  2  0  0  0
  -24.8530  -28.9400   20.1140 C   0  0  0  0  0  0
  -22.7368  -29.4675   22.4952 C   0  0  0  0  0  0
  -18.0178  -28.1336   22.8385 C   0  0  0  0  0  0
  -24.1487  -36.7307   23.2636 C   0  0  0  0  0  0
  -25.9316  -30.8249   21.3584 C   0  0  0  0  0  0
  -26.0125  -29.4552   20.7058 C   0  0  0  0  0  0
  -27.2089  -28.7003   20.6898 C   0  0  0  0  0  0
  -26.0776  -26.9206   19.4886 C   0  0  0  0  0  0
  -24.8837  -27.6716   19.5046 C   0  0  0  0  0  0
  -23.6200  -29.8139   20.1604 C   0  0  0  0  0  0
  -25.4097  -36.3022   24.0332 C   0  0  1  0  0  0
  -20.5781  -28.3679   23.1127 C   0  0  2  0  0  0
  -20.6799  -26.9540   22.4969 C   0  0  0  0  0  0
  -19.5588  -26.6180   21.5100 C   0  0  0  0  0  0
  -18.1771  -26.7913   22.1405 C   0  0  0  0  0  0
  -19.1402  -28.8793   23.2794 C   0  0  0  0  0  0
  -18.9328  -30.1362   23.8883 C   0  0  0  0  0  0
  -17.6311  -30.6481   24.0530 C   0  0  0  0  0  0
  -25.9041  -34.9430   23.5083 C   0  0  0  0  0  0
  -16.5210  -29.8992   23.6274 C   0  0  0  0  0  0
  -16.7133  -28.6441   23.0273 C   0  0  0  0  0  0
  -26.4557  -31.6536   25.0686 C   0  0  0  0  0  0
  -25.3843  -31.3714   26.1471 C   0  0  0  0  0  0
  -27.0424  -30.2957   24.6115 C   0  0  0  0  0  0
  -27.6071  -32.4281   25.7483 C   0  0  0  0  0  0
  -27.5552  -37.1813   24.8458 C   0  0  0  0  0  0
  -21.4066  -29.3202   22.3734 N   0  0  0  0  0  0
  -26.4243  -37.3748   23.9427 N   0  0  0  0  0  0
  -24.6691  -31.0755   22.0938 N   0  0  0  0  0  0
  -23.4102  -28.8158   23.2975 O   0  0  0  0  0  0
  -28.4539  -26.7158   20.1411 O   0  0  0  0  0  0
  -26.5589  -34.8907   22.4649 O   0  0  0  0  0  0
  -23.5405  -32.1296   23.7554 O   0  0  0  0  0  0
  -29.8881  -16.8798   20.7748 C   0  0  0  0  0  0
  -28.6636  -16.2602   23.2061 C   0  0  0  0  0  0
  -29.8994  -15.4314   22.8221 C   0  0  1  0  0  0
  -29.5836  -18.1118   21.7418 C   0  0  1  0  0  0
  -31.1816  -15.7440   23.6173 C   0  0  0  0  0  0
  -26.1006  -17.8544   21.3132 C   0  0  0  0  0  0
  -25.8942  -19.7496   19.6970 C   0  0  0  0  0  0
  -27.9666  -18.5992   25.2071 C   0  0  0  0  0  0
  -30.0103  -19.7155   24.2305 C   0  0  0  0  0  0
  -29.6380  -23.0858   19.6515 C   0  0  0  0  0  0
  -29.2309  -21.5762   19.6425 C   0  0  0  0  0  0
  -28.5703  -24.1441   20.1075 C   0  0  0  0  0  0
  -29.7902  -20.6237   20.7552 C   0  0  0  0  0  0
  -27.5673  -19.9039   21.6689 C   0  0  0  0  0  0
  -28.7102  -25.5227   19.3685 C   0  0  0  0  0  0
  -28.8869  -19.3655   21.0122 C   0  0  2  0  0  0
  -26.2228  -19.3547   21.1465 C   0  0  0  0  0  0
  -29.2052  -18.3981   24.2933 C   0  0  0  0  0  0
  -30.0865  -15.5143   21.3668 N   0  0  0  0  0  0
  -28.8424  -17.7227   22.9935 N   0  3  2  0  0  0
  -31.4640  -12.4603   19.1534 H   0  0  0  0  0  0
  -30.3308  -11.3401   19.8538 H   0  0  0  0  0  0
  -29.7731  -11.7971   17.4407 H   0  0  0  0  0  0
  -29.6545  -13.5050   17.7738 H   0  0  0  0  0  0
  -27.8471  -11.2844   18.7848 H   0  0  0  0  0  0
  -27.3889  -12.6202   17.7629 H   0  0  0  0  0  0
  -27.6917  -14.2281   19.5512 H   0  0  0  0  0  0
  -28.6758  -11.9639   21.3418 H   0  0  0  0  0  0
  -28.3338  -13.5946   21.8168 H   0  0  0  0  0  0
  -25.2698   -9.5480   22.4841 H   0  0  0  0  0  0
  -23.9875   -7.4464   22.7507 H   0  0  0  0  0  0
  -21.0783   -8.8628   19.8990 H   0  0  0  0  0  0
  -22.3614  -10.9556   19.6221 H   0  0  0  0  0  0
  -21.1897   -7.6116   23.9692 H   0  0  0  0  0  0
  -21.1547   -6.0558   25.9121 H   0  0  0  0  0  0
  -22.0587   -2.7572   23.2917 H   0  0  0  0  0  0
  -22.4060  -11.9709   22.4703 H   0  0  0  0  0  0
  -21.1214  -13.1275   22.2770 H   0  0  0  0  0  0
  -24.6223  -15.7583   20.3453 H   0  0  0  0  0  0
  -26.2177  -15.5156   19.8442 H   0  0  0  0  0  0
  -26.7188  -32.5460   23.1116 H   0  0  0  0  0  0
  -25.0082  -33.9662   25.0419 H   0  0  0  0  0  0
  -22.6957  -31.3055   21.3950 H   0  0  0  0  0  0
  -23.3674  -35.9705   23.3282 H   0  0  0  0  0  0
  -24.3608  -36.8949   22.2049 H   0  0  0  0  0  0
  -23.7341  -37.6555   23.6681 H   0  0  0  0  0  0
  -26.0473  -31.5966   20.5975 H   0  0  0  0  0  0
  -26.8154  -30.8713   21.9808 H   0  0  0  0  0  0
  -28.1123  -29.1032   21.1313 H   0  0  0  0  0  0
  -26.0710  -25.9492   19.0195 H   0  0  0  0  0  0
  -23.9884  -27.2677   19.0473 H   0  0  0  0  0  0
  -23.7527  -30.5855   19.4019 H   0  0  0  0  0  0
  -22.7414  -29.2453   19.8446 H   0  0  0  0  0  0
  -25.1296  -36.1814   25.0822 H   0  0  0  0  0  0
  -20.9843  -28.3039   24.1245 H   0  0  0  0  0  0
  -20.6369  -26.2206   23.3029 H   0  0  0  0  0  0
  -21.6506  -26.8038   22.0222 H   0  0  0  0  0  0
  -19.6746  -25.5928   21.1556 H   0  0  0  0  0  0
  -19.6389  -27.2556   20.6292 H   0  0  0  0  0  0
  -17.4189  -26.6964   21.3602 H   0  0  0  0  0  0
  -17.9761  -25.9948   22.8594 H   0  0  0  0  0  0
  -19.7814  -30.7137   24.2260 H   0  0  0  0  0  0
  -17.4798  -31.6136   24.5139 H   0  0  0  0  0  0
  -15.5194  -30.2879   23.7552 H   0  0  0  0  0  0
  -15.8496  -28.0828   22.6967 H   0  0  0  0  0  0
  -24.5952  -30.7112   25.7883 H   0  0  0  0  0  0
  -24.9147  -32.2919   26.4928 H   0  0  0  0  0  0
  -25.8241  -30.8889   27.0204 H   0  0  0  0  0  0
  -26.2998  -29.6653   24.1208 H   0  0  0  0  0  0
  -27.4208  -29.7281   25.4633 H   0  0  0  0  0  0
  -27.8817  -30.4254   23.9272 H   0  0  0  0  0  0
  -27.2612  -33.3528   26.2117 H   0  0  0  0  0  0
  -28.3901  -32.6921   25.0361 H   0  0  0  0  0  0
  -28.0705  -31.8354   26.5389 H   0  0  0  0  0  0
  -28.2554  -38.0102   24.7460 H   0  0  0  0  0  0
  -28.1033  -36.2648   24.6296 H   0  0  0  0  0  0
  -27.2290  -37.1515   25.8855 H   0  0  0  0  0  0
  -20.9225  -29.9134   21.7138 H   0  0  0  0  0  0
  -26.0073  -38.2793   24.1442 H   0  0  0  0  0  0
  -29.0809  -16.7664   20.0490 H   0  0  0  0  0  0
  -30.7679  -17.1364   20.1780 H   0  0  0  0  0  0
  -28.3647  -16.0397   24.2340 H   0  0  0  0  0  0
  -27.8305  -15.9167   22.5846 H   0  0  0  0  0  0
  -29.6819  -14.4073   23.1179 H   0  0  0  0  0  0
  -30.5809  -18.4263   22.0415 H   0  0  0  0  0  0
  -30.9762  -15.7809   24.6891 H   0  0  0  0  0  0
  -31.6306  -16.6960   23.3344 H   0  0  0  0  0  0
  -31.9341  -14.9620   23.4863 H   0  0  0  0  0  0
  -26.8230  -17.3405   20.6804 H   0  0  0  0  0  0
  -25.0994  -17.5351   21.0187 H   0  0  0  0  0  0
  -26.2361  -17.5359   22.3449 H   0  0  0  0  0  0
  -24.9395  -19.3202   19.3908 H   0  0  0  0  0  0
  -26.6385  -19.3764   18.9935 H   0  0  0  0  0  0
  -25.8186  -20.8348   19.5766 H   0  0  0  0  0  0
  -28.2044  -18.3630   26.2471 H   0  0  0  0  0  0
  -27.1005  -17.9931   24.9349 H   0  0  0  0  0  0
  -27.6297  -19.6359   25.1895 H   0  0  0  0  0  0
  -30.1873  -20.0466   25.2540 H   0  0  0  0  0  0
  -29.4835  -20.5279   23.7369 H   0  0  0  0  0  0
  -30.9958  -19.6126   23.7781 H   0  0  0  0  0  0
  -29.9269  -23.3272   18.6258 H   0  0  0  0  0  0
  -30.5470  -23.2328   20.2336 H   0  0  0  0  0  0
  -29.5548  -21.1465   18.6948 H   0  0  0  0  0  0
  -28.1451  -21.5194   19.5779 H   0  0  0  0  0  0
  -28.6913  -24.2909   21.1804 H   0  0  0  0  0  0
  -27.5539  -23.7733   19.9787 H   0  0  0  0  0  0
  -30.8009  -20.3172   20.4825 H   0  0  0  0  0  0
  -29.9025  -21.1937   21.6776 H   0  0  0  0  0  0
  -27.5106  -20.9799   21.5556 H   0  0  0  0  0  0
  -27.5881  -19.8525   22.7517 H   0  0  0  0  0  0
  -28.1670  -25.5195   18.4243 H   0  0  0  0  0  0
  -29.7607  -25.6187   19.0860 H   0  0  0  0  0  0
  -28.6372  -19.0211   20.0122 H   0  0  0  0  0  0
  -25.4529  -19.7893   21.7821 H   0  0  0  0  0  0
  -29.8675  -17.7106   24.8097 H   0  0  0  0  0  0
  -27.9139  -18.0609   22.7769 H   0  0  0  0  0  0
  1 25  1  0  0  0
  1 30  2  0  0  0
  1 89  1  0  0  0
  2  3  1  0  0  0
  2 25  1  0  0  0
  2 91  1  0  0  0
  2 92  1  0  0  0
  3  4  1  0  0  0
  3 93  1  0  0  0
  3 94  1  0  0  0
  4  5  1  0  0  0
  4 95  1  0  0  0
  4 96  1  0  0  0
  5  6  1  0  0  0
  5 26  1  0  0  0
  5 97  1  0  0  0
  6 25  1  0  0  0
  6 98  1  0  0  0
  6 99  1  0  0  0
  7  8  2  0  0  0
  7 26  1  0  0  0
  7 29  1  0  0  0
  8  9  1  0  0  0
  8 22  1  0  0  0
  9 10  1  0  0  0
  9 27  2  0  0  0
 10 11  2  0  0  0
 10 15  1  0  0  0
 11 12  1  0  0  0
 11100  1  0  0  0
 12 13  2  0  0  0
 12101  1  0  0  0
 13 14  1  0  0  0
 13 31  1  0  0  0
 14 15  2  0  0  0
 14102  1  0  0  0
 15103  1  0  0  0
 16 17  2  0  0  0
 16 21  1  0  0  0
 16 31  1  0  0  0
 17 18  1  0  0  0
 17104  1  0  0  0
 18 19  2  0  0  0
 18105  1  0  0  0
 19 20  1  0  0  0
 19 24  1  0  0  0
 20 21  2  0  0  0
 20106  1  0  0  0
 21 23  1  0  0  0
 22 28  1  0  0  0
 22 32  2  0  0  0
 26 27  1  0  0  0
 28107  1  0  0  0
 28108  1  0  0  0
 29109  1  0  0  0
 29110  1  0  0  0
 33 34  1  0  0  0
 33 66  1  0  0  0
 33 70  2  0  0  0
 34 36  1  0  0  0
 34 59  1  0  0  0
 34111  1  0  0  0
 35 44  2  0  0  0
 35 45  1  0  0  0
 35 68  1  0  0  0
 36 56  1  0  0  0
 36112  1  0  0  0
 37 39  1  0  0  0
 37 47  1  0  0  0
 37 66  1  0  0  0
 37113  1  0  0  0
 38 43  2  0  0  0
 38 46  1  0  0  0
 38 47  1  0  0  0
 39 64  1  0  0  0
 39 67  2  0  0  0
 40 52  1  0  0  0
 40 53  2  0  0  0
 40 58  1  0  0  0
 41114  1  0  0  0
 41115  1  0  0  0
 41116  1  0  0  0
 41 48  1  0  0  0
 42 43  1  0  0  0
 42 66  1  0  0  0
 42117  1  0  0  0
 42118  1  0  0  0
 43 44  1  0  0  0
 44119  1  0  0  0
 45 46  2  0  0  0
 45120  1  0  0  0
 46121  1  0  0  0
 47122  1  0  0  0
 47123  1  0  0  0
 48 56  1  0  0  0
 48 65  1  0  0  0
 48124  1  0  0  0
 49 50  1  0  0  0
 49 53  1  0  0  0
 49 64  1  0  0  0
 49125  1  0  0  0
 50 51  1  0  0  0
 50126  1  0  0  0
 50127  1  0  0  0
 51 52  1  0  0  0
 51128  1  0  0  0
 51129  1  0  0  0
 52130  1  0  0  0
 52131  1  0  0  0
 53 54  1  0  0  0
 54 55  2  0  0  0
 54132  1  0  0  0
 55 57  1  0  0  0
 55133  1  0  0  0
 56 69  2  0  0  0
 57 58  2  0  0  0
 57134  1  0  0  0
 58135  1  0  0  0
 59 60  1  0  0  0
 59 61  1  0  0  0
 59 62  1  0  0  0
 60136  1  0  0  0
 60137  1  0  0  0
 60138  1  0  0  0
 61139  1  0  0  0
 61140  1  0  0  0
 61141  1  0  0  0
 62142  1  0  0  0
 62143  1  0  0  0
 62144  1  0  0  0
 63 65  1  0  0  0
 63145  1  0  0  0
 63146  1  0  0  0
 63147  1  0  0  0
 64148  1  0  0  0
 65149  1  0  0  0
 68 85  1  0  0  0
 71 89  1  0  0  0
 71150  1  0  0  0
 71151  1  0  0  0
 71 74  1  0  0  0
 72 73  1  0  0  0
 72152  1  0  0  0
 72153  1  0  0  0
 72 90  1  0  0  0
 73 75  1  0  0  0
 73 89  1  0  0  0
 73154  1  0  0  0
 74 86  1  0  0  0
 74 90  1  0  0  0
 74155  1  0  0  0
 75156  1  0  0  0
 75157  1  0  0  0
 75158  1  0  0  0
 76159  1  0  0  0
 76160  1  0  0  0
 76161  1  0  0  0
 76 87  1  0  0  0
 77 87  1  0  0  0
 77162  1  0  0  0
 77163  1  0  0  0
 77164  1  0  0  0
 78165  1  0  0  0
 78166  1  0  0  0
 78167  1  0  0  0
 78 88  1  0  0  0
 79 88  1  0  0  0
 79168  1  0  0  0
 79169  1  0  0  0
 79170  1  0  0  0
 80 81  1  0  0  0
 80 82  1  0  0  0
 80171  1  0  0  0
 80172  1  0  0  0
 81 83  1  0  0  0
 81173  1  0  0  0
 81174  1  0  0  0
 82 85  1  0  0  0
 82175  1  0  0  0
 82176  1  0  0  0
 83177  1  0  0  0
 83178  1  0  0  0
 83 86  1  0  0  0
 84 86  1  0  0  0
 84 87  1  0  0  0
 84179  1  0  0  0
 84180  1  0  0  0
 85181  1  0  0  0
 85182  1  0  0  0
 86183  1  0  0  0
 87184  1  0  0  0
 88 90  1  0  0  0
 88185  1  0  0  0
 90186  1  0  0  0
M  CHG  1  90   1
M  ISO  4   1 100  68 101  85 101  89 100
M  END
> <chiral flag>
0

> <version>
0

> <s_m_source_file>
/data/baiqing/PycharmProjects/Reinvent-master-3.2/result/LINK_invent/BTK/process_docking_weight1_custom_sum_contain_oxygen_bond_distance_aromatic_linkinvent_7_9_3/rearranged_h_0117.sdf

> <i_m_source_file_index>
5

> <r_mmod_Potential_Energy-OPLS-2005>
356.853759765625

> <r_mmod_Stretch_Energy-OPLS-2005>
71.5808563232422

> <r_mmod_Bend_Energy-OPLS-2005>
182.366882324219

> <r_mmod_Torsional_Energy-OPLS-2005>
495.552856445312

> <r_mmod_Improper_Torsional_Energy-OPLS-2005>
6.36211633682251

> <r_mmod_Van_der_Waal_Energy-OPLS-2005>
148.449508666992

> <r_mmod_Electrostatic_Energy-OPLS-2005>
-182.391906738281

> <r_mmod_Solvation_Energy-OPLS-2005>
-384.113739013672

> <b_mmod_Minimization_Converged-OPLS-2005>
0

> <r_mmod_RMS_Derivative-OPLS-2005>
8.49622249603271

$$$$
5
                    3D
 Structure written by MMmdl.
174182  0  0  1  0            999 V2000
  -30.7261  -14.4650   20.5269 C   0  0  0  0  0  0
  -30.4060  -12.2857   19.4177 C   0  0  0  0  0  0
  -29.4842  -12.4570   18.1973 C   0  0  0  0  0  0
  -28.0087  -12.3133   18.6194 C   0  0  0  0  0  0
  -27.6492  -13.1822   19.8561 C   0  0  2  0  0  0
  -28.6989  -13.0340   20.9775 C   0  0  0  0  0  0
  -25.2585  -13.8125   20.5650 C   0  0  0  0  0  0
  -24.1805  -13.0409   20.9124 C   0  0  0  0  0  0
  -24.6350  -11.6881   20.8731 C   0  0  0  0  0  0
  -23.8988  -10.4308   21.0404 C   0  0  0  0  0  0
  -24.3512   -9.4240   21.9201 C   0  0  0  0  0  0
  -23.6176   -8.2295   22.0778 C   0  0  0  0  0  0
  -22.4195   -8.0338   21.3550 C   0  0  0  0  0  0
  -21.9843   -9.0292   20.4614 C   0  0  0  0  0  0
  -22.7182  -10.2152   20.3020 C   0  0  0  0  0  0
  -21.6809   -6.0753   22.5238 C   0  0  0  0  0  0
  -21.3998   -6.5664   23.8175 C   0  0  0  0  0  0
  -21.3644   -5.6838   24.9147 C   0  0  0  0  0  0
  -21.5999   -4.3100   24.7204 C   0  0  0  0  0  0
  -21.8797   -3.8169   23.4346 C   0  0  0  0  0  0
  -21.9183   -4.6973   22.3393 C   0  0  0  0  0  0
  -22.7844  -13.5263   21.1641 C   0  0  0  0  0  0
  -22.1663   -4.2154   21.0964 F   0  0  0  0  0  0
  -21.5570   -3.4582   25.7708 F   0  0  0  0  0  0
  -30.0205  -13.3103   20.3920 N   0  0  0  0  0  0
  -26.2964  -12.9206   20.3345 N   0  0  0  0  0  0
  -25.9298  -11.6401   20.5833 N   0  0  0  0  0  0
  -22.0375  -12.8286   22.0121 N   0  0  0  0  0  0
  -25.4324  -15.1846   20.4092 N   0  0  0  0  0  0
  -31.9040  -14.5800   20.1772 O   0  0  0  0  0  0
  -21.6587   -6.8908   21.4197 O   0  0  0  0  0  0
  -22.3594  -14.5565   20.6489 O   0  0  0  0  0  0
  -24.6153  -31.8703   23.2138 C   0  0  0  0  0  0
  -25.9041  -32.4832   23.8427 C   0  0  1  0  0  0
  -27.2043  -27.4346   20.0877 C   0  0  0  0  0  0
  -25.5922  -33.8638   24.2370 N   0  0  0  0  0  0
  -23.4030  -30.4973   21.5591 C   0  0  2  0  0  0
  -24.8368  -28.9809   20.1116 C   0  0  0  0  0  0
  -22.7444  -29.4634   22.5040 C   0  0  0  0  0  0
  -18.0248  -28.1338   22.8473 C   0  0  0  0  0  0
  -24.1484  -36.7322   23.2651 C   0  0  0  0  0  0
  -25.9328  -30.8391   21.3620 C   0  0  0  0  0  0
  -26.0028  -29.4774   20.7057 C   0  0  0  0  0  0
  -27.1903  -28.7131   20.6894 C   0  0  0  0  0  0
  -26.0144  -26.9570   19.4864 C   0  0  0  0  0  0
  -24.8387  -27.7189   19.4998 C   0  0  0  0  0  0
  -23.6054  -29.8490   20.1670 C   0  0  0  0  0  0
  -25.4093  -36.3133   24.0374 C   0  0  1  0  0  0
  -20.5848  -28.3621   23.1345 C   0  0  2  0  0  0
  -20.6780  -26.9363   22.5451 C   0  0  0  0  0  0
  -19.5752  -26.6351   21.5264 C   0  0  0  0  0  0
  -18.1920  -26.7849   22.1641 C   0  0  0  0  0  0
  -19.1503  -28.8798   23.2892 C   0  0  0  0  0  0
  -18.9410  -30.1419   23.8893 C   0  0  0  0  0  0
  -17.6420  -30.6572   24.0523 C   0  0  0  0  0  0
  -25.9045  -34.9500   23.5177 C   0  0  0  0  0  0
  -16.5317  -29.9079   23.6290 C   0  0  0  0  0  0
  -16.7241  -28.6475   23.0347 C   0  0  0  0  0  0
  -26.4441  -31.6573   25.0761 C   0  0  0  0  0  0
  -25.3698  -31.3741   26.1550 C   0  0  0  0  0  0
  -27.0233  -30.2984   24.6103 C   0  0  0  0  0  0
  -27.6003  -32.4283   25.7520 C   0  0  0  0  0  0
  -27.5576  -37.1838   24.8467 C   0  0  0  0  0  0
  -21.4163  -29.2998   22.3789 N   0  0  0  0  0  0
  -26.4268  -37.3825   23.9425 N   0  0  0  0  0  0
  -24.6703  -31.0833   22.1030 N   0  0  0  0  0  0
  -23.4207  -28.8205   23.3121 O   0  0  0  0  0  0
  -28.3709  -26.6995   20.1205 O   0  0  0  0  0  0
  -26.5615  -34.8944   22.4751 O   0  0  0  0  0  0
  -23.5346  -32.1495   23.7515 O   0  0  0  0  0  0
  -27.5813  -18.1299   18.7708 C   0  0  0  0  0  0
  -28.6205  -17.4626   20.8402 C   0  0  0  0  0  0
  -27.7432  -18.3092   20.1484 C   0  0  0  0  0  0
  -28.2225  -17.0641   18.1335 C   0  0  0  0  0  0
  -29.2333  -16.3901   20.1599 C   0  0  0  0  0  0
  -27.4408  -17.9353   15.8453 C   0  0  0  0  0  0
  -26.6212  -15.7470   16.7749 C   0  0  0  0  0  0
  -28.9904  -16.0294   15.9265 C   0  0  0  0  0  0
  -27.6012  -24.4000   20.7658 C   0  0  0  0  0  0
  -25.0032  -20.3996   21.4017 C   0  0  0  0  0  0
  -27.5666  -22.9375   20.2674 C   0  0  0  0  0  0
  -25.4453  -21.8519   21.1280 C   0  0  0  0  0  0
  -28.3192  -25.3191   19.7422 C   0  0  0  0  0  0
  -25.6731  -19.4242   20.4294 C   0  0  0  0  0  0
  -27.8300  -16.6939   16.6897 C   0  0  0  0  0  0
  -29.0073  -16.1999   18.8331 N   0  0  0  0  0  0
  -30.0505  -15.5386   20.9606 N   0  0  0  0  0  0
  -26.9205  -21.9842   21.2014 N   0  3  0  0  0  0
  -27.0369  -19.2655   20.8362 O   0  0  0  0  0  0
  -31.4523  -12.3563   19.1218 H   0  0  0  0  0  0
  -30.2835  -11.2917   19.8460 H   0  0  0  0  0  0
  -29.7338  -11.7177   17.4309 H   0  0  0  0  0  0
  -29.6432  -13.4323   17.7452 H   0  0  0  0  0  0
  -27.8385  -11.2573   18.8353 H   0  0  0  0  0  0
  -27.3540  -12.5542   17.7805 H   0  0  0  0  0  0
  -27.6576  -14.2102   19.5163 H   0  0  0  0  0  0
  -28.6870  -12.0245   21.3936 H   0  0  0  0  0  0
  -28.4654  -13.6979   21.8124 H   0  0  0  0  0  0
  -25.2667   -9.5707   22.4754 H   0  0  0  0  0  0
  -23.9842   -7.4679   22.7530 H   0  0  0  0  0  0
  -21.0809   -8.8820   19.8875 H   0  0  0  0  0  0
  -22.3728  -10.9648   19.6042 H   0  0  0  0  0  0
  -21.2044   -7.6181   23.9651 H   0  0  0  0  0  0
  -21.1453   -6.0610   25.9016 H   0  0  0  0  0  0
  -22.0596   -2.7622   23.2851 H   0  0  0  0  0  0
  -22.3934  -12.0021   22.4665 H   0  0  0  0  0  0
  -21.0866  -13.1195   22.1850 H   0  0  0  0  0  0
  -24.6599  -15.8338   20.5187 H   0  0  0  0  0  0
  -26.2842  -15.6237   20.0782 H   0  0  0  0  0  0
  -26.7130  -32.5508   23.1210 H   0  0  0  0  0  0
  -24.9987  -33.9769   25.0455 H   0  0  0  0  0  0
  -22.6807  -31.3066   21.4298 H   0  0  0  0  0  0
  -23.3754  -35.9656   23.3334 H   0  0  0  0  0  0
  -24.3564  -36.8899   22.2060 H   0  0  0  0  0  0
  -23.7247  -37.6556   23.6610 H   0  0  0  0  0  0
  -26.0368  -31.6009   20.5870 H   0  0  0  0  0  0
  -26.8248  -30.8877   21.9762 H   0  0  0  0  0  0
  -28.0882  -29.1002   21.1495 H   0  0  0  0  0  0
  -25.9483  -25.9926   19.0084 H   0  0  0  0  0  0
  -23.9427  -27.3240   19.0434 H   0  0  0  0  0  0
  -23.7177  -30.6363   19.4192 H   0  0  0  0  0  0
  -22.7260  -29.2764   19.8684 H   0  0  0  0  0  0
  -25.1259  -36.2033   25.0866 H   0  0  0  0  0  0
  -20.9843  -28.3200   24.1502 H   0  0  0  0  0  0
  -20.5729  -26.2247   23.3659 H   0  0  0  0  0  0
  -21.6655  -26.7456   22.1235 H   0  0  0  0  0  0
  -19.6963  -25.6286   21.1289 H   0  0  0  0  0  0
  -19.6687  -27.3174   20.6798 H   0  0  0  0  0  0
  -17.4210  -26.6545   21.4036 H   0  0  0  0  0  0
  -18.0289  -25.9980   22.9020 H   0  0  0  0  0  0
  -19.7916  -30.7216   24.2260 H   0  0  0  0  0  0
  -17.4996  -31.6243   24.5146 H   0  0  0  0  0  0
  -15.5328  -30.3004   23.7599 H   0  0  0  0  0  0
  -15.8605  -28.0836   22.7068 H   0  0  0  0  0  0
  -24.5850  -30.7077   25.7995 H   0  0  0  0  0  0
  -24.8920  -32.2936   26.4928 H   0  0  0  0  0  0
  -25.8061  -30.9022   27.0367 H   0  0  0  0  0  0
  -26.2840  -29.6874   24.0922 H   0  0  0  0  0  0
  -27.3770  -29.7069   25.4565 H   0  0  0  0  0  0
  -27.8758  -30.4327   23.9432 H   0  0  0  0  0  0
  -27.2572  -33.3562   26.2118 H   0  0  0  0  0  0
  -28.3772  -32.6885   25.0314 H   0  0  0  0  0  0
  -28.0706  -31.8408   26.5428 H   0  0  0  0  0  0
  -28.2626  -38.0115   24.7493 H   0  0  0  0  0  0
  -28.1032  -36.2645   24.6273 H   0  0  0  0  0  0
  -27.2291  -37.1490   25.8876 H   0  0  0  0  0  0
  -20.9361  -29.8824   21.7099 H   0  0  0  0  0  0
  -26.0174  -38.2923   24.1394 H   0  0  0  0  0  0
  -26.9175  -18.7775   18.2247 H   0  0  0  0  0  0
  -28.7707  -17.6207   21.8989 H   0  0  0  0  0  0
  -26.5347  -18.4229   16.1996 H   0  0  0  0  0  0
  -27.2467  -17.6740   14.8048 H   0  0  0  0  0  0
  -28.2363  -18.6816   15.8512 H   0  0  0  0  0  0
  -25.7935  -16.2249   17.3017 H   0  0  0  0  0  0
  -26.8655  -14.8381   17.3215 H   0  0  0  0  0  0
  -26.2552  -15.4569   15.7889 H   0  0  0  0  0  0
  -29.8264  -16.7189   15.8115 H   0  0  0  0  0  0
  -28.6728  -15.7247   14.9262 H   0  0  0  0  0  0
  -29.3507  -15.1378   16.4330 H   0  0  0  0  0  0
  -28.1308  -24.4572   21.7175 H   0  0  0  0  0  0
  -26.5858  -24.7425   20.9698 H   0  0  0  0  0  0
  -23.9232  -20.3195   21.2790 H   0  0  0  0  0  0
  -25.2170  -20.1018   22.4298 H   0  0  0  0  0  0
  -28.5949  -22.5998   20.1308 H   0  0  0  0  0  0
  -27.1099  -22.8700   19.2789 H   0  0  0  0  0  0
  -24.9745  -22.5378   21.8337 H   0  0  0  0  0  0
  -25.0826  -22.1201   20.1349 H   0  0  0  0  0  0
  -27.8948  -25.2116   18.7431 H   0  0  0  0  0  0
  -29.3475  -24.9724   19.6383 H   0  0  0  0  0  0
  -25.5820  -19.8379   19.4227 H   0  0  0  0  0  0
  -25.1615  -18.4591   20.4284 H   0  0  0  0  0  0
  -30.5639  -16.0559   21.6559 H   0  0  0  0  0  0
  -27.2217  -22.1453   22.1496 H   0  0  0  0  0  0
  -27.2586  -21.0647   20.9454 H   0  0  0  0  0  0
  1 25  1  0  0  0
  1 30  2  0  0  0
  1 87  1  0  0  0
  2  3  1  0  0  0
  2 25  1  0  0  0
  2 90  1  0  0  0
  2 91  1  0  0  0
  3  4  1  0  0  0
  3 92  1  0  0  0
  3 93  1  0  0  0
  4  5  1  0  0  0
  4 94  1  0  0  0
  4 95  1  0  0  0
  5  6  1  0  0  0
  5 26  1  0  0  0
  5 96  1  0  0  0
  6 25  1  0  0  0
  6 97  1  0  0  0
  6 98  1  0  0  0
  7  8  2  0  0  0
  7 26  1  0  0  0
  7 29  1  0  0  0
  8  9  1  0  0  0
  8 22  1  0  0  0
  9 10  1  0  0  0
  9 27  2  0  0  0
 10 11  2  0  0  0
 10 15  1  0  0  0
 11 12  1  0  0  0
 11 99  1  0  0  0
 12 13  2  0  0  0
 12100  1  0  0  0
 13 14  1  0  0  0
 13 31  1  0  0  0
 14 15  2  0  0  0
 14101  1  0  0  0
 15102  1  0  0  0
 16 17  2  0  0  0
 16 21  1  0  0  0
 16 31  1  0  0  0
 17 18  1  0  0  0
 17103  1  0  0  0
 18 19  2  0  0  0
 18104  1  0  0  0
 19 20  1  0  0  0
 19 24  1  0  0  0
 20 21  2  0  0  0
 20105  1  0  0  0
 21 23  1  0  0  0
 22 28  1  0  0  0
 22 32  2  0  0  0
 26 27  1  0  0  0
 28106  1  0  0  0
 28107  1  0  0  0
 29108  1  0  0  0
 29109  1  0  0  0
 33 34  1  0  0  0
 33 66  1  0  0  0
 33 70  2  0  0  0
 34 36  1  0  0  0
 34 59  1  0  0  0
 34110  1  0  0  0
 35 44  2  0  0  0
 35 45  1  0  0  0
 35 68  1  0  0  0
 36 56  1  0  0  0
 36111  1  0  0  0
 37 39  1  0  0  0
 37 47  1  0  0  0
 37 66  1  0  0  0
 37112  1  0  0  0
 38 43  2  0  0  0
 38 46  1  0  0  0
 38 47  1  0  0  0
 39 64  1  0  0  0
 39 67  2  0  0  0
 40 52  1  0  0  0
 40 53  2  0  0  0
 40 58  1  0  0  0
 41113  1  0  0  0
 41114  1  0  0  0
 41115  1  0  0  0
 41 48  1  0  0  0
 42 43  1  0  0  0
 42 66  1  0  0  0
 42116  1  0  0  0
 42117  1  0  0  0
 43 44  1  0  0  0
 44118  1  0  0  0
 45 46  2  0  0  0
 45119  1  0  0  0
 46120  1  0  0  0
 47121  1  0  0  0
 47122  1  0  0  0
 48 56  1  0  0  0
 48 65  1  0  0  0
 48123  1  0  0  0
 49 50  1  0  0  0
 49 53  1  0  0  0
 49 64  1  0  0  0
 49124  1  0  0  0
 50 51  1  0  0  0
 50125  1  0  0  0
 50126  1  0  0  0
 51 52  1  0  0  0
 51127  1  0  0  0
 51128  1  0  0  0
 52129  1  0  0  0
 52130  1  0  0  0
 53 54  1  0  0  0
 54 55  2  0  0  0
 54131  1  0  0  0
 55 57  1  0  0  0
 55132  1  0  0  0
 56 69  2  0  0  0
 57 58  2  0  0  0
 57133  1  0  0  0
 58134  1  0  0  0
 59 60  1  0  0  0
 59 61  1  0  0  0
 59 62  1  0  0  0
 60135  1  0  0  0
 60136  1  0  0  0
 60137  1  0  0  0
 61138  1  0  0  0
 61139  1  0  0  0
 61140  1  0  0  0
 62141  1  0  0  0
 62142  1  0  0  0
 62143  1  0  0  0
 63 65  1  0  0  0
 63144  1  0  0  0
 63145  1  0  0  0
 63146  1  0  0  0
 64147  1  0  0  0
 65148  1  0  0  0
 68 83  1  0  0  0
 71 73  2  0  0  0
 71 74  1  0  0  0
 71149  1  0  0  0
 72 73  1  0  0  0
 72 75  2  0  0  0
 72150  1  0  0  0
 73 89  1  0  0  0
 74 85  1  0  0  0
 74 86  2  0  0  0
 75 86  1  0  0  0
 75 87  1  0  0  0
 76151  1  0  0  0
 76152  1  0  0  0
 76153  1  0  0  0
 76 85  1  0  0  0
 77 85  1  0  0  0
 77154  1  0  0  0
 77155  1  0  0  0
 77156  1  0  0  0
 78 85  1  0  0  0
 78157  1  0  0  0
 78158  1  0  0  0
 78159  1  0  0  0
 79 81  1  0  0  0
 79 83  1  0  0  0
 79160  1  0  0  0
 79161  1  0  0  0
 80 82  1  0  0  0
 80 84  1  0  0  0
 80162  1  0  0  0
 80163  1  0  0  0
 81 88  1  0  0  0
 81164  1  0  0  0
 81165  1  0  0  0
 82 88  1  0  0  0
 82166  1  0  0  0
 82167  1  0  0  0
 83168  1  0  0  0
 83169  1  0  0  0
 84 89  1  0  0  0
 84170  1  0  0  0
 84171  1  0  0  0
 87172  1  0  0  0
 88173  1  0  0  0
 88174  1  0  0  0
M  CHG  1  88   1
M  ISO  4   1 100  68 101  83 101  87 100
M  END
> <chiral flag>
0

> <version>
0

> <s_m_source_file>
/data/baiqing/PycharmProjects/Reinvent-master-3.2/result/LINK_invent/BTK/process_docking_weight1_custom_sum_contain_oxygen_bond_distance_aromatic_linkinvent_7_9_3/rearranged_h_0117.sdf

> <i_m_source_file_index>
6

> <r_mmod_Potential_Energy-OPLS-2005>
-377.486022949219

> <r_mmod_Stretch_Energy-OPLS-2005>
36.9440994262695

> <r_mmod_Bend_Energy-OPLS-2005>
119.315643310547

> <r_mmod_Torsional_Energy-OPLS-2005>
263.605133056641

> <r_mmod_Improper_Torsional_Energy-OPLS-2005>
7.08482885360718

> <r_mmod_Van_der_Waal_Energy-OPLS-2005>
160.333374023438

> <r_mmod_Electrostatic_Energy-OPLS-2005>
-529.678344726562

> <r_mmod_Solvation_Energy-OPLS-2005>
-455.975646972656

> <b_mmod_Minimization_Converged-OPLS-2005>
0

> <r_mmod_RMS_Derivative-OPLS-2005>
6.54298067092896

$$$$
6
                    3D
 Structure written by MMmdl.
178186  0  0  1  0            999 V2000
  -30.6825  -14.5352   20.6013 C   0  0  0  0  0  0
  -30.4314  -12.3730   19.4123 C   0  0  0  0  0  0
  -29.4981  -12.5488   18.1940 C   0  0  0  0  0  0
  -28.0131  -12.4063   18.5990 C   0  0  0  0  0  0
  -27.6575  -13.2123   19.8788 C   0  0  2  0  0  0
  -28.7017  -12.9389   20.9777 C   0  0  0  0  0  0
  -25.2548  -13.8170   20.5769 C   0  0  0  0  0  0
  -24.1791  -13.0424   20.9179 C   0  0  0  0  0  0
  -24.6351  -11.6907   20.8699 C   0  0  0  0  0  0
  -23.9016  -10.4289   21.0386 C   0  0  0  0  0  0
  -24.3568   -9.4214   21.9172 C   0  0  0  0  0  0
  -23.6265   -8.2239   22.0737 C   0  0  0  0  0  0
  -22.4248   -8.0271   21.3533 C   0  0  0  0  0  0
  -21.9875   -9.0242   20.4622 C   0  0  0  0  0  0
  -22.7192  -10.2118   20.3039 C   0  0  0  0  0  0
  -21.6857   -6.0714   22.5269 C   0  0  0  0  0  0
  -21.4017   -6.5619   23.8202 C   0  0  0  0  0  0
  -21.3655   -5.6780   24.9160 C   0  0  0  0  0  0
  -21.6050   -4.3046   24.7222 C   0  0  0  0  0  0
  -21.8831   -3.8127   23.4341 C   0  0  0  0  0  0
  -21.9191   -4.6938   22.3393 C   0  0  0  0  0  0
  -22.7815  -13.5246   21.1841 C   0  0  0  0  0  0
  -22.1674   -4.2125   21.0979 F   0  0  0  0  0  0
  -21.5616   -3.4531   25.7734 F   0  0  0  0  0  0
  -30.0085  -13.3486   20.4416 N   0  0  0  0  0  0
  -26.2981  -12.9341   20.3359 N   0  0  0  0  0  0
  -25.9268  -11.6494   20.5676 N   0  0  0  0  0  0
  -22.0427  -12.8263   22.0371 N   0  0  0  0  0  0
  -25.4226  -15.1895   20.4394 N   0  0  0  0  0  0
  -31.8298  -14.6457   20.1486 O   0  0  0  0  0  0
  -21.6630   -6.8853   21.4221 O   0  0  0  0  0  0
  -22.3527  -14.5573   20.6695 O   0  0  0  0  0  0
  -24.6198  -31.8681   23.2022 C   0  0  0  0  0  0
  -25.9085  -32.4826   23.8342 C   0  0  1  0  0  0
  -27.2204  -27.3873   20.1087 C   0  0  0  0  0  0
  -25.5931  -33.8619   24.2304 N   0  0  0  0  0  0
  -23.4092  -30.4898   21.5465 C   0  0  2  0  0  0
  -24.8514  -28.9448   20.1164 C   0  0  0  0  0  0
  -22.7453  -29.4671   22.4974 C   0  0  0  0  0  0
  -18.0298  -28.1422   22.8516 C   0  0  0  0  0  0
  -24.1483  -36.7295   23.2639 C   0  0  0  0  0  0
  -25.9410  -30.8202   21.3599 C   0  0  0  0  0  0
  -26.0145  -29.4474   20.7123 C   0  0  0  0  0  0
  -27.2048  -28.6786   20.6990 C   0  0  0  0  0  0
  -26.0427  -26.9086   19.5024 C   0  0  0  0  0  0
  -24.8630  -27.6804   19.5024 C   0  0  0  0  0  0
  -23.6171  -29.8195   20.1619 C   0  0  0  0  0  0
  -25.4105  -36.3123   24.0351 C   0  0  1  0  0  0
  -20.5890  -28.3708   23.1323 C   0  0  2  0  0  0
  -20.6804  -26.9448   22.5418 C   0  0  0  0  0  0
  -19.5760  -26.6424   21.5244 C   0  0  0  0  0  0
  -18.1936  -26.7966   22.1636 C   0  0  0  0  0  0
  -19.1541  -28.8878   23.2924 C   0  0  0  0  0  0
  -18.9448  -30.1491   23.8935 C   0  0  0  0  0  0
  -17.6438  -30.6618   24.0585 C   0  0  0  0  0  0
  -25.9029  -34.9491   23.5117 C   0  0  0  0  0  0
  -16.5345  -29.9123   23.6337 C   0  0  0  0  0  0
  -16.7278  -28.6542   23.0367 C   0  0  0  0  0  0
  -26.4490  -31.6609   25.0688 C   0  0  0  0  0  0
  -25.3727  -31.3731   26.1411 C   0  0  0  0  0  0
  -27.0300  -30.3043   24.6085 C   0  0  0  0  0  0
  -27.6074  -32.4324   25.7447 C   0  0  0  0  0  0
  -27.5594  -37.1805   24.8471 C   0  0  0  0  0  0
  -21.4172  -29.3055   22.3710 N   0  0  0  0  0  0
  -26.4302  -37.3803   23.9420 N   0  0  0  0  0  0
  -24.6762  -31.0751   22.0933 N   0  0  0  0  0  0
  -23.4214  -28.8249   23.3056 O   0  0  0  0  0  0
  -28.3796  -26.6346   20.0624 O   0  0  0  0  0  0
  -26.5578  -34.8954   22.4668 O   0  0  0  0  0  0
  -23.5390  -32.1432   23.7398 O   0  0  0  0  0  0
  -29.2599  -19.3141   20.7802 C   0  0  0  0  0  0
  -28.3807  -20.0867   19.9545 C   0  0  0  0  0  0
  -29.5440  -18.1101   20.1822 C   0  0  0  0  0  0
  -28.1509  -19.3093   18.8357 C   0  0  0  0  0  0
  -27.1527  -21.4542   21.7014 C   0  0  0  0  0  0
  -27.7380  -20.9088   16.8995 C   0  0  0  0  0  0
  -25.7886  -19.5833   17.9175 C   0  0  0  0  0  0
  -29.7731  -17.2258   16.8093 C   0  0  0  0  0  0
  -27.5047  -16.3590   17.6911 C   0  0  0  0  0  0
  -29.1067  -15.7557   22.1427 C   0  0  0  0  0  0
  -30.5308  -17.0233   20.6140 C   0  0  0  0  0  0
  -27.8963  -24.0925   19.8747 C   0  0  0  0  0  0
  -28.6626  -22.7304   20.0852 C   0  0  0  0  0  0
  -28.3882  -25.3293   20.7004 C   0  0  0  0  0  0
  -27.7582  -21.4673   20.2897 C   0  0  1  0  0  0
  -27.3012  -19.6242   17.6208 C   0  0  0  0  0  0
  -28.8842  -16.9501   18.0322 C   0  0  0  0  0  0
  -28.8381  -18.0843   18.9790 N   0  0  0  0  0  0
  -29.9973  -15.6730   20.9747 N   0  0  0  0  0  0
  -31.4703  -12.5004   19.1044 H   0  0  0  0  0  0
  -30.3764  -11.3561   19.7997 H   0  0  0  0  0  0
  -29.7483  -11.8211   17.4192 H   0  0  0  0  0  0
  -29.6671  -13.5300   17.7461 H   0  0  0  0  0  0
  -27.8197  -11.3471   18.7669 H   0  0  0  0  0  0
  -27.3666  -12.7076   17.7726 H   0  0  0  0  0  0
  -27.7091  -14.2702   19.6286 H   0  0  0  0  0  0
  -28.7182  -11.8715   21.2041 H   0  0  0  0  0  0
  -28.4295  -13.3862   21.9264 H   0  0  0  0  0  0
  -25.2708   -9.5701   22.4731 H   0  0  0  0  0  0
  -23.9988   -7.4618   22.7437 H   0  0  0  0  0  0
  -21.0820   -8.8738   19.8905 H   0  0  0  0  0  0
  -22.3663  -10.9646   19.6122 H   0  0  0  0  0  0
  -21.2040   -7.6134   23.9698 H   0  0  0  0  0  0
  -21.1459   -6.0508   25.9061 H   0  0  0  0  0  0
  -22.0617   -2.7590   23.2849 H   0  0  0  0  0  0
  -22.4010  -11.9944   22.4821 H   0  0  0  0  0  0
  -21.1022  -13.1286   22.2511 H   0  0  0  0  0  0
  -24.6554  -15.8390   20.5694 H   0  0  0  0  0  0
  -26.2919  -15.6465   20.1984 H   0  0  0  0  0  0
  -26.7183  -32.5548   23.1131 H   0  0  0  0  0  0
  -25.0165  -33.9747   25.0519 H   0  0  0  0  0  0
  -22.6990  -31.3064   21.4077 H   0  0  0  0  0  0
  -23.3770  -35.9599   23.3307 H   0  0  0  0  0  0
  -24.3570  -36.8883   22.2046 H   0  0  0  0  0  0
  -23.7188  -37.6496   23.6614 H   0  0  0  0  0  0
  -26.0524  -31.5805   20.5848 H   0  0  0  0  0  0
  -26.8279  -30.8794   21.9793 H   0  0  0  0  0  0
  -28.1067  -29.0647   21.1500 H   0  0  0  0  0  0
  -26.0376  -25.9475   19.0110 H   0  0  0  0  0  0
  -23.9730  -27.2976   19.0232 H   0  0  0  0  0  0
  -23.7354  -30.5916   19.4003 H   0  0  0  0  0  0
  -22.7364  -29.2459   19.8658 H   0  0  0  0  0  0
  -25.1289  -36.1994   25.0848 H   0  0  0  0  0  0
  -20.9994  -28.3309   24.1438 H   0  0  0  0  0  0
  -20.5793  -26.2313   23.3615 H   0  0  0  0  0  0
  -21.6668  -26.7552   22.1165 H   0  0  0  0  0  0
  -19.6911  -25.6345   21.1272 H   0  0  0  0  0  0
  -19.6697  -27.3236   20.6784 H   0  0  0  0  0  0
  -17.4224  -26.6776   21.4024 H   0  0  0  0  0  0
  -18.0301  -26.0110   22.9024 H   0  0  0  0  0  0
  -19.7916  -30.7327   24.2314 H   0  0  0  0  0  0
  -17.4985  -31.6287   24.5195 H   0  0  0  0  0  0
  -15.5347  -30.3027   23.7625 H   0  0  0  0  0  0
  -15.8693  -28.0864   22.7059 H   0  0  0  0  0  0
  -24.5925  -30.7066   25.7735 H   0  0  0  0  0  0
  -24.8892  -32.2881   26.4833 H   0  0  0  0  0  0
  -25.8058  -30.8921   27.0184 H   0  0  0  0  0  0
  -26.2834  -29.6812   24.1146 H   0  0  0  0  0  0
  -27.4058  -29.7295   25.4559 H   0  0  0  0  0  0
  -27.8682  -30.4355   23.9230 H   0  0  0  0  0  0
  -27.2727  -33.3636   26.2021 H   0  0  0  0  0  0
  -28.3867  -32.6852   25.0249 H   0  0  0  0  0  0
  -28.0753  -31.8439   26.5345 H   0  0  0  0  0  0
  -28.2641  -38.0089   24.7557 H   0  0  0  0  0  0
  -28.1079  -36.2627   24.6276 H   0  0  0  0  0  0
  -27.2314  -37.1440   25.8879 H   0  0  0  0  0  0
  -20.9361  -29.8703   21.6859 H   0  0  0  0  0  0
  -26.0212  -38.2900   24.1407 H   0  0  0  0  0  0
  -29.6606  -19.6213   21.7386 H   0  0  0  0  0  0
  -26.4296  -20.6466   21.8050 H   0  0  0  0  0  0
  -26.6403  -22.3904   21.9197 H   0  0  0  0  0  0
  -27.9218  -21.3139   22.4615 H   0  0  0  0  0  0
  -28.7671  -20.8122   16.5502 H   0  0  0  0  0  0
  -27.6919  -21.7927   17.5292 H   0  0  0  0  0  0
  -27.1156  -21.0950   16.0239 H   0  0  0  0  0  0
  -25.4990  -18.6183   18.3357 H   0  0  0  0  0  0
  -25.2042  -19.7287   17.0088 H   0  0  0  0  0  0
  -25.4668  -20.3438   18.6254 H   0  0  0  0  0  0
  -29.8759  -16.3273   16.2002 H   0  0  0  0  0  0
  -30.7765  -17.5220   17.1176 H   0  0  0  0  0  0
  -29.3803  -18.0138   16.1694 H   0  0  0  0  0  0
  -27.5959  -15.3121   17.4061 H   0  0  0  0  0  0
  -27.0052  -16.8497   16.8609 H   0  0  0  0  0  0
  -26.8433  -16.4072   18.5531 H   0  0  0  0  0  0
  -29.0917  -16.7514   22.5875 H   0  0  0  0  0  0
  -29.4297  -15.0773   22.9334 H   0  0  0  0  0  0
  -28.0773  -15.5315   21.8648 H   0  0  0  0  0  0
  -31.0926  -17.3822   21.4795 H   0  0  0  0  0  0
  -31.2838  -16.9549   19.8259 H   0  0  0  0  0  0
  -26.8360  -23.9517   20.0834 H   0  0  0  0  0  0
  -27.9450  -24.3415   18.8160 H   0  0  0  0  0  0
  -29.3761  -22.8029   20.9055 H   0  0  0  0  0  0
  -29.2759  -22.5783   19.1959 H   0  0  0  0  0  0
  -29.4283  -25.1585   20.9828 H   0  0  0  0  0  0
  -27.8430  -25.3828   21.6467 H   0  0  0  0  0  0
  -26.9175  -21.5883   19.6125 H   0  0  0  0  0  0
  -27.4597  -18.8724   16.8592 H   0  0  0  0  0  0
  -29.3739  -16.1256   18.5384 H   0  0  0  0  0  0
  1 25  1  0  0  0
  1 30  2  0  0  0
  1 89  1  0  0  0
  2  3  1  0  0  0
  2 25  1  0  0  0
  2 90  1  0  0  0
  2 91  1  0  0  0
  3  4  1  0  0  0
  3 92  1  0  0  0
  3 93  1  0  0  0
  4  5  1  0  0  0
  4 94  1  0  0  0
  4 95  1  0  0  0
  5  6  1  0  0  0
  5 26  1  0  0  0
  5 96  1  0  0  0
  6 25  1  0  0  0
  6 97  1  0  0  0
  6 98  1  0  0  0
  7  8  2  0  0  0
  7 26  1  0  0  0
  7 29  1  0  0  0
  8  9  1  0  0  0
  8 22  1  0  0  0
  9 10  1  0  0  0
  9 27  2  0  0  0
 10 11  2  0  0  0
 10 15  1  0  0  0
 11 12  1  0  0  0
 11 99  1  0  0  0
 12 13  2  0  0  0
 12100  1  0  0  0
 13 14  1  0  0  0
 13 31  1  0  0  0
 14 15  2  0  0  0
 14101  1  0  0  0
 15102  1  0  0  0
 16 17  2  0  0  0
 16 21  1  0  0  0
 16 31  1  0  0  0
 17 18  1  0  0  0
 17103  1  0  0  0
 18 19  2  0  0  0
 18104  1  0  0  0
 19 20  1  0  0  0
 19 24  1  0  0  0
 20 21  2  0  0  0
 20105  1  0  0  0
 21 23  1  0  0  0
 22 28  1  0  0  0
 22 32  2  0  0  0
 26 27  1  0  0  0
 28106  1  0  0  0
 28107  1  0  0  0
 29108  1  0  0  0
 29109  1  0  0  0
 33 34  1  0  0  0
 33 66  1  0  0  0
 33 70  2  0  0  0
 34 36  1  0  0  0
 34 59  1  0  0  0
 34110  1  0  0  0
 35 44  2  0  0  0
 35 45  1  0  0  0
 35 68  1  0  0  0
 36 56  1  0  0  0
 36111  1  0  0  0
 37 39  1  0  0  0
 37 47  1  0  0  0
 37 66  1  0  0  0
 37112  1  0  0  0
 38 43  2  0  0  0
 38 46  1  0  0  0
 38 47  1  0  0  0
 39 64  1  0  0  0
 39 67  2  0  0  0
 40 52  1  0  0  0
 40 53  2  0  0  0
 40 58  1  0  0  0
 41113  1  0  0  0
 41114  1  0  0  0
 41115  1  0  0  0
 41 48  1  0  0  0
 42 43  1  0  0  0
 42 66  1  0  0  0
 42116  1  0  0  0
 42117  1  0  0  0
 43 44  1  0  0  0
 44118  1  0  0  0
 45 46  2  0  0  0
 45119  1  0  0  0
 46120  1  0  0  0
 47121  1  0  0  0
 47122  1  0  0  0
 48 56  1  0  0  0
 48 65  1  0  0  0
 48123  1  0  0  0
 49 50  1  0  0  0
 49 53  1  0  0  0
 49 64  1  0  0  0
 49124  1  0  0  0
 50 51  1  0  0  0
 50125  1  0  0  0
 50126  1  0  0  0
 51 52  1  0  0  0
 51127  1  0  0  0
 51128  1  0  0  0
 52129  1  0  0  0
 52130  1  0  0  0
 53 54  1  0  0  0
 54 55  2  0  0  0
 54131  1  0  0  0
 55 57  1  0  0  0
 55132  1  0  0  0
 56 69  2  0  0  0
 57 58  2  0  0  0
 57133  1  0  0  0
 58134  1  0  0  0
 59 60  1  0  0  0
 59 61  1  0  0  0
 59 62  1  0  0  0
 60135  1  0  0  0
 60136  1  0  0  0
 60137  1  0  0  0
 61138  1  0  0  0
 61139  1  0  0  0
 61140  1  0  0  0
 62141  1  0  0  0
 62142  1  0  0  0
 62143  1  0  0  0
 63 65  1  0  0  0
 63144  1  0  0  0
 63145  1  0  0  0
 63146  1  0  0  0
 64147  1  0  0  0
 65148  1  0  0  0
 68 84  1  0  0  0
 71 72  1  0  0  0
 71 73  2  0  0  0
 71149  1  0  0  0
 72 74  2  0  0  0
 72 85  1  0  0  0
 73 81  1  0  0  0
 73 88  1  0  0  0
 74 86  1  0  0  0
 74 88  1  0  0  0
 75150  1  0  0  0
 75151  1  0  0  0
 75152  1  0  0  0
 75 85  1  0  0  0
 76153  1  0  0  0
 76154  1  0  0  0
 76155  1  0  0  0
 76 86  1  0  0  0
 77 86  1  0  0  0
 77156  1  0  0  0
 77157  1  0  0  0
 77158  1  0  0  0
 78159  1  0  0  0
 78160  1  0  0  0
 78161  1  0  0  0
 78 87  1  0  0  0
 79 87  1  0  0  0
 79162  1  0  0  0
 79163  1  0  0  0
 79164  1  0  0  0
 80 89  1  0  0  0
 80165  1  0  0  0
 80166  1  0  0  0
 80167  1  0  0  0
 81 89  1  0  0  0
 81168  1  0  0  0
 81169  1  0  0  0
 82 83  1  0  0  0
 82 84  1  0  0  0
 82170  1  0  0  0
 82171  1  0  0  0
 83 85  1  0  0  0
 83172  1  0  0  0
 83173  1  0  0  0
 84174  1  0  0  0
 84175  1  0  0  0
 85176  1  0  0  0
 86177  1  0  0  0
 87 88  1  0  0  0
 87178  1  0  0  0
M  ISO  4   1 100  68 101  84 101  89 100
M  END
> <chiral flag>
0

> <version>
0

> <s_m_source_file>
/data/baiqing/PycharmProjects/Reinvent-master-3.2/result/LINK_invent/BTK/process_docking_weight1_custom_sum_contain_oxygen_bond_distance_aromatic_linkinvent_7_9_3/rearranged_h_0117.sdf

> <i_m_source_file_index>
7

> <r_mmod_Potential_Energy-OPLS-2005>
102.935615539551

> <r_mmod_Stretch_Energy-OPLS-2005>
60.6635856628418

> <r_mmod_Bend_Energy-OPLS-2005>
147.924209594727

> <r_mmod_Torsional_Energy-OPLS-2005>
321.047454833984

> <r_mmod_Improper_Torsional_Energy-OPLS-2005>
9.52820110321045

> <r_mmod_Van_der_Waal_Energy-OPLS-2005>
120.35595703125

> <r_mmod_Electrostatic_Energy-OPLS-2005>
-399.334350585938

> <r_mmod_Solvation_Energy-OPLS-2005>
-177.685073852539

> <b_mmod_Minimization_Converged-OPLS-2005>
0

> <r_mmod_RMS_Derivative-OPLS-2005>
3.96026611328125

$$$$
7
                    3D
 Structure written by MMmdl.
161169  0  0  1  0            999 V2000
  -30.6615  -14.5559   20.4608 C   0  0  0  0  0  0
  -30.4188  -12.3207   19.4563 C   0  0  0  0  0  0
  -29.5011  -12.4767   18.2242 C   0  0  0  0  0  0
  -28.0134  -12.3695   18.6205 C   0  0  0  0  0  0
  -27.6526  -13.2178   19.8700 C   0  0  2  0  0  0
  -28.6973  -13.0574   21.0006 C   0  0  0  0  0  0
  -25.2561  -13.8177   20.5704 C   0  0  0  0  0  0
  -24.1836  -13.0443   20.9204 C   0  0  0  0  0  0
  -24.6384  -11.6909   20.8752 C   0  0  0  0  0  0
  -23.9048  -10.4297   21.0398 C   0  0  0  0  0  0
  -24.3592   -9.4213   21.9162 C   0  0  0  0  0  0
  -23.6275   -8.2250   22.0739 C   0  0  0  0  0  0
  -22.4260   -8.0269   21.3525 C   0  0  0  0  0  0
  -21.9893   -9.0242   20.4632 C   0  0  0  0  0  0
  -22.7216  -10.2124   20.3051 C   0  0  0  0  0  0
  -21.6862   -6.0722   22.5266 C   0  0  0  0  0  0
  -21.4017   -6.5623   23.8195 C   0  0  0  0  0  0
  -21.3678   -5.6791   24.9169 C   0  0  0  0  0  0
  -21.6048   -4.3045   24.7244 C   0  0  0  0  0  0
  -21.8812   -3.8140   23.4363 C   0  0  0  0  0  0
  -21.9207   -4.6957   22.3411 C   0  0  0  0  0  0
  -22.7841  -13.5209   21.1866 C   0  0  0  0  0  0
  -22.1670   -4.2144   21.0985 F   0  0  0  0  0  0
  -21.5623   -3.4523   25.7764 F   0  0  0  0  0  0
  -30.0212  -13.3507   20.4343 N   0  0  0  0  0  0
  -26.2991  -12.9354   20.3361 N   0  0  0  0  0  0
  -25.9311  -11.6499   20.5757 N   0  0  0  0  0  0
  -22.0522  -12.8171   22.0425 N   0  0  0  0  0  0
  -25.4269  -15.1903   20.4083 N   0  0  0  0  0  0
  -31.8372  -14.6758   20.1073 O   0  0  0  0  0  0
  -21.6649   -6.8854   21.4212 O   0  0  0  0  0  0
  -22.3498  -14.5496   20.6730 O   0  0  0  0  0  0
  -24.6178  -31.8621   23.2064 C   0  0  0  0  0  0
  -25.9054  -32.4782   23.8369 C   0  0  1  0  0  0
  -27.2275  -27.3727   20.1079 C   0  0  0  0  0  0
  -25.5896  -33.8593   24.2296 N   0  0  0  0  0  0
  -23.4083  -30.4849   21.5488 C   0  0  2  0  0  0
  -24.8569  -28.9481   20.1109 C   0  0  0  0  0  0
  -22.7431  -29.4620   22.4985 C   0  0  0  0  0  0
  -18.0267  -28.1347   22.8493 C   0  0  0  0  0  0
  -24.1492  -36.7318   23.2636 C   0  0  0  0  0  0
  -25.9433  -30.8098   21.3674 C   0  0  0  0  0  0
  -26.0211  -29.4400   20.7141 C   0  0  0  0  0  0
  -27.2097  -28.6626   20.7051 C   0  0  0  0  0  0
  -26.0447  -26.9234   19.4761 C   0  0  0  0  0  0
  -24.8681  -27.6931   19.4837 C   0  0  0  0  0  0
  -23.6181  -29.8146   20.1648 C   0  0  0  0  0  0
  -25.4109  -36.3099   24.0324 C   0  0  1  0  0  0
  -20.5860  -28.3643   23.1320 C   0  0  2  0  0  0
  -20.6758  -26.9362   22.5464 C   0  0  0  0  0  0
  -19.5759  -26.6351   21.5239 C   0  0  0  0  0  0
  -18.1916  -26.7901   22.1604 C   0  0  0  0  0  0
  -19.1515  -28.8812   23.2897 C   0  0  0  0  0  0
  -18.9444  -30.1423   23.8899 C   0  0  0  0  0  0
  -17.6436  -30.6547   24.0564 C   0  0  0  0  0  0
  -25.9034  -34.9457   23.5113 C   0  0  0  0  0  0
  -16.5333  -29.9043   23.6322 C   0  0  0  0  0  0
  -16.7249  -28.6463   23.0341 C   0  0  0  0  0  0
  -26.4479  -31.6548   25.0696 C   0  0  0  0  0  0
  -25.3755  -31.3662   26.1449 C   0  0  0  0  0  0
  -27.0271  -30.2972   24.6054 C   0  0  0  0  0  0
  -27.6028  -32.4277   25.7472 C   0  0  0  0  0  0
  -27.5587  -37.1797   24.8431 C   0  0  0  0  0  0
  -21.4149  -29.3009   22.3729 N   0  0  0  0  0  0
  -26.4285  -37.3787   23.9406 N   0  0  0  0  0  0
  -24.6752  -31.0673   22.0991 N   0  0  0  0  0  0
  -23.4187  -28.8157   23.3026 O   0  0  0  0  0  0
  -28.3663  -26.5724   20.1425 O   0  0  0  0  0  0
  -26.5610  -34.8906   22.4683 O   0  0  0  0  0  0
  -23.5362  -32.1407   23.7431 O   0  0  0  0  0  0
  -29.0425  -19.2588   20.0166 C   0  0  0  0  0  0
  -30.8608  -20.2301   20.8528 C   0  0  0  0  0  0
  -29.5994  -20.5223   20.4047 C   0  0  0  0  0  0
  -29.9787  -18.2538   20.1613 C   0  0  0  0  0  0
  -33.1256  -18.7648   22.1712 C   0  0  0  0  0  0
  -33.2961  -18.3134   19.6829 C   0  0  0  0  0  0
  -29.9771  -16.8104   19.6373 C   0  0  0  0  0  0
  -29.4560  -24.2894   20.5279 C   0  0  0  0  0  0
  -28.1559  -25.1423   20.3647 C   0  0  0  0  0  0
  -29.3252  -22.8500   21.1561 C   0  0  0  0  0  0
  -32.4031  -18.2168   20.9295 C   0  0  0  0  0  0
  -31.1119  -18.8659   20.6954 N   0  0  0  0  0  0
  -29.8642  -15.6501   20.5643 N   0  0  0  0  0  0
  -28.9958  -21.7720   20.2475 O   0  0  0  0  0  0
  -31.4635  -12.4081   19.1543 H   0  0  0  0  0  0
  -30.3177  -11.3259   19.8925 H   0  0  0  0  0  0
  -29.7353  -11.7164   17.4787 H   0  0  0  0  0  0
  -29.6912  -13.4387   17.7485 H   0  0  0  0  0  0
  -27.7907  -11.3157   18.8013 H   0  0  0  0  0  0
  -27.3870  -12.6657   17.7782 H   0  0  0  0  0  0
  -27.6707  -14.2589   19.5458 H   0  0  0  0  0  0
  -28.6805  -12.0400   21.3986 H   0  0  0  0  0  0
  -28.4703  -13.7188   21.8394 H   0  0  0  0  0  0
  -25.2743   -9.5693   22.4723 H   0  0  0  0  0  0
  -24.0012   -7.4632   22.7418 H   0  0  0  0  0  0
  -21.0851   -8.8717   19.8909 H   0  0  0  0  0  0
  -22.3656  -10.9641   19.6151 H   0  0  0  0  0  0
  -21.2006   -7.6132   23.9703 H   0  0  0  0  0  0
  -21.1482   -6.0522   25.9063 H   0  0  0  0  0  0
  -22.0595   -2.7605   23.2876 H   0  0  0  0  0  0
  -22.4211  -11.9846   22.4767 H   0  0  0  0  0  0
  -21.1124  -13.1144   22.2637 H   0  0  0  0  0  0
  -24.6585  -15.8458   20.5083 H   0  0  0  0  0  0
  -26.2588  -15.6218   20.0274 H   0  0  0  0  0  0
  -26.7099  -32.5476   23.1101 H   0  0  0  0  0  0
  -25.0061  -33.9759   25.0452 H   0  0  0  0  0  0
  -22.6980  -31.3022   21.4066 H   0  0  0  0  0  0
  -23.3754  -35.9647   23.3261 H   0  0  0  0  0  0
  -24.3607  -36.8993   22.2063 H   0  0  0  0  0  0
  -23.7243  -37.6501   23.6695 H   0  0  0  0  0  0
  -26.0548  -31.5702   20.5934 H   0  0  0  0  0  0
  -26.8324  -30.8698   21.9824 H   0  0  0  0  0  0
  -28.1035  -29.0357   21.1841 H   0  0  0  0  0  0
  -26.0081  -25.9760   18.9597 H   0  0  0  0  0  0
  -23.9775  -27.3153   18.9997 H   0  0  0  0  0  0
  -23.7136  -30.5841   19.3982 H   0  0  0  0  0  0
  -22.7433  -29.2258   19.8814 H   0  0  0  0  0  0
  -25.1289  -36.1958   25.0814 H   0  0  0  0  0  0
  -20.9943  -28.3228   24.1441 H   0  0  0  0  0  0
  -20.5628  -26.2257   23.3674 H   0  0  0  0  0  0
  -21.6638  -26.7372   22.1291 H   0  0  0  0  0  0
  -19.6928  -25.6270   21.1249 H   0  0  0  0  0  0
  -19.6720  -27.3187   20.6797 H   0  0  0  0  0  0
  -17.4231  -26.6702   21.3957 H   0  0  0  0  0  0
  -18.0237  -26.0002   22.8941 H   0  0  0  0  0  0
  -19.7917  -30.7253   24.2255 H   0  0  0  0  0  0
  -17.4978  -31.6225   24.5171 H   0  0  0  0  0  0
  -15.5333  -30.2938   23.7627 H   0  0  0  0  0  0
  -15.8656  -28.0779   22.7035 H   0  0  0  0  0  0
  -24.5996  -30.6898   25.7851 H   0  0  0  0  0  0
  -24.8872  -32.2804   26.4816 H   0  0  0  0  0  0
  -25.8156  -30.8958   27.0243 H   0  0  0  0  0  0
  -26.2786  -29.6761   24.1114 H   0  0  0  0  0  0
  -27.4031  -29.7167   25.4483 H   0  0  0  0  0  0
  -27.8634  -30.4261   23.9183 H   0  0  0  0  0  0
  -27.2610  -33.3564   26.2042 H   0  0  0  0  0  0
  -28.3847  -32.6844   25.0319 H   0  0  0  0  0  0
  -28.0659  -31.8403   26.5402 H   0  0  0  0  0  0
  -28.2555  -38.0140   24.7529 H   0  0  0  0  0  0
  -28.1132  -36.2674   24.6176 H   0  0  0  0  0  0
  -27.2316  -37.1344   25.8832 H   0  0  0  0  0  0
  -20.9312  -29.8758   21.6975 H   0  0  0  0  0  0
  -26.0165  -38.2846   24.1465 H   0  0  0  0  0  0
  -28.0660  -19.1167   19.5754 H   0  0  0  0  0  0
  -31.6428  -20.8865   21.2081 H   0  0  0  0  0  0
  -33.9934  -18.1473   22.4095 H   0  0  0  0  0  0
  -32.4733  -18.7643   23.0447 H   0  0  0  0  0  0
  -33.4944  -19.7783   22.0124 H   0  0  0  0  0  0
  -34.2329  -17.7717   19.8304 H   0  0  0  0  0  0
  -33.5450  -19.3496   19.4496 H   0  0  0  0  0  0
  -32.8117  -17.8861   18.8038 H   0  0  0  0  0  0
  -30.8547  -16.6879   19.0013 H   0  0  0  0  0  0
  -29.1469  -16.7091   18.9367 H   0  0  0  0  0  0
  -30.1103  -24.8584   21.1899 H   0  0  0  0  0  0
  -29.9889  -24.2276   19.5788 H   0  0  0  0  0  0
  -27.5553  -25.0333   21.2694 H   0  0  0  0  0  0
  -27.5804  -24.7004   19.5539 H   0  0  0  0  0  0
  -28.5715  -22.8683   21.9450 H   0  0  0  0  0  0
  -30.2622  -22.6298   21.6709 H   0  0  0  0  0  0
  -32.2062  -17.1637   21.1220 H   0  0  0  0  0  0
  -28.9320  -15.4662   20.9025 H   0  0  0  0  0  0
  1 25  1  0  0  0
  1 30  2  0  0  0
  1 83  1  0  0  0
  2  3  1  0  0  0
  2 25  1  0  0  0
  2 85  1  0  0  0
  2 86  1  0  0  0
  3  4  1  0  0  0
  3 87  1  0  0  0
  3 88  1  0  0  0
  4  5  1  0  0  0
  4 89  1  0  0  0
  4 90  1  0  0  0
  5  6  1  0  0  0
  5 26  1  0  0  0
  5 91  1  0  0  0
  6 25  1  0  0  0
  6 92  1  0  0  0
  6 93  1  0  0  0
  7  8  2  0  0  0
  7 26  1  0  0  0
  7 29  1  0  0  0
  8  9  1  0  0  0
  8 22  1  0  0  0
  9 10  1  0  0  0
  9 27  2  0  0  0
 10 11  2  0  0  0
 10 15  1  0  0  0
 11 12  1  0  0  0
 11 94  1  0  0  0
 12 13  2  0  0  0
 12 95  1  0  0  0
 13 14  1  0  0  0
 13 31  1  0  0  0
 14 15  2  0  0  0
 14 96  1  0  0  0
 15 97  1  0  0  0
 16 17  2  0  0  0
 16 21  1  0  0  0
 16 31  1  0  0  0
 17 18  1  0  0  0
 17 98  1  0  0  0
 18 19  2  0  0  0
 18 99  1  0  0  0
 19 20  1  0  0  0
 19 24  1  0  0  0
 20 21  2  0  0  0
 20100  1  0  0  0
 21 23  1  0  0  0
 22 28  1  0  0  0
 22 32  2  0  0  0
 26 27  1  0  0  0
 28101  1  0  0  0
 28102  1  0  0  0
 29103  1  0  0  0
 29104  1  0  0  0
 33 34  1  0  0  0
 33 66  1  0  0  0
 33 70  2  0  0  0
 34 36  1  0  0  0
 34 59  1  0  0  0
 34105  1  0  0  0
 35 44  2  0  0  0
 35 45  1  0  0  0
 35 68  1  0  0  0
 36 56  1  0  0  0
 36106  1  0  0  0
 37 39  1  0  0  0
 37 47  1  0  0  0
 37 66  1  0  0  0
 37107  1  0  0  0
 38 43  2  0  0  0
 38 46  1  0  0  0
 38 47  1  0  0  0
 39 64  1  0  0  0
 39 67  2  0  0  0
 40 52  1  0  0  0
 40 53  2  0  0  0
 40 58  1  0  0  0
 41108  1  0  0  0
 41109  1  0  0  0
 41110  1  0  0  0
 41 48  1  0  0  0
 42 43  1  0  0  0
 42 66  1  0  0  0
 42111  1  0  0  0
 42112  1  0  0  0
 43 44  1  0  0  0
 44113  1  0  0  0
 45 46  2  0  0  0
 45114  1  0  0  0
 46115  1  0  0  0
 47116  1  0  0  0
 47117  1  0  0  0
 48 56  1  0  0  0
 48 65  1  0  0  0
 48118  1  0  0  0
 49 50  1  0  0  0
 49 53  1  0  0  0
 49 64  1  0  0  0
 49119  1  0  0  0
 50 51  1  0  0  0
 50120  1  0  0  0
 50121  1  0  0  0
 51 52  1  0  0  0
 51122  1  0  0  0
 51123  1  0  0  0
 52124  1  0  0  0
 52125  1  0  0  0
 53 54  1  0  0  0
 54 55  2  0  0  0
 54126  1  0  0  0
 55 57  1  0  0  0
 55127  1  0  0  0
 56 69  2  0  0  0
 57 58  2  0  0  0
 57128  1  0  0  0
 58129  1  0  0  0
 59 60  1  0  0  0
 59 61  1  0  0  0
 59 62  1  0  0  0
 60130  1  0  0  0
 60131  1  0  0  0
 60132  1  0  0  0
 61133  1  0  0  0
 61134  1  0  0  0
 61135  1  0  0  0
 62136  1  0  0  0
 62137  1  0  0  0
 62138  1  0  0  0
 63 65  1  0  0  0
 63139  1  0  0  0
 63140  1  0  0  0
 63141  1  0  0  0
 64142  1  0  0  0
 65143  1  0  0  0
 68 79  1  0  0  0
 71 73  1  0  0  0
 71 74  2  0  0  0
 71144  1  0  0  0
 72 73  2  0  0  0
 72 82  1  0  0  0
 72145  1  0  0  0
 73 84  1  0  0  0
 74 77  1  0  0  0
 74 82  1  0  0  0
 75146  1  0  0  0
 75147  1  0  0  0
 75148  1  0  0  0
 75 81  1  0  0  0
 76 81  1  0  0  0
 76149  1  0  0  0
 76150  1  0  0  0
 76151  1  0  0  0
 77 83  1  0  0  0
 77152  1  0  0  0
 77153  1  0  0  0
 78 79  1  0  0  0
 78 80  1  0  0  0
 78154  1  0  0  0
 78155  1  0  0  0
 79156  1  0  0  0
 79157  1  0  0  0
 80 84  1  0  0  0
 80158  1  0  0  0
 80159  1  0  0  0
 81 82  1  0  0  0
 81160  1  0  0  0
 83161  1  0  0  0
M  ISO  4   1 100  68 101  79 101  83 100
M  END
> <chiral flag>
0

> <version>
0

> <s_m_source_file>
/data/baiqing/PycharmProjects/Reinvent-master-3.2/result/LINK_invent/BTK/process_docking_weight1_custom_sum_contain_oxygen_bond_distance_aromatic_linkinvent_7_9_3/rearranged_h_0117.sdf

> <i_m_source_file_index>
8

> <r_mmod_Potential_Energy-OPLS-2005>
-61.6448974609375

> <r_mmod_Stretch_Energy-OPLS-2005>
52.5615310668945

> <r_mmod_Bend_Energy-OPLS-2005>
119.993087768555

> <r_mmod_Torsional_Energy-OPLS-2005>
273.347534179688

> <r_mmod_Improper_Torsional_Energy-OPLS-2005>
13.2985334396362

> <r_mmod_Van_der_Waal_Energy-OPLS-2005>
126.827926635742

> <r_mmod_Electrostatic_Energy-OPLS-2005>
-463.499237060547

> <r_mmod_Solvation_Energy-OPLS-2005>
-213.427398681641

> <b_mmod_Minimization_Converged-OPLS-2005>
0

> <r_mmod_RMS_Derivative-OPLS-2005>
3.79624342918396

$$$$
8
                    3D
 Structure written by MMmdl.
162171  0  0  1  0            999 V2000
  -30.5934  -14.6916   20.5364 C   0  0  0  0  0  0
  -30.4383  -12.4247   19.4796 C   0  0  0  0  0  0
  -29.5129  -12.4958   18.2431 C   0  0  0  0  0  0
  -28.0353  -12.3242   18.6541 C   0  0  0  0  0  0
  -27.6527  -13.2134   19.8669 C   0  0  2  0  0  0
  -28.6888  -13.0858   21.0104 C   0  0  0  0  0  0
  -25.2556  -13.8132   20.5681 C   0  0  0  0  0  0
  -24.1793  -13.0435   20.9256 C   0  0  0  0  0  0
  -24.6342  -11.6916   20.8739 C   0  0  0  0  0  0
  -23.9016  -10.4307   21.0353 C   0  0  0  0  0  0
  -24.3570   -9.4235   21.9126 C   0  0  0  0  0  0
  -23.6267   -8.2257   22.0696 C   0  0  0  0  0  0
  -22.4249   -8.0272   21.3508 C   0  0  0  0  0  0
  -21.9907   -9.0212   20.4578 C   0  0  0  0  0  0
  -22.7192  -10.2126   20.3005 C   0  0  0  0  0  0
  -21.6853   -6.0747   22.5272 C   0  0  0  0  0  0
  -21.4007   -6.5624   23.8213 C   0  0  0  0  0  0
  -21.3666   -5.6773   24.9165 C   0  0  0  0  0  0
  -21.6049   -4.3043   24.7200 C   0  0  0  0  0  0
  -21.8823   -3.8163   23.4314 C   0  0  0  0  0  0
  -21.9189   -4.6983   22.3387 C   0  0  0  0  0  0
  -22.7840  -13.5243   21.1906 C   0  0  0  0  0  0
  -22.1669   -4.2191   21.0951 F   0  0  0  0  0  0
  -21.5629   -3.4492   25.7702 F   0  0  0  0  0  0
  -30.0070  -13.4476   20.4650 N   0  0  0  0  0  0
  -26.2968  -12.9319   20.3318 N   0  0  0  0  0  0
  -25.9272  -11.6479   20.5765 N   0  0  0  0  0  0
  -22.0421  -12.8225   22.0425 N   0  0  0  0  0  0
  -25.4371  -15.1806   20.4001 N   0  0  0  0  0  0
  -31.6983  -14.8934   20.0230 O   0  0  0  0  0  0
  -21.6642   -6.8871   21.4225 O   0  0  0  0  0  0
  -22.3523  -14.5533   20.6736 O   0  0  0  0  0  0
  -24.6268  -31.8596   23.2072 C   0  0  0  0  0  0
  -25.9127  -32.4779   23.8393 C   0  0  1  0  0  0
  -27.1994  -27.2772   20.1359 C   0  0  0  0  0  0
  -25.5964  -33.8593   24.2322 N   0  0  0  0  0  0
  -23.4252  -30.4849   21.5472 C   0  0  2  0  0  0
  -24.8738  -28.9592   20.0925 C   0  0  0  0  0  0
  -22.7519  -29.4592   22.4910 C   0  0  0  0  0  0
  -18.0314  -28.1377   22.8461 C   0  0  0  0  0  0
  -24.1481  -36.7257   23.2649 C   0  0  0  0  0  0
  -25.9717  -30.7672   21.4032 C   0  0  0  0  0  0
  -26.0382  -29.4013   20.7323 C   0  0  0  0  0  0
  -27.2004  -28.5670   20.7614 C   0  0  0  0  0  0
  -26.0426  -26.9513   19.3877 C   0  0  0  0  0  0
  -24.8808  -27.7401   19.4045 C   0  0  0  0  0  0
  -23.6423  -29.8367   20.1561 C   0  0  0  0  0  0
  -25.4117  -36.3095   24.0340 C   0  0  1  0  0  0
  -20.5915  -28.3688   23.1275 C   0  0  2  0  0  0
  -20.6830  -26.9402   22.5416 C   0  0  0  0  0  0
  -19.5774  -26.6348   21.5262 C   0  0  0  0  0  0
  -18.1942  -26.7921   22.1631 C   0  0  0  0  0  0
  -19.1555  -28.8869   23.2845 C   0  0  0  0  0  0
  -18.9453  -30.1489   23.8811 C   0  0  0  0  0  0
  -17.6436  -30.6583   24.0512 C   0  0  0  0  0  0
  -25.9071  -34.9460   23.5115 C   0  0  0  0  0  0
  -16.5335  -29.9042   23.6330 C   0  0  0  0  0  0
  -16.7291  -28.6481   23.0325 C   0  0  0  0  0  0
  -26.4506  -31.6608   25.0798 C   0  0  0  0  0  0
  -25.3751  -31.3718   26.1537 C   0  0  0  0  0  0
  -27.0401  -30.3017   24.6363 C   0  0  0  0  0  0
  -27.6058  -32.4374   25.7553 C   0  0  0  0  0  0
  -27.5566  -37.1778   24.8484 C   0  0  0  0  0  0
  -21.4231  -29.3012   22.3639 N   0  0  0  0  0  0
  -26.4297  -37.3794   23.9426 N   0  0  0  0  0  0
  -24.6907  -31.0592   22.1042 N   0  0  0  0  0  0
  -23.4227  -28.8127   23.2997 O   0  0  0  0  0  0
  -28.2419  -26.3183   20.2475 O   0  0  0  0  0  0
  -26.5617  -34.8915   22.4674 O   0  0  0  0  0  0
  -23.5412  -32.1423   23.7351 O   0  0  0  0  0  0
  -27.1478  -22.2847   21.0999 C   0  0  0  0  0  0
  -28.9349  -23.8392   20.6094 C   0  0  0  0  0  0
  -28.5304  -22.4694   20.9048 C   0  0  0  0  0  0
  -26.2723  -23.3791   21.0429 C   0  0  0  0  0  0
  -27.9780  -24.9323   20.5680 C   0  0  0  0  0  0
  -28.9819  -19.7520   20.6597 C   0  0  0  0  0  0
  -29.8149  -21.0965   22.6358 C   0  0  0  0  0  0
  -30.7022  -18.6610   22.2710 C   0  0  0  0  0  0
  -29.4747  -21.2022   21.1251 C   0  0  2  0  0  0
  -29.9961  -18.5308   20.8954 C   0  0  1  0  0  0
  -24.7701  -23.1953   21.1463 C   0  0  0  0  0  0
  -29.4440  -17.0677   20.4762 C   0  0  0  0  0  0
  -26.6860  -24.6413   20.8463 N   0  0  0  0  0  0
  -29.8495  -15.7228   21.0702 N   0  0  0  0  0  0
  -30.2169  -19.7559   23.1635 N   0  3  0  0  0  0
  -31.4783  -12.5541   19.1802 H   0  0  0  0  0  0
  -30.3851  -11.4302   19.9249 H   0  0  0  0  0  0
  -29.7859  -11.7200   17.5280 H   0  0  0  0  0  0
  -29.6429  -13.4488   17.7244 H   0  0  0  0  0  0
  -27.8915  -11.2750   18.9129 H   0  0  0  0  0  0
  -27.3733  -12.5161   17.8080 H   0  0  0  0  0  0
  -27.6737  -14.2448   19.5155 H   0  0  0  0  0  0
  -28.6986  -12.0633   21.3876 H   0  0  0  0  0  0
  -28.4077  -13.7092   21.8582 H   0  0  0  0  0  0
  -25.2691   -9.5729   22.4707 H   0  0  0  0  0  0
  -23.9994   -7.4635   22.7361 H   0  0  0  0  0  0
  -21.0920   -8.8681   19.8790 H   0  0  0  0  0  0
  -22.3619  -10.9659   19.6120 H   0  0  0  0  0  0
  -21.1999   -7.6132   23.9746 H   0  0  0  0  0  0
  -21.1467   -6.0487   25.9078 H   0  0  0  0  0  0
  -22.0594   -2.7641   23.2783 H   0  0  0  0  0  0
  -22.4078  -11.9984   22.4967 H   0  0  0  0  0  0
  -21.0922  -13.1082   22.2376 H   0  0  0  0  0  0
  -24.6732  -15.8408   20.4828 H   0  0  0  0  0  0
  -26.2780  -15.5828   20.0057 H   0  0  0  0  0  0
  -26.7196  -32.5404   23.1131 H   0  0  0  0  0  0
  -25.0225  -33.9764   25.0534 H   0  0  0  0  0  0
  -22.7209  -31.3061   21.4078 H   0  0  0  0  0  0
  -23.3780  -35.9551   23.3350 H   0  0  0  0  0  0
  -24.3570  -36.8855   22.2062 H   0  0  0  0  0  0
  -23.7197  -37.6446   23.6642 H   0  0  0  0  0  0
  -26.1482  -31.5325   20.6497 H   0  0  0  0  0  0
  -26.8383  -30.7882   22.0535 H   0  0  0  0  0  0
  -28.0734  -28.8783   21.3159 H   0  0  0  0  0  0
  -26.0032  -26.0196   18.8438 H   0  0  0  0  0  0
  -24.0010  -27.4100   18.8716 H   0  0  0  0  0  0
  -23.7604  -30.6240   19.4111 H   0  0  0  0  0  0
  -22.7636  -29.2700   19.8445 H   0  0  0  0  0  0
  -25.1279  -36.1949   25.0830 H   0  0  0  0  0  0
  -20.9982  -28.3222   24.1402 H   0  0  0  0  0  0
  -20.5845  -26.2232   23.3574 H   0  0  0  0  0  0
  -21.6660  -26.7503   22.1093 H   0  0  0  0  0  0
  -19.6911  -25.6241   21.1328 H   0  0  0  0  0  0
  -19.6737  -27.3120   20.6757 H   0  0  0  0  0  0
  -17.4241  -26.6700   21.3998 H   0  0  0  0  0  0
  -18.0281  -26.0076   22.9039 H   0  0  0  0  0  0
  -19.7922  -30.7376   24.2055 H   0  0  0  0  0  0
  -17.4975  -31.6258   24.5104 H   0  0  0  0  0  0
  -15.5321  -30.2899   23.7738 H   0  0  0  0  0  0
  -15.8694  -28.0820   22.7011 H   0  0  0  0  0  0
  -24.5978  -30.7008   25.7879 H   0  0  0  0  0  0
  -24.8882  -32.2846   26.4945 H   0  0  0  0  0  0
  -25.8103  -30.8944   27.0325 H   0  0  0  0  0  0
  -26.3008  -29.6698   24.1443 H   0  0  0  0  0  0
  -27.4110  -29.7355   25.4910 H   0  0  0  0  0  0
  -27.8868  -30.4287   23.9627 H   0  0  0  0  0  0
  -27.2703  -33.3721   26.2036 H   0  0  0  0  0  0
  -28.3891  -32.6870   25.0399 H   0  0  0  0  0  0
  -28.0704  -31.8597   26.5538 H   0  0  0  0  0  0
  -28.2591  -38.0068   24.7558 H   0  0  0  0  0  0
  -28.1048  -36.2599   24.6282 H   0  0  0  0  0  0
  -27.2283  -37.1419   25.8889 H   0  0  0  0  0  0
  -20.9378  -29.8679   21.6805 H   0  0  0  0  0  0
  -26.0164  -38.2854   24.1484 H   0  0  0  0  0  0
  -26.7436  -21.3033   21.3081 H   0  0  0  0  0  0
  -29.9774  -24.0627   20.4313 H   0  0  0  0  0  0
  -28.6774  -19.7952   19.6132 H   0  0  0  0  0  0
  -28.0725  -19.4992   21.2064 H   0  0  0  0  0  0
  -28.9221  -21.3642   23.2072 H   0  0  0  0  0  0
  -30.5635  -21.8443   22.9080 H   0  0  0  0  0  0
  -31.7765  -18.7870   22.1180 H   0  0  0  0  0  0
  -30.5980  -17.7251   22.8228 H   0  0  0  0  0  0
  -30.3971  -21.4112   20.5801 H   0  0  0  0  0  0
  -30.8102  -18.6917   20.1820 H   0  0  0  0  0  0
  -24.4826  -22.2097   20.7806 H   0  0  0  0  0  0
  -24.2462  -23.9324   20.5341 H   0  0  0  0  0  0
  -24.4310  -23.3080   22.1745 H   0  0  0  0  0  0
  -29.5017  -16.9733   19.3894 H   0  0  0  0  0  0
  -28.3746  -17.1099   20.6845 H   0  0  0  0  0  0
  -29.1178  -15.3602   21.6677 H   0  0  0  0  0  0
  -29.4136  -19.3878   23.6471 H   0  0  0  0  0  0
  -30.9065  -19.9135   23.8803 H   0  0  0  0  0  0
  1 25  1  0  0  0
  1 30  2  0  0  0
  1 84  1  0  0  0
  2  3  1  0  0  0
  2 25  1  0  0  0
  2 86  1  0  0  0
  2 87  1  0  0  0
  3  4  1  0  0  0
  3 88  1  0  0  0
  3 89  1  0  0  0
  4  5  1  0  0  0
  4 90  1  0  0  0
  4 91  1  0  0  0
  5  6  1  0  0  0
  5 26  1  0  0  0
  5 92  1  0  0  0
  6 25  1  0  0  0
  6 93  1  0  0  0
  6 94  1  0  0  0
  7  8  2  0  0  0
  7 26  1  0  0  0
  7 29  1  0  0  0
  8  9  1  0  0  0
  8 22  1  0  0  0
  9 10  1  0  0  0
  9 27  2  0  0  0
 10 11  2  0  0  0
 10 15  1  0  0  0
 11 12  1  0  0  0
 11 95  1  0  0  0
 12 13  2  0  0  0
 12 96  1  0  0  0
 13 14  1  0  0  0
 13 31  1  0  0  0
 14 15  2  0  0  0
 14 97  1  0  0  0
 15 98  1  0  0  0
 16 17  2  0  0  0
 16 21  1  0  0  0
 16 31  1  0  0  0
 17 18  1  0  0  0
 17 99  1  0  0  0
 18 19  2  0  0  0
 18100  1  0  0  0
 19 20  1  0  0  0
 19 24  1  0  0  0
 20 21  2  0  0  0
 20101  1  0  0  0
 21 23  1  0  0  0
 22 28  1  0  0  0
 22 32  2  0  0  0
 26 27  1  0  0  0
 28102  1  0  0  0
 28103  1  0  0  0
 29104  1  0  0  0
 29105  1  0  0  0
 33 34  1  0  0  0
 33 66  1  0  0  0
 33 70  2  0  0  0
 34 36  1  0  0  0
 34 59  1  0  0  0
 34106  1  0  0  0
 35 44  2  0  0  0
 35 45  1  0  0  0
 35 68  1  0  0  0
 36 56  1  0  0  0
 36107  1  0  0  0
 37 39  1  0  0  0
 37 47  1  0  0  0
 37 66  1  0  0  0
 37108  1  0  0  0
 38 43  2  0  0  0
 38 46  1  0  0  0
 38 47  1  0  0  0
 39 64  1  0  0  0
 39 67  2  0  0  0
 40 52  1  0  0  0
 40 53  2  0  0  0
 40 58  1  0  0  0
 41109  1  0  0  0
 41110  1  0  0  0
 41111  1  0  0  0
 41 48  1  0  0  0
 42 43  1  0  0  0
 42 66  1  0  0  0
 42112  1  0  0  0
 42113  1  0  0  0
 43 44  1  0  0  0
 44114  1  0  0  0
 45 46  2  0  0  0
 45115  1  0  0  0
 46116  1  0  0  0
 47117  1  0  0  0
 47118  1  0  0  0
 48 56  1  0  0  0
 48 65  1  0  0  0
 48119  1  0  0  0
 49 50  1  0  0  0
 49 53  1  0  0  0
 49 64  1  0  0  0
 49120  1  0  0  0
 50 51  1  0  0  0
 50121  1  0  0  0
 50122  1  0  0  0
 51 52  1  0  0  0
 51123  1  0  0  0
 51124  1  0  0  0
 52125  1  0  0  0
 52126  1  0  0  0
 53 54  1  0  0  0
 54 55  2  0  0  0
 54127  1  0  0  0
 55 57  1  0  0  0
 55128  1  0  0  0
 56 69  2  0  0  0
 57 58  2  0  0  0
 57129  1  0  0  0
 58130  1  0  0  0
 59 60  1  0  0  0
 59 61  1  0  0  0
 59 62  1  0  0  0
 60131  1  0  0  0
 60132  1  0  0  0
 60133  1  0  0  0
 61134  1  0  0  0
 61135  1  0  0  0
 61136  1  0  0  0
 62137  1  0  0  0
 62138  1  0  0  0
 62139  1  0  0  0
 63 65  1  0  0  0
 63140  1  0  0  0
 63141  1  0  0  0
 63142  1  0  0  0
 64143  1  0  0  0
 65144  1  0  0  0
 68 75  1  0  0  0
 71 73  2  0  0  0
 71 74  1  0  0  0
 71145  1  0  0  0
 72 73  1  0  0  0
 72 75  2  0  0  0
 72146  1  0  0  0
 73 79  1  0  0  0
 74 81  1  0  0  0
 74 83  2  0  0  0
 75 83  1  0  0  0
 76 79  1  0  0  0
 76 80  1  0  0  0
 76147  1  0  0  0
 76148  1  0  0  0
 77 79  1  0  0  0
 77 85  1  0  0  0
 77149  1  0  0  0
 77150  1  0  0  0
 78 80  1  0  0  0
 78 85  1  0  0  0
 78151  1  0  0  0
 78152  1  0  0  0
 79153  1  0  0  0
 80 82  1  0  0  0
 80154  1  0  0  0
 81155  1  0  0  0
 81156  1  0  0  0
 81157  1  0  0  0
 82 84  1  0  0  0
 82158  1  0  0  0
 82159  1  0  0  0
 84160  1  0  0  0
 85161  1  0  0  0
 85162  1  0  0  0
M  CHG  1  85   1
M  ISO  4   1 100  68 101  75 101  84 100
M  END
> <chiral flag>
0

> <version>
0

> <s_m_source_file>
/data/baiqing/PycharmProjects/Reinvent-master-3.2/result/LINK_invent/BTK/process_docking_weight1_custom_sum_contain_oxygen_bond_distance_aromatic_linkinvent_7_9_3/rearranged_h_0117.sdf

> <i_m_source_file_index>
9

> <r_mmod_Potential_Energy-OPLS-2005>
-52.0940818786621

> <r_mmod_Stretch_Energy-OPLS-2005>
115.089019775391

> <r_mmod_Bend_Energy-OPLS-2005>
193.214233398438

> <r_mmod_Torsional_Energy-OPLS-2005>
312.442749023438

> <r_mmod_Improper_Torsional_Energy-OPLS-2005>
6.78920984268188

> <r_mmod_Van_der_Waal_Energy-OPLS-2005>
155.476898193359

> <r_mmod_Electrostatic_Energy-OPLS-2005>
-417.540954589844

> <r_mmod_Solvation_Energy-OPLS-2005>
-500.548950195312

> <b_mmod_Minimization_Converged-OPLS-2005>
0

> <r_mmod_RMS_Derivative-OPLS-2005>
5.83509397506714

$$$$
9
                    3D
 Structure written by MMmdl.
166174  0  0  1  0            999 V2000
  -30.6246  -14.7272   20.4556 C   0  0  0  0  0  0
  -30.4317  -12.4427   19.4738 C   0  0  0  0  0  0
  -29.5093  -12.4990   18.2359 C   0  0  0  0  0  0
  -28.0348  -12.3300   18.6498 C   0  0  0  0  0  0
  -27.6432  -13.2306   19.8519 C   0  0  2  0  0  0
  -28.6885  -13.1632   20.9873 C   0  0  0  0  0  0
  -25.2516  -13.8192   20.5695 C   0  0  0  0  0  0
  -24.1806  -13.0443   20.9218 C   0  0  0  0  0  0
  -24.6394  -11.6921   20.8755 C   0  0  0  0  0  0
  -23.9070  -10.4297   21.0412 C   0  0  0  0  0  0
  -24.3621   -9.4211   21.9187 C   0  0  0  0  0  0
  -23.6295   -8.2246   22.0755 C   0  0  0  0  0  0
  -22.4276   -8.0282   21.3547 C   0  0  0  0  0  0
  -21.9916   -9.0257   20.4650 C   0  0  0  0  0  0
  -22.7245  -10.2136   20.3061 C   0  0  0  0  0  0
  -21.6854   -6.0735   22.5281 C   0  0  0  0  0  0
  -21.4013   -6.5641   23.8214 C   0  0  0  0  0  0
  -21.3657   -5.6794   24.9176 C   0  0  0  0  0  0
  -21.6045   -4.3056   24.7226 C   0  0  0  0  0  0
  -21.8819   -3.8147   23.4347 C   0  0  0  0  0  0
  -21.9193   -4.6962   22.3403 C   0  0  0  0  0  0
  -22.7827  -13.5228   21.1870 C   0  0  0  0  0  0
  -22.1664   -4.2149   21.0981 F   0  0  0  0  0  0
  -21.5627   -3.4540   25.7739 F   0  0  0  0  0  0
  -29.9921  -13.5063   20.4060 N   0  0  0  0  0  0
  -26.2945  -12.9400   20.3290 N   0  0  0  0  0  0
  -25.9326  -11.6544   20.5764 N   0  0  0  0  0  0
  -22.0468  -12.8216   22.0419 N   0  0  0  0  0  0
  -25.4205  -15.1915   20.4087 N   0  0  0  0  0  0
  -31.8086  -14.8221   20.1244 O   0  0  0  0  0  0
  -21.6642   -6.8878   21.4241 O   0  0  0  0  0  0
  -22.3519  -14.5534   20.6715 O   0  0  0  0  0  0
  -24.6296  -31.8555   23.1982 C   0  0  0  0  0  0
  -25.9122  -32.4758   23.8329 C   0  0  1  0  0  0
  -27.2168  -27.2670   20.1327 C   0  0  0  0  0  0
  -25.5925  -33.8560   24.2257 N   0  0  0  0  0  0
  -23.4265  -30.4778   21.5409 C   0  0  2  0  0  0
  -24.8748  -28.9289   20.1028 C   0  0  0  0  0  0
  -22.7495  -29.4595   22.4905 C   0  0  0  0  0  0
  -18.0298  -28.1388   22.8487 C   0  0  0  0  0  0
  -24.1490  -36.7278   23.2641 C   0  0  0  0  0  0
  -25.9708  -30.7703   21.3779 C   0  0  0  0  0  0
  -26.0429  -29.3944   20.7185 C   0  0  0  0  0  0
  -27.2162  -28.5750   20.7233 C   0  0  0  0  0  0
  -26.0346  -26.8787   19.4649 C   0  0  0  0  0  0
  -24.8753  -27.6790   19.4639 C   0  0  0  0  0  0
  -23.6436  -29.8132   20.1550 C   0  0  0  0  0  0
  -25.4117  -36.3072   24.0324 C   0  0  1  0  0  0
  -20.5895  -28.3688   23.1277 C   0  0  2  0  0  0
  -20.6786  -26.9408   22.5413 C   0  0  0  0  0  0
  -19.5758  -26.6383   21.5215 C   0  0  0  0  0  0
  -18.1940  -26.7935   22.1621 C   0  0  0  0  0  0
  -19.1552  -28.8856   23.2880 C   0  0  0  0  0  0
  -18.9471  -30.1463   23.8893 C   0  0  0  0  0  0
  -17.6470  -30.6591   24.0561 C   0  0  0  0  0  0
  -25.9051  -34.9442   23.5090 C   0  0  0  0  0  0
  -16.5360  -29.9086   23.6335 C   0  0  0  0  0  0
  -16.7281  -28.6504   23.0350 C   0  0  0  0  0  0
  -26.4496  -31.6580   25.0713 C   0  0  0  0  0  0
  -25.3721  -31.3736   26.1438 C   0  0  0  0  0  0
  -27.0343  -30.3000   24.6186 C   0  0  0  0  0  0
  -27.6046  -32.4322   25.7492 C   0  0  0  0  0  0
  -27.5576  -37.1802   24.8469 C   0  0  0  0  0  0
  -21.4200  -29.3037   22.3660 N   0  0  0  0  0  0
  -26.4293  -37.3767   23.9405 N   0  0  0  0  0  0
  -24.6943  -31.0526   22.0953 N   0  0  0  0  0  0
  -23.4201  -28.8133   23.2999 O   0  0  0  0  0  0
  -28.3100  -26.3738   20.2270 O   0  0  0  0  0  0
  -26.5630  -34.8916   22.4669 O   0  0  0  0  0  0
  -23.5445  -32.1372   23.7276 O   0  0  0  0  0  0
  -30.6585  -24.7361   20.5159 C   0  0  0  0  0  0
  -31.6452  -23.9052   20.9243 C   0  0  0  0  0  0
  -29.4295  -24.0209   20.4657 C   0  0  0  0  0  0
  -29.7567  -22.6461   20.7015 C   0  0  0  0  0  0
  -27.1043  -24.4643   21.3107 C   0  0  0  0  0  0
  -32.5861  -22.0499   23.0487 C   0  0  0  0  0  0
  -32.8931  -21.0009   20.7554 C   0  0  0  0  0  0
  -29.0057  -21.2477   20.7054 C   0  0  0  0  0  0
  -30.2797  -17.3164   20.3474 C   0  0  0  0  0  0
  -29.2926  -18.5688   20.6644 C   0  0  0  0  0  0
  -28.1189  -24.8717   20.2246 C   0  0  1  0  0  0
  -31.8860  -21.5821   21.7604 C   0  0  0  0  0  0
  -31.0970  -22.6602   21.1493 N   0  0  0  0  0  0
  -29.8674  -15.8716   20.6468 N   0  0  0  0  0  0
  -29.7585  -19.9796   20.2537 N   0  3  0  0  0  0
  -31.4731  -12.5603   19.1695 H   0  0  0  0  0  0
  -30.3716  -11.4658   19.9572 H   0  0  0  0  0  0
  -29.7881  -11.7220   17.5229 H   0  0  0  0  0  0
  -29.6403  -13.4503   17.7183 H   0  0  0  0  0  0
  -27.8885  -11.2815   18.9119 H   0  0  0  0  0  0
  -27.3778  -12.5243   17.8009 H   0  0  0  0  0  0
  -27.6392  -14.2523   19.4713 H   0  0  0  0  0  0
  -28.7189  -12.1666   21.4300 H   0  0  0  0  0  0
  -28.4273  -13.8486   21.7951 H   0  0  0  0  0  0
  -25.2763   -9.5684   22.4769 H   0  0  0  0  0  0
  -24.0003   -7.4635   22.7474 H   0  0  0  0  0  0
  -21.0849   -8.8775   19.8955 H   0  0  0  0  0  0
  -22.3703  -10.9674   19.6172 H   0  0  0  0  0  0
  -21.2006   -7.6150   23.9717 H   0  0  0  0  0  0
  -21.1479   -6.0525   25.9080 H   0  0  0  0  0  0
  -22.0598   -2.7609   23.2850 H   0  0  0  0  0  0
  -22.4082  -11.9877   22.4809 H   0  0  0  0  0  0
  -21.1082  -13.1234   22.2614 H   0  0  0  0  0  0
  -24.6479  -15.8408   20.5095 H   0  0  0  0  0  0
  -26.2548  -15.6252   20.0357 H   0  0  0  0  0  0
  -26.7177  -32.5409   23.1061 H   0  0  0  0  0  0
  -25.0075  -33.9703   25.0402 H   0  0  0  0  0  0
  -22.7223  -31.2999   21.3954 H   0  0  0  0  0  0
  -23.3757  -35.9608   23.3312 H   0  0  0  0  0  0
  -24.3583  -36.8892   22.2056 H   0  0  0  0  0  0
  -23.7238  -37.6480   23.6662 H   0  0  0  0  0  0
  -26.1101  -31.5320   20.6091 H   0  0  0  0  0  0
  -26.8485  -30.8180   22.0111 H   0  0  0  0  0  0
  -28.1069  -28.9217   21.2283 H   0  0  0  0  0  0
  -25.9783  -25.9243   18.9633 H   0  0  0  0  0  0
  -23.9830  -27.3208   18.9689 H   0  0  0  0  0  0
  -23.7639  -30.5905   19.3992 H   0  0  0  0  0  0
  -22.7626  -29.2445   19.8521 H   0  0  0  0  0  0
  -25.1305  -36.1916   25.0817 H   0  0  0  0  0  0
  -20.9992  -28.3258   24.1397 H   0  0  0  0  0  0
  -20.5690  -26.2291   23.3611 H   0  0  0  0  0  0
  -21.6656  -26.7442   22.1202 H   0  0  0  0  0  0
  -19.6923  -25.6292   21.1246 H   0  0  0  0  0  0
  -19.6703  -27.3200   20.6750 H   0  0  0  0  0  0
  -17.4212  -26.6681   21.4022 H   0  0  0  0  0  0
  -18.0333  -26.0087   22.9025 H   0  0  0  0  0  0
  -19.7949  -30.7285   24.2248 H   0  0  0  0  0  0
  -17.5027  -31.6272   24.5167 H   0  0  0  0  0  0
  -15.5361  -30.2987   23.7669 H   0  0  0  0  0  0
  -15.8680  -28.0828   22.7061 H   0  0  0  0  0  0
  -24.5899  -30.7077   25.7772 H   0  0  0  0  0  0
  -24.8912  -32.2908   26.4842 H   0  0  0  0  0  0
  -25.8042  -30.8933   27.0221 H   0  0  0  0  0  0
  -26.2924  -29.6750   24.1201 H   0  0  0  0  0  0
  -27.4028  -29.7256   25.4695 H   0  0  0  0  0  0
  -27.8796  -30.4292   23.9429 H   0  0  0  0  0  0
  -27.2650  -33.3627   26.2058 H   0  0  0  0  0  0
  -28.3868  -32.6870   25.0326 H   0  0  0  0  0  0
  -28.0699  -31.8450   26.5422 H   0  0  0  0  0  0
  -28.2603  -38.0086   24.7509 H   0  0  0  0  0  0
  -28.1064  -36.2619   24.6315 H   0  0  0  0  0  0
  -27.2298  -37.1475   25.8874 H   0  0  0  0  0  0
  -20.9374  -29.8756   21.6872 H   0  0  0  0  0  0
  -26.0171  -38.2840   24.1407 H   0  0  0  0  0  0
  -30.7944  -25.7944   20.3373 H   0  0  0  0  0  0
  -32.6869  -24.1114   21.1314 H   0  0  0  0  0  0
  -26.9317  -23.3888   21.2989 H   0  0  0  0  0  0
  -26.1293  -24.9306   21.1883 H   0  0  0  0  0  0
  -27.4719  -24.7279   22.3018 H   0  0  0  0  0  0
  -33.0599  -21.2111   23.5585 H   0  0  0  0  0  0
  -31.8725  -22.4915   23.7456 H   0  0  0  0  0  0
  -33.3638  -22.7888   22.8557 H   0  0  0  0  0  0
  -33.4394  -20.1610   21.1863 H   0  0  0  0  0  0
  -33.6283  -21.7512   20.4622 H   0  0  0  0  0  0
  -32.4110  -20.6512   19.8435 H   0  0  0  0  0  0
  -28.1010  -21.3286   20.1022 H   0  0  0  0  0  0
  -28.6534  -21.0683   21.7217 H   0  0  0  0  0  0
  -31.2229  -17.4906   20.8672 H   0  0  0  0  0  0
  -30.5294  -17.3495   19.2858 H   0  0  0  0  0  0
  -29.0981  -18.5837   21.7375 H   0  0  0  0  0  0
  -28.3276  -18.3906   20.1889 H   0  0  0  0  0  0
  -27.7413  -24.5772   19.2454 H   0  0  0  0  0  0
  -31.2166  -20.7962   22.1012 H   0  0  0  0  0  0
  -28.9009  -15.7184   20.8943 H   0  0  0  0  0  0
  -30.6996  -20.0863   20.5927 H   0  0  0  0  0  0
  -29.8102  -20.0124   19.2482 H   0  0  0  0  0  0
  1 25  1  0  0  0
  1 30  2  0  0  0
  1 84  1  0  0  0
  2  3  1  0  0  0
  2 25  1  0  0  0
  2 86  1  0  0  0
  2 87  1  0  0  0
  3  4  1  0  0  0
  3 88  1  0  0  0
  3 89  1  0  0  0
  4  5  1  0  0  0
  4 90  1  0  0  0
  4 91  1  0  0  0
  5  6  1  0  0  0
  5 26  1  0  0  0
  5 92  1  0  0  0
  6 25  1  0  0  0
  6 93  1  0  0  0
  6 94  1  0  0  0
  7  8  2  0  0  0
  7 26  1  0  0  0
  7 29  1  0  0  0
  8  9  1  0  0  0
  8 22  1  0  0  0
  9 10  1  0  0  0
  9 27  2  0  0  0
 10 11  2  0  0  0
 10 15  1  0  0  0
 11 12  1  0  0  0
 11 95  1  0  0  0
 12 13  2  0  0  0
 12 96  1  0  0  0
 13 14  1  0  0  0
 13 31  1  0  0  0
 14 15  2  0  0  0
 14 97  1  0  0  0
 15 98  1  0  0  0
 16 17  2  0  0  0
 16 21  1  0  0  0
 16 31  1  0  0  0
 17 18  1  0  0  0
 17 99  1  0  0  0
 18 19  2  0  0  0
 18100  1  0  0  0
 19 20  1  0  0  0
 19 24  1  0  0  0
 20 21  2  0  0  0
 20101  1  0  0  0
 21 23  1  0  0  0
 22 28  1  0  0  0
 22 32  2  0  0  0
 26 27  1  0  0  0
 28102  1  0  0  0
 28103  1  0  0  0
 29104  1  0  0  0
 29105  1  0  0  0
 33 34  1  0  0  0
 33 66  1  0  0  0
 33 70  2  0  0  0
 34 36  1  0  0  0
 34 59  1  0  0  0
 34106  1  0  0  0
 35 44  2  0  0  0
 35 45  1  0  0  0
 35 68  1  0  0  0
 36 56  1  0  0  0
 36107  1  0  0  0
 37 39  1  0  0  0
 37 47  1  0  0  0
 37 66  1  0  0  0
 37108  1  0  0  0
 38 43  2  0  0  0
 38 46  1  0  0  0
 38 47  1  0  0  0
 39 64  1  0  0  0
 39 67  2  0  0  0
 40 52  1  0  0  0
 40 53  2  0  0  0
 40 58  1  0  0  0
 41109  1  0  0  0
 41110  1  0  0  0
 41111  1  0  0  0
 41 48  1  0  0  0
 42 43  1  0  0  0
 42 66  1  0  0  0
 42112  1  0  0  0
 42113  1  0  0  0
 43 44  1  0  0  0
 44114  1  0  0  0
 45 46  2  0  0  0
 45115  1  0  0  0
 46116  1  0  0  0
 47117  1  0  0  0
 47118  1  0  0  0
 48 56  1  0  0  0
 48 65  1  0  0  0
 48119  1  0  0  0
 49 50  1  0  0  0
 49 53  1  0  0  0
 49 64  1  0  0  0
 49120  1  0  0  0
 50 51  1  0  0  0
 50121  1  0  0  0
 50122  1  0  0  0
 51 52  1  0  0  0
 51123  1  0  0  0
 51124  1  0  0  0
 52125  1  0  0  0
 52126  1  0  0  0
 53 54  1  0  0  0
 54 55  2  0  0  0
 54127  1  0  0  0
 55 57  1  0  0  0
 55128  1  0  0  0
 56 69  2  0  0  0
 57 58  2  0  0  0
 57129  1  0  0  0
 58130  1  0  0  0
 59 60  1  0  0  0
 59 61  1  0  0  0
 59 62  1  0  0  0
 60131  1  0  0  0
 60132  1  0  0  0
 60133  1  0  0  0
 61134  1  0  0  0
 61135  1  0  0  0
 61136  1  0  0  0
 62137  1  0  0  0
 62138  1  0  0  0
 62139  1  0  0  0
 63 65  1  0  0  0
 63140  1  0  0  0
 63141  1  0  0  0
 63142  1  0  0  0
 64143  1  0  0  0
 65144  1  0  0  0
 68 81  1  0  0  0
 71 72  2  0  0  0
 71 73  1  0  0  0
 71145  1  0  0  0
 72 83  1  0  0  0
 72146  1  0  0  0
 73 74  2  0  0  0
 73 81  1  0  0  0
 74 78  1  0  0  0
 74 83  1  0  0  0
 75147  1  0  0  0
 75148  1  0  0  0
 75149  1  0  0  0
 75 81  1  0  0  0
 76150  1  0  0  0
 76151  1  0  0  0
 76152  1  0  0  0
 76 82  1  0  0  0
 77 82  1  0  0  0
 77153  1  0  0  0
 77154  1  0  0  0
 77155  1  0  0  0
 78 85  1  0  0  0
 78156  1  0  0  0
 78157  1  0  0  0
 79 80  1  0  0  0
 79 84  1  0  0  0
 79158  1  0  0  0
 79159  1  0  0  0
 80 85  1  0  0  0
 80160  1  0  0  0
 80161  1  0  0  0
 81162  1  0  0  0
 82 83  1  0  0  0
 82163  1  0  0  0
 84164  1  0  0  0
 85165  1  0  0  0
 85166  1  0  0  0
M  CHG  1  85   1
M  ISO  4   1 100  68 101  81 101  84 100
M  END
> <chiral flag>
0

> <version>
0

> <s_m_source_file>
/data/baiqing/PycharmProjects/Reinvent-master-3.2/result/LINK_invent/BTK/process_docking_weight1_custom_sum_contain_oxygen_bond_distance_aromatic_linkinvent_7_9_3/rearranged_h_0117.sdf

> <i_m_source_file_index>
10

> <r_mmod_Potential_Energy-OPLS-2005>
-82.3784484863281

> <r_mmod_Stretch_Energy-OPLS-2005>
130.283737182617

> <r_mmod_Bend_Energy-OPLS-2005>
168.442184448242

> <r_mmod_Torsional_Energy-OPLS-2005>
244.553756713867

> <r_mmod_Improper_Torsional_Energy-OPLS-2005>
6.0349645614624

> <r_mmod_Van_der_Waal_Energy-OPLS-2005>
121.495811462402

> <r_mmod_Electrostatic_Energy-OPLS-2005>
-345.834625244141

> <r_mmod_Solvation_Energy-OPLS-2005>
-489.385833740234

> <b_mmod_Minimization_Converged-OPLS-2005>
0

> <r_mmod_RMS_Derivative-OPLS-2005>
1.17731642723083

$$$$
10
                    3D
 Structure written by MMmdl.
188197  0  0  1  0            999 V2000
  -30.4317  -15.2542   20.3540 C   0  0  0  0  0  0
  -30.4438  -12.7988   19.5544 C   0  0  0  0  0  0
  -29.5576  -12.5964   18.3002 C   0  0  0  0  0  0
  -28.0966  -12.3234   18.7082 C   0  0  0  0  0  0
  -27.6113  -13.2890   19.8181 C   0  0  2  0  0  0
  -28.6345  -13.4637   20.9541 C   0  0  0  0  0  0
  -25.2386  -13.8266   20.5798 C   0  0  0  0  0  0
  -24.1754  -13.0465   20.9271 C   0  0  0  0  0  0
  -24.6434  -11.6950   20.8754 C   0  0  0  0  0  0
  -23.9115  -10.4296   21.0360 C   0  0  0  0  0  0
  -24.3646   -9.4218   21.9153 C   0  0  0  0  0  0
  -23.6318   -8.2251   22.0745 C   0  0  0  0  0  0
  -22.4309   -8.0268   21.3520 C   0  0  0  0  0  0
  -21.9943   -9.0238   20.4643 C   0  0  0  0  0  0
  -22.7259  -10.2124   20.3030 C   0  0  0  0  0  0
  -21.6867   -6.0739   22.5272 C   0  0  0  0  0  0
  -21.4025   -6.5631   23.8205 C   0  0  0  0  0  0
  -21.3675   -5.6767   24.9152 C   0  0  0  0  0  0
  -21.6042   -4.3027   24.7182 C   0  0  0  0  0  0
  -21.8826   -3.8144   23.4299 C   0  0  0  0  0  0
  -21.9208   -4.6976   22.3377 C   0  0  0  0  0  0
  -22.7767  -13.5218   21.1881 C   0  0  0  0  0  0
  -22.1664   -4.2188   21.0955 F   0  0  0  0  0  0
  -21.5643   -3.4491   25.7694 F   0  0  0  0  0  0
  -29.8800  -13.9451   20.3497 N   0  0  0  0  0  0
  -26.2819  -12.9567   20.3186 N   0  0  0  0  0  0
  -25.9356  -11.6648   20.5658 N   0  0  0  0  0  0
  -22.0389  -12.8222   22.0440 N   0  0  0  0  0  0
  -25.4043  -15.2011   20.4342 N   0  0  0  0  0  0
  -31.6642  -15.2196   20.2678 O   0  0  0  0  0  0
  -21.6649   -6.8884   21.4252 O   0  0  0  0  0  0
  -22.3467  -14.5488   20.6691 O   0  0  0  0  0  0
  -24.6597  -31.8274   23.1712 C   0  0  0  0  0  0
  -25.9285  -32.4627   23.8145 C   0  0  1  0  0  0
  -27.1964  -26.8995   20.2085 C   0  0  0  0  0  0
  -25.5967  -33.8418   24.2064 N   0  0  0  0  0  0
  -23.4758  -30.4363   21.5262 C   0  0  2  0  0  0
  -24.9239  -28.8150   20.1207 C   0  0  0  0  0  0
  -22.7691  -29.4435   22.4876 C   0  0  0  0  0  0
  -18.0385  -28.1385   22.8478 C   0  0  0  0  0  0
  -24.1487  -36.7196   23.2645 C   0  0  0  0  0  0
  -26.0438  -30.6230   21.4076 C   0  0  0  0  0  0
  -26.1092  -29.2066   20.7601 C   0  0  0  0  0  0
  -27.2390  -28.2703   20.7801 C   0  0  0  0  0  0
  -25.9846  -26.6675   19.5220 C   0  0  0  0  0  0
  -24.8874  -27.5673   19.4845 C   0  0  0  0  0  0
  -23.7149  -29.7514   20.1537 C   0  0  0  0  0  0
  -25.4146  -36.2992   24.0288 C   0  0  1  0  0  0
  -20.6013  -28.3704   23.1288 C   0  0  2  0  0  0
  -20.6921  -26.9413   22.5431 C   0  0  0  0  0  0
  -19.5911  -26.6371   21.5248 C   0  0  0  0  0  0
  -18.2057  -26.7941   22.1600 C   0  0  0  0  0  0
  -19.1649  -28.8847   23.2893 C   0  0  0  0  0  0
  -18.9586  -30.1427   23.8961 C   0  0  0  0  0  0
  -17.6601  -30.6590   24.0612 C   0  0  0  0  0  0
  -25.9118  -34.9378   23.5012 C   0  0  0  0  0  0
  -16.5473  -29.9113   23.6361 C   0  0  0  0  0  0
  -16.7381  -28.6524   23.0366 C   0  0  0  0  0  0
  -26.4542  -31.6549   25.0645 C   0  0  0  0  0  0
  -25.3635  -31.3801   26.1270 C   0  0  0  0  0  0
  -27.0423  -30.2916   24.6352 C   0  0  0  0  0  0
  -27.6053  -32.4336   25.7455 C   0  0  0  0  0  0
  -27.5594  -37.1754   24.8462 C   0  0  0  0  0  0
  -21.4355  -29.3054   22.3669 N   0  0  0  0  0  0
  -26.4307  -37.3720   23.9411 N   0  0  0  0  0  0
  -24.7487  -30.9893   22.0897 N   0  0  0  0  0  0
  -23.4266  -28.8016   23.3094 O   0  0  0  0  0  0
  -28.1970  -25.7854   20.2445 O   0  0  0  0  0  0
  -26.5746  -34.8912   22.4625 O   0  0  0  0  0  0
  -23.5663  -32.1273   23.6794 O   0  0  0  0  0  0
  -29.6628  -17.7424   20.9399 C   0  0  0  0  0  0
  -29.1945  -19.4621   21.0735 C   0  0  0  0  0  0
  -26.8051  -22.3955   25.3205 C   0  0  0  0  0  0
  -29.4600  -20.2022   18.7484 C   0  0  0  0  0  0
  -27.8772  -21.3167   25.4034 C   0  0  0  0  0  0
  -29.3388  -20.9077   17.4143 C   0  0  0  0  0  0
  -28.9758  -23.1121   18.5010 C   0  0  0  0  0  0
  -25.6507  -21.6320   24.6862 C   0  0  0  0  0  0
  -28.7310  -20.7971   19.9841 C   0  0  2  0  0  0
  -28.8964  -22.6615   19.9989 C   0  0  2  0  0  0
  -27.6804  -20.4737   24.1302 C   0  0  2  0  0  0
  -29.8385  -22.3473   17.4818 C   0  0  0  0  0  0
  -29.6274  -22.9531   16.0786 C   0  0  0  0  0  0
  -31.3400  -22.4384   17.8313 C   0  0  0  0  0  0
  -27.6357  -24.1192   21.9806 C   0  0  0  0  0  0
  -26.0910  -18.4743   22.4978 C   0  0  0  0  0  0
  -24.0467  -19.8880   22.8331 C   0  0  0  0  0  0
  -28.6824  -20.8615   22.9968 C   0  0  0  0  0  0
  -27.9418  -24.1532   20.4716 C   0  0  2  0  0  0
  -25.4131  -19.4891   23.4396 C   0  0  0  0  0  0
  -29.6359  -16.5693   20.1873 N   0  0  0  0  0  0
  -29.1994  -19.6816   22.3357 N   0  0  0  0  0  0
  -26.2597  -20.6961   23.7058 N   0  3  1  0  0  0
  -31.4719  -12.9936   19.2496 H   0  0  0  0  0  0
  -30.4854  -11.8855   20.1500 H   0  0  0  0  0  0
  -29.9394  -11.7764   17.6927 H   0  0  0  0  0  0
  -29.6066  -13.4936   17.6790 H   0  0  0  0  0  0
  -28.0466  -11.2979   19.0687 H   0  0  0  0  0  0
  -27.4401  -12.3689   17.8414 H   0  0  0  0  0  0
  -27.5230  -14.2606   19.3288 H   0  0  0  0  0  0
  -28.7892  -12.5340   21.5008 H   0  0  0  0  0  0
  -28.2839  -14.2029   21.6760 H   0  0  0  0  0  0
  -25.2773   -9.5704   22.4755 H   0  0  0  0  0  0
  -24.0013   -7.4654   22.7489 H   0  0  0  0  0  0
  -21.0873   -8.8741   19.8971 H   0  0  0  0  0  0
  -22.3676  -10.9648   19.6156 H   0  0  0  0  0  0
  -21.1998   -7.6127   23.9740 H   0  0  0  0  0  0
  -21.1511   -6.0464   25.9068 H   0  0  0  0  0  0
  -22.0611   -2.7619   23.2768 H   0  0  0  0  0  0
  -22.3950  -11.9860   22.4809 H   0  0  0  0  0  0
  -21.1016  -13.1287   22.2641 H   0  0  0  0  0  0
  -24.6371  -15.8493   20.5572 H   0  0  0  0  0  0
  -26.2605  -15.6443   20.1282 H   0  0  0  0  0  0
  -26.7351  -32.5160   23.0858 H   0  0  0  0  0  0
  -25.0011  -33.9501   25.0148 H   0  0  0  0  0  0
  -22.7843  -31.2655   21.3598 H   0  0  0  0  0  0
  -23.3811  -35.9462   23.3250 H   0  0  0  0  0  0
  -24.3564  -36.8915   22.2077 H   0  0  0  0  0  0
  -23.7177  -37.6331   23.6738 H   0  0  0  0  0  0
  -26.2189  -31.3549   20.6193 H   0  0  0  0  0  0
  -26.9086  -30.6885   22.0543 H   0  0  0  0  0  0
  -28.1287  -28.5608   21.3187 H   0  0  0  0  0  0
  -25.8566  -25.7170   19.0237 H   0  0  0  0  0  0
  -23.9848  -27.2633   18.9689 H   0  0  0  0  0  0
  -23.8656  -30.5205   19.3950 H   0  0  0  0  0  0
  -22.8219  -29.2048   19.8466 H   0  0  0  0  0  0
  -25.1348  -36.1809   25.0776 H   0  0  0  0  0  0
  -21.0069  -28.3264   24.1417 H   0  0  0  0  0  0
  -20.5877  -26.2300   23.3634 H   0  0  0  0  0  0
  -21.6794  -26.7507   22.1217 H   0  0  0  0  0  0
  -19.7112  -25.6279   21.1302 H   0  0  0  0  0  0
  -19.6899  -27.3162   20.6760 H   0  0  0  0  0  0
  -17.4380  -26.6703   21.3975 H   0  0  0  0  0  0
  -18.0437  -26.0050   22.8964 H   0  0  0  0  0  0
  -19.8073  -30.7169   24.2392 H   0  0  0  0  0  0
  -17.5215  -31.6282   24.5201 H   0  0  0  0  0  0
  -15.5497  -30.3066   23.7708 H   0  0  0  0  0  0
  -15.8775  -28.0885   22.7067 H   0  0  0  0  0  0
  -24.5835  -30.7167   25.7527 H   0  0  0  0  0  0
  -24.8789  -32.2990   26.4546 H   0  0  0  0  0  0
  -25.7791  -30.9025   27.0141 H   0  0  0  0  0  0
  -26.3061  -29.6630   24.1324 H   0  0  0  0  0  0
  -27.3952  -29.7252   25.4984 H   0  0  0  0  0  0
  -27.9010  -30.4142   23.9752 H   0  0  0  0  0  0
  -27.2662  -33.3709   26.1872 H   0  0  0  0  0  0
  -28.3927  -32.6780   25.0313 H   0  0  0  0  0  0
  -28.0618  -31.8539   26.5492 H   0  0  0  0  0  0
  -28.2560  -38.0103   24.7566 H   0  0  0  0  0  0
  -28.1138  -36.2624   24.6229 H   0  0  0  0  0  0
  -27.2277  -37.1304   25.8852 H   0  0  0  0  0  0
  -20.9532  -29.8767   21.6873 H   0  0  0  0  0  0
  -26.0159  -38.2768   24.1472 H   0  0  0  0  0  0
  -30.2807  -17.5894   21.8308 H   0  0  0  0  0  0
  -27.1304  -23.2206   24.6866 H   0  0  0  0  0  0
  -26.5451  -22.8148   26.2921 H   0  0  0  0  0  0
  -30.5203  -20.0823   18.9729 H   0  0  0  0  0  0
  -29.0913  -19.1913   18.5640 H   0  0  0  0  0  0
  -27.6792  -20.6893   26.2731 H   0  0  0  0  0  0
  -28.8838  -21.7143   25.5341 H   0  0  0  0  0  0
  -28.2999  -20.8585   17.0854 H   0  0  0  0  0  0
  -29.9163  -20.3529   16.6688 H   0  0  0  0  0  0
  -29.2976  -24.1573   18.4658 H   0  0  0  0  0  0
  -27.9571  -23.1172   18.1097 H   0  0  0  0  0  0
  -24.9096  -22.2956   24.2382 H   0  0  0  0  0  0
  -25.1405  -21.0631   25.4659 H   0  0  0  0  0  0
  -27.6681  -20.6393   19.7967 H   0  0  0  0  0  0
  -29.8810  -22.8191   20.4419 H   0  0  0  0  0  0
  -27.8382  -19.4408   24.4424 H   0  0  0  0  0  0
  -28.5861  -22.8702   15.7620 H   0  0  0  0  0  0
  -30.2274  -22.4321   15.3307 H   0  0  0  0  0  0
  -29.8940  -24.0109   16.0352 H   0  0  0  0  0  0
  -31.5584  -22.0907   18.8399 H   0  0  0  0  0  0
  -31.7032  -23.4650   17.7662 H   0  0  0  0  0  0
  -31.9472  -21.8441   17.1451 H   0  0  0  0  0  0
  -26.7152  -23.5709   22.1868 H   0  0  0  0  0  0
  -27.5030  -25.1174   22.3968 H   0  0  0  0  0  0
  -28.4517  -23.6848   22.5575 H   0  0  0  0  0  0
  -25.4349  -17.6292   22.2915 H   0  0  0  0  0  0
  -27.0003  -18.0556   22.9261 H   0  0  0  0  0  0
  -26.3413  -18.9261   21.5394 H   0  0  0  0  0  0
  -23.3898  -19.0224   22.7426 H   0  0  0  0  0  0
  -24.1605  -20.3059   21.8317 H   0  0  0  0  0  0
  -23.5070  -20.6177   23.4370 H   0  0  0  0  0  0
  -29.5329  -21.4017   23.4184 H   0  0  0  0  0  0
  -28.2023  -21.5443   22.3101 H   0  0  0  0  0  0
  -26.9755  -24.0001   19.9896 H   0  0  0  0  0  0
  -25.2262  -18.9875   24.3923 H   0  0  0  0  0  0
  -26.3306  -21.1960   22.8342 H   0  0  0  0  0  0
  1 25  1  0  0  0
  1 30  2  0  0  0
  1 91  1  0  0  0
  2  3  1  0  0  0
  2 25  1  0  0  0
  2 94  1  0  0  0
  2 95  1  0  0  0
  3  4  1  0  0  0
  3 96  1  0  0  0
  3 97  1  0  0  0
  4  5  1  0  0  0
  4 98  1  0  0  0
  4 99  1  0  0  0
  5  6  1  0  0  0
  5 26  1  0  0  0
  5100  1  0  0  0
  6 25  1  0  0  0
  6101  1  0  0  0
  6102  1  0  0  0
  7  8  2  0  0  0
  7 26  1  0  0  0
  7 29  1  0  0  0
  8  9  1  0  0  0
  8 22  1  0  0  0
  9 10  1  0  0  0
  9 27  2  0  0  0
 10 11  2  0  0  0
 10 15  1  0  0  0
 11 12  1  0  0  0
 11103  1  0  0  0
 12 13  2  0  0  0
 12104  1  0  0  0
 13 14  1  0  0  0
 13 31  1  0  0  0
 14 15  2  0  0  0
 14105  1  0  0  0
 15106  1  0  0  0
 16 17  2  0  0  0
 16 21  1  0  0  0
 16 31  1  0  0  0
 17 18  1  0  0  0
 17107  1  0  0  0
 18 19  2  0  0  0
 18108  1  0  0  0
 19 20  1  0  0  0
 19 24  1  0  0  0
 20 21  2  0  0  0
 20109  1  0  0  0
 21 23  1  0  0  0
 22 28  1  0  0  0
 22 32  2  0  0  0
 26 27  1  0  0  0
 28110  1  0  0  0
 28111  1  0  0  0
 29112  1  0  0  0
 29113  1  0  0  0
 33 34  1  0  0  0
 33 66  1  0  0  0
 33 70  2  0  0  0
 34 36  1  0  0  0
 34 59  1  0  0  0
 34114  1  0  0  0
 35 44  2  0  0  0
 35 45  1  0  0  0
 35 68  1  0  0  0
 36 56  1  0  0  0
 36115  1  0  0  0
 37 39  1  0  0  0
 37 47  1  0  0  0
 37 66  1  0  0  0
 37116  1  0  0  0
 38 43  2  0  0  0
 38 46  1  0  0  0
 38 47  1  0  0  0
 39 64  1  0  0  0
 39 67  2  0  0  0
 40 52  1  0  0  0
 40 53  2  0  0  0
 40 58  1  0  0  0
 41117  1  0  0  0
 41118  1  0  0  0
 41119  1  0  0  0
 41 48  1  0  0  0
 42 43  1  0  0  0
 42 66  1  0  0  0
 42120  1  0  0  0
 42121  1  0  0  0
 43 44  1  0  0  0
 44122  1  0  0  0
 45 46  2  0  0  0
 45123  1  0  0  0
 46124  1  0  0  0
 47125  1  0  0  0
 47126  1  0  0  0
 48 56  1  0  0  0
 48 65  1  0  0  0
 48127  1  0  0  0
 49 50  1  0  0  0
 49 53  1  0  0  0
 49 64  1  0  0  0
 49128  1  0  0  0
 50 51  1  0  0  0
 50129  1  0  0  0
 50130  1  0  0  0
 51 52  1  0  0  0
 51131  1  0  0  0
 51132  1  0  0  0
 52133  1  0  0  0
 52134  1  0  0  0
 53 54  1  0  0  0
 54 55  2  0  0  0
 54135  1  0  0  0
 55 57  1  0  0  0
 55136  1  0  0  0
 56 69  2  0  0  0
 57 58  2  0  0  0
 57137  1  0  0  0
 58138  1  0  0  0
 59 60  1  0  0  0
 59 61  1  0  0  0
 59 62  1  0  0  0
 60139  1  0  0  0
 60140  1  0  0  0
 60141  1  0  0  0
 61142  1  0  0  0
 61143  1  0  0  0
 61144  1  0  0  0
 62145  1  0  0  0
 62146  1  0  0  0
 62147  1  0  0  0
 63 65  1  0  0  0
 63148  1  0  0  0
 63149  1  0  0  0
 63150  1  0  0  0
 64151  1  0  0  0
 65152  1  0  0  0
 68 89  1  0  0  0
 71 72  1  0  0  0
 71 91  2  0  0  0
 71153  1  0  0  0
 72 92  2  0  0  0
 72 79  1  0  0  0
 73 75  1  0  0  0
 73 78  1  0  0  0
 73154  1  0  0  0
 73155  1  0  0  0
 74 76  1  0  0  0
 74 79  1  0  0  0
 74156  1  0  0  0
 74157  1  0  0  0
 75 81  1  0  0  0
 75158  1  0  0  0
 75159  1  0  0  0
 76 82  1  0  0  0
 76160  1  0  0  0
 76161  1  0  0  0
 77 82  1  0  0  0
 77162  1  0  0  0
 77163  1  0  0  0
 77 80  1  0  0  0
 78164  1  0  0  0
 78165  1  0  0  0
 78 93  1  0  0  0
 79 80  1  0  0  0
 79166  1  0  0  0
 80 89  1  0  0  0
 80167  1  0  0  0
 81 88  1  0  0  0
 81 93  1  0  0  0
 81168  1  0  0  0
 82 83  1  0  0  0
 82 84  1  0  0  0
 83169  1  0  0  0
 83170  1  0  0  0
 83171  1  0  0  0
 84172  1  0  0  0
 84173  1  0  0  0
 84174  1  0  0  0
 85175  1  0  0  0
 85176  1  0  0  0
 85177  1  0  0  0
 85 89  1  0  0  0
 86178  1  0  0  0
 86179  1  0  0  0
 86180  1  0  0  0
 86 90  1  0  0  0
 87 90  1  0  0  0
 87181  1  0  0  0
 87182  1  0  0  0
 87183  1  0  0  0
 88 92  1  0  0  0
 88184  1  0  0  0
 88185  1  0  0  0
 89186  1  0  0  0
 90 93  1  0  0  0
 90187  1  0  0  0
 93188  1  0  0  0
M  CHG  1  93   1
M  ISO  4   1 100  68 101  89 101  91 100
M  END
> <chiral flag>
0

> <version>
0

> <s_m_source_file>
/data/baiqing/PycharmProjects/Reinvent-master-3.2/result/LINK_invent/BTK/process_docking_weight1_custom_sum_contain_oxygen_bond_distance_aromatic_linkinvent_7_9_3/rearranged_h_0117.sdf

> <i_m_source_file_index>
11

> <r_mmod_Potential_Energy-OPLS-2005>
1748.51330566406

> <r_mmod_Stretch_Energy-OPLS-2005>
731.45751953125

> <r_mmod_Bend_Energy-OPLS-2005>
661.193725585938

> <r_mmod_Torsional_Energy-OPLS-2005>
353.699188232422

> <r_mmod_Improper_Torsional_Energy-OPLS-2005>
6.39125061035156

> <r_mmod_Van_der_Waal_Energy-OPLS-2005>
114.459991455078

> <r_mmod_Electrostatic_Energy-OPLS-2005>
-195.854843139648

> <r_mmod_Solvation_Energy-OPLS-2005>
-393.886535644531

> <b_mmod_Minimization_Converged-OPLS-2005>
0

> <r_mmod_RMS_Derivative-OPLS-2005>
5.80939340591431

$$$$
11
                    3D
 Structure written by MMmdl.
168176  0  0  1  0            999 V2000
  -30.6079  -14.7818   20.4820 C   0  0  0  0  0  0
  -30.4402  -12.4847   19.4875 C   0  0  0  0  0  0
  -29.5158  -12.5209   18.2491 C   0  0  0  0  0  0
  -28.0429  -12.3343   18.6611 C   0  0  0  0  0  0
  -27.6449  -13.2359   19.8583 C   0  0  2  0  0  0
  -28.6875  -13.1790   20.9976 C   0  0  0  0  0  0
  -25.2520  -13.8210   20.5700 C   0  0  0  0  0  0
  -24.1815  -13.0448   20.9205 C   0  0  0  0  0  0
  -24.6424  -11.6930   20.8761 C   0  0  0  0  0  0
  -23.9118  -10.4295   21.0425 C   0  0  0  0  0  0
  -24.3659   -9.4201   21.9194 C   0  0  0  0  0  0
  -23.6320   -8.2246   22.0759 C   0  0  0  0  0  0
  -22.4293   -8.0301   21.3553 C   0  0  0  0  0  0
  -21.9954   -9.0281   20.4647 C   0  0  0  0  0  0
  -22.7304  -10.2146   20.3062 C   0  0  0  0  0  0
  -21.6855   -6.0760   22.5286 C   0  0  0  0  0  0
  -21.4019   -6.5660   23.8221 C   0  0  0  0  0  0
  -21.3650   -5.6807   24.9177 C   0  0  0  0  0  0
  -21.6044   -4.3071   24.7217 C   0  0  0  0  0  0
  -21.8815   -3.8167   23.4336 C   0  0  0  0  0  0
  -21.9192   -4.6991   22.3404 C   0  0  0  0  0  0
  -22.7832  -13.5215   21.1866 C   0  0  0  0  0  0
  -22.1657   -4.2190   21.0976 F   0  0  0  0  0  0
  -21.5623   -3.4546   25.7723 F   0  0  0  0  0  0
  -29.9895  -13.5478   20.4210 N   0  0  0  0  0  0
  -26.2961  -12.9429   20.3322 N   0  0  0  0  0  0
  -25.9357  -11.6566   20.5796 N   0  0  0  0  0  0
  -22.0494  -12.8185   22.0417 N   0  0  0  0  0  0
  -25.4211  -15.1931   20.4082 N   0  0  0  0  0  0
  -31.7844  -14.8872   20.1256 O   0  0  0  0  0  0
  -21.6640   -6.8908   21.4253 O   0  0  0  0  0  0
  -22.3511  -14.5526   20.6728 O   0  0  0  0  0  0
  -24.6328  -31.8504   23.1967 C   0  0  0  0  0  0
  -25.9142  -32.4719   23.8292 C   0  0  1  0  0  0
  -27.2161  -27.2100   20.1434 C   0  0  0  0  0  0
  -25.5910  -33.8528   24.2201 N   0  0  0  0  0  0
  -23.4320  -30.4729   21.5431 C   0  0  2  0  0  0
  -24.8840  -28.9243   20.1108 C   0  0  0  0  0  0
  -22.7522  -29.4550   22.4916 C   0  0  0  0  0  0
  -18.0292  -28.1352   22.8479 C   0  0  0  0  0  0
  -24.1528  -36.7307   23.2650 C   0  0  0  0  0  0
  -25.9876  -30.7434   21.3968 C   0  0  0  0  0  0
  -26.0591  -29.3664   20.7341 C   0  0  0  0  0  0
  -27.2253  -28.5222   20.7435 C   0  0  0  0  0  0
  -26.0418  -26.8973   19.4252 C   0  0  0  0  0  0
  -24.8865  -27.6954   19.4418 C   0  0  0  0  0  0
  -23.6529  -29.8093   20.1615 C   0  0  0  0  0  0
  -25.4149  -36.3053   24.0317 C   0  0  1  0  0  0
  -20.5898  -28.3651   23.1282 C   0  0  2  0  0  0
  -20.6777  -26.9371   22.5423 C   0  0  0  0  0  0
  -19.5756  -26.6353   21.5210 C   0  0  0  0  0  0
  -18.1926  -26.7898   22.1618 C   0  0  0  0  0  0
  -19.1547  -28.8821   23.2863 C   0  0  0  0  0  0
  -18.9486  -30.1424   23.8882 C   0  0  0  0  0  0
  -17.6488  -30.6570   24.0532 C   0  0  0  0  0  0
  -25.9083  -34.9413   23.5075 C   0  0  0  0  0  0
  -16.5364  -29.9054   23.6346 C   0  0  0  0  0  0
  -16.7280  -28.6464   23.0375 C   0  0  0  0  0  0
  -26.4506  -31.6549   25.0701 C   0  0  0  0  0  0
  -25.3716  -31.3690   26.1409 C   0  0  0  0  0  0
  -27.0387  -30.2958   24.6251 C   0  0  0  0  0  0
  -27.6020  -32.4335   25.7475 C   0  0  0  0  0  0
  -27.5599  -37.1791   24.8460 C   0  0  0  0  0  0
  -21.4223  -29.3005   22.3678 N   0  0  0  0  0  0
  -26.4329  -37.3734   23.9394 N   0  0  0  0  0  0
  -24.7023  -31.0435   22.0990 N   0  0  0  0  0  0
  -23.4208  -28.8108   23.3030 O   0  0  0  0  0  0
  -28.2823  -26.2543   20.1604 O   0  0  0  0  0  0
  -26.5677  -34.8878   22.4668 O   0  0  0  0  0  0
  -23.5473  -32.1347   23.7254 O   0  0  0  0  0  0
  -29.1148  -19.7683   19.5629 C   0  0  0  0  0  0
  -30.7279  -19.8149   21.5471 C   0  0  0  0  0  0
  -28.8960  -18.2219   19.8908 C   0  0  0  0  0  0
  -30.3664  -18.2859   21.7972 C   0  0  0  0  0  0
  -29.8406  -20.7354   20.5852 C   0  0  2  0  0  0
  -30.0948  -17.4226   20.5226 C   0  0  1  0  0  0
  -26.3143  -23.5440   19.3819 C   0  0  0  0  0  0
  -30.6364  -24.1175   20.4672 C   0  0  0  0  0  0
  -26.7056  -24.2339   20.7076 C   0  0  0  0  0  0
  -29.0691  -22.1035   21.1253 C   0  0  2  0  0  0
  -29.1901  -23.5896   20.3789 C   0  0  1  0  0  0
  -28.1419  -24.8291   20.7393 C   0  0  1  0  0  0
  -29.8377  -15.9136   20.7460 N   0  0  0  0  0  0
  -29.3356  -22.2779   22.5694 N   0  3  0  0  0  0
  -31.4788  -12.6189   19.1818 H   0  0  0  0  0  0
  -30.4002  -11.5098   19.9739 H   0  0  0  0  0  0
  -29.8051  -11.7454   17.5386 H   0  0  0  0  0  0
  -29.6316  -13.4735   17.7302 H   0  0  0  0  0  0
  -27.9058  -11.2851   18.9245 H   0  0  0  0  0  0
  -27.3854  -12.5211   17.8114 H   0  0  0  0  0  0
  -27.6370  -14.2569   19.4766 H   0  0  0  0  0  0
  -28.7292  -12.1805   21.4340 H   0  0  0  0  0  0
  -28.4118  -13.8545   21.8096 H   0  0  0  0  0  0
  -25.2807   -9.5664   22.4774 H   0  0  0  0  0  0
  -24.0031   -7.4625   22.7460 H   0  0  0  0  0  0
  -21.0896   -8.8813   19.8930 H   0  0  0  0  0  0
  -22.3790  -10.9699   19.6165 H   0  0  0  0  0  0
  -21.2018   -7.6164   23.9746 H   0  0  0  0  0  0
  -21.1474   -6.0522   25.9080 H   0  0  0  0  0  0
  -22.0603   -2.7636   23.2817 H   0  0  0  0  0  0
  -22.4144  -11.9843   22.4773 H   0  0  0  0  0  0
  -21.1103  -13.1173   22.2631 H   0  0  0  0  0  0
  -24.6514  -15.8461   20.5031 H   0  0  0  0  0  0
  -26.2645  -15.6283   20.0573 H   0  0  0  0  0  0
  -26.7174  -32.5360   23.0986 H   0  0  0  0  0  0
  -24.9949  -33.9666   25.0271 H   0  0  0  0  0  0
  -22.7301  -31.2960   21.3938 H   0  0  0  0  0  0
  -23.3774  -35.9652   23.3300 H   0  0  0  0  0  0
  -24.3617  -36.8978   22.2074 H   0  0  0  0  0  0
  -23.7333  -37.6515   23.6714 H   0  0  0  0  0  0
  -26.1565  -31.5083   20.6364 H   0  0  0  0  0  0
  -26.8516  -30.7717   22.0477 H   0  0  0  0  0  0
  -28.1211  -28.8564   21.2487 H   0  0  0  0  0  0
  -25.9832  -25.9930   18.8498 H   0  0  0  0  0  0
  -24.0034  -27.3604   18.9151 H   0  0  0  0  0  0
  -23.7661  -30.5870   19.4051 H   0  0  0  0  0  0
  -22.7708  -29.2398   19.8603 H   0  0  0  0  0  0
  -25.1344  -36.1865   25.0810 H   0  0  0  0  0  0
  -20.9959  -28.3213   24.1408 H   0  0  0  0  0  0
  -20.5717  -26.2229   23.3616 H   0  0  0  0  0  0
  -21.6633  -26.7409   22.1182 H   0  0  0  0  0  0
  -19.6947  -25.6270   21.1235 H   0  0  0  0  0  0
  -19.6713  -27.3155   20.6743 H   0  0  0  0  0  0
  -17.4205  -26.6653   21.4007 H   0  0  0  0  0  0
  -18.0294  -26.0013   22.8997 H   0  0  0  0  0  0
  -19.7968  -30.7214   24.2239 H   0  0  0  0  0  0
  -17.5054  -31.6266   24.5092 H   0  0  0  0  0  0
  -15.5364  -30.2954   23.7691 H   0  0  0  0  0  0
  -15.8673  -28.0774   22.7134 H   0  0  0  0  0  0
  -24.5919  -30.7015   25.7737 H   0  0  0  0  0  0
  -24.8873  -32.2840   26.4835 H   0  0  0  0  0  0
  -25.8018  -30.8875   27.0198 H   0  0  0  0  0  0
  -26.2980  -29.6679   24.1290 H   0  0  0  0  0  0
  -27.4068  -29.7259   25.4796 H   0  0  0  0  0  0
  -27.8858  -30.4247   23.9511 H   0  0  0  0  0  0
  -27.2608  -33.3677   26.1944 H   0  0  0  0  0  0
  -28.3854  -32.6848   25.0318 H   0  0  0  0  0  0
  -28.0628  -31.8535   26.5473 H   0  0  0  0  0  0
  -28.2560  -38.0135   24.7503 H   0  0  0  0  0  0
  -28.1140  -36.2650   24.6273 H   0  0  0  0  0  0
  -27.2284  -37.1412   25.8849 H   0  0  0  0  0  0
  -20.9396  -29.8746   21.6913 H   0  0  0  0  0  0
  -26.0211  -38.2822   24.1326 H   0  0  0  0  0  0
  -28.1577  -20.2064   19.2773 H   0  0  0  0  0  0
  -29.7011  -19.7926   18.6422 H   0  0  0  0  0  0
  -31.7291  -19.8014   21.1120 H   0  0  0  0  0  0
  -30.8969  -20.2813   22.5161 H   0  0  0  0  0  0
  -28.5890  -17.7228   18.9707 H   0  0  0  0  0  0
  -28.0317  -18.1347   20.5527 H   0  0  0  0  0  0
  -29.4996  -18.2314   22.4596 H   0  0  0  0  0  0
  -31.1810  -17.8300   22.3633 H   0  0  0  0  0  0
  -30.6046  -21.2049   19.9639 H   0  0  0  0  0  0
  -30.9567  -17.5077   19.8581 H   0  0  0  0  0  0
  -26.7204  -22.5355   19.3239 H   0  0  0  0  0  0
  -26.6897  -24.0713   18.5047 H   0  0  0  0  0  0
  -25.2305  -23.4643   19.2911 H   0  0  0  0  0  0
  -31.3644  -23.3697   20.1505 H   0  0  0  0  0  0
  -30.9011  -24.4308   21.4771 H   0  0  0  0  0  0
  -30.7750  -24.9833   19.8181 H   0  0  0  0  0  0
  -26.6117  -23.4934   21.5017 H   0  0  0  0  0  0
  -25.9597  -24.9692   21.0025 H   0  0  0  0  0  0
  -28.0173  -21.8246   21.0850 H   0  0  0  0  0  0
  -29.0373  -23.3743   19.3209 H   0  0  0  0  0  0
  -28.3283  -25.0360   21.7939 H   0  0  0  0  0  0
  -28.8946  -15.6913   21.0281 H   0  0  0  0  0  0
  -30.3052  -22.4854   22.7317 H   0  0  0  0  0  0
  -29.1066  -21.4376   23.0722 H   0  0  0  0  0  0
  -28.7870  -23.0180   22.9665 H   0  0  0  0  0  0
  1 25  1  0  0  0
  1 30  2  0  0  0
  1 83  1  0  0  0
  2  3  1  0  0  0
  2 25  1  0  0  0
  2 85  1  0  0  0
  2 86  1  0  0  0
  3  4  1  0  0  0
  3 87  1  0  0  0
  3 88  1  0  0  0
  4  5  1  0  0  0
  4 89  1  0  0  0
  4 90  1  0  0  0
  5  6  1  0  0  0
  5 26  1  0  0  0
  5 91  1  0  0  0
  6 25  1  0  0  0
  6 92  1  0  0  0
  6 93  1  0  0  0
  7  8  2  0  0  0
  7 26  1  0  0  0
  7 29  1  0  0  0
  8  9  1  0  0  0
  8 22  1  0  0  0
  9 10  1  0  0  0
  9 27  2  0  0  0
 10 11  2  0  0  0
 10 15  1  0  0  0
 11 12  1  0  0  0
 11 94  1  0  0  0
 12 13  2  0  0  0
 12 95  1  0  0  0
 13 14  1  0  0  0
 13 31  1  0  0  0
 14 15  2  0  0  0
 14 96  1  0  0  0
 15 97  1  0  0  0
 16 17  2  0  0  0
 16 21  1  0  0  0
 16 31  1  0  0  0
 17 18  1  0  0  0
 17 98  1  0  0  0
 18 19  2  0  0  0
 18 99  1  0  0  0
 19 20  1  0  0  0
 19 24  1  0  0  0
 20 21  2  0  0  0
 20100  1  0  0  0
 21 23  1  0  0  0
 22 28  1  0  0  0
 22 32  2  0  0  0
 26 27  1  0  0  0
 28101  1  0  0  0
 28102  1  0  0  0
 29103  1  0  0  0
 29104  1  0  0  0
 33 34  1  0  0  0
 33 66  1  0  0  0
 33 70  2  0  0  0
 34 36  1  0  0  0
 34 59  1  0  0  0
 34105  1  0  0  0
 35 44  2  0  0  0
 35 45  1  0  0  0
 35 68  1  0  0  0
 36 56  1  0  0  0
 36106  1  0  0  0
 37 39  1  0  0  0
 37 47  1  0  0  0
 37 66  1  0  0  0
 37107  1  0  0  0
 38 43  2  0  0  0
 38 46  1  0  0  0
 38 47  1  0  0  0
 39 64  1  0  0  0
 39 67  2  0  0  0
 40 52  1  0  0  0
 40 53  2  0  0  0
 40 58  1  0  0  0
 41108  1  0  0  0
 41109  1  0  0  0
 41110  1  0  0  0
 41 48  1  0  0  0
 42 43  1  0  0  0
 42 66  1  0  0  0
 42111  1  0  0  0
 42112  1  0  0  0
 43 44  1  0  0  0
 44113  1  0  0  0
 45 46  2  0  0  0
 45114  1  0  0  0
 46115  1  0  0  0
 47116  1  0  0  0
 47117  1  0  0  0
 48 56  1  0  0  0
 48 65  1  0  0  0
 48118  1  0  0  0
 49 50  1  0  0  0
 49 53  1  0  0  0
 49 64  1  0  0  0
 49119  1  0  0  0
 50 51  1  0  0  0
 50120  1  0  0  0
 50121  1  0  0  0
 51 52  1  0  0  0
 51122  1  0  0  0
 51123  1  0  0  0
 52124  1  0  0  0
 52125  1  0  0  0
 53 54  1  0  0  0
 54 55  2  0  0  0
 54126  1  0  0  0
 55 57  1  0  0  0
 55127  1  0  0  0
 56 69  2  0  0  0
 57 58  2  0  0  0
 57128  1  0  0  0
 58129  1  0  0  0
 59 60  1  0  0  0
 59 61  1  0  0  0
 59 62  1  0  0  0
 60130  1  0  0  0
 60131  1  0  0  0
 60132  1  0  0  0
 61133  1  0  0  0
 61134  1  0  0  0
 61135  1  0  0  0
 62136  1  0  0  0
 62137  1  0  0  0
 62138  1  0  0  0
 63 65  1  0  0  0
 63139  1  0  0  0
 63140  1  0  0  0
 63141  1  0  0  0
 64142  1  0  0  0
 65143  1  0  0  0
 68 82  1  0  0  0
 71 73  1  0  0  0
 71144  1  0  0  0
 71145  1  0  0  0
 71 75  1  0  0  0
 72 74  1  0  0  0
 72 75  1  0  0  0
 72146  1  0  0  0
 72147  1  0  0  0
 73 76  1  0  0  0
 73148  1  0  0  0
 73149  1  0  0  0
 74 76  1  0  0  0
 74150  1  0  0  0
 74151  1  0  0  0
 75 80  1  0  0  0
 75152  1  0  0  0
 76 83  1  0  0  0
 76153  1  0  0  0
 77 79  1  0  0  0
 77154  1  0  0  0
 77155  1  0  0  0
 77156  1  0  0  0
 78157  1  0  0  0
 78158  1  0  0  0
 78159  1  0  0  0
 78 81  1  0  0  0
 79160  1  0  0  0
 79161  1  0  0  0
 79 82  1  0  0  0
 80 81  1  0  0  0
 80 84  1  0  0  0
 80162  1  0  0  0
 81 82  1  0  0  0
 81163  1  0  0  0
 82164  1  0  0  0
 83165  1  0  0  0
 84166  1  0  0  0
 84167  1  0  0  0
 84168  1  0  0  0
M  CHG  1  84   1
M  ISO  4   1 100  68 101  82 101  83 100
M  END
> <chiral flag>
0

> <version>
0

> <s_m_source_file>
/data/baiqing/PycharmProjects/Reinvent-master-3.2/result/LINK_invent/BTK/process_docking_weight1_custom_sum_contain_oxygen_bond_distance_aromatic_linkinvent_7_9_3/rearranged_h_0117.sdf

> <i_m_source_file_index>
12

> <r_mmod_Potential_Energy-OPLS-2005>
191.725952148438

> <r_mmod_Stretch_Energy-OPLS-2005>
179.435760498047

> <r_mmod_Bend_Energy-OPLS-2005>
242.683029174805

> <r_mmod_Torsional_Energy-OPLS-2005>
324.391143798828

> <r_mmod_Improper_Torsional_Energy-OPLS-2005>
4.75082921981812

> <r_mmod_Van_der_Waal_Energy-OPLS-2005>
129.59814453125

> <r_mmod_Electrostatic_Energy-OPLS-2005>
-316.707672119141

> <r_mmod_Solvation_Energy-OPLS-2005>
-482.302062988281

> <b_mmod_Minimization_Converged-OPLS-2005>
0

> <r_mmod_RMS_Derivative-OPLS-2005>
3.22548961639404

$$$$
12
                    3D
 Structure written by MMmdl.
164172  0  0  1  0            999 V2000
  -30.6821  -14.5958   20.4745 C   0  0  0  0  0  0
  -30.4186  -12.3595   19.4659 C   0  0  0  0  0  0
  -29.5011  -12.4751   18.2306 C   0  0  0  0  0  0
  -28.0225  -12.3342   18.6425 C   0  0  0  0  0  0
  -27.6463  -13.2260   19.8597 C   0  0  2  0  0  0
  -28.6894  -13.1074   20.9942 C   0  0  0  0  0  0
  -25.2465  -13.8222   20.5701 C   0  0  0  0  0  0
  -24.1765  -13.0466   20.9236 C   0  0  0  0  0  0
  -24.6347  -11.6936   20.8770 C   0  0  0  0  0  0
  -23.9048  -10.4302   21.0401 C   0  0  0  0  0  0
  -24.3601   -9.4222   21.9165 C   0  0  0  0  0  0
  -23.6280   -8.2246   22.0730 C   0  0  0  0  0  0
  -22.4254   -8.0265   21.3533 C   0  0  0  0  0  0
  -21.9894   -9.0241   20.4623 C   0  0  0  0  0  0
  -22.7220  -10.2113   20.3045 C   0  0  0  0  0  0
  -21.6846   -6.0712   22.5301 C   0  0  0  0  0  0
  -21.4004   -6.5638   23.8227 C   0  0  0  0  0  0
  -21.3654   -5.6800   24.9206 C   0  0  0  0  0  0
  -21.6042   -4.3063   24.7259 C   0  0  0  0  0  0
  -21.8812   -3.8144   23.4394 C   0  0  0  0  0  0
  -21.9180   -4.6946   22.3436 C   0  0  0  0  0  0
  -22.7764  -13.5192   21.1921 C   0  0  0  0  0  0
  -22.1638   -4.2139   21.1008 F   0  0  0  0  0  0
  -21.5632   -3.4545   25.7771 F   0  0  0  0  0  0
  -30.0086  -13.4060   20.4227 N   0  0  0  0  0  0
  -26.2931  -12.9420   20.3344 N   0  0  0  0  0  0
  -25.9274  -11.6570   20.5805 N   0  0  0  0  0  0
  -22.0425  -12.8130   22.0449 N   0  0  0  0  0  0
  -25.4154  -15.1952   20.4044 N   0  0  0  0  0  0
  -31.8655  -14.6647   20.1404 O   0  0  0  0  0  0
  -21.6637   -6.8843   21.4231 O   0  0  0  0  0  0
  -22.3406  -14.5491   20.6770 O   0  0  0  0  0  0
  -24.6297  -31.8633   23.2080 C   0  0  0  0  0  0
  -25.9176  -32.4762   23.8371 C   0  0  1  0  0  0
  -27.2024  -27.3339   20.0908 C   0  0  0  0  0  0
  -25.5989  -33.8568   24.2277 N   0  0  0  0  0  0
  -23.4150  -30.4988   21.5506 C   0  0  2  0  0  0
  -24.8501  -28.9703   20.1051 C   0  0  0  0  0  0
  -22.7489  -29.4651   22.4896 C   0  0  0  0  0  0
  -18.0326  -28.1349   22.8477 C   0  0  0  0  0  0
  -24.1496  -36.7293   23.2633 C   0  0  0  0  0  0
  -25.9616  -30.7964   21.3797 C   0  0  0  0  0  0
  -26.0259  -29.4332   20.7076 C   0  0  0  0  0  0
  -27.2057  -28.6307   20.6880 C   0  0  0  0  0  0
  -25.9900  -26.9256   19.4783 C   0  0  0  0  0  0
  -24.8347  -27.7195   19.4804 C   0  0  0  0  0  0
  -23.6249  -29.8571   20.1585 C   0  0  0  0  0  0
  -25.4117  -36.3046   24.0309 C   0  0  1  0  0  0
  -20.5919  -28.3656   23.1244 C   0  0  2  0  0  0
  -20.6791  -26.9369   22.5369 C   0  0  0  0  0  0
  -19.5764  -26.6347   21.5175 C   0  0  0  0  0  0
  -18.1955  -26.7892   22.1608 C   0  0  0  0  0  0
  -19.1570  -28.8828   23.2863 C   0  0  0  0  0  0
  -18.9499  -30.1444   23.8859 C   0  0  0  0  0  0
  -17.6494  -30.6545   24.0556 C   0  0  0  0  0  0
  -25.9081  -34.9424   23.5071 C   0  0  0  0  0  0
  -16.5393  -29.9031   23.6317 C   0  0  0  0  0  0
  -16.7321  -28.6457   23.0329 C   0  0  0  0  0  0
  -26.4542  -31.6601   25.0775 C   0  0  0  0  0  0
  -25.3754  -31.3769   26.1485 C   0  0  0  0  0  0
  -27.0433  -30.3017   24.6317 C   0  0  0  0  0  0
  -27.6092  -32.4356   25.7554 C   0  0  0  0  0  0
  -27.5566  -37.1794   24.8452 C   0  0  0  0  0  0
  -21.4203  -29.3025   22.3644 N   0  0  0  0  0  0
  -26.4275  -37.3756   23.9410 N   0  0  0  0  0  0
  -24.6869  -31.0681   22.1018 N   0  0  0  0  0  0
  -23.4251  -28.8155   23.2922 O   0  0  0  0  0  0
  -28.3263  -26.4849   20.1328 O   0  0  0  0  0  0
  -26.5622  -34.8898   22.4629 O   0  0  0  0  0  0
  -23.5470  -32.1412   23.7452 O   0  0  0  0  0  0
  -29.0479  -20.2914   21.5916 C   0  0  0  0  0  0
  -29.4833  -18.9416   21.4425 C   0  0  0  0  0  0
  -29.8600  -18.4613   20.1532 C   0  0  0  0  0  0
  -29.0073  -21.1710   20.4874 C   0  0  0  0  0  0
  -29.8673  -19.4571   19.1120 C   0  0  0  0  0  0
  -29.5360  -18.0577   22.6773 C   0  0  0  0  0  0
  -28.2613  -24.9929   18.2043 C   0  0  0  0  0  0
  -31.0001  -20.3607   16.9792 C   0  0  0  0  0  0
  -30.3210  -16.9850   19.8344 C   0  0  0  0  0  0
  -28.2751  -22.5486   20.5152 C   0  0  0  0  0  0
  -29.0469  -23.9251   20.3749 C   0  0  0  0  0  0
  -28.1497  -25.0706   19.7419 C   0  0  1  0  0  0
  -30.2746  -19.1807   17.6492 C   0  0  0  0  0  0
  -29.4189  -20.7324   19.2855 N   0  0  0  0  0  0
  -29.9503  -15.7453   20.5980 N   0  0  0  0  0  0
  -29.1798  -18.8906   16.9412 F   0  0  0  0  0  0
  -31.1416  -18.1777   17.5163 F   0  0  0  0  0  0
  -31.4633  -12.4455   19.1631 H   0  0  0  0  0  0
  -30.3270  -11.3765   19.9307 H   0  0  0  0  0  0
  -29.7575  -11.7061   17.5000 H   0  0  0  0  0  0
  -29.6609  -13.4316   17.7331 H   0  0  0  0  0  0
  -27.8507  -11.2867   18.8926 H   0  0  0  0  0  0
  -27.3736  -12.5480   17.7930 H   0  0  0  0  0  0
  -27.6561  -14.2589   19.5050 H   0  0  0  0  0  0
  -28.6796  -12.1025   21.4236 H   0  0  0  0  0  0
  -28.4500  -13.7899   21.8101 H   0  0  0  0  0  0
  -25.2722   -9.5719   22.4762 H   0  0  0  0  0  0
  -24.0015   -7.4629   22.7438 H   0  0  0  0  0  0
  -21.0844   -8.8753   19.8895 H   0  0  0  0  0  0
  -22.3682  -10.9651   19.6180 H   0  0  0  0  0  0
  -21.1983   -7.6140   23.9748 H   0  0  0  0  0  0
  -21.1464   -6.0521   25.9113 H   0  0  0  0  0  0
  -22.0572   -2.7602   23.2927 H   0  0  0  0  0  0
  -22.4092  -11.9835   22.4874 H   0  0  0  0  0  0
  -21.1001  -13.1065   22.2604 H   0  0  0  0  0  0
  -24.6567  -15.8568   20.5326 H   0  0  0  0  0  0
  -26.2582  -15.6313   20.0528 H   0  0  0  0  0  0
  -26.7252  -32.5409   23.1122 H   0  0  0  0  0  0
  -25.0148  -33.9707   25.0414 H   0  0  0  0  0  0
  -22.7085  -31.3217   21.4224 H   0  0  0  0  0  0
  -23.3733  -35.9645   23.3267 H   0  0  0  0  0  0
  -24.3589  -36.8971   22.2054 H   0  0  0  0  0  0
  -23.7290  -37.6498   23.6703 H   0  0  0  0  0  0
  -26.1112  -31.5714   20.6264 H   0  0  0  0  0  0
  -26.8338  -30.8191   22.0216 H   0  0  0  0  0  0
  -28.1082  -28.9915   21.1590 H   0  0  0  0  0  0
  -25.8738  -25.9756   18.9846 H   0  0  0  0  0  0
  -23.9340  -27.3583   19.0014 H   0  0  0  0  0  0
  -23.7528  -30.6471   19.4164 H   0  0  0  0  0  0
  -22.7380  -29.3059   19.8436 H   0  0  0  0  0  0
  -25.1297  -36.1844   25.0799 H   0  0  0  0  0  0
  -21.0065  -28.3202   24.1346 H   0  0  0  0  0  0
  -20.5636  -26.2280   23.3574 H   0  0  0  0  0  0
  -21.6657  -26.7329   22.1196 H   0  0  0  0  0  0
  -19.6900  -25.6245   21.1229 H   0  0  0  0  0  0
  -19.6683  -27.3132   20.6686 H   0  0  0  0  0  0
  -17.4211  -26.6662   21.4020 H   0  0  0  0  0  0
  -18.0361  -26.0012   22.8993 H   0  0  0  0  0  0
  -19.7987  -30.7289   24.2156 H   0  0  0  0  0  0
  -17.5051  -31.6219   24.5163 H   0  0  0  0  0  0
  -15.5388  -30.2930   23.7630 H   0  0  0  0  0  0
  -15.8743  -28.0789   22.7001 H   0  0  0  0  0  0
  -24.5887  -30.7182   25.7787 H   0  0  0  0  0  0
  -24.9005  -32.2969   26.4919 H   0  0  0  0  0  0
  -25.8031  -30.8905   27.0263 H   0  0  0  0  0  0
  -26.3066  -29.6720   24.1330 H   0  0  0  0  0  0
  -27.4086  -29.7330   25.4883 H   0  0  0  0  0  0
  -27.8935  -30.4283   23.9610 H   0  0  0  0  0  0
  -27.2687  -33.3649   26.2136 H   0  0  0  0  0  0
  -28.3906  -32.6951   25.0395 H   0  0  0  0  0  0
  -28.0776  -31.8505   26.5481 H   0  0  0  0  0  0
  -28.2534  -38.0133   24.7522 H   0  0  0  0  0  0
  -28.1114  -36.2666   24.6227 H   0  0  0  0  0  0
  -27.2308  -37.1381   25.8862 H   0  0  0  0  0  0
  -20.9349  -29.8853   21.6961 H   0  0  0  0  0  0
  -26.0120  -38.2808   24.1460 H   0  0  0  0  0  0
  -28.6956  -20.6401   22.5543 H   0  0  0  0  0  0
  -29.6339  -18.6630   23.5807 H   0  0  0  0  0  0
  -30.3989  -17.3918   22.6609 H   0  0  0  0  0  0
  -28.6306  -17.4560   22.7668 H   0  0  0  0  0  0
  -27.9570  -24.0133   17.8349 H   0  0  0  0  0  0
  -29.2871  -25.1672   17.8809 H   0  0  0  0  0  0
  -27.6490  -25.7343   17.6929 H   0  0  0  0  0  0
  -30.3623  -21.2425   16.9011 H   0  0  0  0  0  0
  -31.3122  -20.0907   15.9699 H   0  0  0  0  0  0
  -31.8919  -20.6404   17.5417 H   0  0  0  0  0  0
  -31.4071  -17.0372   19.7402 H   0  0  0  0  0  0
  -29.9324  -16.7541   18.8412 H   0  0  0  0  0  0
  -27.6661  -22.5964   21.4178 H   0  0  0  0  0  0
  -27.5469  -22.4926   19.7050 H   0  0  0  0  0  0
  -29.9301  -23.7828   19.7506 H   0  0  0  0  0  0
  -29.4200  -24.2181   21.3575 H   0  0  0  0  0  0
  -27.1527  -24.7792   20.0662 H   0  0  0  0  0  0
  -28.9857  -15.6440   20.8749 H   0  0  0  0  0  0
  1 25  1  0  0  0
  1 30  2  0  0  0
  1 85  1  0  0  0
  2  3  1  0  0  0
  2 25  1  0  0  0
  2 88  1  0  0  0
  2 89  1  0  0  0
  3  4  1  0  0  0
  3 90  1  0  0  0
  3 91  1  0  0  0
  4  5  1  0  0  0
  4 92  1  0  0  0
  4 93  1  0  0  0
  5  6  1  0  0  0
  5 26  1  0  0  0
  5 94  1  0  0  0
  6 25  1  0  0  0
  6 95  1  0  0  0
  6 96  1  0  0  0
  7  8  2  0  0  0
  7 26  1  0  0  0
  7 29  1  0  0  0
  8  9  1  0  0  0
  8 22  1  0  0  0
  9 10  1  0  0  0
  9 27  2  0  0  0
 10 11  2  0  0  0
 10 15  1  0  0  0
 11 12  1  0  0  0
 11 97  1  0  0  0
 12 13  2  0  0  0
 12 98  1  0  0  0
 13 14  1  0  0  0
 13 31  1  0  0  0
 14 15  2  0  0  0
 14 99  1  0  0  0
 15100  1  0  0  0
 16 17  2  0  0  0
 16 21  1  0  0  0
 16 31  1  0  0  0
 17 18  1  0  0  0
 17101  1  0  0  0
 18 19  2  0  0  0
 18102  1  0  0  0
 19 20  1  0  0  0
 19 24  1  0  0  0
 20 21  2  0  0  0
 20103  1  0  0  0
 21 23  1  0  0  0
 22 28  1  0  0  0
 22 32  2  0  0  0
 26 27  1  0  0  0
 28104  1  0  0  0
 28105  1  0  0  0
 29106  1  0  0  0
 29107  1  0  0  0
 33 34  1  0  0  0
 33 66  1  0  0  0
 33 70  2  0  0  0
 34 36  1  0  0  0
 34 59  1  0  0  0
 34108  1  0  0  0
 35 44  2  0  0  0
 35 45  1  0  0  0
 35 68  1  0  0  0
 36 56  1  0  0  0
 36109  1  0  0  0
 37 39  1  0  0  0
 37 47  1  0  0  0
 37 66  1  0  0  0
 37110  1  0  0  0
 38 43  2  0  0  0
 38 46  1  0  0  0
 38 47  1  0  0  0
 39 64  1  0  0  0
 39 67  2  0  0  0
 40 52  1  0  0  0
 40 53  2  0  0  0
 40 58  1  0  0  0
 41111  1  0  0  0
 41112  1  0  0  0
 41113  1  0  0  0
 41 48  1  0  0  0
 42 43  1  0  0  0
 42 66  1  0  0  0
 42114  1  0  0  0
 42115  1  0  0  0
 43 44  1  0  0  0
 44116  1  0  0  0
 45 46  2  0  0  0
 45117  1  0  0  0
 46118  1  0  0  0
 47119  1  0  0  0
 47120  1  0  0  0
 48 56  1  0  0  0
 48 65  1  0  0  0
 48121  1  0  0  0
 49 50  1  0  0  0
 49 53  1  0  0  0
 49 64  1  0  0  0
 49122  1  0  0  0
 50 51  1  0  0  0
 50123  1  0  0  0
 50124  1  0  0  0
 51 52  1  0  0  0
 51125  1  0  0  0
 51126  1  0  0  0
 52127  1  0  0  0
 52128  1  0  0  0
 53 54  1  0  0  0
 54 55  2  0  0  0
 54129  1  0  0  0
 55 57  1  0  0  0
 55130  1  0  0  0
 56 69  2  0  0  0
 57 58  2  0  0  0
 57131  1  0  0  0
 58132  1  0  0  0
 59 60  1  0  0  0
 59 61  1  0  0  0
 59 62  1  0  0  0
 60133  1  0  0  0
 60134  1  0  0  0
 60135  1  0  0  0
 61136  1  0  0  0
 61137  1  0  0  0
 61138  1  0  0  0
 62139  1  0  0  0
 62140  1  0  0  0
 62141  1  0  0  0
 63 65  1  0  0  0
 63142  1  0  0  0
 63143  1  0  0  0
 63144  1  0  0  0
 64145  1  0  0  0
 65146  1  0  0  0
 68 82  1  0  0  0
 71 72  2  0  0  0
 71 74  1  0  0  0
 71147  1  0  0  0
 72 73  1  0  0  0
 72 76  1  0  0  0
 73 75  2  0  0  0
 73 79  1  0  0  0
 74 80  1  0  0  0
 74 84  2  0  0  0
 75 83  1  0  0  0
 75 84  1  0  0  0
 76148  1  0  0  0
 76149  1  0  0  0
 76150  1  0  0  0
 77151  1  0  0  0
 77152  1  0  0  0
 77153  1  0  0  0
 77 82  1  0  0  0
 78154  1  0  0  0
 78155  1  0  0  0
 78156  1  0  0  0
 78 83  1  0  0  0
 79 85  1  0  0  0
 79157  1  0  0  0
 79158  1  0  0  0
 80 81  1  0  0  0
 80159  1  0  0  0
 80160  1  0  0  0
 81 82  1  0  0  0
 81161  1  0  0  0
 81162  1  0  0  0
 82163  1  0  0  0
 83 86  1  0  0  0
 83 87  1  0  0  0
 85164  1  0  0  0
M  ISO  4   1 100  68 101  82 101  85 100
M  END
> <chiral flag>
0

> <version>
0

> <s_m_source_file>
/data/baiqing/PycharmProjects/Reinvent-master-3.2/result/LINK_invent/BTK/process_docking_weight1_custom_sum_contain_oxygen_bond_distance_aromatic_linkinvent_7_9_3/rearranged_h_0117.sdf

> <i_m_source_file_index>
13

> <r_mmod_Potential_Energy-OPLS-2005>
-78.0087661743164

> <r_mmod_Stretch_Energy-OPLS-2005>
76.3855438232422

> <r_mmod_Bend_Energy-OPLS-2005>
160.337844848633

> <r_mmod_Torsional_Energy-OPLS-2005>
214.439727783203

> <r_mmod_Improper_Torsional_Energy-OPLS-2005>
10.6371660232544

> <r_mmod_Van_der_Waal_Energy-OPLS-2005>
169.307037353516

> <r_mmod_Electrostatic_Energy-OPLS-2005>
-548.714660644531

> <r_mmod_Solvation_Energy-OPLS-2005>
-205.244735717773

> <b_mmod_Minimization_Converged-OPLS-2005>
0

> <r_mmod_RMS_Derivative-OPLS-2005>
4.0362434387207

$$$$
13
                    3D
 Structure written by MMmdl.
164173  0  0  1  0            999 V2000
  -30.5199  -15.0037   20.4079 C   0  0  0  0  0  0
  -30.4412  -12.6206   19.5231 C   0  0  0  0  0  0
  -29.5300  -12.5464   18.2742 C   0  0  0  0  0  0
  -28.0639  -12.3209   18.6856 C   0  0  0  0  0  0
  -27.6312  -13.2567   19.8444 C   0  0  2  0  0  0
  -28.6686  -13.3028   20.9889 C   0  0  0  0  0  0
  -25.2462  -13.8237   20.5721 C   0  0  0  0  0  0
  -24.1782  -13.0452   20.9231 C   0  0  0  0  0  0
  -24.6406  -11.6937   20.8749 C   0  0  0  0  0  0
  -23.9091  -10.4304   21.0405 C   0  0  0  0  0  0
  -24.3635   -9.4214   21.9182 C   0  0  0  0  0  0
  -23.6307   -8.2246   22.0743 C   0  0  0  0  0  0
  -22.4291   -8.0282   21.3532 C   0  0  0  0  0  0
  -21.9935   -9.0262   20.4639 C   0  0  0  0  0  0
  -22.7266  -10.2142   20.3052 C   0  0  0  0  0  0
  -21.6864   -6.0743   22.5274 C   0  0  0  0  0  0
  -21.4024   -6.5642   23.8211 C   0  0  0  0  0  0
  -21.3657   -5.6788   24.9168 C   0  0  0  0  0  0
  -21.6045   -4.3054   24.7214 C   0  0  0  0  0  0
  -21.8819   -3.8147   23.4334 C   0  0  0  0  0  0
  -21.9195   -4.6968   22.3395 C   0  0  0  0  0  0
  -22.7799  -13.5217   21.1880 C   0  0  0  0  0  0
  -22.1663   -4.2156   21.0974 F   0  0  0  0  0  0
  -21.5627   -3.4536   25.7723 F   0  0  0  0  0  0
  -29.9445  -13.7274   20.3982 N   0  0  0  0  0  0
  -26.2899  -12.9481   20.3269 N   0  0  0  0  0  0
  -25.9348  -11.6604   20.5754 N   0  0  0  0  0  0
  -22.0447  -12.8196   22.0428 N   0  0  0  0  0  0
  -25.4145  -15.1962   20.4131 N   0  0  0  0  0  0
  -31.7090  -15.0686   20.0757 O   0  0  0  0  0  0
  -21.6645   -6.8884   21.4234 O   0  0  0  0  0  0
  -22.3477  -14.5514   20.6712 O   0  0  0  0  0  0
  -24.6481  -31.8393   23.1854 C   0  0  0  0  0  0
  -25.9241  -32.4661   23.8246 C   0  0  1  0  0  0
  -27.2009  -27.0754   20.1731 C   0  0  0  0  0  0
  -25.5980  -33.8469   24.2167 N   0  0  0  0  0  0
  -23.4545  -30.4585   21.5315 C   0  0  2  0  0  0
  -24.9045  -28.8791   20.1088 C   0  0  0  0  0  0
  -22.7596  -29.4522   22.4834 C   0  0  0  0  0  0
  -18.0319  -28.1403   22.8476 C   0  0  0  0  0  0
  -24.1494  -36.7242   23.2640 C   0  0  0  0  0  0
  -26.0142  -30.6904   21.3992 C   0  0  0  0  0  0
  -26.0803  -29.2955   20.7459 C   0  0  0  0  0  0
  -27.2297  -28.4084   20.7663 C   0  0  0  0  0  0
  -26.0201  -26.8012   19.4505 C   0  0  0  0  0  0
  -24.8904  -27.6464   19.4408 C   0  0  0  0  0  0
  -23.6848  -29.7882   20.1508 C   0  0  0  0  0  0
  -25.4126  -36.3009   24.0312 C   0  0  1  0  0  0
  -20.5934  -28.3734   23.1217 C   0  0  2  0  0  0
  -20.6810  -26.9434   22.5397 C   0  0  0  0  0  0
  -19.5776  -26.6383   21.5215 C   0  0  0  0  0  0
  -18.1956  -26.7944   22.1622 C   0  0  0  0  0  0
  -19.1575  -28.8889   23.2839 C   0  0  0  0  0  0
  -18.9489  -30.1491   23.8851 C   0  0  0  0  0  0
  -17.6481  -30.6591   24.0561 C   0  0  0  0  0  0
  -25.9084  -34.9387   23.5049 C   0  0  0  0  0  0
  -16.5371  -29.9079   23.6341 C   0  0  0  0  0  0
  -16.7304  -28.6506   23.0352 C   0  0  0  0  0  0
  -26.4541  -31.6546   25.0707 C   0  0  0  0  0  0
  -25.3717  -31.3753   26.1395 C   0  0  0  0  0  0
  -27.0421  -30.2930   24.6343 C   0  0  0  0  0  0
  -27.6054  -32.4337   25.7489 C   0  0  0  0  0  0
  -27.5573  -37.1776   24.8465 C   0  0  0  0  0  0
  -21.4282  -29.3050   22.3581 N   0  0  0  0  0  0
  -26.4278  -37.3735   23.9412 N   0  0  0  0  0  0
  -24.7252  -31.0196   22.0926 N   0  0  0  0  0  0
  -23.4218  -28.8076   23.3010 O   0  0  0  0  0  0
  -28.2158  -26.0306   20.1972 O   0  0  0  0  0  0
  -26.5656  -34.8895   22.4618 O   0  0  0  0  0  0
  -23.5588  -32.1295   23.7044 O   0  0  0  0  0  0
  -29.5091  -22.7776   19.2461 C   0  0  0  0  0  0
  -28.6770  -23.1270   20.2891 C   0  0  0  0  0  0
  -29.2070  -20.7459   20.3011 C   0  0  0  0  0  0
  -32.5795  -21.2128   16.5439 C   0  0  0  0  0  0
  -31.6863  -22.4279   16.5369 C   0  0  0  0  0  0
  -31.8384  -21.6087   17.8015 C   0  0  0  0  0  0
  -26.4948  -24.2634   21.0422 C   0  0  0  0  0  0
  -29.1631  -17.6075   18.6310 C   0  0  0  0  0  0
  -29.2805  -19.1304   20.7879 C   0  0  0  0  0  0
  -30.7081  -20.7349   18.3170 C   0  0  0  0  0  0
  -27.9816  -24.5640   20.7693 C   0  0  2  0  0  0
  -29.8358  -17.6968   20.0119 C   0  0  1  0  0  0
  -29.8324  -21.4059   19.2892 N   0  0  0  0  0  0
  -28.5388  -21.8233   20.8991 N   0  3  0  0  0  0
  -29.7361  -16.1953   20.5771 N   0  0  0  0  0  0
  -31.4745  -12.7795   19.2129 H   0  0  0  0  0  0
  -30.4383  -11.6725   20.0634 H   0  0  0  0  0  0
  -29.8629  -11.7512   17.6065 H   0  0  0  0  0  0
  -29.6119  -13.4754   17.7077 H   0  0  0  0  0  0
  -27.9662  -11.2808   18.9978 H   0  0  0  0  0  0
  -27.4026  -12.4437   17.8269 H   0  0  0  0  0  0
  -27.5906  -14.2565   19.4099 H   0  0  0  0  0  0
  -28.7630  -12.3326   21.4790 H   0  0  0  0  0  0
  -28.3554  -14.0097   21.7588 H   0  0  0  0  0  0
  -25.2777   -9.5693   22.4762 H   0  0  0  0  0  0
  -24.0014   -7.4643   22.7467 H   0  0  0  0  0  0
  -21.0866   -8.8793   19.8950 H   0  0  0  0  0  0
  -22.3726  -10.9682   19.6162 H   0  0  0  0  0  0
  -21.2024   -7.6152   23.9717 H   0  0  0  0  0  0
  -21.1482   -6.0516   25.9072 H   0  0  0  0  0  0
  -22.0602   -2.7610   23.2828 H   0  0  0  0  0  0
  -22.4076  -11.9868   22.4830 H   0  0  0  0  0  0
  -21.1059  -13.1209   22.2626 H   0  0  0  0  0  0
  -24.6472  -15.8505   20.5215 H   0  0  0  0  0  0
  -26.2581  -15.6296   20.0620 H   0  0  0  0  0  0
  -26.7297  -32.5240   23.0959 H   0  0  0  0  0  0
  -25.0162  -33.9566   25.0339 H   0  0  0  0  0  0
  -22.7610  -31.2876   21.3757 H   0  0  0  0  0  0
  -23.3758  -35.9569   23.3280 H   0  0  0  0  0  0
  -24.3587  -36.8899   22.2060 H   0  0  0  0  0  0
  -23.7248  -37.6433   23.6689 H   0  0  0  0  0  0
  -26.1826  -31.4400   20.6247 H   0  0  0  0  0  0
  -26.8792  -30.7380   22.0486 H   0  0  0  0  0  0
  -28.1202  -28.7185   21.2943 H   0  0  0  0  0  0
  -25.9491  -25.8735   18.9023 H   0  0  0  0  0  0
  -24.0048  -27.3338   18.9047 H   0  0  0  0  0  0
  -23.8277  -30.5620   19.3961 H   0  0  0  0  0  0
  -22.7971  -29.2365   19.8364 H   0  0  0  0  0  0
  -25.1323  -36.1821   25.0804 H   0  0  0  0  0  0
  -21.0033  -28.3330   24.1338 H   0  0  0  0  0  0
  -20.5722  -26.2350   23.3625 H   0  0  0  0  0  0
  -21.6675  -26.7450   22.1186 H   0  0  0  0  0  0
  -19.6939  -25.6287   21.1266 H   0  0  0  0  0  0
  -19.6705  -27.3174   20.6731 H   0  0  0  0  0  0
  -17.4234  -26.6696   21.4018 H   0  0  0  0  0  0
  -18.0343  -26.0087   22.9018 H   0  0  0  0  0  0
  -19.7964  -30.7332   24.2180 H   0  0  0  0  0  0
  -17.5029  -31.6258   24.5189 H   0  0  0  0  0  0
  -15.5371  -30.2963   23.7691 H   0  0  0  0  0  0
  -15.8711  -28.0813   22.7075 H   0  0  0  0  0  0
  -24.5899  -30.7098   25.7719 H   0  0  0  0  0  0
  -24.8898  -32.2936   26.4747 H   0  0  0  0  0  0
  -25.7989  -30.8973   27.0218 H   0  0  0  0  0  0
  -26.3050  -29.6626   24.1350 H   0  0  0  0  0  0
  -27.4013  -29.7261   25.4941 H   0  0  0  0  0  0
  -27.8974  -30.4152   23.9697 H   0  0  0  0  0  0
  -27.2628  -33.3664   26.1978 H   0  0  0  0  0  0
  -28.3892  -32.6854   25.0337 H   0  0  0  0  0  0
  -28.0686  -31.8528   26.5472 H   0  0  0  0  0  0
  -28.2579  -38.0083   24.7520 H   0  0  0  0  0  0
  -28.1082  -36.2615   24.6283 H   0  0  0  0  0  0
  -27.2293  -37.1420   25.8867 H   0  0  0  0  0  0
  -20.9504  -29.8750   21.6737 H   0  0  0  0  0  0
  -26.0139  -38.2801   24.1409 H   0  0  0  0  0  0
  -29.9061  -23.4258   18.4796 H   0  0  0  0  0  0
  -33.6553  -21.3769   16.5209 H   0  0  0  0  0  0
  -32.2325  -20.3336   16.0038 H   0  0  0  0  0  0
  -30.7465  -22.3574   15.9921 H   0  0  0  0  0  0
  -32.1715  -23.4020   16.5011 H   0  0  0  0  0  0
  -32.4481  -22.0476   18.5901 H   0  0  0  0  0  0
  -25.9884  -25.0940   21.5318 H   0  0  0  0  0  0
  -26.3838  -23.4123   21.7135 H   0  0  0  0  0  0
  -25.9598  -24.0147   20.1260 H   0  0  0  0  0  0
  -29.1537  -18.5549   18.1020 H   0  0  0  0  0  0
  -28.1225  -17.2930   18.7227 H   0  0  0  0  0  0
  -29.6676  -16.8844   17.9899 H   0  0  0  0  0  0
  -28.2512  -18.9292   21.0826 H   0  0  0  0  0  0
  -29.8232  -19.1897   21.7314 H   0  0  0  0  0  0
  -31.1459  -19.8538   18.7812 H   0  0  0  0  0  0
  -30.0907  -20.4160   17.4772 H   0  0  0  0  0  0
  -28.4024  -24.6970   21.7661 H   0  0  0  0  0  0
  -30.9026  -17.8508   19.8432 H   0  0  0  0  0  0
  -27.9803  -21.6927   21.7335 H   0  0  0  0  0  0
  -28.8197  -15.9806   20.9440 H   0  0  0  0  0  0
  1 25  1  0  0  0
  1 30  2  0  0  0
  1 85  1  0  0  0
  2  3  1  0  0  0
  2 25  1  0  0  0
  2 86  1  0  0  0
  2 87  1  0  0  0
  3  4  1  0  0  0
  3 88  1  0  0  0
  3 89  1  0  0  0
  4  5  1  0  0  0
  4 90  1  0  0  0
  4 91  1  0  0  0
  5  6  1  0  0  0
  5 26  1  0  0  0
  5 92  1  0  0  0
  6 25  1  0  0  0
  6 93  1  0  0  0
  6 94  1  0  0  0
  7  8  2  0  0  0
  7 26  1  0  0  0
  7 29  1  0  0  0
  8  9  1  0  0  0
  8 22  1  0  0  0
  9 10  1  0  0  0
  9 27  2  0  0  0
 10 11  2  0  0  0
 10 15  1  0  0  0
 11 12  1  0  0  0
 11 95  1  0  0  0
 12 13  2  0  0  0
 12 96  1  0  0  0
 13 14  1  0  0  0
 13 31  1  0  0  0
 14 15  2  0  0  0
 14 97  1  0  0  0
 15 98  1  0  0  0
 16 17  2  0  0  0
 16 21  1  0  0  0
 16 31  1  0  0  0
 17 18  1  0  0  0
 17 99  1  0  0  0
 18 19  2  0  0  0
 18100  1  0  0  0
 19 20  1  0  0  0
 19 24  1  0  0  0
 20 21  2  0  0  0
 20101  1  0  0  0
 21 23  1  0  0  0
 22 28  1  0  0  0
 22 32  2  0  0  0
 26 27  1  0  0  0
 28102  1  0  0  0
 28103  1  0  0  0
 29104  1  0  0  0
 29105  1  0  0  0
 33 34  1  0  0  0
 33 66  1  0  0  0
 33 70  2  0  0  0
 34 36  1  0  0  0
 34 59  1  0  0  0
 34106  1  0  0  0
 35 44  2  0  0  0
 35 45  1  0  0  0
 35 68  1  0  0  0
 36 56  1  0  0  0
 36107  1  0  0  0
 37 39  1  0  0  0
 37 47  1  0  0  0
 37 66  1  0  0  0
 37108  1  0  0  0
 38 43  2  0  0  0
 38 46  1  0  0  0
 38 47  1  0  0  0
 39 64  1  0  0  0
 39 67  2  0  0  0
 40 52  1  0  0  0
 40 53  2  0  0  0
 40 58  1  0  0  0
 41109  1  0  0  0
 41110  1  0  0  0
 41111  1  0  0  0
 41 48  1  0  0  0
 42 43  1  0  0  0
 42 66  1  0  0  0
 42112  1  0  0  0
 42113  1  0  0  0
 43 44  1  0  0  0
 44114  1  0  0  0
 45 46  2  0  0  0
 45115  1  0  0  0
 46116  1  0  0  0
 47117  1  0  0  0
 47118  1  0  0  0
 48 56  1  0  0  0
 48 65  1  0  0  0
 48119  1  0  0  0
 49 50  1  0  0  0
 49 53  1  0  0  0
 49 64  1  0  0  0
 49120  1  0  0  0
 50 51  1  0  0  0
 50121  1  0  0  0
 50122  1  0  0  0
 51 52  1  0  0  0
 51123  1  0  0  0
 51124  1  0  0  0
 52125  1  0  0  0
 52126  1  0  0  0
 53 54  1  0  0  0
 54 55  2  0  0  0
 54127  1  0  0  0
 55 57  1  0  0  0
 55128  1  0  0  0
 56 69  2  0  0  0
 57 58  2  0  0  0
 57129  1  0  0  0
 58130  1  0  0  0
 59 60  1  0  0  0
 59 61  1  0  0  0
 59 62  1  0  0  0
 60131  1  0  0  0
 60132  1  0  0  0
 60133  1  0  0  0
 61134  1  0  0  0
 61135  1  0  0  0
 61136  1  0  0  0
 62137  1  0  0  0
 62138  1  0  0  0
 62139  1  0  0  0
 63 65  1  0  0  0
 63140  1  0  0  0
 63141  1  0  0  0
 63142  1  0  0  0
 64143  1  0  0  0
 65144  1  0  0  0
 68 81  1  0  0  0
 71 72  2  0  0  0
 71 83  1  0  0  0
 71145  1  0  0  0
 72 81  1  0  0  0
 72 84  1  0  0  0
 73 79  1  0  0  0
 73 83  1  0  0  0
 73 84  2  0  0  0
 74 75  1  0  0  0
 74 76  1  0  0  0
 74146  1  0  0  0
 74147  1  0  0  0
 75 76  1  0  0  0
 75148  1  0  0  0
 75149  1  0  0  0
 76 80  1  0  0  0
 76150  1  0  0  0
 77151  1  0  0  0
 77152  1  0  0  0
 77153  1  0  0  0
 77 81  1  0  0  0
 78154  1  0  0  0
 78155  1  0  0  0
 78156  1  0  0  0
 78 82  1  0  0  0
 79 82  1  0  0  0
 79157  1  0  0  0
 79158  1  0  0  0
 80 83  1  0  0  0
 80159  1  0  0  0
 80160  1  0  0  0
 81161  1  0  0  0
 82 85  1  0  0  0
 82162  1  0  0  0
 84163  1  0  0  0
 85164  1  0  0  0
M  CHG  1  84   1
M  ISO  4   1 100  68 101  81 101  85 100
M  END
> <chiral flag>
0

> <version>
0

> <s_m_source_file>
/data/baiqing/PycharmProjects/Reinvent-master-3.2/result/LINK_invent/BTK/process_docking_weight1_custom_sum_contain_oxygen_bond_distance_aromatic_linkinvent_7_9_3/rearranged_h_0117.sdf

> <i_m_source_file_index>
14

> <r_mmod_Potential_Energy-OPLS-2005>
631.269592285156

> <r_mmod_Stretch_Energy-OPLS-2005>
327.416961669922

> <r_mmod_Bend_Energy-OPLS-2005>
298.540740966797

> <r_mmod_Torsional_Energy-OPLS-2005>
298.363922119141

> <r_mmod_Improper_Torsional_Energy-OPLS-2005>
5.53549289703369

> <r_mmod_Van_der_Waal_Energy-OPLS-2005>
109.929611206055

> <r_mmod_Electrostatic_Energy-OPLS-2005>
-226.395553588867

> <r_mmod_Solvation_Energy-OPLS-2005>
-425.827850341797

> <b_mmod_Minimization_Converged-OPLS-2005>
0

> <r_mmod_RMS_Derivative-OPLS-2005>
1.35647034645081

$$$$
14
                    3D
 Structure written by MMmdl.
176185  0  0  1  0            999 V2000
  -30.7098  -14.5908   20.5083 C   0  0  0  0  0  0
  -30.4226  -12.3658   19.4615 C   0  0  0  0  0  0
  -29.5016  -12.4788   18.2297 C   0  0  0  0  0  0
  -28.0233  -12.3427   18.6416 C   0  0  0  0  0  0
  -27.6523  -13.2287   19.8606 C   0  0  2  0  0  0
  -28.6998  -13.1301   20.9923 C   0  0  0  0  0  0
  -25.2581  -13.8232   20.5722 C   0  0  0  0  0  0
  -24.1841  -13.0478   20.9209 C   0  0  0  0  0  0
  -24.6436  -11.6946   20.8786 C   0  0  0  0  0  0
  -23.9112  -10.4303   21.0449 C   0  0  0  0  0  0
  -24.3653   -9.4221   21.9225 C   0  0  0  0  0  0
  -23.6327   -8.2243   22.0766 C   0  0  0  0  0  0
  -22.4324   -8.0300   21.3530 C   0  0  0  0  0  0
  -21.9967   -9.0287   20.4642 C   0  0  0  0  0  0
  -22.7296  -10.2173   20.3089 C   0  0  0  0  0  0
  -21.6866   -6.0787   22.5280 C   0  0  0  0  0  0
  -21.3998   -6.5676   23.8212 C   0  0  0  0  0  0
  -21.3637   -5.6810   24.9167 C   0  0  0  0  0  0
  -21.6060   -4.3071   24.7217 C   0  0  0  0  0  0
  -21.8821   -3.8188   23.4322 C   0  0  0  0  0  0
  -21.9185   -4.7014   22.3395 C   0  0  0  0  0  0
  -22.7854  -13.5245   21.1840 C   0  0  0  0  0  0
  -22.1664   -4.2201   21.0967 F   0  0  0  0  0  0
  -21.5635   -3.4551   25.7725 F   0  0  0  0  0  0
  -30.0157  -13.4179   20.4126 N   0  0  0  0  0  0
  -26.3012  -12.9407   20.3348 N   0  0  0  0  0  0
  -25.9380  -11.6565   20.5847 N   0  0  0  0  0  0
  -22.0502  -12.8186   22.0376 N   0  0  0  0  0  0
  -25.4354  -15.1933   20.4117 N   0  0  0  0  0  0
  -31.9130  -14.6334   20.2378 O   0  0  0  0  0  0
  -21.6655   -6.8944   21.4245 O   0  0  0  0  0  0
  -22.3520  -14.5562   20.6730 O   0  0  0  0  0  0
  -24.6271  -31.8633   23.2051 C   0  0  0  0  0  0
  -25.9123  -32.4794   23.8385 C   0  0  1  0  0  0
  -27.2124  -27.3326   20.0987 C   0  0  0  0  0  0
  -25.5971  -33.8628   24.2328 N   0  0  0  0  0  0
  -23.4188  -30.4924   21.5475 C   0  0  2  0  0  0
  -24.8612  -28.9562   20.1077 C   0  0  0  0  0  0
  -22.7484  -29.4619   22.4924 C   0  0  0  0  0  0
  -18.0298  -28.1393   22.8475 C   0  0  0  0  0  0
  -24.1464  -36.7320   23.2647 C   0  0  0  0  0  0
  -25.9627  -30.7997   21.3726 C   0  0  0  0  0  0
  -26.0323  -29.4258   20.7176 C   0  0  0  0  0  0
  -27.2056  -28.6197   20.7173 C   0  0  0  0  0  0
  -26.0303  -26.9419   19.4304 C   0  0  0  0  0  0
  -24.8573  -27.7145   19.4582 C   0  0  0  0  0  0
  -23.6346  -29.8444   20.1565 C   0  0  0  0  0  0
  -25.4099  -36.3136   24.0337 C   0  0  1  0  0  0
  -20.5892  -28.3638   23.1277 C   0  0  2  0  0  0
  -20.6801  -26.9365   22.5401 C   0  0  0  0  0  0
  -19.5757  -26.6371   21.5225 C   0  0  0  0  0  0
  -18.1919  -26.7947   22.1600 C   0  0  0  0  0  0
  -19.1569  -28.8847   23.2865 C   0  0  0  0  0  0
  -18.9506  -30.1463   23.8831 C   0  0  0  0  0  0
  -17.6496  -30.6595   24.0550 C   0  0  0  0  0  0
  -25.9059  -34.9472   23.5138 C   0  0  0  0  0  0
  -16.5388  -29.9064   23.6386 C   0  0  0  0  0  0
  -16.7288  -28.6524   23.0367 C   0  0  0  0  0  0
  -26.4486  -31.6617   25.0787 C   0  0  0  0  0  0
  -25.3697  -31.3743   26.1504 C   0  0  0  0  0  0
  -27.0327  -30.3041   24.6244 C   0  0  0  0  0  0
  -27.6026  -32.4351   25.7605 C   0  0  0  0  0  0
  -27.5548  -37.1830   24.8473 C   0  0  0  0  0  0
  -21.4197  -29.3010   22.3664 N   0  0  0  0  0  0
  -26.4274  -37.3817   23.9438 N   0  0  0  0  0  0
  -24.6897  -31.0672   22.0992 N   0  0  0  0  0  0
  -23.4223  -28.8143   23.2973 O   0  0  0  0  0  0
  -28.3050  -26.4529   20.1727 O   0  0  0  0  0  0
  -26.5578  -34.8896   22.4679 O   0  0  0  0  0  0
  -23.5436  -32.1460   23.7366 O   0  0  0  0  0  0
  -29.1178  -20.0024   19.4037 C   0  0  0  0  0  0
  -27.9764  -23.7607   22.2880 C   0  0  0  0  0  0
  -29.4223  -23.9071   21.8167 C   0  0  0  0  0  0
  -29.1189  -17.5669   18.9374 C   0  0  0  0  0  0
  -29.6243  -18.2423   21.2334 C   0  0  0  0  0  0
  -30.2416  -16.5390   19.1600 C   0  0  0  0  0  0
  -29.5992  -16.6573   21.4983 C   0  0  0  0  0  0
  -27.1058  -24.5299   21.2761 C   0  0  1  0  0  0
  -29.3367  -24.0797   20.2999 C   0  0  2  0  0  0
  -28.0517  -24.9862   20.1134 C   0  0  2  0  0  0
  -25.9346  -22.5514   19.9874 C   0  0  0  0  0  0
  -24.8342  -23.5038   22.0259 C   0  0  0  0  0  0
  -30.6678  -22.7688   18.5386 C   0  0  0  0  0  0
  -29.4132  -21.2871   20.2570 C   0  0  0  0  0  0
  -25.7821  -23.8132   20.8538 C   0  0  0  0  0  0
  -29.4403  -22.6980   19.4805 C   0  0  1  0  0  0
  -29.2918  -18.7065   19.8577 N   0  0  0  0  0  0
  -29.9834  -15.7517   20.3726 N   0  0  0  0  0  0
  -28.7088  -20.1986   18.2560 O   0  0  0  0  0  0
  -31.4625  -12.4586   19.1470 H   0  0  0  0  0  0
  -30.3365  -11.3812   19.9224 H   0  0  0  0  0  0
  -29.7577  -11.7124   17.4932 H   0  0  0  0  0  0
  -29.6557  -13.4387   17.7378 H   0  0  0  0  0  0
  -27.8408  -11.2898   18.8689 H   0  0  0  0  0  0
  -27.3752  -12.5856   17.8000 H   0  0  0  0  0  0
  -27.6623  -14.2566   19.4967 H   0  0  0  0  0  0
  -28.6954  -12.1381   21.4474 H   0  0  0  0  0  0
  -28.4622  -13.8387   21.7877 H   0  0  0  0  0  0
  -25.2808   -9.5698   22.4787 H   0  0  0  0  0  0
  -24.0056   -7.4642   22.7477 H   0  0  0  0  0  0
  -21.0906   -8.8826   19.8933 H   0  0  0  0  0  0
  -22.3783  -10.9730   19.6192 H   0  0  0  0  0  0
  -21.1985   -7.6180   23.9729 H   0  0  0  0  0  0
  -21.1460   -6.0539   25.9064 H   0  0  0  0  0  0
  -22.0629   -2.7657   23.2805 H   0  0  0  0  0  0
  -22.4099  -11.9796   22.4655 H   0  0  0  0  0  0
  -21.1137  -13.1202   22.2626 H   0  0  0  0  0  0
  -24.6912  -15.8703   20.5507 H   0  0  0  0  0  0
  -26.3034  -15.6170   20.1067 H   0  0  0  0  0  0
  -26.7193  -32.5450   23.1105 H   0  0  0  0  0  0
  -25.0249  -33.9795   25.0565 H   0  0  0  0  0  0
  -22.7176  -31.3158   21.4042 H   0  0  0  0  0  0
  -23.3714  -35.9670   23.3363 H   0  0  0  0  0  0
  -24.3546  -36.8929   22.2066 H   0  0  0  0  0  0
  -23.7210  -37.6533   23.6626 H   0  0  0  0  0  0
  -26.0896  -31.5581   20.5971 H   0  0  0  0  0  0
  -26.8479  -30.8497   21.9991 H   0  0  0  0  0  0
  -28.0947  -28.9704   21.2231 H   0  0  0  0  0  0
  -25.9839  -26.0238   18.8734 H   0  0  0  0  0  0
  -23.9688  -27.3498   18.9600 H   0  0  0  0  0  0
  -23.7732  -30.6346   19.4166 H   0  0  0  0  0  0
  -22.7526  -29.2924   19.8308 H   0  0  0  0  0  0
  -25.1255  -36.2007   25.0820 H   0  0  0  0  0  0
  -20.9999  -28.3181   24.1401 H   0  0  0  0  0  0
  -20.5756  -26.2226   23.3582 H   0  0  0  0  0  0
  -21.6645  -26.7451   22.1136 H   0  0  0  0  0  0
  -19.6906  -25.6295   21.1243 H   0  0  0  0  0  0
  -19.6703  -27.3196   20.6763 H   0  0  0  0  0  0
  -17.4225  -26.6761   21.3958 H   0  0  0  0  0  0
  -18.0203  -26.0106   22.8984 H   0  0  0  0  0  0
  -19.7979  -30.7309   24.2137 H   0  0  0  0  0  0
  -17.5064  -31.6254   24.5148 H   0  0  0  0  0  0
  -15.5365  -30.2944   23.7772 H   0  0  0  0  0  0
  -15.8691  -28.0819   22.7084 H   0  0  0  0  0  0
  -24.5902  -30.7047   25.7833 H   0  0  0  0  0  0
  -24.8820  -32.2887   26.4864 H   0  0  0  0  0  0
  -25.8026  -30.8981   27.0305 H   0  0  0  0  0  0
  -26.2883  -29.6771   24.1336 H   0  0  0  0  0  0
  -27.4083  -29.7335   25.4745 H   0  0  0  0  0  0
  -27.8684  -30.4341   23.9394 H   0  0  0  0  0  0
  -27.2641  -33.3671   26.2111 H   0  0  0  0  0  0
  -28.3882  -32.6902   25.0499 H   0  0  0  0  0  0
  -28.0591  -31.8510   26.5591 H   0  0  0  0  0  0
  -28.2589  -38.0100   24.7562 H   0  0  0  0  0  0
  -28.1013  -36.2667   24.6250 H   0  0  0  0  0  0
  -27.2291  -37.1466   25.8872 H   0  0  0  0  0  0
  -20.9341  -29.8789   21.6932 H   0  0  0  0  0  0
  -26.0156  -38.2883   24.1453 H   0  0  0  0  0  0
  -27.8727  -24.1790   23.2895 H   0  0  0  0  0  0
  -27.6947  -22.7125   22.3654 H   0  0  0  0  0  0
  -30.0711  -23.0904   22.1356 H   0  0  0  0  0  0
  -29.8380  -24.8217   22.2471 H   0  0  0  0  0  0
  -28.1410  -17.1059   19.0889 H   0  0  0  0  0  0
  -29.1537  -17.8608   17.8867 H   0  0  0  0  0  0
  -30.6314  -18.6045   21.4488 H   0  0  0  0  0  0
  -28.9743  -18.7414   21.9589 H   0  0  0  0  0  0
  -31.2138  -17.0312   19.2322 H   0  0  0  0  0  0
  -30.2980  -15.8771   18.2943 H   0  0  0  0  0  0
  -28.5813  -16.3675   21.7702 H   0  0  0  0  0  0
  -30.1936  -16.4343   22.3877 H   0  0  0  0  0  0
  -26.7865  -25.4281   21.8067 H   0  0  0  0  0  0
  -30.1870  -24.6937   20.0020 H   0  0  0  0  0  0
  -27.6278  -24.7593   19.1382 H   0  0  0  0  0  0
  -26.4900  -22.7464   19.0732 H   0  0  0  0  0  0
  -24.9574  -22.1819   19.6675 H   0  0  0  0  0  0
  -26.4234  -21.7416   20.5296 H   0  0  0  0  0  0
  -24.7868  -24.3175   22.7506 H   0  0  0  0  0  0
  -25.1195  -22.5968   22.5658 H   0  0  0  0  0  0
  -23.8185  -23.3447   21.6550 H   0  0  0  0  0  0
  -30.6473  -23.6745   17.9339 H   0  0  0  0  0  0
  -30.7116  -21.9274   17.8422 H   0  0  0  0  0  0
  -31.6029  -22.7710   19.0958 H   0  0  0  0  0  0
  -30.3568  -21.1346   20.7816 H   0  0  0  0  0  0
  -28.6461  -21.3068   21.0253 H   0  0  0  0  0  0
  -25.2347  -24.5265   20.2402 H   0  0  0  0  0  0
  -28.6019  -22.6964   18.7897 H   0  0  0  0  0  0
  1 25  1  0  0  0
  1 30  2  0  0  0
  1 88  1  0  0  0
  2  3  1  0  0  0
  2 25  1  0  0  0
  2 90  1  0  0  0
  2 91  1  0  0  0
  3  4  1  0  0  0
  3 92  1  0  0  0
  3 93  1  0  0  0
  4  5  1  0  0  0
  4 94  1  0  0  0
  4 95  1  0  0  0
  5  6  1  0  0  0
  5 26  1  0  0  0
  5 96  1  0  0  0
  6 25  1  0  0  0
  6 97  1  0  0  0
  6 98  1  0  0  0
  7  8  2  0  0  0
  7 26  1  0  0  0
  7 29  1  0  0  0
  8  9  1  0  0  0
  8 22  1  0  0  0
  9 10  1  0  0  0
  9 27  2  0  0  0
 10 11  2  0  0  0
 10 15  1  0  0  0
 11 12  1  0  0  0
 11 99  1  0  0  0
 12 13  2  0  0  0
 12100  1  0  0  0
 13 14  1  0  0  0
 13 31  1  0  0  0
 14 15  2  0  0  0
 14101  1  0  0  0
 15102  1  0  0  0
 16 17  2  0  0  0
 16 21  1  0  0  0
 16 31  1  0  0  0
 17 18  1  0  0  0
 17103  1  0  0  0
 18 19  2  0  0  0
 18104  1  0  0  0
 19 20  1  0  0  0
 19 24  1  0  0  0
 20 21  2  0  0  0
 20105  1  0  0  0
 21 23  1  0  0  0
 22 28  1  0  0  0
 22 32  2  0  0  0
 26 27  1  0  0  0
 28106  1  0  0  0
 28107  1  0  0  0
 29108  1  0  0  0
 29109  1  0  0  0
 33 34  1  0  0  0
 33 66  1  0  0  0
 33 70  2  0  0  0
 34 36  1  0  0  0
 34 59  1  0  0  0
 34110  1  0  0  0
 35 44  2  0  0  0
 35 45  1  0  0  0
 35 68  1  0  0  0
 36 56  1  0  0  0
 36111  1  0  0  0
 37 39  1  0  0  0
 37 47  1  0  0  0
 37 66  1  0  0  0
 37112  1  0  0  0
 38 43  2  0  0  0
 38 46  1  0  0  0
 38 47  1  0  0  0
 39 64  1  0  0  0
 39 67  2  0  0  0
 40 52  1  0  0  0
 40 53  2  0  0  0
 40 58  1  0  0  0
 41113  1  0  0  0
 41114  1  0  0  0
 41115  1  0  0  0
 41 48  1  0  0  0
 42 43  1  0  0  0
 42 66  1  0  0  0
 42116  1  0  0  0
 42117  1  0  0  0
 43 44  1  0  0  0
 44118  1  0  0  0
 45 46  2  0  0  0
 45119  1  0  0  0
 46120  1  0  0  0
 47121  1  0  0  0
 47122  1  0  0  0
 48 56  1  0  0  0
 48 65  1  0  0  0
 48123  1  0  0  0
 49 50  1  0  0  0
 49 53  1  0  0  0
 49 64  1  0  0  0
 49124  1  0  0  0
 50 51  1  0  0  0
 50125  1  0  0  0
 50126  1  0  0  0
 51 52  1  0  0  0
 51127  1  0  0  0
 51128  1  0  0  0
 52129  1  0  0  0
 52130  1  0  0  0
 53 54  1  0  0  0
 54 55  2  0  0  0
 54131  1  0  0  0
 55 57  1  0  0  0
 55132  1  0  0  0
 56 69  2  0  0  0
 57 58  2  0  0  0
 57133  1  0  0  0
 58134  1  0  0  0
 59 60  1  0  0  0
 59 61  1  0  0  0
 59 62  1  0  0  0
 60135  1  0  0  0
 60136  1  0  0  0
 60137  1  0  0  0
 61138  1  0  0  0
 61139  1  0  0  0
 61140  1  0  0  0
 62141  1  0  0  0
 62142  1  0  0  0
 62143  1  0  0  0
 63 65  1  0  0  0
 63144  1  0  0  0
 63145  1  0  0  0
 63146  1  0  0  0
 64147  1  0  0  0
 65148  1  0  0  0
 68 80  1  0  0  0
 71 84  1  0  0  0
 71 87  1  0  0  0
 71 89  2  0  0  0
 72 73  1  0  0  0
 72149  1  0  0  0
 72150  1  0  0  0
 72 78  1  0  0  0
 73151  1  0  0  0
 73152  1  0  0  0
 73 79  1  0  0  0
 74 76  1  0  0  0
 74 87  1  0  0  0
 74153  1  0  0  0
 74154  1  0  0  0
 75 77  1  0  0  0
 75 87  1  0  0  0
 75155  1  0  0  0
 75156  1  0  0  0
 76 88  1  0  0  0
 76157  1  0  0  0
 76158  1  0  0  0
 77 88  1  0  0  0
 77159  1  0  0  0
 77160  1  0  0  0
 78 80  1  0  0  0
 78 85  1  0  0  0
 78161  1  0  0  0
 79 80  1  0  0  0
 79 86  1  0  0  0
 79162  1  0  0  0
 80163  1  0  0  0
 81164  1  0  0  0
 81165  1  0  0  0
 81166  1  0  0  0
 81 85  1  0  0  0
 82 85  1  0  0  0
 82167  1  0  0  0
 82168  1  0  0  0
 82169  1  0  0  0
 83170  1  0  0  0
 83171  1  0  0  0
 83172  1  0  0  0
 83 86  1  0  0  0
 84 86  1  0  0  0
 84173  1  0  0  0
 84174  1  0  0  0
 85175  1  0  0  0
 86176  1  0  0  0
M  ISO  4   1 100  68 101  80 101  88 100
M  END
> <chiral flag>
0

> <version>
0

> <s_m_source_file>
/data/baiqing/PycharmProjects/Reinvent-master-3.2/result/LINK_invent/BTK/process_docking_weight1_custom_sum_contain_oxygen_bond_distance_aromatic_linkinvent_7_9_3/rearranged_h_0117.sdf

> <i_m_source_file_index>
15

> <r_mmod_Potential_Energy-OPLS-2005>
487.501831054688

> <r_mmod_Stretch_Energy-OPLS-2005>
92.3559494018555

> <r_mmod_Bend_Energy-OPLS-2005>
182.194412231445

> <r_mmod_Torsional_Energy-OPLS-2005>
477.141540527344

> <r_mmod_Improper_Torsional_Energy-OPLS-2005>
20.0224647521973

> <r_mmod_Van_der_Waal_Energy-OPLS-2005>
138.01643371582

> <r_mmod_Electrostatic_Energy-OPLS-2005>
-269.152679443359

> <r_mmod_Solvation_Energy-OPLS-2005>
-203.805572509766

> <b_mmod_Minimization_Converged-OPLS-2005>
0

> <r_mmod_RMS_Derivative-OPLS-2005>
6.62601947784424

$$$$
15
                    3D
 Structure written by MMmdl.
166175  0  0  1  0            999 V2000
  -30.6408  -14.6380   20.4711 C   0  0  0  0  0  0
  -30.4239  -12.3811   19.4673 C   0  0  0  0  0  0
  -29.5060  -12.4979   18.2313 C   0  0  0  0  0  0
  -28.0282  -12.3426   18.6399 C   0  0  0  0  0  0
  -27.6485  -13.2232   19.8605 C   0  0  2  0  0  0
  -28.6900  -13.1032   20.9956 C   0  0  0  0  0  0
  -25.2534  -13.8189   20.5694 C   0  0  0  0  0  0
  -24.1811  -13.0442   20.9196 C   0  0  0  0  0  0
  -24.6389  -11.6916   20.8742 C   0  0  0  0  0  0
  -23.9064  -10.4294   21.0405 C   0  0  0  0  0  0
  -24.3617   -9.4208   21.9180 C   0  0  0  0  0  0
  -23.6290   -8.2245   22.0750 C   0  0  0  0  0  0
  -22.4270   -8.0283   21.3543 C   0  0  0  0  0  0
  -21.9905   -9.0258   20.4646 C   0  0  0  0  0  0
  -22.7237  -10.2137   20.3055 C   0  0  0  0  0  0
  -21.6856   -6.0736   22.5278 C   0  0  0  0  0  0
  -21.4020   -6.5638   23.8214 C   0  0  0  0  0  0
  -21.3657   -5.6789   24.9172 C   0  0  0  0  0  0
  -21.6042   -4.3053   24.7222 C   0  0  0  0  0  0
  -21.8820   -3.8146   23.4344 C   0  0  0  0  0  0
  -21.9193   -4.6963   22.3401 C   0  0  0  0  0  0
  -22.7833  -13.5227   21.1856 C   0  0  0  0  0  0
  -22.1660   -4.2149   21.0978 F   0  0  0  0  0  0
  -21.5624   -3.4536   25.7736 F   0  0  0  0  0  0
  -30.0061  -13.4233   20.4281 N   0  0  0  0  0  0
  -26.2962  -12.9381   20.3312 N   0  0  0  0  0  0
  -25.9319  -11.6531   20.5764 N   0  0  0  0  0  0
  -22.0476  -12.8226   22.0416 N   0  0  0  0  0  0
  -25.4232  -15.1916   20.4118 N   0  0  0  0  0  0
  -31.8234  -14.7298   20.1253 O   0  0  0  0  0  0
  -21.6635   -6.8880   21.4241 O   0  0  0  0  0  0
  -22.3518  -14.5528   20.6696 O   0  0  0  0  0  0
  -24.6232  -31.8598   23.2023 C   0  0  0  0  0  0
  -25.9090  -32.4775   23.8347 C   0  0  1  0  0  0
  -27.2294  -27.3351   20.1089 C   0  0  0  0  0  0
  -25.5916  -33.8576   24.2276 N   0  0  0  0  0  0
  -23.4161  -30.4817   21.5439 C   0  0  2  0  0  0
  -24.8628  -28.9345   20.1083 C   0  0  0  0  0  0
  -22.7457  -29.4615   22.4936 C   0  0  0  0  0  0
  -18.0285  -28.1379   22.8485 C   0  0  0  0  0  0
  -24.1485  -36.7292   23.2637 C   0  0  0  0  0  0
  -25.9539  -30.7936   21.3708 C   0  0  0  0  0  0
  -26.0271  -29.4211   20.7143 C   0  0  0  0  0  0
  -27.2084  -28.6283   20.7115 C   0  0  0  0  0  0
  -26.0399  -26.8852   19.4938 C   0  0  0  0  0  0
  -24.8692  -27.6708   19.4932 C   0  0  0  0  0  0
  -23.6299  -29.8136   20.1586 C   0  0  0  0  0  0
  -25.4109  -36.3082   24.0328 C   0  0  1  0  0  0
  -20.5881  -28.3676   23.1291 C   0  0  2  0  0  0
  -20.6771  -26.9399   22.5417 C   0  0  0  0  0  0
  -19.5752  -26.6378   21.5212 C   0  0  0  0  0  0
  -18.1930  -26.7925   22.1619 C   0  0  0  0  0  0
  -19.1536  -28.8845   23.2886 C   0  0  0  0  0  0
  -18.9461  -30.1446   23.8905 C   0  0  0  0  0  0
  -17.6460  -30.6579   24.0566 C   0  0  0  0  0  0
  -25.9048  -34.9450   23.5105 C   0  0  0  0  0  0
  -16.5352  -29.9080   23.6326 C   0  0  0  0  0  0
  -16.7271  -28.6498   23.0347 C   0  0  0  0  0  0
  -26.4484  -31.6585   25.0713 C   0  0  0  0  0  0
  -25.3728  -31.3736   26.1453 C   0  0  0  0  0  0
  -27.0312  -30.3005   24.6160 C   0  0  0  0  0  0
  -27.6050  -32.4317   25.7479 C   0  0  0  0  0  0
  -27.5580  -37.1795   24.8458 C   0  0  0  0  0  0
  -21.4173  -29.3025   22.3680 N   0  0  0  0  0  0
  -26.4286  -37.3777   23.9413 N   0  0  0  0  0  0
  -24.6830  -31.0620   22.0962 N   0  0  0  0  0  0
  -23.4189  -28.8164   23.3018 O   0  0  0  0  0  0
  -28.3725  -26.5326   20.1845 O   0  0  0  0  0  0
  -26.5619  -34.8919   22.4674 O   0  0  0  0  0  0
  -23.5403  -32.1393   23.7366 O   0  0  0  0  0  0
  -29.3295  -18.2916   20.7688 C   0  0  0  0  0  0
  -29.7763  -19.3665   20.0031 C   0  0  0  0  0  0
  -30.0450  -17.1202   20.3004 C   0  0  0  0  0  0
  -29.1977  -21.7253   21.2172 C   0  0  0  0  0  0
  -28.4087  -21.3391   18.9198 C   0  0  0  0  0  0
  -29.2534  -23.2857   20.9609 C   0  0  0  0  0  0
  -28.4368  -22.8720   18.6214 C   0  0  0  0  0  0
  -29.4941  -20.9044   19.9325 C   0  0  2  0  0  0
  -28.3033  -23.8368   19.8442 C   0  0  2  0  0  0
  -31.6728  -18.5377   16.8232 C   0  0  0  0  0  0
  -32.8471  -19.8613   18.6462 C   0  0  0  0  0  0
  -28.5626  -25.3388   19.3524 C   0  0  0  0  0  0
  -31.4912  -19.4268   18.0687 C   0  0  0  0  0  0
  -30.8568  -17.4554   19.3169 N   0  0  0  0  0  0
  -30.6783  -18.7854   19.1062 N   0  0  0  0  0  0
  -29.8789  -15.7447   20.7658 N   0  0  0  0  0  0
  -31.4695  -12.4792   19.1707 H   0  0  0  0  0  0
  -30.3365  -11.3924   19.9208 H   0  0  0  0  0  0
  -29.7698  -11.7406   17.4917 H   0  0  0  0  0  0
  -29.6568  -13.4649   17.7482 H   0  0  0  0  0  0
  -27.8642  -11.2911   18.8783 H   0  0  0  0  0  0
  -27.3764  -12.5670   17.7946 H   0  0  0  0  0  0
  -27.6613  -14.2543   19.5075 H   0  0  0  0  0  0
  -28.6954  -12.0939   21.4095 H   0  0  0  0  0  0
  -28.4409  -13.7669   21.8250 H   0  0  0  0  0  0
  -25.2762   -9.5681   22.4755 H   0  0  0  0  0  0
  -23.9998   -7.4634   22.7469 H   0  0  0  0  0  0
  -21.0835   -8.8777   19.8954 H   0  0  0  0  0  0
  -22.3692  -10.9675   19.6164 H   0  0  0  0  0  0
  -21.2015   -7.6147   23.9715 H   0  0  0  0  0  0
  -21.1477   -6.0520   25.9075 H   0  0  0  0  0  0
  -22.0602   -2.7609   23.2845 H   0  0  0  0  0  0
  -22.4093  -11.9895   22.4820 H   0  0  0  0  0  0
  -21.1095  -13.1259   22.2615 H   0  0  0  0  0  0
  -24.6534  -15.8431   20.5186 H   0  0  0  0  0  0
  -26.2674  -15.6332   20.0704 H   0  0  0  0  0  0
  -26.7152  -32.5448   23.1091 H   0  0  0  0  0  0
  -25.0058  -33.9720   25.0418 H   0  0  0  0  0  0
  -22.7090  -31.3015   21.4007 H   0  0  0  0  0  0
  -23.3749  -35.9622   23.3294 H   0  0  0  0  0  0
  -24.3579  -36.8919   22.2053 H   0  0  0  0  0  0
  -23.7233  -37.6490   23.6663 H   0  0  0  0  0  0
  -26.0834  -31.5573   20.6027 H   0  0  0  0  0  0
  -26.8354  -30.8433   21.9984 H   0  0  0  0  0  0
  -28.1031  -28.9958   21.1946 H   0  0  0  0  0  0
  -25.9860  -25.9069   19.0396 H   0  0  0  0  0  0
  -23.9716  -27.2876   19.0275 H   0  0  0  0  0  0
  -23.7480  -30.5898   19.4017 H   0  0  0  0  0  0
  -22.7501  -29.2423   19.8570 H   0  0  0  0  0  0
  -25.1286  -36.1933   25.0820 H   0  0  0  0  0  0
  -20.9977  -28.3256   24.1411 H   0  0  0  0  0  0
  -20.5661  -26.2284   23.3615 H   0  0  0  0  0  0
  -21.6644  -26.7424   22.1219 H   0  0  0  0  0  0
  -19.6912  -25.6292   21.1233 H   0  0  0  0  0  0
  -19.6692  -27.3194   20.6748 H   0  0  0  0  0  0
  -17.4199  -26.6672   21.4023 H   0  0  0  0  0  0
  -18.0328  -26.0065   22.9013 H   0  0  0  0  0  0
  -19.7937  -30.7259   24.2280 H   0  0  0  0  0  0
  -17.5015  -31.6258   24.5167 H   0  0  0  0  0  0
  -15.5353  -30.2983   23.7647 H   0  0  0  0  0  0
  -15.8672  -28.0818   22.7058 H   0  0  0  0  0  0
  -24.5893  -30.7086   25.7800 H   0  0  0  0  0  0
  -24.8930  -32.2908   26.4877 H   0  0  0  0  0  0
  -25.8062  -30.8921   27.0228 H   0  0  0  0  0  0
  -26.2871  -29.6766   24.1191 H   0  0  0  0  0  0
  -27.4014  -29.7252   25.4657 H   0  0  0  0  0  0
  -27.8743  -30.4283   23.9366 H   0  0  0  0  0  0
  -27.2662  -33.3615   26.2060 H   0  0  0  0  0  0
  -28.3857  -32.6879   25.0304 H   0  0  0  0  0  0
  -28.0718  -31.8438   26.5393 H   0  0  0  0  0  0
  -28.2588  -38.0102   24.7523 H   0  0  0  0  0  0
  -28.1086  -36.2636   24.6254 H   0  0  0  0  0  0
  -27.2307  -37.1412   25.8863 H   0  0  0  0  0  0
  -20.9346  -29.8740   21.6886 H   0  0  0  0  0  0
  -26.0167  -38.2848   24.1434 H   0  0  0  0  0  0
  -28.5936  -18.3425   21.5582 H   0  0  0  0  0  0
  -28.2270  -21.4419   21.6259 H   0  0  0  0  0  0
  -29.9331  -21.4703   21.9810 H   0  0  0  0  0  0
  -28.5576  -20.8040   17.9811 H   0  0  0  0  0  0
  -27.4234  -21.0405   19.2805 H   0  0  0  0  0  0
  -30.2794  -23.5506   20.7018 H   0  0  0  0  0  0
  -29.0449  -23.8123   21.8931 H   0  0  0  0  0  0
  -27.6525  -23.1026   17.8994 H   0  0  0  0  0  0
  -29.3747  -23.0917   18.1086 H   0  0  0  0  0  0
  -30.4251  -21.3473   19.5819 H   0  0  0  0  0  0
  -27.2779  -23.7707   20.2102 H   0  0  0  0  0  0
  -32.1868  -19.0802   16.0297 H   0  0  0  0  0  0
  -30.7099  -18.2136   16.4274 H   0  0  0  0  0  0
  -32.2623  -17.6464   17.0421 H   0  0  0  0  0  0
  -33.4460  -20.3814   17.8986 H   0  0  0  0  0  0
  -33.4209  -19.0014   18.9940 H   0  0  0  0  0  0
  -32.7196  -20.5362   19.4929 H   0  0  0  0  0  0
  -28.0423  -25.4922   18.4067 H   0  0  0  0  0  0
  -29.6126  -25.3843   19.0620 H   0  0  0  0  0  0
  -30.9621  -20.3154   17.7258 H   0  0  0  0  0  0
  -28.9969  -15.5448   21.2095 H   0  0  0  0  0  0
  1 25  1  0  0  0
  1 30  2  0  0  0
  1 86  1  0  0  0
  2  3  1  0  0  0
  2 25  1  0  0  0
  2 87  1  0  0  0
  2 88  1  0  0  0
  3  4  1  0  0  0
  3 89  1  0  0  0
  3 90  1  0  0  0
  4  5  1  0  0  0
  4 91  1  0  0  0
  4 92  1  0  0  0
  5  6  1  0  0  0
  5 26  1  0  0  0
  5 93  1  0  0  0
  6 25  1  0  0  0
  6 94  1  0  0  0
  6 95  1  0  0  0
  7  8  2  0  0  0
  7 26  1  0  0  0
  7 29  1  0  0  0
  8  9  1  0  0  0
  8 22  1  0  0  0
  9 10  1  0  0  0
  9 27  2  0  0  0
 10 11  2  0  0  0
 10 15  1  0  0  0
 11 12  1  0  0  0
 11 96  1  0  0  0
 12 13  2  0  0  0
 12 97  1  0  0  0
 13 14  1  0  0  0
 13 31  1  0  0  0
 14 15  2  0  0  0
 14 98  1  0  0  0
 15 99  1  0  0  0
 16 17  2  0  0  0
 16 21  1  0  0  0
 16 31  1  0  0  0
 17 18  1  0  0  0
 17100  1  0  0  0
 18 19  2  0  0  0
 18101  1  0  0  0
 19 20  1  0  0  0
 19 24  1  0  0  0
 20 21  2  0  0  0
 20102  1  0  0  0
 21 23  1  0  0  0
 22 28  1  0  0  0
 22 32  2  0  0  0
 26 27  1  0  0  0
 28103  1  0  0  0
 28104  1  0  0  0
 29105  1  0  0  0
 29106  1  0  0  0
 33 34  1  0  0  0
 33 66  1  0  0  0
 33 70  2  0  0  0
 34 36  1  0  0  0
 34 59  1  0  0  0
 34107  1  0  0  0
 35 44  2  0  0  0
 35 45  1  0  0  0
 35 68  1  0  0  0
 36 56  1  0  0  0
 36108  1  0  0  0
 37 39  1  0  0  0
 37 47  1  0  0  0
 37 66  1  0  0  0
 37109  1  0  0  0
 38 43  2  0  0  0
 38 46  1  0  0  0
 38 47  1  0  0  0
 39 64  1  0  0  0
 39 67  2  0  0  0
 40 52  1  0  0  0
 40 53  2  0  0  0
 40 58  1  0  0  0
 41110  1  0  0  0
 41111  1  0  0  0
 41112  1  0  0  0
 41 48  1  0  0  0
 42 43  1  0  0  0
 42 66  1  0  0  0
 42113  1  0  0  0
 42114  1  0  0  0
 43 44  1  0  0  0
 44115  1  0  0  0
 45 46  2  0  0  0
 45116  1  0  0  0
 46117  1  0  0  0
 47118  1  0  0  0
 47119  1  0  0  0
 48 56  1  0  0  0
 48 65  1  0  0  0
 48120  1  0  0  0
 49 50  1  0  0  0
 49 53  1  0  0  0
 49 64  1  0  0  0
 49121  1  0  0  0
 50 51  1  0  0  0
 50122  1  0  0  0
 50123  1  0  0  0
 51 52  1  0  0  0
 51124  1  0  0  0
 51125  1  0  0  0
 52126  1  0  0  0
 52127  1  0  0  0
 53 54  1  0  0  0
 54 55  2  0  0  0
 54128  1  0  0  0
 55 57  1  0  0  0
 55129  1  0  0  0
 56 69  2  0  0  0
 57 58  2  0  0  0
 57130  1  0  0  0
 58131  1  0  0  0
 59 60  1  0  0  0
 59 61  1  0  0  0
 59 62  1  0  0  0
 60132  1  0  0  0
 60133  1  0  0  0
 60134  1  0  0  0
 61135  1  0  0  0
 61136  1  0  0  0
 61137  1  0  0  0
 62138  1  0  0  0
 62139  1  0  0  0
 62140  1  0  0  0
 63 65  1  0  0  0
 63141  1  0  0  0
 63142  1  0  0  0
 63143  1  0  0  0
 64144  1  0  0  0
 65145  1  0  0  0
 68 82  1  0  0  0
 71 72  2  0  0  0
 71 73  1  0  0  0
 71146  1  0  0  0
 72 85  1  0  0  0
 72 78  1  0  0  0
 73 84  2  0  0  0
 73 86  1  0  0  0
 74 76  1  0  0  0
 74 78  1  0  0  0
 74147  1  0  0  0
 74148  1  0  0  0
 75 77  1  0  0  0
 75 78  1  0  0  0
 75149  1  0  0  0
 75150  1  0  0  0
 76 79  1  0  0  0
 76151  1  0  0  0
 76152  1  0  0  0
 77 79  1  0  0  0
 77153  1  0  0  0
 77154  1  0  0  0
 78155  1  0  0  0
 79 82  1  0  0  0
 79156  1  0  0  0
 80157  1  0  0  0
 80158  1  0  0  0
 80159  1  0  0  0
 80 83  1  0  0  0
 81 83  1  0  0  0
 81160  1  0  0  0
 81161  1  0  0  0
 81162  1  0  0  0
 82163  1  0  0  0
 82164  1  0  0  0
 83 85  1  0  0  0
 83165  1  0  0  0
 84 85  1  0  0  0
 86166  1  0  0  0
M  ISO  4   1 100  68 101  82 101  86 100
M  END
> <chiral flag>
0

> <version>
0

> <s_m_source_file>
/data/baiqing/PycharmProjects/Reinvent-master-3.2/result/LINK_invent/BTK/process_docking_weight1_custom_sum_contain_oxygen_bond_distance_aromatic_linkinvent_7_9_3/rearranged_h_0117.sdf

> <i_m_source_file_index>
16

> <r_mmod_Potential_Energy-OPLS-2005>
65.5424118041992

> <r_mmod_Stretch_Energy-OPLS-2005>
74.8998794555664

> <r_mmod_Bend_Energy-OPLS-2005>
160.903717041016

> <r_mmod_Torsional_Energy-OPLS-2005>
255.167694091797

> <r_mmod_Improper_Torsional_Energy-OPLS-2005>
4.15959215164185

> <r_mmod_Van_der_Waal_Energy-OPLS-2005>
124.130432128906

> <r_mmod_Electrostatic_Energy-OPLS-2005>
-378.704864501953

> <r_mmod_Solvation_Energy-OPLS-2005>
-220.591339111328

> <b_mmod_Minimization_Converged-OPLS-2005>
0

> <r_mmod_RMS_Derivative-OPLS-2005>
0.630335807800293

$$$$
16
                    3D
 Structure written by MMmdl.
166174  0  0  1  0            999 V2000
  -30.5966  -14.7243   20.4529 C   0  0  0  0  0  0
  -30.4310  -12.4385   19.4713 C   0  0  0  0  0  0
  -29.5100  -12.4967   18.2329 C   0  0  0  0  0  0
  -28.0343  -12.3263   18.6456 C   0  0  0  0  0  0
  -27.6397  -13.2283   19.8474 C   0  0  2  0  0  0
  -28.6814  -13.1501   20.9840 C   0  0  0  0  0  0
  -25.2473  -13.8178   20.5600 C   0  0  0  0  0  0
  -24.1787  -13.0432   20.9174 C   0  0  0  0  0  0
  -24.6382  -11.6919   20.8745 C   0  0  0  0  0  0
  -23.9047  -10.4306   21.0411 C   0  0  0  0  0  0
  -24.3606   -9.4228   21.9188 C   0  0  0  0  0  0
  -23.6309   -8.2246   22.0750 C   0  0  0  0  0  0
  -22.4290   -8.0274   21.3536 C   0  0  0  0  0  0
  -21.9909   -9.0234   20.4629 C   0  0  0  0  0  0
  -22.7223  -10.2131   20.3057 C   0  0  0  0  0  0
  -21.6850   -6.0737   22.5283 C   0  0  0  0  0  0
  -21.4000   -6.5637   23.8216 C   0  0  0  0  0  0
  -21.3665   -5.6788   24.9178 C   0  0  0  0  0  0
  -21.6059   -4.3052   24.7222 C   0  0  0  0  0  0
  -21.8825   -3.8144   23.4338 C   0  0  0  0  0  0
  -21.9192   -4.6962   22.3405 C   0  0  0  0  0  0
  -22.7812  -13.5213   21.1877 C   0  0  0  0  0  0
  -22.1662   -4.2150   21.0979 F   0  0  0  0  0  0
  -21.5642   -3.4534   25.7734 F   0  0  0  0  0  0
  -29.9849  -13.4941   20.4078 N   0  0  0  0  0  0
  -26.2920  -12.9382   20.3257 N   0  0  0  0  0  0
  -25.9316  -11.6533   20.5760 N   0  0  0  0  0  0
  -22.0464  -12.8196   22.0431 N   0  0  0  0  0  0
  -25.4089  -15.1885   20.3931 N   0  0  0  0  0  0
  -31.7818  -14.8382   20.1300 O   0  0  0  0  0  0
  -21.6647   -6.8875   21.4243 O   0  0  0  0  0  0
  -22.3489  -14.5532   20.6754 O   0  0  0  0  0  0
  -24.6270  -31.8545   23.1944 C   0  0  0  0  0  0
  -25.9116  -32.4733   23.8277 C   0  0  1  0  0  0
  -27.2245  -27.2773   20.1253 C   0  0  0  0  0  0
  -25.5917  -33.8534   24.2209 N   0  0  0  0  0  0
  -23.4227  -30.4751   21.5362 C   0  0  2  0  0  0
  -24.8700  -28.9181   20.1074 C   0  0  0  0  0  0
  -22.7486  -29.4602   22.4903 C   0  0  0  0  0  0
  -18.0292  -28.1375   22.8501 C   0  0  0  0  0  0
  -24.1479  -36.7276   23.2637 C   0  0  0  0  0  0
  -25.9628  -30.7746   21.3668 C   0  0  0  0  0  0
  -26.0368  -29.3956   20.7152 C   0  0  0  0  0  0
  -27.2113  -28.5839   20.7184 C   0  0  0  0  0  0
  -26.0323  -26.8562   19.4975 C   0  0  0  0  0  0
  -24.8700  -27.6561   19.4904 C   0  0  0  0  0  0
  -23.6390  -29.8005   20.1547 C   0  0  0  0  0  0
  -25.4101  -36.3045   24.0324 C   0  0  1  0  0  0
  -20.5900  -28.3683   23.1285 C   0  0  2  0  0  0
  -20.6774  -26.9403   22.5420 C   0  0  0  0  0  0
  -19.5746  -26.6382   21.5223 C   0  0  0  0  0  0
  -18.1928  -26.7926   22.1637 C   0  0  0  0  0  0
  -19.1549  -28.8850   23.2881 C   0  0  0  0  0  0
  -18.9474  -30.1461   23.8880 C   0  0  0  0  0  0
  -17.6474  -30.6583   24.0581 C   0  0  0  0  0  0
  -25.9058  -34.9424   23.5076 C   0  0  0  0  0  0
  -16.5359  -29.9099   23.6332 C   0  0  0  0  0  0
  -16.7282  -28.6516   23.0351 C   0  0  0  0  0  0
  -26.4489  -31.6554   25.0654 C   0  0  0  0  0  0
  -25.3721  -31.3756   26.1385 C   0  0  0  0  0  0
  -27.0331  -30.2971   24.6115 C   0  0  0  0  0  0
  -27.6019  -32.4312   25.7445 C   0  0  0  0  0  0
  -27.5570  -37.1775   24.8460 C   0  0  0  0  0  0
  -21.4200  -29.3029   22.3673 N   0  0  0  0  0  0
  -26.4265  -37.3754   23.9434 N   0  0  0  0  0  0
  -24.6899  -31.0532   22.0897 N   0  0  0  0  0  0
  -23.4210  -28.8161   23.3002 O   0  0  0  0  0  0
  -28.3569  -26.4411   20.2126 O   0  0  0  0  0  0
  -26.5644  -34.8921   22.4655 O   0  0  0  0  0  0
  -23.5444  -32.1347   23.7276 O   0  0  0  0  0  0
  -27.5570  -19.5712   22.2500 C   0  0  0  0  0  0
  -27.8125  -20.8172   21.6492 C   0  0  0  0  0  0
  -28.2955  -18.4119   21.8915 C   0  0  0  0  0  0
  -28.7982  -20.9283   20.6582 C   0  0  0  0  0  0
  -29.2572  -18.5347   20.8483 C   0  0  0  0  0  0
  -30.6545  -22.5791   20.1585 C   0  0  0  0  0  0
  -27.7303  -17.5721   24.9707 C   0  0  0  0  0  0
  -26.8423  -15.5093   23.8176 C   0  0  0  0  0  0
  -30.1626  -17.3038   20.3760 C   0  0  0  0  0  0
  -28.3836  -23.7070   20.5110 C   0  0  0  0  0  0
  -28.4682  -25.0657   19.6312 C   0  0  0  0  0  0
  -29.1394  -22.3499   20.0118 C   0  0  2  0  0  0
  -27.1741  -16.9993   23.6579 C   0  0  0  0  0  0
  -29.4717  -19.7778   20.2590 N   0  0  0  0  0  0
  -28.1228  -17.1842   22.5654 N   0  0  0  0  0  0
  -29.8070  -15.8417   20.6349 N   0  0  0  0  0  0
  -31.4712  -12.5687   19.1695 H   0  0  0  0  0  0
  -30.3758  -11.4580   19.9475 H   0  0  0  0  0  0
  -29.7906  -11.7197   17.5194 H   0  0  0  0  0  0
  -29.6420  -13.4482   17.7162 H   0  0  0  0  0  0
  -27.8943  -11.2773   18.9104 H   0  0  0  0  0  0
  -27.3752  -12.5132   17.7966 H   0  0  0  0  0  0
  -27.6345  -14.2516   19.4703 H   0  0  0  0  0  0
  -28.7110  -12.1512   21.4210 H   0  0  0  0  0  0
  -28.4190  -13.8284   21.7969 H   0  0  0  0  0  0
  -25.2755   -9.5719   22.4742 H   0  0  0  0  0  0
  -24.0034   -7.4627   22.7452 H   0  0  0  0  0  0
  -21.0850   -8.8726   19.8924 H   0  0  0  0  0  0
  -22.3670  -10.9646   19.6152 H   0  0  0  0  0  0
  -21.1975   -7.6147   23.9709 H   0  0  0  0  0  0
  -21.1488   -6.0523   25.9081 H   0  0  0  0  0  0
  -22.0600   -2.7603   23.2829 H   0  0  0  0  0  0
  -22.4097  -11.9872   22.4837 H   0  0  0  0  0  0
  -21.1060  -13.1172   22.2611 H   0  0  0  0  0  0
  -24.6511  -15.8403   20.5606 H   0  0  0  0  0  0
  -26.2834  -15.6478   20.1741 H   0  0  0  0  0  0
  -26.7176  -32.5406   23.1021 H   0  0  0  0  0  0
  -25.0030  -33.9645   25.0334 H   0  0  0  0  0  0
  -22.7179  -31.2959   21.3856 H   0  0  0  0  0  0
  -23.3745  -35.9602   23.3263 H   0  0  0  0  0  0
  -24.3590  -36.8942   22.2063 H   0  0  0  0  0  0
  -23.7221  -37.6461   23.6687 H   0  0  0  0  0  0
  -26.0906  -31.5330   20.5926 H   0  0  0  0  0  0
  -26.8453  -30.8310   21.9927 H   0  0  0  0  0  0
  -28.1039  -28.9418   21.2135 H   0  0  0  0  0  0
  -25.9587  -25.8838   19.0346 H   0  0  0  0  0  0
  -23.9702  -27.2832   19.0204 H   0  0  0  0  0  0
  -23.7614  -30.5684   19.3901 H   0  0  0  0  0  0
  -22.7589  -29.2253   19.8588 H   0  0  0  0  0  0
  -25.1287  -36.1846   25.0814 H   0  0  0  0  0  0
  -20.9986  -28.3238   24.1408 H   0  0  0  0  0  0
  -20.5666  -26.2295   23.3624 H   0  0  0  0  0  0
  -21.6639  -26.7442   22.1196 H   0  0  0  0  0  0
  -19.6917  -25.6303   21.1224 H   0  0  0  0  0  0
  -19.6663  -27.3221   20.6779 H   0  0  0  0  0  0
  -17.4202  -26.6693   21.4027 H   0  0  0  0  0  0
  -18.0320  -26.0053   22.9021 H   0  0  0  0  0  0
  -19.7957  -30.7293   24.2190 H   0  0  0  0  0  0
  -17.5043  -31.6246   24.5220 H   0  0  0  0  0  0
  -15.5363  -30.3018   23.7640 H   0  0  0  0  0  0
  -15.8686  -28.0851   22.7039 H   0  0  0  0  0  0
  -24.5868  -30.7120   25.7744 H   0  0  0  0  0  0
  -24.8940  -32.2960   26.4744 H   0  0  0  0  0  0
  -25.8024  -30.8979   27.0193 H   0  0  0  0  0  0
  -26.2903  -29.6706   24.1145 H   0  0  0  0  0  0
  -27.4054  -29.7222   25.4604 H   0  0  0  0  0  0
  -27.8759  -30.4256   23.9319 H   0  0  0  0  0  0
  -27.2582  -33.3635   26.1940 H   0  0  0  0  0  0
  -28.3867  -32.6829   25.0302 H   0  0  0  0  0  0
  -28.0619  -31.8482   26.5429 H   0  0  0  0  0  0
  -28.2544  -38.0111   24.7555 H   0  0  0  0  0  0
  -28.1096  -36.2648   24.6200 H   0  0  0  0  0  0
  -27.2314  -37.1331   25.8864 H   0  0  0  0  0  0
  -20.9364  -29.8787   21.6922 H   0  0  0  0  0  0
  -26.0124  -38.2810   24.1478 H   0  0  0  0  0  0
  -26.8073  -19.5449   23.0262 H   0  0  0  0  0  0
  -27.2540  -21.6809   21.9772 H   0  0  0  0  0  0
  -31.2225  -21.7680   19.7020 H   0  0  0  0  0  0
  -30.9345  -22.6296   21.2112 H   0  0  0  0  0  0
  -30.9812  -23.5018   19.6833 H   0  0  0  0  0  0
  -27.0035  -17.4789   25.7784 H   0  0  0  0  0  0
  -27.9816  -18.6290   24.8860 H   0  0  0  0  0  0
  -28.6323  -17.0442   25.2834 H   0  0  0  0  0  0
  -26.0709  -15.3582   24.5741 H   0  0  0  0  0  0
  -27.7140  -14.9260   24.1167 H   0  0  0  0  0  0
  -26.4615  -15.0835   22.8909 H   0  0  0  0  0  0
  -31.1518  -17.4792   20.7985 H   0  0  0  0  0  0
  -30.2870  -17.4027   19.2972 H   0  0  0  0  0  0
  -27.3227  -23.4918   20.6294 H   0  0  0  0  0  0
  -28.7407  -23.9308   21.5161 H   0  0  0  0  0  0
  -27.8383  -24.9573   18.7503 H   0  0  0  0  0  0
  -29.4676  -25.0826   19.2007 H   0  0  0  0  0  0
  -28.9171  -22.2440   18.9487 H   0  0  0  0  0  0
  -26.2385  -17.5022   23.4081 H   0  0  0  0  0  0
  -28.9223  -16.5579   22.5521 H   0  0  0  0  0  0
  -28.8324  -15.6818   20.8460 H   0  0  0  0  0  0
  1 25  1  0  0  0
  1 30  2  0  0  0
  1 86  1  0  0  0
  2  3  1  0  0  0
  2 25  1  0  0  0
  2 87  1  0  0  0
  2 88  1  0  0  0
  3  4  1  0  0  0
  3 89  1  0  0  0
  3 90  1  0  0  0
  4  5  1  0  0  0
  4 91  1  0  0  0
  4 92  1  0  0  0
  5  6  1  0  0  0
  5 26  1  0  0  0
  5 93  1  0  0  0
  6 25  1  0  0  0
  6 94  1  0  0  0
  6 95  1  0  0  0
  7  8  2  0  0  0
  7 26  1  0  0  0
  7 29  1  0  0  0
  8  9  1  0  0  0
  8 22  1  0  0  0
  9 10  1  0  0  0
  9 27  2  0  0  0
 10 11  2  0  0  0
 10 15  1  0  0  0
 11 12  1  0  0  0
 11 96  1  0  0  0
 12 13  2  0  0  0
 12 97  1  0  0  0
 13 14  1  0  0  0
 13 31  1  0  0  0
 14 15  2  0  0  0
 14 98  1  0  0  0
 15 99  1  0  0  0
 16 17  2  0  0  0
 16 21  1  0  0  0
 16 31  1  0  0  0
 17 18  1  0  0  0
 17100  1  0  0  0
 18 19  2  0  0  0
 18101  1  0  0  0
 19 20  1  0  0  0
 19 24  1  0  0  0
 20 21  2  0  0  0
 20102  1  0  0  0
 21 23  1  0  0  0
 22 28  1  0  0  0
 22 32  2  0  0  0
 26 27  1  0  0  0
 28103  1  0  0  0
 28104  1  0  0  0
 29105  1  0  0  0
 29106  1  0  0  0
 33 34  1  0  0  0
 33 66  1  0  0  0
 33 70  2  0  0  0
 34 36  1  0  0  0
 34 59  1  0  0  0
 34107  1  0  0  0
 35 44  2  0  0  0
 35 45  1  0  0  0
 35 68  1  0  0  0
 36 56  1  0  0  0
 36108  1  0  0  0
 37 39  1  0  0  0
 37 47  1  0  0  0
 37 66  1  0  0  0
 37109  1  0  0  0
 38 43  2  0  0  0
 38 46  1  0  0  0
 38 47  1  0  0  0
 39 64  1  0  0  0
 39 67  2  0  0  0
 40 52  1  0  0  0
 40 53  2  0  0  0
 40 58  1  0  0  0
 41110  1  0  0  0
 41111  1  0  0  0
 41112  1  0  0  0
 41 48  1  0  0  0
 42 43  1  0  0  0
 42 66  1  0  0  0
 42113  1  0  0  0
 42114  1  0  0  0
 43 44  1  0  0  0
 44115  1  0  0  0
 45 46  2  0  0  0
 45116  1  0  0  0
 46117  1  0  0  0
 47118  1  0  0  0
 47119  1  0  0  0
 48 56  1  0  0  0
 48 65  1  0  0  0
 48120  1  0  0  0
 49 50  1  0  0  0
 49 53  1  0  0  0
 49 64  1  0  0  0
 49121  1  0  0  0
 50 51  1  0  0  0
 50122  1  0  0  0
 50123  1  0  0  0
 51 52  1  0  0  0
 51124  1  0  0  0
 51125  1  0  0  0
 52126  1  0  0  0
 52127  1  0  0  0
 53 54  1  0  0  0
 54 55  2  0  0  0
 54128  1  0  0  0
 55 57  1  0  0  0
 55129  1  0  0  0
 56 69  2  0  0  0
 57 58  2  0  0  0
 57130  1  0  0  0
 58131  1  0  0  0
 59 60  1  0  0  0
 59 61  1  0  0  0
 59 62  1  0  0  0
 60132  1  0  0  0
 60133  1  0  0  0
 60134  1  0  0  0
 61135  1  0  0  0
 61136  1  0  0  0
 61137  1  0  0  0
 62138  1  0  0  0
 62139  1  0  0  0
 62140  1  0  0  0
 63 65  1  0  0  0
 63141  1  0  0  0
 63142  1  0  0  0
 63143  1  0  0  0
 64144  1  0  0  0
 65145  1  0  0  0
 68 81  1  0  0  0
 71 72  2  0  0  0
 71 73  1  0  0  0
 71146  1  0  0  0
 72 74  1  0  0  0
 72147  1  0  0  0
 73 75  2  0  0  0
 73 85  1  0  0  0
 74 82  1  0  0  0
 74 84  2  0  0  0
 75 79  1  0  0  0
 75 84  1  0  0  0
 76148  1  0  0  0
 76149  1  0  0  0
 76150  1  0  0  0
 76 82  1  0  0  0
 77151  1  0  0  0
 77152  1  0  0  0
 77153  1  0  0  0
 77 83  1  0  0  0
 78 83  1  0  0  0
 78154  1  0  0  0
 78155  1  0  0  0
 78156  1  0  0  0
 79 86  1  0  0  0
 79157  1  0  0  0
 79158  1  0  0  0
 80 81  1  0  0  0
 80 82  1  0  0  0
 80159  1  0  0  0
 80160  1  0  0  0
 81161  1  0  0  0
 81162  1  0  0  0
 82163  1  0  0  0
 83 85  1  0  0  0
 83164  1  0  0  0
 85165  1  0  0  0
 86166  1  0  0  0
M  ISO  4   1 100  68 101  81 101  86 100
M  END
> <chiral flag>
0

> <version>
0

> <s_m_source_file>
/data/baiqing/PycharmProjects/Reinvent-master-3.2/result/LINK_invent/BTK/process_docking_weight1_custom_sum_contain_oxygen_bond_distance_aromatic_linkinvent_7_9_3/rearranged_h_0117.sdf

> <i_m_source_file_index>
17

> <r_mmod_Potential_Energy-OPLS-2005>
-104.870025634766

> <r_mmod_Stretch_Energy-OPLS-2005>
119.95142364502

> <r_mmod_Bend_Energy-OPLS-2005>
187.586059570312

> <r_mmod_Torsional_Energy-OPLS-2005>
190.683609008789

> <r_mmod_Improper_Torsional_Energy-OPLS-2005>
7.11067962646484

> <r_mmod_Van_der_Waal_Energy-OPLS-2005>
137.626190185547

> <r_mmod_Electrostatic_Energy-OPLS-2005>
-615.825988769531

> <r_mmod_Solvation_Energy-OPLS-2005>
-207.504623413086

> <b_mmod_Minimization_Converged-OPLS-2005>
0

> <r_mmod_RMS_Derivative-OPLS-2005>
2.4392683506012

$$$$
17
                    3D
 Structure written by MMmdl.
169177  0  0  1  0            999 V2000
  -30.6940  -14.5259   20.5631 C   0  0  0  0  0  0
  -30.4158  -12.3383   19.4220 C   0  0  0  0  0  0
  -29.4874  -12.4973   18.2009 C   0  0  0  0  0  0
  -28.0097  -12.3552   18.6203 C   0  0  0  0  0  0
  -27.6502  -13.2162   19.8602 C   0  0  2  0  0  0
  -28.6952  -13.0359   20.9803 C   0  0  0  0  0  0
  -25.2540  -13.8167   20.5683 C   0  0  0  0  0  0
  -24.1806  -13.0426   20.9172 C   0  0  0  0  0  0
  -24.6378  -11.6892   20.8723 C   0  0  0  0  0  0
  -23.9048  -10.4264   21.0384 C   0  0  0  0  0  0
  -24.3593   -9.4183   21.9172 C   0  0  0  0  0  0
  -23.6263   -8.2227   22.0754 C   0  0  0  0  0  0
  -22.4258   -8.0252   21.3540 C   0  0  0  0  0  0
  -21.9887   -9.0225   20.4653 C   0  0  0  0  0  0
  -22.7210  -10.2101   20.3041 C   0  0  0  0  0  0
  -21.6842   -6.0704   22.5262 C   0  0  0  0  0  0
  -21.4018   -6.5619   23.8189 C   0  0  0  0  0  0
  -21.3671   -5.6780   24.9161 C   0  0  0  0  0  0
  -21.6041   -4.3043   24.7224 C   0  0  0  0  0  0
  -21.8821   -3.8119   23.4344 C   0  0  0  0  0  0
  -21.9197   -4.6929   22.3399 C   0  0  0  0  0  0
  -22.7826  -13.5205   21.1835 C   0  0  0  0  0  0
  -22.1661   -4.2105   21.0974 F   0  0  0  0  0  0
  -21.5640   -3.4535   25.7745 F   0  0  0  0  0  0
  -30.0110  -13.3538   20.4117 N   0  0  0  0  0  0
  -26.2963  -12.9358   20.3315 N   0  0  0  0  0  0
  -25.9298  -11.6513   20.5745 N   0  0  0  0  0  0
  -22.0482  -12.8193   22.0405 N   0  0  0  0  0  0
  -25.4283  -15.1889   20.4113 N   0  0  0  0  0  0
  -31.8573  -14.6446   20.1754 O   0  0  0  0  0  0
  -21.6630   -6.8841   21.4219 O   0  0  0  0  0  0
  -22.3500  -14.5508   20.6666 O   0  0  0  0  0  0
  -24.6186  -31.8647   23.2081 C   0  0  0  0  0  0
  -25.9053  -32.4831   23.8382 C   0  0  1  0  0  0
  -27.2233  -27.3687   20.0983 C   0  0  0  0  0  0
  -25.5882  -33.8615   24.2306 N   0  0  0  0  0  0
  -23.4112  -30.4928   21.5481 C   0  0  2  0  0  0
  -24.8522  -28.9537   20.1125 C   0  0  0  0  0  0
  -22.7457  -29.4657   22.4951 C   0  0  0  0  0  0
  -18.0303  -28.1383   22.8519 C   0  0  0  0  0  0
  -24.1498  -36.7275   23.2646 C   0  0  0  0  0  0
  -25.9474  -30.8074   21.3740 C   0  0  0  0  0  0
  -26.0179  -29.4377   20.7185 C   0  0  0  0  0  0
  -27.2017  -28.6539   20.7095 C   0  0  0  0  0  0
  -26.0370  -26.9315   19.4581 C   0  0  0  0  0  0
  -24.8628  -27.7019   19.4795 C   0  0  0  0  0  0
  -23.6204  -29.8285   20.1624 C   0  0  0  0  0  0
  -25.4131  -36.3099   24.0335 C   0  0  1  0  0  0
  -20.5906  -28.3666   23.1307 C   0  0  2  0  0  0
  -20.6800  -26.9389   22.5415 C   0  0  0  0  0  0
  -19.5776  -26.6371   21.5224 C   0  0  0  0  0  0
  -18.1947  -26.7939   22.1622 C   0  0  0  0  0  0
  -19.1554  -28.8835   23.2921 C   0  0  0  0  0  0
  -18.9476  -30.1439   23.8930 C   0  0  0  0  0  0
  -17.6477  -30.6591   24.0562 C   0  0  0  0  0  0
  -25.9047  -34.9473   23.5128 C   0  0  0  0  0  0
  -16.5368  -29.9084   23.6334 C   0  0  0  0  0  0
  -16.7292  -28.6497   23.0369 C   0  0  0  0  0  0
  -26.4461  -31.6630   25.0729 C   0  0  0  0  0  0
  -25.3698  -31.3723   26.1450 C   0  0  0  0  0  0
  -27.0297  -30.3096   24.6105 C   0  0  0  0  0  0
  -27.6058  -32.4348   25.7482 C   0  0  0  0  0  0
  -27.5590  -37.1803   24.8476 C   0  0  0  0  0  0
  -21.4176  -29.3029   22.3700 N   0  0  0  0  0  0
  -26.4315  -37.3789   23.9424 N   0  0  0  0  0  0
  -24.6784  -31.0727   22.0999 N   0  0  0  0  0  0
  -23.4219  -28.8172   23.2967 O   0  0  0  0  0  0
  -28.3711  -26.5807   20.1453 O   0  0  0  0  0  0
  -26.5615  -34.8930   22.4693 O   0  0  0  0  0  0
  -23.5372  -32.1355   23.7498 O   0  0  0  0  0  0
  -30.6989  -19.9860   19.8938 C   0  0  0  0  0  0
  -29.9058  -20.3589   21.0121 C   0  0  0  0  0  0
  -31.0287  -18.6585   19.9770 C   0  0  0  0  0  0
  -29.6489  -19.1738   21.6805 C   0  0  0  0  0  0
  -28.8495  -18.9633   22.9356 C   0  0  0  0  0  0
  -30.7761  -22.2992   22.3042 C   0  0  0  0  0  0
  -33.4076  -17.8591   19.7566 C   0  0  0  0  0  0
  -32.1183  -18.4566   17.6978 C   0  0  0  0  0  0
  -29.2021  -24.2457   20.7348 C   0  0  0  0  0  0
  -28.2817  -25.1479   19.8515 C   0  0  0  0  0  0
  -30.6294  -16.7707   21.7040 C   0  0  0  0  0  0
  -29.5793  -21.8061   21.4651 C   0  0  1  0  0  0
  -32.0032  -17.8904   19.1235 C   0  0  0  0  0  0
  -30.3936  -18.1251   21.1022 N   0  0  0  0  0  0
  -30.0112  -15.5873   21.0594 N   0  0  0  0  0  0
  -29.2178  -22.7766   20.3741 N   0  3  0  0  0  0
  -31.4615  -12.4302   19.1207 H   0  0  0  0  0  0
  -30.3179  -11.3364   19.8427 H   0  0  0  0  0  0
  -29.7261  -11.7523   17.4398 H   0  0  0  0  0  0
  -29.6514  -13.4725   17.7385 H   0  0  0  0  0  0
  -27.8276  -11.3028   18.8412 H   0  0  0  0  0  0
  -27.3511  -12.6050   17.7869 H   0  0  0  0  0  0
  -27.6821  -14.2564   19.5339 H   0  0  0  0  0  0
  -28.6872  -12.0043   21.3362 H   0  0  0  0  0  0
  -28.4583  -13.6521   21.8481 H   0  0  0  0  0  0
  -25.2737   -9.5648   22.4752 H   0  0  0  0  0  0
  -23.9957   -7.4617   22.7480 H   0  0  0  0  0  0
  -21.0811   -8.8718   19.8965 H   0  0  0  0  0  0
  -22.3651  -10.9622   19.6141 H   0  0  0  0  0  0
  -21.2003   -7.6126   23.9676 H   0  0  0  0  0  0
  -21.1502   -6.0523   25.9067 H   0  0  0  0  0  0
  -22.0594   -2.7573   23.2859 H   0  0  0  0  0  0
  -22.4107  -11.9851   22.4780 H   0  0  0  0  0  0
  -21.1103  -13.1203   22.2640 H   0  0  0  0  0  0
  -24.6642  -15.8463   20.5210 H   0  0  0  0  0  0
  -26.2798  -15.6224   20.0760 H   0  0  0  0  0  0
  -26.7102  -32.5504   23.1108 H   0  0  0  0  0  0
  -25.0059  -33.9795   25.0475 H   0  0  0  0  0  0
  -22.7034  -31.3119   21.4099 H   0  0  0  0  0  0
  -23.3789  -35.9575   23.3318 H   0  0  0  0  0  0
  -24.3602  -36.8871   22.2056 H   0  0  0  0  0  0
  -23.7202  -37.6464   23.6659 H   0  0  0  0  0  0
  -26.0804  -31.5737   20.6099 H   0  0  0  0  0  0
  -26.8298  -30.8503   21.9983 H   0  0  0  0  0  0
  -28.0973  -29.0240   21.1912 H   0  0  0  0  0  0
  -25.9843  -25.9957   18.9217 H   0  0  0  0  0  0
  -23.9701  -27.3358   18.9902 H   0  0  0  0  0  0
  -23.7309  -30.6036   19.4038 H   0  0  0  0  0  0
  -22.7424  -29.2531   19.8619 H   0  0  0  0  0  0
  -25.1321  -36.1948   25.0824 H   0  0  0  0  0  0
  -21.0009  -28.3195   24.1420 H   0  0  0  0  0  0
  -20.5726  -26.2235   23.3586 H   0  0  0  0  0  0
  -21.6667  -26.7444   22.1174 H   0  0  0  0  0  0
  -19.6949  -25.6277   21.1245 H   0  0  0  0  0  0
  -19.6743  -27.3204   20.6769 H   0  0  0  0  0  0
  -17.4239  -26.6700   21.4002 H   0  0  0  0  0  0
  -18.0316  -26.0086   22.9003 H   0  0  0  0  0  0
  -19.7942  -30.7246   24.2300 H   0  0  0  0  0  0
  -17.5040  -31.6296   24.5124 H   0  0  0  0  0  0
  -15.5371  -30.3001   23.7678 H   0  0  0  0  0  0
  -15.8672  -28.0830   22.7069 H   0  0  0  0  0  0
  -24.5900  -30.7057   25.7765 H   0  0  0  0  0  0
  -24.8830  -32.2846   26.4909 H   0  0  0  0  0  0
  -25.7999  -30.8882   27.0217 H   0  0  0  0  0  0
  -26.2815  -29.6897   24.1156 H   0  0  0  0  0  0
  -27.4079  -29.7322   25.4555 H   0  0  0  0  0  0
  -27.8673  -30.4500   23.9269 H   0  0  0  0  0  0
  -27.2712  -33.3672   26.2051 H   0  0  0  0  0  0
  -28.3846  -32.6859   25.0268 H   0  0  0  0  0  0
  -28.0730  -31.8449   26.5369 H   0  0  0  0  0  0
  -28.2614  -38.0110   24.7546 H   0  0  0  0  0  0
  -28.1068  -36.2622   24.6272 H   0  0  0  0  0  0
  -27.2288  -37.1403   25.8879 H   0  0  0  0  0  0
  -20.9321  -29.8730   21.6912 H   0  0  0  0  0  0
  -26.0187  -38.2857   24.1449 H   0  0  0  0  0  0
  -31.0988  -20.6578   19.1468 H   0  0  0  0  0  0
  -28.0476  -19.6962   23.0220 H   0  0  0  0  0  0
  -29.4812  -19.0540   23.8195 H   0  0  0  0  0  0
  -28.3718  -17.9853   22.9503 H   0  0  0  0  0  0
  -31.0167  -21.5880   23.0937 H   0  0  0  0  0  0
  -30.5887  -23.2520   22.7954 H   0  0  0  0  0  0
  -31.6672  -22.4104   21.6888 H   0  0  0  0  0  0
  -33.4139  -17.3987   20.7426 H   0  0  0  0  0  0
  -33.8060  -18.8679   19.8724 H   0  0  0  0  0  0
  -34.1100  -17.2992   19.1374 H   0  0  0  0  0  0
  -31.1437  -18.5044   17.2095 H   0  0  0  0  0  0
  -32.7645  -17.8303   17.0820 H   0  0  0  0  0  0
  -32.5490  -19.4582   17.6991 H   0  0  0  0  0  0
  -28.8794  -24.3667   21.7685 H   0  0  0  0  0  0
  -30.2259  -24.6175   20.6867 H   0  0  0  0  0  0
  -27.2768  -24.7552   20.0073 H   0  0  0  0  0  0
  -28.5181  -25.0120   18.7952 H   0  0  0  0  0  0
  -30.2842  -16.7737   22.7382 H   0  0  0  0  0  0
  -31.7025  -16.6266   21.8019 H   0  0  0  0  0  0
  -28.7080  -21.7555   22.1187 H   0  0  0  0  0  0
  -31.6372  -16.8707   19.0185 H   0  0  0  0  0  0
  -29.0334  -15.4400   21.2551 H   0  0  0  0  0  0
  -29.8684  -22.6414   19.6143 H   0  0  0  0  0  0
  -28.3123  -22.5031   20.0270 H   0  0  0  0  0  0
  1 25  1  0  0  0
  1 30  2  0  0  0
  1 85  1  0  0  0
  2  3  1  0  0  0
  2 25  1  0  0  0
  2 87  1  0  0  0
  2 88  1  0  0  0
  3  4  1  0  0  0
  3 89  1  0  0  0
  3 90  1  0  0  0
  4  5  1  0  0  0
  4 91  1  0  0  0
  4 92  1  0  0  0
  5  6  1  0  0  0
  5 26  1  0  0  0
  5 93  1  0  0  0
  6 25  1  0  0  0
  6 94  1  0  0  0
  6 95  1  0  0  0
  7  8  2  0  0  0
  7 26  1  0  0  0
  7 29  1  0  0  0
  8  9  1  0  0  0
  8 22  1  0  0  0
  9 10  1  0  0  0
  9 27  2  0  0  0
 10 11  2  0  0  0
 10 15  1  0  0  0
 11 12  1  0  0  0
 11 96  1  0  0  0
 12 13  2  0  0  0
 12 97  1  0  0  0
 13 14  1  0  0  0
 13 31  1  0  0  0
 14 15  2  0  0  0
 14 98  1  0  0  0
 15 99  1  0  0  0
 16 17  2  0  0  0
 16 21  1  0  0  0
 16 31  1  0  0  0
 17 18  1  0  0  0
 17100  1  0  0  0
 18 19  2  0  0  0
 18101  1  0  0  0
 19 20  1  0  0  0
 19 24  1  0  0  0
 20 21  2  0  0  0
 20102  1  0  0  0
 21 23  1  0  0  0
 22 28  1  0  0  0
 22 32  2  0  0  0
 26 27  1  0  0  0
 28103  1  0  0  0
 28104  1  0  0  0
 29105  1  0  0  0
 29106  1  0  0  0
 33 34  1  0  0  0
 33 66  1  0  0  0
 33 70  2  0  0  0
 34 36  1  0  0  0
 34 59  1  0  0  0
 34107  1  0  0  0
 35 44  2  0  0  0
 35 45  1  0  0  0
 35 68  1  0  0  0
 36 56  1  0  0  0
 36108  1  0  0  0
 37 39  1  0  0  0
 37 47  1  0  0  0
 37 66  1  0  0  0
 37109  1  0  0  0
 38 43  2  0  0  0
 38 46  1  0  0  0
 38 47  1  0  0  0
 39 64  1  0  0  0
 39 67  2  0  0  0
 40 52  1  0  0  0
 40 53  2  0  0  0
 40 58  1  0  0  0
 41110  1  0  0  0
 41111  1  0  0  0
 41112  1  0  0  0
 41 48  1  0  0  0
 42 43  1  0  0  0
 42 66  1  0  0  0
 42113  1  0  0  0
 42114  1  0  0  0
 43 44  1  0  0  0
 44115  1  0  0  0
 45 46  2  0  0  0
 45116  1  0  0  0
 46117  1  0  0  0
 47118  1  0  0  0
 47119  1  0  0  0
 48 56  1  0  0  0
 48 65  1  0  0  0
 48120  1  0  0  0
 49 50  1  0  0  0
 49 53  1  0  0  0
 49 64  1  0  0  0
 49121  1  0  0  0
 50 51  1  0  0  0
 50122  1  0  0  0
 50123  1  0  0  0
 51 52  1  0  0  0
 51124  1  0  0  0
 51125  1  0  0  0
 52126  1  0  0  0
 52127  1  0  0  0
 53 54  1  0  0  0
 54 55  2  0  0  0
 54128  1  0  0  0
 55 57  1  0  0  0
 55129  1  0  0  0
 56 69  2  0  0  0
 57 58  2  0  0  0
 57130  1  0  0  0
 58131  1  0  0  0
 59 60  1  0  0  0
 59 61  1  0  0  0
 59 62  1  0  0  0
 60132  1  0  0  0
 60133  1  0  0  0
 60134  1  0  0  0
 61135  1  0  0  0
 61136  1  0  0  0
 61137  1  0  0  0
 62138  1  0  0  0
 62139  1  0  0  0
 62140  1  0  0  0
 63 65  1  0  0  0
 63141  1  0  0  0
 63142  1  0  0  0
 63143  1  0  0  0
 64144  1  0  0  0
 65145  1  0  0  0
 68 80  1  0  0  0
 71 72  1  0  0  0
 71 73  2  0  0  0
 71146  1  0  0  0
 72 74  2  0  0  0
 72 82  1  0  0  0
 73 83  1  0  0  0
 73 84  1  0  0  0
 74 75  1  0  0  0
 74 84  1  0  0  0
 75147  1  0  0  0
 75148  1  0  0  0
 75149  1  0  0  0
 76150  1  0  0  0
 76151  1  0  0  0
 76152  1  0  0  0
 76 82  1  0  0  0
 77153  1  0  0  0
 77154  1  0  0  0
 77155  1  0  0  0
 77 83  1  0  0  0
 78 83  1  0  0  0
 78156  1  0  0  0
 78157  1  0  0  0
 78158  1  0  0  0
 79 80  1  0  0  0
 79 86  1  0  0  0
 79159  1  0  0  0
 79160  1  0  0  0
 80161  1  0  0  0
 80162  1  0  0  0
 81 84  1  0  0  0
 81 85  1  0  0  0
 81163  1  0  0  0
 81164  1  0  0  0
 82 86  1  0  0  0
 82165  1  0  0  0
 83166  1  0  0  0
 85167  1  0  0  0
 86168  1  0  0  0
 86169  1  0  0  0
M  CHG  1  86   1
M  ISO  4   1 100  68 101  80 101  85 100
M  END
> <chiral flag>
0

> <version>
0

> <s_m_source_file>
/data/baiqing/PycharmProjects/Reinvent-master-3.2/result/LINK_invent/BTK/process_docking_weight1_custom_sum_contain_oxygen_bond_distance_aromatic_linkinvent_7_9_3/rearranged_h_0117.sdf

> <i_m_source_file_index>
18

> <r_mmod_Potential_Energy-OPLS-2005>
-252.184844970703

> <r_mmod_Stretch_Energy-OPLS-2005>
56.01953125

> <r_mmod_Bend_Energy-OPLS-2005>
128.490676879883

> <r_mmod_Torsional_Energy-OPLS-2005>
227.591567993164

> <r_mmod_Improper_Torsional_Energy-OPLS-2005>
6.05704545974731

> <r_mmod_Van_der_Waal_Energy-OPLS-2005>
128.560760498047

> <r_mmod_Electrostatic_Energy-OPLS-2005>
-397.868713378906

> <r_mmod_Solvation_Energy-OPLS-2005>
-427.35986328125

> <b_mmod_Minimization_Converged-OPLS-2005>
0

> <r_mmod_RMS_Derivative-OPLS-2005>
3.94010758399963

$$$$
18
                    3D
 Structure written by MMmdl.
162171  0  0  1  0            999 V2000
  -30.5634  -14.8657   20.4302 C   0  0  0  0  0  0
  -30.4328  -12.5331   19.4895 C   0  0  0  0  0  0
  -29.5160  -12.5203   18.2459 C   0  0  0  0  0  0
  -28.0457  -12.3230   18.6610 C   0  0  0  0  0  0
  -27.6314  -13.2419   19.8410 C   0  0  2  0  0  0
  -28.6729  -13.2343   20.9788 C   0  0  0  0  0  0
  -25.2470  -13.8211   20.5699 C   0  0  0  0  0  0
  -24.1783  -13.0443   20.9216 C   0  0  0  0  0  0
  -24.6388  -11.6923   20.8747 C   0  0  0  0  0  0
  -23.9074  -10.4297   21.0415 C   0  0  0  0  0  0
  -24.3628   -9.4210   21.9189 C   0  0  0  0  0  0
  -23.6302   -8.2244   22.0759 C   0  0  0  0  0  0
  -22.4281   -8.0286   21.3553 C   0  0  0  0  0  0
  -21.9918   -9.0257   20.4652 C   0  0  0  0  0  0
  -22.7247  -10.2136   20.3063 C   0  0  0  0  0  0
  -21.6856   -6.0736   22.5280 C   0  0  0  0  0  0
  -21.4012   -6.5639   23.8210 C   0  0  0  0  0  0
  -21.3663   -5.6792   24.9174 C   0  0  0  0  0  0
  -21.6049   -4.3054   24.7224 C   0  0  0  0  0  0
  -21.8818   -3.8146   23.4346 C   0  0  0  0  0  0
  -21.9194   -4.6963   22.3401 C   0  0  0  0  0  0
  -22.7806  -13.5219   21.1875 C   0  0  0  0  0  0
  -22.1664   -4.2149   21.0978 F   0  0  0  0  0  0
  -21.5635   -3.4538   25.7737 F   0  0  0  0  0  0
  -29.9564  -13.6207   20.3839 N   0  0  0  0  0  0
  -26.2885  -12.9429   20.3240 N   0  0  0  0  0  0
  -25.9312  -11.6564   20.5725 N   0  0  0  0  0  0
  -22.0456  -12.8210   22.0433 N   0  0  0  0  0  0
  -25.4141  -15.1941   20.4111 N   0  0  0  0  0  0
  -31.7656  -14.9373   20.1582 O   0  0  0  0  0  0
  -21.6648   -6.8878   21.4242 O   0  0  0  0  0  0
  -22.3490  -14.5524   20.6719 O   0  0  0  0  0  0
  -24.6372  -31.8474   23.1908 C   0  0  0  0  0  0
  -25.9169  -32.4710   23.8283 C   0  0  1  0  0  0
  -27.2236  -27.1856   20.1504 C   0  0  0  0  0  0
  -25.5942  -33.8518   24.2208 N   0  0  0  0  0  0
  -23.4384  -30.4645   21.5349 C   0  0  2  0  0  0
  -24.8868  -28.8891   20.1140 C   0  0  0  0  0  0
  -22.7530  -29.4555   22.4887 C   0  0  0  0  0  0
  -18.0296  -28.1389   22.8477 C   0  0  0  0  0  0
  -24.1488  -36.7263   23.2642 C   0  0  0  0  0  0
  -25.9875  -30.7344   21.3818 C   0  0  0  0  0  0
  -26.0580  -29.3469   20.7303 C   0  0  0  0  0  0
  -27.2252  -28.5085   20.7337 C   0  0  0  0  0  0
  -26.0297  -26.8059   19.5032 C   0  0  0  0  0  0
  -24.8808  -27.6299   19.4891 C   0  0  0  0  0  0
  -23.6616  -29.7874   20.1550 C   0  0  0  0  0  0
  -25.4120  -36.3046   24.0316 C   0  0  1  0  0  0
  -20.5900  -28.3705   23.1252 C   0  0  2  0  0  0
  -20.6781  -26.9415   22.5407 C   0  0  0  0  0  0
  -19.5758  -26.6376   21.5211 C   0  0  0  0  0  0
  -18.1938  -26.7927   22.1620 C   0  0  0  0  0  0
  -19.1550  -28.8866   23.2856 C   0  0  0  0  0  0
  -18.9472  -30.1465   23.8874 C   0  0  0  0  0  0
  -17.6470  -30.6586   24.0558 C   0  0  0  0  0  0
  -25.9065  -34.9417   23.5069 C   0  0  0  0  0  0
  -16.5361  -29.9079   23.6337 C   0  0  0  0  0  0
  -16.7283  -28.6500   23.0354 C   0  0  0  0  0  0
  -26.4516  -31.6573   25.0709 C   0  0  0  0  0  0
  -25.3717  -31.3742   26.1417 C   0  0  0  0  0  0
  -27.0388  -30.2981   24.6259 C   0  0  0  0  0  0
  -27.6052  -32.4339   25.7489 C   0  0  0  0  0  0
  -27.5576  -37.1789   24.8466 C   0  0  0  0  0  0
  -21.4230  -29.3037   22.3632 N   0  0  0  0  0  0
  -26.4289  -37.3753   23.9405 N   0  0  0  0  0  0
  -24.7072  -31.0366   22.0918 N   0  0  0  0  0  0
  -23.4195  -28.8106   23.3025 O   0  0  0  0  0  0
  -28.3399  -26.2968   20.1719 O   0  0  0  0  0  0
  -26.5645  -34.8909   22.4644 O   0  0  0  0  0  0
  -23.5509  -32.1334   23.7163 O   0  0  0  0  0  0
  -28.1610  -23.9294   19.1629 C   0  0  0  0  0  0
  -29.1741  -22.9238   21.4516 C   0  0  0  0  0  0
  -29.1304  -21.9320   20.4028 C   0  0  0  0  0  0
  -28.5195  -22.5221   19.2345 C   0  0  0  0  0  0
  -28.3461  -24.8419   20.2450 C   0  0  0  0  0  0
  -32.0623  -21.4442   21.2725 C   0  0  0  0  0  0
  -30.9148  -20.5245   21.6923 C   0  0  0  0  0  0
  -32.1288  -21.2673   19.7528 C   0  0  0  0  0  0
  -29.9503  -20.4730   20.4768 C   0  0  1  0  0  0
  -28.3040  -21.6918   17.9818 C   0  0  0  0  0  0
  -29.2921  -18.9231   20.4785 C   0  0  0  0  0  0
  -30.2582  -17.5378   20.5155 C   0  0  0  0  0  0
  -28.8431  -24.2687   21.3784 N   0  0  0  0  0  0
  -29.7963  -16.0429   20.5692 N   0  0  0  0  0  0
  -30.9160  -20.5209   19.3539 N   0  3  0  0  0  0
  -31.4717  -12.6759   19.1870 H   0  0  0  0  0  0
  -30.4010  -11.5715   20.0042 H   0  0  0  0  0  0
  -29.8223  -11.7316   17.5572 H   0  0  0  0  0  0
  -29.6215  -13.4600   17.7015 H   0  0  0  0  0  0
  -27.9257  -11.2783   18.9494 H   0  0  0  0  0  0
  -27.3862  -12.4807   17.8069 H   0  0  0  0  0  0
  -27.6055  -14.2519   19.4319 H   0  0  0  0  0  0
  -28.7380  -12.2502   21.4448 H   0  0  0  0  0  0
  -28.3875  -13.9321   21.7675 H   0  0  0  0  0  0
  -25.2773   -9.5691   22.4763 H   0  0  0  0  0  0
  -24.0019   -7.4635   22.7475 H   0  0  0  0  0  0
  -21.0854   -8.8776   19.8951 H   0  0  0  0  0  0
  -22.3710  -10.9680   19.6174 H   0  0  0  0  0  0
  -21.1996   -7.6146   23.9715 H   0  0  0  0  0  0
  -21.1492   -6.0521   25.9078 H   0  0  0  0  0  0
  -22.0594   -2.7609   23.2844 H   0  0  0  0  0  0
  -22.4075  -11.9875   22.4828 H   0  0  0  0  0  0
  -21.1070  -13.1230   22.2627 H   0  0  0  0  0  0
  -24.6424  -15.8436   20.5181 H   0  0  0  0  0  0
  -26.2536  -15.6350   20.0585 H   0  0  0  0  0  0
  -26.7228  -32.5326   23.1013 H   0  0  0  0  0  0
  -25.0093  -33.9643   25.0358 H   0  0  0  0  0  0
  -22.7390  -31.2884   21.3795 H   0  0  0  0  0  0
  -23.3756  -35.9590   23.3302 H   0  0  0  0  0  0
  -24.3572  -36.8901   22.2058 H   0  0  0  0  0  0
  -23.7240  -37.6458   23.6680 H   0  0  0  0  0  0
  -26.1360  -31.4877   20.6068 H   0  0  0  0  0  0
  -26.8615  -30.7866   22.0196 H   0  0  0  0  0  0
  -28.1255  -28.8574   21.2196 H   0  0  0  0  0  0
  -25.9707  -25.8419   19.0193 H   0  0  0  0  0  0
  -23.9848  -27.2746   18.9985 H   0  0  0  0  0  0
  -23.7949  -30.5586   19.3950 H   0  0  0  0  0  0
  -22.7780  -29.2245   19.8490 H   0  0  0  0  0  0
  -25.1309  -36.1882   25.0808 H   0  0  0  0  0  0
  -20.9992  -28.3294   24.1374 H   0  0  0  0  0  0
  -20.5674  -26.2318   23.3621 H   0  0  0  0  0  0
  -21.6648  -26.7425   22.1207 H   0  0  0  0  0  0
  -19.6919  -25.6282   21.1256 H   0  0  0  0  0  0
  -19.6701  -27.3174   20.6732 H   0  0  0  0  0  0
  -17.4209  -26.6675   21.4022 H   0  0  0  0  0  0
  -18.0335  -26.0069   22.9018 H   0  0  0  0  0  0
  -19.7950  -30.7286   24.2232 H   0  0  0  0  0  0
  -17.5025  -31.6264   24.5163 H   0  0  0  0  0  0
  -15.5361  -30.2974   23.7672 H   0  0  0  0  0  0
  -15.8683  -28.0812   22.7080 H   0  0  0  0  0  0
  -24.5893  -30.7093   25.7744 H   0  0  0  0  0  0
  -24.8903  -32.2914   26.4818 H   0  0  0  0  0  0
  -25.8012  -30.8934   27.0214 H   0  0  0  0  0  0
  -26.3001  -29.6698   24.1269 H   0  0  0  0  0  0
  -27.4033  -29.7283   25.4818 H   0  0  0  0  0  0
  -27.8890  -30.4247   23.9551 H   0  0  0  0  0  0
  -27.2650  -33.3656   26.2024 H   0  0  0  0  0  0
  -28.3882  -32.6879   25.0330 H   0  0  0  0  0  0
  -28.0699  -31.8493   26.5442 H   0  0  0  0  0  0
  -28.2591  -38.0089   24.7510 H   0  0  0  0  0  0
  -28.1075  -36.2618   24.6300 H   0  0  0  0  0  0
  -27.2287  -37.1444   25.8868 H   0  0  0  0  0  0
  -20.9438  -29.8750   21.6815 H   0  0  0  0  0  0
  -26.0161  -38.2823   24.1410 H   0  0  0  0  0  0
  -27.8004  -24.3320   18.2257 H   0  0  0  0  0  0
  -29.5988  -22.6813   22.4116 H   0  0  0  0  0  0
  -33.0016  -21.1822   21.7617 H   0  0  0  0  0  0
  -31.8512  -22.4844   21.5194 H   0  0  0  0  0  0
  -30.4449  -20.7872   22.6382 H   0  0  0  0  0  0
  -31.3723  -19.5592   21.8806 H   0  0  0  0  0  0
  -33.0178  -20.7112   19.4532 H   0  0  0  0  0  0
  -32.1595  -22.2363   19.2520 H   0  0  0  0  0  0
  -28.0585  -20.6590   18.2246 H   0  0  0  0  0  0
  -29.1906  -21.7085   17.3477 H   0  0  0  0  0  0
  -27.4732  -22.0883   17.3974 H   0  0  0  0  0  0
  -28.6438  -18.8371   19.6071 H   0  0  0  0  0  0
  -28.6139  -18.8698   21.3306 H   0  0  0  0  0  0
  -30.9033  -17.6027   21.3887 H   0  0  0  0  0  0
  -30.9374  -17.5990   19.6644 H   0  0  0  0  0  0
  -28.8136  -15.8893   20.7440 H   0  0  0  0  0  0
  -31.2047  -19.5822   19.1316 H   0  0  0  0  0  0
  -30.5086  -20.9168   18.5230 H   0  0  0  0  0  0
  1 25  1  0  0  0
  1 30  2  0  0  0
  1 84  1  0  0  0
  2  3  1  0  0  0
  2 25  1  0  0  0
  2 86  1  0  0  0
  2 87  1  0  0  0
  3  4  1  0  0  0
  3 88  1  0  0  0
  3 89  1  0  0  0
  4  5  1  0  0  0
  4 90  1  0  0  0
  4 91  1  0  0  0
  5  6  1  0  0  0
  5 26  1  0  0  0
  5 92  1  0  0  0
  6 25  1  0  0  0
  6 93  1  0  0  0
  6 94  1  0  0  0
  7  8  2  0  0  0
  7 26  1  0  0  0
  7 29  1  0  0  0
  8  9  1  0  0  0
  8 22  1  0  0  0
  9 10  1  0  0  0
  9 27  2  0  0  0
 10 11  2  0  0  0
 10 15  1  0  0  0
 11 12  1  0  0  0
 11 95  1  0  0  0
 12 13  2  0  0  0
 12 96  1  0  0  0
 13 14  1  0  0  0
 13 31  1  0  0  0
 14 15  2  0  0  0
 14 97  1  0  0  0
 15 98  1  0  0  0
 16 17  2  0  0  0
 16 21  1  0  0  0
 16 31  1  0  0  0
 17 18  1  0  0  0
 17 99  1  0  0  0
 18 19  2  0  0  0
 18100  1  0  0  0
 19 20  1  0  0  0
 19 24  1  0  0  0
 20 21  2  0  0  0
 20101  1  0  0  0
 21 23  1  0  0  0
 22 28  1  0  0  0
 22 32  2  0  0  0
 26 27  1  0  0  0
 28102  1  0  0  0
 28103  1  0  0  0
 29104  1  0  0  0
 29105  1  0  0  0
 33 34  1  0  0  0
 33 66  1  0  0  0
 33 70  2  0  0  0
 34 36  1  0  0  0
 34 59  1  0  0  0
 34106  1  0  0  0
 35 44  2  0  0  0
 35 45  1  0  0  0
 35 68  1  0  0  0
 36 56  1  0  0  0
 36107  1  0  0  0
 37 39  1  0  0  0
 37 47  1  0  0  0
 37 66  1  0  0  0
 37108  1  0  0  0
 38 43  2  0  0  0
 38 46  1  0  0  0
 38 47  1  0  0  0
 39 64  1  0  0  0
 39 67  2  0  0  0
 40 52  1  0  0  0
 40 53  2  0  0  0
 40 58  1  0  0  0
 41109  1  0  0  0
 41110  1  0  0  0
 41111  1  0  0  0
 41 48  1  0  0  0
 42 43  1  0  0  0
 42 66  1  0  0  0
 42112  1  0  0  0
 42113  1  0  0  0
 43 44  1  0  0  0
 44114  1  0  0  0
 45 46  2  0  0  0
 45115  1  0  0  0
 46116  1  0  0  0
 47117  1  0  0  0
 47118  1  0  0  0
 48 56  1  0  0  0
 48 65  1  0  0  0
 48119  1  0  0  0
 49 50  1  0  0  0
 49 53  1  0  0  0
 49 64  1  0  0  0
 49120  1  0  0  0
 50 51  1  0  0  0
 50121  1  0  0  0
 50122  1  0  0  0
 51 52  1  0  0  0
 51123  1  0  0  0
 51124  1  0  0  0
 52125  1  0  0  0
 52126  1  0  0  0
 53 54  1  0  0  0
 54 55  2  0  0  0
 54127  1  0  0  0
 55 57  1  0  0  0
 55128  1  0  0  0
 56 69  2  0  0  0
 57 58  2  0  0  0
 57129  1  0  0  0
 58130  1  0  0  0
 59 60  1  0  0  0
 59 61  1  0  0  0
 59 62  1  0  0  0
 60131  1  0  0  0
 60132  1  0  0  0
 60133  1  0  0  0
 61134  1  0  0  0
 61135  1  0  0  0
 61136  1  0  0  0
 62137  1  0  0  0
 62138  1  0  0  0
 62139  1  0  0  0
 63 65  1  0  0  0
 63140  1  0  0  0
 63141  1  0  0  0
 63142  1  0  0  0
 64143  1  0  0  0
 65144  1  0  0  0
 68 75  1  0  0  0
 71 74  2  0  0  0
 71 75  1  0  0  0
 71145  1  0  0  0
 72 73  2  0  0  0
 72 83  1  0  0  0
 72146  1  0  0  0
 73 74  1  0  0  0
 73 79  1  0  0  0
 74 80  1  0  0  0
 75 83  2  0  0  0
 76 77  1  0  0  0
 76 78  1  0  0  0
 76147  1  0  0  0
 76148  1  0  0  0
 77 79  1  0  0  0
 77149  1  0  0  0
 77150  1  0  0  0
 78 85  1  0  0  0
 78151  1  0  0  0
 78152  1  0  0  0
 79 81  1  0  0  0
 79 85  1  0  0  0
 80153  1  0  0  0
 80154  1  0  0  0
 80155  1  0  0  0
 81 82  1  0  0  0
 81156  1  0  0  0
 81157  1  0  0  0
 82 84  1  0  0  0
 82158  1  0  0  0
 82159  1  0  0  0
 84160  1  0  0  0
 85161  1  0  0  0
 85162  1  0  0  0
M  CHG  1  85   1
M  ISO  4   1 100  68 101  75 101  84 100
M  END
> <chiral flag>
0

> <version>
0

> <s_m_source_file>
/data/baiqing/PycharmProjects/Reinvent-master-3.2/result/LINK_invent/BTK/process_docking_weight1_custom_sum_contain_oxygen_bond_distance_aromatic_linkinvent_7_9_3/rearranged_h_0117.sdf

> <i_m_source_file_index>
19

> <r_mmod_Potential_Energy-OPLS-2005>
244.93830871582

> <r_mmod_Stretch_Energy-OPLS-2005>
212.294097900391

> <r_mmod_Bend_Energy-OPLS-2005>
260.104522705078

> <r_mmod_Torsional_Energy-OPLS-2005>
302.454162597656

> <r_mmod_Improper_Torsional_Energy-OPLS-2005>
8.25307464599609

> <r_mmod_Van_der_Waal_Energy-OPLS-2005>
137.787872314453

> <r_mmod_Electrostatic_Energy-OPLS-2005>
-333.660736083984

> <r_mmod_Solvation_Energy-OPLS-2005>
-480.047515869141

> <b_mmod_Minimization_Converged-OPLS-2005>
0

> <r_mmod_RMS_Derivative-OPLS-2005>
0.864386916160583

$$$$
19
                    3D
 Structure written by MMmdl.
165174  0  0  1  0            999 V2000
  -30.7116  -14.5288   20.6019 C   0  0  0  0  0  0
  -30.4247  -12.3693   19.4042 C   0  0  0  0  0  0
  -29.4833  -12.5365   18.1919 C   0  0  0  0  0  0
  -28.0124  -12.3709   18.6113 C   0  0  0  0  0  0
  -27.6569  -13.2107   19.8657 C   0  0  2  0  0  0
  -28.7034  -12.9960   20.9804 C   0  0  0  0  0  0
  -25.2581  -13.8122   20.5725 C   0  0  0  0  0  0
  -24.1861  -13.0405   20.9240 C   0  0  0  0  0  0
  -24.6411  -11.6871   20.8750 C   0  0  0  0  0  0
  -23.9079  -10.4287   21.0433 C   0  0  0  0  0  0
  -24.3628   -9.4202   21.9197 C   0  0  0  0  0  0
  -23.6302   -8.2238   22.0754 C   0  0  0  0  0  0
  -22.4287   -8.0278   21.3548 C   0  0  0  0  0  0
  -21.9932   -9.0247   20.4643 C   0  0  0  0  0  0
  -22.7269  -10.2122   20.3066 C   0  0  0  0  0  0
  -21.6857   -6.0739   22.5276 C   0  0  0  0  0  0
  -21.4006   -6.5636   23.8200 C   0  0  0  0  0  0
  -21.3664   -5.6792   24.9167 C   0  0  0  0  0  0
  -21.6060   -4.3051   24.7225 C   0  0  0  0  0  0
  -21.8833   -3.8148   23.4339 C   0  0  0  0  0  0
  -21.9201   -4.6973   22.3402 C   0  0  0  0  0  0
  -22.7888  -13.5195   21.1916 C   0  0  0  0  0  0
  -22.1668   -4.2138   21.0980 F   0  0  0  0  0  0
  -21.5647   -3.4546   25.7742 F   0  0  0  0  0  0
  -30.0316  -13.3498   20.4374 N   0  0  0  0  0  0
  -26.3001  -12.9307   20.3292 N   0  0  0  0  0  0
  -25.9330  -11.6455   20.5721 N   0  0  0  0  0  0
  -22.0531  -12.8156   22.0432 N   0  0  0  0  0  0
  -25.4315  -15.1836   20.4141 N   0  0  0  0  0  0
  -31.7921  -14.7162   20.0376 O   0  0  0  0  0  0
  -21.6652   -6.8884   21.4239 O   0  0  0  0  0  0
  -22.3600  -14.5536   20.6784 O   0  0  0  0  0  0
  -24.6340  -31.8625   23.2010 C   0  0  0  0  0  0
  -25.9131  -32.4851   23.8383 C   0  0  1  0  0  0
  -27.2624  -27.4206   20.0580 C   0  0  0  0  0  0
  -25.5943  -33.8635   24.2335 N   0  0  0  0  0  0
  -23.5774  -30.2439   21.6584 C   0  0  2  0  0  0
  -24.9103  -29.0029   19.9850 C   0  0  0  0  0  0
  -22.6876  -29.4612   22.6481 C   0  0  0  0  0  0
  -18.0026  -28.1403   22.8417 C   0  0  0  0  0  0
  -24.1480  -36.7302   23.2628 C   0  0  0  0  0  0
  -25.9797  -30.8750   21.3175 C   0  0  0  0  0  0
  -26.0746  -29.5138   20.6000 C   0  0  0  0  0  0
  -27.2427  -28.7119   20.6482 C   0  0  0  0  0  0
  -26.0759  -26.9411   19.4632 C   0  0  0  0  0  0
  -24.9054  -27.7162   19.4311 C   0  0  0  0  0  0
  -23.6233  -29.7850   20.1815 C   0  0  0  0  0  0
  -25.4117  -36.3130   24.0329 C   0  0  1  0  0  0
  -20.5457  -28.3729   23.1212 C   0  0  2  0  0  0
  -20.6487  -26.9424   22.5418 C   0  0  0  0  0  0
  -19.5541  -26.6370   21.5186 C   0  0  0  0  0  0
  -18.1724  -26.7915   22.1594 C   0  0  0  0  0  0
  -19.1213  -28.8921   23.2775 C   0  0  0  0  0  0
  -18.9213  -30.1500   23.8828 C   0  0  0  0  0  0
  -17.6231  -30.6609   24.0558 C   0  0  0  0  0  0
  -25.9048  -34.9495   23.5134 C   0  0  0  0  0  0
  -16.5131  -29.9077   23.6332 C   0  0  0  0  0  0
  -16.7025  -28.6497   23.0320 C   0  0  0  0  0  0
  -26.4514  -31.6622   25.0709 C   0  0  0  0  0  0
  -25.3775  -31.3705   26.1452 C   0  0  0  0  0  0
  -27.0320  -30.3061   24.6059 C   0  0  0  0  0  0
  -27.6089  -32.4324   25.7477 C   0  0  0  0  0  0
  -27.5596  -37.1831   24.8467 C   0  0  0  0  0  0
  -21.3898  -29.3061   22.3730 N   0  0  0  0  0  0
  -26.4320  -37.3828   23.9378 N   0  0  0  0  0  0
  -24.7018  -31.1221   22.0601 N   0  0  0  0  0  0
  -23.1986  -28.8798   23.6208 O   0  0  0  0  0  0
  -28.4086  -26.6384   20.1342 O   0  0  0  0  0  0
  -26.5578  -34.8938   22.4678 O   0  0  0  0  0  0
  -23.5499  -32.1042   23.7481 O   0  0  0  0  0  0
  -27.6917  -21.6340   18.5379 C   0  0  0  0  0  0
  -29.2616  -23.2220   19.4499 C   0  0  0  0  0  0
  -26.8716  -22.7177   18.1996 C   0  0  0  0  0  0
  -28.9251  -21.8624   19.1785 C   0  0  0  0  0  0
  -28.3871  -24.2735   19.0419 C   0  0  0  0  0  0
  -29.9957  -18.0892   20.2226 C   0  0  0  0  0  0
  -31.2098  -16.2642   22.5102 C   0  0  0  0  0  0
  -30.6504  -17.4983   23.2733 C   0  0  0  0  0  0
  -28.4016  -17.2716   22.0715 C   0  0  0  0  0  0
  -29.3039  -16.8348   20.8799 C   0  0  2  0  0  0
  -30.1812  -15.6809   21.5152 C   0  0  1  0  0  0
  -29.8661  -20.6700   19.4712 C   0  0  0  0  0  0
  -28.7918  -25.7755   19.0329 C   0  0  0  0  0  0
  -29.1438  -19.3763   19.9845 C   0  0  0  0  0  0
  -27.2177  -23.9965   18.4260 N   0  0  0  0  0  0
  -29.1584  -17.5708   23.3254 N   0  3  0  0  0  0
  -31.1831  -18.0601   19.8919 O   0  0  0  0  0  0
  -31.4642  -12.4833   19.0889 H   0  0  0  0  0  0
  -30.3497  -11.3564   19.8013 H   0  0  0  0  0  0
  -29.7308  -11.8092   17.4171 H   0  0  0  0  0  0
  -29.6221  -13.5235   17.7448 H   0  0  0  0  0  0
  -27.8487  -11.3120   18.8219 H   0  0  0  0  0  0
  -27.3468  -12.6255   17.7840 H   0  0  0  0  0  0
  -27.7016  -14.2608   19.5739 H   0  0  0  0  0  0
  -28.7095  -11.9485   21.2842 H   0  0  0  0  0  0
  -28.4141  -13.5296   21.8802 H   0  0  0  0  0  0
  -25.2760   -9.5678   22.4770 H   0  0  0  0  0  0
  -24.0030   -7.4644   22.7456 H   0  0  0  0  0  0
  -21.0880   -8.8764   19.8935 H   0  0  0  0  0  0
  -22.3728  -10.9661   19.6179 H   0  0  0  0  0  0
  -21.1944   -7.6125   23.9696 H   0  0  0  0  0  0
  -21.1491   -6.0515   25.9061 H   0  0  0  0  0  0
  -22.0602   -2.7609   23.2842 H   0  0  0  0  0  0
  -22.4150  -11.9777   22.4763 H   0  0  0  0  0  0
  -21.1116  -13.1105   22.2628 H   0  0  0  0  0  0
  -24.6426  -15.8151   20.5016 H   0  0  0  0  0  0
  -26.1969  -15.5809   19.8855 H   0  0  0  0  0  0
  -26.7215  -32.5550   23.1175 H   0  0  0  0  0  0
  -25.0149  -33.9787   25.0521 H   0  0  0  0  0  0
  -24.2317  -29.4571   21.9955 H   0  0  0  0  0  0
  -23.3775  -35.9622   23.3320 H   0  0  0  0  0  0
  -24.3589  -36.8884   22.2047 H   0  0  0  0  0  0
  -23.7210  -37.6501   23.6640 H   0  0  0  0  0  0
  -26.1194  -31.6714   20.5835 H   0  0  0  0  0  0
  -26.8531  -30.8983   21.9578 H   0  0  0  0  0  0
  -28.1266  -29.0747   21.1560 H   0  0  0  0  0  0
  -26.0118  -25.9520   19.0504 H   0  0  0  0  0  0
  -23.9961  -27.3043   19.0122 H   0  0  0  0  0  0
  -23.5860  -30.6383   19.5020 H   0  0  0  0  0  0
  -22.7664  -29.1555   19.9401 H   0  0  0  0  0  0
  -25.1296  -36.2003   25.0836 H   0  0  0  0  0  0
  -20.9080  -28.3164   24.1506 H   0  0  0  0  0  0
  -20.5339  -26.2352   23.3664 H   0  0  0  0  0  0
  -21.6406  -26.7487   22.1318 H   0  0  0  0  0  0
  -19.6726  -25.6278   21.1256 H   0  0  0  0  0  0
  -19.6465  -27.3168   20.6716 H   0  0  0  0  0  0
  -17.4005  -26.6615   21.4011 H   0  0  0  0  0  0
  -18.0148  -26.0088   22.9022 H   0  0  0  0  0  0
  -19.7721  -30.7268   24.2190 H   0  0  0  0  0  0
  -17.4782  -31.6265   24.5194 H   0  0  0  0  0  0
  -15.5128  -30.2936   23.7706 H   0  0  0  0  0  0
  -15.8438  -28.0808   22.7067 H   0  0  0  0  0  0
  -24.5951  -30.7063   25.7764 H   0  0  0  0  0  0
  -24.8969  -32.2850   26.4938 H   0  0  0  0  0  0
  -25.8123  -30.8828   27.0184 H   0  0  0  0  0  0
  -26.2848  -29.6822   24.1144 H   0  0  0  0  0  0
  -27.4131  -29.7298   25.4495 H   0  0  0  0  0  0
  -27.8676  -30.4366   23.9178 H   0  0  0  0  0  0
  -27.2738  -33.3617   26.2095 H   0  0  0  0  0  0
  -28.3902  -32.6903   25.0317 H   0  0  0  0  0  0
  -28.0776  -31.8427   26.5360 H   0  0  0  0  0  0
  -28.2642  -38.0096   24.7525 H   0  0  0  0  0  0
  -28.1056  -36.2651   24.6295 H   0  0  0  0  0  0
  -27.2316  -37.1484   25.8867 H   0  0  0  0  0  0
  -20.9886  -29.7765   21.5741 H   0  0  0  0  0  0
  -26.0192  -38.2915   24.1377 H   0  0  0  0  0  0
  -27.3620  -20.6432   18.2619 H   0  0  0  0  0  0
  -30.2116  -23.4729   19.9025 H   0  0  0  0  0  0
  -25.9291  -22.5561   17.6978 H   0  0  0  0  0  0
  -32.1345  -16.5421   22.0014 H   0  0  0  0  0  0
  -31.4943  -15.4895   23.2227 H   0  0  0  0  0  0
  -31.0272  -18.4125   22.8110 H   0  0  0  0  0  0
  -31.0419  -17.5176   24.2915 H   0  0  0  0  0  0
  -27.7052  -16.4605   22.2973 H   0  0  0  0  0  0
  -27.7374  -18.0970   21.8224 H   0  0  0  0  0  0
  -28.6760  -16.4029   20.0990 H   0  0  0  0  0  0
  -29.5336  -15.1597   22.2090 H   0  0  0  0  0  0
  -30.6162  -20.9823   20.1958 H   0  0  0  0  0  0
  -30.4082  -20.4446   18.5514 H   0  0  0  0  0  0
  -28.4635  -26.2296   18.0952 H   0  0  0  0  0  0
  -29.8797  -25.8109   18.9895 H   0  0  0  0  0  0
  -28.6564  -19.6688   20.9107 H   0  0  0  0  0  0
  -28.3559  -19.0870   19.2915 H   0  0  0  0  0  0
  -28.8927  -18.4848   23.6579 H   0  0  0  0  0  0
  -28.8406  -16.9223   24.0288 H   0  0  0  0  0  0
  1 25  1  0  0  0
  1 30  2  0  0  0
  1 81  1  0  0  0
  2  3  1  0  0  0
  2 25  1  0  0  0
  2 88  1  0  0  0
  2 89  1  0  0  0
  3  4  1  0  0  0
  3 90  1  0  0  0
  3 91  1  0  0  0
  4  5  1  0  0  0
  4 92  1  0  0  0
  4 93  1  0  0  0
  5  6  1  0  0  0
  5 26  1  0  0  0
  5 94  1  0  0  0
  6 25  1  0  0  0
  6 95  1  0  0  0
  6 96  1  0  0  0
  7  8  2  0  0  0
  7 26  1  0  0  0
  7 29  1  0  0  0
  8  9  1  0  0  0
  8 22  1  0  0  0
  9 10  1  0  0  0
  9 27  2  0  0  0
 10 11  2  0  0  0
 10 15  1  0  0  0
 11 12  1  0  0  0
 11 97  1  0  0  0
 12 13  2  0  0  0
 12 98  1  0  0  0
 13 14  1  0  0  0
 13 31  1  0  0  0
 14 15  2  0  0  0
 14 99  1  0  0  0
 15100  1  0  0  0
 16 17  2  0  0  0
 16 21  1  0  0  0
 16 31  1  0  0  0
 17 18  1  0  0  0
 17101  1  0  0  0
 18 19  2  0  0  0
 18102  1  0  0  0
 19 20  1  0  0  0
 19 24  1  0  0  0
 20 21  2  0  0  0
 20103  1  0  0  0
 21 23  1  0  0  0
 22 28  1  0  0  0
 22 32  2  0  0  0
 26 27  1  0  0  0
 28104  1  0  0  0
 28105  1  0  0  0
 29106  1  0  0  0
 29107  1  0  0  0
 33 34  1  0  0  0
 33 66  1  0  0  0
 33 70  2  0  0  0
 34 36  1  0  0  0
 34 59  1  0  0  0
 34108  1  0  0  0
 35 44  2  0  0  0
 35 45  1  0  0  0
 35 68  1  0  0  0
 36 56  1  0  0  0
 36109  1  0  0  0
 37 39  1  0  0  0
 37 47  1  0  0  0
 37 66  1  0  0  0
 37110  1  0  0  0
 38 43  2  0  0  0
 38 46  1  0  0  0
 38 47  1  0  0  0
 39 64  1  0  0  0
 39 67  2  0  0  0
 40 52  1  0  0  0
 40 53  2  0  0  0
 40 58  1  0  0  0
 41111  1  0  0  0
 41112  1  0  0  0
 41113  1  0  0  0
 41 48  1  0  0  0
 42 43  1  0  0  0
 42 66  1  0  0  0
 42114  1  0  0  0
 42115  1  0  0  0
 43 44  1  0  0  0
 44116  1  0  0  0
 45 46  2  0  0  0
 45117  1  0  0  0
 46118  1  0  0  0
 47119  1  0  0  0
 47120  1  0  0  0
 48 56  1  0  0  0
 48 65  1  0  0  0
 48121  1  0  0  0
 49 50  1  0  0  0
 49 53  1  0  0  0
 49 64  1  0  0  0
 49122  1  0  0  0
 50 51  1  0  0  0
 50123  1  0  0  0
 50124  1  0  0  0
 51 52  1  0  0  0
 51125  1  0  0  0
 51126  1  0  0  0
 52127  1  0  0  0
 52128  1  0  0  0
 53 54  1  0  0  0
 54 55  2  0  0  0
 54129  1  0  0  0
 55 57  1  0  0  0
 55130  1  0  0  0
 56 69  2  0  0  0
 57 58  2  0  0  0
 57131  1  0  0  0
 58132  1  0  0  0
 59 60  1  0  0  0
 59 61  1  0  0  0
 59 62  1  0  0  0
 60133  1  0  0  0
 60134  1  0  0  0
 60135  1  0  0  0
 61136  1  0  0  0
 61137  1  0  0  0
 61138  1  0  0  0
 62139  1  0  0  0
 62140  1  0  0  0
 62141  1  0  0  0
 63 65  1  0  0  0
 63142  1  0  0  0
 63143  1  0  0  0
 63144  1  0  0  0
 64145  1  0  0  0
 65146  1  0  0  0
 68 83  1  0  0  0
 71 73  2  0  0  0
 71 74  1  0  0  0
 71147  1  0  0  0
 72 74  2  0  0  0
 72 75  1  0  0  0
 72148  1  0  0  0
 73 85  1  0  0  0
 73149  1  0  0  0
 74 82  1  0  0  0
 75 83  1  0  0  0
 75 85  2  0  0  0
 76 84  1  0  0  0
 76 87  2  0  0  0
 76 80  1  0  0  0
 77 78  1  0  0  0
 77 81  1  0  0  0
 77150  1  0  0  0
 77151  1  0  0  0
 78 86  1  0  0  0
 78152  1  0  0  0
 78153  1  0  0  0
 79 80  1  0  0  0
 79 86  1  0  0  0
 79154  1  0  0  0
 79155  1  0  0  0
 80 81  1  0  0  0
 80156  1  0  0  0
 81157  1  0  0  0
 82 84  1  0  0  0
 82158  1  0  0  0
 82159  1  0  0  0
 83160  1  0  0  0
 83161  1  0  0  0
 84162  1  0  0  0
 84163  1  0  0  0
 86164  1  0  0  0
 86165  1  0  0  0
M  CHG  1  86   1
M  ISO  4   1 100  68 101  81 100  83 101
M  END
> <chiral flag>
0

> <version>
0

> <s_m_source_file>
/data/baiqing/PycharmProjects/Reinvent-master-3.2/result/LINK_invent/BTK/process_docking_weight1_custom_sum_contain_oxygen_bond_distance_aromatic_linkinvent_7_9_3/rearranged_h_0117.sdf

> <i_m_source_file_index>
20

> <r_mmod_Potential_Energy-OPLS-2005>
-91.4558258056641

> <r_mmod_Stretch_Energy-OPLS-2005>
60.450252532959

> <r_mmod_Bend_Energy-OPLS-2005>
267.135070800781

> <r_mmod_Torsional_Energy-OPLS-2005>
243.987503051758

> <r_mmod_Improper_Torsional_Energy-OPLS-2005>
7.97781944274902

> <r_mmod_Van_der_Waal_Energy-OPLS-2005>
220.858169555664

> <r_mmod_Electrostatic_Energy-OPLS-2005>
-427.265197753906

> <r_mmod_Solvation_Energy-OPLS-2005>
-518.505126953125

> <b_mmod_Minimization_Converged-OPLS-2005>
0

> <r_mmod_RMS_Derivative-OPLS-2005>
4.68412637710571

$$$$
20
                    3D
 Structure written by MMmdl.
156164  0  0  1  0            999 V2000
  -30.4399  -15.2729   20.3666 C   0  0  0  0  0  0
  -30.4393  -12.8160   19.5178 C   0  0  0  0  0  0
  -29.5342  -12.5764   18.2831 C   0  0  0  0  0  0
  -28.0843  -12.2985   18.7161 C   0  0  0  0  0  0
  -27.6093  -13.2765   19.8188 C   0  0  2  0  0  0
  -28.6464  -13.4620   20.9462 C   0  0  0  0  0  0
  -25.2400  -13.8251   20.5763 C   0  0  0  0  0  0
  -24.1743  -13.0452   20.9284 C   0  0  0  0  0  0
  -24.6390  -11.6948   20.8782 C   0  0  0  0  0  0
  -23.9085  -10.4314   21.0420 C   0  0  0  0  0  0
  -24.3621   -9.4228   21.9196 C   0  0  0  0  0  0
  -23.6302   -8.2257   22.0749 C   0  0  0  0  0  0
  -22.4287   -8.0282   21.3537 C   0  0  0  0  0  0
  -21.9927   -9.0266   20.4646 C   0  0  0  0  0  0
  -22.7256  -10.2148   20.3069 C   0  0  0  0  0  0
  -21.6858   -6.0738   22.5275 C   0  0  0  0  0  0
  -21.4020   -6.5640   23.8213 C   0  0  0  0  0  0
  -21.3665   -5.6789   24.9171 C   0  0  0  0  0  0
  -21.6049   -4.3047   24.7216 C   0  0  0  0  0  0
  -21.8818   -3.8147   23.4336 C   0  0  0  0  0  0
  -21.9204   -4.6969   22.3399 C   0  0  0  0  0  0
  -22.7761  -13.5217   21.1911 C   0  0  0  0  0  0
  -22.1666   -4.2160   21.0970 F   0  0  0  0  0  0
  -21.5625   -3.4532   25.7724 F   0  0  0  0  0  0
  -29.8733  -13.9679   20.3090 N   0  0  0  0  0  0
  -26.2808  -12.9518   20.3214 N   0  0  0  0  0  0
  -25.9326  -11.6632   20.5723 N   0  0  0  0  0  0
  -22.0390  -12.8214   22.0444 N   0  0  0  0  0  0
  -25.4076  -15.1980   20.4180 N   0  0  0  0  0  0
  -31.6679  -15.2692   20.2052 O   0  0  0  0  0  0
  -21.6642   -6.8887   21.4240 O   0  0  0  0  0  0
  -22.3476  -14.5539   20.6769 O   0  0  0  0  0  0
  -24.6637  -31.8251   23.1701 C   0  0  0  0  0  0
  -25.9309  -32.4596   23.8171 C   0  0  1  0  0  0
  -27.2252  -26.9413   20.1804 C   0  0  0  0  0  0
  -25.5981  -33.8407   24.2086 N   0  0  0  0  0  0
  -23.4762  -30.4366   21.5220 C   0  0  2  0  0  0
  -24.9274  -28.8188   20.1215 C   0  0  0  0  0  0
  -22.7660  -29.4453   22.4805 C   0  0  0  0  0  0
  -18.0320  -28.1412   22.8469 C   0  0  0  0  0  0
  -24.1504  -36.7213   23.2647 C   0  0  0  0  0  0
  -26.0454  -30.6372   21.3935 C   0  0  0  0  0  0
  -26.1152  -29.2259   20.7423 C   0  0  0  0  0  0
  -27.2627  -28.3123   20.7375 C   0  0  0  0  0  0
  -26.0014  -26.6760   19.5281 C   0  0  0  0  0  0
  -24.8946  -27.5630   19.4943 C   0  0  0  0  0  0
  -23.7138  -29.7475   20.1512 C   0  0  0  0  0  0
  -25.4141  -36.2970   24.0303 C   0  0  1  0  0  0
  -20.5945  -28.3750   23.1199 C   0  0  2  0  0  0
  -20.6795  -26.9430   22.5405 C   0  0  0  0  0  0
  -19.5772  -26.6381   21.5214 C   0  0  0  0  0  0
  -18.1957  -26.7946   22.1621 C   0  0  0  0  0  0
  -19.1578  -28.8898   23.2823 C   0  0  0  0  0  0
  -18.9485  -30.1491   23.8860 C   0  0  0  0  0  0
  -17.6475  -30.6597   24.0547 C   0  0  0  0  0  0
  -25.9102  -34.9352   23.5015 C   0  0  0  0  0  0
  -16.5371  -29.9085   23.6335 C   0  0  0  0  0  0
  -16.7299  -28.6503   23.0354 C   0  0  0  0  0  0
  -26.4559  -31.6524   25.0682 C   0  0  0  0  0  0
  -25.3690  -31.3740   26.1337 C   0  0  0  0  0  0
  -27.0439  -30.2901   24.6369 C   0  0  0  0  0  0
  -27.6074  -32.4307   25.7476 C   0  0  0  0  0  0
  -27.5573  -37.1770   24.8468 C   0  0  0  0  0  0
  -21.4334  -29.3048   22.3556 N   0  0  0  0  0  0
  -26.4292  -37.3701   23.9394 N   0  0  0  0  0  0
  -24.7502  -30.9929   22.0833 N   0  0  0  0  0  0
  -23.4214  -28.8017   23.3038 O   0  0  0  0  0  0
  -28.2654  -25.8761   20.1356 O   0  0  0  0  0  0
  -26.5711  -34.8879   22.4609 O   0  0  0  0  0  0
  -23.5707  -32.1213   23.6807 O   0  0  0  0  0  0
  -31.1458  -22.1473   19.4603 C   0  0  0  0  0  0
  -30.0269  -23.1154   19.0583 C   0  0  0  0  0  0
  -30.6770  -21.5006   20.7636 C   0  0  0  0  0  0
  -28.7669  -22.7279   19.8644 C   0  0  2  0  0  0
  -28.8368  -24.4114   21.9616 C   0  0  0  0  0  0
  -29.9350  -18.1947   20.5739 C   0  0  0  0  0  0
  -29.0045  -19.6868   20.1230 C   0  0  0  0  0  0
  -28.1880  -24.2884   20.5786 C   0  0  1  0  0  0
  -29.6707  -16.5448   20.4052 N   0  0  0  0  0  0
  -29.2295  -21.2838   20.5897 N   0  3  1  0  0  0
  -31.4600  -13.0191   19.1904 H   0  0  0  0  0  0
  -30.5016  -11.9151   20.1298 H   0  0  0  0  0  0
  -29.9141  -11.7462   17.6870 H   0  0  0  0  0  0
  -29.5623  -13.4567   17.6389 H   0  0  0  0  0  0
  -28.0429  -11.2779   19.0964 H   0  0  0  0  0  0
  -27.4150  -12.3335   17.8556 H   0  0  0  0  0  0
  -27.5207  -14.2392   19.3149 H   0  0  0  0  0  0
  -28.8224  -12.5326   21.4901 H   0  0  0  0  0  0
  -28.2883  -14.1888   21.6769 H   0  0  0  0  0  0
  -25.2752   -9.5713   22.4790 H   0  0  0  0  0  0
  -24.0020   -7.4646   22.7458 H   0  0  0  0  0  0
  -21.0862   -8.8791   19.8951 H   0  0  0  0  0  0
  -22.3708  -10.9690   19.6190 H   0  0  0  0  0  0
  -21.2002   -7.6146   23.9731 H   0  0  0  0  0  0
  -21.1490   -6.0500   25.9078 H   0  0  0  0  0  0
  -22.0596   -2.7612   23.2823 H   0  0  0  0  0  0
  -22.3970  -11.9862   22.4825 H   0  0  0  0  0  0
  -21.1017  -13.1265   22.2658 H   0  0  0  0  0  0
  -24.6387  -15.8513   20.5192 H   0  0  0  0  0  0
  -26.2436  -15.6264   20.0429 H   0  0  0  0  0  0
  -26.7380  -32.5143   23.0888 H   0  0  0  0  0  0
  -25.0050  -33.9488   25.0182 H   0  0  0  0  0  0
  -22.7898  -31.2686   21.3505 H   0  0  0  0  0  0
  -23.3770  -35.9543   23.3293 H   0  0  0  0  0  0
  -24.3583  -36.8869   22.2064 H   0  0  0  0  0  0
  -23.7257  -37.6398   23.6707 H   0  0  0  0  0  0
  -26.2170  -31.3771   20.6109 H   0  0  0  0  0  0
  -26.9097  -30.7004   22.0424 H   0  0  0  0  0  0
  -28.1754  -28.6355   21.2173 H   0  0  0  0  0  0
  -25.8847  -25.7201   19.0384 H   0  0  0  0  0  0
  -23.9924  -27.2447   18.9902 H   0  0  0  0  0  0
  -23.8682  -30.5136   19.3913 H   0  0  0  0  0  0
  -22.8231  -29.2021   19.8343 H   0  0  0  0  0  0
  -25.1345  -36.1776   25.0799 H   0  0  0  0  0  0
  -21.0036  -28.3347   24.1319 H   0  0  0  0  0  0
  -20.5680  -26.2362   23.3640 H   0  0  0  0  0  0
  -21.6657  -26.7420   22.1199 H   0  0  0  0  0  0
  -19.6928  -25.6282   21.1266 H   0  0  0  0  0  0
  -19.6710  -27.3169   20.6726 H   0  0  0  0  0  0
  -17.4224  -26.6688   21.4024 H   0  0  0  0  0  0
  -18.0350  -26.0105   22.9034 H   0  0  0  0  0  0
  -19.7957  -30.7318   24.2220 H   0  0  0  0  0  0
  -17.5021  -31.6274   24.5155 H   0  0  0  0  0  0
  -15.5364  -30.2963   23.7685 H   0  0  0  0  0  0
  -15.8702  -28.0806   22.7089 H   0  0  0  0  0  0
  -24.5911  -30.7056   25.7621 H   0  0  0  0  0  0
  -24.8828  -32.2919   26.4656 H   0  0  0  0  0  0
  -25.7934  -30.8968   27.0182 H   0  0  0  0  0  0
  -26.3080  -29.6591   24.1376 H   0  0  0  0  0  0
  -27.3992  -29.7247   25.4994 H   0  0  0  0  0  0
  -27.9016  -30.4095   23.9746 H   0  0  0  0  0  0
  -27.2686  -33.3669   26.1926 H   0  0  0  0  0  0
  -28.3952  -32.6769   25.0339 H   0  0  0  0  0  0
  -28.0669  -31.8501   26.5487 H   0  0  0  0  0  0
  -28.2588  -38.0066   24.7494 H   0  0  0  0  0  0
  -28.1071  -36.2593   24.6335 H   0  0  0  0  0  0
  -27.2282  -37.1451   25.8868 H   0  0  0  0  0  0
  -20.9591  -29.8735   21.6681 H   0  0  0  0  0  0
  -26.0146  -38.2771   24.1371 H   0  0  0  0  0  0
  -32.1075  -22.6489   19.5726 H   0  0  0  0  0  0
  -31.2660  -21.3817   18.6921 H   0  0  0  0  0  0
  -29.8426  -23.0837   17.9837 H   0  0  0  0  0  0
  -30.3301  -24.1374   19.2903 H   0  0  0  0  0  0
  -30.8269  -22.1939   21.5915 H   0  0  0  0  0  0
  -31.2331  -20.5962   21.0096 H   0  0  0  0  0  0
  -27.9958  -22.4411   19.1477 H   0  0  0  0  0  0
  -28.7226  -23.5011   22.5476 H   0  0  0  0  0  0
  -28.3924  -25.2279   22.5308 H   0  0  0  0  0  0
  -29.9015  -24.6226   21.8633 H   0  0  0  0  0  0
  -30.0999  -18.2959   21.6459 H   0  0  0  0  0  0
  -30.9272  -18.3377   20.1433 H   0  0  0  0  0  0
  -27.9633  -19.4850   20.3738 H   0  0  0  0  0  0
  -29.0151  -19.7164   19.0338 H   0  0  0  0  0  0
  -27.1257  -24.1207   20.7571 H   0  0  0  0  0  0
  -28.6820  -16.3391   20.4100 H   0  0  0  0  0  0
  -28.8313  -21.3028   21.5180 H   0  0  0  0  0  0
  1 25  1  0  0  0
  1 30  2  0  0  0
  1 79  1  0  0  0
  2  3  1  0  0  0
  2 25  1  0  0  0
  2 81  1  0  0  0
  2 82  1  0  0  0
  3  4  1  0  0  0
  3 83  1  0  0  0
  3 84  1  0  0  0
  4  5  1  0  0  0
  4 85  1  0  0  0
  4 86  1  0  0  0
  5  6  1  0  0  0
  5 26  1  0  0  0
  5 87  1  0  0  0
  6 25  1  0  0  0
  6 88  1  0  0  0
  6 89  1  0  0  0
  7  8  2  0  0  0
  7 26  1  0  0  0
  7 29  1  0  0  0
  8  9  1  0  0  0
  8 22  1  0  0  0
  9 10  1  0  0  0
  9 27  2  0  0  0
 10 11  2  0  0  0
 10 15  1  0  0  0
 11 12  1  0  0  0
 11 90  1  0  0  0
 12 13  2  0  0  0
 12 91  1  0  0  0
 13 14  1  0  0  0
 13 31  1  0  0  0
 14 15  2  0  0  0
 14 92  1  0  0  0
 15 93  1  0  0  0
 16 17  2  0  0  0
 16 21  1  0  0  0
 16 31  1  0  0  0
 17 18  1  0  0  0
 17 94  1  0  0  0
 18 19  2  0  0  0
 18 95  1  0  0  0
 19 20  1  0  0  0
 19 24  1  0  0  0
 20 21  2  0  0  0
 20 96  1  0  0  0
 21 23  1  0  0  0
 22 28  1  0  0  0
 22 32  2  0  0  0
 26 27  1  0  0  0
 28 97  1  0  0  0
 28 98  1  0  0  0
 29 99  1  0  0  0
 29100  1  0  0  0
 33 34  1  0  0  0
 33 66  1  0  0  0
 33 70  2  0  0  0
 34 36  1  0  0  0
 34 59  1  0  0  0
 34101  1  0  0  0
 35 44  2  0  0  0
 35 45  1  0  0  0
 35 68  1  0  0  0
 36 56  1  0  0  0
 36102  1  0  0  0
 37 39  1  0  0  0
 37 47  1  0  0  0
 37 66  1  0  0  0
 37103  1  0  0  0
 38 43  2  0  0  0
 38 46  1  0  0  0
 38 47  1  0  0  0
 39 64  1  0  0  0
 39 67  2  0  0  0
 40 52  1  0  0  0
 40 53  2  0  0  0
 40 58  1  0  0  0
 41104  1  0  0  0
 41105  1  0  0  0
 41106  1  0  0  0
 41 48  1  0  0  0
 42 43  1  0  0  0
 42 66  1  0  0  0
 42107  1  0  0  0
 42108  1  0  0  0
 43 44  1  0  0  0
 44109  1  0  0  0
 45 46  2  0  0  0
 45110  1  0  0  0
 46111  1  0  0  0
 47112  1  0  0  0
 47113  1  0  0  0
 48 56  1  0  0  0
 48 65  1  0  0  0
 48114  1  0  0  0
 49 50  1  0  0  0
 49 53  1  0  0  0
 49 64  1  0  0  0
 49115  1  0  0  0
 50 51  1  0  0  0
 50116  1  0  0  0
 50117  1  0  0  0
 51 52  1  0  0  0
 51118  1  0  0  0
 51119  1  0  0  0
 52120  1  0  0  0
 52121  1  0  0  0
 53 54  1  0  0  0
 54 55  2  0  0  0
 54122  1  0  0  0
 55 57  1  0  0  0
 55123  1  0  0  0
 56 69  2  0  0  0
 57 58  2  0  0  0
 57124  1  0  0  0
 58125  1  0  0  0
 59 60  1  0  0  0
 59 61  1  0  0  0
 59 62  1  0  0  0
 60126  1  0  0  0
 60127  1  0  0  0
 60128  1  0  0  0
 61129  1  0  0  0
 61130  1  0  0  0
 61131  1  0  0  0
 62132  1  0  0  0
 62133  1  0  0  0
 62134  1  0  0  0
 63 65  1  0  0  0
 63135  1  0  0  0
 63136  1  0  0  0
 63137  1  0  0  0
 64138  1  0  0  0
 65139  1  0  0  0
 68 78  1  0  0  0
 71 72  1  0  0  0
 71 73  1  0  0  0
 71140  1  0  0  0
 71141  1  0  0  0
 72142  1  0  0  0
 72143  1  0  0  0
 72 74  1  0  0  0
 73 80  1  0  0  0
 73144  1  0  0  0
 73145  1  0  0  0
 74 78  1  0  0  0
 74 80  1  0  0  0
 74146  1  0  0  0
 75147  1  0  0  0
 75148  1  0  0  0
 75149  1  0  0  0
 75 78  1  0  0  0
 76 77  1  0  0  0
 76 79  1  0  0  0
 76150  1  0  0  0
 76151  1  0  0  0
 77152  1  0  0  0
 77153  1  0  0  0
 77 80  1  0  0  0
 78154  1  0  0  0
 79155  1  0  0  0
 80156  1  0  0  0
M  CHG  1  80   1
M  ISO  4   1 100  68 101  78 101  79 100
M  END
> <chiral flag>
0

> <version>
0

> <s_m_source_file>
/data/baiqing/PycharmProjects/Reinvent-master-3.2/result/LINK_invent/BTK/process_docking_weight1_custom_sum_contain_oxygen_bond_distance_aromatic_linkinvent_7_9_3/rearranged_h_0117.sdf

> <i_m_source_file_index>
21

> <r_mmod_Potential_Energy-OPLS-2005>
1290.2431640625

> <r_mmod_Stretch_Energy-OPLS-2005>
623.163269042969

> <r_mmod_Bend_Energy-OPLS-2005>
484.077209472656

> <r_mmod_Torsional_Energy-OPLS-2005>
320.674041748047

> <r_mmod_Improper_Torsional_Energy-OPLS-2005>
4.27174472808838

> <r_mmod_Van_der_Waal_Energy-OPLS-2005>
102.603042602539

> <r_mmod_Electrostatic_Energy-OPLS-2005>
-242.784103393555

> <r_mmod_Solvation_Energy-OPLS-2005>
-447.616180419922

> <b_mmod_Minimization_Converged-OPLS-2005>
0

> <r_mmod_RMS_Derivative-OPLS-2005>
2.05186605453491

$$$$
21
                    3D
 Structure written by MMmdl.
162170  0  0  1  0            999 V2000
  -30.5545  -15.1386   20.3897 C   0  0  0  0  0  0
  -30.4102  -12.7325   19.5053 C   0  0  0  0  0  0
  -29.5063  -12.5662   18.2617 C   0  0  0  0  0  0
  -28.0525  -12.3195   18.6897 C   0  0  0  0  0  0
  -27.6048  -13.2810   19.8197 C   0  0  2  0  0  0
  -28.6454  -13.4409   20.9496 C   0  0  0  0  0  0
  -25.2330  -13.8276   20.5791 C   0  0  0  0  0  0
  -24.1703  -13.0441   20.9296 C   0  0  0  0  0  0
  -24.6374  -11.6955   20.8771 C   0  0  0  0  0  0
  -23.9091  -10.4299   21.0395 C   0  0  0  0  0  0
  -24.3639   -9.4209   21.9164 C   0  0  0  0  0  0
  -23.6311   -8.2238   22.0734 C   0  0  0  0  0  0
  -22.4288   -8.0277   21.3531 C   0  0  0  0  0  0
  -21.9927   -9.0253   20.4629 C   0  0  0  0  0  0
  -22.7261  -10.2135   20.3043 C   0  0  0  0  0  0
  -21.6870   -6.0733   22.5291 C   0  0  0  0  0  0
  -21.4015   -6.5630   23.8215 C   0  0  0  0  0  0
  -21.3668   -5.6781   24.9176 C   0  0  0  0  0  0
  -21.6050   -4.3043   24.7225 C   0  0  0  0  0  0
  -21.8819   -3.8137   23.4348 C   0  0  0  0  0  0
  -21.9188   -4.6958   22.3404 C   0  0  0  0  0  0
  -22.7718  -13.5190   21.1941 C   0  0  0  0  0  0
  -22.1665   -4.2146   21.0980 F   0  0  0  0  0  0
  -21.5632   -3.4524   25.7733 F   0  0  0  0  0  0
  -29.8904  -13.8925   20.3133 N   0  0  0  0  0  0
  -26.2776  -12.9576   20.3245 N   0  0  0  0  0  0
  -25.9313  -11.6668   20.5725 N   0  0  0  0  0  0
  -22.0376  -12.8162   22.0497 N   0  0  0  0  0  0
  -25.3864  -15.2007   20.4254 N   0  0  0  0  0  0
  -31.7771  -15.0393   20.2127 O   0  0  0  0  0  0
  -21.6644   -6.8882   21.4253 O   0  0  0  0  0  0
  -22.3401  -14.5484   20.6775 O   0  0  0  0  0  0
  -24.6521  -31.8330   23.1805 C   0  0  0  0  0  0
  -25.9241  -32.4648   23.8216 C   0  0  1  0  0  0
  -27.2059  -27.0268   20.1817 C   0  0  0  0  0  0
  -25.5957  -33.8458   24.2129 N   0  0  0  0  0  0
  -23.4632  -30.4487   21.5255 C   0  0  2  0  0  0
  -24.9146  -28.8560   20.1127 C   0  0  0  0  0  0
  -22.7616  -29.4480   22.4802 C   0  0  0  0  0  0
  -18.0299  -28.1425   22.8452 C   0  0  0  0  0  0
  -24.1494  -36.7242   23.2640 C   0  0  0  0  0  0
  -26.0255  -30.6751   21.3947 C   0  0  0  0  0  0
  -26.0948  -29.2722   20.7432 C   0  0  0  0  0  0
  -27.2408  -28.3756   20.7561 C   0  0  0  0  0  0
  -26.0043  -26.7440   19.4977 C   0  0  0  0  0  0
  -24.8868  -27.6104   19.4711 C   0  0  0  0  0  0
  -23.6990  -29.7734   20.1482 C   0  0  0  0  0  0
  -25.4130  -36.3006   24.0298 C   0  0  1  0  0  0
  -20.5921  -28.3739   23.1218 C   0  0  2  0  0  0
  -20.6796  -26.9425   22.5423 C   0  0  0  0  0  0
  -19.5776  -26.6374   21.5223 C   0  0  0  0  0  0
  -18.1946  -26.7953   22.1616 C   0  0  0  0  0  0
  -19.1566  -28.8899   23.2817 C   0  0  0  0  0  0
  -18.9477  -30.1494   23.8846 C   0  0  0  0  0  0
  -17.6479  -30.6599   24.0571 C   0  0  0  0  0  0
  -25.9086  -34.9385   23.5038 C   0  0  0  0  0  0
  -16.5363  -29.9103   23.6356 C   0  0  0  0  0  0
  -16.7284  -28.6539   23.0335 C   0  0  0  0  0  0
  -26.4531  -31.6550   25.0698 C   0  0  0  0  0  0
  -25.3697  -31.3774   26.1380 C   0  0  0  0  0  0
  -27.0394  -30.2924   24.6354 C   0  0  0  0  0  0
  -27.6035  -32.4329   25.7502 C   0  0  0  0  0  0
  -27.5570  -37.1781   24.8455 C   0  0  0  0  0  0
  -21.4298  -29.3045   22.3576 N   0  0  0  0  0  0
  -26.4278  -37.3737   23.9404 N   0  0  0  0  0  0
  -24.7337  -31.0092   22.0887 N   0  0  0  0  0  0
  -23.4224  -28.8033   23.2979 O   0  0  0  0  0  0
  -28.2305  -25.9794   20.2175 O   0  0  0  0  0  0
  -26.5664  -34.8897   22.4616 O   0  0  0  0  0  0
  -23.5604  -32.1243   23.6956 O   0  0  0  0  0  0
  -28.1756  -18.5646   20.7905 C   0  0  0  0  0  0
  -30.3341  -19.3365   20.6058 C   0  0  0  0  0  0
  -28.5685  -17.0356   20.3148 C   0  0  0  0  0  0
  -30.8000  -17.7855   20.2094 C   0  0  0  0  0  0
  -28.8842  -19.9290   20.2448 C   0  0  0  0  0  0
  -26.4684  -20.7893   22.3844 C   0  0  0  0  0  0
  -26.0058  -21.1054   19.8285 C   0  0  0  0  0  0
  -28.7100  -22.9011   20.1176 C   0  0  0  0  0  0
  -27.9344  -24.4303   20.5260 C   0  0  0  0  0  0
  -26.8865  -21.4412   21.0498 C   0  0  0  0  0  0
  -29.9773  -16.4988   20.4399 N   0  0  0  0  0  0
  -28.3622  -21.4268   20.7565 N   0  3  1  0  0  0
  -31.4397  -12.8825   19.1774 H   0  0  0  0  0  0
  -30.4260  -11.8164   20.0978 H   0  0  0  0  0  0
  -29.8535  -11.7459   17.6333 H   0  0  0  0  0  0
  -29.5586  -13.4660   17.6465 H   0  0  0  0  0  0
  -27.9810  -11.2884   19.0327 H   0  0  0  0  0  0
  -27.3825  -12.3988   17.8329 H   0  0  0  0  0  0
  -27.5214  -14.2542   19.3352 H   0  0  0  0  0  0
  -28.7858  -12.5169   21.5122 H   0  0  0  0  0  0
  -28.3049  -14.1919   21.6643 H   0  0  0  0  0  0
  -25.2774   -9.5691   22.4745 H   0  0  0  0  0  0
  -24.0021   -7.4633   22.7460 H   0  0  0  0  0  0
  -21.0842   -8.8786   19.8938 H   0  0  0  0  0  0
  -22.3706  -10.9684   19.6156 H   0  0  0  0  0  0
  -21.2022   -7.6139   23.9729 H   0  0  0  0  0  0
  -21.1491   -6.0500   25.9083 H   0  0  0  0  0  0
  -22.0590   -2.7599   23.2846 H   0  0  0  0  0  0
  -22.4014  -11.9839   22.4907 H   0  0  0  0  0  0
  -21.0979  -13.1144   22.2676 H   0  0  0  0  0  0
  -24.6092  -15.8384   20.5588 H   0  0  0  0  0  0
  -26.2242  -15.6596   20.0960 H   0  0  0  0  0  0
  -26.7325  -32.5224   23.0943 H   0  0  0  0  0  0
  -25.0130  -33.9556   25.0297 H   0  0  0  0  0  0
  -22.7712  -31.2775   21.3632 H   0  0  0  0  0  0
  -23.3764  -35.9566   23.3269 H   0  0  0  0  0  0
  -24.3584  -36.8911   22.2064 H   0  0  0  0  0  0
  -23.7247  -37.6422   23.6711 H   0  0  0  0  0  0
  -26.1881  -31.4168   20.6121 H   0  0  0  0  0  0
  -26.8939  -30.7383   22.0383 H   0  0  0  0  0  0
  -28.1399  -28.6876   21.2669 H   0  0  0  0  0  0
  -25.9022  -25.8019   18.9788 H   0  0  0  0  0  0
  -23.9901  -27.2941   18.9556 H   0  0  0  0  0  0
  -23.8537  -30.5449   19.3935 H   0  0  0  0  0  0
  -22.8116  -29.2243   19.8317 H   0  0  0  0  0  0
  -25.1333  -36.1821   25.0788 H   0  0  0  0  0  0
  -20.9997  -28.3351   24.1343 H   0  0  0  0  0  0
  -20.5699  -26.2342   23.3653 H   0  0  0  0  0  0
  -21.6665  -26.7436   22.1221 H   0  0  0  0  0  0
  -19.6941  -25.6272   21.1285 H   0  0  0  0  0  0
  -19.6741  -27.3166   20.6741 H   0  0  0  0  0  0
  -17.4224  -26.6666   21.4015 H   0  0  0  0  0  0
  -18.0339  -26.0114   22.9036 H   0  0  0  0  0  0
  -19.7950  -30.7324   24.2193 H   0  0  0  0  0  0
  -17.5026  -31.6272   24.5187 H   0  0  0  0  0  0
  -15.5366  -30.2991   23.7715 H   0  0  0  0  0  0
  -15.8672  -28.0869   22.7045 H   0  0  0  0  0  0
  -24.5926  -30.7052   25.7737 H   0  0  0  0  0  0
  -24.8820  -32.2955   26.4659 H   0  0  0  0  0  0
  -25.7965  -30.9086   27.0252 H   0  0  0  0  0  0
  -26.3031  -29.6628   24.1353 H   0  0  0  0  0  0
  -27.3951  -29.7253   25.4962 H   0  0  0  0  0  0
  -27.8961  -30.4105   23.9720 H   0  0  0  0  0  0
  -27.2631  -33.3686   26.1937 H   0  0  0  0  0  0
  -28.3932  -32.6780   25.0397 H   0  0  0  0  0  0
  -28.0601  -31.8540   26.5531 H   0  0  0  0  0  0
  -28.2567  -38.0095   24.7513 H   0  0  0  0  0  0
  -28.1077  -36.2621   24.6272 H   0  0  0  0  0  0
  -27.2271  -37.1418   25.8849 H   0  0  0  0  0  0
  -20.9519  -29.8749   21.6740 H   0  0  0  0  0  0
  -26.0124  -38.2789   24.1437 H   0  0  0  0  0  0
  -28.3028  -18.5577   21.8739 H   0  0  0  0  0  0
  -27.1036  -18.6286   20.6362 H   0  0  0  0  0  0
  -30.4691  -19.4434   21.6827 H   0  0  0  0  0  0
  -31.0721  -20.0162   20.1769 H   0  0  0  0  0  0
  -28.2989  -16.9337   19.2628 H   0  0  0  0  0  0
  -27.9160  -16.3500   20.8522 H   0  0  0  0  0  0
  -31.7730  -17.6264   20.6765 H   0  0  0  0  0  0
  -31.0097  -17.7906   19.1376 H   0  0  0  0  0  0
  -28.7736  -19.9361   19.1610 H   0  0  0  0  0  0
  -25.3996  -20.9313   22.5464 H   0  0  0  0  0  0
  -26.9719  -21.2703   23.2237 H   0  0  0  0  0  0
  -26.6348  -19.7227   22.4680 H   0  0  0  0  0  0
  -24.9497  -21.2305   20.0721 H   0  0  0  0  0  0
  -26.1296  -20.0953   19.4511 H   0  0  0  0  0  0
  -26.2191  -21.7766   18.9947 H   0  0  0  0  0  0
  -29.7792  -23.0391   20.2741 H   0  0  0  0  0  0
  -28.5976  -22.7928   19.0385 H   0  0  0  0  0  0
  -27.9182  -24.4301   21.6167 H   0  0  0  0  0  0
  -26.8917  -24.3066   20.2465 H   0  0  0  0  0  0
  -26.6037  -22.4614   21.2789 H   0  0  0  0  0  0
  -28.7679  -21.5032   21.6782 H   0  0  0  0  0  0
  1 25  1  0  0  0
  1 30  2  0  0  0
  1 81  1  0  0  0
  2  3  1  0  0  0
  2 25  1  0  0  0
  2 83  1  0  0  0
  2 84  1  0  0  0
  3  4  1  0  0  0
  3 85  1  0  0  0
  3 86  1  0  0  0
  4  5  1  0  0  0
  4 87  1  0  0  0
  4 88  1  0  0  0
  5  6  1  0  0  0
  5 26  1  0  0  0
  5 89  1  0  0  0
  6 25  1  0  0  0
  6 90  1  0  0  0
  6 91  1  0  0  0
  7  8  2  0  0  0
  7 26  1  0  0  0
  7 29  1  0  0  0
  8  9  1  0  0  0
  8 22  1  0  0  0
  9 10  1  0  0  0
  9 27  2  0  0  0
 10 11  2  0  0  0
 10 15  1  0  0  0
 11 12  1  0  0  0
 11 92  1  0  0  0
 12 13  2  0  0  0
 12 93  1  0  0  0
 13 14  1  0  0  0
 13 31  1  0  0  0
 14 15  2  0  0  0
 14 94  1  0  0  0
 15 95  1  0  0  0
 16 17  2  0  0  0
 16 21  1  0  0  0
 16 31  1  0  0  0
 17 18  1  0  0  0
 17 96  1  0  0  0
 18 19  2  0  0  0
 18 97  1  0  0  0
 19 20  1  0  0  0
 19 24  1  0  0  0
 20 21  2  0  0  0
 20 98  1  0  0  0
 21 23  1  0  0  0
 22 28  1  0  0  0
 22 32  2  0  0  0
 26 27  1  0  0  0
 28 99  1  0  0  0
 28100  1  0  0  0
 29101  1  0  0  0
 29102  1  0  0  0
 33 34  1  0  0  0
 33 66  1  0  0  0
 33 70  2  0  0  0
 34 36  1  0  0  0
 34 59  1  0  0  0
 34103  1  0  0  0
 35 44  2  0  0  0
 35 45  1  0  0  0
 35 68  1  0  0  0
 36 56  1  0  0  0
 36104  1  0  0  0
 37 39  1  0  0  0
 37 47  1  0  0  0
 37 66  1  0  0  0
 37105  1  0  0  0
 38 43  2  0  0  0
 38 46  1  0  0  0
 38 47  1  0  0  0
 39 64  1  0  0  0
 39 67  2  0  0  0
 40 52  1  0  0  0
 40 53  2  0  0  0
 40 58  1  0  0  0
 41106  1  0  0  0
 41107  1  0  0  0
 41108  1  0  0  0
 41 48  1  0  0  0
 42 43  1  0  0  0
 42 66  1  0  0  0
 42109  1  0  0  0
 42110  1  0  0  0
 43 44  1  0  0  0
 44111  1  0  0  0
 45 46  2  0  0  0
 45112  1  0  0  0
 46113  1  0  0  0
 47114  1  0  0  0
 47115  1  0  0  0
 48 56  1  0  0  0
 48 65  1  0  0  0
 48116  1  0  0  0
 49 50  1  0  0  0
 49 53  1  0  0  0
 49 64  1  0  0  0
 49117  1  0  0  0
 50 51  1  0  0  0
 50118  1  0  0  0
 50119  1  0  0  0
 51 52  1  0  0  0
 51120  1  0  0  0
 51121  1  0  0  0
 52122  1  0  0  0
 52123  1  0  0  0
 53 54  1  0  0  0
 54 55  2  0  0  0
 54124  1  0  0  0
 55 57  1  0  0  0
 55125  1  0  0  0
 56 69  2  0  0  0
 57 58  2  0  0  0
 57126  1  0  0  0
 58127  1  0  0  0
 59 60  1  0  0  0
 59 61  1  0  0  0
 59 62  1  0  0  0
 60128  1  0  0  0
 60129  1  0  0  0
 60130  1  0  0  0
 61131  1  0  0  0
 61132  1  0  0  0
 61133  1  0  0  0
 62134  1  0  0  0
 62135  1  0  0  0
 62136  1  0  0  0
 63 65  1  0  0  0
 63137  1  0  0  0
 63138  1  0  0  0
 63139  1  0  0  0
 64140  1  0  0  0
 65141  1  0  0  0
 68 79  1  0  0  0
 71 73  1  0  0  0
 71142  1  0  0  0
 71143  1  0  0  0
 71 75  1  0  0  0
 72 74  1  0  0  0
 72 75  1  0  0  0
 72144  1  0  0  0
 72145  1  0  0  0
 73 81  1  0  0  0
 73146  1  0  0  0
 73147  1  0  0  0
 74 81  1  0  0  0
 74148  1  0  0  0
 74149  1  0  0  0
 75 82  1  0  0  0
 75150  1  0  0  0
 76151  1  0  0  0
 76152  1  0  0  0
 76153  1  0  0  0
 76 80  1  0  0  0
 77 80  1  0  0  0
 77154  1  0  0  0
 77155  1  0  0  0
 77156  1  0  0  0
 78 79  1  0  0  0
 78157  1  0  0  0
 78158  1  0  0  0
 78 82  1  0  0  0
 79159  1  0  0  0
 79160  1  0  0  0
 80 82  1  0  0  0
 80161  1  0  0  0
 82162  1  0  0  0
M  CHG  1  82   1
M  ISO  4   1 100  68 101  79 101  81 100
M  END
> <chiral flag>
0

> <version>
0

> <s_m_source_file>
/data/baiqing/PycharmProjects/Reinvent-master-3.2/result/LINK_invent/BTK/process_docking_weight1_custom_sum_contain_oxygen_bond_distance_aromatic_linkinvent_7_9_3/rearranged_h_0117.sdf

> <i_m_source_file_index>
22

> <r_mmod_Potential_Energy-OPLS-2005>
1115.37255859375

> <r_mmod_Stretch_Energy-OPLS-2005>
421.528198242188

> <r_mmod_Bend_Energy-OPLS-2005>
451.497192382812

> <r_mmod_Torsional_Energy-OPLS-2005>
335.184173583984

> <r_mmod_Improper_Torsional_Energy-OPLS-2005>
5.26902675628662

> <r_mmod_Van_der_Waal_Energy-OPLS-2005>
128.966262817383

> <r_mmod_Electrostatic_Energy-OPLS-2005>
-131.676635742188

> <r_mmod_Solvation_Energy-OPLS-2005>
-423.349639892578

> <b_mmod_Minimization_Converged-OPLS-2005>
0

> <r_mmod_RMS_Derivative-OPLS-2005>
3.34240317344666

$$$$
22
                    3D
 Structure written by MMmdl.
168176  0  0  1  0            999 V2000
  -30.6349  -14.6988   20.4727 C   0  0  0  0  0  0
  -30.4397  -12.4290   19.4546 C   0  0  0  0  0  0
  -29.5027  -12.5050   18.2283 C   0  0  0  0  0  0
  -28.0274  -12.3296   18.6443 C   0  0  0  0  0  0
  -27.6394  -13.1976   19.8698 C   0  0  2  0  0  0
  -28.7025  -13.1180   20.9909 C   0  0  0  0  0  0
  -25.2256  -13.7715   20.5561 C   0  0  0  0  0  0
  -24.1680  -13.0072   20.9386 C   0  0  0  0  0  0
  -24.6364  -11.6628   20.8935 C   0  0  0  0  0  0
  -23.9049  -10.4078   21.0505 C   0  0  0  0  0  0
  -24.3589   -9.3998   21.9260 C   0  0  0  0  0  0
  -23.6233   -8.2067   22.0778 C   0  0  0  0  0  0
  -22.4220   -8.0176   21.3539 C   0  0  0  0  0  0
  -21.9883   -9.0159   20.4648 C   0  0  0  0  0  0
  -22.7249  -10.2009   20.3097 C   0  0  0  0  0  0
  -21.6794   -6.0685   22.5291 C   0  0  0  0  0  0
  -21.3967   -6.5601   23.8218 C   0  0  0  0  0  0
  -21.3647   -5.6765   24.9191 C   0  0  0  0  0  0
  -21.6047   -4.3030   24.7243 C   0  0  0  0  0  0
  -21.8820   -3.8112   23.4371 C   0  0  0  0  0  0
  -21.9169   -4.6923   22.3419 C   0  0  0  0  0  0
  -22.7733  -13.4976   21.1950 C   0  0  0  0  0  0
  -22.1651   -4.2109   21.0997 F   0  0  0  0  0  0
  -21.5646   -3.4526   25.7761 F   0  0  0  0  0  0
  -30.0090  -13.4740   20.4065 N   0  0  0  0  0  0
  -26.2888  -12.9093   20.3420 N   0  0  0  0  0  0
  -25.9313  -11.6274   20.5976 N   0  0  0  0  0  0
  -22.0264  -12.8065   22.0476 N   0  0  0  0  0  0
  -25.3186  -15.1281   20.3134 N   0  0  0  0  0  0
  -31.8203  -14.8208   20.1529 O   0  0  0  0  0  0
  -21.6557   -6.8810   21.4242 O   0  0  0  0  0  0
  -22.3635  -14.5374   20.6789 O   0  0  0  0  0  0
  -24.6172  -31.8600   23.2021 C   0  0  0  0  0  0
  -25.9029  -32.4787   23.8375 C   0  0  1  0  0  0
  -27.2590  -27.3688   20.1285 C   0  0  0  0  0  0
  -25.5860  -33.8585   24.2288 N   0  0  0  0  0  0
  -23.4142  -30.4778   21.5400 C   0  0  2  0  0  0
  -24.8713  -28.9283   20.1191 C   0  0  0  0  0  0
  -22.7447  -29.4595   22.4924 C   0  0  0  0  0  0
  -18.0290  -28.1379   22.8480 C   0  0  0  0  0  0
  -24.1481  -36.7299   23.2645 C   0  0  0  0  0  0
  -25.9472  -30.8089   21.3631 C   0  0  0  0  0  0
  -26.0323  -29.4349   20.7152 C   0  0  0  0  0  0
  -27.2287  -28.6683   20.7073 C   0  0  0  0  0  0
  -26.0756  -26.8906   19.5245 C   0  0  0  0  0  0
  -24.8901  -27.6566   19.5180 C   0  0  0  0  0  0
  -23.6339  -29.8015   20.1588 C   0  0  0  0  0  0
  -25.4102  -36.3081   24.0339 C   0  0  1  0  0  0
  -20.5895  -28.3665   23.1299 C   0  0  2  0  0  0
  -20.6767  -26.9395   22.5399 C   0  0  0  0  0  0
  -19.5737  -26.6383   21.5197 C   0  0  0  0  0  0
  -18.1922  -26.7926   22.1617 C   0  0  0  0  0  0
  -19.1549  -28.8839   23.2879 C   0  0  0  0  0  0
  -18.9468  -30.1453   23.8881 C   0  0  0  0  0  0
  -17.6465  -30.6571   24.0565 C   0  0  0  0  0  0
  -25.9030  -34.9449   23.5112 C   0  0  0  0  0  0
  -16.5357  -29.9071   23.6329 C   0  0  0  0  0  0
  -16.7281  -28.6495   23.0339 C   0  0  0  0  0  0
  -26.4439  -31.6594   25.0733 C   0  0  0  0  0  0
  -25.3703  -31.3738   26.1498 C   0  0  0  0  0  0
  -27.0292  -30.3042   24.6118 C   0  0  0  0  0  0
  -27.6003  -32.4336   25.7492 C   0  0  0  0  0  0
  -27.5570  -37.1801   24.8463 C   0  0  0  0  0  0
  -21.4170  -29.3032   22.3692 N   0  0  0  0  0  0
  -26.4277  -37.3772   23.9413 N   0  0  0  0  0  0
  -24.6774  -31.0662   22.0929 N   0  0  0  0  0  0
  -23.4182  -28.8129   23.2990 O   0  0  0  0  0  0
  -28.4264  -26.6059   20.0914 O   0  0  0  0  0  0
  -26.5604  -34.8904   22.4686 O   0  0  0  0  0  0
  -23.5343  -32.1374   23.7350 O   0  0  0  0  0  0
  -31.3247  -19.3529   20.7491 C   0  0  0  0  0  0
  -31.2030  -17.9327   20.8327 C   0  0  0  0  0  0
  -30.2722  -20.1973   20.2967 C   0  0  0  0  0  0
  -29.0721  -19.5426   19.9252 C   0  0  0  0  0  0
  -28.9053  -18.1310   20.1368 C   0  0  0  0  0  0
  -29.9892  -17.2607   20.5338 C   0  0  0  0  0  0
  -27.9675  -20.3529   19.2350 C   0  0  0  0  0  0
  -27.4589  -16.7400   18.6196 C   0  0  0  0  0  0
  -28.5120  -22.3466   21.7355 C   0  0  0  0  0  0
  -30.4989  -21.7409   20.0849 C   0  0  0  0  0  0
  -29.3159  -24.1691   20.0533 C   0  0  0  0  0  0
  -28.4322  -25.2923   20.7363 C   0  0  0  0  0  0
  -27.5115  -17.5650   19.9227 C   0  0  1  0  0  0
  -29.6923  -22.8655   20.8902 C   0  0  1  0  0  0
  -29.8164  -15.7878   20.6892 N   0  0  0  0  0  0
  -27.0326  -16.9705   21.1828 N   0  3  0  0  0  0
  -31.4773  -12.5577   19.1408 H   0  0  0  0  0  0
  -30.3902  -11.4426   19.9188 H   0  0  0  0  0  0
  -29.7748  -11.7426   17.4961 H   0  0  0  0  0  0
  -29.6313  -13.4673   17.7315 H   0  0  0  0  0  0
  -27.8739  -11.2749   18.8794 H   0  0  0  0  0  0
  -27.3702  -12.5506   17.8014 H   0  0  0  0  0  0
  -27.6210  -14.2176   19.5205 H   0  0  0  0  0  0
  -28.7397  -12.1110   21.4115 H   0  0  0  0  0  0
  -28.4461  -13.7791   21.8200 H   0  0  0  0  0  0
  -25.2717   -9.5441   22.4869 H   0  0  0  0  0  0
  -23.9897   -7.4426   22.7483 H   0  0  0  0  0  0
  -21.0820   -8.8701   19.8941 H   0  0  0  0  0  0
  -22.3740  -10.9575   19.6219 H   0  0  0  0  0  0
  -21.1931   -7.6100   23.9720 H   0  0  0  0  0  0
  -21.1483   -6.0492   25.9099 H   0  0  0  0  0  0
  -22.0614   -2.7575   23.2884 H   0  0  0  0  0  0
  -22.3729  -11.9657   22.4855 H   0  0  0  0  0  0
  -21.0903  -13.1204   22.2624 H   0  0  0  0  0  0
  -24.3549  -15.4605   20.3473 H   0  0  0  0  0  0
  -25.6179  -15.1941   19.3453 H   0  0  0  0  0  0
  -26.7084  -32.5493   23.1127 H   0  0  0  0  0  0
  -25.0010  -33.9745   25.0428 H   0  0  0  0  0  0
  -22.7040  -31.2929   21.3891 H   0  0  0  0  0  0
  -23.3732  -35.9637   23.3307 H   0  0  0  0  0  0
  -24.3582  -36.8926   22.2063 H   0  0  0  0  0  0
  -23.7249  -37.6509   23.6666 H   0  0  0  0  0  0
  -26.0660  -31.5686   20.5895 H   0  0  0  0  0  0
  -26.8309  -30.8665   21.9865 H   0  0  0  0  0  0
  -28.1274  -29.0616   21.1614 H   0  0  0  0  0  0
  -26.0706  -25.9191   19.0508 H   0  0  0  0  0  0
  -23.9998  -27.2590   19.0505 H   0  0  0  0  0  0
  -23.7452  -30.5710   19.3924 H   0  0  0  0  0  0
  -22.7599  -29.2176   19.8631 H   0  0  0  0  0  0
  -25.1273  -36.1931   25.0831 H   0  0  0  0  0  0
  -20.9998  -28.3216   24.1417 H   0  0  0  0  0  0
  -20.5644  -26.2264   23.3577 H   0  0  0  0  0  0
  -21.6637  -26.7377   22.1212 H   0  0  0  0  0  0
  -19.6887  -25.6296   21.1210 H   0  0  0  0  0  0
  -19.6697  -27.3215   20.6755 H   0  0  0  0  0  0
  -17.4194  -26.6688   21.4027 H   0  0  0  0  0  0
  -18.0321  -26.0059   22.9012 H   0  0  0  0  0  0
  -19.7942  -30.7282   24.2229 H   0  0  0  0  0  0
  -17.5012  -31.6250   24.5180 H   0  0  0  0  0  0
  -15.5359  -30.2959   23.7658 H   0  0  0  0  0  0
  -15.8685  -28.0806   22.7056 H   0  0  0  0  0  0
  -24.5856  -30.7088   25.7865 H   0  0  0  0  0  0
  -24.8917  -32.2920   26.4925 H   0  0  0  0  0  0
  -25.8078  -30.8938   27.0267 H   0  0  0  0  0  0
  -26.2868  -29.6815   24.1111 H   0  0  0  0  0  0
  -27.4036  -29.7265   25.4584 H   0  0  0  0  0  0
  -27.8688  -30.4404   23.9298 H   0  0  0  0  0  0
  -27.2604  -33.3638   26.2054 H   0  0  0  0  0  0
  -28.3805  -32.6904   25.0314 H   0  0  0  0  0  0
  -28.0653  -31.8478   26.5431 H   0  0  0  0  0  0
  -28.2574  -38.0109   24.7499 H   0  0  0  0  0  0
  -28.1087  -36.2646   24.6286 H   0  0  0  0  0  0
  -27.2299  -37.1433   25.8869 H   0  0  0  0  0  0
  -20.9317  -29.8763   21.6928 H   0  0  0  0  0  0
  -26.0160  -38.2838   24.1442 H   0  0  0  0  0  0
  -32.2772  -19.7958   21.0040 H   0  0  0  0  0  0
  -32.0601  -17.3602   21.1601 H   0  0  0  0  0  0
  -28.2776  -21.3354   18.8865 H   0  0  0  0  0  0
  -27.1114  -20.5001   19.8941 H   0  0  0  0  0  0
  -27.6195  -19.8359   18.3404 H   0  0  0  0  0  0
  -27.6844  -17.4044   17.7853 H   0  0  0  0  0  0
  -26.4784  -16.3245   18.4029 H   0  0  0  0  0  0
  -28.2122  -15.9609   18.5648 H   0  0  0  0  0  0
  -28.2660  -23.0586   22.5221 H   0  0  0  0  0  0
  -28.7457  -21.4049   22.2345 H   0  0  0  0  0  0
  -27.6076  -22.2185   21.1459 H   0  0  0  0  0  0
  -30.3974  -21.9343   19.0157 H   0  0  0  0  0  0
  -31.5586  -21.9240   20.2637 H   0  0  0  0  0  0
  -30.2499  -24.6361   19.7382 H   0  0  0  0  0  0
  -28.8131  -23.8741   19.1305 H   0  0  0  0  0  0
  -28.8080  -25.4513   21.7469 H   0  0  0  0  0  0
  -27.4155  -24.9173   20.8584 H   0  0  0  0  0  0
  -26.7575  -18.3314   19.7794 H   0  0  0  0  0  0
  -30.4024  -23.2134   21.6426 H   0  0  0  0  0  0
  -28.8728  -15.4644   20.7981 H   0  0  0  0  0  0
  -27.7618  -16.5329   21.7112 H   0  0  0  0  0  0
  -26.2875  -16.2950   20.9862 H   0  0  0  0  0  0
  -26.6436  -17.6966   21.7586 H   0  0  0  0  0  0
  1 25  1  0  0  0
  1 30  2  0  0  0
  1 85  1  0  0  0
  2  3  1  0  0  0
  2 25  1  0  0  0
  2 87  1  0  0  0
  2 88  1  0  0  0
  3  4  1  0  0  0
  3 89  1  0  0  0
  3 90  1  0  0  0
  4  5  1  0  0  0
  4 91  1  0  0  0
  4 92  1  0  0  0
  5  6  1  0  0  0
  5 26  1  0  0  0
  5 93  1  0  0  0
  6 25  1  0  0  0
  6 94  1  0  0  0
  6 95  1  0  0  0
  7  8  2  0  0  0
  7 26  1  0  0  0
  7 29  1  0  0  0
  8  9  1  0  0  0
  8 22  1  0  0  0
  9 10  1  0  0  0
  9 27  2  0  0  0
 10 11  2  0  0  0
 10 15  1  0  0  0
 11 12  1  0  0  0
 11 96  1  0  0  0
 12 13  2  0  0  0
 12 97  1  0  0  0
 13 14  1  0  0  0
 13 31  1  0  0  0
 14 15  2  0  0  0
 14 98  1  0  0  0
 15 99  1  0  0  0
 16 17  2  0  0  0
 16 21  1  0  0  0
 16 31  1  0  0  0
 17 18  1  0  0  0
 17100  1  0  0  0
 18 19  2  0  0  0
 18101  1  0  0  0
 19 20  1  0  0  0
 19 24  1  0  0  0
 20 21  2  0  0  0
 20102  1  0  0  0
 21 23  1  0  0  0
 22 28  1  0  0  0
 22 32  2  0  0  0
 26 27  1  0  0  0
 28103  1  0  0  0
 28104  1  0  0  0
 29105  1  0  0  0
 29106  1  0  0  0
 33 34  1  0  0  0
 33 66  1  0  0  0
 33 70  2  0  0  0
 34 36  1  0  0  0
 34 59  1  0  0  0
 34107  1  0  0  0
 35 44  2  0  0  0
 35 45  1  0  0  0
 35 68  1  0  0  0
 36 56  1  0  0  0
 36108  1  0  0  0
 37 39  1  0  0  0
 37 47  1  0  0  0
 37 66  1  0  0  0
 37109  1  0  0  0
 38 43  2  0  0  0
 38 46  1  0  0  0
 38 47  1  0  0  0
 39 64  1  0  0  0
 39 67  2  0  0  0
 40 52  1  0  0  0
 40 53  2  0  0  0
 40 58  1  0  0  0
 41110  1  0  0  0
 41111  1  0  0  0
 41112  1  0  0  0
 41 48  1  0  0  0
 42 43  1  0  0  0
 42 66  1  0  0  0
 42113  1  0  0  0
 42114  1  0  0  0
 43 44  1  0  0  0
 44115  1  0  0  0
 45 46  2  0  0  0
 45116  1  0  0  0
 46117  1  0  0  0
 47118  1  0  0  0
 47119  1  0  0  0
 48 56  1  0  0  0
 48 65  1  0  0  0
 48120  1  0  0  0
 49 50  1  0  0  0
 49 53  1  0  0  0
 49 64  1  0  0  0
 49121  1  0  0  0
 50 51  1  0  0  0
 50122  1  0  0  0
 50123  1  0  0  0
 51 52  1  0  0  0
 51124  1  0  0  0
 51125  1  0  0  0
 52126  1  0  0  0
 52127  1  0  0  0
 53 54  1  0  0  0
 54 55  2  0  0  0
 54128  1  0  0  0
 55 57  1  0  0  0
 55129  1  0  0  0
 56 69  2  0  0  0
 57 58  2  0  0  0
 57130  1  0  0  0
 58131  1  0  0  0
 59 60  1  0  0  0
 59 61  1  0  0  0
 59 62  1  0  0  0
 60132  1  0  0  0
 60133  1  0  0  0
 60134  1  0  0  0
 61135  1  0  0  0
 61136  1  0  0  0
 61137  1  0  0  0
 62138  1  0  0  0
 62139  1  0  0  0
 62140  1  0  0  0
 63 65  1  0  0  0
 63141  1  0  0  0
 63142  1  0  0  0
 63143  1  0  0  0
 64144  1  0  0  0
 65145  1  0  0  0
 68 82  1  0  0  0
 71 72  2  0  0  0
 71 73  1  0  0  0
 71146  1  0  0  0
 72 76  1  0  0  0
 72147  1  0  0  0
 73 74  2  0  0  0
 73 80  1  0  0  0
 74 75  1  0  0  0
 74 77  1  0  0  0
 75 76  2  0  0  0
 75 83  1  0  0  0
 76 85  1  0  0  0
 77148  1  0  0  0
 77149  1  0  0  0
 77150  1  0  0  0
 78151  1  0  0  0
 78152  1  0  0  0
 78153  1  0  0  0
 78 83  1  0  0  0
 79154  1  0  0  0
 79155  1  0  0  0
 79156  1  0  0  0
 79 84  1  0  0  0
 80 84  1  0  0  0
 80157  1  0  0  0
 80158  1  0  0  0
 81 82  1  0  0  0
 81 84  1  0  0  0
 81159  1  0  0  0
 81160  1  0  0  0
 82161  1  0  0  0
 82162  1  0  0  0
 83 86  1  0  0  0
 83163  1  0  0  0
 84164  1  0  0  0
 85165  1  0  0  0
 86166  1  0  0  0
 86167  1  0  0  0
 86168  1  0  0  0
M  CHG  1  86   1
M  ISO  4   1 100  68 101  82 101  85 100
M  END
> <chiral flag>
0

> <version>
0

> <s_m_source_file>
/data/baiqing/PycharmProjects/Reinvent-master-3.2/result/LINK_invent/BTK/process_docking_weight1_custom_sum_contain_oxygen_bond_distance_aromatic_linkinvent_7_9_3/rearranged_h_0117.sdf

> <i_m_source_file_index>
23

> <r_mmod_Potential_Energy-OPLS-2005>
-81.8889007568359

> <r_mmod_Stretch_Energy-OPLS-2005>
87.6540985107422

> <r_mmod_Bend_Energy-OPLS-2005>
162.755447387695

> <r_mmod_Torsional_Energy-OPLS-2005>
271.589416503906

> <r_mmod_Improper_Torsional_Energy-OPLS-2005>
13.7248048782349

> <r_mmod_Van_der_Waal_Energy-OPLS-2005>
174.609436035156

> <r_mmod_Electrostatic_Energy-OPLS-2005>
-375.713714599609

> <r_mmod_Solvation_Energy-OPLS-2005>
-468.467864990234

> <b_mmod_Minimization_Converged-OPLS-2005>
0

> <r_mmod_RMS_Derivative-OPLS-2005>
2.765709400177

$$$$
23
                    3D
 Structure written by MMmdl.
159168  0  0  1  0            999 V2000
  -30.6348  -14.5284   20.5221 C   0  0  0  0  0  0
  -30.4307  -12.3230   19.4333 C   0  0  0  0  0  0
  -29.5029  -12.5113   18.2115 C   0  0  0  0  0  0
  -28.0210  -12.3674   18.6196 C   0  0  0  0  0  0
  -27.6599  -13.2029   19.8783 C   0  0  2  0  0  0
  -28.7020  -12.9939   21.0028 C   0  0  0  0  0  0
  -25.2608  -13.8158   20.5722 C   0  0  0  0  0  0
  -24.1849  -13.0438   20.9180 C   0  0  0  0  0  0
  -24.6376  -11.6895   20.8722 C   0  0  0  0  0  0
  -23.9038  -10.4282   21.0384 C   0  0  0  0  0  0
  -24.3596   -9.4200   21.9174 C   0  0  0  0  0  0
  -23.6275   -8.2255   22.0747 C   0  0  0  0  0  0
  -22.4264   -8.0274   21.3544 C   0  0  0  0  0  0
  -21.9887   -9.0229   20.4640 C   0  0  0  0  0  0
  -22.7208  -10.2115   20.3040 C   0  0  0  0  0  0
  -21.6851   -6.0725   22.5276 C   0  0  0  0  0  0
  -21.3993   -6.5632   23.8202 C   0  0  0  0  0  0
  -21.3662   -5.6789   24.9172 C   0  0  0  0  0  0
  -21.6050   -4.3047   24.7224 C   0  0  0  0  0  0
  -21.8819   -3.8142   23.4350 C   0  0  0  0  0  0
  -21.9189   -4.6960   22.3408 C   0  0  0  0  0  0
  -22.7879  -13.5252   21.1850 C   0  0  0  0  0  0
  -22.1661   -4.2155   21.0988 F   0  0  0  0  0  0
  -21.5648   -3.4535   25.7736 F   0  0  0  0  0  0
  -30.0260  -13.3132   20.4447 N   0  0  0  0  0  0
  -26.3009  -12.9291   20.3387 N   0  0  0  0  0  0
  -25.9305  -11.6456   20.5777 N   0  0  0  0  0  0
  -22.0501  -12.8238   22.0389 N   0  0  0  0  0  0
  -25.4377  -15.1876   20.4164 N   0  0  0  0  0  0
  -31.7813  -14.7295   20.1061 O   0  0  0  0  0  0
  -21.6635   -6.8866   21.4234 O   0  0  0  0  0  0
  -22.3571  -14.5583   20.6724 O   0  0  0  0  0  0
  -24.6179  -31.8659   23.2066 C   0  0  0  0  0  0
  -25.9066  -32.4812   23.8382 C   0  0  1  0  0  0
  -27.2413  -27.4157   20.1088 C   0  0  0  0  0  0
  -25.5934  -33.8611   24.2335 N   0  0  0  0  0  0
  -23.4088  -30.4891   21.5438 C   0  0  2  0  0  0
  -24.8607  -28.9513   20.1124 C   0  0  0  0  0  0
  -22.7428  -29.4661   22.4931 C   0  0  0  0  0  0
  -18.0276  -28.1376   22.8479 C   0  0  0  0  0  0
  -24.1447  -36.7294   23.2585 C   0  0  0  0  0  0
  -25.9375  -30.8289   21.3644 C   0  0  0  0  0  0
  -26.0199  -29.4581   20.7161 C   0  0  0  0  0  0
  -27.2141  -28.6939   20.7182 C   0  0  0  0  0  0
  -26.0724  -26.9341   19.4869 C   0  0  0  0  0  0
  -24.8846  -27.6903   19.4876 C   0  0  0  0  0  0
  -23.6218  -29.8185   20.1597 C   0  0  0  0  0  0
  -25.4030  -36.3112   24.0353 C   0  0  1  0  0  0
  -20.5872  -28.3673   23.1286 C   0  0  2  0  0  0
  -20.6736  -26.9398   22.5399 C   0  0  0  0  0  0
  -19.5730  -26.6389   21.5192 C   0  0  0  0  0  0
  -18.1923  -26.7926   22.1614 C   0  0  0  0  0  0
  -19.1530  -28.8833   23.2897 C   0  0  0  0  0  0
  -18.9464  -30.1437   23.8930 C   0  0  0  0  0  0
  -17.6458  -30.6576   24.0567 C   0  0  0  0  0  0
  -25.9051  -34.9489   23.5146 C   0  0  0  0  0  0
  -16.5345  -29.9083   23.6309 C   0  0  0  0  0  0
  -16.7264  -28.6494   23.0335 C   0  0  0  0  0  0
  -26.4469  -31.6569   25.0708 C   0  0  0  0  0  0
  -25.3735  -31.3641   26.1454 C   0  0  0  0  0  0
  -27.0272  -30.2999   24.6074 C   0  0  0  0  0  0
  -27.6071  -32.4235   25.7480 C   0  0  0  0  0  0
  -27.5684  -37.1597   24.8306 C   0  0  0  0  0  0
  -21.4148  -29.3059   22.3691 N   0  0  0  0  0  0
  -26.4122  -37.3919   23.9685 N   0  0  0  0  0  0
  -24.6721  -31.0754   22.0969 N   0  0  0  0  0  0
  -23.4176  -28.8167   23.2966 O   0  0  0  0  0  0
  -28.3586  -26.6043   20.1064 O   0  0  0  0  0  0
  -26.5635  -34.8952   22.4730 O   0  0  0  0  0  0
  -23.5384  -32.1379   23.7502 O   0  0  0  0  0  0
  -30.0901  -22.3009   21.6814 C   0  0  0  0  0  0
  -29.9366  -23.7024   21.6904 C   0  0  0  0  0  0
  -28.0394  -22.1679   20.4496 C   0  0  0  0  0  0
  -29.1154  -21.4782   21.0677 C   0  0  0  0  0  0
  -28.8069  -24.2889   21.0827 C   0  0  0  0  0  0
  -30.5283  -19.3070   21.6019 C   0  0  0  0  0  0
  -28.6785  -19.1516   19.9015 C   0  0  0  0  0  0
  -30.4810  -17.7685   21.8174 C   0  0  0  0  0  0
  -28.6238  -17.6107   20.1153 C   0  0  0  0  0  0
  -29.1575  -19.9183   21.1700 C   0  0  2  0  0  0
  -29.9706  -16.9935   20.5819 C   0  0  2  0  0  0
  -28.4942  -25.7893   21.2909 C   0  0  0  0  0  0
  -27.8882  -23.5198   20.4493 N   0  0  0  0  0  0
  -29.8114  -15.5469   20.8655 N   0  0  0  0  0  0
  -31.4754  -12.4413   19.1378 H   0  0  0  0  0  0
  -30.3491  -11.3099   19.8320 H   0  0  0  0  0  0
  -29.7514  -11.7875   17.4333 H   0  0  0  0  0  0
  -29.6684  -13.4980   17.7746 H   0  0  0  0  0  0
  -27.8321  -11.3107   18.8114 H   0  0  0  0  0  0
  -27.3723  -12.6454   17.7881 H   0  0  0  0  0  0
  -27.6984  -14.2491   19.5776 H   0  0  0  0  0  0
  -28.6887  -11.9627   21.3598 H   0  0  0  0  0  0
  -28.4695  -13.6061   21.8745 H   0  0  0  0  0  0
  -25.2726   -9.5706   22.4759 H   0  0  0  0  0  0
  -23.9987   -7.4655   22.7464 H   0  0  0  0  0  0
  -21.0833   -8.8702   19.8950 H   0  0  0  0  0  0
  -22.3633  -10.9634   19.6152 H   0  0  0  0  0  0
  -21.1961   -7.6129   23.9725 H   0  0  0  0  0  0
  -21.1488   -6.0503   25.9077 H   0  0  0  0  0  0
  -22.0604   -2.7608   23.2837 H   0  0  0  0  0  0
  -22.4055  -11.9847   22.4731 H   0  0  0  0  0  0
  -21.1136  -13.1292   22.2606 H   0  0  0  0  0  0
  -24.6817  -15.8474   20.5613 H   0  0  0  0  0  0
  -26.2947  -15.6314   20.1115 H   0  0  0  0  0  0
  -26.7158  -32.5503   23.1178 H   0  0  0  0  0  0
  -25.0050  -33.9777   25.0450 H   0  0  0  0  0  0
  -22.7016  -31.3071   21.3952 H   0  0  0  0  0  0
  -23.3933  -35.9389   23.2729 H   0  0  0  0  0  0
  -24.3730  -36.9462   22.2144 H   0  0  0  0  0  0
  -23.6805  -37.6151   23.6903 H   0  0  0  0  0  0
  -26.0454  -31.5905   20.5914 H   0  0  0  0  0  0
  -26.8266  -30.8934   21.9785 H   0  0  0  0  0  0
  -28.1049  -29.0748   21.1998 H   0  0  0  0  0  0
  -26.0892  -25.9614   19.0153 H   0  0  0  0  0  0
  -23.9986  -27.3049   19.0011 H   0  0  0  0  0  0
  -23.7391  -30.5900   19.3983 H   0  0  0  0  0  0
  -22.7428  -29.2467   19.8567 H   0  0  0  0  0  0
  -25.1117  -36.1864   25.0808 H   0  0  0  0  0  0
  -21.0005  -28.3232   24.1388 H   0  0  0  0  0  0
  -20.5583  -26.2298   23.3600 H   0  0  0  0  0  0
  -21.6598  -26.7380   22.1213 H   0  0  0  0  0  0
  -19.6885  -25.6301   21.1233 H   0  0  0  0  0  0
  -19.6679  -27.3188   20.6717 H   0  0  0  0  0  0
  -17.4164  -26.6689   21.4031 H   0  0  0  0  0  0
  -18.0341  -26.0052   22.8995 H   0  0  0  0  0  0
  -19.7935  -30.7252   24.2331 H   0  0  0  0  0  0
  -17.4993  -31.6268   24.5157 H   0  0  0  0  0  0
  -15.5351  -30.2993   23.7596 H   0  0  0  0  0  0
  -15.8661  -28.0826   22.7041 H   0  0  0  0  0  0
  -24.5953  -30.6949   25.7769 H   0  0  0  0  0  0
  -24.8872  -32.2767   26.4899 H   0  0  0  0  0  0
  -25.8126  -30.8801   27.0190 H   0  0  0  0  0  0
  -26.2802  -29.6760   24.1148 H   0  0  0  0  0  0
  -27.4039  -29.7237   25.4533 H   0  0  0  0  0  0
  -27.8637  -30.4303   23.9211 H   0  0  0  0  0  0
  -27.2751  -33.3532   26.2107 H   0  0  0  0  0  0
  -28.3877  -32.6790   25.0302 H   0  0  0  0  0  0
  -28.0706  -31.8274   26.5350 H   0  0  0  0  0  0
  -28.2013  -38.0477   24.8534 H   0  0  0  0  0  0
  -28.1836  -36.3335   24.4707 H   0  0  0  0  0  0
  -27.2705  -36.9413   25.8573 H   0  0  0  0  0  0
  -20.9286  -29.8834   21.6972 H   0  0  0  0  0  0
  -25.9981  -38.2797   24.2406 H   0  0  0  0  0  0
  -30.9398  -21.8758   22.1920 H   0  0  0  0  0  0
  -30.6571  -24.3169   22.2160 H   0  0  0  0  0  0
  -27.2338  -21.6305   19.9766 H   0  0  0  0  0  0
  -31.2939  -19.5404   20.8567 H   0  0  0  0  0  0
  -30.8705  -19.7404   22.5433 H   0  0  0  0  0  0
  -27.6780  -19.4729   19.6073 H   0  0  0  0  0  0
  -29.3231  -19.3870   19.0531 H   0  0  0  0  0  0
  -29.8453  -17.5532   22.6786 H   0  0  0  0  0  0
  -31.4807  -17.4122   22.0803 H   0  0  0  0  0  0
  -28.2885  -17.1314   19.1925 H   0  0  0  0  0  0
  -27.8488  -17.3972   20.8550 H   0  0  0  0  0  0
  -28.4473  -19.6830   21.9667 H   0  0  0  0  0  0
  -30.6919  -17.1130   19.7705 H   0  0  0  0  0  0
  -29.2752  -26.2355   21.9083 H   0  0  0  0  0  0
  -27.5881  -25.8337   21.8973 H   0  0  0  0  0  0
  -28.8935  -15.2514   21.1663 H   0  0  0  0  0  0
  1 25  1  0  0  0
  1 30  2  0  0  0
  1 84  1  0  0  0
  2  3  1  0  0  0
  2 25  1  0  0  0
  2 85  1  0  0  0
  2 86  1  0  0  0
  3  4  1  0  0  0
  3 87  1  0  0  0
  3 88  1  0  0  0
  4  5  1  0  0  0
  4 89  1  0  0  0
  4 90  1  0  0  0
  5  6  1  0  0  0
  5 26  1  0  0  0
  5 91  1  0  0  0
  6 25  1  0  0  0
  6 92  1  0  0  0
  6 93  1  0  0  0
  7  8  2  0  0  0
  7 26  1  0  0  0
  7 29  1  0  0  0
  8  9  1  0  0  0
  8 22  1  0  0  0
  9 10  1  0  0  0
  9 27  2  0  0  0
 10 11  2  0  0  0
 10 15  1  0  0  0
 11 12  1  0  0  0
 11 94  1  0  0  0
 12 13  2  0  0  0
 12 95  1  0  0  0
 13 14  1  0  0  0
 13 31  1  0  0  0
 14 15  2  0  0  0
 14 96  1  0  0  0
 15 97  1  0  0  0
 16 17  2  0  0  0
 16 21  1  0  0  0
 16 31  1  0  0  0
 17 18  1  0  0  0
 17 98  1  0  0  0
 18 19  2  0  0  0
 18 99  1  0  0  0
 19 20  1  0  0  0
 19 24  1  0  0  0
 20 21  2  0  0  0
 20100  1  0  0  0
 21 23  1  0  0  0
 22 28  1  0  0  0
 22 32  2  0  0  0
 26 27  1  0  0  0
 28101  1  0  0  0
 28102  1  0  0  0
 29103  1  0  0  0
 29104  1  0  0  0
 33 34  1  0  0  0
 33 66  1  0  0  0
 33 70  2  0  0  0
 34 36  1  0  0  0
 34 59  1  0  0  0
 34105  1  0  0  0
 35 44  2  0  0  0
 35 45  1  0  0  0
 35 68  1  0  0  0
 36 56  1  0  0  0
 36106  1  0  0  0
 37 39  1  0  0  0
 37 47  1  0  0  0
 37 66  1  0  0  0
 37107  1  0  0  0
 38 43  2  0  0  0
 38 46  1  0  0  0
 38 47  1  0  0  0
 39 64  1  0  0  0
 39 67  2  0  0  0
 40 52  1  0  0  0
 40 53  2  0  0  0
 40 58  1  0  0  0
 41108  1  0  0  0
 41109  1  0  0  0
 41110  1  0  0  0
 41 48  1  0  0  0
 42 43  1  0  0  0
 42 66  1  0  0  0
 42111  1  0  0  0
 42112  1  0  0  0
 43 44  1  0  0  0
 44113  1  0  0  0
 45 46  2  0  0  0
 45114  1  0  0  0
 46115  1  0  0  0
 47116  1  0  0  0
 47117  1  0  0  0
 48 56  1  0  0  0
 48 65  1  0  0  0
 48118  1  0  0  0
 49 50  1  0  0  0
 49 53  1  0  0  0
 49 64  1  0  0  0
 49119  1  0  0  0
 50 51  1  0  0  0
 50120  1  0  0  0
 50121  1  0  0  0
 51 52  1  0  0  0
 51122  1  0  0  0
 51123  1  0  0  0
 52124  1  0  0  0
 52125  1  0  0  0
 53 54  1  0  0  0
 54 55  2  0  0  0
 54126  1  0  0  0
 55 57  1  0  0  0
 55127  1  0  0  0
 56 69  2  0  0  0
 57 58  2  0  0  0
 57128  1  0  0  0
 58129  1  0  0  0
 59 60  1  0  0  0
 59 61  1  0  0  0
 59 62  1  0  0  0
 60130  1  0  0  0
 60131  1  0  0  0
 60132  1  0  0  0
 61133  1  0  0  0
 61134  1  0  0  0
 61135  1  0  0  0
 62136  1  0  0  0
 62137  1  0  0  0
 62138  1  0  0  0
 63 65  1  0  0  0
 63139  1  0  0  0
 63140  1  0  0  0
 63141  1  0  0  0
 64142  1  0  0  0
 65143  1  0  0  0
 68 82  1  0  0  0
 71 72  2  0  0  0
 71 74  1  0  0  0
 71144  1  0  0  0
 72 75  1  0  0  0
 72145  1  0  0  0
 73 74  2  0  0  0
 73 83  1  0  0  0
 73146  1  0  0  0
 74 80  1  0  0  0
 75 82  1  0  0  0
 75 83  2  0  0  0
 76 78  1  0  0  0
 76 80  1  0  0  0
 76147  1  0  0  0
 76148  1  0  0  0
 77 79  1  0  0  0
 77 80  1  0  0  0
 77149  1  0  0  0
 77150  1  0  0  0
 78 81  1  0  0  0
 78151  1  0  0  0
 78152  1  0  0  0
 79 81  1  0  0  0
 79153  1  0  0  0
 79154  1  0  0  0
 80155  1  0  0  0
 81 84  1  0  0  0
 81156  1  0  0  0
 82157  1  0  0  0
 82158  1  0  0  0
 84159  1  0  0  0
M  ISO  4   1 100  68 101  82 101  84 100
M  END
> <chiral flag>
0

> <version>
0

> <s_m_source_file>
/data/baiqing/PycharmProjects/Reinvent-master-3.2/result/LINK_invent/BTK/process_docking_weight1_custom_sum_contain_oxygen_bond_distance_aromatic_linkinvent_7_9_3/rearranged_h_0117.sdf

> <i_m_source_file_index>
24

> <r_mmod_Potential_Energy-OPLS-2005>
-127.149742126465

> <r_mmod_Stretch_Energy-OPLS-2005>
48.1591873168945

> <r_mmod_Bend_Energy-OPLS-2005>
103.740798950195

> <r_mmod_Torsional_Energy-OPLS-2005>
255.845794677734

> <r_mmod_Improper_Torsional_Energy-OPLS-2005>
6.96788358688354

> <r_mmod_Van_der_Waal_Energy-OPLS-2005>
147.120758056641

> <r_mmod_Electrostatic_Energy-OPLS-2005>
-490.401977539062

> <r_mmod_Solvation_Energy-OPLS-2005>
-219.278106689453

> <b_mmod_Minimization_Converged-OPLS-2005>
0

> <r_mmod_RMS_Derivative-OPLS-2005>
4.25574254989624

$$$$
24
                    3D
 Structure written by MMmdl.
166174  0  0  1  0            999 V2000
  -30.7340  -14.4130   20.5837 C   0  0  0  0  0  0
  -30.4006  -12.2907   19.4017 C   0  0  0  0  0  0
  -29.4778  -12.5381   18.1947 C   0  0  0  0  0  0
  -28.0069  -12.3882   18.6161 C   0  0  0  0  0  0
  -27.6575  -13.2181   19.8793 C   0  0  2  0  0  0
  -28.6942  -12.9949   21.0031 C   0  0  0  0  0  0
  -25.2533  -13.8215   20.5705 C   0  0  0  0  0  0
  -24.1813  -13.0463   20.9156 C   0  0  0  0  0  0
  -24.6376  -11.6929   20.8675 C   0  0  0  0  0  0
  -23.9063  -10.4298   21.0330 C   0  0  0  0  0  0
  -24.3616   -9.4224   21.9133 C   0  0  0  0  0  0
  -23.6299   -8.2248   22.0718 C   0  0  0  0  0  0
  -22.4262   -8.0282   21.3524 C   0  0  0  0  0  0
  -21.9900   -9.0257   20.4622 C   0  0  0  0  0  0
  -22.7209  -10.2135   20.3018 C   0  0  0  0  0  0
  -21.6873   -6.0706   22.5264 C   0  0  0  0  0  0
  -21.4018   -6.5628   23.8187 C   0  0  0  0  0  0
  -21.3652   -5.6783   24.9151 C   0  0  0  0  0  0
  -21.6047   -4.3052   24.7220 C   0  0  0  0  0  0
  -21.8837   -3.8131   23.4353 C   0  0  0  0  0  0
  -21.9209   -4.6933   22.3395 C   0  0  0  0  0  0
  -22.7806  -13.5216   21.1884 C   0  0  0  0  0  0
  -22.1672   -4.2113   21.0969 F   0  0  0  0  0  0
  -21.5629   -3.4548   25.7741 F   0  0  0  0  0  0
  -30.0327  -13.2610   20.4441 N   0  0  0  0  0  0
  -26.2994  -12.9424   20.3361 N   0  0  0  0  0  0
  -25.9297  -11.6555   20.5690 N   0  0  0  0  0  0
  -22.0502  -12.8154   22.0453 N   0  0  0  0  0  0
  -25.4278  -15.1951   20.4242 N   0  0  0  0  0  0
  -31.8541  -14.5782   20.0978 O   0  0  0  0  0  0
  -21.6667   -6.8846   21.4205 O   0  0  0  0  0  0
  -22.3471  -14.5537   20.6773 O   0  0  0  0  0  0
  -24.6050  -31.8743   23.2165 C   0  0  0  0  0  0
  -25.8975  -32.4865   23.8453 C   0  0  1  0  0  0
  -27.2389  -27.4877   20.0719 C   0  0  0  0  0  0
  -25.5855  -33.8655   24.2390 N   0  0  0  0  0  0
  -23.3881  -30.5002   21.5553 C   0  0  2  0  0  0
  -24.8326  -28.9702   20.1201 C   0  0  0  0  0  0
  -22.7346  -29.4716   22.5039 C   0  0  0  0  0  0
  -18.0314  -28.1490   22.8291 C   0  0  0  0  0  0
  -24.1457  -36.7357   23.2632 C   0  0  0  0  0  0
  -25.9109  -30.8561   21.3595 C   0  0  0  0  0  0
  -25.9895  -29.4936   20.7084 C   0  0  0  0  0  0
  -27.1907  -28.7556   20.6878 C   0  0  0  0  0  0
  -26.0521  -26.9627   19.5008 C   0  0  0  0  0  0
  -24.8552  -27.6994   19.5224 C   0  0  0  0  0  0
  -23.5922  -29.8324   20.1678 C   0  0  0  0  0  0
  -25.4086  -36.3137   24.0332 C   0  0  1  0  0  0
  -20.5861  -28.3748   23.1491 C   0  0  2  0  0  0
  -20.6744  -26.9439   22.5680 C   0  0  0  0  0  0
  -19.6050  -26.6766   21.5041 C   0  0  0  0  0  0
  -18.2065  -26.8210   22.1149 C   0  0  0  0  0  0
  -19.1497  -28.8911   23.2921 C   0  0  0  0  0  0
  -18.9349  -30.1508   23.8948 C   0  0  0  0  0  0
  -17.6344  -30.6636   24.0437 C   0  0  0  0  0  0
  -25.9009  -34.9491   23.5153 C   0  0  0  0  0  0
  -16.5280  -29.9093   23.6110 C   0  0  0  0  0  0
  -16.7297  -28.6568   23.0074 C   0  0  0  0  0  0
  -26.4452  -31.6623   25.0752 C   0  0  0  0  0  0
  -25.3770  -31.3719   26.1543 C   0  0  0  0  0  0
  -27.0250  -30.3064   24.6114 C   0  0  0  0  0  0
  -27.6010  -32.4340   25.7542 C   0  0  0  0  0  0
  -27.5562  -37.1827   24.8457 C   0  0  0  0  0  0
  -21.4082  -29.3086   22.3831 N   0  0  0  0  0  0
  -26.4279  -37.3810   23.9384 N   0  0  0  0  0  0
  -24.6523  -31.0914   22.1019 N   0  0  0  0  0  0
  -23.4172  -28.8236   23.3018 O   0  0  0  0  0  0
  -28.4537  -26.8351   20.0471 O   0  0  0  0  0  0
  -26.5564  -34.8934   22.4712 O   0  0  0  0  0  0
  -23.5269  -32.1507   23.7598 O   0  0  0  0  0  0
  -28.4263  -17.7843   22.0895 C   0  0  0  0  0  0
  -27.5317  -18.8718   22.1527 C   0  0  0  0  0  0
  -27.7487  -19.9773   21.2961 C   0  0  0  0  0  0
  -29.5149  -17.8488   21.1989 C   0  0  0  0  0  0
  -28.8359  -19.9100   20.3799 C   0  0  0  0  0  0
  -26.3899  -18.8664   23.1587 C   0  0  0  0  0  0
  -29.1383  -20.9849   19.3488 C   0  0  0  0  0  0
  -27.2796  -22.6461   23.3003 C   0  0  0  0  0  0
  -30.5948  -16.7871   21.1617 C   0  0  0  0  0  0
  -28.0276  -24.7141   21.1083 C   0  0  0  0  0  0
  -27.2286  -23.4335   20.8535 C   0  0  0  0  0  0
  -28.4669  -25.4344   19.8186 C   0  0  0  0  0  0
  -27.5878  -22.3114   21.8321 C   0  0  2  0  0  0
  -29.6968  -18.8762   20.3492 N   0  0  0  0  0  0
  -26.9094  -21.0950   21.4176 N   0  0  0  0  0  0
  -30.0817  -15.4242   21.1679 N   0  0  0  0  0  0
  -31.4454  -12.3687   19.0949 H   0  0  0  0  0  0
  -30.2794  -11.2723   19.7683 H   0  0  0  0  0  0
  -29.7096  -11.8528   17.3810 H   0  0  0  0  0  0
  -29.6494  -13.5399   17.7949 H   0  0  0  0  0  0
  -27.8317  -11.3290   18.8127 H   0  0  0  0  0  0
  -27.3463  -12.6600   17.7935 H   0  0  0  0  0  0
  -27.7013  -14.2699   19.5912 H   0  0  0  0  0  0
  -28.6466  -11.9739   21.3861 H   0  0  0  0  0  0
  -28.4657  -13.6333   21.8566 H   0  0  0  0  0  0
  -25.2762   -9.5730   22.4700 H   0  0  0  0  0  0
  -24.0028   -7.4633   22.7439 H   0  0  0  0  0  0
  -21.0840   -8.8751   19.8937 H   0  0  0  0  0  0
  -22.3646  -10.9656   19.6136 H   0  0  0  0  0  0
  -21.2010   -7.6142   23.9681 H   0  0  0  0  0  0
  -21.1443   -6.0508   25.9046 H   0  0  0  0  0  0
  -22.0634   -2.7593   23.2855 H   0  0  0  0  0  0
  -22.4190  -11.9809   22.4795 H   0  0  0  0  0  0
  -21.1088  -13.1033   22.2731 H   0  0  0  0  0  0
  -24.6745  -15.8572   20.5627 H   0  0  0  0  0  0
  -26.3039  -15.6449   20.1862 H   0  0  0  0  0  0
  -26.7032  -32.5640   23.1204 H   0  0  0  0  0  0
  -24.9972  -33.9841   25.0525 H   0  0  0  0  0  0
  -22.6676  -31.3104   21.4220 H   0  0  0  0  0  0
  -23.3681  -35.9716   23.3340 H   0  0  0  0  0  0
  -24.3568  -36.8956   22.2041 H   0  0  0  0  0  0
  -23.7252  -37.6590   23.6645 H   0  0  0  0  0  0
  -26.0120  -31.6278   20.5938 H   0  0  0  0  0  0
  -26.7970  -30.9119   21.9779 H   0  0  0  0  0  0
  -28.0839  -29.1546   21.1486 H   0  0  0  0  0  0
  -26.0166  -25.9970   19.0257 H   0  0  0  0  0  0
  -23.9615  -27.2886   19.0718 H   0  0  0  0  0  0
  -23.6934  -30.6035   19.4037 H   0  0  0  0  0  0
  -22.7143  -29.2547   19.8733 H   0  0  0  0  0  0
  -25.1255  -36.2006   25.0824 H   0  0  0  0  0  0
  -20.9822  -28.3382   24.1673 H   0  0  0  0  0  0
  -20.5003  -26.2382   23.3837 H   0  0  0  0  0  0
  -21.6760  -26.7167   22.1932 H   0  0  0  0  0  0
  -19.7348  -25.6895   21.0611 H   0  0  0  0  0  0
  -19.7362  -27.3939   20.6894 H   0  0  0  0  0  0
  -17.4586  -26.7363   21.3225 H   0  0  0  0  0  0
  -18.0096  -26.0166   22.8220 H   0  0  0  0  0  0
  -19.7791  -30.7354   24.2414 H   0  0  0  0  0  0
  -17.4779  -31.6348   24.4950 H   0  0  0  0  0  0
  -15.5257  -30.3016   23.7215 H   0  0  0  0  0  0
  -15.8739  -28.0995   22.6521 H   0  0  0  0  0  0
  -24.5925  -30.7062   25.7947 H   0  0  0  0  0  0
  -24.8992  -32.2864   26.5063 H   0  0  0  0  0  0
  -25.8189  -30.8894   27.0267 H   0  0  0  0  0  0
  -26.2788  -29.6893   24.1096 H   0  0  0  0  0  0
  -27.3911  -29.7265   25.4600 H   0  0  0  0  0  0
  -27.8690  -30.4386   23.9331 H   0  0  0  0  0  0
  -27.2602  -33.3606   26.2190 H   0  0  0  0  0  0
  -28.3824  -32.6964   25.0392 H   0  0  0  0  0  0
  -28.0670  -31.8429   26.5448 H   0  0  0  0  0  0
  -28.2595  -38.0103   24.7472 H   0  0  0  0  0  0
  -28.1030  -36.2639   24.6296 H   0  0  0  0  0  0
  -27.2290  -37.1516   25.8861 H   0  0  0  0  0  0
  -20.9205  -29.8806   21.7055 H   0  0  0  0  0  0
  -26.0176  -38.2886   24.1367 H   0  0  0  0  0  0
  -28.3174  -16.9438   22.7563 H   0  0  0  0  0  0
  -26.2779  -17.8886   23.6256 H   0  0  0  0  0  0
  -25.4440  -19.0980   22.6733 H   0  0  0  0  0  0
  -26.5577  -19.6089   23.9403 H   0  0  0  0  0  0
  -29.6046  -21.8540   19.8111 H   0  0  0  0  0  0
  -28.2245  -21.2851   18.8340 H   0  0  0  0  0  0
  -29.8346  -20.6155   18.5938 H   0  0  0  0  0  0
  -27.5451  -21.8205   23.9605 H   0  0  0  0  0  0
  -26.2312  -22.8945   23.4667 H   0  0  0  0  0  0
  -27.8706  -23.5000   23.6389 H   0  0  0  0  0  0
  -31.2775  -16.9287   22.0031 H   0  0  0  0  0  0
  -31.1902  -16.9552   20.2599 H   0  0  0  0  0  0
  -28.9211  -24.5008   21.6942 H   0  0  0  0  0  0
  -27.4116  -25.3634   21.7282 H   0  0  0  0  0  0
  -27.4151  -23.0936   19.8373 H   0  0  0  0  0  0
  -26.1613  -23.6523   20.8854 H   0  0  0  0  0  0
  -27.8991  -25.1588   18.9335 H   0  0  0  0  0  0
  -29.4890  -25.1391   19.5841 H   0  0  0  0  0  0
  -28.6672  -22.1638   21.7820 H   0  0  0  0  0  0
  -26.0818  -20.9135   21.9772 H   0  0  0  0  0  0
  -29.1482  -15.2728   21.5169 H   0  0  0  0  0  0
  1 25  1  0  0  0
  1 30  2  0  0  0
  1 86  1  0  0  0
  2  3  1  0  0  0
  2 25  1  0  0  0
  2 87  1  0  0  0
  2 88  1  0  0  0
  3  4  1  0  0  0
  3 89  1  0  0  0
  3 90  1  0  0  0
  4  5  1  0  0  0
  4 91  1  0  0  0
  4 92  1  0  0  0
  5  6  1  0  0  0
  5 26  1  0  0  0
  5 93  1  0  0  0
  6 25  1  0  0  0
  6 94  1  0  0  0
  6 95  1  0  0  0
  7  8  2  0  0  0
  7 26  1  0  0  0
  7 29  1  0  0  0
  8  9  1  0  0  0
  8 22  1  0  0  0
  9 10  1  0  0  0
  9 27  2  0  0  0
 10 11  2  0  0  0
 10 15  1  0  0  0
 11 12  1  0  0  0
 11 96  1  0  0  0
 12 13  2  0  0  0
 12 97  1  0  0  0
 13 14  1  0  0  0
 13 31  1  0  0  0
 14 15  2  0  0  0
 14 98  1  0  0  0
 15 99  1  0  0  0
 16 17  2  0  0  0
 16 21  1  0  0  0
 16 31  1  0  0  0
 17 18  1  0  0  0
 17100  1  0  0  0
 18 19  2  0  0  0
 18101  1  0  0  0
 19 20  1  0  0  0
 19 24  1  0  0  0
 20 21  2  0  0  0
 20102  1  0  0  0
 21 23  1  0  0  0
 22 28  1  0  0  0
 22 32  2  0  0  0
 26 27  1  0  0  0
 28103  1  0  0  0
 28104  1  0  0  0
 29105  1  0  0  0
 29106  1  0  0  0
 33 34  1  0  0  0
 33 66  1  0  0  0
 33 70  2  0  0  0
 34 36  1  0  0  0
 34 59  1  0  0  0
 34107  1  0  0  0
 35 44  2  0  0  0
 35 45  1  0  0  0
 35 68  1  0  0  0
 36 56  1  0  0  0
 36108  1  0  0  0
 37 39  1  0  0  0
 37 47  1  0  0  0
 37 66  1  0  0  0
 37109  1  0  0  0
 38 43  2  0  0  0
 38 46  1  0  0  0
 38 47  1  0  0  0
 39 64  1  0  0  0
 39 67  2  0  0  0
 40 52  1  0  0  0
 40 53  2  0  0  0
 40 58  1  0  0  0
 41110  1  0  0  0
 41111  1  0  0  0
 41112  1  0  0  0
 41 48  1  0  0  0
 42 43  1  0  0  0
 42 66  1  0  0  0
 42113  1  0  0  0
 42114  1  0  0  0
 43 44  1  0  0  0
 44115  1  0  0  0
 45 46  2  0  0  0
 45116  1  0  0  0
 46117  1  0  0  0
 47118  1  0  0  0
 47119  1  0  0  0
 48 56  1  0  0  0
 48 65  1  0  0  0
 48120  1  0  0  0
 49 50  1  0  0  0
 49 53  1  0  0  0
 49 64  1  0  0  0
 49121  1  0  0  0
 50 51  1  0  0  0
 50122  1  0  0  0
 50123  1  0  0  0
 51 52  1  0  0  0
 51124  1  0  0  0
 51125  1  0  0  0
 52126  1  0  0  0
 52127  1  0  0  0
 53 54  1  0  0  0
 54 55  2  0  0  0
 54128  1  0  0  0
 55 57  1  0  0  0
 55129  1  0  0  0
 56 69  2  0  0  0
 57 58  2  0  0  0
 57130  1  0  0  0
 58131  1  0  0  0
 59 60  1  0  0  0
 59 61  1  0  0  0
 59 62  1  0  0  0
 60132  1  0  0  0
 60133  1  0  0  0
 60134  1  0  0  0
 61135  1  0  0  0
 61136  1  0  0  0
 61137  1  0  0  0
 62138  1  0  0  0
 62139  1  0  0  0
 62140  1  0  0  0
 63 65  1  0  0  0
 63141  1  0  0  0
 63142  1  0  0  0
 63143  1  0  0  0
 64144  1  0  0  0
 65145  1  0  0  0
 68 82  1  0  0  0
 71 72  2  0  0  0
 71 74  1  0  0  0
 71146  1  0  0  0
 72 73  1  0  0  0
 72 76  1  0  0  0
 73 75  2  0  0  0
 73 85  1  0  0  0
 74 79  1  0  0  0
 74 84  2  0  0  0
 75 77  1  0  0  0
 75 84  1  0  0  0
 76147  1  0  0  0
 76148  1  0  0  0
 76149  1  0  0  0
 77150  1  0  0  0
 77151  1  0  0  0
 77152  1  0  0  0
 78153  1  0  0  0
 78154  1  0  0  0
 78155  1  0  0  0
 78 83  1  0  0  0
 79 86  1  0  0  0
 79156  1  0  0  0
 79157  1  0  0  0
 80 81  1  0  0  0
 80 82  1  0  0  0
 80158  1  0  0  0
 80159  1  0  0  0
 81 83  1  0  0  0
 81160  1  0  0  0
 81161  1  0  0  0
 82162  1  0  0  0
 82163  1  0  0  0
 83 85  1  0  0  0
 83164  1  0  0  0
 85165  1  0  0  0
 86166  1  0  0  0
M  ISO  4   1 100  68 101  82 101  86 100
M  END
> <chiral flag>
0

> <version>
0

> <s_m_source_file>
/data/baiqing/PycharmProjects/Reinvent-master-3.2/result/LINK_invent/BTK/process_docking_weight1_custom_sum_contain_oxygen_bond_distance_aromatic_linkinvent_7_9_3/rearranged_h_0117.sdf

> <i_m_source_file_index>
25

> <r_mmod_Potential_Energy-OPLS-2005>
-358.061767578125

> <r_mmod_Stretch_Energy-OPLS-2005>
31.9279899597168

> <r_mmod_Bend_Energy-OPLS-2005>
98.5983276367188

> <r_mmod_Torsional_Energy-OPLS-2005>
217.198303222656

> <r_mmod_Improper_Torsional_Energy-OPLS-2005>
8.2937479019165

> <r_mmod_Van_der_Waal_Energy-OPLS-2005>
170.37825012207

> <r_mmod_Electrostatic_Energy-OPLS-2005>
-678.438415527344

> <r_mmod_Solvation_Energy-OPLS-2005>
-218.249176025391

> <b_mmod_Minimization_Converged-OPLS-2005>
0

> <r_mmod_RMS_Derivative-OPLS-2005>
6.23742055892944

$$$$
25
                    3D
 Structure written by MMmdl.
163172  0  0  1  0            999 V2000
  -30.5744  -14.8859   20.3864 C   0  0  0  0  0  0
  -30.4359  -12.5278   19.4829 C   0  0  0  0  0  0
  -29.5078  -12.4328   18.2499 C   0  0  0  0  0  0
  -28.0347  -12.2877   18.6718 C   0  0  0  0  0  0
  -27.6255  -13.2407   19.8268 C   0  0  2  0  0  0
  -28.6768  -13.2728   20.9522 C   0  0  0  0  0  0
  -25.2443  -13.8223   20.5698 C   0  0  0  0  0  0
  -24.1746  -13.0456   20.9198 C   0  0  0  0  0  0
  -24.6347  -11.6935   20.8715 C   0  0  0  0  0  0
  -23.9051  -10.4302   21.0373 C   0  0  0  0  0  0
  -24.3608   -9.4228   21.9158 C   0  0  0  0  0  0
  -23.6296   -8.2260   22.0748 C   0  0  0  0  0  0
  -22.4282   -8.0275   21.3548 C   0  0  0  0  0  0
  -21.9900   -9.0237   20.4654 C   0  0  0  0  0  0
  -22.7209  -10.2121   20.3047 C   0  0  0  0  0  0
  -21.6889   -6.0710   22.5261 C   0  0  0  0  0  0
  -21.4039   -6.5629   23.8187 C   0  0  0  0  0  0
  -21.3651   -5.6783   24.9151 C   0  0  0  0  0  0
  -21.6052   -4.3049   24.7215 C   0  0  0  0  0  0
  -21.8826   -3.8133   23.4343 C   0  0  0  0  0  0
  -21.9212   -4.6936   22.3390 C   0  0  0  0  0  0
  -22.7771  -13.5218   21.1893 C   0  0  0  0  0  0
  -22.1667   -4.2112   21.0968 F   0  0  0  0  0  0
  -21.5620   -3.4538   25.7734 F   0  0  0  0  0  0
  -29.9468  -13.6494   20.3246 N   0  0  0  0  0  0
  -26.2867  -12.9449   20.3249 N   0  0  0  0  0  0
  -25.9281  -11.6590   20.5750 N   0  0  0  0  0  0
  -22.0471  -12.8160   22.0450 N   0  0  0  0  0  0
  -25.4151  -15.1938   20.4123 N   0  0  0  0  0  0
  -31.8061  -14.9102   20.2954 O   0  0  0  0  0  0
  -21.6685   -6.8842   21.4224 O   0  0  0  0  0  0
  -22.3414  -14.5507   20.6743 O   0  0  0  0  0  0
  -24.6385  -31.8495   23.1942 C   0  0  0  0  0  0
  -25.9172  -32.4727   23.8310 C   0  0  1  0  0  0
  -27.2092  -27.1853   20.1482 C   0  0  0  0  0  0
  -25.5934  -33.8538   24.2221 N   0  0  0  0  0  0
  -23.4390  -30.4711   21.5418 C   0  0  2  0  0  0
  -24.8842  -28.9044   20.1133 C   0  0  0  0  0  0
  -22.7530  -29.4575   22.4918 C   0  0  0  0  0  0
  -18.0303  -28.1380   22.8490 C   0  0  0  0  0  0
  -24.1492  -36.7269   23.2649 C   0  0  0  0  0  0
  -25.9921  -30.7347   21.3893 C   0  0  0  0  0  0
  -26.0602  -29.3532   20.7272 C   0  0  0  0  0  0
  -27.2268  -28.5098   20.7247 C   0  0  0  0  0  0
  -26.0135  -26.8255   19.4926 C   0  0  0  0  0  0
  -24.8702  -27.6526   19.4799 C   0  0  0  0  0  0
  -23.6594  -29.8027   20.1599 C   0  0  0  0  0  0
  -25.4125  -36.3069   24.0334 C   0  0  1  0  0  0
  -20.5906  -28.3697   23.1261 C   0  0  2  0  0  0
  -20.6796  -26.9411   22.5417 C   0  0  0  0  0  0
  -19.5768  -26.6381   21.5225 C   0  0  0  0  0  0
  -18.1939  -26.7926   22.1627 C   0  0  0  0  0  0
  -19.1556  -28.8864   23.2869 C   0  0  0  0  0  0
  -18.9474  -30.1454   23.8896 C   0  0  0  0  0  0
  -17.6472  -30.6588   24.0553 C   0  0  0  0  0  0
  -25.9071  -34.9432   23.5100 C   0  0  0  0  0  0
  -16.5364  -29.9074   23.6337 C   0  0  0  0  0  0
  -16.7288  -28.6489   23.0374 C   0  0  0  0  0  0
  -26.4494  -31.6591   25.0748 C   0  0  0  0  0  0
  -25.3672  -31.3758   26.1438 C   0  0  0  0  0  0
  -27.0366  -30.3004   24.6323 C   0  0  0  0  0  0
  -27.6052  -32.4343   25.7496 C   0  0  0  0  0  0
  -27.5580  -37.1787   24.8464 C   0  0  0  0  0  0
  -21.4231  -29.3030   22.3644 N   0  0  0  0  0  0
  -26.4304  -37.3770   23.9405 N   0  0  0  0  0  0
  -24.7099  -31.0383   22.0973 N   0  0  0  0  0  0
  -23.4191  -28.8138   23.3070 O   0  0  0  0  0  0
  -28.2843  -26.2431   20.1783 O   0  0  0  0  0  0
  -26.5664  -34.8906   22.4673 O   0  0  0  0  0  0
  -23.5518  -32.1371   23.7184 O   0  0  0  0  0  0
  -30.3702  -21.3437   20.6414 C   0  0  0  0  0  0
  -28.1042  -20.9955   20.1089 C   0  0  0  0  0  0
  -29.1372  -21.9709   20.2888 C   0  0  0  0  0  0
  -30.5733  -19.9237   20.8138 C   0  0  0  0  0  0
  -28.2815  -19.5593   20.2957 C   0  0  0  0  0  0
  -29.5381  -18.9380   20.6596 C   0  0  0  0  0  0
  -30.2222  -17.3222   17.9948 C   0  0  0  0  0  0
  -29.9945  -15.8922   17.5910 C   0  0  0  0  0  0
  -29.3607  -16.4285   18.8668 C   0  0  0  0  0  0
  -31.9723  -19.4825   21.2094 C   0  0  0  0  0  0
  -27.0479  -18.6973   20.0965 C   0  0  0  0  0  0
  -29.0947  -23.5727   19.9419 C   0  0  0  0  0  0
  -29.7698  -17.3552   21.0821 C   0  0  0  0  0  0
  -28.0477  -24.7437   20.4478 C   0  0  0  0  0  0
  -29.8378  -16.0847   20.1822 N   0  0  0  0  0  0
  -31.4700  -12.6756   19.1673 H   0  0  0  0  0  0
  -30.4253  -11.5915   20.0433 H   0  0  0  0  0  0
  -29.7925  -11.5752   17.6383 H   0  0  0  0  0  0
  -29.6216  -13.3032   17.6105 H   0  0  0  0  0  0
  -27.8989  -11.2546   18.9914 H   0  0  0  0  0  0
  -27.3790  -12.4286   17.8122 H   0  0  0  0  0  0
  -27.5905  -14.2365   19.3864 H   0  0  0  0  0  0
  -28.7555  -12.3010   21.4423 H   0  0  0  0  0  0
  -28.4028  -14.0007   21.7180 H   0  0  0  0  0  0
  -25.2737   -9.5738   22.4731 H   0  0  0  0  0  0
  -24.0022   -7.4670   22.7475 H   0  0  0  0  0  0
  -21.0830   -8.8735   19.8960 H   0  0  0  0  0  0
  -22.3630  -10.9649   19.6164 H   0  0  0  0  0  0
  -21.2045   -7.6139   23.9663 H   0  0  0  0  0  0
  -21.1456   -6.0526   25.9044 H   0  0  0  0  0  0
  -22.0614   -2.7594   23.2856 H   0  0  0  0  0  0
  -22.4170  -11.9825   22.4775 H   0  0  0  0  0  0
  -21.1089  -13.1108   22.2743 H   0  0  0  0  0  0
  -24.6570  -15.8546   20.5366 H   0  0  0  0  0  0
  -26.2774  -15.6260   20.1098 H   0  0  0  0  0  0
  -26.7232  -32.5333   23.1031 H   0  0  0  0  0  0
  -25.0034  -33.9666   25.0340 H   0  0  0  0  0  0
  -22.7415  -31.2982   21.3931 H   0  0  0  0  0  0
  -23.3779  -35.9572   23.3311 H   0  0  0  0  0  0
  -24.3575  -36.8906   22.2062 H   0  0  0  0  0  0
  -23.7214  -37.6456   23.6681 H   0  0  0  0  0  0
  -26.1530  -31.4929   20.6217 H   0  0  0  0  0  0
  -26.8606  -30.7715   22.0364 H   0  0  0  0  0  0
  -28.1271  -28.8522   21.2162 H   0  0  0  0  0  0
  -25.9410  -25.8776   18.9833 H   0  0  0  0  0  0
  -23.9746  -27.3085   18.9815 H   0  0  0  0  0  0
  -23.7887  -30.5803   19.4059 H   0  0  0  0  0  0
  -22.7732  -29.2442   19.8517 H   0  0  0  0  0  0
  -25.1303  -36.1929   25.0836 H   0  0  0  0  0  0
  -20.9995  -28.3282   24.1385 H   0  0  0  0  0  0
  -20.5724  -26.2300   23.3629 H   0  0  0  0  0  0
  -21.6649  -26.7451   22.1177 H   0  0  0  0  0  0
  -19.6933  -25.6293   21.1255 H   0  0  0  0  0  0
  -19.6706  -27.3193   20.6759 H   0  0  0  0  0  0
  -17.4217  -26.6695   21.4018 H   0  0  0  0  0  0
  -18.0315  -26.0057   22.9014 H   0  0  0  0  0  0
  -19.7953  -30.7267   24.2262 H   0  0  0  0  0  0
  -17.5030  -31.6271   24.5139 H   0  0  0  0  0  0
  -15.5360  -30.2972   23.7678 H   0  0  0  0  0  0
  -15.8687  -28.0800   22.7111 H   0  0  0  0  0  0
  -24.5880  -30.7084   25.7735 H   0  0  0  0  0  0
  -24.8816  -32.2928   26.4797 H   0  0  0  0  0  0
  -25.7939  -30.8970   27.0266 H   0  0  0  0  0  0
  -26.2990  -29.6730   24.1316 H   0  0  0  0  0  0
  -27.3981  -29.7304   25.4890 H   0  0  0  0  0  0
  -27.8892  -30.4268   23.9644 H   0  0  0  0  0  0
  -27.2689  -33.3676   26.2020 H   0  0  0  0  0  0
  -28.3858  -32.6857   25.0302 H   0  0  0  0  0  0
  -28.0725  -31.8508   26.5444 H   0  0  0  0  0  0
  -28.2603  -38.0078   24.7520 H   0  0  0  0  0  0
  -28.1076  -36.2617   24.6289 H   0  0  0  0  0  0
  -27.2294  -37.1419   25.8864 H   0  0  0  0  0  0
  -20.9455  -29.8699   21.6776 H   0  0  0  0  0  0
  -26.0197  -38.2859   24.1385 H   0  0  0  0  0  0
  -31.2283  -21.9897   20.7680 H   0  0  0  0  0  0
  -27.1319  -21.3572   19.7994 H   0  0  0  0  0  0
  -29.7140  -18.1086   17.4394 H   0  0  0  0  0  0
  -31.2115  -17.5850   18.3648 H   0  0  0  0  0  0
  -30.8654  -15.2419   17.6419 H   0  0  0  0  0  0
  -29.3369  -15.7099   16.7418 H   0  0  0  0  0  0
  -28.2883  -16.5823   18.7961 H   0  0  0  0  0  0
  -32.7023  -20.2778   21.0532 H   0  0  0  0  0  0
  -32.2945  -18.6247   20.6193 H   0  0  0  0  0  0
  -32.0011  -19.2091   22.2648 H   0  0  0  0  0  0
  -26.1550  -19.2273   20.4282 H   0  0  0  0  0  0
  -27.0969  -17.7598   20.6483 H   0  0  0  0  0  0
  -26.9216  -18.4648   19.0397 H   0  0  0  0  0  0
  -29.0997  -23.6226   18.8529 H   0  0  0  0  0  0
  -30.0813  -23.9401   20.2257 H   0  0  0  0  0  0
  -28.9772  -17.1374   21.7977 H   0  0  0  0  0  0
  -30.6642  -17.3095   21.7010 H   0  0  0  0  0  0
  -27.9868  -24.6645   21.5337 H   0  0  0  0  0  0
  -27.0594  -24.4492   20.0990 H   0  0  0  0  0  0
  1 25  1  0  0  0
  1 30  2  0  0  0
  1 85  1  0  0  0
  2  3  1  0  0  0
  2 25  1  0  0  0
  2 86  1  0  0  0
  2 87  1  0  0  0
  3  4  1  0  0  0
  3 88  1  0  0  0
  3 89  1  0  0  0
  4  5  1  0  0  0
  4 90  1  0  0  0
  4 91  1  0  0  0
  5  6  1  0  0  0
  5 26  1  0  0  0
  5 92  1  0  0  0
  6 25  1  0  0  0
  6 93  1  0  0  0
  6 94  1  0  0  0
  7  8  2  0  0  0
  7 26  1  0  0  0
  7 29  1  0  0  0
  8  9  1  0  0  0
  8 22  1  0  0  0
  9 10  1  0  0  0
  9 27  2  0  0  0
 10 11  2  0  0  0
 10 15  1  0  0  0
 11 12  1  0  0  0
 11 95  1  0  0  0
 12 13  2  0  0  0
 12 96  1  0  0  0
 13 14  1  0  0  0
 13 31  1  0  0  0
 14 15  2  0  0  0
 14 97  1  0  0  0
 15 98  1  0  0  0
 16 17  2  0  0  0
 16 21  1  0  0  0
 16 31  1  0  0  0
 17 18  1  0  0  0
 17 99  1  0  0  0
 18 19  2  0  0  0
 18100  1  0  0  0
 19 20  1  0  0  0
 19 24  1  0  0  0
 20 21  2  0  0  0
 20101  1  0  0  0
 21 23  1  0  0  0
 22 28  1  0  0  0
 22 32  2  0  0  0
 26 27  1  0  0  0
 28102  1  0  0  0
 28103  1  0  0  0
 29104  1  0  0  0
 29105  1  0  0  0
 33 34  1  0  0  0
 33 66  1  0  0  0
 33 70  2  0  0  0
 34 36  1  0  0  0
 34 59  1  0  0  0
 34106  1  0  0  0
 35 44  2  0  0  0
 35 45  1  0  0  0
 35 68  1  0  0  0
 36 56  1  0  0  0
 36107  1  0  0  0
 37 39  1  0  0  0
 37 47  1  0  0  0
 37 66  1  0  0  0
 37108  1  0  0  0
 38 43  2  0  0  0
 38 46  1  0  0  0
 38 47  1  0  0  0
 39 64  1  0  0  0
 39 67  2  0  0  0
 40 52  1  0  0  0
 40 53  2  0  0  0
 40 58  1  0  0  0
 41109  1  0  0  0
 41110  1  0  0  0
 41111  1  0  0  0
 41 48  1  0  0  0
 42 43  1  0  0  0
 42 66  1  0  0  0
 42112  1  0  0  0
 42113  1  0  0  0
 43 44  1  0  0  0
 44114  1  0  0  0
 45 46  2  0  0  0
 45115  1  0  0  0
 46116  1  0  0  0
 47117  1  0  0  0
 47118  1  0  0  0
 48 56  1  0  0  0
 48 65  1  0  0  0
 48119  1  0  0  0
 49 50  1  0  0  0
 49 53  1  0  0  0
 49 64  1  0  0  0
 49120  1  0  0  0
 50 51  1  0  0  0
 50121  1  0  0  0
 50122  1  0  0  0
 51 52  1  0  0  0
 51123  1  0  0  0
 51124  1  0  0  0
 52125  1  0  0  0
 52126  1  0  0  0
 53 54  1  0  0  0
 54 55  2  0  0  0
 54127  1  0  0  0
 55 57  1  0  0  0
 55128  1  0  0  0
 56 69  2  0  0  0
 57 58  2  0  0  0
 57129  1  0  0  0
 58130  1  0  0  0
 59 60  1  0  0  0
 59 61  1  0  0  0
 59 62  1  0  0  0
 60131  1  0  0  0
 60132  1  0  0  0
 60133  1  0  0  0
 61134  1  0  0  0
 61135  1  0  0  0
 61136  1  0  0  0
 62137  1  0  0  0
 62138  1  0  0  0
 62139  1  0  0  0
 63 65  1  0  0  0
 63140  1  0  0  0
 63141  1  0  0  0
 63142  1  0  0  0
 64143  1  0  0  0
 65144  1  0  0  0
 68 84  1  0  0  0
 71 73  2  0  0  0
 71 74  1  0  0  0
 71145  1  0  0  0
 72 73  1  0  0  0
 72 75  2  0  0  0
 72146  1  0  0  0
 73 82  1  0  0  0
 74 76  2  0  0  0
 74 80  1  0  0  0
 75 76  1  0  0  0
 75 81  1  0  0  0
 76 83  1  0  0  0
 77 78  1  0  0  0
 77 79  1  0  0  0
 77147  1  0  0  0
 77148  1  0  0  0
 78 79  1  0  0  0
 78149  1  0  0  0
 78150  1  0  0  0
 79 85  1  0  0  0
 79151  1  0  0  0
 80152  1  0  0  0
 80153  1  0  0  0
 80154  1  0  0  0
 81155  1  0  0  0
 81156  1  0  0  0
 81157  1  0  0  0
 82 84  1  0  0  0
 82158  1  0  0  0
 82159  1  0  0  0
 83 85  1  0  0  0
 83160  1  0  0  0
 83161  1  0  0  0
 84162  1  0  0  0
 84163  1  0  0  0
M  ISO  4   1 100  68 101  84 101  85 100
M  END
> <chiral flag>
0

> <version>
0

> <s_m_source_file>
/data/baiqing/PycharmProjects/Reinvent-master-3.2/result/LINK_invent/BTK/process_docking_weight1_custom_sum_contain_oxygen_bond_distance_aromatic_linkinvent_7_9_3/rearranged_h_0117.sdf

> <i_m_source_file_index>
26

> <r_mmod_Potential_Energy-OPLS-2005>
634.454833984375

> <r_mmod_Stretch_Energy-OPLS-2005>
196.26025390625

> <r_mmod_Bend_Energy-OPLS-2005>
240.162292480469

> <r_mmod_Torsional_Energy-OPLS-2005>
404.482360839844

> <r_mmod_Improper_Torsional_Energy-OPLS-2005>
12.1500291824341

> <r_mmod_Van_der_Waal_Energy-OPLS-2005>
126.053909301758

> <r_mmod_Electrostatic_Energy-OPLS-2005>
-310.781036376953

> <r_mmod_Solvation_Energy-OPLS-2005>
-192.308670043945

> <b_mmod_Minimization_Converged-OPLS-2005>
0

> <r_mmod_RMS_Derivative-OPLS-2005>
2.64737439155579

$$$$
26
                    3D
 Structure written by MMmdl.
190198  0  0  1  0            999 V2000
  -30.7454  -14.4568   20.3452 C   0  0  0  0  0  0
  -30.4100  -12.2378   19.4418 C   0  0  0  0  0  0
  -29.4902  -12.3722   18.2141 C   0  0  0  0  0  0
  -28.0037  -12.3242   18.6259 C   0  0  0  0  0  0
  -27.6523  -13.2048   19.8598 C   0  0  2  0  0  0
  -28.7141  -13.0827   20.9756 C   0  0  0  0  0  0
  -25.2570  -13.8160   20.5726 C   0  0  0  0  0  0
  -24.1826  -13.0435   20.9233 C   0  0  0  0  0  0
  -24.6375  -11.6905   20.8791 C   0  0  0  0  0  0
  -23.9051  -10.4286   21.0427 C   0  0  0  0  0  0
  -24.3606   -9.4199   21.9189 C   0  0  0  0  0  0
  -23.6296   -8.2230   22.0740 C   0  0  0  0  0  0
  -22.4273   -8.0275   21.3536 C   0  0  0  0  0  0
  -21.9915   -9.0244   20.4636 C   0  0  0  0  0  0
  -22.7234  -10.2125   20.3058 C   0  0  0  0  0  0
  -21.6843   -6.0742   22.5285 C   0  0  0  0  0  0
  -21.3997   -6.5646   23.8217 C   0  0  0  0  0  0
  -21.3661   -5.6791   24.9177 C   0  0  0  0  0  0
  -21.6059   -4.3055   24.7226 C   0  0  0  0  0  0
  -21.8824   -3.8154   23.4342 C   0  0  0  0  0  0
  -21.9188   -4.6976   22.3406 C   0  0  0  0  0  0
  -22.7847  -13.5240   21.1885 C   0  0  0  0  0  0
  -22.1655   -4.2170   21.0986 F   0  0  0  0  0  0
  -21.5638   -3.4529   25.7726 F   0  0  0  0  0  0
  -30.0346  -13.3052   20.3723 N   0  0  0  0  0  0
  -26.3002  -12.9320   20.3408 N   0  0  0  0  0  0
  -25.9308  -11.6493   20.5857 N   0  0  0  0  0  0
  -22.0463  -12.8200   22.0395 N   0  0  0  0  0  0
  -25.4309  -15.1868   20.4091 N   0  0  0  0  0  0
  -31.9676  -14.4753   20.2952 O   0  0  0  0  0  0
  -21.6632   -6.8877   21.4239 O   0  0  0  0  0  0
  -22.3556  -14.5566   20.6746 O   0  0  0  0  0  0
  -24.6030  -31.8729   23.2133 C   0  0  0  0  0  0
  -25.8959  -32.4857   23.8408 C   0  0  1  0  0  0
  -27.2704  -27.5115   20.0995 C   0  0  0  0  0  0
  -25.5852  -33.8652   24.2359 N   0  0  0  0  0  0
  -23.3872  -30.4931   21.5498 C   0  0  2  0  0  0
  -24.8409  -28.9637   20.1161 C   0  0  0  0  0  0
  -22.7345  -29.4674   22.5015 C   0  0  0  0  0  0
  -18.0259  -28.1373   22.8493 C   0  0  0  0  0  0
  -24.1481  -36.7321   23.2636 C   0  0  0  0  0  0
  -25.9006  -30.8688   21.3466 C   0  0  0  0  0  0
  -25.9882  -29.5024   20.7076 C   0  0  0  0  0  0
  -27.1955  -28.7851   20.7081 C   0  0  0  0  0  0
  -26.1016  -26.9667   19.5237 C   0  0  0  0  0  0
  -24.8885  -27.6877   19.5245 C   0  0  0  0  0  0
  -23.5936  -29.8171   20.1648 C   0  0  0  0  0  0
  -25.4097  -36.3134   24.0351 C   0  0  1  0  0  0
  -20.5839  -28.3640   23.1354 C   0  0  2  0  0  0
  -20.6749  -26.9385   22.5435 C   0  0  0  0  0  0
  -19.5742  -26.6395   21.5212 C   0  0  0  0  0  0
  -18.1911  -26.7934   22.1606 C   0  0  0  0  0  0
  -19.1502  -28.8818   23.2929 C   0  0  0  0  0  0
  -18.9438  -30.1430   23.8937 C   0  0  0  0  0  0
  -17.6445  -30.6582   24.0574 C   0  0  0  0  0  0
  -25.9013  -34.9497   23.5155 C   0  0  0  0  0  0
  -16.5335  -29.9092   23.6322 C   0  0  0  0  0  0
  -16.7252  -28.6507   23.0335 C   0  0  0  0  0  0
  -26.4445  -31.6599   25.0687 C   0  0  0  0  0  0
  -25.3758  -31.3656   26.1466 C   0  0  0  0  0  0
  -27.0249  -30.3068   24.5950 C   0  0  0  0  0  0
  -27.6056  -32.4284   25.7434 C   0  0  0  0  0  0
  -27.5586  -37.1809   24.8457 C   0  0  0  0  0  0
  -21.4084  -29.3010   22.3757 N   0  0  0  0  0  0
  -26.4284  -37.3816   23.9423 N   0  0  0  0  0  0
  -24.6483  -31.0905   22.0983 N   0  0  0  0  0  0
  -23.4156  -28.8239   23.3040 O   0  0  0  0  0  0
  -28.4220  -26.7585   20.0574 O   0  0  0  0  0  0
  -26.5577  -34.8939   22.4715 O   0  0  0  0  0  0
  -23.5252  -32.1434   23.7594 O   0  0  0  0  0  0
  -31.9037  -22.5066   21.5086 C   0  0  0  0  0  0
  -31.7850  -23.8202   21.0203 C   0  0  0  0  0  0
  -30.0963  -21.8135   20.0286 C   0  0  0  0  0  0
  -31.0709  -21.4921   20.9981 C   0  0  0  0  0  0
  -29.9929  -23.1198   19.5075 C   0  0  0  0  0  0
  -30.8433  -24.1317   20.0113 C   0  0  0  0  0  0
  -27.5530  -23.0436   18.7837 C   0  0  0  0  0  0
  -29.4121  -22.7285   17.0752 C   0  0  0  0  0  0
  -28.6728  -15.2524   15.6057 C   0  0  0  0  0  0
  -27.9184  -17.0830   17.1577 C   0  0  0  0  0  0
  -32.5438  -17.8734   17.8272 C   0  0  0  0  0  0
  -33.3805  -17.6043   21.0296 C   0  0  0  0  0  0
  -31.2979  -20.0389   21.3835 C   0  0  0  0  0  0
  -30.2489  -16.0298   17.4224 C   0  0  0  0  0  0
  -31.7961  -19.2842   20.1431 C   0  0  0  0  0  0
  -29.6805  -27.4446   20.0357 C   0  0  0  0  0  0
  -30.7955  -26.4665   20.4037 C   0  0  0  0  0  0
  -28.9918  -23.4106   18.3871 C   0  0  0  0  0  0
  -28.7702  -15.8072   17.0363 C   0  0  0  0  0  0
  -30.5293  -16.5229   18.8718 C   0  0  2  0  0  0
  -31.9951  -17.0740   19.0425 C   0  0  2  0  0  0
  -30.0637  -15.5245   19.8863 N   0  0  0  0  0  0
  -32.0984  -17.8386   20.3222 N   0  3  1  0  0  0
  -30.7629  -25.3924   19.4749 O   0  0  0  0  0  0
  -31.4587  -12.2936   19.1393 H   0  0  0  0  0  0
  -30.2867  -11.2622   19.9157 H   0  0  0  0  0  0
  -29.6963  -11.5685   17.5064 H   0  0  0  0  0  0
  -29.7110  -13.2891   17.6803 H   0  0  0  0  0  0
  -27.7773  -11.2803   18.8448 H   0  0  0  0  0  0
  -27.3727  -12.5941   17.7786 H   0  0  0  0  0  0
  -27.6596  -14.2389   19.5308 H   0  0  0  0  0  0
  -28.6826  -12.0904   21.4300 H   0  0  0  0  0  0
  -28.5245  -13.8006   21.7767 H   0  0  0  0  0  0
  -25.2752   -9.5651   22.4763 H   0  0  0  0  0  0
  -24.0020   -7.4599   22.7422 H   0  0  0  0  0  0
  -21.0867   -8.8742   19.8922 H   0  0  0  0  0  0
  -22.3702  -10.9661   19.6159 H   0  0  0  0  0  0
  -21.1966   -7.6143   23.9727 H   0  0  0  0  0  0
  -21.1491   -6.0511   25.9082 H   0  0  0  0  0  0
  -22.0603   -2.7623   23.2818 H   0  0  0  0  0  0
  -22.4034  -11.9832   22.4774 H   0  0  0  0  0  0
  -21.1051  -13.1183   22.2547 H   0  0  0  0  0  0
  -24.6643  -15.8417   20.5162 H   0  0  0  0  0  0
  -26.2812  -15.6280   20.0865 H   0  0  0  0  0  0
  -26.7037  -32.5632   23.1197 H   0  0  0  0  0  0
  -25.0022  -33.9823   25.0519 H   0  0  0  0  0  0
  -22.6712  -31.3059   21.4109 H   0  0  0  0  0  0
  -23.3759  -35.9632   23.3281 H   0  0  0  0  0  0
  -24.3592  -36.8941   22.2051 H   0  0  0  0  0  0
  -23.7197  -37.6513   23.6647 H   0  0  0  0  0  0
  -25.9800  -31.6301   20.5688 H   0  0  0  0  0  0
  -26.7976  -30.9469   21.9474 H   0  0  0  0  0  0
  -28.0426  -29.2390   21.1963 H   0  0  0  0  0  0
  -26.1381  -25.9884   19.0651 H   0  0  0  0  0  0
  -24.0055  -27.2586   19.0711 H   0  0  0  0  0  0
  -23.6885  -30.5882   19.3995 H   0  0  0  0  0  0
  -22.7222  -29.2261   19.8772 H   0  0  0  0  0  0
  -25.1270  -36.2003   25.0842 H   0  0  0  0  0  0
  -20.9939  -28.3197   24.1474 H   0  0  0  0  0  0
  -20.5641  -26.2241   23.3608 H   0  0  0  0  0  0
  -21.6621  -26.7441   22.1230 H   0  0  0  0  0  0
  -19.6907  -25.6318   21.1210 H   0  0  0  0  0  0
  -19.6707  -27.3233   20.6765 H   0  0  0  0  0  0
  -17.4198  -26.6702   21.3988 H   0  0  0  0  0  0
  -18.0300  -26.0059   22.8977 H   0  0  0  0  0  0
  -19.7917  -30.7229   24.2326 H   0  0  0  0  0  0
  -17.5005  -31.6265   24.5168 H   0  0  0  0  0  0
  -15.5336  -30.3003   23.7636 H   0  0  0  0  0  0
  -15.8649  -28.0852   22.7018 H   0  0  0  0  0  0
  -24.5936  -30.6995   25.7811 H   0  0  0  0  0  0
  -24.8943  -32.2789   26.4967 H   0  0  0  0  0  0
  -25.8157  -30.8799   27.0184 H   0  0  0  0  0  0
  -26.2732  -29.6841   24.1085 H   0  0  0  0  0  0
  -27.4160  -29.7281   25.4326 H   0  0  0  0  0  0
  -27.8504  -30.4431   23.8959 H   0  0  0  0  0  0
  -27.2718  -33.3588   26.2037 H   0  0  0  0  0  0
  -28.3853  -32.6820   25.0241 H   0  0  0  0  0  0
  -28.0727  -31.8375   26.5319 H   0  0  0  0  0  0
  -28.2588  -38.0124   24.7539 H   0  0  0  0  0  0
  -28.1096  -36.2660   24.6228 H   0  0  0  0  0  0
  -27.2324  -37.1390   25.8865 H   0  0  0  0  0  0
  -20.9220  -29.8714   21.6988 H   0  0  0  0  0  0
  -26.0184  -38.2895   24.1449 H   0  0  0  0  0  0
  -32.6633  -22.2803   22.2447 H   0  0  0  0  0  0
  -32.4538  -24.5804   21.4007 H   0  0  0  0  0  0
  -29.4564  -21.0376   19.6338 H   0  0  0  0  0  0
  -27.2354  -23.6120   19.6589 H   0  0  0  0  0  0
  -27.4457  -21.9841   19.0156 H   0  0  0  0  0  0
  -26.8569  -23.2708   17.9756 H   0  0  0  0  0  0
  -30.4076  -23.0531   16.7684 H   0  0  0  0  0  0
  -28.7255  -22.9789   16.2659 H   0  0  0  0  0  0
  -29.4309  -21.6424   17.1682 H   0  0  0  0  0  0
  -27.6374  -15.0466   15.3316 H   0  0  0  0  0  0
  -29.2288  -14.3209   15.4965 H   0  0  0  0  0  0
  -29.0706  -15.9628   14.8785 H   0  0  0  0  0  0
  -26.8940  -16.8921   16.8395 H   0  0  0  0  0  0
  -28.3141  -17.8879   16.5369 H   0  0  0  0  0  0
  -27.8570  -17.4485   18.1823 H   0  0  0  0  0  0
  -32.7641  -17.2089   16.9917 H   0  0  0  0  0  0
  -33.4867  -18.3683   18.0610 H   0  0  0  0  0  0
  -31.8428  -18.6257   17.4627 H   0  0  0  0  0  0
  -33.3701  -18.0462   22.0260 H   0  0  0  0  0  0
  -34.2168  -18.0340   20.4782 H   0  0  0  0  0  0
  -33.5763  -16.5384   21.1534 H   0  0  0  0  0  0
  -30.3627  -19.6131   21.7477 H   0  0  0  0  0  0
  -32.0221  -19.9750   22.1945 H   0  0  0  0  0  0
  -30.6163  -16.7497   16.6957 H   0  0  0  0  0  0
  -30.8345  -15.1283   17.2376 H   0  0  0  0  0  0
  -32.6711  -19.7973   19.7392 H   0  0  0  0  0  0
  -31.0126  -19.3761   19.3929 H   0  0  0  0  0  0
  -29.8490  -27.8643   19.0434 H   0  0  0  0  0  0
  -29.7557  -28.2601   20.7502 H   0  0  0  0  0  0
  -30.6470  -26.1471   21.4369 H   0  0  0  0  0  0
  -31.7678  -26.9588   20.3516 H   0  0  0  0  0  0
  -28.9839  -24.4823   18.1913 H   0  0  0  0  0  0
  -28.3388  -15.0646   17.6959 H   0  0  0  0  0  0
  -29.8847  -17.3876   19.0189 H   0  0  0  0  0  0
  -32.6944  -16.2449   19.0658 H   0  0  0  0  0  0
  -29.0616  -15.4375   19.9673 H   0  0  0  0  0  0
  -31.3778  -17.4461   20.9109 H   0  0  0  0  0  0
  1 25  1  0  0  0
  1 30  2  0  0  0
  1 92  1  0  0  0
  2  3  1  0  0  0
  2 25  1  0  0  0
  2 95  1  0  0  0
  2 96  1  0  0  0
  3  4  1  0  0  0
  3 97  1  0  0  0
  3 98  1  0  0  0
  4  5  1  0  0  0
  4 99  1  0  0  0
  4100  1  0  0  0
  5  6  1  0  0  0
  5 26  1  0  0  0
  5101  1  0  0  0
  6 25  1  0  0  0
  6102  1  0  0  0
  6103  1  0  0  0
  7  8  2  0  0  0
  7 26  1  0  0  0
  7 29  1  0  0  0
  8  9  1  0  0  0
  8 22  1  0  0  0
  9 10  1  0  0  0
  9 27  2  0  0  0
 10 11  2  0  0  0
 10 15  1  0  0  0
 11 12  1  0  0  0
 11104  1  0  0  0
 12 13  2  0  0  0
 12105  1  0  0  0
 13 14  1  0  0  0
 13 31  1  0  0  0
 14 15  2  0  0  0
 14106  1  0  0  0
 15107  1  0  0  0
 16 17  2  0  0  0
 16 21  1  0  0  0
 16 31  1  0  0  0
 17 18  1  0  0  0
 17108  1  0  0  0
 18 19  2  0  0  0
 18109  1  0  0  0
 19 20  1  0  0  0
 19 24  1  0  0  0
 20 21  2  0  0  0
 20110  1  0  0  0
 21 23  1  0  0  0
 22 28  1  0  0  0
 22 32  2  0  0  0
 26 27  1  0  0  0
 28111  1  0  0  0
 28112  1  0  0  0
 29113  1  0  0  0
 29114  1  0  0  0
 33 34  1  0  0  0
 33 66  1  0  0  0
 33 70  2  0  0  0
 34 36  1  0  0  0
 34 59  1  0  0  0
 34115  1  0  0  0
 35 44  2  0  0  0
 35 45  1  0  0  0
 35 68  1  0  0  0
 36 56  1  0  0  0
 36116  1  0  0  0
 37 39  1  0  0  0
 37 47  1  0  0  0
 37 66  1  0  0  0
 37117  1  0  0  0
 38 43  2  0  0  0
 38 46  1  0  0  0
 38 47  1  0  0  0
 39 64  1  0  0  0
 39 67  2  0  0  0
 40 52  1  0  0  0
 40 53  2  0  0  0
 40 58  1  0  0  0
 41118  1  0  0  0
 41119  1  0  0  0
 41120  1  0  0  0
 41 48  1  0  0  0
 42 43  1  0  0  0
 42 66  1  0  0  0
 42121  1  0  0  0
 42122  1  0  0  0
 43 44  1  0  0  0
 44123  1  0  0  0
 45 46  2  0  0  0
 45124  1  0  0  0
 46125  1  0  0  0
 47126  1  0  0  0
 47127  1  0  0  0
 48 56  1  0  0  0
 48 65  1  0  0  0
 48128  1  0  0  0
 49 50  1  0  0  0
 49 53  1  0  0  0
 49 64  1  0  0  0
 49129  1  0  0  0
 50 51  1  0  0  0
 50130  1  0  0  0
 50131  1  0  0  0
 51 52  1  0  0  0
 51132  1  0  0  0
 51133  1  0  0  0
 52134  1  0  0  0
 52135  1  0  0  0
 53 54  1  0  0  0
 54 55  2  0  0  0
 54136  1  0  0  0
 55 57  1  0  0  0
 55137  1  0  0  0
 56 69  2  0  0  0
 57 58  2  0  0  0
 57138  1  0  0  0
 58139  1  0  0  0
 59 60  1  0  0  0
 59 61  1  0  0  0
 59 62  1  0  0  0
 60140  1  0  0  0
 60141  1  0  0  0
 60142  1  0  0  0
 61143  1  0  0  0
 61144  1  0  0  0
 61145  1  0  0  0
 62146  1  0  0  0
 62147  1  0  0  0
 62148  1  0  0  0
 63 65  1  0  0  0
 63149  1  0  0  0
 63150  1  0  0  0
 63151  1  0  0  0
 64152  1  0  0  0
 65153  1  0  0  0
 68 86  1  0  0  0
 71 72  2  0  0  0
 71 74  1  0  0  0
 71154  1  0  0  0
 72 76  1  0  0  0
 72155  1  0  0  0
 73 74  2  0  0  0
 73 75  1  0  0  0
 73156  1  0  0  0
 74 83  1  0  0  0
 75 76  2  0  0  0
 75 88  1  0  0  0
 76 94  1  0  0  0
 77157  1  0  0  0
 77158  1  0  0  0
 77159  1  0  0  0
 77 88  1  0  0  0
 78 88  1  0  0  0
 78160  1  0  0  0
 78161  1  0  0  0
 78162  1  0  0  0
 79163  1  0  0  0
 79164  1  0  0  0
 79165  1  0  0  0
 79 89  1  0  0  0
 80 89  1  0  0  0
 80166  1  0  0  0
 80167  1  0  0  0
 80168  1  0  0  0
 81169  1  0  0  0
 81170  1  0  0  0
 81171  1  0  0  0
 81 91  1  0  0  0
 82172  1  0  0  0
 82173  1  0  0  0
 82174  1  0  0  0
 82 93  1  0  0  0
 83 85  1  0  0  0
 83175  1  0  0  0
 83176  1  0  0  0
 84 89  1  0  0  0
 84177  1  0  0  0
 84178  1  0  0  0
 84 90  1  0  0  0
 85 93  1  0  0  0
 85179  1  0  0  0
 85180  1  0  0  0
 86 87  1  0  0  0
 86181  1  0  0  0
 86182  1  0  0  0
 87 94  1  0  0  0
 87183  1  0  0  0
 87184  1  0  0  0
 88185  1  0  0  0
 89186  1  0  0  0
 90 91  1  0  0  0
 90 92  1  0  0  0
 90187  1  0  0  0
 91 93  1  0  0  0
 91188  1  0  0  0
 92189  1  0  0  0
 93190  1  0  0  0
M  CHG  1  93   1
M  ISO  4   1 100  68 101  86 101  92 100
M  END
> <chiral flag>
0

> <version>
0

> <s_m_source_file>
/data/baiqing/PycharmProjects/Reinvent-master-3.2/result/LINK_invent/BTK/process_docking_weight1_custom_sum_contain_oxygen_bond_distance_aromatic_linkinvent_7_9_3/rearranged_h_0117.sdf

> <i_m_source_file_index>
27

> <r_mmod_Potential_Energy-OPLS-2005>
-48.6309432983398

> <r_mmod_Stretch_Energy-OPLS-2005>
40.7819633483887

> <r_mmod_Bend_Energy-OPLS-2005>
126.189117431641

> <r_mmod_Torsional_Energy-OPLS-2005>
317.461517333984

> <r_mmod_Improper_Torsional_Energy-OPLS-2005>
16.6919841766357

> <r_mmod_Van_der_Waal_Energy-OPLS-2005>
168.026626586914

> <r_mmod_Electrostatic_Energy-OPLS-2005>
-349.141540527344

> <r_mmod_Solvation_Energy-OPLS-2005>
-405.158081054688

> <b_mmod_Minimization_Converged-OPLS-2005>
0

> <r_mmod_RMS_Derivative-OPLS-2005>
2.3132541179657

$$$$
27
                    3D
 Structure written by MMmdl.
155163  0  0  1  0            999 V2000
  -30.4310  -15.2001   20.3790 C   0  0  0  0  0  0
  -30.4479  -12.7571   19.5238 C   0  0  0  0  0  0
  -29.5385  -12.5698   18.2828 C   0  0  0  0  0  0
  -28.0803  -12.3084   18.7027 C   0  0  0  0  0  0
  -27.6189  -13.2664   19.8295 C   0  0  2  0  0  0
  -28.6557  -13.3888   20.9673 C   0  0  0  0  0  0
  -25.2416  -13.8233   20.5723 C   0  0  0  0  0  0
  -24.1759  -13.0435   20.9254 C   0  0  0  0  0  0
  -24.6397  -11.6928   20.8760 C   0  0  0  0  0  0
  -23.9084  -10.4290   21.0406 C   0  0  0  0  0  0
  -24.3629   -9.4206   21.9184 C   0  0  0  0  0  0
  -23.6298   -8.2244   22.0754 C   0  0  0  0  0  0
  -22.4281   -8.0282   21.3545 C   0  0  0  0  0  0
  -21.9920   -9.0259   20.4649 C   0  0  0  0  0  0
  -22.7255  -10.2134   20.3056 C   0  0  0  0  0  0
  -21.6854   -6.0737   22.5278 C   0  0  0  0  0  0
  -21.4016   -6.5639   23.8213 C   0  0  0  0  0  0
  -21.3660   -5.6789   24.9174 C   0  0  0  0  0  0
  -21.6044   -4.3053   24.7222 C   0  0  0  0  0  0
  -21.8820   -3.8146   23.4344 C   0  0  0  0  0  0
  -21.9193   -4.6964   22.3401 C   0  0  0  0  0  0
  -22.7777  -13.5197   21.1899 C   0  0  0  0  0  0
  -22.1662   -4.2149   21.0978 F   0  0  0  0  0  0
  -21.5627   -3.4535   25.7736 F   0  0  0  0  0  0
  -29.9001  -13.8841   20.3571 N   0  0  0  0  0  0
  -26.2840  -12.9489   20.3205 N   0  0  0  0  0  0
  -25.9330  -11.6606   20.5716 N   0  0  0  0  0  0
  -22.0425  -12.8186   22.0452 N   0  0  0  0  0  0
  -25.4052  -15.1966   20.4127 N   0  0  0  0  0  0
  -31.6447  -15.2457   20.1236 O   0  0  0  0  0  0
  -21.6643   -6.8881   21.4243 O   0  0  0  0  0  0
  -22.3461  -14.5499   20.6732 O   0  0  0  0  0  0
  -24.6594  -31.8278   23.1728 C   0  0  0  0  0  0
  -25.9291  -32.4608   23.8188 C   0  0  1  0  0  0
  -27.2181  -26.9640   20.1811 C   0  0  0  0  0  0
  -25.5972  -33.8422   24.2100 N   0  0  0  0  0  0
  -23.4720  -30.4399   21.5212 C   0  0  2  0  0  0
  -24.9247  -28.8326   20.1107 C   0  0  0  0  0  0
  -22.7648  -29.4467   22.4795 C   0  0  0  0  0  0
  -18.0320  -28.1414   22.8481 C   0  0  0  0  0  0
  -24.1483  -36.7204   23.2646 C   0  0  0  0  0  0
  -26.0382  -30.6457   21.3974 C   0  0  0  0  0  0
  -26.1064  -29.2384   20.7428 C   0  0  0  0  0  0
  -27.2486  -28.3241   20.7541 C   0  0  0  0  0  0
  -26.0103  -26.7040   19.4955 C   0  0  0  0  0  0
  -24.8996  -27.5848   19.4674 C   0  0  0  0  0  0
  -23.7092  -29.7564   20.1459 C   0  0  0  0  0  0
  -25.4125  -36.2977   24.0305 C   0  0  1  0  0  0
  -20.5945  -28.3750   23.1204 C   0  0  2  0  0  0
  -20.6795  -26.9438   22.5411 C   0  0  0  0  0  0
  -19.5766  -26.6392   21.5220 C   0  0  0  0  0  0
  -18.1947  -26.7952   22.1630 C   0  0  0  0  0  0
  -19.1582  -28.8905   23.2831 C   0  0  0  0  0  0
  -18.9493  -30.1494   23.8860 C   0  0  0  0  0  0
  -17.6488  -30.6605   24.0563 C   0  0  0  0  0  0
  -25.9096  -34.9361   23.5026 C   0  0  0  0  0  0
  -16.5377  -29.9094   23.6349 C   0  0  0  0  0  0
  -16.7304  -28.6514   23.0373 C   0  0  0  0  0  0
  -26.4550  -31.6539   25.0699 C   0  0  0  0  0  0
  -25.3688  -31.3794   26.1369 C   0  0  0  0  0  0
  -27.0437  -30.2910   24.6402 C   0  0  0  0  0  0
  -27.6057  -32.4337   25.7495 C   0  0  0  0  0  0
  -27.5568  -37.1756   24.8463 C   0  0  0  0  0  0
  -21.4322  -29.3041   22.3548 N   0  0  0  0  0  0
  -26.4265  -37.3717   23.9421 N   0  0  0  0  0  0
  -24.7440  -30.9982   22.0837 N   0  0  0  0  0  0
  -23.4214  -28.8048   23.3033 O   0  0  0  0  0  0
  -28.2362  -25.8859   20.2590 O   0  0  0  0  0  0
  -26.5701  -34.8888   22.4614 O   0  0  0  0  0  0
  -23.5674  -32.1237   23.6846 O   0  0  0  0  0  0
  -28.1796  -20.2436   20.7069 C   0  0  0  0  0  0
  -28.3549  -18.7695   20.7705 C   0  0  0  0  0  0
  -30.3227  -20.3369   19.9430 C   0  0  0  0  0  0
  -29.1794  -21.1976   20.2674 C   0  0  0  0  0  0
  -29.5430  -17.9977   20.4222 C   0  0  0  0  0  0
  -26.9802  -23.9421   21.3042 C   0  0  0  0  0  0
  -30.0225  -23.3022   18.9483 C   0  0  0  0  0  0
  -30.0864  -23.3152   21.4348 C   0  0  0  0  0  0
  -28.0084  -24.2605   20.2103 C   0  0  2  0  0  0
  -29.2182  -22.9513   20.2170 C   0  0  0  0  0  0
  -30.4938  -18.9226   20.0055 N   0  0  0  0  0  0
  -29.5826  -16.3934   20.5267 N   0  0  0  0  0  0
  -31.4699  -12.9595   19.1996 H   0  0  0  0  0  0
  -30.5042  -11.8353   20.1049 H   0  0  0  0  0  0
  -29.9042  -11.7511   17.6613 H   0  0  0  0  0  0
  -29.5836  -13.4679   17.6643 H   0  0  0  0  0  0
  -28.0175  -11.2766   19.0514 H   0  0  0  0  0  0
  -27.4155  -12.3824   17.8417 H   0  0  0  0  0  0
  -27.5500  -14.2458   19.3548 H   0  0  0  0  0  0
  -28.8045  -12.4328   21.4717 H   0  0  0  0  0  0
  -28.3076  -14.0884   21.7287 H   0  0  0  0  0  0
  -25.2775   -9.5679   22.4760 H   0  0  0  0  0  0
  -24.0008   -7.4631   22.7468 H   0  0  0  0  0  0
  -21.0852   -8.8777   19.8953 H   0  0  0  0  0  0
  -22.3714  -10.9670   19.6163 H   0  0  0  0  0  0
  -21.2011   -7.6149   23.9713 H   0  0  0  0  0  0
  -21.1481   -6.0522   25.9076 H   0  0  0  0  0  0
  -22.0600   -2.7608   23.2840 H   0  0  0  0  0  0
  -22.4051  -11.9859   22.4854 H   0  0  0  0  0  0
  -21.1035  -13.1199   22.2646 H   0  0  0  0  0  0
  -24.6239  -15.8365   20.5052 H   0  0  0  0  0  0
  -26.2216  -15.6296   20.0028 H   0  0  0  0  0  0
  -26.7359  -32.5157   23.0906 H   0  0  0  0  0  0
  -25.0076  -33.9502   25.0220 H   0  0  0  0  0  0
  -22.7835  -31.2708   21.3534 H   0  0  0  0  0  0
  -23.3755  -35.9524   23.3289 H   0  0  0  0  0  0
  -24.3569  -36.8865   22.2066 H   0  0  0  0  0  0
  -23.7224  -37.6383   23.6707 H   0  0  0  0  0  0
  -26.2142  -31.3886   20.6184 H   0  0  0  0  0  0
  -26.8999  -30.7039   22.0505 H   0  0  0  0  0  0
  -28.1430  -28.6318   21.2763 H   0  0  0  0  0  0
  -25.8919  -25.7515   19.0002 H   0  0  0  0  0  0
  -24.0017  -27.2709   18.9520 H   0  0  0  0  0  0
  -23.8602  -30.5249   19.3872 H   0  0  0  0  0  0
  -22.8195  -29.2084   19.8310 H   0  0  0  0  0  0
  -25.1320  -36.1772   25.0796 H   0  0  0  0  0  0
  -21.0041  -28.3353   24.1327 H   0  0  0  0  0  0
  -20.5670  -26.2375   23.3652 H   0  0  0  0  0  0
  -21.6661  -26.7420   22.1218 H   0  0  0  0  0  0
  -19.6916  -25.6293   21.1277 H   0  0  0  0  0  0
  -19.6692  -27.3186   20.6734 H   0  0  0  0  0  0
  -17.4221  -26.6707   21.4028 H   0  0  0  0  0  0
  -18.0328  -26.0102   22.9034 H   0  0  0  0  0  0
  -19.7966  -30.7324   24.2206 H   0  0  0  0  0  0
  -17.5041  -31.6278   24.5176 H   0  0  0  0  0  0
  -15.5376  -30.2987   23.7692 H   0  0  0  0  0  0
  -15.8707  -28.0819   22.7111 H   0  0  0  0  0  0
  -24.5882  -30.7118   25.7702 H   0  0  0  0  0  0
  -24.8852  -32.2997   26.4657 H   0  0  0  0  0  0
  -25.7938  -30.9072   27.0233 H   0  0  0  0  0  0
  -26.3096  -29.6602   24.1373 H   0  0  0  0  0  0
  -27.3949  -29.7258   25.5041 H   0  0  0  0  0  0
  -27.9050  -30.4105   23.9825 H   0  0  0  0  0  0
  -27.2632  -33.3672   26.1968 H   0  0  0  0  0  0
  -28.3920  -32.6836   25.0363 H   0  0  0  0  0  0
  -28.0658  -31.8525   26.5492 H   0  0  0  0  0  0
  -28.2564  -38.0073   24.7543 H   0  0  0  0  0  0
  -28.1086  -36.2609   24.6247 H   0  0  0  0  0  0
  -27.2303  -37.1354   25.8868 H   0  0  0  0  0  0
  -20.9568  -29.8729   21.6681 H   0  0  0  0  0  0
  -26.0112  -38.2769   24.1448 H   0  0  0  0  0  0
  -27.2284  -20.6363   21.0346 H   0  0  0  0  0  0
  -27.5018  -18.2099   21.1280 H   0  0  0  0  0  0
  -31.2284  -20.8222   19.6161 H   0  0  0  0  0  0
  -26.6650  -22.9013   21.2471 H   0  0  0  0  0  0
  -26.0827  -24.5508   21.2122 H   0  0  0  0  0  0
  -27.3959  -24.1125   22.2970 H   0  0  0  0  0  0
  -31.0214  -22.8697   18.9409 H   0  0  0  0  0  0
  -30.1598  -24.3805   18.8505 H   0  0  0  0  0  0
  -29.5038  -22.9618   18.0511 H   0  0  0  0  0  0
  -31.0394  -22.7846   21.4326 H   0  0  0  0  0  0
  -29.5777  -23.0656   22.3662 H   0  0  0  0  0  0
  -30.3109  -24.3822   21.4623 H   0  0  0  0  0  0
  -27.4826  -24.1160   19.2660 H   0  0  0  0  0  0
  -28.6642  -16.0557   20.7646 H   0  0  0  0  0  0
  1 25  1  0  0  0
  1 30  2  0  0  0
  1 82  1  0  0  0
  2  3  1  0  0  0
  2 25  1  0  0  0
  2 83  1  0  0  0
  2 84  1  0  0  0
  3  4  1  0  0  0
  3 85  1  0  0  0
  3 86  1  0  0  0
  4  5  1  0  0  0
  4 87  1  0  0  0
  4 88  1  0  0  0
  5  6  1  0  0  0
  5 26  1  0  0  0
  5 89  1  0  0  0
  6 25  1  0  0  0
  6 90  1  0  0  0
  6 91  1  0  0  0
  7  8  2  0  0  0
  7 26  1  0  0  0
  7 29  1  0  0  0
  8  9  1  0  0  0
  8 22  1  0  0  0
  9 10  1  0  0  0
  9 27  2  0  0  0
 10 11  2  0  0  0
 10 15  1  0  0  0
 11 12  1  0  0  0
 11 92  1  0  0  0
 12 13  2  0  0  0
 12 93  1  0  0  0
 13 14  1  0  0  0
 13 31  1  0  0  0
 14 15  2  0  0  0
 14 94  1  0  0  0
 15 95  1  0  0  0
 16 17  2  0  0  0
 16 21  1  0  0  0
 16 31  1  0  0  0
 17 18  1  0  0  0
 17 96  1  0  0  0
 18 19  2  0  0  0
 18 97  1  0  0  0
 19 20  1  0  0  0
 19 24  1  0  0  0
 20 21  2  0  0  0
 20 98  1  0  0  0
 21 23  1  0  0  0
 22 28  1  0  0  0
 22 32  2  0  0  0
 26 27  1  0  0  0
 28 99  1  0  0  0
 28100  1  0  0  0
 29101  1  0  0  0
 29102  1  0  0  0
 33 34  1  0  0  0
 33 66  1  0  0  0
 33 70  2  0  0  0
 34 36  1  0  0  0
 34 59  1  0  0  0
 34103  1  0  0  0
 35 44  2  0  0  0
 35 45  1  0  0  0
 35 68  1  0  0  0
 36 56  1  0  0  0
 36104  1  0  0  0
 37 39  1  0  0  0
 37 47  1  0  0  0
 37 66  1  0  0  0
 37105  1  0  0  0
 38 43  2  0  0  0
 38 46  1  0  0  0
 38 47  1  0  0  0
 39 64  1  0  0  0
 39 67  2  0  0  0
 40 52  1  0  0  0
 40 53  2  0  0  0
 40 58  1  0  0  0
 41106  1  0  0  0
 41107  1  0  0  0
 41108  1  0  0  0
 41 48  1  0  0  0
 42 43  1  0  0  0
 42 66  1  0  0  0
 42109  1  0  0  0
 42110  1  0  0  0
 43 44  1  0  0  0
 44111  1  0  0  0
 45 46  2  0  0  0
 45112  1  0  0  0
 46113  1  0  0  0
 47114  1  0  0  0
 47115  1  0  0  0
 48 56  1  0  0  0
 48 65  1  0  0  0
 48116  1  0  0  0
 49 50  1  0  0  0
 49 53  1  0  0  0
 49 64  1  0  0  0
 49117  1  0  0  0
 50 51  1  0  0  0
 50118  1  0  0  0
 50119  1  0  0  0
 51 52  1  0  0  0
 51120  1  0  0  0
 51121  1  0  0  0
 52122  1  0  0  0
 52123  1  0  0  0
 53 54  1  0  0  0
 54 55  2  0  0  0
 54124  1  0  0  0
 55 57  1  0  0  0
 55125  1  0  0  0
 56 69  2  0  0  0
 57 58  2  0  0  0
 57126  1  0  0  0
 58127  1  0  0  0
 59 60  1  0  0  0
 59 61  1  0  0  0
 59 62  1  0  0  0
 60128  1  0  0  0
 60129  1  0  0  0
 60130  1  0  0  0
 61131  1  0  0  0
 61132  1  0  0  0
 61133  1  0  0  0
 62134  1  0  0  0
 62135  1  0  0  0
 62136  1  0  0  0
 63 65  1  0  0  0
 63137  1  0  0  0
 63138  1  0  0  0
 63139  1  0  0  0
 64140  1  0  0  0
 65141  1  0  0  0
 68 79  1  0  0  0
 71 72  2  0  0  0
 71 74  1  0  0  0
 71142  1  0  0  0
 72 75  1  0  0  0
 72143  1  0  0  0
 73 74  2  0  0  0
 73 81  1  0  0  0
 73144  1  0  0  0
 74 80  1  0  0  0
 75 81  2  0  0  0
 75 82  1  0  0  0
 76145  1  0  0  0
 76146  1  0  0  0
 76147  1  0  0  0
 76 79  1  0  0  0
 77148  1  0  0  0
 77149  1  0  0  0
 77150  1  0  0  0
 77 80  1  0  0  0
 78 80  1  0  0  0
 78151  1  0  0  0
 78152  1  0  0  0
 78153  1  0  0  0
 79 80  1  0  0  0
 79154  1  0  0  0
 82155  1  0  0  0
M  ISO  4   1 100  68 101  79 101  82 100
M  END
> <chiral flag>
0

> <version>
0

> <s_m_source_file>
/data/baiqing/PycharmProjects/Reinvent-master-3.2/result/LINK_invent/BTK/process_docking_weight1_custom_sum_contain_oxygen_bond_distance_aromatic_linkinvent_7_9_3/rearranged_h_0117.sdf

> <i_m_source_file_index>
28

> <r_mmod_Potential_Energy-OPLS-2005>
916.486755371094

> <r_mmod_Stretch_Energy-OPLS-2005>
481.906036376953

> <r_mmod_Bend_Energy-OPLS-2005>
431.487182617188

> <r_mmod_Torsional_Energy-OPLS-2005>
212.672729492188

> <r_mmod_Improper_Torsional_Energy-OPLS-2005>
3.95758080482483

> <r_mmod_Van_der_Waal_Energy-OPLS-2005>
130.844055175781

> <r_mmod_Electrostatic_Energy-OPLS-2005>
-513.75244140625

> <r_mmod_Solvation_Energy-OPLS-2005>
-226.928558349609

> <b_mmod_Minimization_Converged-OPLS-2005>
0

> <r_mmod_RMS_Derivative-OPLS-2005>
1.22515380382538

$$$$
28
                    3D
 Structure written by MMmdl.
164172  0  0  1  0            999 V2000
  -30.5317  -14.8361   20.4636 C   0  0  0  0  0  0
  -30.4602  -12.5092   19.5121 C   0  0  0  0  0  0
  -29.5478  -12.5355   18.2631 C   0  0  0  0  0  0
  -28.0747  -12.3169   18.6661 C   0  0  0  0  0  0
  -27.6512  -13.2237   19.8528 C   0  0  2  0  0  0
  -28.6837  -13.1666   21.0001 C   0  0  0  0  0  0
  -25.2579  -13.8131   20.5608 C   0  0  0  0  0  0
  -24.1862  -13.0391   20.9151 C   0  0  0  0  0  0
  -24.6441  -11.6882   20.8701 C   0  0  0  0  0  0
  -23.9103  -10.4282   21.0375 C   0  0  0  0  0  0
  -24.3634   -9.4207   21.9165 C   0  0  0  0  0  0
  -23.6294   -8.2249   22.0762 C   0  0  0  0  0  0
  -22.4277   -8.0289   21.3550 C   0  0  0  0  0  0
  -21.9926   -9.0266   20.4649 C   0  0  0  0  0  0
  -22.7268  -10.2140   20.3043 C   0  0  0  0  0  0
  -21.6858   -6.0717   22.5277 C   0  0  0  0  0  0
  -21.4009   -6.5621   23.8211 C   0  0  0  0  0  0
  -21.3659   -5.6778   24.9172 C   0  0  0  0  0  0
  -21.6042   -4.3040   24.7222 C   0  0  0  0  0  0
  -21.8825   -3.8135   23.4348 C   0  0  0  0  0  0
  -21.9195   -4.6948   22.3402 C   0  0  0  0  0  0
  -22.7895  -13.5209   21.1801 C   0  0  0  0  0  0
  -22.1673   -4.2130   21.0978 F   0  0  0  0  0  0
  -21.5625   -3.4517   25.7735 F   0  0  0  0  0  0
  -29.9843  -13.5649   20.4379 N   0  0  0  0  0  0
  -26.2998  -12.9317   20.3208 N   0  0  0  0  0  0
  -25.9370  -11.6479   20.5690 N   0  0  0  0  0  0
  -22.0533  -12.8211   22.0358 N   0  0  0  0  0  0
  -25.4228  -15.1855   20.4035 N   0  0  0  0  0  0
  -31.6968  -15.0021   20.0877 O   0  0  0  0  0  0
  -21.6648   -6.8872   21.4247 O   0  0  0  0  0  0
  -22.3580  -14.5525   20.6673 O   0  0  0  0  0  0
  -24.6357  -31.8528   23.1945 C   0  0  0  0  0  0
  -25.9177  -32.4739   23.8304 C   0  0  1  0  0  0
  -27.2141  -27.2160   20.1259 C   0  0  0  0  0  0
  -25.5964  -33.8549   24.2205 N   0  0  0  0  0  0
  -23.4352  -30.4742   21.5405 C   0  0  2  0  0  0
  -24.8800  -28.9194   20.1086 C   0  0  0  0  0  0
  -22.7527  -29.4584   22.4899 C   0  0  0  0  0  0
  -18.0280  -28.1377   22.8461 C   0  0  0  0  0  0
  -24.1492  -36.7293   23.2637 C   0  0  0  0  0  0
  -25.9880  -30.7513   21.3829 C   0  0  0  0  0  0
  -26.0575  -29.3719   20.7175 C   0  0  0  0  0  0
  -27.2279  -28.5355   20.7099 C   0  0  0  0  0  0
  -26.0077  -26.8482   19.4849 C   0  0  0  0  0  0
  -24.8625  -27.6676   19.4811 C   0  0  0  0  0  0
  -23.6541  -29.8116   20.1564 C   0  0  0  0  0  0
  -25.4129  -36.3054   24.0290 C   0  0  1  0  0  0
  -20.5894  -28.3694   23.1249 C   0  0  2  0  0  0
  -20.6768  -26.9408   22.5396 C   0  0  0  0  0  0
  -19.5748  -26.6367   21.5197 C   0  0  0  0  0  0
  -18.1923  -26.7916   22.1600 C   0  0  0  0  0  0
  -19.1543  -28.8860   23.2841 C   0  0  0  0  0  0
  -18.9460  -30.1457   23.8850 C   0  0  0  0  0  0
  -17.6455  -30.6575   24.0553 C   0  0  0  0  0  0
  -25.9076  -34.9433   23.5044 C   0  0  0  0  0  0
  -16.5346  -29.9071   23.6335 C   0  0  0  0  0  0
  -16.7272  -28.6489   23.0350 C   0  0  0  0  0  0
  -26.4509  -31.6613   25.0743 C   0  0  0  0  0  0
  -25.3700  -31.3815   26.1445 C   0  0  0  0  0  0
  -27.0389  -30.3022   24.6317 C   0  0  0  0  0  0
  -27.6023  -32.4408   25.7525 C   0  0  0  0  0  0
  -27.5570  -37.1803   24.8453 C   0  0  0  0  0  0
  -21.4217  -29.3053   22.3652 N   0  0  0  0  0  0
  -26.4289  -37.3761   23.9382 N   0  0  0  0  0  0
  -24.7054  -31.0426   22.0955 N   0  0  0  0  0  0
  -23.4205  -28.8096   23.2987 O   0  0  0  0  0  0
  -28.2869  -26.2748   20.1819 O   0  0  0  0  0  0
  -26.5636  -34.8904   22.4609 O   0  0  0  0  0  0
  -23.5490  -32.1384   23.7207 O   0  0  0  0  0  0
  -29.9364  -21.0348   17.1057 C   0  0  0  0  0  0
  -30.3822  -20.5585   18.2761 C   0  0  0  0  0  0
  -30.1618  -18.3224   19.4789 C   0  0  0  0  0  0
  -29.5459  -18.3858   21.8117 C   0  0  0  0  0  0
  -29.5283  -19.7935   19.2703 C   0  0  1  0  0  0
  -29.4777  -17.4401   20.5699 C   0  0  2  0  0  0
  -28.7961  -19.7906   21.6314 C   0  0  2  0  0  0
  -27.2689  -19.5430   21.6034 C   0  0  0  0  0  0
  -28.4385  -21.9887   20.2114 C   0  0  0  0  0  0
  -27.9656  -24.7830   20.1496 C   0  0  0  0  0  0
  -29.0122  -23.5228   20.3662 C   0  0  1  0  0  0
  -29.6579  -15.8942   20.7354 N   0  0  0  0  0  0
  -29.2793  -20.6808   20.4879 N   0  3  2  0  0  0
  -29.5144  -23.6279   21.6897 O   0  0  0  0  0  0
  -31.5055  -12.6581   19.2295 H   0  0  0  0  0  0
  -30.4224  -11.5336   20.0005 H   0  0  0  0  0  0
  -29.8684  -11.7712   17.5552 H   0  0  0  0  0  0
  -29.6511  -13.4900   17.7453 H   0  0  0  0  0  0
  -27.9722  -11.2695   18.9541 H   0  0  0  0  0  0
  -27.4216  -12.4623   17.8053 H   0  0  0  0  0  0
  -27.6385  -14.2407   19.4628 H   0  0  0  0  0  0
  -28.7375  -12.1634   21.4287 H   0  0  0  0  0  0
  -28.3856  -13.8255   21.8152 H   0  0  0  0  0  0
  -25.2799   -9.5648   22.4710 H   0  0  0  0  0  0
  -23.9993   -7.4653   22.7515 H   0  0  0  0  0  0
  -21.0849   -8.8799   19.8971 H   0  0  0  0  0  0
  -22.3764  -10.9660   19.6125 H   0  0  0  0  0  0
  -21.2010   -7.6128   23.9695 H   0  0  0  0  0  0
  -21.1471   -6.0513   25.9064 H   0  0  0  0  0  0
  -22.0617   -2.7582   23.2867 H   0  0  0  0  0  0
  -22.4138  -11.9877   22.4745 H   0  0  0  0  0  0
  -21.1149  -13.1224   22.2522 H   0  0  0  0  0  0
  -24.6382  -15.8244   20.4905 H   0  0  0  0  0  0
  -26.2516  -15.6236   20.0254 H   0  0  0  0  0  0
  -26.7257  -32.5347   23.1043 H   0  0  0  0  0  0
  -25.0145  -33.9705   25.0374 H   0  0  0  0  0  0
  -22.7361  -31.2992   21.3927 H   0  0  0  0  0  0
  -23.3733  -35.9647   23.3293 H   0  0  0  0  0  0
  -24.3579  -36.8946   22.2060 H   0  0  0  0  0  0
  -23.7272  -37.6492   23.6692 H   0  0  0  0  0  0
  -26.1417  -31.5191   20.6219 H   0  0  0  0  0  0
  -26.8602  -30.7906   22.0247 H   0  0  0  0  0  0
  -28.1291  -28.8782   21.1984 H   0  0  0  0  0  0
  -25.9067  -25.8953   18.9898 H   0  0  0  0  0  0
  -23.9607  -27.3181   18.9955 H   0  0  0  0  0  0
  -23.7818  -30.5908   19.4038 H   0  0  0  0  0  0
  -22.7712  -29.2500   19.8461 H   0  0  0  0  0  0
  -25.1315  -36.1879   25.0783 H   0  0  0  0  0  0
  -20.9969  -28.3253   24.1378 H   0  0  0  0  0  0
  -20.5661  -26.2295   23.3593 H   0  0  0  0  0  0
  -21.6630  -26.7433   22.1190 H   0  0  0  0  0  0
  -19.6905  -25.6269   21.1255 H   0  0  0  0  0  0
  -19.6677  -27.3153   20.6700 H   0  0  0  0  0  0
  -17.4190  -26.6654   21.3998 H   0  0  0  0  0  0
  -18.0308  -26.0075   22.9011 H   0  0  0  0  0  0
  -19.7948  -30.7280   24.2190 H   0  0  0  0  0  0
  -17.5023  -31.6255   24.5154 H   0  0  0  0  0  0
  -15.5347  -30.2951   23.7709 H   0  0  0  0  0  0
  -15.8662  -28.0808   22.7080 H   0  0  0  0  0  0
  -24.5841  -30.7203   25.7764 H   0  0  0  0  0  0
  -24.8940  -32.3021   26.4841 H   0  0  0  0  0  0
  -25.7993  -30.9001   27.0241 H   0  0  0  0  0  0
  -26.3029  -29.6731   24.1303 H   0  0  0  0  0  0
  -27.3988  -29.7323   25.4888 H   0  0  0  0  0  0
  -27.8916  -30.4260   23.9637 H   0  0  0  0  0  0
  -27.2586  -33.3707   26.2060 H   0  0  0  0  0  0
  -28.3850  -32.7000   25.0388 H   0  0  0  0  0  0
  -28.0670  -31.8593   26.5490 H   0  0  0  0  0  0
  -28.2574  -38.0111   24.7495 H   0  0  0  0  0  0
  -28.1070  -36.2636   24.6271 H   0  0  0  0  0  0
  -27.2285  -37.1447   25.8855 H   0  0  0  0  0  0
  -20.9385  -29.8867   21.6948 H   0  0  0  0  0  0
  -26.0139  -38.2818   24.1393 H   0  0  0  0  0  0
  -30.5949  -21.5712   16.4366 H   0  0  0  0  0  0
  -28.9097  -20.8985   16.7967 H   0  0  0  0  0  0
  -31.4168  -20.7116   18.5505 H   0  0  0  0  0  0
  -31.2241  -18.4108   19.7163 H   0  0  0  0  0  0
  -30.1192  -17.7990   18.5223 H   0  0  0  0  0  0
  -30.5903  -18.5757   22.0628 H   0  0  0  0  0  0
  -29.1375  -17.8685   22.6824 H   0  0  0  0  0  0
  -28.5510  -19.6368   18.8096 H   0  0  0  0  0  0
  -28.4264  -17.4501   20.2829 H   0  0  0  0  0  0
  -28.9953  -20.3574   22.5420 H   0  0  0  0  0  0
  -26.9152  -19.2858   20.6052 H   0  0  0  0  0  0
  -26.7015  -20.4044   21.9522 H   0  0  0  0  0  0
  -27.0015  -18.7193   22.2671 H   0  0  0  0  0  0
  -28.0424  -21.9062   19.1986 H   0  0  0  0  0  0
  -27.5381  -21.9716   20.8150 H   0  0  0  0  0  0
  -27.1338  -24.6360   20.8416 H   0  0  0  0  0  0
  -27.5449  -24.5915   19.1641 H   0  0  0  0  0  0
  -29.8381  -23.6426   19.6636 H   0  0  0  0  0  0
  -28.7896  -15.4864   21.0531 H   0  0  0  0  0  0
  -30.1831  -21.0191   20.7875 H   0  0  0  0  0  0
  -28.7799  -23.8307   22.2633 H   0  0  0  0  0  0
  1 25  1  0  0  0
  1 30  2  0  0  0
  1 82  1  0  0  0
  2  3  1  0  0  0
  2 25  1  0  0  0
  2 85  1  0  0  0
  2 86  1  0  0  0
  3  4  1  0  0  0
  3 87  1  0  0  0
  3 88  1  0  0  0
  4  5  1  0  0  0
  4 89  1  0  0  0
  4 90  1  0  0  0
  5  6  1  0  0  0
  5 26  1  0  0  0
  5 91  1  0  0  0
  6 25  1  0  0  0
  6 92  1  0  0  0
  6 93  1  0  0  0
  7  8  2  0  0  0
  7 26  1  0  0  0
  7 29  1  0  0  0
  8  9  1  0  0  0
  8 22  1  0  0  0
  9 10  1  0  0  0
  9 27  2  0  0  0
 10 11  2  0  0  0
 10 15  1  0  0  0
 11 12  1  0  0  0
 11 94  1  0  0  0
 12 13  2  0  0  0
 12 95  1  0  0  0
 13 14  1  0  0  0
 13 31  1  0  0  0
 14 15  2  0  0  0
 14 96  1  0  0  0
 15 97  1  0  0  0
 16 17  2  0  0  0
 16 21  1  0  0  0
 16 31  1  0  0  0
 17 18  1  0  0  0
 17 98  1  0  0  0
 18 19  2  0  0  0
 18 99  1  0  0  0
 19 20  1  0  0  0
 19 24  1  0  0  0
 20 21  2  0  0  0
 20100  1  0  0  0
 21 23  1  0  0  0
 22 28  1  0  0  0
 22 32  2  0  0  0
 26 27  1  0  0  0
 28101  1  0  0  0
 28102  1  0  0  0
 29103  1  0  0  0
 29104  1  0  0  0
 33 34  1  0  0  0
 33 66  1  0  0  0
 33 70  2  0  0  0
 34 36  1  0  0  0
 34 59  1  0  0  0
 34105  1  0  0  0
 35 44  2  0  0  0
 35 45  1  0  0  0
 35 68  1  0  0  0
 36 56  1  0  0  0
 36106  1  0  0  0
 37 39  1  0  0  0
 37 47  1  0  0  0
 37 66  1  0  0  0
 37107  1  0  0  0
 38 43  2  0  0  0
 38 46  1  0  0  0
 38 47  1  0  0  0
 39 64  1  0  0  0
 39 67  2  0  0  0
 40 52  1  0  0  0
 40 53  2  0  0  0
 40 58  1  0  0  0
 41108  1  0  0  0
 41109  1  0  0  0
 41110  1  0  0  0
 41 48  1  0  0  0
 42 43  1  0  0  0
 42 66  1  0  0  0
 42111  1  0  0  0
 42112  1  0  0  0
 43 44  1  0  0  0
 44113  1  0  0  0
 45 46  2  0  0  0
 45114  1  0  0  0
 46115  1  0  0  0
 47116  1  0  0  0
 47117  1  0  0  0
 48 56  1  0  0  0
 48 65  1  0  0  0
 48118  1  0  0  0
 49 50  1  0  0  0
 49 53  1  0  0  0
 49 64  1  0  0  0
 49119  1  0  0  0
 50 51  1  0  0  0
 50120  1  0  0  0
 50121  1  0  0  0
 51 52  1  0  0  0
 51122  1  0  0  0
 51123  1  0  0  0
 52124  1  0  0  0
 52125  1  0  0  0
 53 54  1  0  0  0
 54 55  2  0  0  0
 54126  1  0  0  0
 55 57  1  0  0  0
 55127  1  0  0  0
 56 69  2  0  0  0
 57 58  2  0  0  0
 57128  1  0  0  0
 58129  1  0  0  0
 59 60  1  0  0  0
 59 61  1  0  0  0
 59 62  1  0  0  0
 60130  1  0  0  0
 60131  1  0  0  0
 60132  1  0  0  0
 61133  1  0  0  0
 61134  1  0  0  0
 61135  1  0  0  0
 62136  1  0  0  0
 62137  1  0  0  0
 62138  1  0  0  0
 63 65  1  0  0  0
 63139  1  0  0  0
 63140  1  0  0  0
 63141  1  0  0  0
 64142  1  0  0  0
 65143  1  0  0  0
 68 80  1  0  0  0
 71 72  2  0  0  0
 71144  1  0  0  0
 71145  1  0  0  0
 72146  1  0  0  0
 72 75  1  0  0  0
 73 75  1  0  0  0
 73 76  1  0  0  0
 73147  1  0  0  0
 73148  1  0  0  0
 74 76  1  0  0  0
 74 77  1  0  0  0
 74149  1  0  0  0
 74150  1  0  0  0
 75 83  1  0  0  0
 75151  1  0  0  0
 76 82  1  0  0  0
 76152  1  0  0  0
 77 78  1  0  0  0
 77 83  1  0  0  0
 77153  1  0  0  0
 78154  1  0  0  0
 78155  1  0  0  0
 78156  1  0  0  0
 79 81  1  0  0  0
 79157  1  0  0  0
 79158  1  0  0  0
 79 83  1  0  0  0
 80 81  1  0  0  0
 80159  1  0  0  0
 80160  1  0  0  0
 81 84  1  0  0  0
 81161  1  0  0  0
 82162  1  0  0  0
 83163  1  0  0  0
 84164  1  0  0  0
M  CHG  1  83   1
M  ISO  4   1 100  68 101  80 101  82 100
M  END
> <chiral flag>
0

> <version>
0

> <s_m_source_file>
/data/baiqing/PycharmProjects/Reinvent-master-3.2/result/LINK_invent/BTK/process_docking_weight1_custom_sum_contain_oxygen_bond_distance_aromatic_linkinvent_7_9_3/rearranged_h_0117.sdf

> <i_m_source_file_index>
29

> <r_mmod_Potential_Energy-OPLS-2005>
268.475860595703

> <r_mmod_Stretch_Energy-OPLS-2005>
173.468795776367

> <r_mmod_Bend_Energy-OPLS-2005>
260.643005371094

> <r_mmod_Torsional_Energy-OPLS-2005>
260.758544921875

> <r_mmod_Improper_Torsional_Energy-OPLS-2005>
4.956955909729

> <r_mmod_Van_der_Waal_Energy-OPLS-2005>
123.348190307617

> <r_mmod_Electrostatic_Energy-OPLS-2005>
-223.270111083984

> <r_mmod_Solvation_Energy-OPLS-2005>
-458.431579589844

> <b_mmod_Minimization_Converged-OPLS-2005>
0

> <r_mmod_RMS_Derivative-OPLS-2005>
4.0080885887146

$$$$
29
                    3D
 Structure written by MMmdl.
157165  0  0  1  0            999 V2000
  -30.4815  -15.0859   20.3776 C   0  0  0  0  0  0
  -30.4424  -12.6845   19.4832 C   0  0  0  0  0  0
  -29.5200  -12.5372   18.2491 C   0  0  0  0  0  0
  -28.0591  -12.3060   18.6755 C   0  0  0  0  0  0
  -27.6159  -13.2586   19.8165 C   0  0  2  0  0  0
  -28.6608  -13.3542   20.9475 C   0  0  0  0  0  0
  -25.2400  -13.8254   20.5736 C   0  0  0  0  0  0
  -24.1737  -13.0436   20.9239 C   0  0  0  0  0  0
  -24.6365  -11.6930   20.8757 C   0  0  0  0  0  0
  -23.9050  -10.4292   21.0425 C   0  0  0  0  0  0
  -24.3620   -9.4213   21.9191 C   0  0  0  0  0  0
  -23.6325   -8.2231   22.0748 C   0  0  0  0  0  0
  -22.4302   -8.0253   21.3526 C   0  0  0  0  0  0
  -21.9924   -9.0231   20.4640 C   0  0  0  0  0  0
  -22.7226  -10.2119   20.3072 C   0  0  0  0  0  0
  -21.6835   -6.0754   22.5293 C   0  0  0  0  0  0
  -21.3997   -6.5658   23.8234 C   0  0  0  0  0  0
  -21.3659   -5.6789   24.9178 C   0  0  0  0  0  0
  -21.6070   -4.3049   24.7209 C   0  0  0  0  0  0
  -21.8815   -3.8148   23.4316 C   0  0  0  0  0  0
  -21.9185   -4.6989   22.3387 C   0  0  0  0  0  0
  -22.7752  -13.5201   21.1910 C   0  0  0  0  0  0
  -22.1665   -4.2176   21.0967 F   0  0  0  0  0  0
  -21.5621   -3.4520   25.7715 F   0  0  0  0  0  0
  -29.9107  -13.8051   20.3213 N   0  0  0  0  0  0
  -26.2811  -12.9480   20.3175 N   0  0  0  0  0  0
  -25.9281  -11.6595   20.5705 N   0  0  0  0  0  0
  -22.0397  -12.8195   22.0464 N   0  0  0  0  0  0
  -25.4061  -15.1995   20.4265 N   0  0  0  0  0  0
  -31.7056  -15.1300   20.2040 O   0  0  0  0  0  0
  -21.6622   -6.8869   21.4251 O   0  0  0  0  0  0
  -22.3466  -14.5480   20.6719 O   0  0  0  0  0  0
  -24.6543  -31.8361   23.1789 C   0  0  0  0  0  0
  -25.9270  -32.4643   23.8226 C   0  0  1  0  0  0
  -27.2018  -27.0285   20.1674 C   0  0  0  0  0  0
  -25.5970  -33.8450   24.2131 N   0  0  0  0  0  0
  -23.4612  -30.4545   21.5246 C   0  0  2  0  0  0
  -24.9063  -28.8568   20.1080 C   0  0  0  0  0  0
  -22.7626  -29.4508   22.4794 C   0  0  0  0  0  0
  -18.0315  -28.1417   22.8481 C   0  0  0  0  0  0
  -24.1481  -36.7229   23.2628 C   0  0  0  0  0  0
  -26.0241  -30.6737   21.3911 C   0  0  0  0  0  0
  -26.0873  -29.2736   20.7351 C   0  0  0  0  0  0
  -27.2325  -28.3780   20.7407 C   0  0  0  0  0  0
  -25.9960  -26.7328   19.4985 C   0  0  0  0  0  0
  -24.8802  -27.6055   19.4698 C   0  0  0  0  0  0
  -23.6929  -29.7784   20.1460 C   0  0  0  0  0  0
  -25.4112  -36.2991   24.0309 C   0  0  1  0  0  0
  -20.5943  -28.3751   23.1216 C   0  0  2  0  0  0
  -20.6797  -26.9446   22.5412 C   0  0  0  0  0  0
  -19.5755  -26.6395   21.5225 C   0  0  0  0  0  0
  -18.1933  -26.7952   22.1627 C   0  0  0  0  0  0
  -19.1582  -28.8899   23.2845 C   0  0  0  0  0  0
  -18.9485  -30.1494   23.8873 C   0  0  0  0  0  0
  -17.6476  -30.6607   24.0568 C   0  0  0  0  0  0
  -25.9088  -34.9363   23.5036 C   0  0  0  0  0  0
  -16.5371  -29.9106   23.6339 C   0  0  0  0  0  0
  -16.7303  -28.6529   23.0363 C   0  0  0  0  0  0
  -26.4540  -31.6560   25.0724 C   0  0  0  0  0  0
  -25.3702  -31.3827   26.1422 C   0  0  0  0  0  0
  -27.0387  -30.2926   24.6385 C   0  0  0  0  0  0
  -27.6067  -32.4340   25.7498 C   0  0  0  0  0  0
  -27.5588  -37.1746   24.8440 C   0  0  0  0  0  0
  -21.4305  -29.3057   22.3571 N   0  0  0  0  0  0
  -26.4256  -37.3740   23.9443 N   0  0  0  0  0  0
  -24.7333  -31.0128   22.0845 N   0  0  0  0  0  0
  -23.4229  -28.8061   23.2979 O   0  0  0  0  0  0
  -28.2441  -26.0068   20.2507 O   0  0  0  0  0  0
  -26.5681  -34.8902   22.4624 O   0  0  0  0  0  0
  -23.5643  -32.1224   23.6991 O   0  0  0  0  0  0
  -29.5571  -22.0154   19.3764 C   0  0  0  0  0  0
  -27.6262  -21.7211   20.7027 C   0  0  0  0  0  0
  -29.5281  -23.6276   19.7044 C   0  0  0  0  0  0
  -27.5779  -23.3470   21.0179 C   0  0  0  0  0  0
  -29.0008  -20.9116   20.4159 C   0  0  1  0  0  0
  -28.1545  -24.4260   19.9699 C   0  0  1  0  0  0
  -28.9424  -19.0938   18.4924 C   0  0  0  0  0  0
  -29.9793  -17.8849   20.5582 C   0  0  0  0  0  0
  -28.9770  -19.1917   20.0246 C   0  0  1  0  0  0
  -29.6890  -16.2976   20.4235 N   0  0  0  0  0  0
  -27.7123  -18.7342   20.4532 O   0  0  0  0  0  0
  -31.4635  -12.8803   19.1507 H   0  0  0  0  0  0
  -30.4857  -11.7544   20.0529 H   0  0  0  0  0  0
  -29.8599  -11.7118   17.6193 H   0  0  0  0  0  0
  -29.5841  -13.4362   17.6347 H   0  0  0  0  0  0
  -27.9710  -11.2719   19.0087 H   0  0  0  0  0  0
  -27.3928  -12.4048   17.8148 H   0  0  0  0  0  0
  -27.5567  -14.2436   19.3542 H   0  0  0  0  0  0
  -28.7916  -12.3986   21.4591 H   0  0  0  0  0  0
  -28.3448  -14.0754   21.7023 H   0  0  0  0  0  0
  -25.2769   -9.5677   22.4743 H   0  0  0  0  0  0
  -24.0026   -7.4625   22.7459 H   0  0  0  0  0  0
  -21.0845   -8.8750   19.8966 H   0  0  0  0  0  0
  -22.3701  -10.9646   19.6168 H   0  0  0  0  0  0
  -21.2002   -7.6176   23.9736 H   0  0  0  0  0  0
  -21.1487   -6.0515   25.9080 H   0  0  0  0  0  0
  -22.0600   -2.7614   23.2789 H   0  0  0  0  0  0
  -22.4000  -11.9892   22.4901 H   0  0  0  0  0  0
  -21.1023  -13.1252   22.2654 H   0  0  0  0  0  0
  -24.6440  -15.8477   20.5831 H   0  0  0  0  0  0
  -26.2616  -15.6575   20.1409 H   0  0  0  0  0  0
  -26.7329  -32.5203   23.0939 H   0  0  0  0  0  0
  -25.0121  -33.9546   25.0283 H   0  0  0  0  0  0
  -22.7674  -31.2834   21.3663 H   0  0  0  0  0  0
  -23.3765  -35.9543   23.3228 H   0  0  0  0  0  0
  -24.3581  -36.8941   22.2064 H   0  0  0  0  0  0
  -23.7201  -37.6389   23.6719 H   0  0  0  0  0  0
  -26.1957  -31.4188   20.6131 H   0  0  0  0  0  0
  -26.8880  -30.7260   22.0417 H   0  0  0  0  0  0
  -28.1306  -28.6958   21.2513 H   0  0  0  0  0  0
  -25.8802  -25.7737   19.0186 H   0  0  0  0  0  0
  -23.9800  -27.2851   18.9630 H   0  0  0  0  0  0
  -23.8522  -30.5508   19.3917 H   0  0  0  0  0  0
  -22.8013  -29.2386   19.8247 H   0  0  0  0  0  0
  -25.1291  -36.1788   25.0795 H   0  0  0  0  0  0
  -21.0045  -28.3351   24.1337 H   0  0  0  0  0  0
  -20.5677  -26.2379   23.3646 H   0  0  0  0  0  0
  -21.6664  -26.7429   22.1224 H   0  0  0  0  0  0
  -19.6918  -25.6292   21.1287 H   0  0  0  0  0  0
  -19.6701  -27.3175   20.6730 H   0  0  0  0  0  0
  -17.4226  -26.6730   21.4013 H   0  0  0  0  0  0
  -18.0315  -26.0109   22.9028 H   0  0  0  0  0  0
  -19.7959  -30.7330   24.2235 H   0  0  0  0  0  0
  -17.5027  -31.6273   24.5187 H   0  0  0  0  0  0
  -15.5365  -30.2996   23.7674 H   0  0  0  0  0  0
  -15.8706  -28.0833   22.7085 H   0  0  0  0  0  0
  -24.5849  -30.7203   25.7769 H   0  0  0  0  0  0
  -24.8925  -32.3050   26.4746 H   0  0  0  0  0  0
  -25.7963  -30.9065   27.0262 H   0  0  0  0  0  0
  -26.3009  -29.6645   24.1372 H   0  0  0  0  0  0
  -27.3920  -29.7253   25.5002 H   0  0  0  0  0  0
  -27.8971  -30.4109   23.9764 H   0  0  0  0  0  0
  -27.2651  -33.3660   26.2018 H   0  0  0  0  0  0
  -28.3904  -32.6881   25.0345 H   0  0  0  0  0  0
  -28.0713  -31.8506   26.5457 H   0  0  0  0  0  0
  -28.2520  -38.0128   24.7613 H   0  0  0  0  0  0
  -28.1168  -36.2668   24.6077 H   0  0  0  0  0  0
  -27.2357  -37.1176   25.8851 H   0  0  0  0  0  0
  -20.9535  -29.8771   21.6736 H   0  0  0  0  0  0
  -26.0094  -38.2793   24.1536 H   0  0  0  0  0  0
  -30.5826  -21.7416   19.1255 H   0  0  0  0  0  0
  -29.0028  -21.9016   18.4426 H   0  0  0  0  0  0
  -26.9676  -21.5472   19.8495 H   0  0  0  0  0  0
  -27.1308  -21.2217   21.5367 H   0  0  0  0  0  0
  -30.0300  -24.1326   18.8791 H   0  0  0  0  0  0
  -30.1757  -23.7936   20.5667 H   0  0  0  0  0  0
  -28.0866  -23.5108   21.9685 H   0  0  0  0  0  0
  -26.5385  -23.6134   21.2114 H   0  0  0  0  0  0
  -29.5935  -20.9856   21.3290 H   0  0  0  0  0  0
  -27.5585  -24.3234   19.0628 H   0  0  0  0  0  0
  -29.9100  -19.3813   18.0814 H   0  0  0  0  0  0
  -28.2018  -19.7640   18.0539 H   0  0  0  0  0  0
  -28.7287  -18.0836   18.1381 H   0  0  0  0  0  0
  -30.1180  -18.0396   21.6288 H   0  0  0  0  0  0
  -30.9703  -18.0506   20.1344 H   0  0  0  0  0  0
  -28.6992  -16.1063   20.4153 H   0  0  0  0  0  0
  -27.0573  -19.3035   20.0643 H   0  0  0  0  0  0
  1 25  1  0  0  0
  1 30  2  0  0  0
  1 80  1  0  0  0
  2  3  1  0  0  0
  2 25  1  0  0  0
  2 82  1  0  0  0
  2 83  1  0  0  0
  3  4  1  0  0  0
  3 84  1  0  0  0
  3 85  1  0  0  0
  4  5  1  0  0  0
  4 86  1  0  0  0
  4 87  1  0  0  0
  5  6  1  0  0  0
  5 26  1  0  0  0
  5 88  1  0  0  0
  6 25  1  0  0  0
  6 89  1  0  0  0
  6 90  1  0  0  0
  7  8  2  0  0  0
  7 26  1  0  0  0
  7 29  1  0  0  0
  8  9  1  0  0  0
  8 22  1  0  0  0
  9 10  1  0  0  0
  9 27  2  0  0  0
 10 11  2  0  0  0
 10 15  1  0  0  0
 11 12  1  0  0  0
 11 91  1  0  0  0
 12 13  2  0  0  0
 12 92  1  0  0  0
 13 14  1  0  0  0
 13 31  1  0  0  0
 14 15  2  0  0  0
 14 93  1  0  0  0
 15 94  1  0  0  0
 16 17  2  0  0  0
 16 21  1  0  0  0
 16 31  1  0  0  0
 17 18  1  0  0  0
 17 95  1  0  0  0
 18 19  2  0  0  0
 18 96  1  0  0  0
 19 20  1  0  0  0
 19 24  1  0  0  0
 20 21  2  0  0  0
 20 97  1  0  0  0
 21 23  1  0  0  0
 22 28  1  0  0  0
 22 32  2  0  0  0
 26 27  1  0  0  0
 28 98  1  0  0  0
 28 99  1  0  0  0
 29100  1  0  0  0
 29101  1  0  0  0
 33 34  1  0  0  0
 33 66  1  0  0  0
 33 70  2  0  0  0
 34 36  1  0  0  0
 34 59  1  0  0  0
 34102  1  0  0  0
 35 44  2  0  0  0
 35 45  1  0  0  0
 35 68  1  0  0  0
 36 56  1  0  0  0
 36103  1  0  0  0
 37 39  1  0  0  0
 37 47  1  0  0  0
 37 66  1  0  0  0
 37104  1  0  0  0
 38 43  2  0  0  0
 38 46  1  0  0  0
 38 47  1  0  0  0
 39 64  1  0  0  0
 39 67  2  0  0  0
 40 52  1  0  0  0
 40 53  2  0  0  0
 40 58  1  0  0  0
 41105  1  0  0  0
 41106  1  0  0  0
 41107  1  0  0  0
 41 48  1  0  0  0
 42 43  1  0  0  0
 42 66  1  0  0  0
 42108  1  0  0  0
 42109  1  0  0  0
 43 44  1  0  0  0
 44110  1  0  0  0
 45 46  2  0  0  0
 45111  1  0  0  0
 46112  1  0  0  0
 47113  1  0  0  0
 47114  1  0  0  0
 48 56  1  0  0  0
 48 65  1  0  0  0
 48115  1  0  0  0
 49 50  1  0  0  0
 49 53  1  0  0  0
 49 64  1  0  0  0
 49116  1  0  0  0
 50 51  1  0  0  0
 50117  1  0  0  0
 50118  1  0  0  0
 51 52  1  0  0  0
 51119  1  0  0  0
 51120  1  0  0  0
 52121  1  0  0  0
 52122  1  0  0  0
 53 54  1  0  0  0
 54 55  2  0  0  0
 54123  1  0  0  0
 55 57  1  0  0  0
 55124  1  0  0  0
 56 69  2  0  0  0
 57 58  2  0  0  0
 57125  1  0  0  0
 58126  1  0  0  0
 59 60  1  0  0  0
 59 61  1  0  0  0
 59 62  1  0  0  0
 60127  1  0  0  0
 60128  1  0  0  0
 60129  1  0  0  0
 61130  1  0  0  0
 61131  1  0  0  0
 61132  1  0  0  0
 62133  1  0  0  0
 62134  1  0  0  0
 62135  1  0  0  0
 63 65  1  0  0  0
 63136  1  0  0  0
 63137  1  0  0  0
 63138  1  0  0  0
 64139  1  0  0  0
 65140  1  0  0  0
 68 76  1  0  0  0
 71 73  1  0  0  0
 71141  1  0  0  0
 71142  1  0  0  0
 71 75  1  0  0  0
 72 74  1  0  0  0
 72 75  1  0  0  0
 72143  1  0  0  0
 72144  1  0  0  0
 73 76  1  0  0  0
 73145  1  0  0  0
 73146  1  0  0  0
 74 76  1  0  0  0
 74147  1  0  0  0
 74148  1  0  0  0
 75 79  1  0  0  0
 75149  1  0  0  0
 76150  1  0  0  0
 77151  1  0  0  0
 77152  1  0  0  0
 77153  1  0  0  0
 77 79  1  0  0  0
 78 79  1  0  0  0
 78 80  1  0  0  0
 78154  1  0  0  0
 78155  1  0  0  0
 79 81  1  0  0  0
 80156  1  0  0  0
 81157  1  0  0  0
M  ISO  4   1 100  68 101  76 101  80 100
M  END
> <chiral flag>
0

> <version>
0

> <s_m_source_file>
/data/baiqing/PycharmProjects/Reinvent-master-3.2/result/LINK_invent/BTK/process_docking_weight1_custom_sum_contain_oxygen_bond_distance_aromatic_linkinvent_7_9_3/rearranged_h_0117.sdf

> <i_m_source_file_index>
30

> <r_mmod_Potential_Energy-OPLS-2005>
715.493774414062

> <r_mmod_Stretch_Energy-OPLS-2005>
372.914093017578

> <r_mmod_Bend_Energy-OPLS-2005>
363.230102539062

> <r_mmod_Torsional_Energy-OPLS-2005>
269.832427978516

> <r_mmod_Improper_Torsional_Energy-OPLS-2005>
3.80515241622925

> <r_mmod_Van_der_Waal_Energy-OPLS-2005>
110.209884643555

> <r_mmod_Electrostatic_Energy-OPLS-2005>
-501.094757080078

> <r_mmod_Solvation_Energy-OPLS-2005>
-206.928695678711

> <b_mmod_Minimization_Converged-OPLS-2005>
0

> <r_mmod_RMS_Derivative-OPLS-2005>
4.89603662490845

$$$$
30
                    3D
 Structure written by MMmdl.
193201  0  0  1  0            999 V2000
  -29.9957  -13.2963   20.2429 C   0  0  0  0  0  0
  -30.9674  -12.3220   19.2823 C   0  0  0  0  0  0
  -29.7436  -12.3522   18.0246 C   0  0  0  0  0  0
  -28.1489  -12.5401   18.4328 C   0  0  0  0  0  0
  -27.6658  -13.5631   19.6755 C   0  0  2  0  0  0
  -28.7723  -13.7992   21.0758 C   0  0  0  0  0  0
  -25.2175  -14.1486   20.2413 C   0  0  0  0  0  0
  -24.1283  -13.3716   20.4687 C   0  0  0  0  0  0
  -24.7490  -12.1071   20.5195 C   0  0  0  0  0  0
  -24.3994  -10.9176   21.1238 C   0  0  0  0  0  0
  -24.8762   -9.7421   22.6223 C   0  0  0  0  0  0
  -23.7917   -8.5230   22.8204 C   0  0  0  0  0  0
  -22.5522   -8.3525   21.8690 C   0  0  0  0  0  0
  -22.1980   -9.3442   20.7941 C   0  0  0  0  0  0
  -23.0271  -10.5469   20.3956 C   0  0  0  0  0  0
  -21.7538   -6.1812   22.6371 C   0  0  0  0  0  0
  -21.4404   -6.5843   23.9438 C   0  0  0  0  0  0
  -21.3783   -5.6466   24.9846 C   0  0  0  0  0  0
  -21.5957   -4.2857   24.7202 C   0  0  0  0  0  0
  -21.8542   -3.8561   23.4041 C   0  0  0  0  0  0
  -21.9269   -4.7964   22.3578 C   0  0  0  0  0  0
  -22.7061  -13.8290   20.7681 C   0  0  0  0  0  0
  -22.1681   -4.3500   21.0987 F   0  0  0  0  0  0
  -21.5535   -3.3962   25.7380 F   0  0  0  0  0  0
  -30.3780  -12.8459   20.9414 N   0  0  0  0  0  0
  -26.2685  -13.3062   19.9862 N   0  0  0  0  0  0
  -25.7726  -12.0896   19.7745 N   0  0  0  0  0  0
  -21.8478  -13.1032   21.4694 N   0  0  0  0  0  0
  -25.3862  -15.4970   20.1185 N   0  0  0  0  0  0
  -30.8832  -14.3224   20.3480 O   0  0  0  0  0  0
  -21.8537   -7.1494   21.6673 O   0  0  0  0  0  0
  -22.3373  -14.9319   20.4254 O   0  0  0  0  0  0
  -24.6757  -31.8059   23.1610 C   0  0  0  0  0  0
  -25.9412  -32.4439   23.8073 C   0  0  1  0  0  0
  -26.7865  -26.5290   20.4826 C   0  0  0  0  0  0
  -25.6041  -33.8288   24.1956 N   0  0  0  0  0  0
  -23.4829  -30.4328   21.5124 C   0  0  2  0  0  0
  -24.8874  -28.7819   20.0938 C   0  0  0  0  0  0
  -22.7658  -29.4383   22.4649 C   0  0  0  0  0  0
  -18.0312  -28.1405   22.8456 C   0  0  0  0  0  0
  -24.1527  -36.7157   23.2646 C   0  0  0  0  0  0
  -26.0552  -30.4915   21.4471 C   0  0  0  0  0  0
  -26.0471  -29.0474   20.8255 C   0  0  0  0  0  0
  -27.0146  -27.9356   20.9892 C   0  0  0  0  0  0
  -25.7535  -26.5314   19.5343 C   0  0  0  0  0  0
  -24.8081  -27.5749   19.3858 C   0  0  0  0  0  0
  -23.7248  -29.7746   20.1228 C   0  0  0  0  0  0
  -25.4173  -36.2887   24.0278 C   0  0  1  0  0  0
  -20.5939  -28.3776   23.1138 C   0  0  2  0  0  0
  -20.6796  -26.9441   22.5399 C   0  0  0  0  0  0
  -19.5783  -26.6372   21.5206 C   0  0  0  0  0  0
  -18.1958  -26.7937   22.1606 C   0  0  0  0  0  0
  -19.1571  -28.8907   23.2797 C   0  0  0  0  0  0
  -18.9490  -30.1490   23.8851 C   0  0  0  0  0  0
  -17.6484  -30.6600   24.0556 C   0  0  0  0  0  0
  -25.9153  -34.9275   23.4944 C   0  0  0  0  0  0
  -16.5373  -29.9094   23.6339 C   0  0  0  0  0  0
  -16.7297  -28.6509   23.0372 C   0  0  0  0  0  0
  -26.4600  -31.6460   25.0677 C   0  0  0  0  0  0
  -25.3684  -31.3788   26.1304 C   0  0  0  0  0  0
  -27.0508  -30.2778   24.6606 C   0  0  0  0  0  0
  -27.6076  -32.4311   25.7471 C   0  0  0  0  0  0
  -27.5585  -37.1742   24.8467 C   0  0  0  0  0  0
  -21.4321  -29.3043   22.3439 N   0  0  0  0  0  0
  -26.4299  -37.3647   23.9395 N   0  0  0  0  0  0
  -24.7634  -30.9514   22.0877 N   0  0  0  0  0  0
  -23.4171  -28.7959   23.2922 O   0  0  0  0  0  0
  -27.3385  -25.1398   20.8823 O   0  0  0  0  0  0
  -26.5778  -34.8851   22.4552 O   0  0  0  0  0  0
  -23.5814  -32.1224   23.6577 O   0  0  0  0  0  0
  -22.5806  -10.5722   24.3215 C   0  0  0  0  0  0
  -24.6657   -8.7936   20.6499 C   0  0  0  0  0  0
  -26.4473   -9.3921   20.7700 C   0  0  0  0  0  0
  -26.1529  -11.9480   22.9358 C   0  0  0  0  0  0
  -23.0136  -10.8653   22.8253 C   0  0  2  0  0  0
  -27.0739  -10.8116   21.8073 C   0  0  1  0  0  0
  -24.4306  -12.4326   23.2152 C   0  0  1  0  0  0
  -21.2350  -15.5164   25.2020 C   0  0  0  0  0  0
  -24.4002  -18.6475   23.6489 C   0  0  0  0  0  0
  -20.7520   -9.0168   26.5891 C   0  0  0  0  0  0
  -19.2566  -10.9376   25.9106 C   0  0  0  0  0  0
  -28.6855  -11.0057   21.8952 C   0  0  0  0  0  0
  -22.1256  -14.8965   24.1225 C   0  0  0  0  0  0
  -26.2026  -21.7562   21.8160 C   0  0  0  0  0  0
  -23.5855  -14.8015   24.5695 C   0  0  0  0  0  0
  -26.1764  -19.7477   21.8153 C   0  0  0  0  0  0
  -25.4501  -16.1667   22.8898 C   0  0  0  0  0  0
  -26.7796  -23.4082   20.8356 C   0  0  0  0  0  0
  -24.5937  -14.4299   23.4654 C   0  0  2  0  0  0
  -25.2246  -18.1141   22.4760 C   0  0  1  0  0  0
  -20.6961  -10.4105   25.9494 C   0  0  0  0  0  0
  -21.2753  -10.4245   24.6028 N   0  0  0  0  0  0
  -29.4220  -11.7526   20.7281 N   0  0  0  0  0  0
  -23.4331  -10.5522   25.2126 O   0  0  0  0  0  0
  -31.8968  -12.7978   18.9173 H   0  0  0  0  0  0
  -31.3384  -11.2881   19.3523 H   0  0  0  0  0  0
  -29.8553  -11.4620   17.4028 H   0  0  0  0  0  0
  -29.9817  -13.1909   17.3684 H   0  0  0  0  0  0
  -27.8086  -11.5235   18.6274 H   0  0  0  0  0  0
  -27.5978  -12.8228   17.5347 H   0  0  0  0  0  0
  -27.6655  -14.5366   19.1819 H   0  0  0  0  0  0
  -28.8102  -14.8868   21.3235 H   0  0  0  0  0  0
  -28.2810  -13.5273   22.0064 H   0  0  0  0  0  0
  -25.6786   -9.7266   23.3425 H   0  0  0  0  0  0
  -24.0128   -7.7611   23.5512 H   0  0  0  0  0  0
  -21.3377   -9.1097   20.1825 H   0  0  0  0  0  0
  -22.6902  -11.1220   19.5445 H   0  0  0  0  0  0
  -21.2810   -7.6279   24.1608 H   0  0  0  0  0  0
  -21.1803   -5.9727   25.9932 H   0  0  0  0  0  0
  -22.0022   -2.8090   23.1902 H   0  0  0  0  0  0
  -22.1090  -12.1847   21.7785 H   0  0  0  0  0  0
  -20.9308  -13.4784   21.6628 H   0  0  0  0  0  0
  -24.6137  -16.1249   20.2985 H   0  0  0  0  0  0
  -26.2496  -15.9764   19.9009 H   0  0  0  0  0  0
  -26.7452  -32.4841   23.0728 H   0  0  0  0  0  0
  -25.0084  -33.9340   25.0038 H   0  0  0  0  0  0
  -22.8075  -31.2752   21.3526 H   0  0  0  0  0  0
  -23.3792  -35.9480   23.3247 H   0  0  0  0  0  0
  -24.3608  -36.8875   22.2072 H   0  0  0  0  0  0
  -23.7294  -37.6330   23.6757 H   0  0  0  0  0  0
  -26.2828  -31.1896   20.6408 H   0  0  0  0  0  0
  -26.9103  -30.5414   22.1067 H   0  0  0  0  0  0
  -27.8412  -28.0945   21.6683 H   0  0  0  0  0  0
  -25.5351  -25.6032   19.0230 H   0  0  0  0  0  0
  -23.9499  -27.3920   18.7530 H   0  0  0  0  0  0
  -23.9316  -30.5492   19.3842 H   0  0  0  0  0  0
  -22.8141  -29.2802   19.7806 H   0  0  0  0  0  0
  -25.1382  -36.1652   25.0772 H   0  0  0  0  0  0
  -21.0048  -28.3416   24.1256 H   0  0  0  0  0  0
  -20.5659  -26.2397   23.3657 H   0  0  0  0  0  0
  -21.6666  -26.7408   22.1215 H   0  0  0  0  0  0
  -19.6961  -25.6269   21.1284 H   0  0  0  0  0  0
  -19.6730  -27.3139   20.6704 H   0  0  0  0  0  0
  -17.4228  -26.6653   21.4017 H   0  0  0  0  0  0
  -18.0371  -26.0094   22.9018 H   0  0  0  0  0  0
  -19.7973  -30.7309   24.2210 H   0  0  0  0  0  0
  -17.5048  -31.6284   24.5163 H   0  0  0  0  0  0
  -15.5381  -30.2997   23.7701 H   0  0  0  0  0  0
  -15.8687  -28.0827   22.7129 H   0  0  0  0  0  0
  -24.5919  -30.7060   25.7629 H   0  0  0  0  0  0
  -24.8806  -32.2999   26.4502 H   0  0  0  0  0  0
  -25.7881  -30.9124   27.0225 H   0  0  0  0  0  0
  -26.3195  -29.6384   24.1638 H   0  0  0  0  0  0
  -27.3923  -29.7230   25.5354 H   0  0  0  0  0  0
  -27.9213  -30.3853   24.0131 H   0  0  0  0  0  0
  -27.2642  -33.3709   26.1819 H   0  0  0  0  0  0
  -28.3991  -32.6706   25.0351 H   0  0  0  0  0  0
  -28.0620  -31.8576   26.5564 H   0  0  0  0  0  0
  -28.2560  -38.0072   24.7498 H   0  0  0  0  0  0
  -28.1118  -36.2587   24.6310 H   0  0  0  0  0  0
  -27.2289  -37.1397   25.8866 H   0  0  0  0  0  0
  -20.9554  -29.8745   21.6586 H   0  0  0  0  0  0
  -26.0116  -38.2703   24.1361 H   0  0  0  0  0  0
  -24.7003   -7.7086   20.8139 H   0  0  0  0  0  0
  -24.4124   -8.8220   19.5836 H   0  0  0  0  0  0
  -26.7832   -9.5632   19.7479 H   0  0  0  0  0  0
  -27.0360   -8.5236   21.0678 H   0  0  0  0  0  0
  -26.6458  -12.9061   22.9033 H   0  0  0  0  0  0
  -26.4476  -11.6006   23.9284 H   0  0  0  0  0  0
  -22.0114  -11.1109   22.5095 H   0  0  0  0  0  0
  -27.3111  -11.4980   21.0907 H   0  0  0  0  0  0
  -23.8081  -12.9503   22.6278 H   0  0  0  0  0  0
  -20.2048  -15.5993   24.8546 H   0  0  0  0  0  0
  -21.5819  -16.5168   25.4721 H   0  0  0  0  0  0
  -21.2347  -14.9091   26.1084 H   0  0  0  0  0  0
  -23.9611  -19.6156   23.4004 H   0  0  0  0  0  0
  -25.0146  -18.7767   24.5395 H   0  0  0  0  0  0
  -23.5792  -17.9732   23.8972 H   0  0  0  0  0  0
  -20.3994   -9.0611   27.6205 H   0  0  0  0  0  0
  -21.7675   -8.6212   26.6009 H   0  0  0  0  0  0
  -20.1186   -8.3031   26.0665 H   0  0  0  0  0  0
  -18.8536  -11.0320   26.9181 H   0  0  0  0  0  0
  -18.5898  -10.2783   25.3521 H   0  0  0  0  0  0
  -19.2119  -11.9321   25.4690 H   0  0  0  0  0  0
  -29.1495  -10.0227   21.9609 H   0  0  0  0  0  0
  -28.9401  -11.4951   22.8346 H   0  0  0  0  0  0
  -22.0528  -15.4923   23.2102 H   0  0  0  0  0  0
  -21.7650  -13.8935   23.8975 H   0  0  0  0  0  0
  -26.6508  -21.9402   22.7910 H   0  0  0  0  0  0
  -25.1510  -21.9856   21.9891 H   0  0  0  0  0  0
  -23.6601  -14.0783   25.3876 H   0  0  0  0  0  0
  -23.8841  -15.7523   25.0039 H   0  0  0  0  0  0
  -27.1945  -19.5376   22.1398 H   0  0  0  0  0  0
  -26.2227  -19.5310   20.7475 H   0  0  0  0  0  0
  -26.3057  -15.8634   22.2908 H   0  0  0  0  0  0
  -25.9871  -16.3427   23.8233 H   0  0  0  0  0  0
  -26.0253  -23.4647   20.0490 H   0  0  0  0  0  0
  -27.6489  -23.0011   20.3166 H   0  0  0  0  0  0
  -25.4562  -14.2610   24.1068 H   0  0  0  0  0  0
  -24.4990  -18.0159   21.6669 H   0  0  0  0  0  0
  -21.2776  -11.0886   26.5785 H   0  0  0  0  0  0
  -20.6334  -10.4430   23.8233 H   0  0  0  0  0  0
  -29.0365  -11.3687   19.8766 H   0  0  0  0  0  0
  1 25  1  0  0  0
  1 30  2  0  0  0
  1 93  1  0  0  0
  2  3  1  0  0  0
  2 25  1  0  0  0
  2 95  1  0  0  0
  2 96  1  0  0  0
  3  4  1  0  0  0
  3 97  1  0  0  0
  3 98  1  0  0  0
  4  5  1  0  0  0
  4 99  1  0  0  0
  4100  1  0  0  0
  5  6  1  0  0  0
  5 26  1  0  0  0
  5101  1  0  0  0
  6 25  1  0  0  0
  6102  1  0  0  0
  6103  1  0  0  0
  7  8  2  0  0  0
  7 26  1  0  0  0
  7 29  1  0  0  0
  8  9  1  0  0  0
  8 22  1  0  0  0
  9 10  1  0  0  0
  9 27  2  0  0  0
 10 11  2  0  0  0
 10 15  1  0  0  0
 11 12  1  0  0  0
 11104  1  0  0  0
 12 13  2  0  0  0
 12105  1  0  0  0
 13 14  1  0  0  0
 13 31  1  0  0  0
 14 15  2  0  0  0
 14106  1  0  0  0
 15107  1  0  0  0
 16 17  2  0  0  0
 16 21  1  0  0  0
 16 31  1  0  0  0
 17 18  1  0  0  0
 17108  1  0  0  0
 18 19  2  0  0  0
 18109  1  0  0  0
 19 20  1  0  0  0
 19 24  1  0  0  0
 20 21  2  0  0  0
 20110  1  0  0  0
 21 23  1  0  0  0
 22 28  1  0  0  0
 22 32  2  0  0  0
 26 27  1  0  0  0
 28111  1  0  0  0
 28112  1  0  0  0
 29113  1  0  0  0
 29114  1  0  0  0
 33 34  1  0  0  0
 33 66  1  0  0  0
 33 70  2  0  0  0
 34 36  1  0  0  0
 34 59  1  0  0  0
 34115  1  0  0  0
 35 44  2  0  0  0
 35 45  1  0  0  0
 35 68  1  0  0  0
 36 56  1  0  0  0
 36116  1  0  0  0
 37 39  1  0  0  0
 37 47  1  0  0  0
 37 66  1  0  0  0
 37117  1  0  0  0
 38 43  2  0  0  0
 38 46  1  0  0  0
 38 47  1  0  0  0
 39 64  1  0  0  0
 39 67  2  0  0  0
 40 52  1  0  0  0
 40 53  2  0  0  0
 40 58  1  0  0  0
 41118  1  0  0  0
 41119  1  0  0  0
 41120  1  0  0  0
 41 48  1  0  0  0
 42 43  1  0  0  0
 42 66  1  0  0  0
 42121  1  0  0  0
 42122  1  0  0  0
 43 44  1  0  0  0
 44123  1  0  0  0
 45 46  2  0  0  0
 45124  1  0  0  0
 46125  1  0  0  0
 47126  1  0  0  0
 47127  1  0  0  0
 48 56  1  0  0  0
 48 65  1  0  0  0
 48128  1  0  0  0
 49 50  1  0  0  0
 49 53  1  0  0  0
 49 64  1  0  0  0
 49129  1  0  0  0
 50 51  1  0  0  0
 50130  1  0  0  0
 50131  1  0  0  0
 51 52  1  0  0  0
 51132  1  0  0  0
 51133  1  0  0  0
 52134  1  0  0  0
 52135  1  0  0  0
 53 54  1  0  0  0
 54 55  2  0  0  0
 54136  1  0  0  0
 55 57  1  0  0  0
 55137  1  0  0  0
 56 69  2  0  0  0
 57 58  2  0  0  0
 57138  1  0  0  0
 58139  1  0  0  0
 59 60  1  0  0  0
 59 61  1  0  0  0
 59 62  1  0  0  0
 60140  1  0  0  0
 60141  1  0  0  0
 60142  1  0  0  0
 61143  1  0  0  0
 61144  1  0  0  0
 61145  1  0  0  0
 62146  1  0  0  0
 62147  1  0  0  0
 62148  1  0  0  0
 63 65  1  0  0  0
 63149  1  0  0  0
 63150  1  0  0  0
 63151  1  0  0  0
 64152  1  0  0  0
 65153  1  0  0  0
 68 88  1  0  0  0
 71 92  1  0  0  0
 71 94  2  0  0  0
 71 75  1  0  0  0
 72 73  1  0  0  0
 72 75  1  0  0  0
 72154  1  0  0  0
 72155  1  0  0  0
 73 76  1  0  0  0
 73156  1  0  0  0
 73157  1  0  0  0
 74 76  1  0  0  0
 74158  1  0  0  0
 74159  1  0  0  0
 74 77  1  0  0  0
 75 77  1  0  0  0
 75160  1  0  0  0
 76 82  1  0  0  0
 76161  1  0  0  0
 77 89  1  0  0  0
 77162  1  0  0  0
 78 83  1  0  0  0
 78163  1  0  0  0
 78164  1  0  0  0
 78165  1  0  0  0
 79166  1  0  0  0
 79167  1  0  0  0
 79168  1  0  0  0
 79 90  1  0  0  0
 80169  1  0  0  0
 80170  1  0  0  0
 80171  1  0  0  0
 80 91  1  0  0  0
 81 91  1  0  0  0
 81172  1  0  0  0
 81173  1  0  0  0
 81174  1  0  0  0
 82 93  1  0  0  0
 82175  1  0  0  0
 82176  1  0  0  0
 83 85  1  0  0  0
 83177  1  0  0  0
 83178  1  0  0  0
 84 86  1  0  0  0
 84 88  1  0  0  0
 84179  1  0  0  0
 84180  1  0  0  0
 85181  1  0  0  0
 85182  1  0  0  0
 85 89  1  0  0  0
 86 90  1  0  0  0
 86183  1  0  0  0
 86184  1  0  0  0
 87 89  1  0  0  0
 87 90  1  0  0  0
 87185  1  0  0  0
 87186  1  0  0  0
 88187  1  0  0  0
 88188  1  0  0  0
 89189  1  0  0  0
 90190  1  0  0  0
 91 92  1  0  0  0
 91191  1  0  0  0
 92192  1  0  0  0
 93193  1  0  0  0
M  ISO  4   1 100  68 101  88 101  93 100
M  END
> <chiral flag>
0

> <version>
0

> <s_m_source_file>
/data/baiqing/PycharmProjects/Reinvent-master-3.2/result/LINK_invent/BTK/process_docking_weight1_custom_sum_contain_oxygen_bond_distance_aromatic_linkinvent_7_9_3/rearranged_h_0117.sdf

> <i_m_source_file_index>
31

> <r_mmod_Potential_Energy-OPLS-2005>
16808.359375

> <r_mmod_Stretch_Energy-OPLS-2005>
9215.908203125

> <r_mmod_Bend_Energy-OPLS-2005>
2572.32495117188

> <r_mmod_Torsional_Energy-OPLS-2005>
586.062438964844

> <r_mmod_Improper_Torsional_Energy-OPLS-2005>
13.9714889526367

> <r_mmod_Van_der_Waal_Energy-OPLS-2005>
3200.06420898438

> <r_mmod_Electrostatic_Energy-OPLS-2005>
-405.281555175781

> <r_mmod_Solvation_Energy-OPLS-2005>
-215.003799438477

> <b_mmod_Minimization_Converged-OPLS-2005>
0

> <r_mmod_RMS_Derivative-OPLS-2005>
7.93955993652344

$$$$
31
                    3D
 Structure written by MMmdl.
172180  0  0  1  0            999 V2000
  -30.5934  -14.7396   20.4841 C   0  0  0  0  0  0
  -30.4403  -12.4616   19.4613 C   0  0  0  0  0  0
  -29.5055  -12.4993   18.2322 C   0  0  0  0  0  0
  -28.0349  -12.3168   18.6549 C   0  0  0  0  0  0
  -27.6406  -13.2225   19.8511 C   0  0  2  0  0  0
  -28.6867  -13.1402   20.9829 C   0  0  0  0  0  0
  -25.2513  -13.8172   20.5706 C   0  0  0  0  0  0
  -24.1800  -13.0435   20.9206 C   0  0  0  0  0  0
  -24.6384  -11.6905   20.8766 C   0  0  0  0  0  0
  -23.9065  -10.4287   21.0425 C   0  0  0  0  0  0
  -24.3618   -9.4194   21.9198 C   0  0  0  0  0  0
  -23.6289   -8.2235   22.0765 C   0  0  0  0  0  0
  -22.4270   -8.0279   21.3554 C   0  0  0  0  0  0
  -21.9906   -9.0254   20.4658 C   0  0  0  0  0  0
  -22.7241  -10.2132   20.3068 C   0  0  0  0  0  0
  -21.6846   -6.0732   22.5274 C   0  0  0  0  0  0
  -21.4007   -6.5637   23.8206 C   0  0  0  0  0  0
  -21.3655   -5.6797   24.9174 C   0  0  0  0  0  0
  -21.6042   -4.3060   24.7230 C   0  0  0  0  0  0
  -21.8821   -3.8150   23.4346 C   0  0  0  0  0  0
  -21.9186   -4.6963   22.3399 C   0  0  0  0  0  0
  -22.7818  -13.5220   21.1864 C   0  0  0  0  0  0
  -22.1656   -4.2151   21.0981 F   0  0  0  0  0  0
  -21.5630   -3.4541   25.7738 F   0  0  0  0  0  0
  -29.9840  -13.5087   20.4018 N   0  0  0  0  0  0
  -26.2921  -12.9363   20.3295 N   0  0  0  0  0  0
  -25.9303  -11.6515   20.5776 N   0  0  0  0  0  0
  -22.0463  -12.8222   22.0428 N   0  0  0  0  0  0
  -25.4222  -15.1904   20.4128 N   0  0  0  0  0  0
  -31.7812  -14.8644   20.1708 O   0  0  0  0  0  0
  -21.6633   -6.8877   21.4240 O   0  0  0  0  0  0
  -22.3502  -14.5524   20.6699 O   0  0  0  0  0  0
  -24.6274  -31.8556   23.1995 C   0  0  0  0  0  0
  -25.9103  -32.4755   23.8341 C   0  0  1  0  0  0
  -27.2267  -27.2825   20.1530 C   0  0  0  0  0  0
  -25.5893  -33.8556   24.2236 N   0  0  0  0  0  0
  -23.4259  -30.4772   21.5419 C   0  0  2  0  0  0
  -24.8785  -28.9253   20.1104 C   0  0  0  0  0  0
  -22.7491  -29.4610   22.4924 C   0  0  0  0  0  0
  -18.0284  -28.1392   22.8495 C   0  0  0  0  0  0
  -24.1481  -36.7285   23.2651 C   0  0  0  0  0  0
  -25.9683  -30.7756   21.3800 C   0  0  0  0  0  0
  -26.0447  -29.3993   20.7248 C   0  0  0  0  0  0
  -27.2244  -28.5920   20.7331 C   0  0  0  0  0  0
  -26.0512  -26.8771   19.4872 C   0  0  0  0  0  0
  -24.8866  -27.6722   19.4755 C   0  0  0  0  0  0
  -23.6452  -29.8078   20.1589 C   0  0  0  0  0  0
  -25.4105  -36.3060   24.0325 C   0  0  1  0  0  0
  -20.5883  -28.3697   23.1262 C   0  0  2  0  0  0
  -20.6772  -26.9414   22.5405 C   0  0  0  0  0  0
  -19.5741  -26.6388   21.5217 C   0  0  0  0  0  0
  -18.1922  -26.7934   22.1627 C   0  0  0  0  0  0
  -19.1540  -28.8861   23.2875 C   0  0  0  0  0  0
  -18.9471  -30.1462   23.8899 C   0  0  0  0  0  0
  -17.6480  -30.6605   24.0560 C   0  0  0  0  0  0
  -25.9047  -34.9435   23.5085 C   0  0  0  0  0  0
  -16.5365  -29.9100   23.6342 C   0  0  0  0  0  0
  -16.7274  -28.6508   23.0367 C   0  0  0  0  0  0
  -26.4490  -31.6600   25.0740 C   0  0  0  0  0  0
  -25.3702  -31.3749   26.1456 C   0  0  0  0  0  0
  -27.0358  -30.3012   24.6244 C   0  0  0  0  0  0
  -27.6031  -32.4374   25.7483 C   0  0  0  0  0  0
  -27.5566  -37.1780   24.8467 C   0  0  0  0  0  0
  -21.4198  -29.3047   22.3650 N   0  0  0  0  0  0
  -26.4272  -37.3758   23.9419 N   0  0  0  0  0  0
  -24.6923  -31.0543   22.0970 N   0  0  0  0  0  0
  -23.4180  -28.8167   23.3043 O   0  0  0  0  0  0
  -28.3253  -26.3984   20.2022 O   0  0  0  0  0  0
  -26.5654  -34.8912   22.4673 O   0  0  0  0  0  0
  -23.5428  -32.1378   23.7289 O   0  0  0  0  0  0
  -28.7811  -22.4092   20.7807 C   0  0  0  0  0  0
  -29.6394  -21.3124   18.8413 C   0  0  0  0  0  0
  -28.7244  -23.6869   20.0805 C   0  0  0  0  0  0
  -29.2318  -21.1651   20.1814 C   0  0  0  0  0  0
  -29.1777  -23.6299   18.7307 C   0  0  0  0  0  0
  -26.8868  -24.7754   21.5615 C   0  0  0  0  0  0
  -30.7303  -25.5041   18.0186 C   0  0  0  0  0  0
  -27.3253  -22.1862   14.4228 C   0  0  0  0  0  0
  -29.3201  -18.4965   20.2427 C   0  0  0  0  0  0
  -30.1623  -17.3143   20.9618 C   0  0  0  0  0  0
  -27.6239  -24.0431   16.0437 C   0  0  0  0  0  0
  -28.2195  -25.0228   20.8189 C   0  0  2  0  0  0
  -29.3400  -24.8694   17.8328 C   0  0  1  0  0  0
  -28.9977  -24.6763   16.3306 C   0  0  1  0  0  0
  -29.6356  -22.4830   18.1681 N   0  0  0  0  0  0
  -29.3196  -19.8838   20.8683 N   0  0  0  0  0  0
  -29.7988  -15.8462   20.7406 N   0  0  0  0  0  0
  -27.5411  -23.6315   14.6279 N   0  3  0  0  0  0
  -29.9473  -23.9711   15.7055 F   0  0  0  0  0  0
  -31.4746  -12.6135   19.1464 H   0  0  0  0  0  0
  -30.4149  -11.4835   19.9428 H   0  0  0  0  0  0
  -29.7876  -11.7213   17.5210 H   0  0  0  0  0  0
  -29.6199  -13.4502   17.7090 H   0  0  0  0  0  0
  -27.9032  -11.2694   18.9317 H   0  0  0  0  0  0
  -27.3686  -12.4908   17.8093 H   0  0  0  0  0  0
  -27.6400  -14.2445   19.4705 H   0  0  0  0  0  0
  -28.7300  -12.1310   21.3958 H   0  0  0  0  0  0
  -28.4210  -13.7975   21.8118 H   0  0  0  0  0  0
  -25.2760   -9.5659   22.4775 H   0  0  0  0  0  0
  -23.9985   -7.4623   22.7485 H   0  0  0  0  0  0
  -21.0835   -8.8783   19.8968 H   0  0  0  0  0  0
  -22.3704  -10.9676   19.6181 H   0  0  0  0  0  0
  -21.2002   -7.6150   23.9712 H   0  0  0  0  0  0
  -21.1474   -6.0528   25.9078 H   0  0  0  0  0  0
  -22.0607   -2.7607   23.2848 H   0  0  0  0  0  0
  -22.4077  -11.9879   22.4810 H   0  0  0  0  0  0
  -21.1090  -13.1264   22.2659 H   0  0  0  0  0  0
  -24.6581  -15.8460   20.5342 H   0  0  0  0  0  0
  -26.2693  -15.6305   20.0786 H   0  0  0  0  0  0
  -26.7168  -32.5423   23.1086 H   0  0  0  0  0  0
  -24.9971  -33.9691   25.0334 H   0  0  0  0  0  0
  -22.7216  -31.2982   21.3947 H   0  0  0  0  0  0
  -23.3737  -35.9621   23.3308 H   0  0  0  0  0  0
  -24.3569  -36.8926   22.2070 H   0  0  0  0  0  0
  -23.7247  -37.6479   23.6699 H   0  0  0  0  0  0
  -26.1068  -31.5355   20.6101 H   0  0  0  0  0  0
  -26.8430  -30.8233   22.0162 H   0  0  0  0  0  0
  -28.1168  -28.9502   21.2267 H   0  0  0  0  0  0
  -26.0238  -25.9131   18.9987 H   0  0  0  0  0  0
  -23.9962  -27.3056   18.9827 H   0  0  0  0  0  0
  -23.7612  -30.5817   19.3989 H   0  0  0  0  0  0
  -22.7664  -29.2339   19.8599 H   0  0  0  0  0  0
  -25.1284  -36.1894   25.0816 H   0  0  0  0  0  0
  -20.9981  -28.3300   24.1382 H   0  0  0  0  0  0
  -20.5677  -26.2326   23.3614 H   0  0  0  0  0  0
  -21.6639  -26.7454   22.1196 H   0  0  0  0  0  0
  -19.6900  -25.6295   21.1247 H   0  0  0  0  0  0
  -19.6667  -27.3196   20.6740 H   0  0  0  0  0  0
  -17.4191  -26.6688   21.4030 H   0  0  0  0  0  0
  -18.0313  -26.0068   22.9011 H   0  0  0  0  0  0
  -19.7956  -30.7260   24.2278 H   0  0  0  0  0  0
  -17.5044  -31.6287   24.5153 H   0  0  0  0  0  0
  -15.5362  -30.3006   23.7683 H   0  0  0  0  0  0
  -15.8662  -28.0833   22.7099 H   0  0  0  0  0  0
  -24.5894  -30.7071   25.7804 H   0  0  0  0  0  0
  -24.8863  -32.2914   26.4846 H   0  0  0  0  0  0
  -25.8003  -30.8975   27.0267 H   0  0  0  0  0  0
  -26.2955  -29.6710   24.1294 H   0  0  0  0  0  0
  -27.4075  -29.7326   25.4780 H   0  0  0  0  0  0
  -27.8808  -30.4293   23.9469 H   0  0  0  0  0  0
  -27.2637  -33.3701   26.2000 H   0  0  0  0  0  0
  -28.3836  -32.6898   25.0297 H   0  0  0  0  0  0
  -28.0696  -31.8552   26.5438 H   0  0  0  0  0  0
  -28.2584  -38.0078   24.7525 H   0  0  0  0  0  0
  -28.1057  -36.2609   24.6274 H   0  0  0  0  0  0
  -27.2293  -37.1422   25.8872 H   0  0  0  0  0  0
  -20.9390  -29.8745   21.6825 H   0  0  0  0  0  0
  -26.0146  -38.2822   24.1434 H   0  0  0  0  0  0
  -28.4815  -22.3840   21.8175 H   0  0  0  0  0  0
  -30.0207  -20.4692   18.2857 H   0  0  0  0  0  0
  -26.9660  -23.9553   22.2735 H   0  0  0  0  0  0
  -26.0798  -24.5251   20.8736 H   0  0  0  0  0  0
  -26.5790  -25.6437   22.1441 H   0  0  0  0  0  0
  -30.9048  -25.7670   19.0621 H   0  0  0  0  0  0
  -30.8351  -26.4129   17.4253 H   0  0  0  0  0  0
  -31.5211  -24.8160   17.7176 H   0  0  0  0  0  0
  -27.3614  -21.9421   13.3615 H   0  0  0  0  0  0
  -26.3555  -21.8753   14.8131 H   0  0  0  0  0  0
  -28.1020  -21.6060   14.9231 H   0  0  0  0  0  0
  -28.2743  -18.1828   20.2152 H   0  0  0  0  0  0
  -29.6303  -18.5503   19.1995 H   0  0  0  0  0  0
  -30.0716  -17.4616   22.0386 H   0  0  0  0  0  0
  -31.2217  -17.4558   20.7457 H   0  0  0  0  0  0
  -26.8345  -24.7651   16.2593 H   0  0  0  0  0  0
  -27.4363  -23.1898   16.6944 H   0  0  0  0  0  0
  -28.9462  -25.1183   21.6267 H   0  0  0  0  0  0
  -28.5931  -25.5918   18.1292 H   0  0  0  0  0  0
  -29.0311  -25.6551   15.8489 H   0  0  0  0  0  0
  -29.0486  -19.8973   21.8501 H   0  0  0  0  0  0
  -28.8289  -15.6217   20.9080 H   0  0  0  0  0  0
  -26.8212  -24.1555   14.1565 H   0  0  0  0  0  0
  -28.4289  -23.8708   14.2130 H   0  0  0  0  0  0
  1 25  1  0  0  0
  1 30  2  0  0  0
  1 87  1  0  0  0
  2  3  1  0  0  0
  2 25  1  0  0  0
  2 90  1  0  0  0
  2 91  1  0  0  0
  3  4  1  0  0  0
  3 92  1  0  0  0
  3 93  1  0  0  0
  4  5  1  0  0  0
  4 94  1  0  0  0
  4 95  1  0  0  0
  5  6  1  0  0  0
  5 26  1  0  0  0
  5 96  1  0  0  0
  6 25  1  0  0  0
  6 97  1  0  0  0
  6 98  1  0  0  0
  7  8  2  0  0  0
  7 26  1  0  0  0
  7 29  1  0  0  0
  8  9  1  0  0  0
  8 22  1  0  0  0
  9 10  1  0  0  0
  9 27  2  0  0  0
 10 11  2  0  0  0
 10 15  1  0  0  0
 11 12  1  0  0  0
 11 99  1  0  0  0
 12 13  2  0  0  0
 12100  1  0  0  0
 13 14  1  0  0  0
 13 31  1  0  0  0
 14 15  2  0  0  0
 14101  1  0  0  0
 15102  1  0  0  0
 16 17  2  0  0  0
 16 21  1  0  0  0
 16 31  1  0  0  0
 17 18  1  0  0  0
 17103  1  0  0  0
 18 19  2  0  0  0
 18104  1  0  0  0
 19 20  1  0  0  0
 19 24  1  0  0  0
 20 21  2  0  0  0
 20105  1  0  0  0
 21 23  1  0  0  0
 22 28  1  0  0  0
 22 32  2  0  0  0
 26 27  1  0  0  0
 28106  1  0  0  0
 28107  1  0  0  0
 29108  1  0  0  0
 29109  1  0  0  0
 33 34  1  0  0  0
 33 66  1  0  0  0
 33 70  2  0  0  0
 34 36  1  0  0  0
 34 59  1  0  0  0
 34110  1  0  0  0
 35 44  2  0  0  0
 35 45  1  0  0  0
 35 68  1  0  0  0
 36 56  1  0  0  0
 36111  1  0  0  0
 37 39  1  0  0  0
 37 47  1  0  0  0
 37 66  1  0  0  0
 37112  1  0  0  0
 38 43  2  0  0  0
 38 46  1  0  0  0
 38 47  1  0  0  0
 39 64  1  0  0  0
 39 67  2  0  0  0
 40 52  1  0  0  0
 40 53  2  0  0  0
 40 58  1  0  0  0
 41113  1  0  0  0
 41114  1  0  0  0
 41115  1  0  0  0
 41 48  1  0  0  0
 42 43  1  0  0  0
 42 66  1  0  0  0
 42116  1  0  0  0
 42117  1  0  0  0
 43 44  1  0  0  0
 44118  1  0  0  0
 45 46  2  0  0  0
 45119  1  0  0  0
 46120  1  0  0  0
 47121  1  0  0  0
 47122  1  0  0  0
 48 56  1  0  0  0
 48 65  1  0  0  0
 48123  1  0  0  0
 49 50  1  0  0  0
 49 53  1  0  0  0
 49 64  1  0  0  0
 49124  1  0  0  0
 50 51  1  0  0  0
 50125  1  0  0  0
 50126  1  0  0  0
 51 52  1  0  0  0
 51127  1  0  0  0
 51128  1  0  0  0
 52129  1  0  0  0
 52130  1  0  0  0
 53 54  1  0  0  0
 54 55  2  0  0  0
 54131  1  0  0  0
 55 57  1  0  0  0
 55132  1  0  0  0
 56 69  2  0  0  0
 57 58  2  0  0  0
 57133  1  0  0  0
 58134  1  0  0  0
 59 60  1  0  0  0
 59 61  1  0  0  0
 59 62  1  0  0  0
 60135  1  0  0  0
 60136  1  0  0  0
 60137  1  0  0  0
 61138  1  0  0  0
 61139  1  0  0  0
 61140  1  0  0  0
 62141  1  0  0  0
 62142  1  0  0  0
 62143  1  0  0  0
 63 65  1  0  0  0
 63144  1  0  0  0
 63145  1  0  0  0
 63146  1  0  0  0
 64147  1  0  0  0
 65148  1  0  0  0
 68 82  1  0  0  0
 71 73  2  0  0  0
 71 74  1  0  0  0
 71149  1  0  0  0
 72 74  2  0  0  0
 72 85  1  0  0  0
 72150  1  0  0  0
 73 75  1  0  0  0
 73 82  1  0  0  0
 74 86  1  0  0  0
 75 83  1  0  0  0
 75 85  2  0  0  0
 76151  1  0  0  0
 76152  1  0  0  0
 76153  1  0  0  0
 76 82  1  0  0  0
 77154  1  0  0  0
 77155  1  0  0  0
 77156  1  0  0  0
 77 83  1  0  0  0
 78 88  1  0  0  0
 78157  1  0  0  0
 78158  1  0  0  0
 78159  1  0  0  0
 79 80  1  0  0  0
 79 86  1  0  0  0
 79160  1  0  0  0
 79161  1  0  0  0
 80 87  1  0  0  0
 80162  1  0  0  0
 80163  1  0  0  0
 81 84  1  0  0  0
 81 88  1  0  0  0
 81164  1  0  0  0
 81165  1  0  0  0
 82166  1  0  0  0
 83 84  1  0  0  0
 83167  1  0  0  0
 84 89  1  0  0  0
 84168  1  0  0  0
 86169  1  0  0  0
 87170  1  0  0  0
 88171  1  0  0  0
 88172  1  0  0  0
M  CHG  1  88   1
M  ISO  4   1 100  68 101  82 101  87 100
M  END
> <chiral flag>
0

> <version>
0

> <s_m_source_file>
/data/baiqing/PycharmProjects/Reinvent-master-3.2/result/LINK_invent/BTK/process_docking_weight1_custom_sum_contain_oxygen_bond_distance_aromatic_linkinvent_7_9_3/rearranged_h_0117.sdf

> <i_m_source_file_index>
32

> <r_mmod_Potential_Energy-OPLS-2005>
-137.276565551758

> <r_mmod_Stretch_Energy-OPLS-2005>
123.782608032227

> <r_mmod_Bend_Energy-OPLS-2005>
192.650863647461

> <r_mmod_Torsional_Energy-OPLS-2005>
243.29573059082

> <r_mmod_Improper_Torsional_Energy-OPLS-2005>
5.60747098922729

> <r_mmod_Van_der_Waal_Energy-OPLS-2005>
146.046096801758

> <r_mmod_Electrostatic_Energy-OPLS-2005>
-449.493713378906

> <r_mmod_Solvation_Energy-OPLS-2005>
-479.496917724609

> <b_mmod_Minimization_Converged-OPLS-2005>
0

> <r_mmod_RMS_Derivative-OPLS-2005>
2.20587849617004

$$$$
32
                    3D
 Structure written by MMmdl.
180189  0  0  1  0            999 V2000
  -30.7389  -14.4609   20.6094 C   0  0  0  0  0  0
  -30.4193  -12.3182   19.4236 C   0  0  0  0  0  0
  -29.4911  -12.5105   18.2078 C   0  0  0  0  0  0
  -28.0142  -12.3663   18.6234 C   0  0  0  0  0  0
  -27.6611  -13.2125   19.8757 C   0  0  2  0  0  0
  -28.7041  -13.0078   20.9981 C   0  0  0  0  0  0
  -25.2580  -13.8184   20.5695 C   0  0  0  0  0  0
  -24.1831  -13.0450   20.9168 C   0  0  0  0  0  0
  -24.6390  -11.6909   20.8735 C   0  0  0  0  0  0
  -23.9060  -10.4294   21.0397 C   0  0  0  0  0  0
  -24.3616   -9.4210   21.9173 C   0  0  0  0  0  0
  -23.6289   -8.2249   22.0746 C   0  0  0  0  0  0
  -22.4276   -8.0287   21.3542 C   0  0  0  0  0  0
  -21.9904   -9.0258   20.4642 C   0  0  0  0  0  0
  -22.7226  -10.2134   20.3045 C   0  0  0  0  0  0
  -21.6848   -6.0730   22.5275 C   0  0  0  0  0  0
  -21.4016   -6.5641   23.8211 C   0  0  0  0  0  0
  -21.3658   -5.6787   24.9171 C   0  0  0  0  0  0
  -21.6050   -4.3053   24.7219 C   0  0  0  0  0  0
  -21.8821   -3.8141   23.4342 C   0  0  0  0  0  0
  -21.9196   -4.6958   22.3399 C   0  0  0  0  0  0
  -22.7859  -13.5249   21.1846 C   0  0  0  0  0  0
  -22.1662   -4.2147   21.0973 F   0  0  0  0  0  0
  -21.5630   -3.4538   25.7732 F   0  0  0  0  0  0
  -30.0342  -13.3087   20.4434 N   0  0  0  0  0  0
  -26.3025  -12.9357   20.3380 N   0  0  0  0  0  0
  -25.9322  -11.6513   20.5771 N   0  0  0  0  0  0
  -22.0490  -12.8234   22.0395 N   0  0  0  0  0  0
  -25.4333  -15.1890   20.4111 N   0  0  0  0  0  0
  -31.8506  -14.6323   20.1046 O   0  0  0  0  0  0
  -21.6639   -6.8878   21.4241 O   0  0  0  0  0  0
  -22.3548  -14.5556   20.6692 O   0  0  0  0  0  0
  -24.6185  -31.8687   23.2090 C   0  0  0  0  0  0
  -25.9100  -32.4811   23.8389 C   0  0  1  0  0  0
  -27.2348  -27.4246   20.1042 C   0  0  0  0  0  0
  -25.5974  -33.8599   24.2336 N   0  0  0  0  0  0
  -23.4039  -30.4923   21.5503 C   0  0  2  0  0  0
  -24.8497  -28.9533   20.1185 C   0  0  0  0  0  0
  -22.7406  -29.4683   22.4978 C   0  0  0  0  0  0
  -18.0254  -28.1388   22.8481 C   0  0  0  0  0  0
  -24.1466  -36.7277   23.2631 C   0  0  0  0  0  0
  -25.9336  -30.8341   21.3628 C   0  0  0  0  0  0
  -26.0133  -29.4649   20.7112 C   0  0  0  0  0  0
  -27.2078  -28.7106   20.6961 C   0  0  0  0  0  0
  -26.0557  -26.9297   19.5024 C   0  0  0  0  0  0
  -24.8671  -27.6837   19.5131 C   0  0  0  0  0  0
  -23.6127  -29.8227   20.1662 C   0  0  0  0  0  0
  -25.4085  -36.3086   24.0341 C   0  0  1  0  0  0
  -20.5842  -28.3688   23.1290 C   0  0  2  0  0  0
  -20.6729  -26.9418   22.5397 C   0  0  0  0  0  0
  -19.5726  -26.6386   21.5187 C   0  0  0  0  0  0
  -18.1904  -26.7928   22.1607 C   0  0  0  0  0  0
  -19.1507  -28.8862   23.2888 C   0  0  0  0  0  0
  -18.9444  -30.1460   23.8908 C   0  0  0  0  0  0
  -17.6445  -30.6597   24.0565 C   0  0  0  0  0  0
  -25.9036  -34.9457   23.5115 C   0  0  0  0  0  0
  -16.5336  -29.9083   23.6333 C   0  0  0  0  0  0
  -16.7246  -28.6500   23.0355 C   0  0  0  0  0  0
  -26.4536  -31.6578   25.0697 C   0  0  0  0  0  0
  -25.3807  -31.3686   26.1443 C   0  0  0  0  0  0
  -27.0400  -30.3012   24.6129 C   0  0  0  0  0  0
  -27.6105  -32.4309   25.7466 C   0  0  0  0  0  0
  -27.5572  -37.1763   24.8473 C   0  0  0  0  0  0
  -21.4138  -29.3057   22.3703 N   0  0  0  0  0  0
  -26.4269  -37.3765   23.9428 N   0  0  0  0  0  0
  -24.6707  -31.0788   22.0984 N   0  0  0  0  0  0
  -23.4185  -28.8210   23.3012 O   0  0  0  0  0  0
  -28.4050  -26.6916   20.0850 O   0  0  0  0  0  0
  -26.5569  -34.8924   22.4655 O   0  0  0  0  0  0
  -23.5393  -32.1452   23.7487 O   0  0  0  0  0  0
  -28.3845  -23.0083   19.6963 C   0  0  0  0  0  0
  -28.4047  -24.3736   19.3510 C   0  0  0  0  0  0
  -28.3552  -22.6264   21.0566 C   0  0  0  0  0  0
  -28.3479  -23.6750   22.0152 C   0  0  0  0  0  0
  -28.3738  -25.3375   20.3704 C   0  0  0  0  0  0
  -32.0533  -19.9209   19.7600 C   0  0  0  0  0  0
  -30.2153  -18.8206   18.4139 C   0  0  0  0  0  0
  -31.9092  -18.7981   20.8226 C   0  0  0  0  0  0
  -30.2102  -17.6426   19.4031 C   0  0  0  0  0  0
  -31.5949  -19.5216   18.3302 C   0  0  1  0  0  0
  -30.5499  -18.0268   20.8684 C   0  0  1  0  0  0
  -28.3096  -23.4061   23.5092 C   0  0  0  0  0  0
  -32.9342  -21.3118   17.2079 C   0  0  0  0  0  0
  -30.9566  -20.4345   16.0789 C   0  0  0  0  0  0
  -28.2221  -21.1283   21.4301 C   0  0  0  0  0  0
  -30.7954  -16.7128   21.7256 C   0  0  0  0  0  0
  -29.3761  -18.8714   21.5259 C   0  0  0  0  0  0
  -28.3610  -24.9902   21.6767 N   0  0  0  0  0  0
  -30.1355  -15.4552   21.2962 N   0  0  0  0  0  0
  -29.4981  -20.3578   21.4306 N   0  3  0  0  0  0
  -31.5953  -20.6967   17.3946 N   0  3  0  0  0  0
  -31.4630  -12.4141   19.1183 H   0  0  0  0  0  0
  -30.3237  -11.3088   19.8266 H   0  0  0  0  0  0
  -29.7326  -11.7834   17.4309 H   0  0  0  0  0  0
  -29.6563  -13.4958   17.7695 H   0  0  0  0  0  0
  -27.8297  -11.3108   18.8250 H   0  0  0  0  0  0
  -27.3620  -12.6377   17.7922 H   0  0  0  0  0  0
  -27.7024  -14.2583   19.5721 H   0  0  0  0  0  0
  -28.6812  -11.9756   21.3514 H   0  0  0  0  0  0
  -28.4638  -13.6182   21.8691 H   0  0  0  0  0  0
  -25.2761   -9.5690   22.4745 H   0  0  0  0  0  0
  -23.9998   -7.4643   22.7461 H   0  0  0  0  0  0
  -21.0838   -8.8776   19.8945 H   0  0  0  0  0  0
  -22.3688  -10.9678   19.6158 H   0  0  0  0  0  0
  -21.2008   -7.6153   23.9716 H   0  0  0  0  0  0
  -21.1480   -6.0518   25.9075 H   0  0  0  0  0  0
  -22.0603   -2.7608   23.2841 H   0  0  0  0  0  0
  -22.4094  -11.9888   22.4775 H   0  0  0  0  0  0
  -21.1118  -13.1282   22.2610 H   0  0  0  0  0  0
  -24.6729  -15.8507   20.5233 H   0  0  0  0  0  0
  -26.2886  -15.6213   20.0867 H   0  0  0  0  0  0
  -26.7162  -32.5539   23.1155 H   0  0  0  0  0  0
  -25.0198  -33.9734   25.0551 H   0  0  0  0  0  0
  -22.6934  -31.3096   21.4104 H   0  0  0  0  0  0
  -23.3732  -35.9612   23.3327 H   0  0  0  0  0  0
  -24.3556  -36.8854   22.2039 H   0  0  0  0  0  0
  -23.7213  -37.6486   23.6624 H   0  0  0  0  0  0
  -26.0440  -31.6025   20.5973 H   0  0  0  0  0  0
  -26.8208  -30.8898   21.9809 H   0  0  0  0  0  0
  -28.1153  -29.1031   21.1324 H   0  0  0  0  0  0
  -26.0485  -25.9574   19.0293 H   0  0  0  0  0  0
  -23.9702  -27.2829   19.0619 H   0  0  0  0  0  0
  -23.7239  -30.5978   19.4072 H   0  0  0  0  0  0
  -22.7336  -29.2470   19.8719 H   0  0  0  0  0  0
  -25.1228  -36.1926   25.0825 H   0  0  0  0  0  0
  -20.9959  -28.3298   24.1404 H   0  0  0  0  0  0
  -20.5619  -26.2310   23.3607 H   0  0  0  0  0  0
  -21.6596  -26.7457   22.1193 H   0  0  0  0  0  0
  -19.6909  -25.6295   21.1218 H   0  0  0  0  0  0
  -19.6666  -27.3213   20.6722 H   0  0  0  0  0  0
  -17.4149  -26.6694   21.4017 H   0  0  0  0  0  0
  -18.0336  -26.0076   22.9013 H   0  0  0  0  0  0
  -19.7932  -30.7262   24.2305 H   0  0  0  0  0  0
  -17.4998  -31.6286   24.5152 H   0  0  0  0  0  0
  -15.5332  -30.2988   23.7648 H   0  0  0  0  0  0
  -15.8641  -28.0814   22.7071 H   0  0  0  0  0  0
  -24.5979  -30.7049   25.7766 H   0  0  0  0  0  0
  -24.9024  -32.2845   26.4915 H   0  0  0  0  0  0
  -25.8153  -30.8826   27.0185 H   0  0  0  0  0  0
  -26.2976  -29.6694   24.1245 H   0  0  0  0  0  0
  -27.4217  -29.7307   25.4608 H   0  0  0  0  0  0
  -27.8767  -30.4276   23.9255 H   0  0  0  0  0  0
  -27.2730  -33.3577   26.2107 H   0  0  0  0  0  0
  -28.3903  -32.6922   25.0304 H   0  0  0  0  0  0
  -28.0824  -31.8417   26.5346 H   0  0  0  0  0  0
  -28.2543  -38.0096   24.7533 H   0  0  0  0  0  0
  -28.1089  -36.2610   24.6247 H   0  0  0  0  0  0
  -27.2299  -37.1369   25.8879 H   0  0  0  0  0  0
  -20.9332  -29.8749   21.6889 H   0  0  0  0  0  0
  -26.0161  -38.2818   24.1504 H   0  0  0  0  0  0
  -28.3727  -22.2650   18.9121 H   0  0  0  0  0  0
  -28.4288  -24.6794   18.3132 H   0  0  0  0  0  0
  -33.1123  -20.1803   19.7400 H   0  0  0  0  0  0
  -31.5594  -20.8372   20.0755 H   0  0  0  0  0  0
  -29.4306  -19.5315   18.6697 H   0  0  0  0  0  0
  -29.9441  -18.4090   17.4416 H   0  0  0  0  0  0
  -32.1590  -19.1875   21.8098 H   0  0  0  0  0  0
  -32.7051  -18.0854   20.5951 H   0  0  0  0  0  0
  -30.9436  -16.9182   19.0421 H   0  0  0  0  0  0
  -29.2461  -17.1337   19.3556 H   0  0  0  0  0  0
  -32.3063  -18.7906   17.9414 H   0  0  0  0  0  0
  -29.1794  -22.8254   23.8157 H   0  0  0  0  0  0
  -27.4051  -22.8615   23.7803 H   0  0  0  0  0  0
  -28.3204  -24.3323   24.0855 H   0  0  0  0  0  0
  -33.3607  -21.6722   18.1427 H   0  0  0  0  0  0
  -32.8731  -22.1799   16.5510 H   0  0  0  0  0  0
  -33.6361  -20.6066   16.7621 H   0  0  0  0  0  0
  -29.8831  -20.2731   16.1795 H   0  0  0  0  0  0
  -31.3928  -19.5634   15.5894 H   0  0  0  0  0  0
  -31.0706  -21.2864   15.4067 H   0  0  0  0  0  0
  -27.5368  -20.6750   20.7118 H   0  0  0  0  0  0
  -27.7370  -21.0153   22.3977 H   0  0  0  0  0  0
  -30.5225  -16.8785   22.7680 H   0  0  0  0  0  0
  -31.8641  -16.5040   21.7974 H   0  0  0  0  0  0
  -29.2873  -18.6489   22.5908 H   0  0  0  0  0  0
  -28.4292  -18.5503   21.0877 H   0  0  0  0  0  0
  -29.2054  -15.2720   21.6425 H   0  0  0  0  0  0
  -30.0609  -20.6666   22.2072 H   0  0  0  0  0  0
  -30.0071  -20.5718   20.5936 H   0  0  0  0  0  0
  -31.0305  -21.4208   17.8111 H   0  0  0  0  0  0
  1 25  1  0  0  0
  1 30  2  0  0  0
  1 89  1  0  0  0
  2  3  1  0  0  0
  2 25  1  0  0  0
  2 92  1  0  0  0
  2 93  1  0  0  0
  3  4  1  0  0  0
  3 94  1  0  0  0
  3 95  1  0  0  0
  4  5  1  0  0  0
  4 96  1  0  0  0
  4 97  1  0  0  0
  5  6  1  0  0  0
  5 26  1  0  0  0
  5 98  1  0  0  0
  6 25  1  0  0  0
  6 99  1  0  0  0
  6100  1  0  0  0
  7  8  2  0  0  0
  7 26  1  0  0  0
  7 29  1  0  0  0
  8  9  1  0  0  0
  8 22  1  0  0  0
  9 10  1  0  0  0
  9 27  2  0  0  0
 10 11  2  0  0  0
 10 15  1  0  0  0
 11 12  1  0  0  0
 11101  1  0  0  0
 12 13  2  0  0  0
 12102  1  0  0  0
 13 14  1  0  0  0
 13 31  1  0  0  0
 14 15  2  0  0  0
 14103  1  0  0  0
 15104  1  0  0  0
 16 17  2  0  0  0
 16 21  1  0  0  0
 16 31  1  0  0  0
 17 18  1  0  0  0
 17105  1  0  0  0
 18 19  2  0  0  0
 18106  1  0  0  0
 19 20  1  0  0  0
 19 24  1  0  0  0
 20 21  2  0  0  0
 20107  1  0  0  0
 21 23  1  0  0  0
 22 28  1  0  0  0
 22 32  2  0  0  0
 26 27  1  0  0  0
 28108  1  0  0  0
 28109  1  0  0  0
 29110  1  0  0  0
 29111  1  0  0  0
 33 34  1  0  0  0
 33 66  1  0  0  0
 33 70  2  0  0  0
 34 36  1  0  0  0
 34 59  1  0  0  0
 34112  1  0  0  0
 35 44  2  0  0  0
 35 45  1  0  0  0
 35 68  1  0  0  0
 36 56  1  0  0  0
 36113  1  0  0  0
 37 39  1  0  0  0
 37 47  1  0  0  0
 37 66  1  0  0  0
 37114  1  0  0  0
 38 43  2  0  0  0
 38 46  1  0  0  0
 38 47  1  0  0  0
 39 64  1  0  0  0
 39 67  2  0  0  0
 40 52  1  0  0  0
 40 53  2  0  0  0
 40 58  1  0  0  0
 41115  1  0  0  0
 41116  1  0  0  0
 41117  1  0  0  0
 41 48  1  0  0  0
 42 43  1  0  0  0
 42 66  1  0  0  0
 42118  1  0  0  0
 42119  1  0  0  0
 43 44  1  0  0  0
 44120  1  0  0  0
 45 46  2  0  0  0
 45121  1  0  0  0
 46122  1  0  0  0
 47123  1  0  0  0
 47124  1  0  0  0
 48 56  1  0  0  0
 48 65  1  0  0  0
 48125  1  0  0  0
 49 50  1  0  0  0
 49 53  1  0  0  0
 49 64  1  0  0  0
 49126  1  0  0  0
 50 51  1  0  0  0
 50127  1  0  0  0
 50128  1  0  0  0
 51 52  1  0  0  0
 51129  1  0  0  0
 51130  1  0  0  0
 52131  1  0  0  0
 52132  1  0  0  0
 53 54  1  0  0  0
 54 55  2  0  0  0
 54133  1  0  0  0
 55 57  1  0  0  0
 55134  1  0  0  0
 56 69  2  0  0  0
 57 58  2  0  0  0
 57135  1  0  0  0
 58136  1  0  0  0
 59 60  1  0  0  0
 59 61  1  0  0  0
 59 62  1  0  0  0
 60137  1  0  0  0
 60138  1  0  0  0
 60139  1  0  0  0
 61140  1  0  0  0
 61141  1  0  0  0
 61142  1  0  0  0
 62143  1  0  0  0
 62144  1  0  0  0
 62145  1  0  0  0
 63 65  1  0  0  0
 63146  1  0  0  0
 63147  1  0  0  0
 63148  1  0  0  0
 64149  1  0  0  0
 65150  1  0  0  0
 68 75  1  0  0  0
 71 72  2  0  0  0
 71 73  1  0  0  0
 71151  1  0  0  0
 72 75  1  0  0  0
 72152  1  0  0  0
 73 74  2  0  0  0
 73 85  1  0  0  0
 74 82  1  0  0  0
 74 88  1  0  0  0
 75 88  2  0  0  0
 76 78  1  0  0  0
 76153  1  0  0  0
 76154  1  0  0  0
 76 80  1  0  0  0
 77 79  1  0  0  0
 77 80  1  0  0  0
 77155  1  0  0  0
 77156  1  0  0  0
 78 81  1  0  0  0
 78157  1  0  0  0
 78158  1  0  0  0
 79 81  1  0  0  0
 79159  1  0  0  0
 79160  1  0  0  0
 80 91  1  0  0  0
 80161  1  0  0  0
 81 86  1  0  0  0
 81 87  1  0  0  0
 82162  1  0  0  0
 82163  1  0  0  0
 82164  1  0  0  0
 83165  1  0  0  0
 83166  1  0  0  0
 83167  1  0  0  0
 83 91  1  0  0  0
 84 91  1  0  0  0
 84168  1  0  0  0
 84169  1  0  0  0
 84170  1  0  0  0
 85 90  1  0  0  0
 85171  1  0  0  0
 85172  1  0  0  0
 86 89  1  0  0  0
 86173  1  0  0  0
 86174  1  0  0  0
 87 90  1  0  0  0
 87175  1  0  0  0
 87176  1  0  0  0
 89177  1  0  0  0
 90178  1  0  0  0
 90179  1  0  0  0
 91180  1  0  0  0
M  CHG  2  90   1  91   1
M  ISO  4   1 100  68 101  75 101  89 100
M  END
> <chiral flag>
0

> <version>
0

> <s_m_source_file>
/data/baiqing/PycharmProjects/Reinvent-master-3.2/result/LINK_invent/BTK/process_docking_weight1_custom_sum_contain_oxygen_bond_distance_aromatic_linkinvent_7_9_3/rearranged_h_0117.sdf

> <i_m_source_file_index>
33

> <r_mmod_Potential_Energy-OPLS-2005>
-349.859649658203

> <r_mmod_Stretch_Energy-OPLS-2005>
53.0138282775879

> <r_mmod_Bend_Energy-OPLS-2005>
123.954811096191

> <r_mmod_Torsional_Energy-OPLS-2005>
283.804351806641

> <r_mmod_Improper_Torsional_Energy-OPLS-2005>
2.47744107246399

> <r_mmod_Van_der_Waal_Energy-OPLS-2005>
163.324310302734

> <r_mmod_Electrostatic_Energy-OPLS-2005>
-17.0027866363525

> <r_mmod_Solvation_Energy-OPLS-2005>
-971.876708984375

> <b_mmod_Minimization_Converged-OPLS-2005>
0

> <r_mmod_RMS_Derivative-OPLS-2005>
3.83282518386841

$$$$
33
                    3D
 Structure written by MMmdl.
172181  0  0  1  0            999 V2000
  -30.5471  -15.0543   20.4338 C   0  0  0  0  0  0
  -30.4282  -12.6633   19.5055 C   0  0  0  0  0  0
  -29.5228  -12.5608   18.2557 C   0  0  0  0  0  0
  -28.0569  -12.3308   18.6688 C   0  0  0  0  0  0
  -27.6206  -13.2670   19.8262 C   0  0  2  0  0  0
  -28.6601  -13.3534   20.9633 C   0  0  0  0  0  0
  -25.2434  -13.8267   20.5742 C   0  0  0  0  0  0
  -24.1746  -13.0456   20.9263 C   0  0  0  0  0  0
  -24.6372  -11.6942   20.8740 C   0  0  0  0  0  0
  -23.9068  -10.4291   21.0395 C   0  0  0  0  0  0
  -24.3630   -9.4210   21.9178 C   0  0  0  0  0  0
  -23.6314   -8.2238   22.0753 C   0  0  0  0  0  0
  -22.4288   -8.0285   21.3555 C   0  0  0  0  0  0
  -21.9907   -9.0246   20.4649 C   0  0  0  0  0  0
  -22.7232  -10.2130   20.3041 C   0  0  0  0  0  0
  -21.6858   -6.0745   22.5301 C   0  0  0  0  0  0
  -21.4013   -6.5652   23.8234 C   0  0  0  0  0  0
  -21.3659   -5.6802   24.9195 C   0  0  0  0  0  0
  -21.6042   -4.3062   24.7233 C   0  0  0  0  0  0
  -21.8822   -3.8153   23.4362 C   0  0  0  0  0  0
  -21.9191   -4.6970   22.3418 C   0  0  0  0  0  0
  -22.7775  -13.5242   21.1926 C   0  0  0  0  0  0
  -22.1654   -4.2168   21.0977 F   0  0  0  0  0  0
  -21.5620   -3.4543   25.7723 F   0  0  0  0  0  0
  -29.9276  -13.7899   20.3641 N   0  0  0  0  0  0
  -26.2834  -12.9502   20.3220 N   0  0  0  0  0  0
  -25.9309  -11.6617   20.5702 N   0  0  0  0  0  0
  -22.0424  -12.8209   22.0476 N   0  0  0  0  0  0
  -25.4159  -15.1982   20.4206 N   0  0  0  0  0  0
  -31.7259  -15.0757   20.0574 O   0  0  0  0  0  0
  -21.6661   -6.8870   21.4241 O   0  0  0  0  0  0
  -22.3434  -14.5537   20.6785 O   0  0  0  0  0  0
  -24.6546  -31.8322   23.1809 C   0  0  0  0  0  0
  -25.9277  -32.4632   23.8211 C   0  0  1  0  0  0
  -27.2156  -27.0388   20.1521 C   0  0  0  0  0  0
  -25.5990  -33.8444   24.2137 N   0  0  0  0  0  0
  -23.4617  -30.4490   21.5295 C   0  0  2  0  0  0
  -24.9119  -28.8629   20.1015 C   0  0  0  0  0  0
  -22.7627  -29.4480   22.4835 C   0  0  0  0  0  0
  -18.0302  -28.1422   22.8462 C   0  0  0  0  0  0
  -24.1483  -36.7221   23.2646 C   0  0  0  0  0  0
  -26.0234  -30.6751   21.3930 C   0  0  0  0  0  0
  -26.0922  -29.2775   20.7324 C   0  0  0  0  0  0
  -27.2417  -28.3856   20.7353 C   0  0  0  0  0  0
  -26.0106  -26.7538   19.4718 C   0  0  0  0  0  0
  -24.8930  -27.6216   19.4486 C   0  0  0  0  0  0
  -23.6915  -29.7774   20.1480 C   0  0  0  0  0  0
  -25.4118  -36.2986   24.0308 C   0  0  1  0  0  0
  -20.5933  -28.3755   23.1220 C   0  0  2  0  0  0
  -20.6795  -26.9437   22.5419 C   0  0  0  0  0  0
  -19.5764  -26.6393   21.5234 C   0  0  0  0  0  0
  -18.1940  -26.7960   22.1627 C   0  0  0  0  0  0
  -19.1566  -28.8906   23.2833 C   0  0  0  0  0  0
  -18.9482  -30.1513   23.8849 C   0  0  0  0  0  0
  -17.6472  -30.6609   24.0561 C   0  0  0  0  0  0
  -25.9086  -34.9366   23.5027 C   0  0  0  0  0  0
  -16.5358  -29.9095   23.6349 C   0  0  0  0  0  0
  -16.7291  -28.6527   23.0339 C   0  0  0  0  0  0
  -26.4560  -31.6545   25.0701 C   0  0  0  0  0  0
  -25.3717  -31.3775   26.1392 C   0  0  0  0  0  0
  -27.0445  -30.2916   24.6380 C   0  0  0  0  0  0
  -27.6070  -32.4338   25.7495 C   0  0  0  0  0  0
  -27.5567  -37.1767   24.8458 C   0  0  0  0  0  0
  -21.4312  -29.3046   22.3583 N   0  0  0  0  0  0
  -26.4260  -37.3724   23.9425 N   0  0  0  0  0  0
  -24.7344  -31.0081   22.0891 N   0  0  0  0  0  0
  -23.4230  -28.8029   23.3013 O   0  0  0  0  0  0
  -28.2382  -25.9901   20.2378 O   0  0  0  0  0  0
  -26.5680  -34.8887   22.4611 O   0  0  0  0  0  0
  -23.5645  -32.1246   23.6974 O   0  0  0  0  0  0
  -32.3451  -15.1484   26.0612 C   0  0  0  0  0  0
  -29.1749  -20.4245   21.5153 C   0  0  0  0  0  0
  -29.6586  -20.3690   19.2163 C   0  0  0  0  0  0
  -28.4129  -21.8769   21.3278 C   0  0  0  0  0  0
  -28.9261  -21.8364   19.0355 C   0  0  0  0  0  0
  -30.9452  -17.7650   21.8513 C   0  0  0  0  0  0
  -29.2323  -19.2988   20.3481 C   0  0  1  0  0  0
  -28.8647  -22.9451   20.2081 C   0  0  1  0  0  0
  -30.2339  -17.8745   20.5152 C   0  0  2  0  0  0
  -29.9055  -16.7159   22.2328 C   0  0  2  0  0  0
  -32.6572  -14.0230   27.0000 C   0  0  0  0  0  0
  -27.9867  -24.4385   19.9372 C   0  0  0  0  0  0
  -30.2978  -15.6606   23.2909 C   0  0  0  0  0  0
  -30.5601  -16.2898   24.6714 C   0  0  0  0  0  0
  -29.8763  -16.3015   20.7966 N   0  0  0  0  0  0
  -33.3383  -15.9647   25.6625 N   0  0  0  0  0  0
  -31.0713  -15.3003   25.6362 N   0  3  0  0  0  0
  -31.4664  -12.8054   19.2001 H   0  0  0  0  0  0
  -30.4176  -11.7217   20.0567 H   0  0  0  0  0  0
  -29.8600  -11.7482   17.6115 H   0  0  0  0  0  0
  -29.6063  -13.4759   17.6676 H   0  0  0  0  0  0
  -27.9628  -11.2907   18.9817 H   0  0  0  0  0  0
  -27.3945  -12.4562   17.8103 H   0  0  0  0  0  0
  -27.5669  -14.2590   19.3774 H   0  0  0  0  0  0
  -28.7683  -12.4000   21.4835 H   0  0  0  0  0  0
  -28.3283  -14.0836   21.7000 H   0  0  0  0  0  0
  -25.2761   -9.5708   22.4761 H   0  0  0  0  0  0
  -24.0046   -7.4631   22.7468 H   0  0  0  0  0  0
  -21.0835   -8.8734   19.8962 H   0  0  0  0  0  0
  -22.3677  -10.9651   19.6139 H   0  0  0  0  0  0
  -21.2010   -7.6157   23.9726 H   0  0  0  0  0  0
  -21.1472   -6.0540   25.9099 H   0  0  0  0  0  0
  -22.0598   -2.7622   23.2848 H   0  0  0  0  0  0
  -22.4035  -11.9841   22.4795 H   0  0  0  0  0  0
  -21.1029  -13.1203   22.2666 H   0  0  0  0  0  0
  -24.6638  -15.8675   20.5399 H   0  0  0  0  0  0
  -26.2896  -15.6299   20.1439 H   0  0  0  0  0  0
  -26.7336  -32.5200   23.0925 H   0  0  0  0  0  0
  -25.0098  -33.9530   25.0264 H   0  0  0  0  0  0
  -22.7698  -31.2795   21.3734 H   0  0  0  0  0  0
  -23.3761  -35.9537   23.3255 H   0  0  0  0  0  0
  -24.3565  -36.8914   22.2072 H   0  0  0  0  0  0
  -23.7223  -37.6388   23.6726 H   0  0  0  0  0  0
  -26.1867  -31.4235   20.6167 H   0  0  0  0  0  0
  -26.8912  -30.7287   22.0381 H   0  0  0  0  0  0
  -28.1400  -28.7000   21.2498 H   0  0  0  0  0  0
  -25.8974  -25.8038   18.9688 H   0  0  0  0  0  0
  -24.0020  -27.3110   18.9218 H   0  0  0  0  0  0
  -23.8311  -30.5539   19.3937 H   0  0  0  0  0  0
  -22.8023  -29.2245   19.8369 H   0  0  0  0  0  0
  -25.1311  -36.1772   25.0796 H   0  0  0  0  0  0
  -21.0006  -28.3348   24.1348 H   0  0  0  0  0  0
  -20.5697  -26.2355   23.3657 H   0  0  0  0  0  0
  -21.6657  -26.7448   22.1198 H   0  0  0  0  0  0
  -19.6914  -25.6291   21.1283 H   0  0  0  0  0  0
  -19.6697  -27.3191   20.6750 H   0  0  0  0  0  0
  -17.4216  -26.6716   21.4020 H   0  0  0  0  0  0
  -18.0305  -26.0126   22.9038 H   0  0  0  0  0  0
  -19.7956  -30.7359   24.2177 H   0  0  0  0  0  0
  -17.5013  -31.6280   24.5189 H   0  0  0  0  0  0
  -15.5354  -30.2967   23.7730 H   0  0  0  0  0  0
  -15.8693  -28.0855   22.7040 H   0  0  0  0  0  0
  -24.5882  -30.7146   25.7705 H   0  0  0  0  0  0
  -24.8939  -32.2974   26.4759 H   0  0  0  0  0  0
  -25.7973  -30.8964   27.0208 H   0  0  0  0  0  0
  -26.3096  -29.6614   24.1362 H   0  0  0  0  0  0
  -27.3972  -29.7252   25.5012 H   0  0  0  0  0  0
  -27.9028  -30.4107   23.9772 H   0  0  0  0  0  0
  -27.2646  -33.3669   26.1981 H   0  0  0  0  0  0
  -28.3926  -32.6858   25.0356 H   0  0  0  0  0  0
  -28.0692  -31.8531   26.5493 H   0  0  0  0  0  0
  -28.2547  -38.0102   24.7532 H   0  0  0  0  0  0
  -28.1096  -36.2627   24.6224 H   0  0  0  0  0  0
  -27.2291  -37.1336   25.8862 H   0  0  0  0  0  0
  -20.9559  -29.8708   21.6696 H   0  0  0  0  0  0
  -26.0099  -38.2769   24.1474 H   0  0  0  0  0  0
  -28.7440  -19.9505   22.3981 H   0  0  0  0  0  0
  -30.2041  -20.6648   21.7944 H   0  0  0  0  0  0
  -30.7310  -20.5472   19.3329 H   0  0  0  0  0  0
  -29.5775  -19.8558   18.2569 H   0  0  0  0  0  0
  -28.4504  -22.3875   22.2909 H   0  0  0  0  0  0
  -27.3527  -21.6686   21.1705 H   0  0  0  0  0  0
  -27.9005  -21.6458   18.7133 H   0  0  0  0  0  0
  -29.3903  -22.3159   18.1727 H   0  0  0  0  0  0
  -30.9159  -18.6442   22.4929 H   0  0  0  0  0  0
  -31.9600  -17.3683   21.7799 H   0  0  0  0  0  0
  -28.2131  -18.9720   20.1301 H   0  0  0  0  0  0
  -29.8957  -23.2365   20.4218 H   0  0  0  0  0  0
  -30.9927  -17.9212   19.7333 H   0  0  0  0  0  0
  -28.9641  -17.1978   22.5127 H   0  0  0  0  0  0
  -32.5068  -13.0601   26.5093 H   0  0  0  0  0  0
  -32.0195  -14.0737   27.8821 H   0  0  0  0  0  0
  -33.6910  -14.0699   27.3409 H   0  0  0  0  0  0
  -26.9772  -24.2342   20.2976 H   0  0  0  0  0  0
  -27.8761  -24.4533   18.8526 H   0  0  0  0  0  0
  -31.2031  -15.1227   23.0097 H   0  0  0  0  0  0
  -29.5109  -14.9152   23.3960 H   0  0  0  0  0  0
  -29.6337  -16.7160   25.0566 H   0  0  0  0  0  0
  -31.2722  -17.1090   24.5845 H   0  0  0  0  0  0
  -34.2881  -15.8285   25.9895 H   0  0  0  0  0  0
  -33.1946  -16.7675   25.0713 H   0  0  0  0  0  0
  -30.3709  -14.6704   26.0097 H   0  0  0  0  0  0
  1 25  1  0  0  0
  1 30  2  0  0  0
  1 85  1  0  0  0
  2  3  1  0  0  0
  2 25  1  0  0  0
  2 88  1  0  0  0
  2 89  1  0  0  0
  3  4  1  0  0  0
  3 90  1  0  0  0
  3 91  1  0  0  0
  4  5  1  0  0  0
  4 92  1  0  0  0
  4 93  1  0  0  0
  5  6  1  0  0  0
  5 26  1  0  0  0
  5 94  1  0  0  0
  6 25  1  0  0  0
  6 95  1  0  0  0
  6 96  1  0  0  0
  7  8  2  0  0  0
  7 26  1  0  0  0
  7 29  1  0  0  0
  8  9  1  0  0  0
  8 22  1  0  0  0
  9 10  1  0  0  0
  9 27  2  0  0  0
 10 11  2  0  0  0
 10 15  1  0  0  0
 11 12  1  0  0  0
 11 97  1  0  0  0
 12 13  2  0  0  0
 12 98  1  0  0  0
 13 14  1  0  0  0
 13 31  1  0  0  0
 14 15  2  0  0  0
 14 99  1  0  0  0
 15100  1  0  0  0
 16 17  2  0  0  0
 16 21  1  0  0  0
 16 31  1  0  0  0
 17 18  1  0  0  0
 17101  1  0  0  0
 18 19  2  0  0  0
 18102  1  0  0  0
 19 20  1  0  0  0
 19 24  1  0  0  0
 20 21  2  0  0  0
 20103  1  0  0  0
 21 23  1  0  0  0
 22 28  1  0  0  0
 22 32  2  0  0  0
 26 27  1  0  0  0
 28104  1  0  0  0
 28105  1  0  0  0
 29106  1  0  0  0
 29107  1  0  0  0
 33 34  1  0  0  0
 33 66  1  0  0  0
 33 70  2  0  0  0
 34 36  1  0  0  0
 34 59  1  0  0  0
 34108  1  0  0  0
 35 44  2  0  0  0
 35 45  1  0  0  0
 35 68  1  0  0  0
 36 56  1  0  0  0
 36109  1  0  0  0
 37 39  1  0  0  0
 37 47  1  0  0  0
 37 66  1  0  0  0
 37110  1  0  0  0
 38 43  2  0  0  0
 38 46  1  0  0  0
 38 47  1  0  0  0
 39 64  1  0  0  0
 39 67  2  0  0  0
 40 52  1  0  0  0
 40 53  2  0  0  0
 40 58  1  0  0  0
 41111  1  0  0  0
 41112  1  0  0  0
 41113  1  0  0  0
 41 48  1  0  0  0
 42 43  1  0  0  0
 42 66  1  0  0  0
 42114  1  0  0  0
 42115  1  0  0  0
 43 44  1  0  0  0
 44116  1  0  0  0
 45 46  2  0  0  0
 45117  1  0  0  0
 46118  1  0  0  0
 47119  1  0  0  0
 47120  1  0  0  0
 48 56  1  0  0  0
 48 65  1  0  0  0
 48121  1  0  0  0
 49 50  1  0  0  0
 49 53  1  0  0  0
 49 64  1  0  0  0
 49122  1  0  0  0
 50 51  1  0  0  0
 50123  1  0  0  0
 50124  1  0  0  0
 51 52  1  0  0  0
 51125  1  0  0  0
 51126  1  0  0  0
 52127  1  0  0  0
 52128  1  0  0  0
 53 54  1  0  0  0
 54 55  2  0  0  0
 54129  1  0  0  0
 55 57  1  0  0  0
 55130  1  0  0  0
 56 69  2  0  0  0
 57 58  2  0  0  0
 57131  1  0  0  0
 58132  1  0  0  0
 59 60  1  0  0  0
 59 61  1  0  0  0
 59 62  1  0  0  0
 60133  1  0  0  0
 60134  1  0  0  0
 60135  1  0  0  0
 61136  1  0  0  0
 61137  1  0  0  0
 61138  1  0  0  0
 62139  1  0  0  0
 62140  1  0  0  0
 62141  1  0  0  0
 63 65  1  0  0  0
 63142  1  0  0  0
 63143  1  0  0  0
 63144  1  0  0  0
 64145  1  0  0  0
 65146  1  0  0  0
 68 82  1  0  0  0
 71 81  1  0  0  0
 71 86  1  0  0  0
 71 87  2  0  0  0
 72 74  1  0  0  0
 72147  1  0  0  0
 72148  1  0  0  0
 72 77  1  0  0  0
 73 75  1  0  0  0
 73 77  1  0  0  0
 73149  1  0  0  0
 73150  1  0  0  0
 74 78  1  0  0  0
 74151  1  0  0  0
 74152  1  0  0  0
 75 78  1  0  0  0
 75153  1  0  0  0
 75154  1  0  0  0
 76 80  1  0  0  0
 76155  1  0  0  0
 76156  1  0  0  0
 76 79  1  0  0  0
 77 79  1  0  0  0
 77157  1  0  0  0
 78 82  1  0  0  0
 78158  1  0  0  0
 79 85  1  0  0  0
 79159  1  0  0  0
 80 83  1  0  0  0
 80 85  1  0  0  0
 80160  1  0  0  0
 81161  1  0  0  0
 81162  1  0  0  0
 81163  1  0  0  0
 82164  1  0  0  0
 82165  1  0  0  0
 83 84  1  0  0  0
 83166  1  0  0  0
 83167  1  0  0  0
 84 87  1  0  0  0
 84168  1  0  0  0
 84169  1  0  0  0
 86170  1  0  0  0
 86171  1  0  0  0
 87172  1  0  0  0
M  CHG  1  87   1
M  ISO  4   1 100  68 101  82 101  85 100
M  END
> <chiral flag>
0

> <version>
0

> <s_m_source_file>
/data/baiqing/PycharmProjects/Reinvent-master-3.2/result/LINK_invent/BTK/process_docking_weight1_custom_sum_contain_oxygen_bond_distance_aromatic_linkinvent_7_9_3/rearranged_h_0117.sdf

> <i_m_source_file_index>
34

> <r_mmod_Potential_Energy-OPLS-2005>
987.067321777344

> <r_mmod_Stretch_Energy-OPLS-2005>
401.478363037109

> <r_mmod_Bend_Energy-OPLS-2005>
408.162322998047

> <r_mmod_Torsional_Energy-OPLS-2005>
323.315368652344

> <r_mmod_Improper_Torsional_Energy-OPLS-2005>
9.72082805633545

> <r_mmod_Van_der_Waal_Energy-OPLS-2005>
122.561737060547

> <r_mmod_Electrostatic_Energy-OPLS-2005>
-115.202102661133

> <r_mmod_Solvation_Energy-OPLS-2005>
-442.485992431641

> <b_mmod_Minimization_Converged-OPLS-2005>
0

> <r_mmod_RMS_Derivative-OPLS-2005>
4.65391540527344

$$$$
34
                    3D
 Structure written by MMmdl.
159168  0  0  1  0            999 V2000
  -30.5740  -14.8810   20.4121 C   0  0  0  0  0  0
  -30.4324  -12.5410   19.4929 C   0  0  0  0  0  0
  -29.5131  -12.5258   18.2512 C   0  0  0  0  0  0
  -28.0454  -12.3235   18.6694 C   0  0  0  0  0  0
  -27.6336  -13.2463   19.8470 C   0  0  2  0  0  0
  -28.6786  -13.2500   20.9840 C   0  0  0  0  0  0
  -25.2473  -13.8229   20.5736 C   0  0  0  0  0  0
  -24.1786  -13.0448   20.9239 C   0  0  0  0  0  0
  -24.6405  -11.6936   20.8769 C   0  0  0  0  0  0
  -23.9092  -10.4301   21.0418 C   0  0  0  0  0  0
  -24.3638   -9.4208   21.9191 C   0  0  0  0  0  0
  -23.6309   -8.2242   22.0754 C   0  0  0  0  0  0
  -22.4286   -8.0287   21.3551 C   0  0  0  0  0  0
  -21.9929   -9.0266   20.4652 C   0  0  0  0  0  0
  -22.7264  -10.2144   20.3066 C   0  0  0  0  0  0
  -21.6853   -6.0747   22.5285 C   0  0  0  0  0  0
  -21.4012   -6.5648   23.8220 C   0  0  0  0  0  0
  -21.3657   -5.6796   24.9181 C   0  0  0  0  0  0
  -21.6040   -4.3060   24.7224 C   0  0  0  0  0  0
  -21.8820   -3.8156   23.4345 C   0  0  0  0  0  0
  -21.9194   -4.6975   22.3403 C   0  0  0  0  0  0
  -22.7802  -13.5212   21.1881 C   0  0  0  0  0  0
  -22.1662   -4.2165   21.0978 F   0  0  0  0  0  0
  -21.5626   -3.4538   25.7732 F   0  0  0  0  0  0
  -29.9619  -13.6348   20.3872 N   0  0  0  0  0  0
  -26.2907  -12.9460   20.3302 N   0  0  0  0  0  0
  -25.9340  -11.6589   20.5785 N   0  0  0  0  0  0
  -22.0454  -12.8198   22.0437 N   0  0  0  0  0  0
  -25.4127  -15.1959   20.4156 N   0  0  0  0  0  0
  -31.7705  -14.9343   20.1127 O   0  0  0  0  0  0
  -21.6643   -6.8890   21.4246 O   0  0  0  0  0  0
  -22.3484  -14.5515   20.6723 O   0  0  0  0  0  0
  -24.6383  -31.8462   23.1873 C   0  0  0  0  0  0
  -25.9177  -32.4698   23.8256 C   0  0  1  0  0  0
  -27.2234  -27.1729   20.1374 C   0  0  0  0  0  0
  -25.5943  -33.8504   24.2182 N   0  0  0  0  0  0
  -23.4384  -30.4639   21.5331 C   0  0  2  0  0  0
  -24.8850  -28.8891   20.1089 C   0  0  0  0  0  0
  -22.7531  -29.4553   22.4877 C   0  0  0  0  0  0
  -18.0296  -28.1397   22.8485 C   0  0  0  0  0  0
  -24.1483  -36.7239   23.2643 C   0  0  0  0  0  0
  -25.9892  -30.7321   21.3759 C   0  0  0  0  0  0
  -26.0592  -29.3453   20.7189 C   0  0  0  0  0  0
  -27.2248  -28.5016   20.7150 C   0  0  0  0  0  0
  -26.0171  -26.7951   19.5127 C   0  0  0  0  0  0
  -24.8740  -27.6265   19.4934 C   0  0  0  0  0  0
  -23.6596  -29.7871   20.1529 C   0  0  0  0  0  0
  -25.4121  -36.3030   24.0316 C   0  0  1  0  0  0
  -20.5902  -28.3703   23.1254 C   0  0  2  0  0  0
  -20.6770  -26.9411   22.5411 C   0  0  0  0  0  0
  -19.5747  -26.6382   21.5215 C   0  0  0  0  0  0
  -18.1928  -26.7935   22.1627 C   0  0  0  0  0  0
  -19.1554  -28.8870   23.2861 C   0  0  0  0  0  0
  -18.9478  -30.1469   23.8883 C   0  0  0  0  0  0
  -17.6480  -30.6598   24.0563 C   0  0  0  0  0  0
  -25.9073  -34.9409   23.5058 C   0  0  0  0  0  0
  -16.5367  -29.9097   23.6339 C   0  0  0  0  0  0
  -16.7283  -28.6513   23.0361 C   0  0  0  0  0  0
  -26.4516  -31.6554   25.0681 C   0  0  0  0  0  0
  -25.3719  -31.3737   26.1386 C   0  0  0  0  0  0
  -27.0365  -30.2958   24.6216 C   0  0  0  0  0  0
  -27.6053  -32.4308   25.7477 C   0  0  0  0  0  0
  -27.5566  -37.1772   24.8474 C   0  0  0  0  0  0
  -21.4229  -29.3038   22.3633 N   0  0  0  0  0  0
  -26.4278  -37.3750   23.9417 N   0  0  0  0  0  0
  -24.7084  -31.0350   22.0883 N   0  0  0  0  0  0
  -23.4198  -28.8114   23.3018 O   0  0  0  0  0  0
  -28.3405  -26.2803   20.2251 O   0  0  0  0  0  0
  -26.5665  -34.8915   22.4642 O   0  0  0  0  0  0
  -23.5517  -32.1319   23.7131 O   0  0  0  0  0  0
  -29.8855  -21.3586   21.2044 C   0  0  0  0  0  0
  -28.5354  -19.6389   19.6105 C   0  0  0  0  0  0
  -30.2820  -19.9673   21.1567 C   0  0  0  0  0  0
  -29.6028  -19.0046   20.3357 C   0  0  0  0  0  0
  -28.8130  -21.9084   20.4408 C   0  0  0  0  0  0
  -31.3803  -18.4355   22.9783 C   0  0  0  0  0  0
  -31.5817  -19.8599   23.4371 C   0  0  0  0  0  0
  -31.4763  -19.5497   21.9623 C   0  0  0  0  0  0
  -28.1698  -24.6040   18.2942 C   0  0  0  0  0  0
  -30.2072  -17.5012   20.0116 C   0  0  0  0  0  0
  -28.2300  -23.4327   20.6715 C   0  0  0  0  0  0
  -28.5171  -24.8040   19.7784 C   0  0  1  0  0  0
  -28.1579  -20.9817   19.6653 N   0  0  0  0  0  0
  -29.8195  -16.0736   20.5251 N   0  0  0  0  0  0
  -31.4696  -12.6764   19.1835 H   0  0  0  0  0  0
  -30.4016  -11.5815   20.0114 H   0  0  0  0  0  0
  -29.8189  -11.7390   17.5607 H   0  0  0  0  0  0
  -29.6125  -13.4671   17.7078 H   0  0  0  0  0  0
  -27.9276  -11.2785   18.9608 H   0  0  0  0  0  0
  -27.3821  -12.4769   17.8170 H   0  0  0  0  0  0
  -27.6053  -14.2544   19.4326 H   0  0  0  0  0  0
  -28.7498  -12.2700   21.4577 H   0  0  0  0  0  0
  -28.3958  -13.9537   21.7686 H   0  0  0  0  0  0
  -25.2784   -9.5675   22.4768 H   0  0  0  0  0  0
  -24.0019   -7.4628   22.7468 H   0  0  0  0  0  0
  -21.0859   -8.8798   19.8956 H   0  0  0  0  0  0
  -22.3731  -10.9691   19.6179 H   0  0  0  0  0  0
  -21.2003   -7.6156   23.9730 H   0  0  0  0  0  0
  -21.1474   -6.0522   25.9085 H   0  0  0  0  0  0
  -22.0601   -2.7618   23.2839 H   0  0  0  0  0  0
  -22.4076  -11.9860   22.4818 H   0  0  0  0  0  0
  -21.1075  -13.1222   22.2660 H   0  0  0  0  0  0
  -24.6416  -15.8446   20.5323 H   0  0  0  0  0  0
  -26.2551  -15.6421   20.0768 H   0  0  0  0  0  0
  -26.7237  -32.5305   23.0982 H   0  0  0  0  0  0
  -25.0076  -33.9619   25.0317 H   0  0  0  0  0  0
  -22.7397  -31.2886   21.3783 H   0  0  0  0  0  0
  -23.3758  -35.9555   23.3306 H   0  0  0  0  0  0
  -24.3564  -36.8867   22.2054 H   0  0  0  0  0  0
  -23.7221  -37.6428   23.6681 H   0  0  0  0  0  0
  -26.1371  -31.4877   20.6028 H   0  0  0  0  0  0
  -26.8637  -30.7838   22.0130 H   0  0  0  0  0  0
  -28.1232  -28.8498   21.2050 H   0  0  0  0  0  0
  -25.9172  -25.8215   19.0655 H   0  0  0  0  0  0
  -23.9710  -27.2672   19.0192 H   0  0  0  0  0  0
  -23.7876  -30.5572   19.3912 H   0  0  0  0  0  0
  -22.7758  -29.2221   19.8500 H   0  0  0  0  0  0
  -25.1309  -36.1855   25.0806 H   0  0  0  0  0  0
  -21.0002  -28.3287   24.1371 H   0  0  0  0  0  0
  -20.5649  -26.2321   23.3627 H   0  0  0  0  0  0
  -21.6637  -26.7409   22.1218 H   0  0  0  0  0  0
  -19.6903  -25.6292   21.1247 H   0  0  0  0  0  0
  -19.6683  -27.3192   20.6743 H   0  0  0  0  0  0
  -17.4193  -26.6687   21.4034 H   0  0  0  0  0  0
  -18.0324  -26.0086   22.9031 H   0  0  0  0  0  0
  -19.7961  -30.7286   24.2240 H   0  0  0  0  0  0
  -17.5041  -31.6278   24.5168 H   0  0  0  0  0  0
  -15.5370  -30.3002   23.7669 H   0  0  0  0  0  0
  -15.8678  -28.0829   22.7088 H   0  0  0  0  0  0
  -24.5915  -30.7062   25.7718 H   0  0  0  0  0  0
  -24.8885  -32.2912   26.4747 H   0  0  0  0  0  0
  -25.8016  -30.8965   27.0201 H   0  0  0  0  0  0
  -26.2966  -29.6718   24.1185 H   0  0  0  0  0  0
  -27.3965  -29.7216   25.4763 H   0  0  0  0  0  0
  -27.8882  -30.4218   23.9527 H   0  0  0  0  0  0
  -27.2652  -33.3631   26.2004 H   0  0  0  0  0  0
  -28.3901  -32.6825   25.0331 H   0  0  0  0  0  0
  -28.0679  -31.8457   26.5437 H   0  0  0  0  0  0
  -28.2592  -38.0060   24.7518 H   0  0  0  0  0  0
  -28.1053  -36.2592   24.6311 H   0  0  0  0  0  0
  -27.2280  -37.1427   25.8875 H   0  0  0  0  0  0
  -20.9430  -29.8741   21.6811 H   0  0  0  0  0  0
  -26.0140  -38.2813   24.1442 H   0  0  0  0  0  0
  -30.4257  -22.0231   21.8661 H   0  0  0  0  0  0
  -27.9749  -19.0485   18.9009 H   0  0  0  0  0  0
  -30.4020  -17.9880   23.1442 H   0  0  0  0  0  0
  -32.2283  -17.7583   23.0649 H   0  0  0  0  0  0
  -32.5632  -20.1164   23.8315 H   0  0  0  0  0  0
  -30.7396  -20.3562   23.9150 H   0  0  0  0  0  0
  -32.3874  -19.6225   21.3716 H   0  0  0  0  0  0
  -27.1196  -24.3646   18.1405 H   0  0  0  0  0  0
  -28.4166  -25.4861   17.7031 H   0  0  0  0  0  0
  -28.7346  -23.7669   17.8824 H   0  0  0  0  0  0
  -31.2851  -17.5774   20.1593 H   0  0  0  0  0  0
  -30.1129  -17.4150   18.9284 H   0  0  0  0  0  0
  -28.5186  -23.6843   21.6919 H   0  0  0  0  0  0
  -27.1475  -23.3236   20.7260 H   0  0  0  0  0  0
  -29.6075  -24.7971   19.7677 H   0  0  0  0  0  0
  -28.8501  -15.9433   20.7715 H   0  0  0  0  0  0
  1 25  1  0  0  0
  1 30  2  0  0  0
  1 84  1  0  0  0
  2  3  1  0  0  0
  2 25  1  0  0  0
  2 85  1  0  0  0
  2 86  1  0  0  0
  3  4  1  0  0  0
  3 87  1  0  0  0
  3 88  1  0  0  0
  4  5  1  0  0  0
  4 89  1  0  0  0
  4 90  1  0  0  0
  5  6  1  0  0  0
  5 26  1  0  0  0
  5 91  1  0  0  0
  6 25  1  0  0  0
  6 92  1  0  0  0
  6 93  1  0  0  0
  7  8  2  0  0  0
  7 26  1  0  0  0
  7 29  1  0  0  0
  8  9  1  0  0  0
  8 22  1  0  0  0
  9 10  1  0  0  0
  9 27  2  0  0  0
 10 11  2  0  0  0
 10 15  1  0  0  0
 11 12  1  0  0  0
 11 94  1  0  0  0
 12 13  2  0  0  0
 12 95  1  0  0  0
 13 14  1  0  0  0
 13 31  1  0  0  0
 14 15  2  0  0  0
 14 96  1  0  0  0
 15 97  1  0  0  0
 16 17  2  0  0  0
 16 21  1  0  0  0
 16 31  1  0  0  0
 17 18  1  0  0  0
 17 98  1  0  0  0
 18 19  2  0  0  0
 18 99  1  0  0  0
 19 20  1  0  0  0
 19 24  1  0  0  0
 20 21  2  0  0  0
 20100  1  0  0  0
 21 23  1  0  0  0
 22 28  1  0  0  0
 22 32  2  0  0  0
 26 27  1  0  0  0
 28101  1  0  0  0
 28102  1  0  0  0
 29103  1  0  0  0
 29104  1  0  0  0
 33 34  1  0  0  0
 33 66  1  0  0  0
 33 70  2  0  0  0
 34 36  1  0  0  0
 34 59  1  0  0  0
 34105  1  0  0  0
 35 44  2  0  0  0
 35 45  1  0  0  0
 35 68  1  0  0  0
 36 56  1  0  0  0
 36106  1  0  0  0
 37 39  1  0  0  0
 37 47  1  0  0  0
 37 66  1  0  0  0
 37107  1  0  0  0
 38 43  2  0  0  0
 38 46  1  0  0  0
 38 47  1  0  0  0
 39 64  1  0  0  0
 39 67  2  0  0  0
 40 52  1  0  0  0
 40 53  2  0  0  0
 40 58  1  0  0  0
 41108  1  0  0  0
 41109  1  0  0  0
 41110  1  0  0  0
 41 48  1  0  0  0
 42 43  1  0  0  0
 42 66  1  0  0  0
 42111  1  0  0  0
 42112  1  0  0  0
 43 44  1  0  0  0
 44113  1  0  0  0
 45 46  2  0  0  0
 45114  1  0  0  0
 46115  1  0  0  0
 47116  1  0  0  0
 47117  1  0  0  0
 48 56  1  0  0  0
 48 65  1  0  0  0
 48118  1  0  0  0
 49 50  1  0  0  0
 49 53  1  0  0  0
 49 64  1  0  0  0
 49119  1  0  0  0
 50 51  1  0  0  0
 50120  1  0  0  0
 50121  1  0  0  0
 51 52  1  0  0  0
 51122  1  0  0  0
 51123  1  0  0  0
 52124  1  0  0  0
 52125  1  0  0  0
 53 54  1  0  0  0
 54 55  2  0  0  0
 54126  1  0  0  0
 55 57  1  0  0  0
 55127  1  0  0  0
 56 69  2  0  0  0
 57 58  2  0  0  0
 57128  1  0  0  0
 58129  1  0  0  0
 59 60  1  0  0  0
 59 61  1  0  0  0
 59 62  1  0  0  0
 60130  1  0  0  0
 60131  1  0  0  0
 60132  1  0  0  0
 61133  1  0  0  0
 61134  1  0  0  0
 61135  1  0  0  0
 62136  1  0  0  0
 62137  1  0  0  0
 62138  1  0  0  0
 63 65  1  0  0  0
 63139  1  0  0  0
 63140  1  0  0  0
 63141  1  0  0  0
 64142  1  0  0  0
 65143  1  0  0  0
 68 82  1  0  0  0
 71 73  2  0  0  0
 71 75  1  0  0  0
 71144  1  0  0  0
 72 74  2  0  0  0
 72 83  1  0  0  0
 72145  1  0  0  0
 73 74  1  0  0  0
 73 78  1  0  0  0
 74 80  1  0  0  0
 75 81  1  0  0  0
 75 83  2  0  0  0
 76 77  1  0  0  0
 76 78  1  0  0  0
 76146  1  0  0  0
 76147  1  0  0  0
 77 78  1  0  0  0
 77148  1  0  0  0
 77149  1  0  0  0
 78150  1  0  0  0
 79151  1  0  0  0
 79152  1  0  0  0
 79153  1  0  0  0
 79 82  1  0  0  0
 80 84  1  0  0  0
 80154  1  0  0  0
 80155  1  0  0  0
 81 82  1  0  0  0
 81156  1  0  0  0
 81157  1  0  0  0
 82158  1  0  0  0
 84159  1  0  0  0
M  ISO  4   1 100  68 101  82 101  84 100
M  END
> <chiral flag>
0

> <version>
0

> <s_m_source_file>
/data/baiqing/PycharmProjects/Reinvent-master-3.2/result/LINK_invent/BTK/process_docking_weight1_custom_sum_contain_oxygen_bond_distance_aromatic_linkinvent_7_9_3/rearranged_h_0117.sdf

> <i_m_source_file_index>
35

> <r_mmod_Potential_Energy-OPLS-2005>
316.813873291016

> <r_mmod_Stretch_Energy-OPLS-2005>
206.747161865234

> <r_mmod_Bend_Energy-OPLS-2005>
289.367797851562

> <r_mmod_Torsional_Energy-OPLS-2005>
236.21745300293

> <r_mmod_Improper_Torsional_Energy-OPLS-2005>
9.75480651855469

> <r_mmod_Van_der_Waal_Energy-OPLS-2005>
127.304023742676

> <r_mmod_Electrostatic_Energy-OPLS-2005>
-479.779602050781

> <r_mmod_Solvation_Energy-OPLS-2005>
-219.672271728516

> <b_mmod_Minimization_Converged-OPLS-2005>
0

> <r_mmod_RMS_Derivative-OPLS-2005>
1.09014415740967

$$$$
35
                    3D
 Structure written by MMmdl.
157165  0  0  1  0            999 V2000
  -30.3598  -15.1608   20.3407 C   0  0  0  0  0  0
  -30.4437  -12.7324   19.4758 C   0  0  0  0  0  0
  -29.5156  -12.5187   18.2539 C   0  0  0  0  0  0
  -28.0578  -12.2731   18.6983 C   0  0  0  0  0  0
  -27.6113  -13.2353   19.8295 C   0  0  2  0  0  0
  -28.6568  -13.3189   20.9531 C   0  0  0  0  0  0
  -25.2388  -13.8127   20.5798 C   0  0  0  0  0  0
  -24.1718  -13.0347   20.9265 C   0  0  0  0  0  0
  -24.6307  -11.6828   20.8757 C   0  0  0  0  0  0
  -23.8999  -10.4233   21.0419 C   0  0  0  0  0  0
  -24.3555   -9.4144   21.9220 C   0  0  0  0  0  0
  -23.6259   -8.2158   22.0774 C   0  0  0  0  0  0
  -22.4252   -8.0200   21.3531 C   0  0  0  0  0  0
  -21.9853   -9.0162   20.4628 C   0  0  0  0  0  0
  -22.7148  -10.2057   20.3055 C   0  0  0  0  0  0
  -21.6822   -6.0644   22.5270 C   0  0  0  0  0  0
  -21.4006   -6.5584   23.8189 C   0  0  0  0  0  0
  -21.3675   -5.6756   24.9173 C   0  0  0  0  0  0
  -21.6065   -4.3026   24.7232 C   0  0  0  0  0  0
  -21.8819   -3.8085   23.4368 C   0  0  0  0  0  0
  -21.9191   -4.6887   22.3402 C   0  0  0  0  0  0
  -22.7740  -13.5138   21.1890 C   0  0  0  0  0  0
  -22.1654   -4.2057   21.0991 F   0  0  0  0  0  0
  -21.5642   -3.4527   25.7765 F   0  0  0  0  0  0
  -29.8684  -13.8404   20.3087 N   0  0  0  0  0  0
  -26.2786  -12.9317   20.3259 N   0  0  0  0  0  0
  -25.9227  -11.6472   20.5742 N   0  0  0  0  0  0
  -22.0408  -12.8169   22.0475 N   0  0  0  0  0  0
  -25.4039  -15.1892   20.4299 N   0  0  0  0  0  0
  -31.5879  -15.2511   20.2055 O   0  0  0  0  0  0
  -21.6623   -6.8784   21.4216 O   0  0  0  0  0  0
  -22.3480  -14.5441   20.6728 O   0  0  0  0  0  0
  -24.6589  -31.8275   23.1745 C   0  0  0  0  0  0
  -25.9268  -32.4626   23.8186 C   0  0  1  0  0  0
  -27.2043  -26.9395   20.1851 C   0  0  0  0  0  0
  -25.5978  -33.8448   24.2107 N   0  0  0  0  0  0
  -23.4782  -30.4376   21.5216 C   0  0  2  0  0  0
  -24.9320  -28.8210   20.1150 C   0  0  0  0  0  0
  -22.7663  -29.4435   22.4794 C   0  0  0  0  0  0
  -18.0351  -28.1320   22.8473 C   0  0  0  0  0  0
  -24.1461  -36.7228   23.2652 C   0  0  0  0  0  0
  -26.0449  -30.6248   21.4093 C   0  0  0  0  0  0
  -26.1089  -29.2163   20.7587 C   0  0  0  0  0  0
  -27.2481  -28.2951   20.7733 C   0  0  0  0  0  0
  -26.0000  -26.6902   19.4999 C   0  0  0  0  0  0
  -24.8990  -27.5756   19.4696 C   0  0  0  0  0  0
  -23.7259  -29.7597   20.1413 C   0  0  0  0  0  0
  -25.4120  -36.2987   24.0304 C   0  0  1  0  0  0
  -20.5961  -28.3710   23.1219 C   0  0  2  0  0  0
  -20.6806  -26.9355   22.5404 C   0  0  0  0  0  0
  -19.5781  -26.6306   21.5195 C   0  0  0  0  0  0
  -18.1941  -26.7877   22.1587 C   0  0  0  0  0  0
  -19.1598  -28.8849   23.2860 C   0  0  0  0  0  0
  -18.9527  -30.1429   23.8876 C   0  0  0  0  0  0
  -17.6523  -30.6582   24.0506 C   0  0  0  0  0  0
  -25.9107  -34.9385   23.5045 C   0  0  0  0  0  0
  -16.5414  -29.9040   23.6362 C   0  0  0  0  0  0
  -16.7351  -28.6470   23.0380 C   0  0  0  0  0  0
  -26.4565  -31.6555   25.0708 C   0  0  0  0  0  0
  -25.3749  -31.3768   26.1407 C   0  0  0  0  0  0
  -27.0466  -30.2940   24.6420 C   0  0  0  0  0  0
  -27.6089  -32.4334   25.7505 C   0  0  0  0  0  0
  -27.5569  -37.1770   24.8478 C   0  0  0  0  0  0
  -21.4327  -29.3112   22.3632 N   0  0  0  0  0  0
  -26.4287  -37.3715   23.9414 N   0  0  0  0  0  0
  -24.7472  -30.9906   22.0892 N   0  0  0  0  0  0
  -23.4215  -28.7963   23.3012 O   0  0  0  0  0  0
  -28.1934  -25.8321   20.2013 O   0  0  0  0  0  0
  -26.5692  -34.8894   22.4604 O   0  0  0  0  0  0
  -23.5664  -32.1321   23.6795 O   0  0  0  0  0  0
  -28.7809  -18.3176   22.8461 C   0  0  0  0  0  0
  -27.9614  -17.6227   21.7363 C   0  0  0  0  0  0
  -30.0591  -17.9965   22.1150 C   0  0  0  0  0  0
  -29.2356  -17.8669   20.8372 C   0  0  0  0  0  0
  -28.9088  -22.6719   18.4110 C   0  0  0  0  0  0
  -28.4636  -20.9970   20.4164 C   0  0  0  0  0  0
  -27.8684  -24.2265   20.3284 C   0  0  0  0  0  0
  -29.1839  -19.4162   19.9430 C   0  0  2  0  0  0
  -28.7325  -22.7009   19.9334 C   0  0  2  0  0  0
  -29.4579  -16.3234   20.2813 N   0  0  0  0  0  0
  -28.6989  -19.0865   18.6495 O   0  0  0  0  0  0
  -31.4463  -12.9695   19.1201 H   0  0  0  0  0  0
  -30.5374  -11.8076   20.0486 H   0  0  0  0  0  0
  -29.8641  -11.6755   17.6541 H   0  0  0  0  0  0
  -29.5570  -13.3890   17.6012 H   0  0  0  0  0  0
  -28.0020  -11.2405   19.0594 H   0  0  0  0  0  0
  -27.3747  -12.3235   17.8496 H   0  0  0  0  0  0
  -27.5428  -14.2195   19.3633 H   0  0  0  0  0  0
  -28.8287  -12.3357   21.3969 H   0  0  0  0  0  0
  -28.3251  -13.9734   21.7618 H   0  0  0  0  0  0
  -25.2695   -9.5617   22.4804 H   0  0  0  0  0  0
  -23.9928   -7.4544   22.7514 H   0  0  0  0  0  0
  -21.0778   -8.8637   19.8960 H   0  0  0  0  0  0
  -22.3596  -10.9562   19.6159 H   0  0  0  0  0  0
  -21.1992   -7.6103   23.9650 H   0  0  0  0  0  0
  -21.1530   -6.0520   25.9071 H   0  0  0  0  0  0
  -22.0608   -2.7542   23.2898 H   0  0  0  0  0  0
  -22.4064  -11.9815   22.4839 H   0  0  0  0  0  0
  -21.1005  -13.1153   22.2681 H   0  0  0  0  0  0
  -24.6297  -15.8255   20.5821 H   0  0  0  0  0  0
  -26.2471  -15.6510   20.1214 H   0  0  0  0  0  0
  -26.7343  -32.5134   23.0884 H   0  0  0  0  0  0
  -25.0056  -33.9512   25.0225 H   0  0  0  0  0  0
  -22.7904  -31.2712   21.3456 H   0  0  0  0  0  0
  -23.3739  -35.9542   23.3304 H   0  0  0  0  0  0
  -24.3573  -36.8886   22.2085 H   0  0  0  0  0  0
  -23.7216  -37.6417   23.6700 H   0  0  0  0  0  0
  -26.2265  -31.3580   20.6192 H   0  0  0  0  0  0
  -26.9072  -30.6846   22.0640 H   0  0  0  0  0  0
  -28.1359  -28.5967   21.3114 H   0  0  0  0  0  0
  -25.8741  -25.7447   18.9949 H   0  0  0  0  0  0
  -24.0181  -27.2503   18.9386 H   0  0  0  0  0  0
  -23.9102  -30.5311   19.3942 H   0  0  0  0  0  0
  -22.8375  -29.2234   19.8039 H   0  0  0  0  0  0
  -25.1307  -36.1838   25.0812 H   0  0  0  0  0  0
  -20.9982  -28.3309   24.1342 H   0  0  0  0  0  0
  -20.5756  -26.2208   23.3596 H   0  0  0  0  0  0
  -21.6655  -26.7317   22.1146 H   0  0  0  0  0  0
  -19.6866  -25.6179   21.1217 H   0  0  0  0  0  0
  -19.6732  -27.3101   20.6721 H   0  0  0  0  0  0
  -17.4257  -26.6746   21.3903 H   0  0  0  0  0  0
  -18.0233  -26.0054   22.9003 H   0  0  0  0  0  0
  -19.7985  -30.7279   24.2272 H   0  0  0  0  0  0
  -17.5063  -31.6311   24.5044 H   0  0  0  0  0  0
  -15.5427  -30.2897   23.7735 H   0  0  0  0  0  0
  -15.8763  -28.0843   22.7003 H   0  0  0  0  0  0
  -24.5955  -30.7059   25.7789 H   0  0  0  0  0  0
  -24.8896  -32.2924   26.4803 H   0  0  0  0  0  0
  -25.8145  -30.9025   27.0196 H   0  0  0  0  0  0
  -26.3095  -29.6617   24.1455 H   0  0  0  0  0  0
  -27.4070  -29.7341   25.5061 H   0  0  0  0  0  0
  -27.9034  -30.4177   23.9799 H   0  0  0  0  0  0
  -27.2667  -33.3661   26.2005 H   0  0  0  0  0  0
  -28.3951  -32.6835   25.0373 H   0  0  0  0  0  0
  -28.0654  -31.8477   26.5485 H   0  0  0  0  0  0
  -28.2562  -38.0060   24.7472 H   0  0  0  0  0  0
  -28.1053  -36.2602   24.6330 H   0  0  0  0  0  0
  -27.2297  -37.1468   25.8871 H   0  0  0  0  0  0
  -20.9531  -29.8938   21.6870 H   0  0  0  0  0  0
  -26.0150  -38.2804   24.1341 H   0  0  0  0  0  0
  -28.7198  -17.8376   23.8222 H   0  0  0  0  0  0
  -28.5900  -19.3863   22.9470 H   0  0  0  0  0  0
  -27.1447  -18.2331   22.1304 H   0  0  0  0  0  0
  -27.3881  -18.0273   20.9016 H   0  0  0  0  0  0
  -30.5182  -17.0659   22.4524 H   0  0  0  0  0  0
  -30.7750  -18.8141   22.0915 H   0  0  0  0  0  0
  -29.0708  -23.6768   18.0208 H   0  0  0  0  0  0
  -29.7737  -22.0639   18.1421 H   0  0  0  0  0  0
  -28.0396  -22.2567   17.8994 H   0  0  0  0  0  0
  -28.5868  -21.0329   21.4922 H   0  0  0  0  0  0
  -27.3866  -20.8583   20.3054 H   0  0  0  0  0  0
  -27.6811  -24.1435   21.3997 H   0  0  0  0  0  0
  -26.8770  -24.0785   19.8951 H   0  0  0  0  0  0
  -30.2310  -19.6637   19.7670 H   0  0  0  0  0  0
  -29.7285  -22.9016   20.3310 H   0  0  0  0  0  0
  -28.5490  -15.9208   20.1268 H   0  0  0  0  0  0
  -27.7674  -18.8864   18.7161 H   0  0  0  0  0  0
  1 25  1  0  0  0
  1 30  2  0  0  0
  1 80  1  0  0  0
  2  3  1  0  0  0
  2 25  1  0  0  0
  2 82  1  0  0  0
  2 83  1  0  0  0
  3  4  1  0  0  0
  3 84  1  0  0  0
  3 85  1  0  0  0
  4  5  1  0  0  0
  4 86  1  0  0  0
  4 87  1  0  0  0
  5  6  1  0  0  0
  5 26  1  0  0  0
  5 88  1  0  0  0
  6 25  1  0  0  0
  6 89  1  0  0  0
  6 90  1  0  0  0
  7  8  2  0  0  0
  7 26  1  0  0  0
  7 29  1  0  0  0
  8  9  1  0  0  0
  8 22  1  0  0  0
  9 10  1  0  0  0
  9 27  2  0  0  0
 10 11  2  0  0  0
 10 15  1  0  0  0
 11 12  1  0  0  0
 11 91  1  0  0  0
 12 13  2  0  0  0
 12 92  1  0  0  0
 13 14  1  0  0  0
 13 31  1  0  0  0
 14 15  2  0  0  0
 14 93  1  0  0  0
 15 94  1  0  0  0
 16 17  2  0  0  0
 16 21  1  0  0  0
 16 31  1  0  0  0
 17 18  1  0  0  0
 17 95  1  0  0  0
 18 19  2  0  0  0
 18 96  1  0  0  0
 19 20  1  0  0  0
 19 24  1  0  0  0
 20 21  2  0  0  0
 20 97  1  0  0  0
 21 23  1  0  0  0
 22 28  1  0  0  0
 22 32  2  0  0  0
 26 27  1  0  0  0
 28 98  1  0  0  0
 28 99  1  0  0  0
 29100  1  0  0  0
 29101  1  0  0  0
 33 34  1  0  0  0
 33 66  1  0  0  0
 33 70  2  0  0  0
 34 36  1  0  0  0
 34 59  1  0  0  0
 34102  1  0  0  0
 35 44  2  0  0  0
 35 45  1  0  0  0
 35 68  1  0  0  0
 36 56  1  0  0  0
 36103  1  0  0  0
 37 39  1  0  0  0
 37 47  1  0  0  0
 37 66  1  0  0  0
 37104  1  0  0  0
 38 43  2  0  0  0
 38 46  1  0  0  0
 38 47  1  0  0  0
 39 64  1  0  0  0
 39 67  2  0  0  0
 40 52  1  0  0  0
 40 53  2  0  0  0
 40 58  1  0  0  0
 41105  1  0  0  0
 41106  1  0  0  0
 41107  1  0  0  0
 41 48  1  0  0  0
 42 43  1  0  0  0
 42 66  1  0  0  0
 42108  1  0  0  0
 42109  1  0  0  0
 43 44  1  0  0  0
 44110  1  0  0  0
 45 46  2  0  0  0
 45111  1  0  0  0
 46112  1  0  0  0
 47113  1  0  0  0
 47114  1  0  0  0
 48 56  1  0  0  0
 48 65  1  0  0  0
 48115  1  0  0  0
 49 50  1  0  0  0
 49 53  1  0  0  0
 49 64  1  0  0  0
 49116  1  0  0  0
 50 51  1  0  0  0
 50117  1  0  0  0
 50118  1  0  0  0
 51 52  1  0  0  0
 51119  1  0  0  0
 51120  1  0  0  0
 52121  1  0  0  0
 52122  1  0  0  0
 53 54  1  0  0  0
 54 55  2  0  0  0
 54123  1  0  0  0
 55 57  1  0  0  0
 55124  1  0  0  0
 56 69  2  0  0  0
 57 58  2  0  0  0
 57125  1  0  0  0
 58126  1  0  0  0
 59 60  1  0  0  0
 59 61  1  0  0  0
 59 62  1  0  0  0
 60127  1  0  0  0
 60128  1  0  0  0
 60129  1  0  0  0
 61130  1  0  0  0
 61131  1  0  0  0
 61132  1  0  0  0
 62133  1  0  0  0
 62134  1  0  0  0
 62135  1  0  0  0
 63 65  1  0  0  0
 63136  1  0  0  0
 63137  1  0  0  0
 63138  1  0  0  0
 64139  1  0  0  0
 65140  1  0  0  0
 68 77  1  0  0  0
 71 72  1  0  0  0
 71 73  1  0  0  0
 71141  1  0  0  0
 71142  1  0  0  0
 72 74  1  0  0  0
 72143  1  0  0  0
 72144  1  0  0  0
 73 74  1  0  0  0
 73145  1  0  0  0
 73146  1  0  0  0
 74 78  1  0  0  0
 74 80  1  0  0  0
 75147  1  0  0  0
 75148  1  0  0  0
 75149  1  0  0  0
 75 79  1  0  0  0
 76 78  1  0  0  0
 76 79  1  0  0  0
 76150  1  0  0  0
 76151  1  0  0  0
 77 79  1  0  0  0
 77152  1  0  0  0
 77153  1  0  0  0
 78 81  1  0  0  0
 78154  1  0  0  0
 79155  1  0  0  0
 80156  1  0  0  0
 81157  1  0  0  0
M  ISO  4   1 100  68 101  77 101  80 100
M  END
> <chiral flag>
0

> <version>
0

> <s_m_source_file>
/data/baiqing/PycharmProjects/Reinvent-master-3.2/result/LINK_invent/BTK/process_docking_weight1_custom_sum_contain_oxygen_bond_distance_aromatic_linkinvent_7_9_3/rearranged_h_0117.sdf

> <i_m_source_file_index>
36

> <r_mmod_Potential_Energy-OPLS-2005>
1405.12841796875

> <r_mmod_Stretch_Energy-OPLS-2005>
594.97900390625

> <r_mmod_Bend_Energy-OPLS-2005>
625.295959472656

> <r_mmod_Torsional_Energy-OPLS-2005>
305.072143554688

> <r_mmod_Improper_Torsional_Energy-OPLS-2005>
7.19361114501953

> <r_mmod_Van_der_Waal_Energy-OPLS-2005>
105.352127075195

> <r_mmod_Electrostatic_Energy-OPLS-2005>
-414.949829101562

> <r_mmod_Solvation_Energy-OPLS-2005>
-225.630966186523

> <b_mmod_Minimization_Converged-OPLS-2005>
0

> <r_mmod_RMS_Derivative-OPLS-2005>
10.1133069992065

$$$$
36
                    3D
 Structure written by MMmdl.
180188  0  0  1  0            999 V2000
  -30.7356  -14.4474   20.5885 C   0  0  0  0  0  0
  -30.4206  -12.3030   19.4115 C   0  0  0  0  0  0
  -29.4913  -12.5083   18.1986 C   0  0  0  0  0  0
  -28.0139  -12.3737   18.6158 C   0  0  0  0  0  0
  -27.6641  -13.2104   19.8751 C   0  0  2  0  0  0
  -28.7088  -12.9911   20.9926 C   0  0  0  0  0  0
  -25.2610  -13.8161   20.5725 C   0  0  0  0  0  0
  -24.1851  -13.0430   20.9154 C   0  0  0  0  0  0
  -24.6413  -11.6905   20.8704 C   0  0  0  0  0  0
  -23.9077  -10.4295   21.0389 C   0  0  0  0  0  0
  -24.3625   -9.4213   21.9172 C   0  0  0  0  0  0
  -23.6303   -8.2250   22.0753 C   0  0  0  0  0  0
  -22.4281   -8.0284   21.3550 C   0  0  0  0  0  0
  -21.9916   -9.0260   20.4647 C   0  0  0  0  0  0
  -22.7249  -10.2136   20.3050 C   0  0  0  0  0  0
  -21.6850   -6.0739   22.5281 C   0  0  0  0  0  0
  -21.4015   -6.5643   23.8217 C   0  0  0  0  0  0
  -21.3660   -5.6794   24.9175 C   0  0  0  0  0  0
  -21.6041   -4.3055   24.7228 C   0  0  0  0  0  0
  -21.8819   -3.8152   23.4350 C   0  0  0  0  0  0
  -21.9200   -4.6969   22.3406 C   0  0  0  0  0  0
  -22.7875  -13.5235   21.1827 C   0  0  0  0  0  0
  -22.1662   -4.2155   21.0986 F   0  0  0  0  0  0
  -21.5632   -3.4540   25.7741 F   0  0  0  0  0  0
  -30.0413  -13.2869   20.4363 N   0  0  0  0  0  0
  -26.3050  -12.9349   20.3384 N   0  0  0  0  0  0
  -25.9345  -11.6498   20.5746 N   0  0  0  0  0  0
  -22.0520  -12.8224   22.0380 N   0  0  0  0  0  0
  -25.4335  -15.1887   20.4272 N   0  0  0  0  0  0
  -31.8529  -14.6255   20.1059 O   0  0  0  0  0  0
  -21.6641   -6.8883   21.4243 O   0  0  0  0  0  0
  -22.3565  -14.5552   20.6697 O   0  0  0  0  0  0
  -24.6148  -31.8686   23.2095 C   0  0  0  0  0  0
  -25.9039  -32.4821   23.8397 C   0  0  1  0  0  0
  -27.2279  -27.4323   20.0928 C   0  0  0  0  0  0
  -25.5880  -33.8618   24.2312 N   0  0  0  0  0  0
  -23.4039  -30.4922   21.5507 C   0  0  2  0  0  0
  -24.8502  -28.9620   20.1094 C   0  0  0  0  0  0
  -22.7425  -29.4661   22.4991 C   0  0  0  0  0  0
  -18.0271  -28.1370   22.8495 C   0  0  0  0  0  0
  -24.1488  -36.7331   23.2641 C   0  0  0  0  0  0
  -25.9346  -30.8306   21.3650 C   0  0  0  0  0  0
  -26.0118  -29.4680   20.7066 C   0  0  0  0  0  0
  -27.2080  -28.7115   20.6947 C   0  0  0  0  0  0
  -26.0541  -26.9483   19.4758 C   0  0  0  0  0  0
  -24.8651  -27.7000   19.4913 C   0  0  0  0  0  0
  -23.6117  -29.8284   20.1643 C   0  0  0  0  0  0
  -25.4109  -36.3111   24.0328 C   0  0  1  0  0  0
  -20.5868  -28.3673   23.1315 C   0  0  2  0  0  0
  -20.6774  -26.9413   22.5416 C   0  0  0  0  0  0
  -19.5753  -26.6388   21.5214 C   0  0  0  0  0  0
  -18.1926  -26.7916   22.1622 C   0  0  0  0  0  0
  -19.1527  -28.8838   23.2895 C   0  0  0  0  0  0
  -18.9454  -30.1437   23.8915 C   0  0  0  0  0  0
  -17.6456  -30.6584   24.0575 C   0  0  0  0  0  0
  -25.9032  -34.9474   23.5120 C   0  0  0  0  0  0
  -16.5347  -29.9092   23.6323 C   0  0  0  0  0  0
  -16.7262  -28.6499   23.0359 C   0  0  0  0  0  0
  -26.4457  -31.6601   25.0724 C   0  0  0  0  0  0
  -25.3714  -31.3693   26.1463 C   0  0  0  0  0  0
  -27.0289  -30.3042   24.6099 C   0  0  0  0  0  0
  -27.6030  -32.4326   25.7475 C   0  0  0  0  0  0
  -27.5585  -37.1808   24.8460 C   0  0  0  0  0  0
  -21.4154  -29.3033   22.3719 N   0  0  0  0  0  0
  -26.4300  -37.3789   23.9397 N   0  0  0  0  0  0
  -24.6689  -31.0787   22.0989 N   0  0  0  0  0  0
  -23.4188  -28.8217   23.3048 O   0  0  0  0  0  0
  -28.3595  -26.6449   20.1209 O   0  0  0  0  0  0
  -26.5635  -34.8926   22.4704 O   0  0  0  0  0  0
  -23.5340  -32.1448   23.7477 O   0  0  0  0  0  0
  -28.9380  -20.8953   19.1464 C   0  0  0  0  0  0
  -30.1430  -19.8383   21.3635 C   0  0  0  0  0  0
  -29.6038  -19.6535   19.0107 C   0  0  0  0  0  0
  -30.1714  -19.0688   20.1795 C   0  0  0  0  0  0
  -28.9234  -21.5537   20.3879 C   0  0  0  0  0  0
  -32.3480  -17.8523   19.9648 C   0  0  0  0  0  0
  -30.1230  -20.0072   16.5332 C   0  0  0  0  0  0
  -25.6101  -17.6477   17.3989 C   0  0  0  0  0  0
  -28.1385  -22.8467   20.6048 C   0  0  0  0  0  0
  -28.8233  -24.1598   20.1481 C   0  0  0  0  0  0
  -30.5151  -16.8231   21.4583 C   0  0  0  0  0  0
  -27.0027  -16.1284   15.8432 C   0  0  0  0  0  0
  -28.1673  -25.3949   20.8143 C   0  0  0  0  0  0
  -28.0862  -17.2573   17.8866 C   0  0  0  0  0  0
  -30.8355  -17.6779   20.1883 C   0  0  1  0  0  0
  -29.7028  -19.0064   17.6186 C   0  0  2  0  0  0
  -26.7976  -16.6770   17.2740 C   0  0  1  0  0  0
  -29.5505  -21.0471   21.4685 N   0  0  0  0  0  0
  -30.0721  -15.4419   21.1971 N   0  0  0  0  0  0
  -27.2962  -17.1876   14.8625 N   0  3  0  0  0  0
  -28.4746  -18.4300   17.1772 O   0  0  0  0  0  0
  -31.4649  -12.3925   19.1071 H   0  0  0  0  0  0
  -30.3138  -11.2913   19.8065 H   0  0  0  0  0  0
  -29.7248  -11.7815   17.4190 H   0  0  0  0  0  0
  -29.6654  -13.4922   17.7604 H   0  0  0  0  0  0
  -27.8228  -11.3179   18.8099 H   0  0  0  0  0  0
  -27.3626  -12.6512   17.7872 H   0  0  0  0  0  0
  -27.7083  -14.2591   19.5814 H   0  0  0  0  0  0
  -28.6817  -11.9568   21.3389 H   0  0  0  0  0  0
  -28.4732  -13.5949   21.8698 H   0  0  0  0  0  0
  -25.2774   -9.5686   22.4742 H   0  0  0  0  0  0
  -24.0012   -7.4642   22.7478 H   0  0  0  0  0  0
  -21.0840   -8.8787   19.8954 H   0  0  0  0  0  0
  -22.3713  -10.9678   19.6157 H   0  0  0  0  0  0
  -21.2000   -7.6146   23.9720 H   0  0  0  0  0  0
  -21.1476   -6.0522   25.9079 H   0  0  0  0  0  0
  -22.0597   -2.7612   23.2852 H   0  0  0  0  0  0
  -22.4141  -11.9880   22.4761 H   0  0  0  0  0  0
  -21.1143  -13.1249   22.2599 H   0  0  0  0  0  0
  -24.6705  -15.8403   20.5737 H   0  0  0  0  0  0
  -26.3098  -15.6435   20.2133 H   0  0  0  0  0  0
  -26.7112  -32.5535   23.1165 H   0  0  0  0  0  0
  -24.9958  -33.9775   25.0407 H   0  0  0  0  0  0
  -22.6913  -31.3076   21.4128 H   0  0  0  0  0  0
  -23.3730  -35.9682   23.3308 H   0  0  0  0  0  0
  -24.3588  -36.8960   22.2058 H   0  0  0  0  0  0
  -23.7270  -37.6540   23.6674 H   0  0  0  0  0  0
  -26.0540  -31.5973   20.5982 H   0  0  0  0  0  0
  -26.8206  -30.8805   21.9870 H   0  0  0  0  0  0
  -28.1030  -29.0915   21.1672 H   0  0  0  0  0  0
  -26.0546  -25.9795   18.9962 H   0  0  0  0  0  0
  -23.9720  -27.3037   19.0262 H   0  0  0  0  0  0
  -23.7179  -30.6065   19.4071 H   0  0  0  0  0  0
  -22.7350  -29.2497   19.8692 H   0  0  0  0  0  0
  -25.1282  -36.1976   25.0820 H   0  0  0  0  0  0
  -20.9949  -28.3251   24.1441 H   0  0  0  0  0  0
  -20.5693  -26.2282   23.3604 H   0  0  0  0  0  0
  -21.6639  -26.7475   22.1199 H   0  0  0  0  0  0
  -19.6923  -25.6305   21.1234 H   0  0  0  0  0  0
  -19.6689  -27.3205   20.6750 H   0  0  0  0  0  0
  -17.4200  -26.6666   21.4018 H   0  0  0  0  0  0
  -18.0324  -26.0051   22.9009 H   0  0  0  0  0  0
  -19.7933  -30.7240   24.2309 H   0  0  0  0  0  0
  -17.5018  -31.6271   24.5164 H   0  0  0  0  0  0
  -15.5347  -30.3008   23.7635 H   0  0  0  0  0  0
  -15.8657  -28.0830   22.7078 H   0  0  0  0  0  0
  -24.5885  -30.7046   25.7791 H   0  0  0  0  0  0
  -24.8885  -32.2826   26.4941 H   0  0  0  0  0  0
  -25.8040  -30.8838   27.0217 H   0  0  0  0  0  0
  -26.2828  -29.6782   24.1186 H   0  0  0  0  0  0
  -27.4100  -29.7303   25.4562 H   0  0  0  0  0  0
  -27.8643  -30.4368   23.9220 H   0  0  0  0  0  0
  -27.2671  -33.3637   26.2063 H   0  0  0  0  0  0
  -28.3824  -32.6884   25.0278 H   0  0  0  0  0  0
  -28.0712  -31.8439   26.5378 H   0  0  0  0  0  0
  -28.2596  -38.0117   24.7524 H   0  0  0  0  0  0
  -28.1095  -36.2644   24.6266 H   0  0  0  0  0  0
  -27.2308  -37.1446   25.8868 H   0  0  0  0  0  0
  -20.9324  -29.8746   21.6929 H   0  0  0  0  0  0
  -26.0188  -38.2865   24.1379 H   0  0  0  0  0  0
  -28.4340  -21.3431   18.3023 H   0  0  0  0  0  0
  -30.6032  -19.4708   22.2689 H   0  0  0  0  0  0
  -32.5498  -18.3733   19.0290 H   0  0  0  0  0  0
  -32.8704  -16.8983   19.9147 H   0  0  0  0  0  0
  -32.8070  -18.4302   20.7675 H   0  0  0  0  0  0
  -31.0605  -20.4970   16.7979 H   0  0  0  0  0  0
  -29.3727  -20.7800   16.3730 H   0  0  0  0  0  0
  -30.2746  -19.5012   15.5798 H   0  0  0  0  0  0
  -24.6945  -17.2057   17.0050 H   0  0  0  0  0  0
  -25.7876  -18.5843   16.8692 H   0  0  0  0  0  0
  -25.4247  -17.8981   18.4440 H   0  0  0  0  0  0
  -27.9052  -22.9167   21.6693 H   0  0  0  0  0  0
  -27.1719  -22.7518   20.1081 H   0  0  0  0  0  0
  -28.7680  -24.2300   19.0618 H   0  0  0  0  0  0
  -29.8829  -24.1409   20.4055 H   0  0  0  0  0  0
  -29.6863  -17.2705   22.0077 H   0  0  0  0  0  0
  -31.3578  -16.8180   22.1516 H   0  0  0  0  0  0
  -26.1180  -15.5801   15.5170 H   0  0  0  0  0  0
  -27.8247  -15.4094   15.8421 H   0  0  0  0  0  0
  -28.5715  -25.5096   21.8206 H   0  0  0  0  0  0
  -27.1101  -25.1758   20.9729 H   0  0  0  0  0  0
  -28.8762  -16.5067   17.8372 H   0  0  0  0  0  0
  -27.9235  -17.4879   18.9403 H   0  0  0  0  0  0
  -30.4464  -17.1063   19.3534 H   0  0  0  0  0  0
  -30.4802  -18.2446   17.6031 H   0  0  0  0  0  0
  -26.5441  -15.8068   17.8807 H   0  0  0  0  0  0
  -29.1516  -15.2015   21.5338 H   0  0  0  0  0  0
  -26.4847  -17.7565   14.7013 H   0  0  0  0  0  0
  -27.5779  -16.7835   13.9863 H   0  0  0  0  0  0
  -28.0365  -17.7739   15.2101 H   0  0  0  0  0  0
  1 25  1  0  0  0
  1 30  2  0  0  0
  1 89  1  0  0  0
  2  3  1  0  0  0
  2 25  1  0  0  0
  2 92  1  0  0  0
  2 93  1  0  0  0
  3  4  1  0  0  0
  3 94  1  0  0  0
  3 95  1  0  0  0
  4  5  1  0  0  0
  4 96  1  0  0  0
  4 97  1  0  0  0
  5  6  1  0  0  0
  5 26  1  0  0  0
  5 98  1  0  0  0
  6 25  1  0  0  0
  6 99  1  0  0  0
  6100  1  0  0  0
  7  8  2  0  0  0
  7 26  1  0  0  0
  7 29  1  0  0  0
  8  9  1  0  0  0
  8 22  1  0  0  0
  9 10  1  0  0  0
  9 27  2  0  0  0
 10 11  2  0  0  0
 10 15  1  0  0  0
 11 12  1  0  0  0
 11101  1  0  0  0
 12 13  2  0  0  0
 12102  1  0  0  0
 13 14  1  0  0  0
 13 31  1  0  0  0
 14 15  2  0  0  0
 14103  1  0  0  0
 15104  1  0  0  0
 16 17  2  0  0  0
 16 21  1  0  0  0
 16 31  1  0  0  0
 17 18  1  0  0  0
 17105  1  0  0  0
 18 19  2  0  0  0
 18106  1  0  0  0
 19 20  1  0  0  0
 19 24  1  0  0  0
 20 21  2  0  0  0
 20107  1  0  0  0
 21 23  1  0  0  0
 22 28  1  0  0  0
 22 32  2  0  0  0
 26 27  1  0  0  0
 28108  1  0  0  0
 28109  1  0  0  0
 29110  1  0  0  0
 29111  1  0  0  0
 33 34  1  0  0  0
 33 66  1  0  0  0
 33 70  2  0  0  0
 34 36  1  0  0  0
 34 59  1  0  0  0
 34112  1  0  0  0
 35 44  2  0  0  0
 35 45  1  0  0  0
 35 68  1  0  0  0
 36 56  1  0  0  0
 36113  1  0  0  0
 37 39  1  0  0  0
 37 47  1  0  0  0
 37 66  1  0  0  0
 37114  1  0  0  0
 38 43  2  0  0  0
 38 46  1  0  0  0
 38 47  1  0  0  0
 39 64  1  0  0  0
 39 67  2  0  0  0
 40 52  1  0  0  0
 40 53  2  0  0  0
 40 58  1  0  0  0
 41115  1  0  0  0
 41116  1  0  0  0
 41117  1  0  0  0
 41 48  1  0  0  0
 42 43  1  0  0  0
 42 66  1  0  0  0
 42118  1  0  0  0
 42119  1  0  0  0
 43 44  1  0  0  0
 44120  1  0  0  0
 45 46  2  0  0  0
 45121  1  0  0  0
 46122  1  0  0  0
 47123  1  0  0  0
 47124  1  0  0  0
 48 56  1  0  0  0
 48 65  1  0  0  0
 48125  1  0  0  0
 49 50  1  0  0  0
 49 53  1  0  0  0
 49 64  1  0  0  0
 49126  1  0  0  0
 50 51  1  0  0  0
 50127  1  0  0  0
 50128  1  0  0  0
 51 52  1  0  0  0
 51129  1  0  0  0
 51130  1  0  0  0
 52131  1  0  0  0
 52132  1  0  0  0
 53 54  1  0  0  0
 54 55  2  0  0  0
 54133  1  0  0  0
 55 57  1  0  0  0
 55134  1  0  0  0
 56 69  2  0  0  0
 57 58  2  0  0  0
 57135  1  0  0  0
 58136  1  0  0  0
 59 60  1  0  0  0
 59 61  1  0  0  0
 59 62  1  0  0  0
 60137  1  0  0  0
 60138  1  0  0  0
 60139  1  0  0  0
 61140  1  0  0  0
 61141  1  0  0  0
 61142  1  0  0  0
 62143  1  0  0  0
 62144  1  0  0  0
 62145  1  0  0  0
 63 65  1  0  0  0
 63146  1  0  0  0
 63147  1  0  0  0
 63148  1  0  0  0
 64149  1  0  0  0
 65150  1  0  0  0
 68 83  1  0  0  0
 71 73  2  0  0  0
 71 75  1  0  0  0
 71151  1  0  0  0
 72 74  2  0  0  0
 72 88  1  0  0  0
 72152  1  0  0  0
 73 74  1  0  0  0
 73 86  1  0  0  0
 74 85  1  0  0  0
 75 79  1  0  0  0
 75 88  2  0  0  0
 76153  1  0  0  0
 76154  1  0  0  0
 76155  1  0  0  0
 76 85  1  0  0  0
 77156  1  0  0  0
 77157  1  0  0  0
 77158  1  0  0  0
 77 86  1  0  0  0
 78159  1  0  0  0
 78160  1  0  0  0
 78161  1  0  0  0
 78 87  1  0  0  0
 79 80  1  0  0  0
 79162  1  0  0  0
 79163  1  0  0  0
 80 83  1  0  0  0
 80164  1  0  0  0
 80165  1  0  0  0
 81 85  1  0  0  0
 81 89  1  0  0  0
 81166  1  0  0  0
 81167  1  0  0  0
 82 87  1  0  0  0
 82 90  1  0  0  0
 82168  1  0  0  0
 82169  1  0  0  0
 83170  1  0  0  0
 83171  1  0  0  0
 84 87  1  0  0  0
 84 91  1  0  0  0
 84172  1  0  0  0
 84173  1  0  0  0
 85174  1  0  0  0
 86 91  1  0  0  0
 86175  1  0  0  0
 87176  1  0  0  0
 89177  1  0  0  0
 90178  1  0  0  0
 90179  1  0  0  0
 90180  1  0  0  0
M  CHG  1  90   1
M  ISO  4   1 100  68 101  83 101  89 100
M  END
> <chiral flag>
0

> <version>
0

> <s_m_source_file>
/data/baiqing/PycharmProjects/Reinvent-master-3.2/result/LINK_invent/BTK/process_docking_weight1_custom_sum_contain_oxygen_bond_distance_aromatic_linkinvent_7_9_3/rearranged_h_0117.sdf

> <i_m_source_file_index>
37

> <r_mmod_Potential_Energy-OPLS-2005>
-526.745727539062

> <r_mmod_Stretch_Energy-OPLS-2005>
40.9680023193359

> <r_mmod_Bend_Energy-OPLS-2005>
107.975410461426

> <r_mmod_Torsional_Energy-OPLS-2005>
267.022430419922

> <r_mmod_Improper_Torsional_Energy-OPLS-2005>
2.71715831756592

> <r_mmod_Van_der_Waal_Energy-OPLS-2005>
144.513320922852

> <r_mmod_Electrostatic_Energy-OPLS-2005>
-616.475158691406

> <r_mmod_Solvation_Energy-OPLS-2005>
-486.698944091797

> <b_mmod_Minimization_Converged-OPLS-2005>
0

> <r_mmod_RMS_Derivative-OPLS-2005>
1.61792755126953

$$$$
37
                    3D
 Structure written by MMmdl.
152160  0  0  1  0            999 V2000
  -30.6997  -14.4989   20.5566 C   0  0  0  0  0  0
  -30.4110  -12.3289   19.4172 C   0  0  0  0  0  0
  -29.4874  -12.5216   18.2021 C   0  0  0  0  0  0
  -28.0053  -12.3902   18.6110 C   0  0  0  0  0  0
  -27.6533  -13.2198   19.8752 C   0  0  2  0  0  0
  -28.6996  -13.0199   20.9929 C   0  0  0  0  0  0
  -25.2525  -13.8192   20.5685 C   0  0  0  0  0  0
  -24.1804  -13.0425   20.9181 C   0  0  0  0  0  0
  -24.6387  -11.6907   20.8708 C   0  0  0  0  0  0
  -23.9054  -10.4298   21.0364 C   0  0  0  0  0  0
  -24.3602   -9.4229   21.9150 C   0  0  0  0  0  0
  -23.6297   -8.2257   22.0735 C   0  0  0  0  0  0
  -22.4280   -8.0286   21.3531 C   0  0  0  0  0  0
  -21.9889   -9.0238   20.4621 C   0  0  0  0  0  0
  -22.7215  -10.2127   20.3028 C   0  0  0  0  0  0
  -21.6861   -6.0759   22.5279 C   0  0  0  0  0  0
  -21.4026   -6.5650   23.8218 C   0  0  0  0  0  0
  -21.3662   -5.6784   24.9169 C   0  0  0  0  0  0
  -21.6056   -4.3048   24.7215 C   0  0  0  0  0  0
  -21.8815   -3.8163   23.4328 C   0  0  0  0  0  0
  -21.9189   -4.6990   22.3391 C   0  0  0  0  0  0
  -22.7831  -13.5226   21.1811 C   0  0  0  0  0  0
  -22.1644   -4.2180   21.0957 F   0  0  0  0  0  0
  -21.5633   -3.4514   25.7714 F   0  0  0  0  0  0
  -30.0188  -13.3277   20.4239 N   0  0  0  0  0  0
  -26.2983  -12.9388   20.3394 N   0  0  0  0  0  0
  -25.9321  -11.6533   20.5773 N   0  0  0  0  0  0
  -22.0477  -12.8223   22.0377 N   0  0  0  0  0  0
  -25.4156  -15.1924   20.4090 N   0  0  0  0  0  0
  -31.8543  -14.6398   20.1481 O   0  0  0  0  0  0
  -21.6660   -6.8877   21.4234 O   0  0  0  0  0  0
  -22.3510  -14.5524   20.6673 O   0  0  0  0  0  0
  -24.6220  -31.8647   23.2066 C   0  0  0  0  0  0
  -25.9118  -32.4787   23.8371 C   0  0  1  0  0  0
  -27.2277  -27.4010   20.0908 C   0  0  0  0  0  0
  -25.5971  -33.8595   24.2279 N   0  0  0  0  0  0
  -23.4091  -30.4899   21.5465 C   0  0  2  0  0  0
  -24.8507  -28.9477   20.1130 C   0  0  0  0  0  0
  -22.7440  -29.4677   22.4979 C   0  0  0  0  0  0
  -18.0275  -28.1388   22.8464 C   0  0  0  0  0  0
  -24.1498  -36.7309   23.2638 C   0  0  0  0  0  0
  -25.9427  -30.8135   21.3706 C   0  0  0  0  0  0
  -26.0125  -29.4495   20.7101 C   0  0  0  0  0  0
  -27.2020  -28.6841   20.6935 C   0  0  0  0  0  0
  -26.0438  -26.9177   19.4892 C   0  0  0  0  0  0
  -24.8623  -27.6826   19.5009 C   0  0  0  0  0  0
  -23.6155  -29.8173   20.1632 C   0  0  0  0  0  0
  -25.4121  -36.3083   24.0322 C   0  0  1  0  0  0
  -20.5869  -28.3691   23.1284 C   0  0  2  0  0  0
  -20.6773  -26.9425   22.5384 C   0  0  0  0  0  0
  -19.5744  -26.6378   21.5201 C   0  0  0  0  0  0
  -18.1930  -26.7926   22.1610 C   0  0  0  0  0  0
  -19.1530  -28.8852   23.2862 C   0  0  0  0  0  0
  -18.9462  -30.1455   23.8879 C   0  0  0  0  0  0
  -17.6470  -30.6584   24.0569 C   0  0  0  0  0  0
  -25.9055  -34.9460   23.5078 C   0  0  0  0  0  0
  -16.5352  -29.9088   23.6339 C   0  0  0  0  0  0
  -16.7269  -28.6510   23.0340 C   0  0  0  0  0  0
  -26.4502  -31.6633   25.0768 C   0  0  0  0  0  0
  -25.3740  -31.3827   26.1512 C   0  0  0  0  0  0
  -27.0381  -30.3046   24.6284 C   0  0  0  0  0  0
  -27.5997  -32.4445   25.7580 C   0  0  0  0  0  0
  -27.5580  -37.1828   24.8454 C   0  0  0  0  0  0
  -21.4171  -29.3056   22.3697 N   0  0  0  0  0  0
  -26.4295  -37.3780   23.9396 N   0  0  0  0  0  0
  -24.6749  -31.0738   22.0962 N   0  0  0  0  0  0
  -23.4198  -28.8235   23.3045 O   0  0  0  0  0  0
  -28.4031  -26.6733   20.1278 O   0  0  0  0  0  0
  -26.5586  -34.8928   22.4623 O   0  0  0  0  0  0
  -23.5402  -32.1442   23.7429 O   0  0  0  0  0  0
  -29.1741  -19.9421   19.7730 C   0  0  0  0  0  0
  -28.2754  -19.6533   21.9435 C   0  0  0  0  0  0
  -28.4115  -20.4988   20.8256 C   0  0  0  0  0  0
  -29.6633  -18.0790   21.0264 C   0  0  0  0  0  0
  -30.5894  -16.8799   21.2664 C   0  0  0  0  0  0
  -27.8874  -24.1885   20.4165 C   0  0  0  0  0  0
  -28.4861  -25.3477   19.5629 C   0  0  0  0  0  0
  -28.3012  -22.7658   19.9373 C   0  0  0  0  0  0
  -29.7926  -18.7438   19.8808 N   0  0  0  0  0  0
  -28.9040  -18.4606   22.0449 N   0  0  0  0  0  0
  -30.0064  -15.5505   21.0313 N   0  0  0  0  0  0
  -27.8192  -21.7568   20.8371 O   0  0  0  0  0  0
  -31.4532  -12.4260   19.1119 H   0  0  0  0  0  0
  -30.3115  -11.3221   19.8221 H   0  0  0  0  0  0
  -29.7293  -11.7934   17.4268 H   0  0  0  0  0  0
  -29.6611  -13.5067   17.7641 H   0  0  0  0  0  0
  -27.7938  -11.3357   18.7857 H   0  0  0  0  0  0
  -27.3696  -12.6904   17.7775 H   0  0  0  0  0  0
  -27.6896  -14.2712   19.5877 H   0  0  0  0  0  0
  -28.6863  -11.9902   21.3527 H   0  0  0  0  0  0
  -28.4622  -13.6391   21.8609 H   0  0  0  0  0  0
  -25.2732   -9.5763   22.4740 H   0  0  0  0  0  0
  -24.0034   -7.4668   22.7462 H   0  0  0  0  0  0
  -21.0825   -8.8760   19.8902 H   0  0  0  0  0  0
  -22.3657  -10.9681   19.6169 H   0  0  0  0  0  0
  -21.2023   -7.6157   23.9729 H   0  0  0  0  0  0
  -21.1481   -6.0511   25.9076 H   0  0  0  0  0  0
  -22.0592   -2.7636   23.2814 H   0  0  0  0  0  0
  -22.4063  -11.9921   22.4860 H   0  0  0  0  0  0
  -21.1089  -13.1288   22.2490 H   0  0  0  0  0  0
  -24.6384  -15.8357   20.5149 H   0  0  0  0  0  0
  -26.2590  -15.6473   20.0835 H   0  0  0  0  0  0
  -26.7189  -32.5436   23.1129 H   0  0  0  0  0  0
  -25.0231  -33.9766   25.0491 H   0  0  0  0  0  0
  -22.6988  -31.3069   21.4003 H   0  0  0  0  0  0
  -23.3749  -35.9656   23.3301 H   0  0  0  0  0  0
  -24.3569  -36.8933   22.2048 H   0  0  0  0  0  0
  -23.7283  -37.6527   23.6653 H   0  0  0  0  0  0
  -26.0831  -31.5799   20.6070 H   0  0  0  0  0  0
  -26.8207  -30.8457   22.0043 H   0  0  0  0  0  0
  -28.1016  -29.0697   21.1523 H   0  0  0  0  0  0
  -26.0107  -25.9482   19.0143 H   0  0  0  0  0  0
  -23.9674  -27.2877   19.0401 H   0  0  0  0  0  0
  -23.7240  -30.5851   19.3967 H   0  0  0  0  0  0
  -22.7398  -29.2386   19.8682 H   0  0  0  0  0  0
  -25.1308  -36.1923   25.0816 H   0  0  0  0  0  0
  -20.9952  -28.3248   24.1413 H   0  0  0  0  0  0
  -20.5702  -26.2309   23.3585 H   0  0  0  0  0  0
  -21.6646  -26.7484   22.1161 H   0  0  0  0  0  0
  -19.6921  -25.6288   21.1247 H   0  0  0  0  0  0
  -19.6682  -27.3176   20.6721 H   0  0  0  0  0  0
  -17.4204  -26.6668   21.4006 H   0  0  0  0  0  0
  -18.0325  -26.0073   22.9002 H   0  0  0  0  0  0
  -19.7942  -30.7267   24.2242 H   0  0  0  0  0  0
  -17.5029  -31.6267   24.5175 H   0  0  0  0  0  0
  -15.5351  -30.2991   23.7690 H   0  0  0  0  0  0
  -15.8660  -28.0839   22.7063 H   0  0  0  0  0  0
  -24.5795  -30.7317   25.7858 H   0  0  0  0  0  0
  -24.9099  -32.3047   26.5024 H   0  0  0  0  0  0
  -25.8060  -30.8911   27.0235 H   0  0  0  0  0  0
  -26.3011  -29.6804   24.1219 H   0  0  0  0  0  0
  -27.3949  -29.7317   25.4854 H   0  0  0  0  0  0
  -27.8918  -30.4318   23.9624 H   0  0  0  0  0  0
  -27.2474  -33.3681   26.2199 H   0  0  0  0  0  0
  -28.3798  -32.7161   25.0456 H   0  0  0  0  0  0
  -28.0688  -31.8600   26.5506 H   0  0  0  0  0  0
  -28.2577  -38.0139   24.7491 H   0  0  0  0  0  0
  -28.1092  -36.2669   24.6274 H   0  0  0  0  0  0
  -27.2293  -37.1476   25.8854 H   0  0  0  0  0  0
  -20.9367  -29.8762   21.6882 H   0  0  0  0  0  0
  -26.0166  -38.2858   24.1358 H   0  0  0  0  0  0
  -29.3151  -20.4622   18.8384 H   0  0  0  0  0  0
  -27.6867  -19.9615   22.7953 H   0  0  0  0  0  0
  -30.9471  -16.9210   22.2968 H   0  0  0  0  0  0
  -31.4766  -17.0295   20.6493 H   0  0  0  0  0  0
  -26.8002  -24.2605   20.4329 H   0  0  0  0  0  0
  -28.2153  -24.3041   21.4494 H   0  0  0  0  0  0
  -28.0976  -25.3292   18.5451 H   0  0  0  0  0  0
  -29.5549  -25.1590   19.4593 H   0  0  0  0  0  0
  -29.3899  -22.7176   19.8846 H   0  0  0  0  0  0
  -27.9140  -22.5760   18.9348 H   0  0  0  0  0  0
  -29.0255  -15.4431   21.2327 H   0  0  0  0  0  0
  1 25  1  0  0  0
  1 30  2  0  0  0
  1 81  1  0  0  0
  2  3  1  0  0  0
  2 25  1  0  0  0
  2 83  1  0  0  0
  2 84  1  0  0  0
  3  4  1  0  0  0
  3 85  1  0  0  0
  3 86  1  0  0  0
  4  5  1  0  0  0
  4 87  1  0  0  0
  4 88  1  0  0  0
  5  6  1  0  0  0
  5 26  1  0  0  0
  5 89  1  0  0  0
  6 25  1  0  0  0
  6 90  1  0  0  0
  6 91  1  0  0  0
  7  8  2  0  0  0
  7 26  1  0  0  0
  7 29  1  0  0  0
  8  9  1  0  0  0
  8 22  1  0  0  0
  9 10  1  0  0  0
  9 27  2  0  0  0
 10 11  2  0  0  0
 10 15  1  0  0  0
 11 12  1  0  0  0
 11 92  1  0  0  0
 12 13  2  0  0  0
 12 93  1  0  0  0
 13 14  1  0  0  0
 13 31  1  0  0  0
 14 15  2  0  0  0
 14 94  1  0  0  0
 15 95  1  0  0  0
 16 17  2  0  0  0
 16 21  1  0  0  0
 16 31  1  0  0  0
 17 18  1  0  0  0
 17 96  1  0  0  0
 18 19  2  0  0  0
 18 97  1  0  0  0
 19 20  1  0  0  0
 19 24  1  0  0  0
 20 21  2  0  0  0
 20 98  1  0  0  0
 21 23  1  0  0  0
 22 28  1  0  0  0
 22 32  2  0  0  0
 26 27  1  0  0  0
 28 99  1  0  0  0
 28100  1  0  0  0
 29101  1  0  0  0
 29102  1  0  0  0
 33 34  1  0  0  0
 33 66  1  0  0  0
 33 70  2  0  0  0
 34 36  1  0  0  0
 34 59  1  0  0  0
 34103  1  0  0  0
 35 44  2  0  0  0
 35 45  1  0  0  0
 35 68  1  0  0  0
 36 56  1  0  0  0
 36104  1  0  0  0
 37 39  1  0  0  0
 37 47  1  0  0  0
 37 66  1  0  0  0
 37105  1  0  0  0
 38 43  2  0  0  0
 38 46  1  0  0  0
 38 47  1  0  0  0
 39 64  1  0  0  0
 39 67  2  0  0  0
 40 52  1  0  0  0
 40 53  2  0  0  0
 40 58  1  0  0  0
 41106  1  0  0  0
 41107  1  0  0  0
 41108  1  0  0  0
 41 48  1  0  0  0
 42 43  1  0  0  0
 42 66  1  0  0  0
 42109  1  0  0  0
 42110  1  0  0  0
 43 44  1  0  0  0
 44111  1  0  0  0
 45 46  2  0  0  0
 45112  1  0  0  0
 46113  1  0  0  0
 47114  1  0  0  0
 47115  1  0  0  0
 48 56  1  0  0  0
 48 65  1  0  0  0
 48116  1  0  0  0
 49 50  1  0  0  0
 49 53  1  0  0  0
 49 64  1  0  0  0
 49117  1  0  0  0
 50 51  1  0  0  0
 50118  1  0  0  0
 50119  1  0  0  0
 51 52  1  0  0  0
 51120  1  0  0  0
 51121  1  0  0  0
 52122  1  0  0  0
 52123  1  0  0  0
 53 54  1  0  0  0
 54 55  2  0  0  0
 54124  1  0  0  0
 55 57  1  0  0  0
 55125  1  0  0  0
 56 69  2  0  0  0
 57 58  2  0  0  0
 57126  1  0  0  0
 58127  1  0  0  0
 59 60  1  0  0  0
 59 61  1  0  0  0
 59 62  1  0  0  0
 60128  1  0  0  0
 60129  1  0  0  0
 60130  1  0  0  0
 61131  1  0  0  0
 61132  1  0  0  0
 61133  1  0  0  0
 62134  1  0  0  0
 62135  1  0  0  0
 62136  1  0  0  0
 63 65  1  0  0  0
 63137  1  0  0  0
 63138  1  0  0  0
 63139  1  0  0  0
 64140  1  0  0  0
 65141  1  0  0  0
 68 77  1  0  0  0
 71 73  2  0  0  0
 71 79  1  0  0  0
 71142  1  0  0  0
 72 73  1  0  0  0
 72 80  2  0  0  0
 72143  1  0  0  0
 73 82  1  0  0  0
 74 75  1  0  0  0
 74 79  2  0  0  0
 74 80  1  0  0  0
 75 81  1  0  0  0
 75144  1  0  0  0
 75145  1  0  0  0
 76 77  1  0  0  0
 76 78  1  0  0  0
 76146  1  0  0  0
 76147  1  0  0  0
 77148  1  0  0  0
 77149  1  0  0  0
 78 82  1  0  0  0
 78150  1  0  0  0
 78151  1  0  0  0
 81152  1  0  0  0
M  ISO  4   1 100  68 101  77 101  81 100
M  END
> <chiral flag>
0

> <version>
0

> <s_m_source_file>
/data/baiqing/PycharmProjects/Reinvent-master-3.2/result/LINK_invent/BTK/process_docking_weight1_custom_sum_contain_oxygen_bond_distance_aromatic_linkinvent_7_9_3/rearranged_h_0117.sdf

> <i_m_source_file_index>
38

> <r_mmod_Potential_Energy-OPLS-2005>
-578.171997070312

> <r_mmod_Stretch_Energy-OPLS-2005>
38.6337242126465

> <r_mmod_Bend_Energy-OPLS-2005>
114.80118560791

> <r_mmod_Torsional_Energy-OPLS-2005>
192.821701049805

> <r_mmod_Improper_Torsional_Energy-OPLS-2005>
3.65441417694092

> <r_mmod_Van_der_Waal_Energy-OPLS-2005>
160.915435791016

> <r_mmod_Electrostatic_Energy-OPLS-2005>
-875.4560546875

> <r_mmod_Solvation_Energy-OPLS-2005>
-232.574813842773

> <b_mmod_Minimization_Converged-OPLS-2005>
0

> <r_mmod_RMS_Derivative-OPLS-2005>
3.78256773948669

$$$$
38
                    3D
 Structure written by MMmdl.
165173  0  0  1  0            999 V2000
  -30.7451  -14.3826   20.5367 C   0  0  0  0  0  0
  -30.4107  -12.2394   19.4239 C   0  0  0  0  0  0
  -29.4978  -12.4892   18.2058 C   0  0  0  0  0  0
  -28.0144  -12.3728   18.6107 C   0  0  0  0  0  0
  -27.6644  -13.2026   19.8763 C   0  0  2  0  0  0
  -28.7060  -12.9769   21.0006 C   0  0  0  0  0  0
  -25.2610  -13.8154   20.5670 C   0  0  0  0  0  0
  -24.1855  -13.0441   20.9164 C   0  0  0  0  0  0
  -24.6387  -11.6902   20.8719 C   0  0  0  0  0  0
  -23.9038  -10.4304   21.0376 C   0  0  0  0  0  0
  -24.3595   -9.4227   21.9155 C   0  0  0  0  0  0
  -23.6284   -8.2260   22.0736 C   0  0  0  0  0  0
  -22.4273   -8.0280   21.3532 C   0  0  0  0  0  0
  -21.9891   -9.0242   20.4633 C   0  0  0  0  0  0
  -22.7208  -10.2127   20.3032 C   0  0  0  0  0  0
  -21.6858   -6.0728   22.5276 C   0  0  0  0  0  0
  -21.4012   -6.5626   23.8209 C   0  0  0  0  0  0
  -21.3665   -5.6781   24.9171 C   0  0  0  0  0  0
  -21.6053   -4.3046   24.7223 C   0  0  0  0  0  0
  -21.8820   -3.8133   23.4347 C   0  0  0  0  0  0
  -21.9197   -4.6953   22.3405 C   0  0  0  0  0  0
  -22.7882  -13.5243   21.1817 C   0  0  0  0  0  0
  -22.1665   -4.2141   21.0982 F   0  0  0  0  0  0
  -21.5637   -3.4526   25.7735 F   0  0  0  0  0  0
  -30.0472  -13.2254   20.4481 N   0  0  0  0  0  0
  -26.3037  -12.9309   20.3366 N   0  0  0  0  0  0
  -25.9318  -11.6470   20.5754 N   0  0  0  0  0  0
  -22.0506  -12.8271   22.0384 N   0  0  0  0  0  0
  -25.4365  -15.1866   20.4077 N   0  0  0  0  0  0
  -31.9010  -14.5206   20.1289 O   0  0  0  0  0  0
  -21.6646   -6.8873   21.4240 O   0  0  0  0  0  0
  -22.3603  -14.5556   20.6658 O   0  0  0  0  0  0
  -24.6064  -31.8729   23.2159 C   0  0  0  0  0  0
  -25.8969  -32.4877   23.8438 C   0  0  1  0  0  0
  -27.2349  -27.4989   20.0809 C   0  0  0  0  0  0
  -25.5836  -33.8672   24.2370 N   0  0  0  0  0  0
  -23.3927  -30.4958   21.5559 C   0  0  2  0  0  0
  -24.8382  -28.9664   20.1213 C   0  0  0  0  0  0
  -22.7373  -29.4665   22.5034 C   0  0  0  0  0  0
  -18.0252  -28.1354   22.8517 C   0  0  0  0  0  0
  -24.1472  -36.7342   23.2644 C   0  0  0  0  0  0
  -25.9133  -30.8543   21.3608 C   0  0  0  0  0  0
  -25.9919  -29.4883   20.7204 C   0  0  0  0  0  0
  -27.1917  -28.7532   20.7156 C   0  0  0  0  0  0
  -26.0637  -26.9643   19.5007 C   0  0  0  0  0  0
  -24.8635  -27.6973   19.5169 C   0  0  0  0  0  0
  -23.5998  -29.8289   20.1696 C   0  0  0  0  0  0
  -25.4092  -36.3160   24.0359 C   0  0  1  0  0  0
  -20.5847  -28.3628   23.1347 C   0  0  2  0  0  0
  -20.6744  -26.9368   22.5430 C   0  0  0  0  0  0
  -19.5714  -26.6376   21.5223 C   0  0  0  0  0  0
  -18.1894  -26.7905   22.1638 C   0  0  0  0  0  0
  -19.1510  -28.8798   23.2938 C   0  0  0  0  0  0
  -18.9438  -30.1410   23.8937 C   0  0  0  0  0  0
  -17.6446  -30.6575   24.0560 C   0  0  0  0  0  0
  -25.9010  -34.9517   23.5175 C   0  0  0  0  0  0
  -16.5334  -29.9085   23.6314 C   0  0  0  0  0  0
  -16.7244  -28.6489   23.0359 C   0  0  0  0  0  0
  -26.4428  -31.6632   25.0726 C   0  0  0  0  0  0
  -25.3735  -31.3699   26.1511 C   0  0  0  0  0  0
  -27.0239  -30.3093   24.6024 C   0  0  0  0  0  0
  -27.6026  -32.4340   25.7464 C   0  0  0  0  0  0
  -27.5585  -37.1824   24.8471 C   0  0  0  0  0  0
  -21.4108  -29.3024   22.3786 N   0  0  0  0  0  0
  -26.4290  -37.3830   23.9421 N   0  0  0  0  0  0
  -24.6556  -31.0875   22.1040 N   0  0  0  0  0  0
  -23.4171  -28.8205   23.3051 O   0  0  0  0  0  0
  -28.4182  -26.8138   20.0402 O   0  0  0  0  0  0
  -26.5582  -34.8947   22.4748 O   0  0  0  0  0  0
  -23.5272  -32.1457   23.7581 O   0  0  0  0  0  0
  -28.6346  -19.8938   21.1965 C   0  0  0  0  0  0
  -29.2105  -18.6106   21.2136 C   0  0  0  0  0  0
  -28.6421  -19.8587   18.7537 C   0  0  0  0  0  0
  -28.3712  -20.5243   19.9635 C   0  0  0  0  0  0
  -29.5483  -17.9689   19.9988 C   0  0  0  0  0  0
  -29.2436  -18.5913   18.7638 C   0  0  0  0  0  0
  -29.5718  -17.9186   17.4401 C   0  0  0  0  0  0
  -29.9748  -27.6926   18.4349 C   0  0  0  0  0  0
  -27.8750  -21.9486   19.9083 C   0  0  0  0  0  0
  -30.2776  -16.6385   19.9708 C   0  0  0  0  0  0
  -28.9883  -22.8722   19.3934 C   0  0  0  0  0  0
  -29.5301  -25.1947   18.7429 C   0  0  0  0  0  0
  -28.9398  -26.6036   18.7304 C   0  0  1  0  0  0
  -29.9993  -15.4612   20.7772 N   0  0  0  0  0  0
  -28.5110  -24.2497   19.2415 N   0  3  0  0  0  0
  -31.4619  -12.2969   19.1341 H   0  0  0  0  0  0
  -30.2668  -11.2298   19.8117 H   0  0  0  0  0  0
  -29.7260  -11.7748   17.4129 H   0  0  0  0  0  0
  -29.6949  -13.4784   17.7904 H   0  0  0  0  0  0
  -27.8017  -11.3179   18.7824 H   0  0  0  0  0  0
  -27.3755  -12.6755   17.7804 H   0  0  0  0  0  0
  -27.7083  -14.2506   19.5809 H   0  0  0  0  0  0
  -28.6547  -11.9482   21.3606 H   0  0  0  0  0  0
  -28.4964  -13.6060   21.8664 H   0  0  0  0  0  0
  -25.2730   -9.5725   22.4733 H   0  0  0  0  0  0
  -23.9998   -7.4651   22.7441 H   0  0  0  0  0  0
  -21.0823   -8.8733   19.8943 H   0  0  0  0  0  0
  -22.3626  -10.9654   19.6142 H   0  0  0  0  0  0
  -21.1999   -7.6131   23.9708 H   0  0  0  0  0  0
  -21.1492   -6.0509   25.9070 H   0  0  0  0  0  0
  -22.0603   -2.7600   23.2842 H   0  0  0  0  0  0
  -22.4089  -11.9946   22.4845 H   0  0  0  0  0  0
  -21.1106  -13.1304   22.2484 H   0  0  0  0  0  0
  -24.6743  -15.8453   20.5204 H   0  0  0  0  0  0
  -26.2908  -15.6265   20.0908 H   0  0  0  0  0  0
  -26.7044  -32.5608   23.1217 H   0  0  0  0  0  0
  -24.9946  -33.9851   25.0486 H   0  0  0  0  0  0
  -22.6784  -31.3101   21.4196 H   0  0  0  0  0  0
  -23.3739  -35.9673   23.3331 H   0  0  0  0  0  0
  -24.3572  -36.8925   22.2054 H   0  0  0  0  0  0
  -23.7207  -37.6553   23.6629 H   0  0  0  0  0  0
  -26.0091  -31.6154   20.5856 H   0  0  0  0  0  0
  -26.8080  -30.9216   21.9664 H   0  0  0  0  0  0
  -28.0869  -29.1536   21.1719 H   0  0  0  0  0  0
  -26.0708  -25.9935   19.0285 H   0  0  0  0  0  0
  -23.9732  -27.2841   19.0626 H   0  0  0  0  0  0
  -23.7088  -30.6038   19.4110 H   0  0  0  0  0  0
  -22.7242  -29.2492   19.8727 H   0  0  0  0  0  0
  -25.1265  -36.2066   25.0853 H   0  0  0  0  0  0
  -20.9930  -28.3166   24.1471 H   0  0  0  0  0  0
  -20.5635  -26.2224   23.3607 H   0  0  0  0  0  0
  -21.6614  -26.7414   22.1218 H   0  0  0  0  0  0
  -19.6875  -25.6302   21.1213 H   0  0  0  0  0  0
  -19.6646  -27.3217   20.6778 H   0  0  0  0  0  0
  -17.4170  -26.6668   21.4037 H   0  0  0  0  0  0
  -18.0278  -26.0034   22.9012 H   0  0  0  0  0  0
  -19.7915  -30.7214   24.2331 H   0  0  0  0  0  0
  -17.5000  -31.6258   24.5155 H   0  0  0  0  0  0
  -15.5337  -30.3004   23.7598 H   0  0  0  0  0  0
  -15.8644  -28.0811   22.7070 H   0  0  0  0  0  0
  -24.5880  -30.7077   25.7847 H   0  0  0  0  0  0
  -24.8958  -32.2840   26.5046 H   0  0  0  0  0  0
  -25.8129  -30.8802   27.0213 H   0  0  0  0  0  0
  -26.2729  -29.6871   24.1136 H   0  0  0  0  0  0
  -27.4099  -29.7319   25.4432 H   0  0  0  0  0  0
  -27.8536  -30.4448   23.9084 H   0  0  0  0  0  0
  -27.2662  -33.3634   26.2078 H   0  0  0  0  0  0
  -28.3799  -32.6918   25.0255 H   0  0  0  0  0  0
  -28.0733  -31.8441   26.5340 H   0  0  0  0  0  0
  -28.2629  -38.0096   24.7517 H   0  0  0  0  0  0
  -28.1054  -36.2635   24.6309 H   0  0  0  0  0  0
  -27.2305  -37.1503   25.8873 H   0  0  0  0  0  0
  -20.9233  -29.8779   21.7055 H   0  0  0  0  0  0
  -26.0207  -38.2925   24.1417 H   0  0  0  0  0  0
  -28.4284  -20.3976   22.1322 H   0  0  0  0  0  0
  -29.4327  -18.1413   22.1626 H   0  0  0  0  0  0
  -28.4303  -20.3431   17.8105 H   0  0  0  0  0  0
  -29.1005  -18.4326   16.6004 H   0  0  0  0  0  0
  -29.2181  -16.8864   17.4231 H   0  0  0  0  0  0
  -30.6498  -17.9165   17.2753 H   0  0  0  0  0  0
  -30.4125  -27.5568   17.4469 H   0  0  0  0  0  0
  -30.7795  -27.6823   19.1700 H   0  0  0  0  0  0
  -29.5119  -28.6793   18.4586 H   0  0  0  0  0  0
  -27.5394  -22.2640   20.8971 H   0  0  0  0  0  0
  -27.0070  -21.9867   19.2476 H   0  0  0  0  0  0
  -29.2299  -16.3677   19.8198 H   0  0  0  0  0  0
  -30.8700  -16.9685   20.8273 H   0  0  0  0  0  0
  -29.3493  -22.5250   18.4246 H   0  0  0  0  0  0
  -29.8390  -22.8488   20.0763 H   0  0  0  0  0  0
  -30.4055  -25.1575   19.3927 H   0  0  0  0  0  0
  -29.8533  -24.9119   17.7400 H   0  0  0  0  0  0
  -28.1655  -26.6504   17.9626 H   0  0  0  0  0  0
  -29.0527  -15.3132   21.0886 H   0  0  0  0  0  0
  -28.1980  -24.5884   20.1399 H   0  0  0  0  0  0
  -27.7215  -24.2482   18.6146 H   0  0  0  0  0  0
  1 25  1  0  0  0
  1 30  2  0  0  0
  1 84  1  0  0  0
  2  3  1  0  0  0
  2 25  1  0  0  0
  2 86  1  0  0  0
  2 87  1  0  0  0
  3  4  1  0  0  0
  3 88  1  0  0  0
  3 89  1  0  0  0
  4  5  1  0  0  0
  4 90  1  0  0  0
  4 91  1  0  0  0
  5  6  1  0  0  0
  5 26  1  0  0  0
  5 92  1  0  0  0
  6 25  1  0  0  0
  6 93  1  0  0  0
  6 94  1  0  0  0
  7  8  2  0  0  0
  7 26  1  0  0  0
  7 29  1  0  0  0
  8  9  1  0  0  0
  8 22  1  0  0  0
  9 10  1  0  0  0
  9 27  2  0  0  0
 10 11  2  0  0  0
 10 15  1  0  0  0
 11 12  1  0  0  0
 11 95  1  0  0  0
 12 13  2  0  0  0
 12 96  1  0  0  0
 13 14  1  0  0  0
 13 31  1  0  0  0
 14 15  2  0  0  0
 14 97  1  0  0  0
 15 98  1  0  0  0
 16 17  2  0  0  0
 16 21  1  0  0  0
 16 31  1  0  0  0
 17 18  1  0  0  0
 17 99  1  0  0  0
 18 19  2  0  0  0
 18100  1  0  0  0
 19 20  1  0  0  0
 19 24  1  0  0  0
 20 21  2  0  0  0
 20101  1  0  0  0
 21 23  1  0  0  0
 22 28  1  0  0  0
 22 32  2  0  0  0
 26 27  1  0  0  0
 28102  1  0  0  0
 28103  1  0  0  0
 29104  1  0  0  0
 29105  1  0  0  0
 33 34  1  0  0  0
 33 66  1  0  0  0
 33 70  2  0  0  0
 34 36  1  0  0  0
 34 59  1  0  0  0
 34106  1  0  0  0
 35 44  2  0  0  0
 35 45  1  0  0  0
 35 68  1  0  0  0
 36 56  1  0  0  0
 36107  1  0  0  0
 37 39  1  0  0  0
 37 47  1  0  0  0
 37 66  1  0  0  0
 37108  1  0  0  0
 38 43  2  0  0  0
 38 46  1  0  0  0
 38 47  1  0  0  0
 39 64  1  0  0  0
 39 67  2  0  0  0
 40 52  1  0  0  0
 40 53  2  0  0  0
 40 58  1  0  0  0
 41109  1  0  0  0
 41110  1  0  0  0
 41111  1  0  0  0
 41 48  1  0  0  0
 42 43  1  0  0  0
 42 66  1  0  0  0
 42112  1  0  0  0
 42113  1  0  0  0
 43 44  1  0  0  0
 44114  1  0  0  0
 45 46  2  0  0  0
 45115  1  0  0  0
 46116  1  0  0  0
 47117  1  0  0  0
 47118  1  0  0  0
 48 56  1  0  0  0
 48 65  1  0  0  0
 48119  1  0  0  0
 49 50  1  0  0  0
 49 53  1  0  0  0
 49 64  1  0  0  0
 49120  1  0  0  0
 50 51  1  0  0  0
 50121  1  0  0  0
 50122  1  0  0  0
 51 52  1  0  0  0
 51123  1  0  0  0
 51124  1  0  0  0
 52125  1  0  0  0
 52126  1  0  0  0
 53 54  1  0  0  0
 54 55  2  0  0  0
 54127  1  0  0  0
 55 57  1  0  0  0
 55128  1  0  0  0
 56 69  2  0  0  0
 57 58  2  0  0  0
 57129  1  0  0  0
 58130  1  0  0  0
 59 60  1  0  0  0
 59 61  1  0  0  0
 59 62  1  0  0  0
 60131  1  0  0  0
 60132  1  0  0  0
 60133  1  0  0  0
 61134  1  0  0  0
 61135  1  0  0  0
 61136  1  0  0  0
 62137  1  0  0  0
 62138  1  0  0  0
 62139  1  0  0  0
 63 65  1  0  0  0
 63140  1  0  0  0
 63141  1  0  0  0
 63142  1  0  0  0
 64143  1  0  0  0
 65144  1  0  0  0
 68 83  1  0  0  0
 71 72  2  0  0  0
 71 74  1  0  0  0
 71145  1  0  0  0
 72 75  1  0  0  0
 72146  1  0  0  0
 73 74  2  0  0  0
 73 76  1  0  0  0
 73147  1  0  0  0
 74 79  1  0  0  0
 75 76  2  0  0  0
 75 80  1  0  0  0
 76 77  1  0  0  0
 77148  1  0  0  0
 77149  1  0  0  0
 77150  1  0  0  0
 78151  1  0  0  0
 78152  1  0  0  0
 78153  1  0  0  0
 78 83  1  0  0  0
 79 81  1  0  0  0
 79154  1  0  0  0
 79155  1  0  0  0
 80 84  1  0  0  0
 80156  1  0  0  0
 80157  1  0  0  0
 81 85  1  0  0  0
 81158  1  0  0  0
 81159  1  0  0  0
 82 83  1  0  0  0
 82 85  1  0  0  0
 82160  1  0  0  0
 82161  1  0  0  0
 83162  1  0  0  0
 84163  1  0  0  0
 85164  1  0  0  0
 85165  1  0  0  0
M  CHG  1  85   1
M  ISO  4   1 100  68 101  83 101  84 100
M  END
> <chiral flag>
0

> <version>
0

> <s_m_source_file>
/data/baiqing/PycharmProjects/Reinvent-master-3.2/result/LINK_invent/BTK/process_docking_weight1_custom_sum_contain_oxygen_bond_distance_aromatic_linkinvent_7_9_3/rearranged_h_0117.sdf

> <i_m_source_file_index>
39

> <r_mmod_Potential_Energy-OPLS-2005>
-23.9080390930176

> <r_mmod_Stretch_Energy-OPLS-2005>
29.1371326446533

> <r_mmod_Bend_Energy-OPLS-2005>
296.28173828125

> <r_mmod_Torsional_Energy-OPLS-2005>
243.943222045898

> <r_mmod_Improper_Torsional_Energy-OPLS-2005>
11.1279153823853

> <r_mmod_Van_der_Waal_Energy-OPLS-2005>
162.322387695312

> <r_mmod_Electrostatic_Energy-OPLS-2005>
-345.135131835938

> <r_mmod_Solvation_Energy-OPLS-2005>
-434.213195800781

> <b_mmod_Minimization_Converged-OPLS-2005>
0

> <r_mmod_RMS_Derivative-OPLS-2005>
2.44809985160828

$$$$
39
                    3D
 Structure written by MMmdl.
165173  0  0  1  0            999 V2000
  -30.3957  -15.3221   20.3614 C   0  0  0  0  0  0
  -30.4427  -12.8531   19.5101 C   0  0  0  0  0  0
  -29.5387  -12.5804   18.2808 C   0  0  0  0  0  0
  -28.0880  -12.2956   18.7128 C   0  0  0  0  0  0
  -27.6071  -13.2755   19.8118 C   0  0  2  0  0  0
  -28.6424  -13.4697   20.9382 C   0  0  0  0  0  0
  -25.2374  -13.8239   20.5753 C   0  0  0  0  0  0
  -24.1741  -13.0430   20.9278 C   0  0  0  0  0  0
  -24.6389  -11.6930   20.8771 C   0  0  0  0  0  0
  -23.9088  -10.4285   21.0410 C   0  0  0  0  0  0
  -24.3635   -9.4200   21.9186 C   0  0  0  0  0  0
  -23.6296   -8.2243   22.0756 C   0  0  0  0  0  0
  -22.4271   -8.0285   21.3551 C   0  0  0  0  0  0
  -21.9909   -9.0268   20.4658 C   0  0  0  0  0  0
  -22.7251  -10.2138   20.3060 C   0  0  0  0  0  0
  -21.6846   -6.0738   22.5280 C   0  0  0  0  0  0
  -21.4023   -6.5643   23.8217 C   0  0  0  0  0  0
  -21.3658   -5.6791   24.9176 C   0  0  0  0  0  0
  -21.6040   -4.3056   24.7221 C   0  0  0  0  0  0
  -21.8822   -3.8148   23.4344 C   0  0  0  0  0  0
  -21.9189   -4.6967   22.3398 C   0  0  0  0  0  0
  -22.7756  -13.5194   21.1911 C   0  0  0  0  0  0
  -22.1656   -4.2153   21.0977 F   0  0  0  0  0  0
  -21.5622   -3.4535   25.7734 F   0  0  0  0  0  0
  -29.8567  -14.0018   20.2960 N   0  0  0  0  0  0
  -26.2797  -12.9511   20.3174 N   0  0  0  0  0  0
  -25.9322  -11.6623   20.5697 N   0  0  0  0  0  0
  -22.0399  -12.8199   22.0459 N   0  0  0  0  0  0
  -25.3992  -15.1977   20.4202 N   0  0  0  0  0  0
  -31.6292  -15.3320   20.2329 O   0  0  0  0  0  0
  -21.6637   -6.8883   21.4240 O   0  0  0  0  0  0
  -22.3455  -14.5497   20.6737 O   0  0  0  0  0  0
  -24.6652  -31.8201   23.1679 C   0  0  0  0  0  0
  -25.9326  -32.4568   23.8150 C   0  0  1  0  0  0
  -27.2138  -26.8951   20.1945 C   0  0  0  0  0  0
  -25.5990  -33.8381   24.2065 N   0  0  0  0  0  0
  -23.4809  -30.4306   21.5187 C   0  0  2  0  0  0
  -24.9320  -28.8060   20.1209 C   0  0  0  0  0  0
  -22.7685  -29.4420   22.4789 C   0  0  0  0  0  0
  -18.0321  -28.1411   22.8460 C   0  0  0  0  0  0
  -24.1498  -36.7194   23.2646 C   0  0  0  0  0  0
  -26.0510  -30.6178   21.4006 C   0  0  0  0  0  0
  -26.1190  -29.2020   20.7502 C   0  0  0  0  0  0
  -27.2574  -28.2710   20.7529 C   0  0  0  0  0  0
  -25.9938  -26.6529   19.5263 C   0  0  0  0  0  0
  -24.8960  -27.5527   19.4877 C   0  0  0  0  0  0
  -23.7227  -29.7415   20.1478 C   0  0  0  0  0  0
  -25.4138  -36.2952   24.0298 C   0  0  1  0  0  0
  -20.5947  -28.3745   23.1189 C   0  0  2  0  0  0
  -20.6799  -26.9430   22.5400 C   0  0  0  0  0  0
  -19.5772  -26.6372   21.5211 C   0  0  0  0  0  0
  -18.1954  -26.7940   22.1618 C   0  0  0  0  0  0
  -19.1586  -28.8902   23.2803 C   0  0  0  0  0  0
  -18.9493  -30.1490   23.8839 C   0  0  0  0  0  0
  -17.6486  -30.6593   24.0556 C   0  0  0  0  0  0
  -25.9099  -34.9337   23.5000 C   0  0  0  0  0  0
  -16.5375  -29.9079   23.6350 C   0  0  0  0  0  0
  -16.7302  -28.6504   23.0357 C   0  0  0  0  0  0
  -26.4582  -31.6511   25.0677 C   0  0  0  0  0  0
  -25.3714  -31.3771   26.1341 C   0  0  0  0  0  0
  -27.0487  -30.2878   24.6412 C   0  0  0  0  0  0
  -27.6070  -32.4324   25.7485 C   0  0  0  0  0  0
  -27.5568  -37.1759   24.8475 C   0  0  0  0  0  0
  -21.4351  -29.3027   22.3541 N   0  0  0  0  0  0
  -26.4290  -37.3686   23.9401 N   0  0  0  0  0  0
  -24.7542  -30.9838   22.0833 N   0  0  0  0  0  0
  -23.4221  -28.7997   23.3041 O   0  0  0  0  0  0
  -28.2399  -25.8044   20.1717 O   0  0  0  0  0  0
  -26.5704  -34.8878   22.4594 O   0  0  0  0  0  0
  -23.5712  -32.1182   23.6755 O   0  0  0  0  0  0
  -30.8229  -19.1911   20.5202 C   0  0  0  0  0  0
  -30.4223  -20.7520   20.7575 C   0  0  0  0  0  0
  -28.5688  -19.5356   20.0408 C   0  0  0  0  0  0
  -29.5750  -18.2592   20.6288 C   0  0  1  0  0  0
  -30.7187  -24.0364   18.5317 C   0  0  0  0  0  0
  -30.7636  -21.8354   17.2750 C   0  0  0  0  0  0
  -29.5909  -23.8004   16.3257 C   0  0  0  0  0  0
  -28.5717  -22.6287   18.3013 C   0  0  0  0  0  0
  -28.1525  -24.1852   20.5779 C   0  0  0  0  0  0
  -28.4450  -22.5315   19.8485 C   0  0  2  0  0  0
  -29.9126  -23.0677   17.6447 C   0  0  0  0  0  0
  -29.5791  -16.5756   20.3695 N   0  0  0  0  0  0
  -28.9690  -21.0414   20.4782 N   0  3  2  0  0  0
  -31.4551  -13.0811   19.1728 H   0  0  0  0  0  0
  -30.5359  -11.9608   20.1316 H   0  0  0  0  0  0
  -29.9305  -11.7458   17.6970 H   0  0  0  0  0  0
  -29.5563  -13.4511   17.6226 H   0  0  0  0  0  0
  -28.0519  -11.2738   19.0938 H   0  0  0  0  0  0
  -27.4204  -12.3256   17.8507 H   0  0  0  0  0  0
  -27.5124  -14.2358   19.3030 H   0  0  0  0  0  0
  -28.8318  -12.5381   21.4731 H   0  0  0  0  0  0
  -28.2752  -14.1840   21.6772 H   0  0  0  0  0  0
  -25.2779   -9.5667   22.4761 H   0  0  0  0  0  0
  -23.9995   -7.4631   22.7477 H   0  0  0  0  0  0
  -21.0835   -8.8808   19.8965 H   0  0  0  0  0  0
  -22.3720  -10.9688   19.6179 H   0  0  0  0  0  0
  -21.2021   -7.6154   23.9721 H   0  0  0  0  0  0
  -21.1475   -6.0522   25.9080 H   0  0  0  0  0  0
  -22.0591   -2.7610   23.2841 H   0  0  0  0  0  0
  -22.4003  -11.9881   22.4889 H   0  0  0  0  0  0
  -21.1016  -13.1231   22.2653 H   0  0  0  0  0  0
  -24.6223  -15.8393   20.5346 H   0  0  0  0  0  0
  -26.2262  -15.6409   20.0455 H   0  0  0  0  0  0
  -26.7393  -32.5114   23.0860 H   0  0  0  0  0  0
  -25.0130  -33.9456   25.0215 H   0  0  0  0  0  0
  -22.7932  -31.2615   21.3453 H   0  0  0  0  0  0
  -23.3760  -35.9525   23.3300 H   0  0  0  0  0  0
  -24.3563  -36.8841   22.2060 H   0  0  0  0  0  0
  -23.7259  -37.6385   23.6701 H   0  0  0  0  0  0
  -26.2298  -31.3548   20.6161 H   0  0  0  0  0  0
  -26.9112  -30.6813   22.0554 H   0  0  0  0  0  0
  -28.1646  -28.5803   21.2526 H   0  0  0  0  0  0
  -25.8680  -25.6985   19.0348 H   0  0  0  0  0  0
  -23.9967  -27.2463   18.9706 H   0  0  0  0  0  0
  -23.8856  -30.5066   19.3880 H   0  0  0  0  0  0
  -22.8310  -29.1992   19.8281 H   0  0  0  0  0  0
  -25.1338  -36.1753   25.0789 H   0  0  0  0  0  0
  -21.0022  -28.3351   24.1317 H   0  0  0  0  0  0
  -20.5680  -26.2365   23.3636 H   0  0  0  0  0  0
  -21.6662  -26.7407   22.1208 H   0  0  0  0  0  0
  -19.6929  -25.6271   21.1265 H   0  0  0  0  0  0
  -19.6714  -27.3167   20.6730 H   0  0  0  0  0  0
  -17.4226  -26.6677   21.4021 H   0  0  0  0  0  0
  -18.0349  -26.0100   22.9031 H   0  0  0  0  0  0
  -19.7966  -30.7326   24.2178 H   0  0  0  0  0  0
  -17.5032  -31.6269   24.5165 H   0  0  0  0  0  0
  -15.5370  -30.2955   23.7705 H   0  0  0  0  0  0
  -15.8704  -28.0803   22.7092 H   0  0  0  0  0  0
  -24.5915  -30.7093   25.7662 H   0  0  0  0  0  0
  -24.8892  -32.2976   26.4630 H   0  0  0  0  0  0
  -25.7954  -30.9037   27.0203 H   0  0  0  0  0  0
  -26.3165  -29.6542   24.1394 H   0  0  0  0  0  0
  -27.4001  -29.7244   25.5064 H   0  0  0  0  0  0
  -27.9105  -30.4054   23.9844 H   0  0  0  0  0  0
  -27.2636  -33.3672   26.1923 H   0  0  0  0  0  0
  -28.3956  -32.6799   25.0370 H   0  0  0  0  0  0
  -28.0654  -31.8543   26.5515 H   0  0  0  0  0  0
  -28.2590  -38.0051   24.7481 H   0  0  0  0  0  0
  -28.1060  -36.2567   24.6359 H   0  0  0  0  0  0
  -27.2273  -37.1478   25.8879 H   0  0  0  0  0  0
  -20.9615  -29.8719   21.6666 H   0  0  0  0  0  0
  -26.0133  -38.2747   24.1389 H   0  0  0  0  0  0
  -31.2552  -19.0824   19.5252 H   0  0  0  0  0  0
  -31.6000  -18.8860   21.2205 H   0  0  0  0  0  0
  -31.0794  -21.4157   20.2024 H   0  0  0  0  0  0
  -30.5875  -21.0005   21.8067 H   0  0  0  0  0  0
  -28.5882  -19.5060   18.9513 H   0  0  0  0  0  0
  -27.5315  -19.3516   20.3197 H   0  0  0  0  0  0
  -29.3445  -18.2582   21.6947 H   0  0  0  0  0  0
  -31.6620  -24.3134   18.0591 H   0  0  0  0  0  0
  -30.9624  -23.6127   19.5041 H   0  0  0  0  0  0
  -30.1735  -24.9649   18.7002 H   0  0  0  0  0  0
  -31.7572  -22.1261   16.9344 H   0  0  0  0  0  0
  -30.3050  -21.2637   16.4677 H   0  0  0  0  0  0
  -30.8942  -21.1432   18.0988 H   0  0  0  0  0  0
  -30.4988  -24.0770   15.7870 H   0  0  0  0  0  0
  -29.0290  -24.7193   16.5005 H   0  0  0  0  0  0
  -28.9931  -23.1796   15.6570 H   0  0  0  0  0  0
  -27.8036  -23.3434   17.9981 H   0  0  0  0  0  0
  -28.2388  -21.6937   17.8495 H   0  0  0  0  0  0
  -28.7906  -24.1631   21.4612 H   0  0  0  0  0  0
  -27.1517  -24.1114   21.0049 H   0  0  0  0  0  0
  -27.3996  -22.2249   19.9044 H   0  0  0  0  0  0
  -28.6174  -16.2808   20.2917 H   0  0  0  0  0  0
  -28.5831  -21.0820   21.4107 H   0  0  0  0  0  0
  1 25  1  0  0  0
  1 30  2  0  0  0
  1 82  1  0  0  0
  2  3  1  0  0  0
  2 25  1  0  0  0
  2 84  1  0  0  0
  2 85  1  0  0  0
  3  4  1  0  0  0
  3 86  1  0  0  0
  3 87  1  0  0  0
  4  5  1  0  0  0
  4 88  1  0  0  0
  4 89  1  0  0  0
  5  6  1  0  0  0
  5 26  1  0  0  0
  5 90  1  0  0  0
  6 25  1  0  0  0
  6 91  1  0  0  0
  6 92  1  0  0  0
  7  8  2  0  0  0
  7 26  1  0  0  0
  7 29  1  0  0  0
  8  9  1  0  0  0
  8 22  1  0  0  0
  9 10  1  0  0  0
  9 27  2  0  0  0
 10 11  2  0  0  0
 10 15  1  0  0  0
 11 12  1  0  0  0
 11 93  1  0  0  0
 12 13  2  0  0  0
 12 94  1  0  0  0
 13 14  1  0  0  0
 13 31  1  0  0  0
 14 15  2  0  0  0
 14 95  1  0  0  0
 15 96  1  0  0  0
 16 17  2  0  0  0
 16 21  1  0  0  0
 16 31  1  0  0  0
 17 18  1  0  0  0
 17 97  1  0  0  0
 18 19  2  0  0  0
 18 98  1  0  0  0
 19 20  1  0  0  0
 19 24  1  0  0  0
 20 21  2  0  0  0
 20 99  1  0  0  0
 21 23  1  0  0  0
 22 28  1  0  0  0
 22 32  2  0  0  0
 26 27  1  0  0  0
 28100  1  0  0  0
 28101  1  0  0  0
 29102  1  0  0  0
 29103  1  0  0  0
 33 34  1  0  0  0
 33 66  1  0  0  0
 33 70  2  0  0  0
 34 36  1  0  0  0
 34 59  1  0  0  0
 34104  1  0  0  0
 35 44  2  0  0  0
 35 45  1  0  0  0
 35 68  1  0  0  0
 36 56  1  0  0  0
 36105  1  0  0  0
 37 39  1  0  0  0
 37 47  1  0  0  0
 37 66  1  0  0  0
 37106  1  0  0  0
 38 43  2  0  0  0
 38 46  1  0  0  0
 38 47  1  0  0  0
 39 64  1  0  0  0
 39 67  2  0  0  0
 40 52  1  0  0  0
 40 53  2  0  0  0
 40 58  1  0  0  0
 41107  1  0  0  0
 41108  1  0  0  0
 41109  1  0  0  0
 41 48  1  0  0  0
 42 43  1  0  0  0
 42 66  1  0  0  0
 42110  1  0  0  0
 42111  1  0  0  0
 43 44  1  0  0  0
 44112  1  0  0  0
 45 46  2  0  0  0
 45113  1  0  0  0
 46114  1  0  0  0
 47115  1  0  0  0
 47116  1  0  0  0
 48 56  1  0  0  0
 48 65  1  0  0  0
 48117  1  0  0  0
 49 50  1  0  0  0
 49 53  1  0  0  0
 49 64  1  0  0  0
 49118  1  0  0  0
 50 51  1  0  0  0
 50119  1  0  0  0
 50120  1  0  0  0
 51 52  1  0  0  0
 51121  1  0  0  0
 51122  1  0  0  0
 52123  1  0  0  0
 52124  1  0  0  0
 53 54  1  0  0  0
 54 55  2  0  0  0
 54125  1  0  0  0
 55 57  1  0  0  0
 55126  1  0  0  0
 56 69  2  0  0  0
 57 58  2  0  0  0
 57127  1  0  0  0
 58128  1  0  0  0
 59 60  1  0  0  0
 59 61  1  0  0  0
 59 62  1  0  0  0
 60129  1  0  0  0
 60130  1  0  0  0
 60131  1  0  0  0
 61132  1  0  0  0
 61133  1  0  0  0
 61134  1  0  0  0
 62135  1  0  0  0
 62136  1  0  0  0
 62137  1  0  0  0
 63 65  1  0  0  0
 63138  1  0  0  0
 63139  1  0  0  0
 63140  1  0  0  0
 64141  1  0  0  0
 65142  1  0  0  0
 68 79  1  0  0  0
 71 72  1  0  0  0
 71 74  1  0  0  0
 71143  1  0  0  0
 71144  1  0  0  0
 72145  1  0  0  0
 72146  1  0  0  0
 72 83  1  0  0  0
 73 74  1  0  0  0
 73 83  1  0  0  0
 73147  1  0  0  0
 73148  1  0  0  0
 74 82  1  0  0  0
 74149  1  0  0  0
 75150  1  0  0  0
 75151  1  0  0  0
 75152  1  0  0  0
 75 81  1  0  0  0
 76 81  1  0  0  0
 76153  1  0  0  0
 76154  1  0  0  0
 76155  1  0  0  0
 77 81  1  0  0  0
 77156  1  0  0  0
 77157  1  0  0  0
 77158  1  0  0  0
 78 81  1  0  0  0
 78159  1  0  0  0
 78160  1  0  0  0
 78 80  1  0  0  0
 79 80  1  0  0  0
 79161  1  0  0  0
 79162  1  0  0  0
 80 83  1  0  0  0
 80163  1  0  0  0
 82164  1  0  0  0
 83165  1  0  0  0
M  CHG  1  83   1
M  ISO  4   1 100  68 101  79 101  82 100
M  END
> <chiral flag>
0

> <version>
0

> <s_m_source_file>
/data/baiqing/PycharmProjects/Reinvent-master-3.2/result/LINK_invent/BTK/process_docking_weight1_custom_sum_contain_oxygen_bond_distance_aromatic_linkinvent_7_9_3/rearranged_h_0117.sdf

> <i_m_source_file_index>
40

> <r_mmod_Potential_Energy-OPLS-2005>
1486.69213867188

> <r_mmod_Stretch_Energy-OPLS-2005>
631.727416992188

> <r_mmod_Bend_Energy-OPLS-2005>
603.32568359375

> <r_mmod_Torsional_Energy-OPLS-2005>
321.774200439453

> <r_mmod_Improper_Torsional_Energy-OPLS-2005>
4.44419384002686

> <r_mmod_Van_der_Waal_Energy-OPLS-2005>
100.814399719238

> <r_mmod_Electrostatic_Energy-OPLS-2005>
-239.517242431641

> <r_mmod_Solvation_Energy-OPLS-2005>
-446.306030273438

> <b_mmod_Minimization_Converged-OPLS-2005>
0

> <r_mmod_RMS_Derivative-OPLS-2005>
1.80808854103088

$$$$
40
                    3D
 Structure written by MMmdl.
162171  0  0  1  0            999 V2000
  -30.5046  -14.9954   20.4208 C   0  0  0  0  0  0
  -30.4451  -12.6242   19.4893 C   0  0  0  0  0  0
  -29.5196  -12.5249   18.2549 C   0  0  0  0  0  0
  -28.0560  -12.3022   18.6843 C   0  0  0  0  0  0
  -27.6239  -13.2463   19.8353 C   0  0  2  0  0  0
  -28.6702  -13.2881   20.9665 C   0  0  0  0  0  0
  -25.2439  -13.8206   20.5743 C   0  0  0  0  0  0
  -24.1765  -13.0437   20.9245 C   0  0  0  0  0  0
  -24.6370  -11.6906   20.8762 C   0  0  0  0  0  0
  -23.9048  -10.4280   21.0406 C   0  0  0  0  0  0
  -24.3590   -9.4195   21.9194 C   0  0  0  0  0  0
  -23.6270   -8.2234   22.0760 C   0  0  0  0  0  0
  -22.4265   -8.0261   21.3538 C   0  0  0  0  0  0
  -21.9893   -9.0232   20.4646 C   0  0  0  0  0  0
  -22.7210  -10.2113   20.3057 C   0  0  0  0  0  0
  -21.6847   -6.0712   22.5264 C   0  0  0  0  0  0
  -21.4008   -6.5625   23.8194 C   0  0  0  0  0  0
  -21.3666   -5.6787   24.9168 C   0  0  0  0  0  0
  -21.6043   -4.3046   24.7231 C   0  0  0  0  0  0
  -21.8821   -3.8125   23.4354 C   0  0  0  0  0  0
  -21.9189   -4.6939   22.3397 C   0  0  0  0  0  0
  -22.7783  -13.5198   21.1897 C   0  0  0  0  0  0
  -22.1659   -4.2114   21.0980 F   0  0  0  0  0  0
  -21.5637   -3.4536   25.7753 F   0  0  0  0  0  0
  -29.9286  -13.7259   20.3498 N   0  0  0  0  0  0
  -26.2858  -12.9436   20.3255 N   0  0  0  0  0  0
  -25.9301  -11.6565   20.5760 N   0  0  0  0  0  0
  -22.0424  -12.8184   22.0440 N   0  0  0  0  0  0
  -25.4114  -15.1939   20.4154 N   0  0  0  0  0  0
  -31.7244  -15.0658   20.2354 O   0  0  0  0  0  0
  -21.6637   -6.8849   21.4228 O   0  0  0  0  0  0
  -22.3462  -14.5504   20.6733 O   0  0  0  0  0  0
  -24.6539  -31.8374   23.1831 C   0  0  0  0  0  0
  -25.9283  -32.4636   23.8240 C   0  0  1  0  0  0
  -27.2094  -27.0936   20.1421 C   0  0  0  0  0  0
  -25.6000  -33.8440   24.2160 N   0  0  0  0  0  0
  -23.4554  -30.4592   21.5287 C   0  0  2  0  0  0
  -24.8990  -28.8769   20.1067 C   0  0  0  0  0  0
  -22.7626  -29.4515   22.4807 C   0  0  0  0  0  0
  -18.0322  -28.1347   22.8462 C   0  0  0  0  0  0
  -24.1508  -36.7258   23.2636 C   0  0  0  0  0  0
  -26.0164  -30.6942   21.3843 C   0  0  0  0  0  0
  -26.0817  -29.3037   20.7234 C   0  0  0  0  0  0
  -27.2364  -28.4303   20.7188 C   0  0  0  0  0  0
  -25.9887  -26.7690   19.5055 C   0  0  0  0  0  0
  -24.8685  -27.6234   19.4812 C   0  0  0  0  0  0
  -23.6833  -29.7890   20.1476 C   0  0  0  0  0  0
  -25.4128  -36.2981   24.0290 C   0  0  1  0  0  0
  -20.5942  -28.3682   23.1206 C   0  0  2  0  0  0
  -20.6787  -26.9376   22.5392 C   0  0  0  0  0  0
  -19.5767  -26.6353   21.5181 C   0  0  0  0  0  0
  -18.1947  -26.7888   22.1594 C   0  0  0  0  0  0
  -19.1591  -28.8830   23.2820 C   0  0  0  0  0  0
  -18.9497  -30.1414   23.8855 C   0  0  0  0  0  0
  -17.6500  -30.6550   24.0544 C   0  0  0  0  0  0
  -25.9087  -34.9358   23.5036 C   0  0  0  0  0  0
  -16.5384  -29.9048   23.6329 C   0  0  0  0  0  0
  -16.7305  -28.6463   23.0351 C   0  0  0  0  0  0
  -26.4572  -31.6522   25.0718 C   0  0  0  0  0  0
  -25.3759  -31.3690   26.1429 C   0  0  0  0  0  0
  -27.0428  -30.2902   24.6311 C   0  0  0  0  0  0
  -27.6079  -32.4322   25.7518 C   0  0  0  0  0  0
  -27.5570  -37.1765   24.8452 C   0  0  0  0  0  0
  -21.4306  -29.3029   22.3595 N   0  0  0  0  0  0
  -26.4273  -37.3703   23.9409 N   0  0  0  0  0  0
  -24.7294  -31.0205   22.0862 N   0  0  0  0  0  0
  -23.4267  -28.8050   23.2946 O   0  0  0  0  0  0
  -28.2644  -26.1005   20.2227 O   0  0  0  0  0  0
  -26.5692  -34.8872   22.4627 O   0  0  0  0  0  0
  -23.5657  -32.1258   23.7046 O   0  0  0  0  0  0
  -29.1411  -20.4126   20.6767 C   0  0  0  0  0  0
  -30.4206  -20.3119   18.3310 C   0  0  0  0  0  0
  -29.3045  -21.7552   20.0292 C   0  0  0  0  0  0
  -30.0849  -21.5944   18.8387 C   0  0  0  0  0  0
  -29.6379  -19.1060   20.1526 C   0  0  0  0  0  0
  -29.5012  -24.2529   22.5532 C   0  0  0  0  0  0
  -28.4960  -23.1783   22.1528 C   0  0  0  0  0  0
  -30.2622  -23.8660   21.2875 C   0  0  0  0  0  0
  -28.9661  -23.2892   20.6739 C   0  0  0  0  0  0
  -30.7205  -22.7512   18.0799 C   0  0  0  0  0  0
  -28.1855  -24.4750   18.3736 C   0  0  0  0  0  0
  -29.8999  -17.6757   20.9489 C   0  0  0  0  0  0
  -28.1124  -24.5620   19.9009 C   0  0  2  0  0  0
  -30.2109  -19.1240   18.9400 N   0  0  0  0  0  0
  -29.6914  -16.1653   20.5004 N   0  0  0  0  0  0
  -31.4731  -12.8058   19.1735 H   0  0  0  0  0  0
  -30.4620  -11.6830   20.0416 H   0  0  0  0  0  0
  -29.8441  -11.7107   17.6057 H   0  0  0  0  0  0
  -29.5939  -13.4388   17.6637 H   0  0  0  0  0  0
  -27.9693  -11.2670   19.0159 H   0  0  0  0  0  0
  -27.3835  -12.4042   17.8319 H   0  0  0  0  0  0
  -27.5802  -14.2438   19.3963 H   0  0  0  0  0  0
  -28.7815  -12.3114   21.4414 H   0  0  0  0  0  0
  -28.3681  -13.9807   21.7538 H   0  0  0  0  0  0
  -25.2722   -9.5687   22.4779 H   0  0  0  0  0  0
  -23.9965   -7.4640   22.7497 H   0  0  0  0  0  0
  -21.0816   -8.8738   19.8963 H   0  0  0  0  0  0
  -22.3645  -10.9651   19.6169 H   0  0  0  0  0  0
  -21.1994   -7.6132   23.9680 H   0  0  0  0  0  0
  -21.1495   -6.0529   25.9069 H   0  0  0  0  0  0
  -22.0594   -2.7583   23.2869 H   0  0  0  0  0  0
  -22.4039  -11.9828   22.4799 H   0  0  0  0  0  0
  -21.1045  -13.1203   22.2671 H   0  0  0  0  0  0
  -24.6406  -15.8446   20.5248 H   0  0  0  0  0  0
  -26.2462  -15.6295   20.0475 H   0  0  0  0  0  0
  -26.7351  -32.5219   23.0963 H   0  0  0  0  0  0
  -25.0102  -33.9525   25.0277 H   0  0  0  0  0  0
  -22.7615  -31.2870   21.3698 H   0  0  0  0  0  0
  -23.3744  -35.9606   23.3265 H   0  0  0  0  0  0
  -24.3603  -36.8964   22.2060 H   0  0  0  0  0  0
  -23.7304  -37.6450   23.6726 H   0  0  0  0  0  0
  -26.1793  -31.4398   20.6050 H   0  0  0  0  0  0
  -26.8888  -30.7416   22.0260 H   0  0  0  0  0  0
  -28.1404  -28.7495   21.2189 H   0  0  0  0  0  0
  -25.8434  -25.8052   19.0471 H   0  0  0  0  0  0
  -23.9621  -27.2859   18.9967 H   0  0  0  0  0  0
  -23.8361  -30.5651   19.3955 H   0  0  0  0  0  0
  -22.7947  -29.2402   19.8282 H   0  0  0  0  0  0
  -25.1310  -36.1777   25.0765 H   0  0  0  0  0  0
  -21.0017  -28.3264   24.1328 H   0  0  0  0  0  0
  -20.5612  -26.2297   23.3615 H   0  0  0  0  0  0
  -21.6657  -26.7331   22.1219 H   0  0  0  0  0  0
  -19.6919  -25.6272   21.1195 H   0  0  0  0  0  0
  -19.6702  -27.3163   20.6721 H   0  0  0  0  0  0
  -17.4230  -26.6658   21.3998 H   0  0  0  0  0  0
  -18.0327  -25.9998   22.8968 H   0  0  0  0  0  0
  -19.7986  -30.7215   24.2223 H   0  0  0  0  0  0
  -17.5071  -31.6228   24.5158 H   0  0  0  0  0  0
  -15.5382  -30.2933   23.7654 H   0  0  0  0  0  0
  -15.8718  -28.0763   22.7071 H   0  0  0  0  0  0
  -24.6024  -30.6906   25.7828 H   0  0  0  0  0  0
  -24.8834  -32.2821   26.4761 H   0  0  0  0  0  0
  -25.8096  -30.9020   27.0282 H   0  0  0  0  0  0
  -26.3020  -29.6623   24.1339 H   0  0  0  0  0  0
  -27.4042  -29.7209   25.4892 H   0  0  0  0  0  0
  -27.8941  -30.4124   23.9610 H   0  0  0  0  0  0
  -27.2657  -33.3682   26.1949 H   0  0  0  0  0  0
  -28.3965  -32.6787   25.0400 H   0  0  0  0  0  0
  -28.0644  -31.8547   26.5577 H   0  0  0  0  0  0
  -28.2517  -38.0125   24.7540 H   0  0  0  0  0  0
  -28.1131  -36.2649   24.6221 H   0  0  0  0  0  0
  -27.2300  -37.1355   25.8855 H   0  0  0  0  0  0
  -20.9521  -29.8871   21.6872 H   0  0  0  0  0  0
  -26.0129  -38.2742   24.1477 H   0  0  0  0  0  0
  -28.6869  -20.3711   21.6552 H   0  0  0  0  0  0
  -30.9900  -20.2354   17.4150 H   0  0  0  0  0  0
  -30.0371  -24.0662   23.4849 H   0  0  0  0  0  0
  -29.0899  -25.2634   22.5203 H   0  0  0  0  0  0
  -27.4533  -23.4552   22.3275 H   0  0  0  0  0  0
  -28.7321  -22.2379   22.6483 H   0  0  0  0  0  0
  -31.0278  -23.1101   21.4653 H   0  0  0  0  0  0
  -30.6658  -24.7180   20.7398 H   0  0  0  0  0  0
  -30.1539  -22.9817   17.1794 H   0  0  0  0  0  0
  -31.7223  -22.4769   17.7467 H   0  0  0  0  0  0
  -30.8444  -23.6515   18.6788 H   0  0  0  0  0  0
  -29.1341  -24.8709   18.0177 H   0  0  0  0  0  0
  -27.4167  -25.0537   17.8696 H   0  0  0  0  0  0
  -28.0630  -23.4462   18.0404 H   0  0  0  0  0  0
  -29.3536  -17.7744   21.8857 H   0  0  0  0  0  0
  -30.9468  -17.7335   21.2479 H   0  0  0  0  0  0
  -27.0720  -24.3342   20.1335 H   0  0  0  0  0  0
  -28.7120  -15.9398   20.4472 H   0  0  0  0  0  0
  1 25  1  0  0  0
  1 30  2  0  0  0
  1 85  1  0  0  0
  2  3  1  0  0  0
  2 25  1  0  0  0
  2 86  1  0  0  0
  2 87  1  0  0  0
  3  4  1  0  0  0
  3 88  1  0  0  0
  3 89  1  0  0  0
  4  5  1  0  0  0
  4 90  1  0  0  0
  4 91  1  0  0  0
  5  6  1  0  0  0
  5 26  1  0  0  0
  5 92  1  0  0  0
  6 25  1  0  0  0
  6 93  1  0  0  0
  6 94  1  0  0  0
  7  8  2  0  0  0
  7 26  1  0  0  0
  7 29  1  0  0  0
  8  9  1  0  0  0
  8 22  1  0  0  0
  9 10  1  0  0  0
  9 27  2  0  0  0
 10 11  2  0  0  0
 10 15  1  0  0  0
 11 12  1  0  0  0
 11 95  1  0  0  0
 12 13  2  0  0  0
 12 96  1  0  0  0
 13 14  1  0  0  0
 13 31  1  0  0  0
 14 15  2  0  0  0
 14 97  1  0  0  0
 15 98  1  0  0  0
 16 17  2  0  0  0
 16 21  1  0  0  0
 16 31  1  0  0  0
 17 18  1  0  0  0
 17 99  1  0  0  0
 18 19  2  0  0  0
 18100  1  0  0  0
 19 20  1  0  0  0
 19 24  1  0  0  0
 20 21  2  0  0  0
 20101  1  0  0  0
 21 23  1  0  0  0
 22 28  1  0  0  0
 22 32  2  0  0  0
 26 27  1  0  0  0
 28102  1  0  0  0
 28103  1  0  0  0
 29104  1  0  0  0
 29105  1  0  0  0
 33 34  1  0  0  0
 33 66  1  0  0  0
 33 70  2  0  0  0
 34 36  1  0  0  0
 34 59  1  0  0  0
 34106  1  0  0  0
 35 44  2  0  0  0
 35 45  1  0  0  0
 35 68  1  0  0  0
 36 56  1  0  0  0
 36107  1  0  0  0
 37 39  1  0  0  0
 37 47  1  0  0  0
 37 66  1  0  0  0
 37108  1  0  0  0
 38 43  2  0  0  0
 38 46  1  0  0  0
 38 47  1  0  0  0
 39 64  1  0  0  0
 39 67  2  0  0  0
 40 52  1  0  0  0
 40 53  2  0  0  0
 40 58  1  0  0  0
 41109  1  0  0  0
 41110  1  0  0  0
 41111  1  0  0  0
 41 48  1  0  0  0
 42 43  1  0  0  0
 42 66  1  0  0  0
 42112  1  0  0  0
 42113  1  0  0  0
 43 44  1  0  0  0
 44114  1  0  0  0
 45 46  2  0  0  0
 45115  1  0  0  0
 46116  1  0  0  0
 47117  1  0  0  0
 47118  1  0  0  0
 48 56  1  0  0  0
 48 65  1  0  0  0
 48119  1  0  0  0
 49 50  1  0  0  0
 49 53  1  0  0  0
 49 64  1  0  0  0
 49120  1  0  0  0
 50 51  1  0  0  0
 50121  1  0  0  0
 50122  1  0  0  0
 51 52  1  0  0  0
 51123  1  0  0  0
 51124  1  0  0  0
 52125  1  0  0  0
 52126  1  0  0  0
 53 54  1  0  0  0
 54 55  2  0  0  0
 54127  1  0  0  0
 55 57  1  0  0  0
 55128  1  0  0  0
 56 69  2  0  0  0
 57 58  2  0  0  0
 57129  1  0  0  0
 58130  1  0  0  0
 59 60  1  0  0  0
 59 61  1  0  0  0
 59 62  1  0  0  0
 60131  1  0  0  0
 60132  1  0  0  0
 60133  1  0  0  0
 61134  1  0  0  0
 61135  1  0  0  0
 61136  1  0  0  0
 62137  1  0  0  0
 62138  1  0  0  0
 62139  1  0  0  0
 63 65  1  0  0  0
 63140  1  0  0  0
 63141  1  0  0  0
 63142  1  0  0  0
 64143  1  0  0  0
 65144  1  0  0  0
 68 83  1  0  0  0
 71 73  2  0  0  0
 71 75  1  0  0  0
 71145  1  0  0  0
 72 74  2  0  0  0
 72 84  1  0  0  0
 72146  1  0  0  0
 73 74  1  0  0  0
 73 79  1  0  0  0
 74 80  1  0  0  0
 75 82  1  0  0  0
 75 84  2  0  0  0
 76 77  1  0  0  0
 76 78  1  0  0  0
 76147  1  0  0  0
 76148  1  0  0  0
 77 79  1  0  0  0
 77149  1  0  0  0
 77150  1  0  0  0
 78 79  1  0  0  0
 78151  1  0  0  0
 78152  1  0  0  0
 79 83  1  0  0  0
 80153  1  0  0  0
 80154  1  0  0  0
 80155  1  0  0  0
 81156  1  0  0  0
 81157  1  0  0  0
 81158  1  0  0  0
 81 83  1  0  0  0
 82 85  1  0  0  0
 82159  1  0  0  0
 82160  1  0  0  0
 83161  1  0  0  0
 85162  1  0  0  0
M  ISO  4   1 100  68 101  83 101  85 100
M  END
> <chiral flag>
0

> <version>
0

> <s_m_source_file>
/data/baiqing/PycharmProjects/Reinvent-master-3.2/result/LINK_invent/BTK/process_docking_weight1_custom_sum_contain_oxygen_bond_distance_aromatic_linkinvent_7_9_3/rearranged_h_0117.sdf

> <i_m_source_file_index>
41

> <r_mmod_Potential_Energy-OPLS-2005>
459.974700927734

> <r_mmod_Stretch_Energy-OPLS-2005>
309.177642822266

> <r_mmod_Bend_Energy-OPLS-2005>
320.070739746094

> <r_mmod_Torsional_Energy-OPLS-2005>
261.738677978516

> <r_mmod_Improper_Torsional_Energy-OPLS-2005>
8.68060207366943

> <r_mmod_Van_der_Waal_Energy-OPLS-2005>
143.644805908203

> <r_mmod_Electrostatic_Energy-OPLS-2005>
-586.653137207031

> <r_mmod_Solvation_Energy-OPLS-2005>
-229.319152832031

> <b_mmod_Minimization_Converged-OPLS-2005>
0

> <r_mmod_RMS_Derivative-OPLS-2005>
3.54209232330322

$$$$
41
                    3D
 Structure written by MMmdl.
161169  0  0  1  0            999 V2000
  -30.6077  -14.7573   20.4477 C   0  0  0  0  0  0
  -30.4333  -12.4592   19.4837 C   0  0  0  0  0  0
  -29.5132  -12.5090   18.2432 C   0  0  0  0  0  0
  -28.0391  -12.3324   18.6546 C   0  0  0  0  0  0
  -27.6433  -13.2334   19.8550 C   0  0  2  0  0  0
  -28.6870  -13.1733   20.9932 C   0  0  0  0  0  0
  -25.2512  -13.8199   20.5704 C   0  0  0  0  0  0
  -24.1804  -13.0441   20.9213 C   0  0  0  0  0  0
  -24.6398  -11.6920   20.8751 C   0  0  0  0  0  0
  -23.9075  -10.4294   21.0408 C   0  0  0  0  0  0
  -24.3624   -9.4207   21.9183 C   0  0  0  0  0  0
  -23.6298   -8.2243   22.0752 C   0  0  0  0  0  0
  -22.4279   -8.0283   21.3543 C   0  0  0  0  0  0
  -21.9917   -9.0258   20.4645 C   0  0  0  0  0  0
  -22.7248  -10.2136   20.3056 C   0  0  0  0  0  0
  -21.6855   -6.0737   22.5278 C   0  0  0  0  0  0
  -21.4014   -6.5639   23.8211 C   0  0  0  0  0  0
  -21.3659   -5.6791   24.9173 C   0  0  0  0  0  0
  -21.6046   -4.3055   24.7224 C   0  0  0  0  0  0
  -21.8819   -3.8147   23.4344 C   0  0  0  0  0  0
  -21.9194   -4.6964   22.3401 C   0  0  0  0  0  0
  -22.7823  -13.5219   21.1870 C   0  0  0  0  0  0
  -22.1661   -4.2150   21.0978 F   0  0  0  0  0  0
  -21.5630   -3.4538   25.7736 F   0  0  0  0  0  0
  -29.9901  -13.5249   20.4153 N   0  0  0  0  0  0
  -26.2944  -12.9410   20.3302 N   0  0  0  0  0  0
  -25.9331  -11.6551   20.5767 N   0  0  0  0  0  0
  -22.0468  -12.8204   22.0421 N   0  0  0  0  0  0
  -25.4196  -15.1924   20.4114 N   0  0  0  0  0  0
  -31.7868  -14.8547   20.0977 O   0  0  0  0  0  0
  -21.6642   -6.8881   21.4240 O   0  0  0  0  0  0
  -22.3508  -14.5527   20.6721 O   0  0  0  0  0  0
  -24.6326  -31.8541   23.1980 C   0  0  0  0  0  0
  -25.9147  -32.4749   23.8327 C   0  0  1  0  0  0
  -27.2177  -27.2463   20.1301 C   0  0  0  0  0  0
  -25.5939  -33.8552   24.2250 N   0  0  0  0  0  0
  -23.4299  -30.4774   21.5412 C   0  0  2  0  0  0
  -24.8776  -28.9249   20.1074 C   0  0  0  0  0  0
  -22.7508  -29.4596   22.4900 C   0  0  0  0  0  0
  -18.0293  -28.1385   22.8483 C   0  0  0  0  0  0
  -24.1490  -36.7278   23.2638 C   0  0  0  0  0  0
  -25.9774  -30.7621   21.3812 C   0  0  0  0  0  0
  -26.0493  -29.3840   20.7219 C   0  0  0  0  0  0
  -27.2204  -28.5568   20.7234 C   0  0  0  0  0  0
  -26.0256  -26.8681   19.4706 C   0  0  0  0  0  0
  -24.8723  -27.6760   19.4697 C   0  0  0  0  0  0
  -23.6491  -29.8132   20.1565 C   0  0  0  0  0  0
  -25.4117  -36.3064   24.0325 C   0  0  1  0  0  0
  -20.5898  -28.3700   23.1264 C   0  0  2  0  0  0
  -20.6780  -26.9415   22.5406 C   0  0  0  0  0  0
  -19.5756  -26.6381   21.5209 C   0  0  0  0  0  0
  -18.1936  -26.7929   22.1619 C   0  0  0  0  0  0
  -19.1546  -28.8860   23.2870 C   0  0  0  0  0  0
  -18.9468  -30.1460   23.8890 C   0  0  0  0  0  0
  -17.6467  -30.6588   24.0561 C   0  0  0  0  0  0
  -25.9061  -34.9436   23.5091 C   0  0  0  0  0  0
  -16.5358  -29.9083   23.6331 C   0  0  0  0  0  0
  -16.7280  -28.6500   23.0354 C   0  0  0  0  0  0
  -26.4507  -31.6580   25.0724 C   0  0  0  0  0  0
  -25.3723  -31.3738   26.1441 C   0  0  0  0  0  0
  -27.0354  -30.2990   24.6229 C   0  0  0  0  0  0
  -27.6061  -32.4323   25.7493 C   0  0  0  0  0  0
  -27.5582  -37.1791   24.8461 C   0  0  0  0  0  0
  -21.4212  -29.3046   22.3647 N   0  0  0  0  0  0
  -26.4287  -37.3770   23.9416 N   0  0  0  0  0  0
  -24.6990  -31.0496   22.0962 N   0  0  0  0  0  0
  -23.4202  -28.8135   23.3003 O   0  0  0  0  0  0
  -28.3027  -26.3341   20.2139 O   0  0  0  0  0  0
  -26.5634  -34.8915   22.4661 O   0  0  0  0  0  0
  -23.5474  -32.1367   23.7270 O   0  0  0  0  0  0
  -29.5611  -18.6239   22.2296 C   0  0  0  0  0  0
  -29.0844  -21.0214   22.2037 C   0  0  0  0  0  0
  -29.2954  -19.8252   22.9286 C   0  0  0  0  0  0
  -29.6466  -18.6361   20.8280 C   0  0  0  0  0  0
  -29.1509  -21.0299   20.7996 C   0  0  0  0  0  0
  -30.0857  -17.3016   20.0744 C   0  0  0  0  0  0
  -29.0280  -23.6902   20.5728 C   0  0  0  0  0  0
  -28.0842  -24.8599   19.9508 C   0  0  0  0  0  0
  -30.4466  -19.2518   25.1681 C   0  0  0  0  0  0
  -29.1998  -19.8393   24.4524 C   0  0  2  0  0  0
  -29.4303  -19.8361   20.1423 N   0  0  0  0  0  0
  -28.8895  -22.2534   20.0692 N   0  0  0  0  0  0
  -29.8344  -15.8943   20.6298 N   0  0  0  0  0  0
  -27.9684  -19.1473   24.8437 N   0  3  0  0  0  0
  -31.5744  -20.1183   25.1122 O   0  0  0  0  0  0
  -31.4749  -12.5798   19.1809 H   0  0  0  0  0  0
  -30.3770  -11.4832   19.9681 H   0  0  0  0  0  0
  -29.7972  -11.7339   17.5299 H   0  0  0  0  0  0
  -29.6403  -13.4621   17.7271 H   0  0  0  0  0  0
  -27.8967  -11.2838   18.9187 H   0  0  0  0  0  0
  -27.3826  -12.5233   17.8050 H   0  0  0  0  0  0
  -27.6362  -14.2541   19.4723 H   0  0  0  0  0  0
  -28.7221  -12.1777   21.4379 H   0  0  0  0  0  0
  -28.4205  -13.8591   21.7991 H   0  0  0  0  0  0
  -25.2769   -9.5681   22.4758 H   0  0  0  0  0  0
  -24.0007   -7.4633   22.7470 H   0  0  0  0  0  0
  -21.0849   -8.8779   19.8949 H   0  0  0  0  0  0
  -22.3708  -10.9676   19.6165 H   0  0  0  0  0  0
  -21.2004   -7.6147   23.9714 H   0  0  0  0  0  0
  -21.1481   -6.0522   25.9076 H   0  0  0  0  0  0
  -22.0599   -2.7610   23.2845 H   0  0  0  0  0  0
  -22.4088  -11.9862   22.4800 H   0  0  0  0  0  0
  -21.1082  -13.1218   22.2620 H   0  0  0  0  0  0
  -24.6483  -15.8428   20.5159 H   0  0  0  0  0  0
  -26.2590  -15.6308   20.0553 H   0  0  0  0  0  0
  -26.7210  -32.5394   23.1065 H   0  0  0  0  0  0
  -25.0085  -33.9689   25.0395 H   0  0  0  0  0  0
  -22.7272  -31.3006   21.3954 H   0  0  0  0  0  0
  -23.3761  -35.9599   23.3280 H   0  0  0  0  0  0
  -24.3585  -36.8923   22.2057 H   0  0  0  0  0  0
  -23.7231  -37.6466   23.6678 H   0  0  0  0  0  0
  -26.1197  -31.5230   20.6124 H   0  0  0  0  0  0
  -26.8537  -30.8101   22.0161 H   0  0  0  0  0  0
  -28.1138  -28.9005   21.2259 H   0  0  0  0  0  0
  -25.9503  -25.9203   18.9597 H   0  0  0  0  0  0
  -23.9778  -27.3230   18.9751 H   0  0  0  0  0  0
  -23.7752  -30.5909   19.4023 H   0  0  0  0  0  0
  -22.7670  -29.2485   19.8495 H   0  0  0  0  0  0
  -25.1297  -36.1904   25.0817 H   0  0  0  0  0  0
  -20.9995  -28.3282   24.1383 H   0  0  0  0  0  0
  -20.5674  -26.2312   23.3613 H   0  0  0  0  0  0
  -21.6650  -26.7433   22.1206 H   0  0  0  0  0  0
  -19.6919  -25.6289   21.1248 H   0  0  0  0  0  0
  -19.6697  -27.3184   20.6734 H   0  0  0  0  0  0
  -17.4207  -26.6679   21.4020 H   0  0  0  0  0  0
  -18.0335  -26.0067   22.9012 H   0  0  0  0  0  0
  -19.7943  -30.7278   24.2256 H   0  0  0  0  0  0
  -17.5020  -31.6268   24.5162 H   0  0  0  0  0  0
  -15.5359  -30.2984   23.7659 H   0  0  0  0  0  0
  -15.8679  -28.0818   22.7075 H   0  0  0  0  0  0
  -24.5911  -30.7070   25.7773 H   0  0  0  0  0  0
  -24.8900  -32.2908   26.4835 H   0  0  0  0  0  0
  -25.8037  -30.8942   27.0236 H   0  0  0  0  0  0
  -26.2941  -29.6731   24.1247 H   0  0  0  0  0  0
  -27.4015  -29.7263   25.4761 H   0  0  0  0  0  0
  -27.8830  -30.4251   23.9489 H   0  0  0  0  0  0
  -27.2675  -33.3642   26.2035 H   0  0  0  0  0  0
  -28.3887  -32.6852   25.0327 H   0  0  0  0  0  0
  -28.0708  -31.8467   26.5436 H   0  0  0  0  0  0
  -28.2579  -38.0109   24.7535 H   0  0  0  0  0  0
  -28.1099  -36.2641   24.6248 H   0  0  0  0  0  0
  -27.2308  -37.1393   25.8865 H   0  0  0  0  0  0
  -20.9397  -29.8773   21.6856 H   0  0  0  0  0  0
  -26.0160  -38.2837   24.1434 H   0  0  0  0  0  0
  -29.7381  -17.6963   22.7564 H   0  0  0  0  0  0
  -28.8568  -21.9258   22.7483 H   0  0  0  0  0  0
  -31.1554  -17.4029   19.8880 H   0  0  0  0  0  0
  -29.6237  -17.3296   19.0872 H   0  0  0  0  0  0
  -28.9098  -23.7148   21.6542 H   0  0  0  0  0  0
  -30.0651  -23.9744   20.3932 H   0  0  0  0  0  0
  -27.0778  -24.6004   20.2798 H   0  0  0  0  0  0
  -28.0843  -24.7443   18.8665 H   0  0  0  0  0  0
  -30.7110  -18.2694   24.7757 H   0  0  0  0  0  0
  -30.2224  -19.1056   26.2253 H   0  0  0  0  0  0
  -29.0811  -20.8717   24.7860 H   0  0  0  0  0  0
  -28.9082  -22.1595   19.0590 H   0  0  0  0  0  0
  -28.8913  -15.7320   20.9453 H   0  0  0  0  0  0
  -28.0077  -18.1828   24.5733 H   0  0  0  0  0  0
  -27.1930  -19.5785   24.3761 H   0  0  0  0  0  0
  -27.8275  -19.2137   25.8343 H   0  0  0  0  0  0
  -31.8243  -20.2158   24.1969 H   0  0  0  0  0  0
  1 25  1  0  0  0
  1 30  2  0  0  0
  1 83  1  0  0  0
  2  3  1  0  0  0
  2 25  1  0  0  0
  2 86  1  0  0  0
  2 87  1  0  0  0
  3  4  1  0  0  0
  3 88  1  0  0  0
  3 89  1  0  0  0
  4  5  1  0  0  0
  4 90  1  0  0  0
  4 91  1  0  0  0
  5  6  1  0  0  0
  5 26  1  0  0  0
  5 92  1  0  0  0
  6 25  1  0  0  0
  6 93  1  0  0  0
  6 94  1  0  0  0
  7  8  2  0  0  0
  7 26  1  0  0  0
  7 29  1  0  0  0
  8  9  1  0  0  0
  8 22  1  0  0  0
  9 10  1  0  0  0
  9 27  2  0  0  0
 10 11  2  0  0  0
 10 15  1  0  0  0
 11 12  1  0  0  0
 11 95  1  0  0  0
 12 13  2  0  0  0
 12 96  1  0  0  0
 13 14  1  0  0  0
 13 31  1  0  0  0
 14 15  2  0  0  0
 14 97  1  0  0  0
 15 98  1  0  0  0
 16 17  2  0  0  0
 16 21  1  0  0  0
 16 31  1  0  0  0
 17 18  1  0  0  0
 17 99  1  0  0  0
 18 19  2  0  0  0
 18100  1  0  0  0
 19 20  1  0  0  0
 19 24  1  0  0  0
 20 21  2  0  0  0
 20101  1  0  0  0
 21 23  1  0  0  0
 22 28  1  0  0  0
 22 32  2  0  0  0
 26 27  1  0  0  0
 28102  1  0  0  0
 28103  1  0  0  0
 29104  1  0  0  0
 29105  1  0  0  0
 33 34  1  0  0  0
 33 66  1  0  0  0
 33 70  2  0  0  0
 34 36  1  0  0  0
 34 59  1  0  0  0
 34106  1  0  0  0
 35 44  2  0  0  0
 35 45  1  0  0  0
 35 68  1  0  0  0
 36 56  1  0  0  0
 36107  1  0  0  0
 37 39  1  0  0  0
 37 47  1  0  0  0
 37 66  1  0  0  0
 37108  1  0  0  0
 38 43  2  0  0  0
 38 46  1  0  0  0
 38 47  1  0  0  0
 39 64  1  0  0  0
 39 67  2  0  0  0
 40 52  1  0  0  0
 40 53  2  0  0  0
 40 58  1  0  0  0
 41109  1  0  0  0
 41110  1  0  0  0
 41111  1  0  0  0
 41 48  1  0  0  0
 42 43  1  0  0  0
 42 66  1  0  0  0
 42112  1  0  0  0
 42113  1  0  0  0
 43 44  1  0  0  0
 44114  1  0  0  0
 45 46  2  0  0  0
 45115  1  0  0  0
 46116  1  0  0  0
 47117  1  0  0  0
 47118  1  0  0  0
 48 56  1  0  0  0
 48 65  1  0  0  0
 48119  1  0  0  0
 49 50  1  0  0  0
 49 53  1  0  0  0
 49 64  1  0  0  0
 49120  1  0  0  0
 50 51  1  0  0  0
 50121  1  0  0  0
 50122  1  0  0  0
 51 52  1  0  0  0
 51123  1  0  0  0
 51124  1  0  0  0
 52125  1  0  0  0
 52126  1  0  0  0
 53 54  1  0  0  0
 54 55  2  0  0  0
 54127  1  0  0  0
 55 57  1  0  0  0
 55128  1  0  0  0
 56 69  2  0  0  0
 57 58  2  0  0  0
 57129  1  0  0  0
 58130  1  0  0  0
 59 60  1  0  0  0
 59 61  1  0  0  0
 59 62  1  0  0  0
 60131  1  0  0  0
 60132  1  0  0  0
 60133  1  0  0  0
 61134  1  0  0  0
 61135  1  0  0  0
 61136  1  0  0  0
 62137  1  0  0  0
 62138  1  0  0  0
 62139  1  0  0  0
 63 65  1  0  0  0
 63140  1  0  0  0
 63141  1  0  0  0
 63142  1  0  0  0
 64143  1  0  0  0
 65144  1  0  0  0
 68 78  1  0  0  0
 71 73  2  0  0  0
 71 74  1  0  0  0
 71145  1  0  0  0
 72 73  1  0  0  0
 72 75  2  0  0  0
 72146  1  0  0  0
 73 80  1  0  0  0
 74 76  1  0  0  0
 74 81  2  0  0  0
 75 81  1  0  0  0
 75 82  1  0  0  0
 76 83  1  0  0  0
 76147  1  0  0  0
 76148  1  0  0  0
 77 78  1  0  0  0
 77 82  1  0  0  0
 77149  1  0  0  0
 77150  1  0  0  0
 78151  1  0  0  0
 78152  1  0  0  0
 79 80  1  0  0  0
 79 85  1  0  0  0
 79153  1  0  0  0
 79154  1  0  0  0
 80 84  1  0  0  0
 80155  1  0  0  0
 82156  1  0  0  0
 83157  1  0  0  0
 84158  1  0  0  0
 84159  1  0  0  0
 84160  1  0  0  0
 85161  1  0  0  0
M  CHG  1  84   1
M  ISO  4   1 100  68 101  78 101  83 100
M  END
> <chiral flag>
0

> <version>
0

> <s_m_source_file>
/data/baiqing/PycharmProjects/Reinvent-master-3.2/result/LINK_invent/BTK/process_docking_weight1_custom_sum_contain_oxygen_bond_distance_aromatic_linkinvent_7_9_3/rearranged_h_0117.sdf

> <i_m_source_file_index>
42

> <r_mmod_Potential_Energy-OPLS-2005>
-562.671630859375

> <r_mmod_Stretch_Energy-OPLS-2005>
127.2529296875

> <r_mmod_Bend_Energy-OPLS-2005>
176.252502441406

> <r_mmod_Torsional_Energy-OPLS-2005>
190.839080810547

> <r_mmod_Improper_Torsional_Energy-OPLS-2005>
7.93965864181519

> <r_mmod_Van_der_Waal_Energy-OPLS-2005>
142.245315551758

> <r_mmod_Electrostatic_Energy-OPLS-2005>
-712.458251953125

> <r_mmod_Solvation_Energy-OPLS-2005>
-588.577758789062

> <b_mmod_Minimization_Converged-OPLS-2005>
0

> <r_mmod_RMS_Derivative-OPLS-2005>
0.311694592237473

$$$$
42
                    3D
 Structure written by MMmdl.
165173  0  0  1  0            999 V2000
  -30.6811  -14.5611   20.4723 C   0  0  0  0  0  0
  -30.4314  -12.3353   19.4487 C   0  0  0  0  0  0
  -29.5012  -12.4419   18.2224 C   0  0  0  0  0  0
  -28.0186  -12.3375   18.6368 C   0  0  0  0  0  0
  -27.6550  -13.2205   19.8637 C   0  0  2  0  0  0
  -28.7055  -13.0693   20.9853 C   0  0  0  0  0  0
  -25.2568  -13.8208   20.5749 C   0  0  0  0  0  0
  -24.1828  -13.0432   20.9263 C   0  0  0  0  0  0
  -24.6412  -11.6941   20.8831 C   0  0  0  0  0  0
  -23.9086  -10.4294   21.0465 C   0  0  0  0  0  0
  -24.3619   -9.4187   21.9232 C   0  0  0  0  0  0
  -23.6282   -8.2215   22.0754 C   0  0  0  0  0  0
  -22.4262   -8.0294   21.3539 C   0  0  0  0  0  0
  -21.9906   -9.0287   20.4645 C   0  0  0  0  0  0
  -22.7251  -10.2175   20.3098 C   0  0  0  0  0  0
  -21.6826   -6.0753   22.5300 C   0  0  0  0  0  0
  -21.3984   -6.5648   23.8235 C   0  0  0  0  0  0
  -21.3644   -5.6804   24.9196 C   0  0  0  0  0  0
  -21.6042   -4.3072   24.7245 C   0  0  0  0  0  0
  -21.8790   -3.8163   23.4363 C   0  0  0  0  0  0
  -21.9160   -4.6979   22.3421 C   0  0  0  0  0  0
  -22.7829  -13.5228   21.1908 C   0  0  0  0  0  0
  -22.1640   -4.2163   21.1004 F   0  0  0  0  0  0
  -21.5629   -3.4553   25.7752 F   0  0  0  0  0  0
  -30.0238  -13.3697   20.4127 N   0  0  0  0  0  0
  -26.3009  -12.9403   20.3361 N   0  0  0  0  0  0
  -25.9331  -11.6576   20.5822 N   0  0  0  0  0  0
  -22.0447  -12.8240   22.0511 N   0  0  0  0  0  0
  -25.4217  -15.1926   20.4175 N   0  0  0  0  0  0
  -31.8453  -14.6848   20.0910 O   0  0  0  0  0  0
  -21.6592   -6.8915   21.4271 O   0  0  0  0  0  0
  -22.3520  -14.5520   20.6750 O   0  0  0  0  0  0
  -24.6061  -31.8679   23.2024 C   0  0  0  0  0  0
  -25.8936  -32.4785   23.8365 C   0  0  1  0  0  0
  -27.2342  -27.4003   20.0894 C   0  0  0  0  0  0
  -25.5823  -33.8597   24.2308 N   0  0  0  0  0  0
  -23.4041  -30.4850   21.5452 C   0  0  2  0  0  0
  -24.8555  -28.9467   20.1138 C   0  0  0  0  0  0
  -22.7440  -29.4622   22.4979 C   0  0  0  0  0  0
  -18.0274  -28.1389   22.8477 C   0  0  0  0  0  0
  -24.1538  -36.7340   23.2641 C   0  0  0  0  0  0
  -25.9407  -30.8102   21.3777 C   0  0  0  0  0  0
  -26.0149  -29.4404   20.7254 C   0  0  0  0  0  0
  -27.2083  -28.6744   20.7139 C   0  0  0  0  0  0
  -26.0583  -26.9401   19.4594 C   0  0  0  0  0  0
  -24.8748  -27.6963   19.4750 C   0  0  0  0  0  0
  -23.6175  -29.8148   20.1634 C   0  0  0  0  0  0
  -25.4126  -36.3102   24.0369 C   0  0  1  0  0  0
  -20.5845  -28.3689   23.1343 C   0  0  2  0  0  0
  -20.6758  -26.9413   22.5437 C   0  0  0  0  0  0
  -19.5748  -26.6379   21.5241 C   0  0  0  0  0  0
  -18.1928  -26.7924   22.1629 C   0  0  0  0  0  0
  -19.1504  -28.8859   23.2885 C   0  0  0  0  0  0
  -18.9421  -30.1481   23.8875 C   0  0  0  0  0  0
  -17.6412  -30.6571   24.0598 C   0  0  0  0  0  0
  -25.9038  -34.9460   23.5170 C   0  0  0  0  0  0
  -16.5314  -29.9072   23.6322 C   0  0  0  0  0  0
  -16.7264  -28.6499   23.0320 C   0  0  0  0  0  0
  -26.4353  -31.6479   25.0659 C   0  0  0  0  0  0
  -25.3607  -31.3626   26.1434 C   0  0  0  0  0  0
  -26.9994  -30.2859   24.5955 C   0  0  0  0  0  0
  -27.5956  -32.4148   25.7392 C   0  0  0  0  0  0
  -27.5654  -37.1806   24.8521 C   0  0  0  0  0  0
  -21.4152  -29.3083   22.3795 N   0  0  0  0  0  0
  -26.4370  -37.3760   23.9412 N   0  0  0  0  0  0
  -24.6653  -31.0775   22.0921 N   0  0  0  0  0  0
  -23.4231  -28.8117   23.2974 O   0  0  0  0  0  0
  -28.3858  -26.6295   20.0628 O   0  0  0  0  0  0
  -26.5585  -34.8936   22.4713 O   0  0  0  0  0  0
  -23.5260  -32.1444   23.7396 O   0  0  0  0  0  0
  -28.7327  -18.0854   21.9787 C   0  0  0  0  0  0
  -28.2987  -20.4648   21.8900 C   0  0  0  0  0  0
  -28.1006  -19.2205   22.5261 C   0  0  0  0  0  0
  -29.5563  -18.2290   20.8477 C   0  0  0  0  0  0
  -29.1451  -20.5453   20.7663 C   0  0  0  0  0  0
  -25.9039  -21.1662   24.3915 C   0  0  0  0  0  0
  -27.0778  -19.8436   26.1807 C   0  0  0  0  0  0
  -27.2297  -19.0632   23.7703 C   0  0  0  0  0  0
  -30.3238  -17.0289   20.2633 C   0  0  0  0  0  0
  -29.3179  -24.2615   19.9652 C   0  0  0  0  0  0
  -28.2348  -25.2519   20.4923 C   0  0  0  0  0  0
  -29.4321  -22.9636   20.8257 C   0  0  0  0  0  0
  -27.1350  -20.2935   24.7133 C   0  0  0  0  0  0
  -29.7501  -19.4418   20.2527 N   0  0  0  0  0  0
  -29.9291  -15.6637   20.7058 N   0  0  0  0  0  0
  -29.3759  -21.7285   20.0743 O   0  0  0  0  0  0
  -31.4725  -12.4406   19.1377 H   0  0  0  0  0  0
  -30.3633  -11.3512   19.9074 H   0  0  0  0  0  0
  -29.7365  -11.6495   17.5099 H   0  0  0  0  0  0
  -29.6827  -13.3825   17.7059 H   0  0  0  0  0  0
  -27.8160  -11.2927   18.8727 H   0  0  0  0  0  0
  -27.3730  -12.5765   17.7903 H   0  0  0  0  0  0
  -27.6761  -14.2543   19.5229 H   0  0  0  0  0  0
  -28.6926  -12.0475   21.3661 H   0  0  0  0  0  0
  -28.4786  -13.7122   21.8361 H   0  0  0  0  0  0
  -25.2771   -9.5620   22.4822 H   0  0  0  0  0  0
  -23.9956   -7.4579   22.7460 H   0  0  0  0  0  0
  -21.0805   -8.8859   19.8958 H   0  0  0  0  0  0
  -22.3738  -10.9739   19.6223 H   0  0  0  0  0  0
  -21.1977   -7.6155   23.9746 H   0  0  0  0  0  0
  -21.1494   -6.0541   25.9105 H   0  0  0  0  0  0
  -22.0575   -2.7622   23.2877 H   0  0  0  0  0  0
  -22.3980  -11.9899   22.4945 H   0  0  0  0  0  0
  -21.1069  -13.1324   22.2673 H   0  0  0  0  0  0
  -24.6655  -15.8499   20.5816 H   0  0  0  0  0  0
  -26.2519  -15.6367   20.0471 H   0  0  0  0  0  0
  -26.6921  -32.5554   23.1056 H   0  0  0  0  0  0
  -24.9838  -33.9802   25.0342 H   0  0  0  0  0  0
  -22.6886  -31.2964   21.4001 H   0  0  0  0  0  0
  -23.3797  -35.9702   23.3299 H   0  0  0  0  0  0
  -24.3644  -36.8949   22.2041 H   0  0  0  0  0  0
  -23.7294  -37.6539   23.6695 H   0  0  0  0  0  0
  -26.0851  -31.5684   20.6067 H   0  0  0  0  0  0
  -26.8155  -30.8544   22.0128 H   0  0  0  0  0  0
  -28.0994  -29.0482   21.1989 H   0  0  0  0  0  0
  -26.0520  -26.0030   18.9247 H   0  0  0  0  0  0
  -23.9916  -27.3159   18.9784 H   0  0  0  0  0  0
  -23.7285  -30.5823   19.3971 H   0  0  0  0  0  0
  -22.7440  -29.2311   19.8734 H   0  0  0  0  0  0
  -25.1281  -36.1985   25.0859 H   0  0  0  0  0  0
  -20.9927  -28.3228   24.1468 H   0  0  0  0  0  0
  -20.5686  -26.2274   23.3602 H   0  0  0  0  0  0
  -21.6640  -26.7470   22.1239 H   0  0  0  0  0  0
  -19.6943  -25.6295   21.1267 H   0  0  0  0  0  0
  -19.6698  -27.3202   20.6783 H   0  0  0  0  0  0
  -17.4198  -26.6642   21.4030 H   0  0  0  0  0  0
  -18.0332  -26.0105   22.9056 H   0  0  0  0  0  0
  -19.7894  -30.7317   24.2222 H   0  0  0  0  0  0
  -17.4955  -31.6230   24.5265 H   0  0  0  0  0  0
  -15.5307  -30.2974   23.7611 H   0  0  0  0  0  0
  -15.8683  -28.0832   22.7003 H   0  0  0  0  0  0
  -24.5793  -30.6878   25.7837 H   0  0  0  0  0  0
  -24.8680  -32.2741   26.4696 H   0  0  0  0  0  0
  -25.7967  -30.9023   27.0318 H   0  0  0  0  0  0
  -26.2547  -29.6950   24.0570 H   0  0  0  0  0  0
  -27.3355  -29.6698   25.4331 H   0  0  0  0  0  0
  -27.8591  -30.4110   23.9389 H   0  0  0  0  0  0
  -27.2537  -33.3415   26.2029 H   0  0  0  0  0  0
  -28.3699  -32.6837   25.0200 H   0  0  0  0  0  0
  -28.0660  -31.8293   26.5319 H   0  0  0  0  0  0
  -28.2627  -38.0153   24.7619 H   0  0  0  0  0  0
  -28.1206  -36.2672   24.6350 H   0  0  0  0  0  0
  -27.2344  -37.1405   25.8917 H   0  0  0  0  0  0
  -20.9325  -29.8964   21.7135 H   0  0  0  0  0  0
  -26.0321  -38.2909   24.1245 H   0  0  0  0  0  0
  -28.5968  -17.1182   22.4407 H   0  0  0  0  0  0
  -27.7796  -21.3306   22.2581 H   0  0  0  0  0  0
  -25.8971  -22.0771   24.9960 H   0  0  0  0  0  0
  -24.9794  -20.6271   24.5967 H   0  0  0  0  0  0
  -25.8728  -21.4649   23.3424 H   0  0  0  0  0  0
  -27.0432  -20.6905   26.8675 H   0  0  0  0  0  0
  -27.9496  -19.2388   26.4418 H   0  0  0  0  0  0
  -26.1955  -19.2301   26.3684 H   0  0  0  0  0  0
  -27.6503  -18.2257   24.3257 H   0  0  0  0  0  0
  -26.2369  -18.7277   23.4652 H   0  0  0  0  0  0
  -31.3803  -17.1984   20.4761 H   0  0  0  0  0  0
  -30.2171  -17.0714   19.1783 H   0  0  0  0  0  0
  -30.2851  -24.7643   19.9578 H   0  0  0  0  0  0
  -29.1149  -24.0060   18.9228 H   0  0  0  0  0  0
  -28.2654  -25.2729   21.5812 H   0  0  0  0  0  0
  -27.2659  -24.8159   20.2421 H   0  0  0  0  0  0
  -28.6774  -23.0282   21.6023 H   0  0  0  0  0  0
  -30.3853  -22.9649   21.3604 H   0  0  0  0  0  0
  -28.0376  -20.9023   24.6150 H   0  0  0  0  0  0
  -28.9734  -15.5462   21.0008 H   0  0  0  0  0  0
  1 25  1  0  0  0
  1 30  2  0  0  0
  1 85  1  0  0  0
  2  3  1  0  0  0
  2 25  1  0  0  0
  2 87  1  0  0  0
  2 88  1  0  0  0
  3  4  1  0  0  0
  3 89  1  0  0  0
  3 90  1  0  0  0
  4  5  1  0  0  0
  4 91  1  0  0  0
  4 92  1  0  0  0
  5  6  1  0  0  0
  5 26  1  0  0  0
  5 93  1  0  0  0
  6 25  1  0  0  0
  6 94  1  0  0  0
  6 95  1  0  0  0
  7  8  2  0  0  0
  7 26  1  0  0  0
  7 29  1  0  0  0
  8  9  1  0  0  0
  8 22  1  0  0  0
  9 10  1  0  0  0
  9 27  2  0  0  0
 10 11  2  0  0  0
 10 15  1  0  0  0
 11 12  1  0  0  0
 11 96  1  0  0  0
 12 13  2  0  0  0
 12 97  1  0  0  0
 13 14  1  0  0  0
 13 31  1  0  0  0
 14 15  2  0  0  0
 14 98  1  0  0  0
 15 99  1  0  0  0
 16 17  2  0  0  0
 16 21  1  0  0  0
 16 31  1  0  0  0
 17 18  1  0  0  0
 17100  1  0  0  0
 18 19  2  0  0  0
 18101  1  0  0  0
 19 20  1  0  0  0
 19 24  1  0  0  0
 20 21  2  0  0  0
 20102  1  0  0  0
 21 23  1  0  0  0
 22 28  1  0  0  0
 22 32  2  0  0  0
 26 27  1  0  0  0
 28103  1  0  0  0
 28104  1  0  0  0
 29105  1  0  0  0
 29106  1  0  0  0
 33 34  1  0  0  0
 33 66  1  0  0  0
 33 70  2  0  0  0
 34 36  1  0  0  0
 34 59  1  0  0  0
 34107  1  0  0  0
 35 44  2  0  0  0
 35 45  1  0  0  0
 35 68  1  0  0  0
 36 56  1  0  0  0
 36108  1  0  0  0
 37 39  1  0  0  0
 37 47  1  0  0  0
 37 66  1  0  0  0
 37109  1  0  0  0
 38 43  2  0  0  0
 38 46  1  0  0  0
 38 47  1  0  0  0
 39 64  1  0  0  0
 39 67  2  0  0  0
 40 52  1  0  0  0
 40 53  2  0  0  0
 40 58  1  0  0  0
 41110  1  0  0  0
 41111  1  0  0  0
 41112  1  0  0  0
 41 48  1  0  0  0
 42 43  1  0  0  0
 42 66  1  0  0  0
 42113  1  0  0  0
 42114  1  0  0  0
 43 44  1  0  0  0
 44115  1  0  0  0
 45 46  2  0  0  0
 45116  1  0  0  0
 46117  1  0  0  0
 47118  1  0  0  0
 47119  1  0  0  0
 48 56  1  0  0  0
 48 65  1  0  0  0
 48120  1  0  0  0
 49 50  1  0  0  0
 49 53  1  0  0  0
 49 64  1  0  0  0
 49121  1  0  0  0
 50 51  1  0  0  0
 50122  1  0  0  0
 50123  1  0  0  0
 51 52  1  0  0  0
 51124  1  0  0  0
 51125  1  0  0  0
 52126  1  0  0  0
 52127  1  0  0  0
 53 54  1  0  0  0
 54 55  2  0  0  0
 54128  1  0  0  0
 55 57  1  0  0  0
 55129  1  0  0  0
 56 69  2  0  0  0
 57 58  2  0  0  0
 57130  1  0  0  0
 58131  1  0  0  0
 59 60  1  0  0  0
 59 61  1  0  0  0
 59 62  1  0  0  0
 60132  1  0  0  0
 60133  1  0  0  0
 60134  1  0  0  0
 61135  1  0  0  0
 61136  1  0  0  0
 61137  1  0  0  0
 62138  1  0  0  0
 62139  1  0  0  0
 62140  1  0  0  0
 63 65  1  0  0  0
 63141  1  0  0  0
 63142  1  0  0  0
 63143  1  0  0  0
 64144  1  0  0  0
 65145  1  0  0  0
 68 81  1  0  0  0
 71 73  2  0  0  0
 71 74  1  0  0  0
 71146  1  0  0  0
 72 73  1  0  0  0
 72 75  2  0  0  0
 72147  1  0  0  0
 73 78  1  0  0  0
 74 79  1  0  0  0
 74 84  2  0  0  0
 75 84  1  0  0  0
 75 86  1  0  0  0
 76148  1  0  0  0
 76149  1  0  0  0
 76150  1  0  0  0
 76 83  1  0  0  0
 77 83  1  0  0  0
 77151  1  0  0  0
 77152  1  0  0  0
 77153  1  0  0  0
 78 83  1  0  0  0
 78154  1  0  0  0
 78155  1  0  0  0
 79 85  1  0  0  0
 79156  1  0  0  0
 79157  1  0  0  0
 80 81  1  0  0  0
 80 82  1  0  0  0
 80158  1  0  0  0
 80159  1  0  0  0
 81160  1  0  0  0
 81161  1  0  0  0
 82 86  1  0  0  0
 82162  1  0  0  0
 82163  1  0  0  0
 83164  1  0  0  0
 85165  1  0  0  0
M  ISO  4   1 100  68 101  81 101  85 100
M  END
> <chiral flag>
0

> <version>
0

> <s_m_source_file>
/data/baiqing/PycharmProjects/Reinvent-master-3.2/result/LINK_invent/BTK/process_docking_weight1_custom_sum_contain_oxygen_bond_distance_aromatic_linkinvent_7_9_3/rearranged_h_0117.sdf

> <i_m_source_file_index>
43

> <r_mmod_Potential_Energy-OPLS-2005>
-249.984573364258

> <r_mmod_Stretch_Energy-OPLS-2005>
47.214672088623

> <r_mmod_Bend_Energy-OPLS-2005>
109.538841247559

> <r_mmod_Torsional_Energy-OPLS-2005>
246.158401489258

> <r_mmod_Improper_Torsional_Energy-OPLS-2005>
7.03510665893555

> <r_mmod_Van_der_Waal_Energy-OPLS-2005>
162.746551513672

> <r_mmod_Electrostatic_Energy-OPLS-2005>
-630.927673339844

> <r_mmod_Solvation_Energy-OPLS-2005>
-218.68376159668

> <b_mmod_Minimization_Converged-OPLS-2005>
0

> <r_mmod_RMS_Derivative-OPLS-2005>
6.6751914024353

$$$$
43
                    3D
 Structure written by MMmdl.
168176  0  0  1  0            999 V2000
  -30.6689  -14.5664   20.4974 C   0  0  0  0  0  0
  -30.4197  -12.3425   19.4484 C   0  0  0  0  0  0
  -29.4993  -12.4870   18.2179 C   0  0  0  0  0  0
  -28.0203  -12.3436   18.6286 C   0  0  0  0  0  0
  -27.6520  -13.2148   19.8597 C   0  0  2  0  0  0
  -28.6934  -13.0704   20.9918 C   0  0  0  0  0  0
  -25.2562  -13.8173   20.5669 C   0  0  0  0  0  0
  -24.1834  -13.0445   20.9159 C   0  0  0  0  0  0
  -24.6392  -11.6904   20.8742 C   0  0  0  0  0  0
  -23.9071  -10.4294   21.0412 C   0  0  0  0  0  0
  -24.3625   -9.4211   21.9188 C   0  0  0  0  0  0
  -23.6299   -8.2252   22.0760 C   0  0  0  0  0  0
  -22.4282   -8.0286   21.3548 C   0  0  0  0  0  0
  -21.9921   -9.0257   20.4651 C   0  0  0  0  0  0
  -22.7245  -10.2136   20.3060 C   0  0  0  0  0  0
  -21.6857   -6.0732   22.5273 C   0  0  0  0  0  0
  -21.4021   -6.5642   23.8200 C   0  0  0  0  0  0
  -21.3663   -5.6798   24.9164 C   0  0  0  0  0  0
  -21.6036   -4.3059   24.7217 C   0  0  0  0  0  0
  -21.8824   -3.8146   23.4340 C   0  0  0  0  0  0
  -21.9197   -4.6961   22.3397 C   0  0  0  0  0  0
  -22.7855  -13.5243   21.1804 C   0  0  0  0  0  0
  -22.1663   -4.2150   21.0972 F   0  0  0  0  0  0
  -21.5628   -3.4541   25.7725 F   0  0  0  0  0  0
  -30.0131  -13.3730   20.4227 N   0  0  0  0  0  0
  -26.2984  -12.9350   20.3299 N   0  0  0  0  0  0
  -25.9320  -11.6508   20.5765 N   0  0  0  0  0  0
  -22.0498  -12.8256   22.0363 N   0  0  0  0  0  0
  -25.4294  -15.1902   20.4096 N   0  0  0  0  0  0
  -31.8392  -14.6905   20.1298 O   0  0  0  0  0  0
  -21.6643   -6.8882   21.4235 O   0  0  0  0  0  0
  -22.3568  -14.5546   20.6624 O   0  0  0  0  0  0
  -24.6188  -31.8633   23.2026 C   0  0  0  0  0  0
  -25.9055  -32.4812   23.8344 C   0  0  1  0  0  0
  -27.2306  -27.3662   20.1001 C   0  0  0  0  0  0
  -25.5893  -33.8610   24.2296 N   0  0  0  0  0  0
  -23.4131  -30.4832   21.5440 C   0  0  2  0  0  0
  -24.8606  -28.9441   20.1068 C   0  0  0  0  0  0
  -22.7452  -29.4617   22.4944 C   0  0  0  0  0  0
  -18.0282  -28.1402   22.8481 C   0  0  0  0  0  0
  -24.1495  -36.7286   23.2641 C   0  0  0  0  0  0
  -25.9461  -30.8067   21.3695 C   0  0  0  0  0  0
  -26.0200  -29.4357   20.7149 C   0  0  0  0  0  0
  -27.2018  -28.6503   20.7124 C   0  0  0  0  0  0
  -26.0500  -26.9103   19.4729 C   0  0  0  0  0  0
  -24.8733  -27.6863   19.4808 C   0  0  0  0  0  0
  -23.6256  -29.8158   20.1587 C   0  0  0  0  0  0
  -25.4128  -36.3112   24.0333 C   0  0  1  0  0  0
  -20.5881  -28.3697   23.1298 C   0  0  2  0  0  0
  -20.6785  -26.9428   22.5428 C   0  0  0  0  0  0
  -19.5764  -26.6402   21.5225 C   0  0  0  0  0  0
  -18.1933  -26.7944   22.1616 C   0  0  0  0  0  0
  -19.1534  -28.8865   23.2882 C   0  0  0  0  0  0
  -18.9455  -30.1462   23.8908 C   0  0  0  0  0  0
  -17.6458  -30.6607   24.0570 C   0  0  0  0  0  0
  -25.9044  -34.9477   23.5126 C   0  0  0  0  0  0
  -16.5353  -29.9117   23.6335 C   0  0  0  0  0  0
  -16.7268  -28.6530   23.0351 C   0  0  0  0  0  0
  -26.4473  -31.6606   25.0696 C   0  0  0  0  0  0
  -25.3715  -31.3725   26.1420 C   0  0  0  0  0  0
  -27.0329  -30.3054   24.6118 C   0  0  0  0  0  0
  -27.6060  -32.4326   25.7446 C   0  0  0  0  0  0
  -27.5587  -37.1804   24.8471 C   0  0  0  0  0  0
  -21.4174  -29.3035   22.3675 N   0  0  0  0  0  0
  -26.4313  -37.3793   23.9397 N   0  0  0  0  0  0
  -24.6770  -31.0671   22.0970 N   0  0  0  0  0  0
  -23.4185  -28.8162   23.3012 O   0  0  0  0  0  0
  -28.3896  -26.5985   20.1719 O   0  0  0  0  0  0
  -26.5607  -34.8929   22.4693 O   0  0  0  0  0  0
  -23.5359  -32.1411   23.7379 O   0  0  0  0  0  0
  -28.7432  -21.6927   19.6939 C   0  0  0  0  0  0
  -29.5591  -21.4577   21.8111 C   0  0  0  0  0  0
  -29.3589  -20.8053   20.5435 C   0  0  0  0  0  0
  -28.9565  -22.7032   21.6903 C   0  0  0  0  0  0
  -28.7666  -23.8110   22.6890 C   0  0  0  0  0  0
  -30.5585  -21.9188   25.4050 C   0  0  0  0  0  0
  -31.0290  -21.8929   23.9395 C   0  0  0  0  0  0
  -27.7366  -24.0563   19.8650 C   0  0  0  0  0  0
  -29.3375  -18.2365   20.6884 C   0  0  0  0  0  0
  -30.3909  -17.0680   20.5608 C   0  0  0  0  0  0
  -28.5551  -25.3386   19.4526 C   0  0  0  0  0  0
  -30.2730  -20.8739   23.0409 C   0  0  2  0  0  0
  -28.4808  -22.8747   20.3898 N   0  0  0  0  0  0
  -29.8479  -19.5237   20.1495 N   0  0  0  0  0  0
  -29.9185  -15.6705   20.7670 N   0  0  0  0  0  0
  -31.2209  -19.8459   22.6021 N   0  3  0  0  0  0
  -31.4656  -12.4349   19.1519 H   0  0  0  0  0  0
  -30.3207  -11.3479   19.8865 H   0  0  0  0  0  0
  -29.7509  -11.7361   17.4680 H   0  0  0  0  0  0
  -29.6597  -13.4570   17.7453 H   0  0  0  0  0  0
  -27.8460  -11.2912   18.8579 H   0  0  0  0  0  0
  -27.3696  -12.5832   17.7864 H   0  0  0  0  0  0
  -27.6735  -14.2490   19.5175 H   0  0  0  0  0  0
  -28.6850  -12.0588   21.4004 H   0  0  0  0  0  0
  -28.4567  -13.7344   21.8237 H   0  0  0  0  0  0
  -25.2776   -9.5683   22.4754 H   0  0  0  0  0  0
  -23.9991   -7.4662   22.7509 H   0  0  0  0  0  0
  -21.0841   -8.8785   19.8984 H   0  0  0  0  0  0
  -22.3711  -10.9666   19.6170 H   0  0  0  0  0  0
  -21.2020   -7.6153   23.9702 H   0  0  0  0  0  0
  -21.1478   -6.0527   25.9064 H   0  0  0  0  0  0
  -22.0602   -2.7607   23.2832 H   0  0  0  0  0  0
  -22.4105  -11.9925   22.4768 H   0  0  0  0  0  0
  -21.1121  -13.1303   22.2550 H   0  0  0  0  0  0
  -24.6624  -15.8440   20.5223 H   0  0  0  0  0  0
  -26.2733  -15.6273   20.0621 H   0  0  0  0  0  0
  -26.7123  -32.5516   23.1095 H   0  0  0  0  0  0
  -25.0076  -33.9782   25.0455 H   0  0  0  0  0  0
  -22.7071  -31.3034   21.4011 H   0  0  0  0  0  0
  -23.3782  -35.9598   23.3331 H   0  0  0  0  0  0
  -24.3581  -36.8874   22.2048 H   0  0  0  0  0  0
  -23.7217  -37.6485   23.6640 H   0  0  0  0  0  0
  -26.0736  -31.5740   20.6046 H   0  0  0  0  0  0
  -26.8280  -30.8553   21.9959 H   0  0  0  0  0  0
  -28.0947  -29.0176   21.1972 H   0  0  0  0  0  0
  -26.0131  -25.9507   18.9827 H   0  0  0  0  0  0
  -23.9810  -27.3122   18.9982 H   0  0  0  0  0  0
  -23.7330  -30.5888   19.3966 H   0  0  0  0  0  0
  -22.7515  -29.2335   19.8627 H   0  0  0  0  0  0
  -25.1315  -36.1982   25.0826 H   0  0  0  0  0  0
  -20.9959  -28.3280   24.1418 H   0  0  0  0  0  0
  -20.5712  -26.2299   23.3613 H   0  0  0  0  0  0
  -21.6650  -26.7490   22.1192 H   0  0  0  0  0  0
  -19.6932  -25.6315   21.1247 H   0  0  0  0  0  0
  -19.6715  -27.3220   20.6757 H   0  0  0  0  0  0
  -17.4209  -26.6695   21.4013 H   0  0  0  0  0  0
  -18.0324  -26.0098   22.9015 H   0  0  0  0  0  0
  -19.7932  -30.7273   24.2286 H   0  0  0  0  0  0
  -17.5023  -31.6284   24.5182 H   0  0  0  0  0  0
  -15.5355  -30.3029   23.7665 H   0  0  0  0  0  0
  -15.8655  -28.0866   22.7069 H   0  0  0  0  0  0
  -24.5887  -30.7106   25.7706 H   0  0  0  0  0  0
  -24.8904  -32.2884   26.4860 H   0  0  0  0  0  0
  -25.8009  -30.8857   27.0182 H   0  0  0  0  0  0
  -26.2895  -29.6794   24.1185 H   0  0  0  0  0  0
  -27.4106  -29.7324   25.4589 H   0  0  0  0  0  0
  -27.8715  -30.4383   23.9291 H   0  0  0  0  0  0
  -27.2718  -33.3634   26.2043 H   0  0  0  0  0  0
  -28.3842  -32.6873   25.0239 H   0  0  0  0  0  0
  -28.0769  -31.8438   26.5330 H   0  0  0  0  0  0
  -28.2632  -38.0078   24.7520 H   0  0  0  0  0  0
  -28.1061  -36.2609   24.6324 H   0  0  0  0  0  0
  -27.2290  -37.1474   25.8872 H   0  0  0  0  0  0
  -20.9358  -29.8722   21.6853 H   0  0  0  0  0  0
  -26.0211  -38.2879   24.1403 H   0  0  0  0  0  0
  -28.4497  -21.5917   18.6561 H   0  0  0  0  0  0
  -29.5561  -24.5575   22.5942 H   0  0  0  0  0  0
  -28.7660  -23.4350   23.7086 H   0  0  0  0  0  0
  -27.8145  -24.3255   22.5725 H   0  0  0  0  0  0
  -29.5293  -22.2603   25.5074 H   0  0  0  0  0  0
  -31.1846  -22.5977   25.9852 H   0  0  0  0  0  0
  -30.6292  -20.9350   25.8706 H   0  0  0  0  0  0
  -32.0940  -21.6645   23.9527 H   0  0  0  0  0  0
  -31.0089  -22.8940   23.5181 H   0  0  0  0  0  0
  -27.1978  -23.7125   18.9805 H   0  0  0  0  0  0
  -26.9500  -24.3172   20.5696 H   0  0  0  0  0  0
  -29.0042  -18.3492   21.7215 H   0  0  0  0  0  0
  -28.4483  -17.9709   20.1147 H   0  0  0  0  0  0
  -31.2170  -17.2449   21.2500 H   0  0  0  0  0  0
  -30.8280  -17.1084   19.5607 H   0  0  0  0  0  0
  -28.3877  -25.5389   18.3940 H   0  0  0  0  0  0
  -29.6164  -25.0947   19.5101 H   0  0  0  0  0  0
  -29.4939  -20.3731   23.6194 H   0  0  0  0  0  0
  -29.9493  -19.4592   19.1369 H   0  0  0  0  0  0
  -28.9545  -15.5259   21.0184 H   0  0  0  0  0  0
  -32.0969  -20.2628   22.3451 H   0  0  0  0  0  0
  -30.8127  -19.4390   21.7640 H   0  0  0  0  0  0
  -31.3627  -19.1524   23.3144 H   0  0  0  0  0  0
  1 25  1  0  0  0
  1 30  2  0  0  0
  1 85  1  0  0  0
  2  3  1  0  0  0
  2 25  1  0  0  0
  2 87  1  0  0  0
  2 88  1  0  0  0
  3  4  1  0  0  0
  3 89  1  0  0  0
  3 90  1  0  0  0
  4  5  1  0  0  0
  4 91  1  0  0  0
  4 92  1  0  0  0
  5  6  1  0  0  0
  5 26  1  0  0  0
  5 93  1  0  0  0
  6 25  1  0  0  0
  6 94  1  0  0  0
  6 95  1  0  0  0
  7  8  2  0  0  0
  7 26  1  0  0  0
  7 29  1  0  0  0
  8  9  1  0  0  0
  8 22  1  0  0  0
  9 10  1  0  0  0
  9 27  2  0  0  0
 10 11  2  0  0  0
 10 15  1  0  0  0
 11 12  1  0  0  0
 11 96  1  0  0  0
 12 13  2  0  0  0
 12 97  1  0  0  0
 13 14  1  0  0  0
 13 31  1  0  0  0
 14 15  2  0  0  0
 14 98  1  0  0  0
 15 99  1  0  0  0
 16 17  2  0  0  0
 16 21  1  0  0  0
 16 31  1  0  0  0
 17 18  1  0  0  0
 17100  1  0  0  0
 18 19  2  0  0  0
 18101  1  0  0  0
 19 20  1  0  0  0
 19 24  1  0  0  0
 20 21  2  0  0  0
 20102  1  0  0  0
 21 23  1  0  0  0
 22 28  1  0  0  0
 22 32  2  0  0  0
 26 27  1  0  0  0
 28103  1  0  0  0
 28104  1  0  0  0
 29105  1  0  0  0
 29106  1  0  0  0
 33 34  1  0  0  0
 33 66  1  0  0  0
 33 70  2  0  0  0
 34 36  1  0  0  0
 34 59  1  0  0  0
 34107  1  0  0  0
 35 44  2  0  0  0
 35 45  1  0  0  0
 35 68  1  0  0  0
 36 56  1  0  0  0
 36108  1  0  0  0
 37 39  1  0  0  0
 37 47  1  0  0  0
 37 66  1  0  0  0
 37109  1  0  0  0
 38 43  2  0  0  0
 38 46  1  0  0  0
 38 47  1  0  0  0
 39 64  1  0  0  0
 39 67  2  0  0  0
 40 52  1  0  0  0
 40 53  2  0  0  0
 40 58  1  0  0  0
 41110  1  0  0  0
 41111  1  0  0  0
 41112  1  0  0  0
 41 48  1  0  0  0
 42 43  1  0  0  0
 42 66  1  0  0  0
 42113  1  0  0  0
 42114  1  0  0  0
 43 44  1  0  0  0
 44115  1  0  0  0
 45 46  2  0  0  0
 45116  1  0  0  0
 46117  1  0  0  0
 47118  1  0  0  0
 47119  1  0  0  0
 48 56  1  0  0  0
 48 65  1  0  0  0
 48120  1  0  0  0
 49 50  1  0  0  0
 49 53  1  0  0  0
 49 64  1  0  0  0
 49121  1  0  0  0
 50 51  1  0  0  0
 50122  1  0  0  0
 50123  1  0  0  0
 51 52  1  0  0  0
 51124  1  0  0  0
 51125  1  0  0  0
 52126  1  0  0  0
 52127  1  0  0  0
 53 54  1  0  0  0
 54 55  2  0  0  0
 54128  1  0  0  0
 55 57  1  0  0  0
 55129  1  0  0  0
 56 69  2  0  0  0
 57 58  2  0  0  0
 57130  1  0  0  0
 58131  1  0  0  0
 59 60  1  0  0  0
 59 61  1  0  0  0
 59 62  1  0  0  0
 60132  1  0  0  0
 60133  1  0  0  0
 60134  1  0  0  0
 61135  1  0  0  0
 61136  1  0  0  0
 61137  1  0  0  0
 62138  1  0  0  0
 62139  1  0  0  0
 62140  1  0  0  0
 63 65  1  0  0  0
 63141  1  0  0  0
 63142  1  0  0  0
 63143  1  0  0  0
 64144  1  0  0  0
 65145  1  0  0  0
 68 81  1  0  0  0
 71 73  2  0  0  0
 71 83  1  0  0  0
 71146  1  0  0  0
 72 73  1  0  0  0
 72 74  2  0  0  0
 72 82  1  0  0  0
 73 84  1  0  0  0
 74 75  1  0  0  0
 74 83  1  0  0  0
 75147  1  0  0  0
 75148  1  0  0  0
 75149  1  0  0  0
 76 77  1  0  0  0
 76150  1  0  0  0
 76151  1  0  0  0
 76152  1  0  0  0
 77 82  1  0  0  0
 77153  1  0  0  0
 77154  1  0  0  0
 78 81  1  0  0  0
 78 83  1  0  0  0
 78155  1  0  0  0
 78156  1  0  0  0
 79 80  1  0  0  0
 79 84  1  0  0  0
 79157  1  0  0  0
 79158  1  0  0  0
 80 85  1  0  0  0
 80159  1  0  0  0
 80160  1  0  0  0
 81161  1  0  0  0
 81162  1  0  0  0
 82 86  1  0  0  0
 82163  1  0  0  0
 84164  1  0  0  0
 85165  1  0  0  0
 86166  1  0  0  0
 86167  1  0  0  0
 86168  1  0  0  0
M  CHG  1  86   1
M  ISO  4   1 100  68 101  81 101  85 100
M  END
> <chiral flag>
0

> <version>
0

> <s_m_source_file>
/data/baiqing/PycharmProjects/Reinvent-master-3.2/result/LINK_invent/BTK/process_docking_weight1_custom_sum_contain_oxygen_bond_distance_aromatic_linkinvent_7_9_3/rearranged_h_0117.sdf

> <i_m_source_file_index>
44

> <r_mmod_Potential_Energy-OPLS-2005>
-287.219451904297

> <r_mmod_Stretch_Energy-OPLS-2005>
58.353157043457

> <r_mmod_Bend_Energy-OPLS-2005>
148.259323120117

> <r_mmod_Torsional_Energy-OPLS-2005>
248.036758422852

> <r_mmod_Improper_Torsional_Energy-OPLS-2005>
10.5704050064087

> <r_mmod_Van_der_Waal_Energy-OPLS-2005>
137.178848266602

> <r_mmod_Electrostatic_Energy-OPLS-2005>
-467.298675537109

> <r_mmod_Solvation_Energy-OPLS-2005>
-453.213500976562

> <b_mmod_Minimization_Converged-OPLS-2005>
0

> <r_mmod_RMS_Derivative-OPLS-2005>
2.92129611968994

$$$$
44
                    3D
 Structure written by MMmdl.
165173  0  0  1  0            999 V2000
  -30.5320  -15.1218   20.4137 C   0  0  0  0  0  0
  -30.4317  -12.7151   19.5205 C   0  0  0  0  0  0
  -29.5246  -12.5434   18.2787 C   0  0  0  0  0  0
  -28.0712  -12.2924   18.7116 C   0  0  0  0  0  0
  -27.6178  -13.2612   19.8354 C   0  0  2  0  0  0
  -28.6558  -13.4041   20.9695 C   0  0  0  0  0  0
  -25.2443  -13.8237   20.5832 C   0  0  0  0  0  0
  -24.1749  -13.0438   20.9227 C   0  0  0  0  0  0
  -24.6380  -11.6925   20.8754 C   0  0  0  0  0  0
  -23.9082  -10.4290   21.0410 C   0  0  0  0  0  0
  -24.3626   -9.4209   21.9187 C   0  0  0  0  0  0
  -23.6287   -8.2256   22.0760 C   0  0  0  0  0  0
  -22.4270   -8.0300   21.3555 C   0  0  0  0  0  0
  -21.9916   -9.0278   20.4660 C   0  0  0  0  0  0
  -22.7251  -10.2146   20.3065 C   0  0  0  0  0  0
  -21.6863   -6.0740   22.5280 C   0  0  0  0  0  0
  -21.4023   -6.5641   23.8222 C   0  0  0  0  0  0
  -21.3655   -5.6794   24.9176 C   0  0  0  0  0  0
  -21.6039   -4.3046   24.7216 C   0  0  0  0  0  0
  -21.8819   -3.8143   23.4342 C   0  0  0  0  0  0
  -21.9193   -4.6969   22.3396 C   0  0  0  0  0  0
  -22.7778  -13.5218   21.1852 C   0  0  0  0  0  0
  -22.1661   -4.2150   21.0977 F   0  0  0  0  0  0
  -21.5617   -3.4537   25.7730 F   0  0  0  0  0  0
  -29.9002  -13.8614   20.3371 N   0  0  0  0  0  0
  -26.2847  -12.9484   20.3315 N   0  0  0  0  0  0
  -25.9324  -11.6598   20.5772 N   0  0  0  0  0  0
  -22.0425  -12.8226   22.0411 N   0  0  0  0  0  0
  -25.4158  -15.1978   20.4409 N   0  0  0  0  0  0
  -31.7460  -15.0701   20.1787 O   0  0  0  0  0  0
  -21.6642   -6.8895   21.4248 O   0  0  0  0  0  0
  -22.3486  -14.5521   20.6680 O   0  0  0  0  0  0
  -24.6535  -31.8351   23.1783 C   0  0  0  0  0  0
  -25.9250  -32.4655   23.8213 C   0  0  1  0  0  0
  -27.2121  -27.0204   20.1849 C   0  0  0  0  0  0
  -25.5969  -33.8460   24.2141 N   0  0  0  0  0  0
  -23.4631  -30.4498   21.5270 C   0  0  2  0  0  0
  -24.9131  -28.8490   20.1197 C   0  0  0  0  0  0
  -22.7611  -29.4505   22.4833 C   0  0  0  0  0  0
  -18.0319  -28.1409   22.8477 C   0  0  0  0  0  0
  -24.1498  -36.7227   23.2644 C   0  0  0  0  0  0
  -26.0255  -30.6736   21.3924 C   0  0  0  0  0  0
  -26.0958  -29.2703   20.7414 C   0  0  0  0  0  0
  -27.2462  -28.3762   20.7463 C   0  0  0  0  0  0
  -26.0006  -26.7224   19.5266 C   0  0  0  0  0  0
  -24.8845  -27.5925   19.4928 C   0  0  0  0  0  0
  -23.6972  -29.7686   20.1516 C   0  0  0  0  0  0
  -25.4133  -36.3003   24.0308 C   0  0  1  0  0  0
  -20.5940  -28.3749   23.1220 C   0  0  2  0  0  0
  -20.6812  -26.9449   22.5403 C   0  0  0  0  0  0
  -19.5783  -26.6386   21.5218 C   0  0  0  0  0  0
  -18.1964  -26.7944   22.1623 C   0  0  0  0  0  0
  -19.1583  -28.8895   23.2838 C   0  0  0  0  0  0
  -18.9489  -30.1483   23.8877 C   0  0  0  0  0  0
  -17.6487  -30.6603   24.0556 C   0  0  0  0  0  0
  -25.9090  -34.9385   23.5031 C   0  0  0  0  0  0
  -16.5376  -29.9096   23.6341 C   0  0  0  0  0  0
  -16.7302  -28.6512   23.0368 C   0  0  0  0  0  0
  -26.4540  -31.6554   25.0691 C   0  0  0  0  0  0
  -25.3685  -31.3775   26.1364 C   0  0  0  0  0  0
  -27.0418  -30.2942   24.6326 C   0  0  0  0  0  0
  -27.6063  -32.4329   25.7477 C   0  0  0  0  0  0
  -27.5574  -37.1772   24.8465 C   0  0  0  0  0  0
  -21.4299  -29.3049   22.3566 N   0  0  0  0  0  0
  -26.4290  -37.3725   23.9401 N   0  0  0  0  0  0
  -24.7346  -31.0102   22.0874 N   0  0  0  0  0  0
  -23.4204  -28.8074   23.3042 O   0  0  0  0  0  0
  -28.2508  -25.9844   20.1843 O   0  0  0  0  0  0
  -26.5683  -34.8895   22.4620 O   0  0  0  0  0  0
  -23.5617  -32.1277   23.6937 O   0  0  0  0  0  0
  -29.1668  -17.2412   21.4022 C   0  0  0  0  0  0
  -28.4098  -18.7028   21.1399 C   0  0  0  0  0  0
  -30.2755  -19.1690   19.7579 C   0  0  0  0  0  0
  -30.2917  -17.5492   19.3595 C   0  0  2  0  0  0
  -30.1228  -21.6129   21.7663 C   0  0  0  0  0  0
  -29.6949  -17.2671   17.9555 C   0  0  0  0  0  0
  -28.6542  -22.8997   19.9801 C   0  0  0  0  0  0
  -28.1528  -17.1784   17.8831 C   0  0  0  0  0  0
  -28.0586  -24.4385   20.5924 C   0  0  0  0  0  0
  -28.9249  -21.3861   20.8273 C   0  0  1  0  0  0
  -29.8553  -16.4271   20.3157 N   0  0  0  0  0  0
  -29.0003  -19.8324   20.2705 N   0  3  2  0  0  0
  -27.6757  -16.6906   16.5769 N   0  3  0  0  0  0
  -31.4582  -12.8812   19.1897 H   0  0  0  0  0  0
  -30.4625  -11.7984   20.1123 H   0  0  0  0  0  0
  -29.8801  -11.7210   17.6563 H   0  0  0  0  0  0
  -29.5754  -13.4416   17.6600 H   0  0  0  0  0  0
  -28.0103  -11.2626   19.0671 H   0  0  0  0  0  0
  -27.3984  -12.3572   17.8560 H   0  0  0  0  0  0
  -27.5474  -14.2354   19.3524 H   0  0  0  0  0  0
  -28.7953  -12.4647   21.5078 H   0  0  0  0  0  0
  -28.3193  -14.1391   21.7028 H   0  0  0  0  0  0
  -25.2778   -9.5675   22.4766 H   0  0  0  0  0  0
  -23.9988   -7.4653   22.7482 H   0  0  0  0  0  0
  -21.0844   -8.8812   19.8972 H   0  0  0  0  0  0
  -22.3714  -10.9696   19.6177 H   0  0  0  0  0  0
  -21.2038   -7.6154   23.9719 H   0  0  0  0  0  0
  -21.1471   -6.0521   25.9079 H   0  0  0  0  0  0
  -22.0596   -2.7602   23.2843 H   0  0  0  0  0  0
  -22.4043  -11.9881   22.4799 H   0  0  0  0  0  0
  -21.1059  -13.1285   22.2645 H   0  0  0  0  0  0
  -24.6564  -15.8477   20.6151 H   0  0  0  0  0  0
  -26.2966  -15.6517   20.2509 H   0  0  0  0  0  0
  -26.7313  -32.5231   23.0928 H   0  0  0  0  0  0
  -25.0083  -33.9561   25.0269 H   0  0  0  0  0  0
  -22.7716  -31.2785   21.3630 H   0  0  0  0  0  0
  -23.3771  -35.9547   23.3288 H   0  0  0  0  0  0
  -24.3580  -36.8878   22.2060 H   0  0  0  0  0  0
  -23.7244  -37.6410   23.6700 H   0  0  0  0  0  0
  -26.1904  -31.4196   20.6140 H   0  0  0  0  0  0
  -26.8916  -30.7330   22.0392 H   0  0  0  0  0  0
  -28.1515  -28.7019   21.2393 H   0  0  0  0  0  0
  -25.8996  -25.7623   19.0415 H   0  0  0  0  0  0
  -23.9829  -27.2671   18.9923 H   0  0  0  0  0  0
  -23.8481  -30.5396   19.3949 H   0  0  0  0  0  0
  -22.8081  -29.2202   19.8350 H   0  0  0  0  0  0
  -25.1330  -36.1816   25.0801 H   0  0  0  0  0  0
  -21.0028  -28.3347   24.1344 H   0  0  0  0  0  0
  -20.5731  -26.2357   23.3625 H   0  0  0  0  0  0
  -21.6673  -26.7460   22.1191 H   0  0  0  0  0  0
  -19.6949  -25.6287   21.1277 H   0  0  0  0  0  0
  -19.6725  -27.3170   20.6726 H   0  0  0  0  0  0
  -17.4233  -26.6690   21.4025 H   0  0  0  0  0  0
  -18.0360  -26.0100   22.9031 H   0  0  0  0  0  0
  -19.7963  -30.7303   24.2251 H   0  0  0  0  0  0
  -17.5038  -31.6285   24.5150 H   0  0  0  0  0  0
  -15.5380  -30.2985   23.7678 H   0  0  0  0  0  0
  -15.8701  -28.0804   22.7115 H   0  0  0  0  0  0
  -24.5860  -30.7149   25.7651 H   0  0  0  0  0  0
  -24.8889  -32.2974   26.4718 H   0  0  0  0  0  0
  -25.7927  -30.8964   27.0187 H   0  0  0  0  0  0
  -26.3052  -29.6647   24.1327 H   0  0  0  0  0  0
  -27.4004  -29.7272   25.4926 H   0  0  0  0  0  0
  -27.8972  -30.4172   23.9680 H   0  0  0  0  0  0
  -27.2667  -33.3661   26.1983 H   0  0  0  0  0  0
  -28.3911  -32.6837   25.0326 H   0  0  0  0  0  0
  -28.0696  -31.8498   26.5448 H   0  0  0  0  0  0
  -28.2587  -38.0074   24.7509 H   0  0  0  0  0  0
  -28.1079  -36.2602   24.6309 H   0  0  0  0  0  0
  -27.2287  -37.1429   25.8868 H   0  0  0  0  0  0
  -20.9536  -29.8712   21.6687 H   0  0  0  0  0  0
  -26.0147  -38.2787   24.1413 H   0  0  0  0  0  0
  -28.4463  -16.5822   21.8877 H   0  0  0  0  0  0
  -29.9336  -17.4134   22.1588 H   0  0  0  0  0  0
  -28.1887  -19.1227   22.1222 H   0  0  0  0  0  0
  -27.4284  -18.4921   20.7127 H   0  0  0  0  0  0
  -30.6233  -19.7462   18.9002 H   0  0  0  0  0  0
  -31.0395  -19.3135   20.5219 H   0  0  0  0  0  0
  -31.3602  -17.3772   19.2220 H   0  0  0  0  0  0
  -30.0264  -22.5483   22.3167 H   0  0  0  0  0  0
  -31.0544  -21.6657   21.2025 H   0  0  0  0  0  0
  -30.2196  -20.8109   22.4981 H   0  0  0  0  0  0
  -30.1112  -16.3205   17.6048 H   0  0  0  0  0  0
  -30.0529  -18.0176   17.2487 H   0  0  0  0  0  0
  -29.6050  -23.1303   19.4992 H   0  0  0  0  0  0
  -27.9973  -22.6584   19.1453 H   0  0  0  0  0  0
  -27.7076  -18.1543   18.0748 H   0  0  0  0  0  0
  -27.7682  -16.5049   18.6469 H   0  0  0  0  0  0
  -28.4039  -24.4509   21.6260 H   0  0  0  0  0  0
  -26.9821  -24.3028   20.7010 H   0  0  0  0  0  0
  -28.0453  -21.3438   21.4707 H   0  0  0  0  0  0
  -28.3839  -19.8613   19.4733 H   0  0  0  0  0  0
  -28.0259  -17.2577   15.8254 H   0  0  0  0  0  0
  -26.6711  -16.7218   16.5442 H   0  0  0  0  0  0
  -27.9561  -15.7383   16.4193 H   0  0  0  0  0  0
  1 25  1  0  0  0
  1 30  2  0  0  0
  1 81  1  0  0  0
  2  3  1  0  0  0
  2 25  1  0  0  0
  2 84  1  0  0  0
  2 85  1  0  0  0
  3  4  1  0  0  0
  3 86  1  0  0  0
  3 87  1  0  0  0
  4  5  1  0  0  0
  4 88  1  0  0  0
  4 89  1  0  0  0
  5  6  1  0  0  0
  5 26  1  0  0  0
  5 90  1  0  0  0
  6 25  1  0  0  0
  6 91  1  0  0  0
  6 92  1  0  0  0
  7  8  2  0  0  0
  7 26  1  0  0  0
  7 29  1  0  0  0
  8  9  1  0  0  0
  8 22  1  0  0  0
  9 10  1  0  0  0
  9 27  2  0  0  0
 10 11  2  0  0  0
 10 15  1  0  0  0
 11 12  1  0  0  0
 11 93  1  0  0  0
 12 13  2  0  0  0
 12 94  1  0  0  0
 13 14  1  0  0  0
 13 31  1  0  0  0
 14 15  2  0  0  0
 14 95  1  0  0  0
 15 96  1  0  0  0
 16 17  2  0  0  0
 16 21  1  0  0  0
 16 31  1  0  0  0
 17 18  1  0  0  0
 17 97  1  0  0  0
 18 19  2  0  0  0
 18 98  1  0  0  0
 19 20  1  0  0  0
 19 24  1  0  0  0
 20 21  2  0  0  0
 20 99  1  0  0  0
 21 23  1  0  0  0
 22 28  1  0  0  0
 22 32  2  0  0  0
 26 27  1  0  0  0
 28100  1  0  0  0
 28101  1  0  0  0
 29102  1  0  0  0
 29103  1  0  0  0
 33 34  1  0  0  0
 33 66  1  0  0  0
 33 70  2  0  0  0
 34 36  1  0  0  0
 34 59  1  0  0  0
 34104  1  0  0  0
 35 44  2  0  0  0
 35 45  1  0  0  0
 35 68  1  0  0  0
 36 56  1  0  0  0
 36105  1  0  0  0
 37 39  1  0  0  0
 37 47  1  0  0  0
 37 66  1  0  0  0
 37106  1  0  0  0
 38 43  2  0  0  0
 38 46  1  0  0  0
 38 47  1  0  0  0
 39 64  1  0  0  0
 39 67  2  0  0  0
 40 52  1  0  0  0
 40 53  2  0  0  0
 40 58  1  0  0  0
 41107  1  0  0  0
 41108  1  0  0  0
 41109  1  0  0  0
 41 48  1  0  0  0
 42 43  1  0  0  0
 42 66  1  0  0  0
 42110  1  0  0  0
 42111  1  0  0  0
 43 44  1  0  0  0
 44112  1  0  0  0
 45 46  2  0  0  0
 45113  1  0  0  0
 46114  1  0  0  0
 47115  1  0  0  0
 47116  1  0  0  0
 48 56  1  0  0  0
 48 65  1  0  0  0
 48117  1  0  0  0
 49 50  1  0  0  0
 49 53  1  0  0  0
 49 64  1  0  0  0
 49118  1  0  0  0
 50 51  1  0  0  0
 50119  1  0  0  0
 50120  1  0  0  0
 51 52  1  0  0  0
 51121  1  0  0  0
 51122  1  0  0  0
 52123  1  0  0  0
 52124  1  0  0  0
 53 54  1  0  0  0
 54 55  2  0  0  0
 54125  1  0  0  0
 55 57  1  0  0  0
 55126  1  0  0  0
 56 69  2  0  0  0
 57 58  2  0  0  0
 57127  1  0  0  0
 58128  1  0  0  0
 59 60  1  0  0  0
 59 61  1  0  0  0
 59 62  1  0  0  0
 60129  1  0  0  0
 60130  1  0  0  0
 60131  1  0  0  0
 61132  1  0  0  0
 61133  1  0  0  0
 61134  1  0  0  0
 62135  1  0  0  0
 62136  1  0  0  0
 62137  1  0  0  0
 63 65  1  0  0  0
 63138  1  0  0  0
 63139  1  0  0  0
 63140  1  0  0  0
 64141  1  0  0  0
 65142  1  0  0  0
 68 79  1  0  0  0
 71 72  1  0  0  0
 71 81  1  0  0  0
 71143  1  0  0  0
 71144  1  0  0  0
 72145  1  0  0  0
 72146  1  0  0  0
 72 82  1  0  0  0
 73 74  1  0  0  0
 73 82  1  0  0  0
 73147  1  0  0  0
 73148  1  0  0  0
 74 76  1  0  0  0
 74 81  1  0  0  0
 74149  1  0  0  0
 75150  1  0  0  0
 75151  1  0  0  0
 75152  1  0  0  0
 75 80  1  0  0  0
 76 78  1  0  0  0
 76153  1  0  0  0
 76154  1  0  0  0
 77 79  1  0  0  0
 77 80  1  0  0  0
 77155  1  0  0  0
 77156  1  0  0  0
 78 83  1  0  0  0
 78157  1  0  0  0
 78158  1  0  0  0
 79159  1  0  0  0
 79160  1  0  0  0
 80 82  1  0  0  0
 80161  1  0  0  0
 82162  1  0  0  0
 83163  1  0  0  0
 83164  1  0  0  0
 83165  1  0  0  0
M  CHG  2  82   1  83   1
M  ISO  4   1 100  68 101  79 101  81 100
M  END
> <chiral flag>
0

> <version>
0

> <s_m_source_file>
/data/baiqing/PycharmProjects/Reinvent-master-3.2/result/LINK_invent/BTK/process_docking_weight1_custom_sum_contain_oxygen_bond_distance_aromatic_linkinvent_7_9_3/rearranged_h_0117.sdf

> <i_m_source_file_index>
45

> <r_mmod_Potential_Energy-OPLS-2005>
868.878479003906

> <r_mmod_Stretch_Energy-OPLS-2005>
421.098754882812

> <r_mmod_Bend_Energy-OPLS-2005>
422.774017333984

> <r_mmod_Torsional_Energy-OPLS-2005>
436.715179443359

> <r_mmod_Improper_Torsional_Energy-OPLS-2005>
15.2611951828003

> <r_mmod_Van_der_Waal_Energy-OPLS-2005>
103.476211547852

> <r_mmod_Electrostatic_Energy-OPLS-2005>
165.067565917969

> <r_mmod_Solvation_Energy-OPLS-2005>
-1011.90533447266

> <b_mmod_Minimization_Converged-OPLS-2005>
0

> <r_mmod_RMS_Derivative-OPLS-2005>
2.75364112854004

$$$$
45
                    3D
 Structure written by MMmdl.
181190  0  0  1  0            999 V2000
  -30.5809  -15.1612   20.5075 C   0  0  0  0  0  0
  -30.4011  -12.7652   19.6282 C   0  0  0  0  0  0
  -29.5446  -12.6232   18.3545 C   0  0  0  0  0  0
  -28.1086  -12.2886   18.7644 C   0  0  0  0  0  0
  -27.6165  -13.2725   19.8608 C   0  0  2  0  0  0
  -28.6201  -13.4560   21.0285 C   0  0  0  0  0  0
  -25.2394  -13.8270   20.5866 C   0  0  0  0  0  0
  -24.1738  -13.0538   20.9278 C   0  0  0  0  0  0
  -24.6362  -11.6980   20.8799 C   0  0  0  0  0  0
  -23.9082  -10.4374   21.0422 C   0  0  0  0  0  0
  -24.3687   -9.4280   21.9167 C   0  0  0  0  0  0
  -23.6399   -8.2298   22.0714 C   0  0  0  0  0  0
  -22.4343   -8.0340   21.3540 C   0  0  0  0  0  0
  -21.9998   -9.0309   20.4601 C   0  0  0  0  0  0
  -22.7305  -10.2188   20.3025 C   0  0  0  0  0  0
  -21.6894   -6.0771   22.5312 C   0  0  0  0  0  0
  -21.4028   -6.5660   23.8263 C   0  0  0  0  0  0
  -21.3701   -5.6789   24.9225 C   0  0  0  0  0  0
  -21.6047   -4.3050   24.7243 C   0  0  0  0  0  0
  -21.8808   -3.8162   23.4360 C   0  0  0  0  0  0
  -21.9209   -4.6996   22.3431 C   0  0  0  0  0  0
  -22.7740  -13.5267   21.1917 C   0  0  0  0  0  0
  -22.1658   -4.2203   21.1005 F   0  0  0  0  0  0
  -21.5681   -3.4501   25.7728 F   0  0  0  0  0  0
  -29.8939  -13.9180   20.4662 N   0  0  0  0  0  0
  -26.2823  -12.9547   20.3396 N   0  0  0  0  0  0
  -25.9296  -11.6638   20.5749 N   0  0  0  0  0  0
  -22.0394  -12.8304   22.0453 N   0  0  0  0  0  0
  -25.4195  -15.2032   20.4308 N   0  0  0  0  0  0
  -31.7060  -15.0084   20.0124 O   0  0  0  0  0  0
  -21.6691   -6.8924   21.4264 O   0  0  0  0  0  0
  -22.3474  -14.5592   20.6677 O   0  0  0  0  0  0
  -24.6473  -31.8313   23.1824 C   0  0  0  0  0  0
  -25.9242  -32.4612   23.8266 C   0  0  1  0  0  0
  -27.2219  -27.0538   20.2262 C   0  0  0  0  0  0
  -25.6074  -33.8451   24.2173 N   0  0  0  0  0  0
  -23.4518  -30.4344   21.5211 C   0  0  2  0  0  0
  -24.9117  -28.8437   20.1125 C   0  0  0  0  0  0
  -22.7539  -29.4434   22.4884 C   0  0  0  0  0  0
  -18.0300  -28.1305   22.8420 C   0  0  0  0  0  0
  -24.1485  -36.7109   23.2636 C   0  0  0  0  0  0
  -26.0150  -30.6846   21.3922 C   0  0  0  0  0  0
  -26.0809  -29.2871   20.7403 C   0  0  0  0  0  0
  -27.2240  -28.4062   20.7777 C   0  0  0  0  0  0
  -26.0393  -26.7274   19.5325 C   0  0  0  0  0  0
  -24.9113  -27.5832   19.4832 C   0  0  0  0  0  0
  -23.6816  -29.7296   20.1530 C   0  0  0  0  0  0
  -25.4114  -36.2878   24.0290 C   0  0  1  0  0  0
  -20.5888  -28.3608   23.1211 C   0  0  2  0  0  0
  -20.6749  -26.9325   22.5359 C   0  0  0  0  0  0
  -19.5780  -26.6279   21.5139 C   0  0  0  0  0  0
  -18.1947  -26.7849   22.1544 C   0  0  0  0  0  0
  -19.1557  -28.8812   23.2782 C   0  0  0  0  0  0
  -18.9496  -30.1428   23.8787 C   0  0  0  0  0  0
  -17.6484  -30.6532   24.0482 C   0  0  0  0  0  0
  -25.9101  -34.9309   23.4970 C   0  0  0  0  0  0
  -16.5363  -29.8954   23.6368 C   0  0  0  0  0  0
  -16.7296  -28.6364   23.0401 C   0  0  0  0  0  0
  -26.4603  -31.6568   25.0734 C   0  0  0  0  0  0
  -25.3776  -31.3805   26.1416 C   0  0  0  0  0  0
  -27.0539  -30.2954   24.6445 C   0  0  0  0  0  0
  -27.6112  -32.4392   25.7486 C   0  0  0  0  0  0
  -27.5567  -37.1637   24.8448 C   0  0  0  0  0  0
  -21.4226  -29.2955   22.3618 N   0  0  0  0  0  0
  -26.4213  -37.3644   23.9492 N   0  0  0  0  0  0
  -24.7202  -31.0159   22.0791 N   0  0  0  0  0  0
  -23.4167  -28.7983   23.3064 O   0  0  0  0  0  0
  -28.2704  -26.0733   20.4519 O   0  0  0  0  0  0
  -26.5607  -34.8838   22.4497 O   0  0  0  0  0  0
  -23.5579  -32.1202   23.7013 O   0  0  0  0  0  0
  -26.0018  -21.9640   21.6237 C   0  0  0  0  0  0
  -26.6037  -23.0775   21.0152 C   0  0  0  0  0  0
  -26.7003  -20.7527   21.8995 C   0  0  0  0  0  0
  -28.0759  -20.5866   21.4518 C   0  0  0  0  0  0
  -27.9692  -23.0976   20.7473 C   0  0  0  0  0  0
  -31.1858  -18.6100   22.4250 C   0  0  0  0  0  0
  -29.2568  -17.7198   20.6823 C   0  0  0  0  0  0
  -28.8219  -19.0318   21.7275 C   0  0  1  0  0  0
  -29.7706  -18.9119   22.9862 C   0  0  1  0  0  0
  -31.4670  -17.2854   21.5822 C   0  0  0  0  0  0
  -32.3396  -17.7207   20.3468 C   0  0  0  0  0  0
  -32.4007  -16.4187   22.4902 C   0  0  0  0  0  0
  -28.5897  -24.4826   18.5165 C   0  0  0  0  0  0
  -28.0575  -18.5859   24.9112 C   0  0  0  0  0  0
  -30.4358  -17.9220   25.3006 C   0  0  0  0  0  0
  -28.9303  -16.5464   23.8403 C   0  0  0  0  0  0
  -24.9120  -20.0680   23.4822 C   0  0  0  0  0  0
  -28.5211  -24.5437   20.0602 C   0  0  1  0  0  0
  -29.3163  -17.9963   24.2227 C   0  0  0  0  0  0
  -28.6643  -21.8248   20.9410 N   0  0  0  0  0  0
  -30.2393  -16.4906   21.0897 N   0  0  0  0  0  0
  -26.0080  -19.7462   22.5775 O   0  0  0  0  0  0
  -31.4409  -12.8678   19.3249 H   0  0  0  0  0  0
  -30.3772  -11.8551   20.2255 H   0  0  0  0  0  0
  -29.9754  -11.8540   17.7131 H   0  0  0  0  0  0
  -29.5587  -13.5609   17.7913 H   0  0  0  0  0  0
  -28.1104  -11.2643   19.1479 H   0  0  0  0  0  0
  -27.4540  -12.2837   17.8943 H   0  0  0  0  0  0
  -27.5367  -14.2314   19.3496 H   0  0  0  0  0  0
  -28.7554  -12.5146   21.5644 H   0  0  0  0  0  0
  -28.2483  -14.1695   21.7602 H   0  0  0  0  0  0
  -25.2876   -9.5779   22.4681 H   0  0  0  0  0  0
  -24.0169   -7.4658   22.7380 H   0  0  0  0  0  0
  -21.0982   -8.8865   19.8831 H   0  0  0  0  0  0
  -22.3891  -10.9736   19.6086 H   0  0  0  0  0  0
  -21.1955   -7.6156   23.9814 H   0  0  0  0  0  0
  -21.1554   -6.0479   25.9139 H   0  0  0  0  0  0
  -22.0519   -2.7620   23.2851 H   0  0  0  0  0  0
  -22.4084  -12.0137   22.5089 H   0  0  0  0  0  0
  -21.0864  -13.1140   22.2358 H   0  0  0  0  0  0
  -24.6592  -15.8633   20.5276 H   0  0  0  0  0  0
  -26.2881  -15.6346   20.1471 H   0  0  0  0  0  0
  -26.7222  -32.5122   23.0931 H   0  0  0  0  0  0
  -25.0512  -33.9679   25.0507 H   0  0  0  0  0  0
  -22.7488  -31.2490   21.3336 H   0  0  0  0  0  0
  -23.3840  -35.9351   23.3114 H   0  0  0  0  0  0
  -24.3629  -36.8946   22.2107 H   0  0  0  0  0  0
  -23.7116  -37.6192   23.6775 H   0  0  0  0  0  0
  -26.2031  -31.4225   20.6170 H   0  0  0  0  0  0
  -26.8800  -30.7183   22.0468 H   0  0  0  0  0  0
  -28.1009  -28.7362   21.3170 H   0  0  0  0  0  0
  -25.9493  -25.7494   19.0894 H   0  0  0  0  0  0
  -24.0098  -27.2278   18.9958 H   0  0  0  0  0  0
  -23.7886  -30.4786   19.3674 H   0  0  0  0  0  0
  -22.8113  -29.1244   19.8783 H   0  0  0  0  0  0
  -25.1290  -36.1624   25.0762 H   0  0  0  0  0  0
  -20.9940  -28.3141   24.1354 H   0  0  0  0  0  0
  -20.5535  -26.2250   23.3567 H   0  0  0  0  0  0
  -21.6620  -26.7308   22.1236 H   0  0  0  0  0  0
  -19.6941  -25.6169   21.1249 H   0  0  0  0  0  0
  -19.6742  -27.3008   20.6584 H   0  0  0  0  0  0
  -17.4210  -26.6636   21.3924 H   0  0  0  0  0  0
  -18.0337  -26.0028   22.8968 H   0  0  0  0  0  0
  -19.8014  -30.7217   24.2093 H   0  0  0  0  0  0
  -17.5076  -31.6231   24.5008 H   0  0  0  0  0  0
  -15.5371  -30.2778   23.7789 H   0  0  0  0  0  0
  -15.8694  -28.0567   22.7243 H   0  0  0  0  0  0
  -24.5935  -30.7187   25.7726 H   0  0  0  0  0  0
  -24.9032  -32.3022   26.4756 H   0  0  0  0  0  0
  -25.8056  -30.9011   27.0221 H   0  0  0  0  0  0
  -26.3233  -29.6593   24.1454 H   0  0  0  0  0  0
  -27.4098  -29.7333   25.5093 H   0  0  0  0  0  0
  -27.9098  -30.4191   23.9819 H   0  0  0  0  0  0
  -27.2722  -33.3761   26.1898 H   0  0  0  0  0  0
  -28.4001  -32.6895   25.0373 H   0  0  0  0  0  0
  -28.0670  -31.8644   26.5580 H   0  0  0  0  0  0
  -28.2369  -38.0126   24.7737 H   0  0  0  0  0  0
  -28.1238  -36.2691   24.5878 H   0  0  0  0  0  0
  -27.2344  -37.0748   25.8834 H   0  0  0  0  0  0
  -20.9398  -29.8631   21.6793 H   0  0  0  0  0  0
  -26.0021  -38.2616   24.1740 H   0  0  0  0  0  0
  -24.9479  -22.0509   21.8559 H   0  0  0  0  0  0
  -26.0064  -23.9367   20.7310 H   0  0  0  0  0  0
  -31.9523  -18.7410   23.1898 H   0  0  0  0  0  0
  -31.3810  -19.4885   21.8167 H   0  0  0  0  0  0
  -29.7242  -18.1867   19.8151 H   0  0  0  0  0  0
  -28.3388  -17.2825   20.2978 H   0  0  0  0  0  0
  -27.9253  -18.5534   22.1115 H   0  0  0  0  0  0
  -29.8440  -19.9157   23.4195 H   0  0  0  0  0  0
  -32.5060  -18.7923   20.2435 H   0  0  0  0  0  0
  -31.9054  -17.4074   19.3997 H   0  0  0  0  0  0
  -33.3353  -17.2794   20.3734 H   0  0  0  0  0  0
  -33.2896  -16.9723   22.7956 H   0  0  0  0  0  0
  -32.8130  -15.5444   22.0010 H   0  0  0  0  0  0
  -31.9045  -16.0443   23.3780 H   0  0  0  0  0  0
  -29.1422  -23.5966   18.1938 H   0  0  0  0  0  0
  -29.1333  -25.3479   18.1298 H   0  0  0  0  0  0
  -27.6095  -24.4680   18.0308 H   0  0  0  0  0  0
  -28.1061  -19.6649   25.0552 H   0  0  0  0  0  0
  -27.8738  -18.1369   25.8911 H   0  0  0  0  0  0
  -27.1613  -18.3605   24.3338 H   0  0  0  0  0  0
  -30.7461  -18.9085   25.6395 H   0  0  0  0  0  0
  -31.3338  -17.4280   24.9401 H   0  0  0  0  0  0
  -30.1273  -17.3534   26.1809 H   0  0  0  0  0  0
  -28.2875  -16.5259   22.9648 H   0  0  0  0  0  0
  -28.3608  -16.0561   24.6347 H   0  0  0  0  0  0
  -29.7852  -15.9061   23.6334 H   0  0  0  0  0  0
  -24.7153  -19.2413   24.1827 H   0  0  0  0  0  0
  -23.9643  -20.2482   22.9555 H   0  0  0  0  0  0
  -25.1365  -20.9209   24.1366 H   0  0  0  0  0  0
  -29.5652  -24.4786   20.3600 H   0  0  0  0  0  0
  1 25  1  0  0  0
  1 30  2  0  0  0
  1 91  1  0  0  0
  2  3  1  0  0  0
  2 25  1  0  0  0
  2 93  1  0  0  0
  2 94  1  0  0  0
  3  4  1  0  0  0
  3 95  1  0  0  0
  3 96  1  0  0  0
  4  5  1  0  0  0
  4 97  1  0  0  0
  4 98  1  0  0  0
  5  6  1  0  0  0
  5 26  1  0  0  0
  5 99  1  0  0  0
  6 25  1  0  0  0
  6100  1  0  0  0
  6101  1  0  0  0
  7  8  2  0  0  0
  7 26  1  0  0  0
  7 29  1  0  0  0
  8  9  1  0  0  0
  8 22  1  0  0  0
  9 10  1  0  0  0
  9 27  2  0  0  0
 10 11  2  0  0  0
 10 15  1  0  0  0
 11 12  1  0  0  0
 11102  1  0  0  0
 12 13  2  0  0  0
 12103  1  0  0  0
 13 14  1  0  0  0
 13 31  1  0  0  0
 14 15  2  0  0  0
 14104  1  0  0  0
 15105  1  0  0  0
 16 17  2  0  0  0
 16 21  1  0  0  0
 16 31  1  0  0  0
 17 18  1  0  0  0
 17106  1  0  0  0
 18 19  2  0  0  0
 18107  1  0  0  0
 19 20  1  0  0  0
 19 24  1  0  0  0
 20 21  2  0  0  0
 20108  1  0  0  0
 21 23  1  0  0  0
 22 28  1  0  0  0
 22 32  2  0  0  0
 26 27  1  0  0  0
 28109  1  0  0  0
 28110  1  0  0  0
 29111  1  0  0  0
 29112  1  0  0  0
 33 34  1  0  0  0
 33 66  1  0  0  0
 33 70  2  0  0  0
 34 36  1  0  0  0
 34 59  1  0  0  0
 34113  1  0  0  0
 35 44  2  0  0  0
 35 45  1  0  0  0
 35 68  1  0  0  0
 36 56  1  0  0  0
 36114  1  0  0  0
 37 39  1  0  0  0
 37 47  1  0  0  0
 37 66  1  0  0  0
 37115  1  0  0  0
 38 43  2  0  0  0
 38 46  1  0  0  0
 38 47  1  0  0  0
 39 64  1  0  0  0
 39 67  2  0  0  0
 40 52  1  0  0  0
 40 53  2  0  0  0
 40 58  1  0  0  0
 41116  1  0  0  0
 41117  1  0  0  0
 41118  1  0  0  0
 41 48  1  0  0  0
 42 43  1  0  0  0
 42 66  1  0  0  0
 42119  1  0  0  0
 42120  1  0  0  0
 43 44  1  0  0  0
 44121  1  0  0  0
 45 46  2  0  0  0
 45122  1  0  0  0
 46123  1  0  0  0
 47124  1  0  0  0
 47125  1  0  0  0
 48 56  1  0  0  0
 48 65  1  0  0  0
 48126  1  0  0  0
 49 50  1  0  0  0
 49 53  1  0  0  0
 49 64  1  0  0  0
 49127  1  0  0  0
 50 51  1  0  0  0
 50128  1  0  0  0
 50129  1  0  0  0
 51 52  1  0  0  0
 51130  1  0  0  0
 51131  1  0  0  0
 52132  1  0  0  0
 52133  1  0  0  0
 53 54  1  0  0  0
 54 55  2  0  0  0
 54134  1  0  0  0
 55 57  1  0  0  0
 55135  1  0  0  0
 56 69  2  0  0  0
 57 58  2  0  0  0
 57136  1  0  0  0
 58137  1  0  0  0
 59 60  1  0  0  0
 59 61  1  0  0  0
 59 62  1  0  0  0
 60138  1  0  0  0
 60139  1  0  0  0
 60140  1  0  0  0
 61141  1  0  0  0
 61142  1  0  0  0
 61143  1  0  0  0
 62144  1  0  0  0
 62145  1  0  0  0
 62146  1  0  0  0
 63 65  1  0  0  0
 63147  1  0  0  0
 63148  1  0  0  0
 63149  1  0  0  0
 64150  1  0  0  0
 65151  1  0  0  0
 68 88  1  0  0  0
 71 72  2  0  0  0
 71 73  1  0  0  0
 71152  1  0  0  0
 72 75  1  0  0  0
 72153  1  0  0  0
 73 74  2  0  0  0
 73 92  1  0  0  0
 74 90  1  0  0  0
 74 78  1  0  0  0
 75 88  1  0  0  0
 75 90  2  0  0  0
 76 80  1  0  0  0
 76154  1  0  0  0
 76155  1  0  0  0
 76 79  1  0  0  0
 77 78  1  0  0  0
 77 91  1  0  0  0
 77156  1  0  0  0
 77157  1  0  0  0
 78 79  1  0  0  0
 78158  1  0  0  0
 79 89  1  0  0  0
 79159  1  0  0  0
 80 81  1  0  0  0
 80 82  1  0  0  0
 80 91  1  0  0  0
 81160  1  0  0  0
 81161  1  0  0  0
 81162  1  0  0  0
 82163  1  0  0  0
 82164  1  0  0  0
 82165  1  0  0  0
 83166  1  0  0  0
 83167  1  0  0  0
 83168  1  0  0  0
 83 88  1  0  0  0
 84169  1  0  0  0
 84170  1  0  0  0
 84171  1  0  0  0
 84 89  1  0  0  0
 85 89  1  0  0  0
 85172  1  0  0  0
 85173  1  0  0  0
 85174  1  0  0  0
 86 89  1  0  0  0
 86175  1  0  0  0
 86176  1  0  0  0
 86177  1  0  0  0
 87 92  1  0  0  0
 87178  1  0  0  0
 87179  1  0  0  0
 87180  1  0  0  0
 88181  1  0  0  0
M  ISO  4   1 100  68 101  88 101  91 100
M  END
> <chiral flag>
0

> <version>
0

> <s_m_source_file>
/data/baiqing/PycharmProjects/Reinvent-master-3.2/result/LINK_invent/BTK/process_docking_weight1_custom_sum_contain_oxygen_bond_distance_aromatic_linkinvent_7_9_3/rearranged_h_0117.sdf

> <i_m_source_file_index>
46

> <r_mmod_Potential_Energy-OPLS-2005>
1366.54833984375

> <r_mmod_Stretch_Energy-OPLS-2005>
496.741973876953

> <r_mmod_Bend_Energy-OPLS-2005>
556.929382324219

> <r_mmod_Torsional_Energy-OPLS-2005>
352.462036132812

> <r_mmod_Improper_Torsional_Energy-OPLS-2005>
7.90144443511963

> <r_mmod_Van_der_Waal_Energy-OPLS-2005>
176.589920043945

> <r_mmod_Electrostatic_Energy-OPLS-2005>
-368.747039794922

> <r_mmod_Solvation_Energy-OPLS-2005>
-189.476135253906

> <b_mmod_Minimization_Converged-OPLS-2005>
0

> <r_mmod_RMS_Derivative-OPLS-2005>
13.4165830612183

$$$$
47
                    3D
 Structure written by MMmdl.
175184  0  0  1  0            999 V2000
  -30.7577  -14.4349   20.6302 C   0  0  0  0  0  0
  -30.4161  -12.3147   19.4092 C   0  0  0  0  0  0
  -29.4854  -12.5146   18.1983 C   0  0  0  0  0  0
  -28.0108  -12.3686   18.6181 C   0  0  0  0  0  0
  -27.6612  -13.2107   19.8738 C   0  0  2  0  0  0
  -28.7045  -13.0010   20.9935 C   0  0  0  0  0  0
  -25.2589  -13.8172   20.5681 C   0  0  0  0  0  0
  -24.1841  -13.0440   20.9174 C   0  0  0  0  0  0
  -24.6397  -11.6911   20.8721 C   0  0  0  0  0  0
  -23.9060  -10.4294   21.0393 C   0  0  0  0  0  0
  -24.3614   -9.4214   21.9174 C   0  0  0  0  0  0
  -23.6288   -8.2247   22.0749 C   0  0  0  0  0  0
  -22.4268   -8.0283   21.3541 C   0  0  0  0  0  0
  -21.9905   -9.0255   20.4643 C   0  0  0  0  0  0
  -22.7228  -10.2136   20.3048 C   0  0  0  0  0  0
  -21.6857   -6.0733   22.5275 C   0  0  0  0  0  0
  -21.4015   -6.5639   23.8208 C   0  0  0  0  0  0
  -21.3663   -5.6790   24.9171 C   0  0  0  0  0  0
  -21.6042   -4.3053   24.7219 C   0  0  0  0  0  0
  -21.8822   -3.8145   23.4342 C   0  0  0  0  0  0
  -21.9195   -4.6961   22.3396 C   0  0  0  0  0  0
  -22.7863  -13.5237   21.1834 C   0  0  0  0  0  0
  -22.1663   -4.2149   21.0972 F   0  0  0  0  0  0
  -21.5633   -3.4535   25.7732 F   0  0  0  0  0  0
  -30.0381  -13.2953   20.4395 N   0  0  0  0  0  0
  -26.3029  -12.9349   20.3372 N   0  0  0  0  0  0
  -25.9332  -11.6506   20.5768 N   0  0  0  0  0  0
  -22.0515  -12.8225   22.0394 N   0  0  0  0  0  0
  -25.4317  -15.1886   20.4102 N   0  0  0  0  0  0
  -31.8378  -14.6474   20.0736 O   0  0  0  0  0  0
  -21.6641   -6.8871   21.4234 O   0  0  0  0  0  0
  -22.3546  -14.5549   20.6692 O   0  0  0  0  0  0
  -24.6149  -31.8670   23.2086 C   0  0  0  0  0  0
  -25.9048  -32.4821   23.8387 C   0  0  1  0  0  0
  -27.2385  -27.4237   20.0950 C   0  0  0  0  0  0
  -25.5888  -33.8619   24.2314 N   0  0  0  0  0  0
  -23.4035  -30.4882   21.5516 C   0  0  2  0  0  0
  -24.8489  -28.9513   20.1199 C   0  0  0  0  0  0
  -22.7425  -29.4636   22.5015 C   0  0  0  0  0  0
  -18.0278  -28.1362   22.8492 C   0  0  0  0  0  0
  -24.1498  -36.7320   23.2639 C   0  0  0  0  0  0
  -25.9339  -30.8283   21.3650 C   0  0  0  0  0  0
  -26.0108  -29.4625   20.7113 C   0  0  0  0  0  0
  -27.2058  -28.7067   20.6922 C   0  0  0  0  0  0
  -26.0526  -26.9279   19.5027 C   0  0  0  0  0  0
  -24.8647  -27.6832   19.5156 C   0  0  0  0  0  0
  -23.6119  -29.8187   20.1684 C   0  0  0  0  0  0
  -25.4113  -36.3106   24.0328 C   0  0  1  0  0  0
  -20.5861  -28.3651   23.1329 C   0  0  2  0  0  0
  -20.6782  -26.9391   22.5427 C   0  0  0  0  0  0
  -19.5763  -26.6380   21.5221 C   0  0  0  0  0  0
  -18.1933  -26.7911   22.1621 C   0  0  0  0  0  0
  -19.1522  -28.8823   23.2903 C   0  0  0  0  0  0
  -18.9461  -30.1438   23.8900 C   0  0  0  0  0  0
  -17.6464  -30.6576   24.0557 C   0  0  0  0  0  0
  -25.9034  -34.9473   23.5119 C   0  0  0  0  0  0
  -16.5347  -29.9078   23.6334 C   0  0  0  0  0  0
  -16.7264  -28.6495   23.0337 C   0  0  0  0  0  0
  -26.4470  -31.6597   25.0716 C   0  0  0  0  0  0
  -25.3739  -31.3692   26.1469 C   0  0  0  0  0  0
  -27.0303  -30.3040   24.6084 C   0  0  0  0  0  0
  -27.6045  -32.4316   25.7467 C   0  0  0  0  0  0
  -27.5587  -37.1806   24.8455 C   0  0  0  0  0  0
  -21.4150  -29.3010   22.3749 N   0  0  0  0  0  0
  -26.4300  -37.3784   23.9399 N   0  0  0  0  0  0
  -24.6688  -31.0759   22.1001 N   0  0  0  0  0  0
  -23.4199  -28.8203   23.3070 O   0  0  0  0  0  0
  -28.4298  -26.7168   20.0916 O   0  0  0  0  0  0
  -26.5616  -34.8922   22.4696 O   0  0  0  0  0  0
  -23.5336  -32.1422   23.7489 O   0  0  0  0  0  0
  -27.8891  -23.1891   21.4893 C   0  0  0  0  0  0
  -30.2488  -23.4625   20.5625 C   0  0  0  0  0  0
  -27.9297  -24.7333   21.4521 C   0  0  0  0  0  0
  -29.8383  -24.7546   19.8054 C   0  0  0  0  0  0
  -29.8861  -18.6838   21.3166 C   0  0  0  0  0  0
  -32.2075  -18.6669   21.9002 C   0  0  0  0  0  0
  -29.0999  -22.4633   20.8291 C   0  0  1  0  0  0
  -31.1147  -17.7612   21.3086 C   0  0  1  0  0  0
  -28.4121  -25.2741   20.0977 C   0  0  2  0  0  0
  -30.4388  -20.1175   21.0929 C   0  0  1  0  0  0
  -33.2759  -20.7149   19.7667 C   0  0  0  0  0  0
  -34.0611  -21.0766   22.1585 C   0  0  0  0  0  0
  -29.4999  -21.2191   21.6924 C   0  0  0  0  0  0
  -30.9976  -16.4300   22.1077 C   0  0  0  0  0  0
  -32.8392  -21.0076   21.2194 C   0  0  0  0  0  0
  -30.2360  -15.3406   21.4766 N   0  0  0  0  0  0
  -31.7860  -20.0822   21.7387 N   0  3  2  0  0  0
  -31.4588  -12.4098   19.1014 H   0  0  0  0  0  0
  -30.3178  -11.3031   19.8056 H   0  0  0  0  0  0
  -29.7237  -11.7930   17.4161 H   0  0  0  0  0  0
  -29.6503  -13.5023   17.7643 H   0  0  0  0  0  0
  -27.8265  -11.3123   18.8173 H   0  0  0  0  0  0
  -27.3558  -12.6389   17.7897 H   0  0  0  0  0  0
  -27.7044  -14.2578   19.5749 H   0  0  0  0  0  0
  -28.6800  -11.9697   21.3493 H   0  0  0  0  0  0
  -28.4562  -13.6124   21.8613 H   0  0  0  0  0  0
  -25.2765   -9.5695   22.4746 H   0  0  0  0  0  0
  -24.0007   -7.4642   22.7474 H   0  0  0  0  0  0
  -21.0839   -8.8765   19.8951 H   0  0  0  0  0  0
  -22.3681  -10.9672   19.6158 H   0  0  0  0  0  0
  -21.2006   -7.6148   23.9709 H   0  0  0  0  0  0
  -21.1483   -6.0519   25.9072 H   0  0  0  0  0  0
  -22.0600   -2.7607   23.2836 H   0  0  0  0  0  0
  -22.4135  -11.9883   22.4775 H   0  0  0  0  0  0
  -21.1135  -13.1248   22.2609 H   0  0  0  0  0  0
  -24.6685  -15.8475   20.5190 H   0  0  0  0  0  0
  -26.2917  -15.6271   20.1049 H   0  0  0  0  0  0
  -26.7120  -32.5532   23.1150 H   0  0  0  0  0  0
  -24.9984  -33.9759   25.0425 H   0  0  0  0  0  0
  -22.6900  -31.3034   21.4128 H   0  0  0  0  0  0
  -23.3747  -35.9671   23.3299 H   0  0  0  0  0  0
  -24.3584  -36.8949   22.2057 H   0  0  0  0  0  0
  -23.7275  -37.6527   23.6667 H   0  0  0  0  0  0
  -26.0473  -31.5950   20.5977 H   0  0  0  0  0  0
  -26.8215  -30.8807   21.9843 H   0  0  0  0  0  0
  -28.1051  -29.0996   21.1490 H   0  0  0  0  0  0
  -26.0195  -25.9658   19.0165 H   0  0  0  0  0  0
  -23.9708  -27.2811   19.0582 H   0  0  0  0  0  0
  -23.7208  -30.5918   19.4069 H   0  0  0  0  0  0
  -22.7358  -29.2380   19.8746 H   0  0  0  0  0  0
  -25.1297  -36.1960   25.0817 H   0  0  0  0  0  0
  -20.9931  -28.3219   24.1453 H   0  0  0  0  0  0
  -20.5720  -26.2247   23.3606 H   0  0  0  0  0  0
  -21.6650  -26.7453   22.1197 H   0  0  0  0  0  0
  -19.6927  -25.6303   21.1225 H   0  0  0  0  0  0
  -19.6707  -27.3217   20.6775 H   0  0  0  0  0  0
  -17.4214  -26.6659   21.4012 H   0  0  0  0  0  0
  -18.0304  -26.0047   22.9005 H   0  0  0  0  0  0
  -19.7940  -30.7248   24.2247 H   0  0  0  0  0  0
  -17.5026  -31.6254   24.5174 H   0  0  0  0  0  0
  -15.5348  -30.2981   23.7674 H   0  0  0  0  0  0
  -15.8656  -28.0840   22.7019 H   0  0  0  0  0  0
  -24.5896  -30.7044   25.7806 H   0  0  0  0  0  0
  -24.8934  -32.2841   26.4944 H   0  0  0  0  0  0
  -25.8092  -30.8842   27.0214 H   0  0  0  0  0  0
  -26.2836  -29.6777   24.1174 H   0  0  0  0  0  0
  -27.4121  -29.7284   25.4522 H   0  0  0  0  0  0
  -27.8652  -30.4360   23.9199 H   0  0  0  0  0  0
  -27.2659  -33.3607   26.2065 H   0  0  0  0  0  0
  -28.3827  -32.6889   25.0268 H   0  0  0  0  0  0
  -28.0739  -31.8432   26.5356 H   0  0  0  0  0  0
  -28.2594  -38.0117   24.7509 H   0  0  0  0  0  0
  -28.1097  -36.2638   24.6274 H   0  0  0  0  0  0
  -27.2292  -37.1440   25.8857 H   0  0  0  0  0  0
  -20.9327  -29.8712   21.6944 H   0  0  0  0  0  0
  -26.0188  -38.2862   24.1400 H   0  0  0  0  0  0
  -26.9740  -22.8432   21.0066 H   0  0  0  0  0  0
  -27.7878  -22.8950   22.5354 H   0  0  0  0  0  0
  -30.6949  -23.7487   21.5167 H   0  0  0  0  0  0
  -31.0308  -22.9833   19.9774 H   0  0  0  0  0  0
  -28.5954  -25.0980   22.2355 H   0  0  0  0  0  0
  -26.9418  -25.1257   21.6935 H   0  0  0  0  0  0
  -29.9299  -24.5928   18.7315 H   0  0  0  0  0  0
  -30.5668  -25.5298   20.0470 H   0  0  0  0  0  0
  -29.3971  -18.6158   22.2895 H   0  0  0  0  0  0
  -29.1489  -18.3984   20.5655 H   0  0  0  0  0  0
  -33.1716  -18.4445   21.4436 H   0  0  0  0  0  0
  -32.3248  -18.4885   22.9706 H   0  0  0  0  0  0
  -28.7631  -22.1014   19.8556 H   0  0  0  0  0  0
  -31.3851  -17.5508   20.2723 H   0  0  0  0  0  0
  -27.7738  -24.8793   19.3087 H   0  0  0  0  0  0
  -30.5371  -20.2594   20.0180 H   0  0  0  0  0  0
  -33.9797  -21.4735   19.4259 H   0  0  0  0  0  0
  -32.4427  -20.7319   19.0662 H   0  0  0  0  0  0
  -33.7752  -19.7513   19.6703 H   0  0  0  0  0  0
  -34.7752  -21.8212   21.8050 H   0  0  0  0  0  0
  -34.5958  -20.1285   22.2213 H   0  0  0  0  0  0
  -33.7745  -21.3670   23.1703 H   0  0  0  0  0  0
  -28.5600  -20.7236   21.9380 H   0  0  0  0  0  0
  -29.8840  -21.5530   22.6566 H   0  0  0  0  0  0
  -30.5590  -16.6254   23.0873 H   0  0  0  0  0  0
  -32.0025  -16.0552   22.3191 H   0  0  0  0  0  0
  -32.4158  -22.0061   21.2477 H   0  0  0  0  0  0
  -29.3294  -15.1233   21.8651 H   0  0  0  0  0  0
  -31.6156  -20.3900   22.6854 H   0  0  0  0  0  0
  1 25  1  0  0  0
  1 30  2  0  0  0
  1 86  1  0  0  0
  2  3  1  0  0  0
  2 25  1  0  0  0
  2 88  1  0  0  0
  2 89  1  0  0  0
  3  4  1  0  0  0
  3 90  1  0  0  0
  3 91  1  0  0  0
  4  5  1  0  0  0
  4 92  1  0  0  0
  4 93  1  0  0  0
  5  6  1  0  0  0
  5 26  1  0  0  0
  5 94  1  0  0  0
  6 25  1  0  0  0
  6 95  1  0  0  0
  6 96  1  0  0  0
  7  8  2  0  0  0
  7 26  1  0  0  0
  7 29  1  0  0  0
  8  9  1  0  0  0
  8 22  1  0  0  0
  9 10  1  0  0  0
  9 27  2  0  0  0
 10 11  2  0  0  0
 10 15  1  0  0  0
 11 12  1  0  0  0
 11 97  1  0  0  0
 12 13  2  0  0  0
 12 98  1  0  0  0
 13 14  1  0  0  0
 13 31  1  0  0  0
 14 15  2  0  0  0
 14 99  1  0  0  0
 15100  1  0  0  0
 16 17  2  0  0  0
 16 21  1  0  0  0
 16 31  1  0  0  0
 17 18  1  0  0  0
 17101  1  0  0  0
 18 19  2  0  0  0
 18102  1  0  0  0
 19 20  1  0  0  0
 19 24  1  0  0  0
 20 21  2  0  0  0
 20103  1  0  0  0
 21 23  1  0  0  0
 22 28  1  0  0  0
 22 32  2  0  0  0
 26 27  1  0  0  0
 28104  1  0  0  0
 28105  1  0  0  0
 29106  1  0  0  0
 29107  1  0  0  0
 33 34  1  0  0  0
 33 66  1  0  0  0
 33 70  2  0  0  0
 34 36  1  0  0  0
 34 59  1  0  0  0
 34108  1  0  0  0
 35 44  2  0  0  0
 35 45  1  0  0  0
 35 68  1  0  0  0
 36 56  1  0  0  0
 36109  1  0  0  0
 37 39  1  0  0  0
 37 47  1  0  0  0
 37 66  1  0  0  0
 37110  1  0  0  0
 38 43  2  0  0  0
 38 46  1  0  0  0
 38 47  1  0  0  0
 39 64  1  0  0  0
 39 67  2  0  0  0
 40 52  1  0  0  0
 40 53  2  0  0  0
 40 58  1  0  0  0
 41111  1  0  0  0
 41112  1  0  0  0
 41113  1  0  0  0
 41 48  1  0  0  0
 42 43  1  0  0  0
 42 66  1  0  0  0
 42114  1  0  0  0
 42115  1  0  0  0
 43 44  1  0  0  0
 44116  1  0  0  0
 45 46  2  0  0  0
 45117  1  0  0  0
 46118  1  0  0  0
 47119  1  0  0  0
 47120  1  0  0  0
 48 56  1  0  0  0
 48 65  1  0  0  0
 48121  1  0  0  0
 49 50  1  0  0  0
 49 53  1  0  0  0
 49 64  1  0  0  0
 49122  1  0  0  0
 50 51  1  0  0  0
 50123  1  0  0  0
 50124  1  0  0  0
 51 52  1  0  0  0
 51125  1  0  0  0
 51126  1  0  0  0
 52127  1  0  0  0
 52128  1  0  0  0
 53 54  1  0  0  0
 54 55  2  0  0  0
 54129  1  0  0  0
 55 57  1  0  0  0
 55130  1  0  0  0
 56 69  2  0  0  0
 57 58  2  0  0  0
 57131  1  0  0  0
 58132  1  0  0  0
 59 60  1  0  0  0
 59 61  1  0  0  0
 59 62  1  0  0  0
 60133  1  0  0  0
 60134  1  0  0  0
 60135  1  0  0  0
 61136  1  0  0  0
 61137  1  0  0  0
 61138  1  0  0  0
 62139  1  0  0  0
 62140  1  0  0  0
 62141  1  0  0  0
 63 65  1  0  0  0
 63142  1  0  0  0
 63143  1  0  0  0
 63144  1  0  0  0
 64145  1  0  0  0
 65146  1  0  0  0
 68 79  1  0  0  0
 71 73  1  0  0  0
 71 77  1  0  0  0
 71147  1  0  0  0
 71148  1  0  0  0
 72 74  1  0  0  0
 72 77  1  0  0  0
 72149  1  0  0  0
 72150  1  0  0  0
 73 79  1  0  0  0
 73151  1  0  0  0
 73152  1  0  0  0
 74 79  1  0  0  0
 74153  1  0  0  0
 74154  1  0  0  0
 75 78  1  0  0  0
 75 80  1  0  0  0
 75155  1  0  0  0
 75156  1  0  0  0
 76 78  1  0  0  0
 76157  1  0  0  0
 76158  1  0  0  0
 76 87  1  0  0  0
 77 83  1  0  0  0
 77159  1  0  0  0
 78 84  1  0  0  0
 78160  1  0  0  0
 79161  1  0  0  0
 80 83  1  0  0  0
 80 87  1  0  0  0
 80162  1  0  0  0
 81163  1  0  0  0
 81164  1  0  0  0
 81165  1  0  0  0
 81 85  1  0  0  0
 82 85  1  0  0  0
 82166  1  0  0  0
 82167  1  0  0  0
 82168  1  0  0  0
 83169  1  0  0  0
 83170  1  0  0  0
 84 86  1  0  0  0
 84171  1  0  0  0
 84172  1  0  0  0
 85 87  1  0  0  0
 85173  1  0  0  0
 86174  1  0  0  0
 87175  1  0  0  0
M  CHG  1  87   1
M  ISO  4   1 100  68 101  79 101  86 100
M  END
> <chiral flag>
0

> <version>
0

> <s_m_source_file>
/data/baiqing/PycharmProjects/Reinvent-master-3.2/result/LINK_invent/BTK/process_docking_weight1_custom_sum_contain_oxygen_bond_distance_aromatic_linkinvent_7_9_3/rearranged_h_0117.sdf

> <i_m_source_file_index>
47

> <r_mmod_Potential_Energy-OPLS-2005>
15.420015335083

> <r_mmod_Stretch_Energy-OPLS-2005>
42.697826385498

> <r_mmod_Bend_Energy-OPLS-2005>
144.820327758789

> <r_mmod_Torsional_Energy-OPLS-2005>
337.730590820312

> <r_mmod_Improper_Torsional_Energy-OPLS-2005>
2.14850664138794

> <r_mmod_Van_der_Waal_Energy-OPLS-2005>
137.969329833984

> <r_mmod_Electrostatic_Energy-OPLS-2005>
-242.352447509766

> <r_mmod_Solvation_Energy-OPLS-2005>
-418.529357910156

> <b_mmod_Minimization_Converged-OPLS-2005>
0

> <r_mmod_RMS_Derivative-OPLS-2005>
1.90978252887726

$$$$
48
                    3D
 Structure written by MMmdl.
170178  0  0  1  0            999 V2000
  -30.6528  -14.7640   20.4800 C   0  0  0  0  0  0
  -30.4370  -12.4823   19.4736 C   0  0  0  0  0  0
  -29.5152  -12.5122   18.2335 C   0  0  0  0  0  0
  -28.0428  -12.3268   18.6462 C   0  0  0  0  0  0
  -27.6411  -13.2363   19.8396 C   0  0  2  0  0  0
  -28.6878  -13.2071   20.9774 C   0  0  0  0  0  0
  -25.2504  -13.8235   20.5716 C   0  0  0  0  0  0
  -24.1802  -13.0438   20.9261 C   0  0  0  0  0  0
  -24.6421  -11.6928   20.8769 C   0  0  0  0  0  0
  -23.9102  -10.4278   21.0383 C   0  0  0  0  0  0
  -24.3643   -9.4203   21.9183 C   0  0  0  0  0  0
  -23.6306   -8.2233   22.0779 C   0  0  0  0  0  0
  -22.4284   -8.0278   21.3545 C   0  0  0  0  0  0
  -21.9915   -9.0270   20.4670 C   0  0  0  0  0  0
  -22.7255  -10.2134   20.3058 C   0  0  0  0  0  0
  -21.6842   -6.0720   22.5278 C   0  0  0  0  0  0
  -21.4005   -6.5625   23.8227 C   0  0  0  0  0  0
  -21.3677   -5.6785   24.9180 C   0  0  0  0  0  0
  -21.6051   -4.3049   24.7244 C   0  0  0  0  0  0
  -21.8814   -3.8132   23.4349 C   0  0  0  0  0  0
  -21.9197   -4.6951   22.3408 C   0  0  0  0  0  0
  -22.7815  -13.5229   21.1875 C   0  0  0  0  0  0
  -22.1654   -4.2131   21.0981 F   0  0  0  0  0  0
  -21.5665   -3.4540   25.7749 F   0  0  0  0  0  0
  -29.9885  -13.5599   20.3873 N   0  0  0  0  0  0
  -26.2914  -12.9437   20.3211 N   0  0  0  0  0  0
  -25.9334  -11.6575   20.5719 N   0  0  0  0  0  0
  -22.0434  -12.8243   22.0428 N   0  0  0  0  0  0
  -25.4151  -15.1970   20.4215 N   0  0  0  0  0  0
  -31.8482  -14.8200   20.1773 O   0  0  0  0  0  0
  -21.6651   -6.8862   21.4241 O   0  0  0  0  0  0
  -22.3489  -14.5505   20.6699 O   0  0  0  0  0  0
  -24.6309  -31.8569   23.1975 C   0  0  0  0  0  0
  -25.9160  -32.4780   23.8299 C   0  0  1  0  0  0
  -27.2581  -27.2939   20.1434 C   0  0  0  0  0  0
  -25.5940  -33.8569   24.2281 N   0  0  0  0  0  0
  -23.4280  -30.4698   21.5439 C   0  0  2  0  0  0
  -24.8819  -28.9232   20.1055 C   0  0  0  0  0  0
  -22.7525  -29.4574   22.5000 C   0  0  0  0  0  0
  -18.0274  -28.1306   22.8474 C   0  0  0  0  0  0
  -24.1463  -36.7305   23.2630 C   0  0  0  0  0  0
  -25.9644  -30.7864   21.3589 C   0  0  0  0  0  0
  -26.0476  -29.4061   20.7136 C   0  0  0  0  0  0
  -27.2346  -28.6078   20.7132 C   0  0  0  0  0  0
  -26.0608  -26.8754   19.5056 C   0  0  0  0  0  0
  -24.8991  -27.6700   19.4757 C   0  0  0  0  0  0
  -23.6375  -29.7909   20.1597 C   0  0  0  0  0  0
  -25.4080  -36.3100   24.0344 C   0  0  1  0  0  0
  -20.5890  -28.3620   23.1279 C   0  0  2  0  0  0
  -20.6800  -26.9368   22.5359 C   0  0  0  0  0  0
  -19.5743  -26.6342   21.5178 C   0  0  0  0  0  0
  -18.1927  -26.7837   22.1642 C   0  0  0  0  0  0
  -19.1533  -28.8801   23.2871 C   0  0  0  0  0  0
  -18.9435  -30.1390   23.8879 C   0  0  0  0  0  0
  -17.6432  -30.6539   24.0512 C   0  0  0  0  0  0
  -25.9034  -34.9464   23.5123 C   0  0  0  0  0  0
  -16.5326  -29.9023   23.6293 C   0  0  0  0  0  0
  -16.7266  -28.6448   23.0329 C   0  0  0  0  0  0
  -26.4505  -31.6552   25.0643 C   0  0  0  0  0  0
  -25.3718  -31.3740   26.1377 C   0  0  0  0  0  0
  -27.0310  -30.2982   24.6024 C   0  0  0  0  0  0
  -27.6052  -32.4273   25.7423 C   0  0  0  0  0  0
  -27.5574  -37.1801   24.8460 C   0  0  0  0  0  0
  -21.4220  -29.3044   22.3788 N   0  0  0  0  0  0
  -26.4268  -37.3796   23.9435 N   0  0  0  0  0  0
  -24.6951  -31.0520   22.0940 N   0  0  0  0  0  0
  -23.4225  -28.8062   23.3056 O   0  0  0  0  0  0
  -28.3950  -26.4498   20.2440 O   0  0  0  0  0  0
  -26.5583  -34.8950   22.4675 O   0  0  0  0  0  0
  -23.5466  -32.1410   23.7279 O   0  0  0  0  0  0
  -28.4051  -18.9851   21.2563 C   0  0  0  0  0  0
  -27.6976  -20.3510   20.9708 C   0  0  0  0  0  0
  -30.4138  -21.3424   20.1272 C   0  0  0  0  0  0
  -29.1361  -22.2846   20.4209 C   0  0  2  0  0  0
  -29.7665  -18.7610   20.5455 C   0  0  2  0  0  0
  -27.8297  -21.5116   23.8401 C   0  0  0  0  0  0
  -26.2649  -22.7158   22.1825 C   0  0  0  0  0  0
  -28.3983  -24.9181   18.3978 C   0  0  0  0  0  0
  -29.3595  -23.9103   20.5752 C   0  0  0  0  0  0
  -30.5169  -17.3515   20.9423 C   0  0  0  0  0  0
  -27.7102  -22.3158   22.5386 C   0  0  0  0  0  0
  -28.3120  -24.9866   19.9361 C   0  0  1  0  0  0
  -28.4018  -21.5556   21.4857 N   0  0  0  0  0  0
  -29.9484  -15.9380   20.7267 N   0  0  0  0  0  0
  -30.5888  -20.0039   20.8598 N   0  3  0  0  0  0
  -31.4747  -12.6130   19.1591 H   0  0  0  0  0  0
  -30.3996  -11.5161   19.9798 H   0  0  0  0  0  0
  -29.8037  -11.7295   17.5303 H   0  0  0  0  0  0
  -29.6374  -13.4618   17.7099 H   0  0  0  0  0  0
  -27.9082  -11.2788   18.9223 H   0  0  0  0  0  0
  -27.3907  -12.5048   17.7886 H   0  0  0  0  0  0
  -27.6310  -14.2525   19.4473 H   0  0  0  0  0  0
  -28.7356  -12.2280   21.4585 H   0  0  0  0  0  0
  -28.4116  -13.9232   21.7552 H   0  0  0  0  0  0
  -25.2764   -9.5663   22.4818 H   0  0  0  0  0  0
  -23.9998   -7.4605   22.7484 H   0  0  0  0  0  0
  -21.0850   -8.8782   19.8977 H   0  0  0  0  0  0
  -22.3691  -10.9697   19.6207 H   0  0  0  0  0  0
  -21.1971   -7.6125   23.9709 H   0  0  0  0  0  0
  -21.1514   -6.0518   25.9094 H   0  0  0  0  0  0
  -22.0580   -2.7598   23.2869 H   0  0  0  0  0  0
  -22.4043  -11.9958   22.4884 H   0  0  0  0  0  0
  -21.1047  -13.1315   22.2576 H   0  0  0  0  0  0
  -24.6394  -15.8429   20.5367 H   0  0  0  0  0  0
  -26.2516  -15.6492   20.0756 H   0  0  0  0  0  0
  -26.7231  -32.5442   23.1036 H   0  0  0  0  0  0
  -25.0047  -33.9635   25.0407 H   0  0  0  0  0  0
  -22.7239  -31.2897   21.3927 H   0  0  0  0  0  0
  -23.3719  -35.9644   23.3266 H   0  0  0  0  0  0
  -24.3561  -36.8950   22.2060 H   0  0  0  0  0  0
  -23.7228  -37.6502   23.6645 H   0  0  0  0  0  0
  -26.0612  -31.5283   20.5666 H   0  0  0  0  0  0
  -26.8630  -30.8683   21.9624 H   0  0  0  0  0  0
  -28.1316  -28.9716   21.1907 H   0  0  0  0  0  0
  -25.9850  -25.9078   19.0364 H   0  0  0  0  0  0
  -24.0170  -27.3022   18.9710 H   0  0  0  0  0  0
  -23.7323  -30.5541   19.3837 H   0  0  0  0  0  0
  -22.7628  -29.1954   19.8805 H   0  0  0  0  0  0
  -25.1254  -36.1935   25.0846 H   0  0  0  0  0  0
  -20.9914  -28.3086   24.1423 H   0  0  0  0  0  0
  -20.5727  -26.2204   23.3528 H   0  0  0  0  0  0
  -21.6629  -26.7396   22.1067 H   0  0  0  0  0  0
  -19.6943  -25.6263   21.1191 H   0  0  0  0  0  0
  -19.6654  -27.3193   20.6738 H   0  0  0  0  0  0
  -17.4158  -26.6553   21.4065 H   0  0  0  0  0  0
  -18.0334  -25.9952   22.9041 H   0  0  0  0  0  0
  -19.7901  -30.7210   24.2296 H   0  0  0  0  0  0
  -17.4964  -31.6248   24.5072 H   0  0  0  0  0  0
  -15.5323  -30.2913   23.7555 H   0  0  0  0  0  0
  -15.8697  -28.0715   22.7046 H   0  0  0  0  0  0
  -24.5888  -30.7067   25.7741 H   0  0  0  0  0  0
  -24.8869  -32.2913   26.4733 H   0  0  0  0  0  0
  -25.8052  -30.8997   27.0189 H   0  0  0  0  0  0
  -26.2861  -29.6760   24.1053 H   0  0  0  0  0  0
  -27.4041  -29.7223   25.4483 H   0  0  0  0  0  0
  -27.8706  -30.4281   23.9199 H   0  0  0  0  0  0
  -27.2684  -33.3602   26.1962 H   0  0  0  0  0  0
  -28.3904  -32.6809   25.0277 H   0  0  0  0  0  0
  -28.0639  -31.8379   26.5370 H   0  0  0  0  0  0
  -28.2603  -38.0085   24.7505 H   0  0  0  0  0  0
  -28.1072  -36.2634   24.6282 H   0  0  0  0  0  0
  -27.2292  -37.1455   25.8858 H   0  0  0  0  0  0
  -20.9414  -29.8936   21.7139 H   0  0  0  0  0  0
  -26.0153  -38.2870   24.1438 H   0  0  0  0  0  0
  -27.7245  -18.1896   20.9528 H   0  0  0  0  0  0
  -28.5258  -18.8672   22.3349 H   0  0  0  0  0  0
  -26.7031  -20.2951   21.4097 H   0  0  0  0  0  0
  -27.5243  -20.4487   19.8994 H   0  0  0  0  0  0
  -31.3103  -21.9124   20.3826 H   0  0  0  0  0  0
  -30.4969  -21.1685   19.0538 H   0  0  0  0  0  0
  -28.5286  -22.2198   19.5182 H   0  0  0  0  0  0
  -29.6109  -18.7468   19.4656 H   0  0  0  0  0  0
  -27.5705  -22.1205   24.7052 H   0  0  0  0  0  0
  -28.8583  -21.1776   23.9931 H   0  0  0  0  0  0
  -27.1923  -20.6272   23.8424 H   0  0  0  0  0  0
  -25.9523  -23.5928   22.7541 H   0  0  0  0  0  0
  -25.5560  -21.9199   22.4057 H   0  0  0  0  0  0
  -26.1428  -22.9652   21.1288 H   0  0  0  0  0  0
  -29.4371  -24.8396   18.0704 H   0  0  0  0  0  0
  -28.0014  -25.8186   17.9231 H   0  0  0  0  0  0
  -27.8456  -24.0675   18.0008 H   0  0  0  0  0  0
  -30.3155  -24.1282   20.0959 H   0  0  0  0  0  0
  -29.5672  -24.1818   21.6100 H   0  0  0  0  0  0
  -30.7303  -17.3942   22.0119 H   0  0  0  0  0  0
  -31.4939  -17.3696   20.4582 H   0  0  0  0  0  0
  -28.2428  -23.2358   22.7503 H   0  0  0  0  0  0
  -27.3232  -24.6787   20.2704 H   0  0  0  0  0  0
  -28.9581  -15.8290   20.8877 H   0  0  0  0  0  0
  -30.4518  -20.2099   21.8361 H   0  0  0  0  0  0
  -31.5553  -19.7489   20.7411 H   0  0  0  0  0  0
  1 25  1  0  0  0
  1 30  2  0  0  0
  1 84  1  0  0  0
  2  3  1  0  0  0
  2 25  1  0  0  0
  2 86  1  0  0  0
  2 87  1  0  0  0
  3  4  1  0  0  0
  3 88  1  0  0  0
  3 89  1  0  0  0
  4  5  1  0  0  0
  4 90  1  0  0  0
  4 91  1  0  0  0
  5  6  1  0  0  0
  5 26  1  0  0  0
  5 92  1  0  0  0
  6 25  1  0  0  0
  6 93  1  0  0  0
  6 94  1  0  0  0
  7  8  2  0  0  0
  7 26  1  0  0  0
  7 29  1  0  0  0
  8  9  1  0  0  0
  8 22  1  0  0  0
  9 10  1  0  0  0
  9 27  2  0  0  0
 10 11  2  0  0  0
 10 15  1  0  0  0
 11 12  1  0  0  0
 11 95  1  0  0  0
 12 13  2  0  0  0
 12 96  1  0  0  0
 13 14  1  0  0  0
 13 31  1  0  0  0
 14 15  2  0  0  0
 14 97  1  0  0  0
 15 98  1  0  0  0
 16 17  2  0  0  0
 16 21  1  0  0  0
 16 31  1  0  0  0
 17 18  1  0  0  0
 17 99  1  0  0  0
 18 19  2  0  0  0
 18100  1  0  0  0
 19 20  1  0  0  0
 19 24  1  0  0  0
 20 21  2  0  0  0
 20101  1  0  0  0
 21 23  1  0  0  0
 22 28  1  0  0  0
 22 32  2  0  0  0
 26 27  1  0  0  0
 28102  1  0  0  0
 28103  1  0  0  0
 29104  1  0  0  0
 29105  1  0  0  0
 33 34  1  0  0  0
 33 66  1  0  0  0
 33 70  2  0  0  0
 34 36  1  0  0  0
 34 59  1  0  0  0
 34106  1  0  0  0
 35 44  2  0  0  0
 35 45  1  0  0  0
 35 68  1  0  0  0
 36 56  1  0  0  0
 36107  1  0  0  0
 37 39  1  0  0  0
 37 47  1  0  0  0
 37 66  1  0  0  0
 37108  1  0  0  0
 38 43  2  0  0  0
 38 46  1  0  0  0
 38 47  1  0  0  0
 39 64  1  0  0  0
 39 67  2  0  0  0
 40 52  1  0  0  0
 40 53  2  0  0  0
 40 58  1  0  0  0
 41109  1  0  0  0
 41110  1  0  0  0
 41111  1  0  0  0
 41 48  1  0  0  0
 42 43  1  0  0  0
 42 66  1  0  0  0
 42112  1  0  0  0
 42113  1  0  0  0
 43 44  1  0  0  0
 44114  1  0  0  0
 45 46  2  0  0  0
 45115  1  0  0  0
 46116  1  0  0  0
 47117  1  0  0  0
 47118  1  0  0  0
 48 56  1  0  0  0
 48 65  1  0  0  0
 48119  1  0  0  0
 49 50  1  0  0  0
 49 53  1  0  0  0
 49 64  1  0  0  0
 49120  1  0  0  0
 50 51  1  0  0  0
 50121  1  0  0  0
 50122  1  0  0  0
 51 52  1  0  0  0
 51123  1  0  0  0
 51124  1  0  0  0
 52125  1  0  0  0
 52126  1  0  0  0
 53 54  1  0  0  0
 54 55  2  0  0  0
 54127  1  0  0  0
 55 57  1  0  0  0
 55128  1  0  0  0
 56 69  2  0  0  0
 57 58  2  0  0  0
 57129  1  0  0  0
 58130  1  0  0  0
 59 60  1  0  0  0
 59 61  1  0  0  0
 59 62  1  0  0  0
 60131  1  0  0  0
 60132  1  0  0  0
 60133  1  0  0  0
 61134  1  0  0  0
 61135  1  0  0  0
 61136  1  0  0  0
 62137  1  0  0  0
 62138  1  0  0  0
 62139  1  0  0  0
 63 65  1  0  0  0
 63140  1  0  0  0
 63141  1  0  0  0
 63142  1  0  0  0
 64143  1  0  0  0
 65144  1  0  0  0
 68 82  1  0  0  0
 71 72  1  0  0  0
 71 75  1  0  0  0
 71145  1  0  0  0
 71146  1  0  0  0
 72 83  1  0  0  0
 72147  1  0  0  0
 72148  1  0  0  0
 73 74  1  0  0  0
 73 85  1  0  0  0
 73149  1  0  0  0
 73150  1  0  0  0
 74 79  1  0  0  0
 74 83  1  0  0  0
 74151  1  0  0  0
 75 80  1  0  0  0
 75 85  1  0  0  0
 75152  1  0  0  0
 76153  1  0  0  0
 76154  1  0  0  0
 76155  1  0  0  0
 76 81  1  0  0  0
 77 81  1  0  0  0
 77156  1  0  0  0
 77157  1  0  0  0
 77158  1  0  0  0
 78159  1  0  0  0
 78160  1  0  0  0
 78161  1  0  0  0
 78 82  1  0  0  0
 79 82  1  0  0  0
 79162  1  0  0  0
 79163  1  0  0  0
 80 84  1  0  0  0
 80164  1  0  0  0
 80165  1  0  0  0
 81 83  1  0  0  0
 81166  1  0  0  0
 82167  1  0  0  0
 84168  1  0  0  0
 85169  1  0  0  0
 85170  1  0  0  0
M  CHG  1  85   1
M  ISO  4   1 100  68 101  82 101  84 100
M  END
> <chiral flag>
0

> <version>
0

> <s_m_source_file>
/data/baiqing/PycharmProjects/Reinvent-master-3.2/result/LINK_invent/BTK/process_docking_weight1_custom_sum_contain_oxygen_bond_distance_aromatic_linkinvent_7_9_3/rearranged_h_0117.sdf

> <i_m_source_file_index>
48

> <r_mmod_Potential_Energy-OPLS-2005>
55.4306259155273

> <r_mmod_Stretch_Energy-OPLS-2005>
143.016494750977

> <r_mmod_Bend_Energy-OPLS-2005>
230.436737060547

> <r_mmod_Torsional_Energy-OPLS-2005>
301.631896972656

> <r_mmod_Improper_Torsional_Energy-OPLS-2005>
4.01584148406982

> <r_mmod_Van_der_Waal_Energy-OPLS-2005>
137.080123901367

> <r_mmod_Electrostatic_Energy-OPLS-2005>
-392.419311523438

> <r_mmod_Solvation_Energy-OPLS-2005>
-452.175170898438

> <b_mmod_Minimization_Converged-OPLS-2005>
0

> <r_mmod_RMS_Derivative-OPLS-2005>
6.28054666519165

$$$$
49
                    3D
 Structure written by MMmdl.
164172  0  0  1  0            999 V2000
  -30.6562  -14.6077   20.5417 C   0  0  0  0  0  0
  -30.4442  -12.3882   19.4385 C   0  0  0  0  0  0
  -29.5013  -12.4969   18.2225 C   0  0  0  0  0  0
  -28.0292  -12.3339   18.6489 C   0  0  0  0  0  0
  -27.6601  -13.2072   19.8743 C   0  0  2  0  0  0
  -28.7130  -13.0474   20.9984 C   0  0  0  0  0  0
  -25.2601  -13.8140   20.5579 C   0  0  0  0  0  0
  -24.1853  -13.0416   20.9146 C   0  0  0  0  0  0
  -24.6407  -11.6893   20.8772 C   0  0  0  0  0  0
  -23.9080  -10.4259   21.0439 C   0  0  0  0  0  0
  -24.3643   -9.4154   21.9197 C   0  0  0  0  0  0
  -23.6322   -8.2194   22.0764 C   0  0  0  0  0  0
  -22.4305   -8.0255   21.3552 C   0  0  0  0  0  0
  -21.9948   -9.0218   20.4650 C   0  0  0  0  0  0
  -22.7276  -10.2086   20.3061 C   0  0  0  0  0  0
  -21.6850   -6.0719   22.5268 C   0  0  0  0  0  0
  -21.4001   -6.5625   23.8191 C   0  0  0  0  0  0
  -21.3648   -5.6786   24.9158 C   0  0  0  0  0  0
  -21.6061   -4.3057   24.7209 C   0  0  0  0  0  0
  -21.8840   -3.8126   23.4338 C   0  0  0  0  0  0
  -21.9197   -4.6955   22.3394 C   0  0  0  0  0  0
  -22.7894  -13.5248   21.1774 C   0  0  0  0  0  0
  -22.1662   -4.2131   21.0965 F   0  0  0  0  0  0
  -21.5646   -3.4532   25.7718 F   0  0  0  0  0  0
  -30.0229  -13.3984   20.4320 N   0  0  0  0  0  0
  -26.3012  -12.9286   20.3369 N   0  0  0  0  0  0
  -25.9340  -11.6463   20.5884 N   0  0  0  0  0  0
  -22.0511  -12.8243   22.0311 N   0  0  0  0  0  0
  -25.4384  -15.1835   20.3882 N   0  0  0  0  0  0
  -31.7983  -14.7716   20.1109 O   0  0  0  0  0  0
  -21.6654   -6.8878   21.4240 O   0  0  0  0  0  0
  -22.3580  -14.5545   20.6610 O   0  0  0  0  0  0
  -24.6419  -31.8688   23.2071 C   0  0  0  0  0  0
  -25.9234  -32.4828   23.8422 C   0  0  1  0  0  0
  -27.2138  -27.3138   20.1549 C   0  0  0  0  0  0
  -25.5995  -33.8612   24.2363 N   0  0  0  0  0  0
  -23.4524  -30.4859   21.5633 C   0  0  2  0  0  0
  -24.8708  -28.9341   20.1132 C   0  0  0  0  0  0
  -22.7830  -29.4806   22.5231 C   0  0  0  0  0  0
  -17.9959  -28.1232   22.8685 C   0  0  0  0  0  0
  -24.1498  -36.7325   23.2627 C   0  0  0  0  0  0
  -25.9759  -30.7927   21.3738 C   0  0  0  0  0  0
  -26.0345  -29.4159   20.7231 C   0  0  0  0  0  0
  -27.2103  -28.6205   20.7232 C   0  0  0  0  0  0
  -26.0437  -26.8838   19.4918 C   0  0  0  0  0  0
  -24.8808  -27.6795   19.4742 C   0  0  0  0  0  0
  -23.6439  -29.8162   20.1747 C   0  0  0  0  0  0
  -25.4130  -36.3125   24.0356 C   0  0  1  0  0  0
  -20.4805  -28.4666   22.7732 C   0  0  2  0  0  0
  -20.6963  -26.9703   22.5289 C   0  0  0  0  0  0
  -19.5590  -26.4630   21.6165 C   0  0  0  0  0  0
  -18.1608  -26.7517   22.2084 C   0  0  0  0  0  0
  -19.1167  -28.9003   23.2460 C   0  0  0  0  0  0
  -18.9341  -30.1481   23.8743 C   0  0  0  0  0  0
  -17.6343  -30.6505   24.0769 C   0  0  0  0  0  0
  -25.9069  -34.9479   23.5169 C   0  0  0  0  0  0
  -16.5184  -29.8964   23.6685 C   0  0  0  0  0  0
  -16.6980  -28.6305   23.0833 C   0  0  0  0  0  0
  -26.4531  -31.6578   25.0787 C   0  0  0  0  0  0
  -25.3745  -31.3692   26.1484 C   0  0  0  0  0  0
  -27.0328  -30.2991   24.6200 C   0  0  0  0  0  0
  -27.6081  -32.4292   25.7570 C   0  0  0  0  0  0
  -27.5604  -37.1844   24.8473 C   0  0  0  0  0  0
  -21.4622  -29.4530   22.4003 N   0  0  0  0  0  0
  -26.4318  -37.3819   23.9405 N   0  0  0  0  0  0
  -24.7112  -31.0693   22.1046 N   0  0  0  0  0  0
  -23.4266  -28.7581   23.2875 O   0  0  0  0  0  0
  -28.3310  -26.4791   20.2456 O   0  0  0  0  0  0
  -26.5601  -34.8919   22.4699 O   0  0  0  0  0  0
  -23.5539  -32.1453   23.7327 O   0  0  0  0  0  0
  -27.9385  -22.9180   21.5680 C   0  0  0  0  0  0
  -28.8447  -23.0225   19.3728 C   0  0  0  0  0  0
  -28.4468  -22.2000   20.4538 C   0  0  0  0  0  0
  -27.8392  -24.3492   21.5759 C   0  0  0  0  0  0
  -28.2529  -25.0731   20.4048 C   0  0  0  0  0  0
  -24.8572  -24.0960   22.5898 C   0  0  0  0  0  0
  -28.0933  -26.1901   23.3918 C   0  0  0  0  0  0
  -28.3494  -20.6211   20.3114 C   0  0  0  0  0  0
  -25.7708  -25.3264   22.7649 C   0  0  0  0  0  0
  -30.2911  -17.1396   20.9595 C   0  0  0  0  0  0
  -29.0904  -18.1974   20.8801 C   0  0  0  0  0  0
  -27.2752  -24.9968   22.8581 C   0  0  1  0  0  0
  -28.7652  -24.3849   19.3542 N   0  0  0  0  0  0
  -29.9183  -15.6757   20.9820 N   0  0  0  0  0  0
  -29.4393  -19.6842   20.8094 N   0  3  0  0  0  0
  -31.4839  -12.5159   19.1220 H   0  0  0  0  0  0
  -30.3901  -11.3888   19.8741 H   0  0  0  0  0  0
  -29.7528  -11.7326   17.4839 H   0  0  0  0  0  0
  -29.6361  -13.4627   17.7334 H   0  0  0  0  0  0
  -27.8780  -11.2855   18.9001 H   0  0  0  0  0  0
  -27.3592  -12.5426   17.8150 H   0  0  0  0  0  0
  -27.6887  -14.2440   19.5459 H   0  0  0  0  0  0
  -28.7277  -12.0150   21.3491 H   0  0  0  0  0  0
  -28.4701  -13.6500   21.8749 H   0  0  0  0  0  0
  -25.2774   -9.5633   22.4798 H   0  0  0  0  0  0
  -23.9976   -7.4597   22.7544 H   0  0  0  0  0  0
  -21.0840   -8.8781   19.8986 H   0  0  0  0  0  0
  -22.3748  -10.9638   19.6184 H   0  0  0  0  0  0
  -21.1971   -7.6122   23.9690 H   0  0  0  0  0  0
  -21.1471   -6.0506   25.9067 H   0  0  0  0  0  0
  -22.0642   -2.7589   23.2841 H   0  0  0  0  0  0
  -22.4160  -11.9920   22.4667 H   0  0  0  0  0  0
  -21.1155  -13.1313   22.2579 H   0  0  0  0  0  0
  -24.6636  -15.8399   20.4309 H   0  0  0  0  0  0
  -26.2812  -15.5867   19.9962 H   0  0  0  0  0  0
  -26.7330  -32.5471   23.1161 H   0  0  0  0  0  0
  -25.0187  -33.9762   25.0545 H   0  0  0  0  0  0
  -22.7520  -31.3134   21.4160 H   0  0  0  0  0  0
  -23.3761  -35.9640   23.3307 H   0  0  0  0  0  0
  -24.3585  -36.8913   22.2020 H   0  0  0  0  0  0
  -23.7223  -37.6543   23.6630 H   0  0  0  0  0  0
  -26.0998  -31.5536   20.6032 H   0  0  0  0  0  0
  -26.8556  -30.8403   22.0027 H   0  0  0  0  0  0
  -28.1044  -28.9913   21.2057 H   0  0  0  0  0  0
  -26.0223  -25.9156   19.0109 H   0  0  0  0  0  0
  -24.0011  -27.3152   18.9678 H   0  0  0  0  0  0
  -23.7470  -30.5916   19.4131 H   0  0  0  0  0  0
  -22.7575  -29.2439   19.8904 H   0  0  0  0  0  0
  -25.1280  -36.2012   25.0859 H   0  0  0  0  0  0
  -20.1675  -28.6876   21.7524 H   0  0  0  0  0  0
  -20.6879  -26.4397   23.4814 H   0  0  0  0  0  0
  -21.6635  -26.7792   22.0682 H   0  0  0  0  0  0
  -19.6719  -25.3920   21.4404 H   0  0  0  0  0  0
  -19.6348  -26.9265   20.6306 H   0  0  0  0  0  0
  -17.4028  -26.6189   21.4368 H   0  0  0  0  0  0
  -17.9409  -26.0038   22.9694 H   0  0  0  0  0  0
  -19.7889  -30.7553   24.1472 H   0  0  0  0  0  0
  -17.4925  -31.6192   24.5376 H   0  0  0  0  0  0
  -15.5191  -30.2837   23.8146 H   0  0  0  0  0  0
  -15.8356  -28.0521   22.7862 H   0  0  0  0  0  0
  -24.5922  -30.7048   25.7807 H   0  0  0  0  0  0
  -24.8890  -32.2812   26.4956 H   0  0  0  0  0  0
  -25.8009  -30.8834   27.0259 H   0  0  0  0  0  0
  -26.2864  -29.6755   24.1245 H   0  0  0  0  0  0
  -27.4050  -29.7220   25.4677 H   0  0  0  0  0  0
  -27.8741  -30.4271   23.9385 H   0  0  0  0  0  0
  -27.2712  -33.3586   26.2150 H   0  0  0  0  0  0
  -28.3865  -32.6848   25.0395 H   0  0  0  0  0  0
  -28.0767  -31.8419   26.5450 H   0  0  0  0  0  0
  -28.2652  -38.0118   24.7528 H   0  0  0  0  0  0
  -28.1090  -36.2662   24.6318 H   0  0  0  0  0  0
  -27.2337  -37.1522   25.8881 H   0  0  0  0  0  0
  -21.0858  -30.1798   21.8076 H   0  0  0  0  0  0
  -26.0228  -38.2927   24.1319 H   0  0  0  0  0  0
  -27.5708  -22.3559   22.4195 H   0  0  0  0  0  0
  -29.1888  -22.5690   18.4553 H   0  0  0  0  0  0
  -23.9604  -24.3604   22.0288 H   0  0  0  0  0  0
  -24.5416  -23.7001   23.5583 H   0  0  0  0  0  0
  -25.3410  -23.2784   22.0539 H   0  0  0  0  0  0
  -29.1406  -25.9263   23.5382 H   0  0  0  0  0  0
  -27.7101  -26.4952   24.3661 H   0  0  0  0  0  0
  -28.0477  -27.0802   22.7655 H   0  0  0  0  0  0
  -28.2386  -20.4048   19.2456 H   0  0  0  0  0  0
  -27.4041  -20.3119   20.7596 H   0  0  0  0  0  0
  -25.4531  -25.8799   23.6532 H   0  0  0  0  0  0
  -25.5996  -26.0053   21.9322 H   0  0  0  0  0  0
  -30.9573  -17.3284   20.1161 H   0  0  0  0  0  0
  -30.8879  -17.3204   21.8595 H   0  0  0  0  0  0
  -28.4327  -18.0486   21.7383 H   0  0  0  0  0  0
  -28.4876  -17.9511   20.0028 H   0  0  0  0  0  0
  -27.3561  -24.2459   23.6474 H   0  0  0  0  0  0
  -29.0153  -15.4396   21.3714 H   0  0  0  0  0  0
  -30.2383  -19.7867   20.2057 H   0  0  0  0  0  0
  -29.7264  -19.9809   21.7256 H   0  0  0  0  0  0
  1 25  1  0  0  0
  1 30  2  0  0  0
  1 84  1  0  0  0
  2  3  1  0  0  0
  2 25  1  0  0  0
  2 86  1  0  0  0
  2 87  1  0  0  0
  3  4  1  0  0  0
  3 88  1  0  0  0
  3 89  1  0  0  0
  4  5  1  0  0  0
  4 90  1  0  0  0
  4 91  1  0  0  0
  5  6  1  0  0  0
  5 26  1  0  0  0
  5 92  1  0  0  0
  6 25  1  0  0  0
  6 93  1  0  0  0
  6 94  1  0  0  0
  7  8  2  0  0  0
  7 26  1  0  0  0
  7 29  1  0  0  0
  8  9  1  0  0  0
  8 22  1  0  0  0
  9 10  1  0  0  0
  9 27  2  0  0  0
 10 11  2  0  0  0
 10 15  1  0  0  0
 11 12  1  0  0  0
 11 95  1  0  0  0
 12 13  2  0  0  0
 12 96  1  0  0  0
 13 14  1  0  0  0
 13 31  1  0  0  0
 14 15  2  0  0  0
 14 97  1  0  0  0
 15 98  1  0  0  0
 16 17  2  0  0  0
 16 21  1  0  0  0
 16 31  1  0  0  0
 17 18  1  0  0  0
 17 99  1  0  0  0
 18 19  2  0  0  0
 18100  1  0  0  0
 19 20  1  0  0  0
 19 24  1  0  0  0
 20 21  2  0  0  0
 20101  1  0  0  0
 21 23  1  0  0  0
 22 28  1  0  0  0
 22 32  2  0  0  0
 26 27  1  0  0  0
 28102  1  0  0  0
 28103  1  0  0  0
 29104  1  0  0  0
 29105  1  0  0  0
 33 34  1  0  0  0
 33 66  1  0  0  0
 33 70  2  0  0  0
 34 36  1  0  0  0
 34 59  1  0  0  0
 34106  1  0  0  0
 35 44  2  0  0  0
 35 45  1  0  0  0
 35 68  1  0  0  0
 36 56  1  0  0  0
 36107  1  0  0  0
 37 39  1  0  0  0
 37 47  1  0  0  0
 37 66  1  0  0  0
 37108  1  0  0  0
 38 43  2  0  0  0
 38 46  1  0  0  0
 38 47  1  0  0  0
 39 64  1  0  0  0
 39 67  2  0  0  0
 40 52  1  0  0  0
 40 53  2  0  0  0
 40 58  1  0  0  0
 41109  1  0  0  0
 41110  1  0  0  0
 41111  1  0  0  0
 41 48  1  0  0  0
 42 43  1  0  0  0
 42 66  1  0  0  0
 42112  1  0  0  0
 42113  1  0  0  0
 43 44  1  0  0  0
 44114  1  0  0  0
 45 46  2  0  0  0
 45115  1  0  0  0
 46116  1  0  0  0
 47117  1  0  0  0
 47118  1  0  0  0
 48 56  1  0  0  0
 48 65  1  0  0  0
 48119  1  0  0  0
 49 50  1  0  0  0
 49 53  1  0  0  0
 49 64  1  0  0  0
 49120  1  0  0  0
 50 51  1  0  0  0
 50121  1  0  0  0
 50122  1  0  0  0
 51 52  1  0  0  0
 51123  1  0  0  0
 51124  1  0  0  0
 52125  1  0  0  0
 52126  1  0  0  0
 53 54  1  0  0  0
 54 55  2  0  0  0
 54127  1  0  0  0
 55 57  1  0  0  0
 55128  1  0  0  0
 56 69  2  0  0  0
 57 58  2  0  0  0
 57129  1  0  0  0
 58130  1  0  0  0
 59 60  1  0  0  0
 59 61  1  0  0  0
 59 62  1  0  0  0
 60131  1  0  0  0
 60132  1  0  0  0
 60133  1  0  0  0
 61134  1  0  0  0
 61135  1  0  0  0
 61136  1  0  0  0
 62137  1  0  0  0
 62138  1  0  0  0
 62139  1  0  0  0
 63 65  1  0  0  0
 63140  1  0  0  0
 63141  1  0  0  0
 63142  1  0  0  0
 64143  1  0  0  0
 65144  1  0  0  0
 68 75  1  0  0  0
 71 73  2  0  0  0
 71 74  1  0  0  0
 71145  1  0  0  0
 72 73  1  0  0  0
 72 83  2  0  0  0
 72146  1  0  0  0
 73 78  1  0  0  0
 74 75  2  0  0  0
 74 82  1  0  0  0
 75 83  1  0  0  0
 76 79  1  0  0  0
 76147  1  0  0  0
 76148  1  0  0  0
 76149  1  0  0  0
 77150  1  0  0  0
 77151  1  0  0  0
 77152  1  0  0  0
 77 82  1  0  0  0
 78 85  1  0  0  0
 78153  1  0  0  0
 78154  1  0  0  0
 79 82  1  0  0  0
 79155  1  0  0  0
 79156  1  0  0  0
 80 81  1  0  0  0
 80 84  1  0  0  0
 80157  1  0  0  0
 80158  1  0  0  0
 81 85  1  0  0  0
 81159  1  0  0  0
 81160  1  0  0  0
 82161  1  0  0  0
 84162  1  0  0  0
 85163  1  0  0  0
 85164  1  0  0  0
M  CHG  1  85   1
M  ISO  4   1 100  68 101  75 101  84 100
M  END
> <chiral flag>
0

> <version>
0

> <s_m_source_file>
/data/baiqing/PycharmProjects/Reinvent-master-3.2/result/LINK_invent/BTK/process_docking_weight1_custom_sum_contain_oxygen_bond_distance_aromatic_linkinvent_7_9_3/rearranged_h_0117.sdf

> <i_m_source_file_index>
49

> <r_mmod_Potential_Energy-OPLS-2005>
-153.209075927734

> <r_mmod_Stretch_Energy-OPLS-2005>
79.3770980834961

> <r_mmod_Bend_Energy-OPLS-2005>
246.24658203125

> <r_mmod_Torsional_Energy-OPLS-2005>
224.010864257812

> <r_mmod_Improper_Torsional_Energy-OPLS-2005>
7.20536851882935

> <r_mmod_Van_der_Waal_Energy-OPLS-2005>
134.422485351562

> <r_mmod_Electrostatic_Energy-OPLS-2005>
-403.427459716797

> <r_mmod_Solvation_Energy-OPLS-2005>
-507.868865966797

> <b_mmod_Minimization_Converged-OPLS-2005>
0

> <r_mmod_RMS_Derivative-OPLS-2005>
7.69331502914429

$$$$
50
                    3D
 Structure written by MMmdl.
180188  0  0  1  0            999 V2000
  -30.6298  -14.5306   20.4959 C   0  0  0  0  0  0
  -30.4209  -12.3283   19.4125 C   0  0  0  0  0  0
  -29.4787  -12.5003   18.2035 C   0  0  0  0  0  0
  -27.9974  -12.3714   18.6177 C   0  0  0  0  0  0
  -27.6461  -13.1972   19.8837 C   0  0  2  0  0  0
  -28.7006  -12.9855   20.9926 C   0  0  0  0  0  0
  -25.2620  -13.7921   20.6446 C   0  0  0  0  0  0
  -24.1731  -13.0242   20.9266 C   0  0  0  0  0  0
  -24.6339  -11.6734   20.8625 C   0  0  0  0  0  0
  -23.9046  -10.4179   21.0311 C   0  0  0  0  0  0
  -24.3613   -9.4137   21.9130 C   0  0  0  0  0  0
  -23.6277   -8.2203   22.0729 C   0  0  0  0  0  0
  -22.4246   -8.0250   21.3541 C   0  0  0  0  0  0
  -21.9900   -9.0206   20.4601 C   0  0  0  0  0  0
  -22.7223  -10.2070   20.2996 C   0  0  0  0  0  0
  -21.6823   -6.0734   22.5302 C   0  0  0  0  0  0
  -21.3980   -6.5632   23.8241 C   0  0  0  0  0  0
  -21.3673   -5.6799   24.9213 C   0  0  0  0  0  0
  -21.6059   -4.3062   24.7257 C   0  0  0  0  0  0
  -21.8812   -3.8184   23.4358 C   0  0  0  0  0  0
  -21.9188   -4.6990   22.3414 C   0  0  0  0  0  0
  -22.7784  -13.5100   21.1910 C   0  0  0  0  0  0
  -22.1671   -4.2199   21.1002 F   0  0  0  0  0  0
  -21.5648   -3.4542   25.7784 F   0  0  0  0  0  0
  -30.0206  -13.3127   20.4283 N   0  0  0  0  0  0
  -26.2967  -12.9162   20.3585 N   0  0  0  0  0  0
  -25.9238  -11.6299   20.5585 N   0  0  0  0  0  0
  -22.0408  -12.8104   22.0431 N   0  0  0  0  0  0
  -25.4543  -15.1613   20.6431 N   0  0  0  0  0  0
  -31.7610  -14.7427   20.0624 O   0  0  0  0  0  0
  -21.6616   -6.8855   21.4261 O   0  0  0  0  0  0
  -22.3570  -14.5506   20.6840 O   0  0  0  0  0  0
  -24.6124  -31.8702   23.2151 C   0  0  0  0  0  0
  -25.9031  -32.4842   23.8425 C   0  0  1  0  0  0
  -27.2530  -27.4953   20.0499 C   0  0  0  0  0  0
  -25.5937  -33.8644   24.2393 N   0  0  0  0  0  0
  -23.3989  -30.4880   21.5562 C   0  0  2  0  0  0
  -24.8437  -28.9512   20.1262 C   0  0  0  0  0  0
  -22.7385  -29.4650   22.5075 C   0  0  0  0  0  0
  -18.0257  -28.1400   22.8513 C   0  0  0  0  0  0
  -24.1478  -36.7318   23.2636 C   0  0  0  0  0  0
  -25.9197  -30.8448   21.3588 C   0  0  0  0  0  0
  -26.0028  -29.4844   20.7044 C   0  0  0  0  0  0
  -27.2115  -28.7608   20.6619 C   0  0  0  0  0  0
  -26.0773  -26.9554   19.4847 C   0  0  0  0  0  0
  -24.8708  -27.6782   19.5247 C   0  0  0  0  0  0
  -23.6024  -29.8081   20.1760 C   0  0  0  0  0  0
  -25.4108  -36.3132   24.0333 C   0  0  1  0  0  0
  -20.5854  -28.3661   23.1365 C   0  0  2  0  0  0
  -20.6751  -26.9404   22.5445 C   0  0  0  0  0  0
  -19.5721  -26.6393   21.5235 C   0  0  0  0  0  0
  -18.1881  -26.7968   22.1616 C   0  0  0  0  0  0
  -19.1511  -28.8843   23.2925 C   0  0  0  0  0  0
  -18.9448  -30.1462   23.8911 C   0  0  0  0  0  0
  -17.6439  -30.6591   24.0592 C   0  0  0  0  0  0
  -25.9034  -34.9483   23.5147 C   0  0  0  0  0  0
  -16.5328  -29.9108   23.6352 C   0  0  0  0  0  0
  -16.7241  -28.6543   23.0350 C   0  0  0  0  0  0
  -26.4475  -31.6613   25.0755 C   0  0  0  0  0  0
  -25.3747  -31.3666   26.1506 C   0  0  0  0  0  0
  -27.0336  -30.3072   24.6119 C   0  0  0  0  0  0
  -27.6060  -32.4351   25.7516 C   0  0  0  0  0  0
  -27.5593  -37.1801   24.8443 C   0  0  0  0  0  0
  -21.4120  -29.3047   22.3798 N   0  0  0  0  0  0
  -26.4295  -37.3813   23.9407 N   0  0  0  0  0  0
  -24.6622  -31.0824   22.1030 N   0  0  0  0  0  0
  -23.4134  -28.8200   23.3133 O   0  0  0  0  0  0
  -28.4388  -26.8152   19.9768 O   0  0  0  0  0  0
  -26.5567  -34.8906   22.4694 O   0  0  0  0  0  0
  -23.5343  -32.1463   23.7561 O   0  0  0  0  0  0
  -28.5036  -19.6920   21.1421 C   0  0  0  0  0  0
  -28.2439  -21.0376   21.4368 C   0  0  0  0  0  0
  -29.1354  -19.3317   19.9223 C   0  0  0  0  0  0
  -29.4081  -20.4219   19.0240 C   0  0  0  0  0  0
  -28.5923  -22.0175   20.5107 C   0  0  0  0  0  0
  -29.9570  -20.2850   17.6074 C   0  0  0  0  0  0
  -24.6322  -15.5750   17.3999 C   0  0  0  0  0  0
  -24.7716  -17.9794   18.1631 C   0  0  0  0  0  0
  -27.3453  -15.7278   16.1955 C   0  0  0  0  0  0
  -31.3158  -17.4571   21.4590 C   0  0  0  0  0  0
  -27.9243  -17.7522   17.6361 C   0  0  0  0  0  0
  -28.4981  -25.6485   20.7793 C   0  0  0  0  0  0
  -28.6915  -24.3765   19.9417 C   0  0  0  0  0  0
  -29.4867  -17.8295   19.6391 C   0  0  1  0  0  0
  -25.5796  -16.7145   17.8283 C   0  0  0  0  0  0
  -26.7945  -16.9793   16.9044 C   0  0  2  0  0  0
  -29.9429  -17.0053   20.9252 C   0  0  1  0  0  0
  -29.1383  -21.7156   19.3211 N   0  0  0  0  0  0
  -29.7975  -15.5260   20.8729 N   0  0  0  0  0  0
  -28.4083  -17.1191   18.8952 N   0  3  0  0  0  0
  -28.3653  -23.3278   20.8460 O   0  0  0  0  0  0
  -31.4533  -12.4643   19.0938 H   0  0  0  0  0  0
  -30.3592  -11.3145   19.8127 H   0  0  0  0  0  0
  -29.7159  -11.7666   17.4334 H   0  0  0  0  0  0
  -29.6425  -13.4756   17.7433 H   0  0  0  0  0  0
  -27.7867  -11.3162   18.7818 H   0  0  0  0  0  0
  -27.3555  -12.6759   17.7904 H   0  0  0  0  0  0
  -27.6625  -14.2438   19.5880 H   0  0  0  0  0  0
  -28.6932  -11.9461   21.3284 H   0  0  0  0  0  0
  -28.4569  -13.5793   21.8761 H   0  0  0  0  0  0
  -25.2734   -9.5617   22.4699 H   0  0  0  0  0  0
  -23.9973   -7.4598   22.7438 H   0  0  0  0  0  0
  -21.0840   -8.8703   19.8883 H   0  0  0  0  0  0
  -22.3693  -10.9607   19.6118 H   0  0  0  0  0  0
  -21.1938   -7.6139   23.9771 H   0  0  0  0  0  0
  -21.1483   -6.0525   25.9114 H   0  0  0  0  0  0
  -22.0577   -2.7671   23.2881 H   0  0  0  0  0  0
  -22.3989  -11.9678   22.4669 H   0  0  0  0  0  0
  -21.1010  -13.1069   22.2653 H   0  0  0  0  0  0
  -24.6619  -15.7101   20.9508 H   0  0  0  0  0  0
  -26.3082  -15.5010   21.0558 H   0  0  0  0  0  0
  -26.7094  -32.5539   23.1185 H   0  0  0  0  0  0
  -25.0125  -33.9810   25.0563 H   0  0  0  0  0  0
  -22.6885  -31.3043   21.4117 H   0  0  0  0  0  0
  -23.3768  -35.9614   23.3256 H   0  0  0  0  0  0
  -24.3609  -36.9007   22.2066 H   0  0  0  0  0  0
  -23.7171  -37.6469   23.6702 H   0  0  0  0  0  0
  -26.0282  -31.6146   20.5905 H   0  0  0  0  0  0
  -26.8088  -30.8986   21.9756 H   0  0  0  0  0  0
  -28.1155  -29.1800   21.0799 H   0  0  0  0  0  0
  -26.0995  -25.9896   18.9969 H   0  0  0  0  0  0
  -23.9747  -27.2616   19.0849 H   0  0  0  0  0  0
  -23.6970  -30.5731   19.4052 H   0  0  0  0  0  0
  -22.7307  -29.2153   19.8907 H   0  0  0  0  0  0
  -25.1285  -36.1980   25.0821 H   0  0  0  0  0  0
  -20.9903  -28.3197   24.1499 H   0  0  0  0  0  0
  -20.5675  -26.2254   23.3619 H   0  0  0  0  0  0
  -21.6621  -26.7456   22.1213 H   0  0  0  0  0  0
  -19.6850  -25.6299   21.1265 H   0  0  0  0  0  0
  -19.6672  -27.3221   20.6776 H   0  0  0  0  0  0
  -17.4181  -26.6804   21.3975 H   0  0  0  0  0  0
  -18.0189  -26.0082   22.8962 H   0  0  0  0  0  0
  -19.7895  -30.7338   24.2259 H   0  0  0  0  0  0
  -17.4953  -31.6274   24.5195 H   0  0  0  0  0  0
  -15.5319  -30.2987   23.7689 H   0  0  0  0  0  0
  -15.8645  -28.0853   22.7037 H   0  0  0  0  0  0
  -24.5969  -30.6971   25.7835 H   0  0  0  0  0  0
  -24.8883  -32.2778   26.4987 H   0  0  0  0  0  0
  -25.8126  -30.8826   27.0242 H   0  0  0  0  0  0
  -26.2874  -29.6794   24.1252 H   0  0  0  0  0  0
  -27.4206  -29.7378   25.4579 H   0  0  0  0  0  0
  -27.8644  -30.4455   23.9203 H   0  0  0  0  0  0
  -27.2678  -33.3644   26.2109 H   0  0  0  0  0  0
  -28.3837  -32.6935   25.0313 H   0  0  0  0  0  0
  -28.0730  -31.8460   26.5411 H   0  0  0  0  0  0
  -28.2557  -38.0158   24.7625 H   0  0  0  0  0  0
  -28.1181  -36.2727   24.6125 H   0  0  0  0  0  0
  -27.2353  -37.1231   25.8852 H   0  0  0  0  0  0
  -20.9292  -29.8765   21.6997 H   0  0  0  0  0  0
  -26.0189  -38.2873   24.1506 H   0  0  0  0  0  0
  -28.2043  -18.9713   21.8849 H   0  0  0  0  0  0
  -27.7890  -21.3239   22.3743 H   0  0  0  0  0  0
  -30.7503  -19.5467   17.5115 H   0  0  0  0  0  0
  -30.3592  -21.2396   17.2509 H   0  0  0  0  0  0
  -29.1552  -20.0468   16.9097 H   0  0  0  0  0  0
  -23.8564  -15.4183   18.1543 H   0  0  0  0  0  0
  -25.1564  -14.6229   17.3085 H   0  0  0  0  0  0
  -24.1318  -15.7907   16.4568 H   0  0  0  0  0  0
  -24.0077  -17.7648   18.9139 H   0  0  0  0  0  0
  -24.2623  -18.3759   17.2856 H   0  0  0  0  0  0
  -25.3972  -18.7695   18.5744 H   0  0  0  0  0  0
  -28.1794  -15.9851   15.5397 H   0  0  0  0  0  0
  -26.5895  -15.2787   15.5494 H   0  0  0  0  0  0
  -27.6859  -14.9649   16.8955 H   0  0  0  0  0  0
  -31.2570  -18.4492   21.9113 H   0  0  0  0  0  0
  -32.0512  -17.5009   20.6558 H   0  0  0  0  0  0
  -31.7021  -16.7850   22.2268 H   0  0  0  0  0  0
  -27.5494  -18.7497   17.8544 H   0  0  0  0  0  0
  -28.7634  -17.8709   16.9524 H   0  0  0  0  0  0
  -29.3251  -25.7639   21.4803 H   0  0  0  0  0  0
  -27.5985  -25.5490   21.3911 H   0  0  0  0  0  0
  -29.7159  -24.3142   19.5661 H   0  0  0  0  0  0
  -28.0151  -24.3573   19.0834 H   0  0  0  0  0  0
  -30.3472  -17.8392   18.9700 H   0  0  0  0  0  0
  -26.0260  -16.3970   18.7511 H   0  0  0  0  0  0
  -26.4433  -17.6275   16.1017 H   0  0  0  0  0  0
  -29.2358  -17.2055   21.7284 H   0  0  0  0  0  0
  -28.9554  -15.1728   21.3049 H   0  0  0  0  0  0
  -28.7686  -16.2062   18.6644 H   0  0  0  0  0  0
  -27.6213  -17.0040   19.5100 H   0  0  0  0  0  0
  1 25  1  0  0  0
  1 30  2  0  0  0
  1 89  1  0  0  0
  2  3  1  0  0  0
  2 25  1  0  0  0
  2 92  1  0  0  0
  2 93  1  0  0  0
  3  4  1  0  0  0
  3 94  1  0  0  0
  3 95  1  0  0  0
  4  5  1  0  0  0
  4 96  1  0  0  0
  4 97  1  0  0  0
  5  6  1  0  0  0
  5 26  1  0  0  0
  5 98  1  0  0  0
  6 25  1  0  0  0
  6 99  1  0  0  0
  6100  1  0  0  0
  7  8  2  0  0  0
  7 26  1  0  0  0
  7 29  1  0  0  0
  8  9  1  0  0  0
  8 22  1  0  0  0
  9 10  1  0  0  0
  9 27  2  0  0  0
 10 11  2  0  0  0
 10 15  1  0  0  0
 11 12  1  0  0  0
 11101  1  0  0  0
 12 13  2  0  0  0
 12102  1  0  0  0
 13 14  1  0  0  0
 13 31  1  0  0  0
 14 15  2  0  0  0
 14103  1  0  0  0
 15104  1  0  0  0
 16 17  2  0  0  0
 16 21  1  0  0  0
 16 31  1  0  0  0
 17 18  1  0  0  0
 17105  1  0  0  0
 18 19  2  0  0  0
 18106  1  0  0  0
 19 20  1  0  0  0
 19 24  1  0  0  0
 20 21  2  0  0  0
 20107  1  0  0  0
 21 23  1  0  0  0
 22 28  1  0  0  0
 22 32  2  0  0  0
 26 27  1  0  0  0
 28108  1  0  0  0
 28109  1  0  0  0
 29110  1  0  0  0
 29111  1  0  0  0
 33 34  1  0  0  0
 33 66  1  0  0  0
 33 70  2  0  0  0
 34 36  1  0  0  0
 34 59  1  0  0  0
 34112  1  0  0  0
 35 44  2  0  0  0
 35 45  1  0  0  0
 35 68  1  0  0  0
 36 56  1  0  0  0
 36113  1  0  0  0
 37 39  1  0  0  0
 37 47  1  0  0  0
 37 66  1  0  0  0
 37114  1  0  0  0
 38 43  2  0  0  0
 38 46  1  0  0  0
 38 47  1  0  0  0
 39 64  1  0  0  0
 39 67  2  0  0  0
 40 52  1  0  0  0
 40 53  2  0  0  0
 40 58  1  0  0  0
 41115  1  0  0  0
 41116  1  0  0  0
 41117  1  0  0  0
 41 48  1  0  0  0
 42 43  1  0  0  0
 42 66  1  0  0  0
 42118  1  0  0  0
 42119  1  0  0  0
 43 44  1  0  0  0
 44120  1  0  0  0
 45 46  2  0  0  0
 45121  1  0  0  0
 46122  1  0  0  0
 47123  1  0  0  0
 47124  1  0  0  0
 48 56  1  0  0  0
 48 65  1  0  0  0
 48125  1  0  0  0
 49 50  1  0  0  0
 49 53  1  0  0  0
 49 64  1  0  0  0
 49126  1  0  0  0
 50 51  1  0  0  0
 50127  1  0  0  0
 50128  1  0  0  0
 51 52  1  0  0  0
 51129  1  0  0  0
 51130  1  0  0  0
 52131  1  0  0  0
 52132  1  0  0  0
 53 54  1  0  0  0
 54 55  2  0  0  0
 54133  1  0  0  0
 55 57  1  0  0  0
 55134  1  0  0  0
 56 69  2  0  0  0
 57 58  2  0  0  0
 57135  1  0  0  0
 58136  1  0  0  0
 59 60  1  0  0  0
 59 61  1  0  0  0
 59 62  1  0  0  0
 60137  1  0  0  0
 60138  1  0  0  0
 60139  1  0  0  0
 61140  1  0  0  0
 61141  1  0  0  0
 61142  1  0  0  0
 62143  1  0  0  0
 62144  1  0  0  0
 62145  1  0  0  0
 63 65  1  0  0  0
 63146  1  0  0  0
 63147  1  0  0  0
 63148  1  0  0  0
 64149  1  0  0  0
 65150  1  0  0  0
 68 82  1  0  0  0
 71 72  2  0  0  0
 71 73  1  0  0  0
 71151  1  0  0  0
 72 75  1  0  0  0
 72152  1  0  0  0
 73 74  2  0  0  0
 73 84  1  0  0  0
 74 76  1  0  0  0
 74 88  1  0  0  0
 75 88  2  0  0  0
 75 91  1  0  0  0
 76153  1  0  0  0
 76154  1  0  0  0
 76155  1  0  0  0
 77156  1  0  0  0
 77157  1  0  0  0
 77158  1  0  0  0
 77 85  1  0  0  0
 78 85  1  0  0  0
 78159  1  0  0  0
 78160  1  0  0  0
 78161  1  0  0  0
 79162  1  0  0  0
 79163  1  0  0  0
 79164  1  0  0  0
 79 86  1  0  0  0
 80165  1  0  0  0
 80166  1  0  0  0
 80167  1  0  0  0
 80 87  1  0  0  0
 81 86  1  0  0  0
 81 90  1  0  0  0
 81168  1  0  0  0
 81169  1  0  0  0
 82 83  1  0  0  0
 82170  1  0  0  0
 82171  1  0  0  0
 83 91  1  0  0  0
 83172  1  0  0  0
 83173  1  0  0  0
 84 87  1  0  0  0
 84 90  1  0  0  0
 84174  1  0  0  0
 85 86  1  0  0  0
 85175  1  0  0  0
 86176  1  0  0  0
 87 89  1  0  0  0
 87177  1  0  0  0
 89178  1  0  0  0
 90179  1  0  0  0
 90180  1  0  0  0
M  CHG  1  90   1
M  ISO  4   1 100  68 101  82 101  89 100
M  END
> <chiral flag>
0

> <version>
0

> <s_m_source_file>
/data/baiqing/PycharmProjects/Reinvent-master-3.2/result/LINK_invent/BTK/process_docking_weight1_custom_sum_contain_oxygen_bond_distance_aromatic_linkinvent_7_9_3/rearranged_h_0117.sdf

> <i_m_source_file_index>
50

> <r_mmod_Potential_Energy-OPLS-2005>
-323.532867431641

> <r_mmod_Stretch_Energy-OPLS-2005>
48.5034255981445

> <r_mmod_Bend_Energy-OPLS-2005>
139.506072998047

> <r_mmod_Torsional_Energy-OPLS-2005>
277.158416748047

> <r_mmod_Improper_Torsional_Energy-OPLS-2005>
9.7276439666748

> <r_mmod_Van_der_Waal_Energy-OPLS-2005>
156.861190795898

> <r_mmod_Electrostatic_Energy-OPLS-2005>
-532.391540527344

> <r_mmod_Solvation_Energy-OPLS-2005>
-447.324035644531

> <b_mmod_Minimization_Converged-OPLS-2005>
0

> <r_mmod_RMS_Derivative-OPLS-2005>
6.85623121261597

$$$$
51
                    3D
 Structure written by MMmdl.
168177  0  0  1  0            999 V2000
  -30.6652  -14.8452   20.4606 C   0  0  0  0  0  0
  -30.4119  -12.5436   19.4757 C   0  0  0  0  0  0
  -29.4998  -12.5100   18.2335 C   0  0  0  0  0  0
  -28.0357  -12.3120   18.6639 C   0  0  0  0  0  0
  -27.6246  -13.2516   19.8310 C   0  0  2  0  0  0
  -28.6728  -13.2875   20.9628 C   0  0  0  0  0  0
  -25.2455  -13.8228   20.5731 C   0  0  0  0  0  0
  -24.1770  -13.0450   20.9222 C   0  0  0  0  0  0
  -24.6381  -11.6939   20.8754 C   0  0  0  0  0  0
  -23.9072  -10.4303   21.0411 C   0  0  0  0  0  0
  -24.3634   -9.4208   21.9175 C   0  0  0  0  0  0
  -23.6293   -8.2242   22.0750 C   0  0  0  0  0  0
  -22.4265   -8.0283   21.3554 C   0  0  0  0  0  0
  -21.9911   -9.0262   20.4653 C   0  0  0  0  0  0
  -22.7255  -10.2133   20.3053 C   0  0  0  0  0  0
  -21.6857   -6.0733   22.5285 C   0  0  0  0  0  0
  -21.4021   -6.5632   23.8219 C   0  0  0  0  0  0
  -21.3657   -5.6785   24.9180 C   0  0  0  0  0  0
  -21.6029   -4.3050   24.7234 C   0  0  0  0  0  0
  -21.8817   -3.8142   23.4360 C   0  0  0  0  0  0
  -21.9191   -4.6959   22.3417 C   0  0  0  0  0  0
  -22.7789  -13.5221   21.1862 C   0  0  0  0  0  0
  -22.1667   -4.2146   21.1003 F   0  0  0  0  0  0
  -21.5622   -3.4538   25.7752 F   0  0  0  0  0  0
  -29.9432  -13.6666   20.3378 N   0  0  0  0  0  0
  -26.2874  -12.9465   20.3259 N   0  0  0  0  0  0
  -25.9315  -11.6594   20.5727 N   0  0  0  0  0  0
  -22.0431  -12.8233   22.0428 N   0  0  0  0  0  0
  -25.4099  -15.1955   20.4176 N   0  0  0  0  0  0
  -31.8830  -14.7376   20.2719 O   0  0  0  0  0  0
  -21.6627   -6.8880   21.4249 O   0  0  0  0  0  0
  -22.3471  -14.5512   20.6678 O   0  0  0  0  0  0
  -24.6371  -31.8507   23.1930 C   0  0  0  0  0  0
  -25.9163  -32.4728   23.8311 C   0  0  1  0  0  0
  -27.2086  -27.1996   20.1468 C   0  0  0  0  0  0
  -25.5939  -33.8530   24.2230 N   0  0  0  0  0  0
  -23.4376  -30.4712   21.5367 C   0  0  2  0  0  0
  -24.8848  -28.9078   20.1107 C   0  0  0  0  0  0
  -22.7539  -29.4573   22.4868 C   0  0  0  0  0  0
  -18.0307  -28.1399   22.8477 C   0  0  0  0  0  0
  -24.1489  -36.7269   23.2642 C   0  0  0  0  0  0
  -25.9876  -30.7412   21.3857 C   0  0  0  0  0  0
  -26.0574  -29.3575   20.7329 C   0  0  0  0  0  0
  -27.2234  -28.5146   20.7423 C   0  0  0  0  0  0
  -26.0207  -26.8407   19.4765 C   0  0  0  0  0  0
  -24.8744  -27.6592   19.4717 C   0  0  0  0  0  0
  -23.6601  -29.8038   20.1542 C   0  0  0  0  0  0
  -25.4112  -36.3046   24.0327 C   0  0  1  0  0  0
  -20.5912  -28.3715   23.1247 C   0  0  2  0  0  0
  -20.6777  -26.9423   22.5407 C   0  0  0  0  0  0
  -19.5753  -26.6394   21.5204 C   0  0  0  0  0  0
  -18.1939  -26.7944   22.1613 C   0  0  0  0  0  0
  -19.1560  -28.8873   23.2858 C   0  0  0  0  0  0
  -18.9475  -30.1463   23.8890 C   0  0  0  0  0  0
  -17.6468  -30.6595   24.0563 C   0  0  0  0  0  0
  -25.9061  -34.9423   23.5082 C   0  0  0  0  0  0
  -16.5360  -29.9083   23.6334 C   0  0  0  0  0  0
  -16.7290  -28.6504   23.0351 C   0  0  0  0  0  0
  -26.4517  -31.6572   25.0722 C   0  0  0  0  0  0
  -25.3733  -31.3749   26.1446 C   0  0  0  0  0  0
  -27.0378  -30.2976   24.6272 C   0  0  0  0  0  0
  -27.6062  -32.4336   25.7489 C   0  0  0  0  0  0
  -27.5584  -37.1783   24.8463 C   0  0  0  0  0  0
  -21.4234  -29.3055   22.3627 N   0  0  0  0  0  0
  -26.4280  -37.3752   23.9428 N   0  0  0  0  0  0
  -24.7063  -31.0417   22.0953 N   0  0  0  0  0  0
  -23.4205  -28.8123   23.2999 O   0  0  0  0  0  0
  -28.2753  -26.2507   20.1578 O   0  0  0  0  0  0
  -26.5632  -34.8909   22.4657 O   0  0  0  0  0  0
  -23.5489  -32.1362   23.7180 O   0  0  0  0  0  0
  -27.6720  -22.1404   21.2721 C   0  0  0  0  0  0
  -28.9584  -23.7382   20.0210 C   0  0  0  0  0  0
  -28.7900  -22.3333   20.4374 C   0  0  0  0  0  0
  -26.8657  -23.2405   21.6535 C   0  0  0  0  0  0
  -28.1097  -24.8397   20.4663 C   0  0  0  0  0  0
  -30.4654  -18.5934   19.3282 C   0  0  0  0  0  0
  -28.6477  -18.4438   20.8265 C   0  0  0  0  0  0
  -31.0370  -17.2015   19.7793 C   0  0  0  0  0  0
  -29.0817  -16.8953   21.1686 C   0  0  0  0  0  0
  -29.7967  -19.4639   20.4400 C   0  0  0  0  0  0
  -25.6542  -23.0203   22.5338 C   0  0  0  0  0  0
  -31.4795  -22.0477   21.7570 C   0  0  0  0  0  0
  -29.7861  -21.1074   20.0306 C   0  0  2  0  0  0
  -31.2685  -21.5632   20.3052 C   0  0  1  0  0  0
  -27.0846  -24.5291   21.2884 N   0  0  0  0  0  0
  -30.1093  -16.1579   20.3276 N   0  0  0  0  0  0
  -31.7893  -22.5449   19.3316 N   0  3  0  0  0  0
  -31.4494  -12.6533   19.1562 H   0  0  0  0  0  0
  -30.3740  -11.5975   20.0159 H   0  0  0  0  0  0
  -29.8081  -11.7146   17.5546 H   0  0  0  0  0  0
  -29.5994  -13.4421   17.6750 H   0  0  0  0  0  0
  -27.9292  -11.2729   18.9780 H   0  0  0  0  0  0
  -27.3677  -12.4402   17.8114 H   0  0  0  0  0  0
  -27.5859  -14.2548   19.4035 H   0  0  0  0  0  0
  -28.7523  -12.3201   21.4606 H   0  0  0  0  0  0
  -28.3912  -14.0106   21.7288 H   0  0  0  0  0  0
  -25.2793   -9.5665   22.4732 H   0  0  0  0  0  0
  -24.0009   -7.4626   22.7459 H   0  0  0  0  0  0
  -21.0842   -8.8781   19.8962 H   0  0  0  0  0  0
  -22.3722  -10.9664   19.6146 H   0  0  0  0  0  0
  -21.2023   -7.6137   23.9725 H   0  0  0  0  0  0
  -21.1473   -6.0515   25.9081 H   0  0  0  0  0  0
  -22.0592   -2.7603   23.2861 H   0  0  0  0  0  0
  -22.4068  -11.9947   22.4904 H   0  0  0  0  0  0
  -21.1017  -13.1222   22.2543 H   0  0  0  0  0  0
  -24.6390  -15.8450   20.5279 H   0  0  0  0  0  0
  -26.2614  -15.6409   20.1014 H   0  0  0  0  0  0
  -26.7232  -32.5350   23.1040 H   0  0  0  0  0  0
  -25.0075  -33.9662   25.0370 H   0  0  0  0  0  0
  -22.7364  -31.2948   21.3855 H   0  0  0  0  0  0
  -23.3752  -35.9595   23.3263 H   0  0  0  0  0  0
  -24.3598  -36.8936   22.2068 H   0  0  0  0  0  0
  -23.7226  -37.6456   23.6691 H   0  0  0  0  0  0
  -26.1363  -31.4932   20.6093 H   0  0  0  0  0  0
  -26.8622  -30.7925   22.0225 H   0  0  0  0  0  0
  -28.1194  -28.8525   21.2451 H   0  0  0  0  0  0
  -25.9634  -25.8811   18.9829 H   0  0  0  0  0  0
  -23.9795  -27.3102   18.9743 H   0  0  0  0  0  0
  -23.7923  -30.5793   19.3983 H   0  0  0  0  0  0
  -22.7766  -29.2418   19.8464 H   0  0  0  0  0  0
  -25.1280  -36.1890   25.0813 H   0  0  0  0  0  0
  -21.0011  -28.3306   24.1360 H   0  0  0  0  0  0
  -20.5656  -26.2328   23.3620 H   0  0  0  0  0  0
  -21.6649  -26.7422   22.1216 H   0  0  0  0  0  0
  -19.6910  -25.6302   21.1242 H   0  0  0  0  0  0
  -19.6696  -27.3194   20.6726 H   0  0  0  0  0  0
  -17.4206  -26.6696   21.4018 H   0  0  0  0  0  0
  -18.0332  -26.0092   22.9017 H   0  0  0  0  0  0
  -19.7951  -30.7281   24.2264 H   0  0  0  0  0  0
  -17.5026  -31.6276   24.5163 H   0  0  0  0  0  0
  -15.5359  -30.2973   23.7677 H   0  0  0  0  0  0
  -15.8693  -28.0819   22.7061 H   0  0  0  0  0  0
  -24.5881  -30.7126   25.7784 H   0  0  0  0  0  0
  -24.8951  -32.2924   26.4887 H   0  0  0  0  0  0
  -25.8044  -30.8916   27.0222 H   0  0  0  0  0  0
  -26.2990  -29.6704   24.1272 H   0  0  0  0  0  0
  -27.3997  -29.7268   25.4833 H   0  0  0  0  0  0
  -27.8891  -30.4216   23.9573 H   0  0  0  0  0  0
  -27.2670  -33.3654   26.2028 H   0  0  0  0  0  0
  -28.3887  -32.6884   25.0327 H   0  0  0  0  0  0
  -28.0718  -31.8496   26.5439 H   0  0  0  0  0  0
  -28.2569  -38.0108   24.7532 H   0  0  0  0  0  0
  -28.1106  -36.2642   24.6235 H   0  0  0  0  0  0
  -27.2321  -37.1377   25.8869 H   0  0  0  0  0  0
  -20.9423  -29.8786   21.6836 H   0  0  0  0  0  0
  -26.0149  -38.2821   24.1439 H   0  0  0  0  0  0
  -27.4271  -21.1480   21.6253 H   0  0  0  0  0  0
  -29.7454  -24.0166   19.3417 H   0  0  0  0  0  0
  -29.7557  -18.4390   18.5120 H   0  0  0  0  0  0
  -31.2848  -19.1345   18.8604 H   0  0  0  0  0  0
  -28.1045  -18.8433   21.6829 H   0  0  0  0  0  0
  -27.9117  -18.4256   20.0201 H   0  0  0  0  0  0
  -31.8153  -17.3827   20.5234 H   0  0  0  0  0  0
  -31.5522  -16.7930   18.9082 H   0  0  0  0  0  0
  -28.1798  -16.2883   21.2111 H   0  0  0  0  0  0
  -29.4793  -16.8895   22.1853 H   0  0  0  0  0  0
  -30.4332  -19.4190   21.3239 H   0  0  0  0  0  0
  -24.9531  -22.3465   22.0405 H   0  0  0  0  0  0
  -25.1323  -23.9538   22.7467 H   0  0  0  0  0  0
  -25.9508  -22.5738   23.4835 H   0  0  0  0  0  0
  -31.0617  -21.3377   22.4706 H   0  0  0  0  0  0
  -31.0085  -23.0125   21.9458 H   0  0  0  0  0  0
  -32.5401  -22.1463   21.9869 H   0  0  0  0  0  0
  -29.6422  -21.0840   18.9497 H   0  0  0  0  0  0
  -31.9379  -20.7136   20.1793 H   0  0  0  0  0  0
  -31.3185  -23.4265   19.4208 H   0  0  0  0  0  0
  -31.6768  -22.2130   18.3888 H   0  0  0  0  0  0
  -32.7714  -22.6987   19.4817 H   0  0  0  0  0  0
  1 25  1  0  0  0
  1 30  2  0  0  0
  1 86  1  0  0  0
  2  3  1  0  0  0
  2 25  1  0  0  0
  2 88  1  0  0  0
  2 89  1  0  0  0
  3  4  1  0  0  0
  3 90  1  0  0  0
  3 91  1  0  0  0
  4  5  1  0  0  0
  4 92  1  0  0  0
  4 93  1  0  0  0
  5  6  1  0  0  0
  5 26  1  0  0  0
  5 94  1  0  0  0
  6 25  1  0  0  0
  6 95  1  0  0  0
  6 96  1  0  0  0
  7  8  2  0  0  0
  7 26  1  0  0  0
  7 29  1  0  0  0
  8  9  1  0  0  0
  8 22  1  0  0  0
  9 10  1  0  0  0
  9 27  2  0  0  0
 10 11  2  0  0  0
 10 15  1  0  0  0
 11 12  1  0  0  0
 11 97  1  0  0  0
 12 13  2  0  0  0
 12 98  1  0  0  0
 13 14  1  0  0  0
 13 31  1  0  0  0
 14 15  2  0  0  0
 14 99  1  0  0  0
 15100  1  0  0  0
 16 17  2  0  0  0
 16 21  1  0  0  0
 16 31  1  0  0  0
 17 18  1  0  0  0
 17101  1  0  0  0
 18 19  2  0  0  0
 18102  1  0  0  0
 19 20  1  0  0  0
 19 24  1  0  0  0
 20 21  2  0  0  0
 20103  1  0  0  0
 21 23  1  0  0  0
 22 28  1  0  0  0
 22 32  2  0  0  0
 26 27  1  0  0  0
 28104  1  0  0  0
 28105  1  0  0  0
 29106  1  0  0  0
 29107  1  0  0  0
 33 34  1  0  0  0
 33 66  1  0  0  0
 33 70  2  0  0  0
 34 36  1  0  0  0
 34 59  1  0  0  0
 34108  1  0  0  0
 35 44  2  0  0  0
 35 45  1  0  0  0
 35 68  1  0  0  0
 36 56  1  0  0  0
 36109  1  0  0  0
 37 39  1  0  0  0
 37 47  1  0  0  0
 37 66  1  0  0  0
 37110  1  0  0  0
 38 43  2  0  0  0
 38 46  1  0  0  0
 38 47  1  0  0  0
 39 64  1  0  0  0
 39 67  2  0  0  0
 40 52  1  0  0  0
 40 53  2  0  0  0
 40 58  1  0  0  0
 41111  1  0  0  0
 41112  1  0  0  0
 41113  1  0  0  0
 41 48  1  0  0  0
 42 43  1  0  0  0
 42 66  1  0  0  0
 42114  1  0  0  0
 42115  1  0  0  0
 43 44  1  0  0  0
 44116  1  0  0  0
 45 46  2  0  0  0
 45117  1  0  0  0
 46118  1  0  0  0
 47119  1  0  0  0
 47120  1  0  0  0
 48 56  1  0  0  0
 48 65  1  0  0  0
 48121  1  0  0  0
 49 50  1  0  0  0
 49 53  1  0  0  0
 49 64  1  0  0  0
 49122  1  0  0  0
 50 51  1  0  0  0
 50123  1  0  0  0
 50124  1  0  0  0
 51 52  1  0  0  0
 51125  1  0  0  0
 51126  1  0  0  0
 52127  1  0  0  0
 52128  1  0  0  0
 53 54  1  0  0  0
 54 55  2  0  0  0
 54129  1  0  0  0
 55 57  1  0  0  0
 55130  1  0  0  0
 56 69  2  0  0  0
 57 58  2  0  0  0
 57131  1  0  0  0
 58132  1  0  0  0
 59 60  1  0  0  0
 59 61  1  0  0  0
 59 62  1  0  0  0
 60133  1  0  0  0
 60134  1  0  0  0
 60135  1  0  0  0
 61136  1  0  0  0
 61137  1  0  0  0
 61138  1  0  0  0
 62139  1  0  0  0
 62140  1  0  0  0
 62141  1  0  0  0
 63 65  1  0  0  0
 63142  1  0  0  0
 63143  1  0  0  0
 63144  1  0  0  0
 64145  1  0  0  0
 65146  1  0  0  0
 68 75  1  0  0  0
 71 73  2  0  0  0
 71 74  1  0  0  0
 71147  1  0  0  0
 72 73  1  0  0  0
 72 75  2  0  0  0
 72148  1  0  0  0
 73 83  1  0  0  0
 74 81  1  0  0  0
 74 85  2  0  0  0
 75 85  1  0  0  0
 76 78  1  0  0  0
 76149  1  0  0  0
 76150  1  0  0  0
 76 80  1  0  0  0
 77 79  1  0  0  0
 77 80  1  0  0  0
 77151  1  0  0  0
 77152  1  0  0  0
 78 86  1  0  0  0
 78153  1  0  0  0
 78154  1  0  0  0
 79 86  1  0  0  0
 79155  1  0  0  0
 79156  1  0  0  0
 80 83  1  0  0  0
 80157  1  0  0  0
 81158  1  0  0  0
 81159  1  0  0  0
 81160  1  0  0  0
 82161  1  0  0  0
 82162  1  0  0  0
 82163  1  0  0  0
 82 84  1  0  0  0
 83 84  1  0  0  0
 83164  1  0  0  0
 84 87  1  0  0  0
 84165  1  0  0  0
 87166  1  0  0  0
 87167  1  0  0  0
 87168  1  0  0  0
M  CHG  1  87   1
M  ISO  4   1 100  68 101  75 101  86 100
M  END
> <chiral flag>
0

> <version>
0

> <s_m_source_file>
/data/baiqing/PycharmProjects/Reinvent-master-3.2/result/LINK_invent/BTK/process_docking_weight1_custom_sum_contain_oxygen_bond_distance_aromatic_linkinvent_7_9_3/rearranged_h_0117.sdf

> <i_m_source_file_index>
51

> <r_mmod_Potential_Energy-OPLS-2005>
328.851226806641

> <r_mmod_Stretch_Energy-OPLS-2005>
189.965270996094

> <r_mmod_Bend_Energy-OPLS-2005>
301.061401367188

> <r_mmod_Torsional_Energy-OPLS-2005>
331.936462402344

> <r_mmod_Improper_Torsional_Energy-OPLS-2005>
16.7889976501465

> <r_mmod_Van_der_Waal_Energy-OPLS-2005>
153.934066772461

> <r_mmod_Electrostatic_Energy-OPLS-2005>
-308.844543457031

> <r_mmod_Solvation_Energy-OPLS-2005>
-496.518859863281

> <b_mmod_Minimization_Converged-OPLS-2005>
0

> <r_mmod_RMS_Derivative-OPLS-2005>
2.77231812477112

$$$$
52
                    3D
 Structure written by MMmdl.
157166  0  0  1  0            999 V2000
  -30.6909  -14.7435   20.4636 C   0  0  0  0  0  0
  -30.4184  -12.4594   19.4832 C   0  0  0  0  0  0
  -29.4970  -12.4740   18.2470 C   0  0  0  0  0  0
  -28.0383  -12.2674   18.6858 C   0  0  0  0  0  0
  -27.6301  -13.2138   19.8429 C   0  0  2  0  0  0
  -28.6807  -13.2460   20.9789 C   0  0  0  0  0  0
  -25.2516  -13.8141   20.5786 C   0  0  0  0  0  0
  -24.1794  -13.0406   20.9282 C   0  0  0  0  0  0
  -24.6364  -11.6879   20.8832 C   0  0  0  0  0  0
  -23.9037  -10.4271   21.0465 C   0  0  0  0  0  0
  -24.3589   -9.4162   21.9211 C   0  0  0  0  0  0
  -23.6267   -8.2196   22.0758 C   0  0  0  0  0  0
  -22.4255   -8.0253   21.3539 C   0  0  0  0  0  0
  -21.9890   -9.0251   20.4668 C   0  0  0  0  0  0
  -22.7219  -10.2130   20.3103 C   0  0  0  0  0  0
  -21.6841   -6.0730   22.5300 C   0  0  0  0  0  0
  -21.4000   -6.5645   23.8231 C   0  0  0  0  0  0
  -21.3656   -5.6803   24.9203 C   0  0  0  0  0  0
  -21.6038   -4.3062   24.7253 C   0  0  0  0  0  0
  -21.8809   -3.8151   23.4378 C   0  0  0  0  0  0
  -21.9180   -4.6960   22.3429 C   0  0  0  0  0  0
  -22.7826  -13.5222   21.1917 C   0  0  0  0  0  0
  -22.1649   -4.2145   21.1004 F   0  0  0  0  0  0
  -21.5621   -3.4541   25.7759 F   0  0  0  0  0  0
  -29.9827  -13.5603   20.3793 N   0  0  0  0  0  0
  -26.2901  -12.9298   20.3361 N   0  0  0  0  0  0
  -25.9285  -11.6465   20.5847 N   0  0  0  0  0  0
  -22.0443  -12.8255   22.0476 N   0  0  0  0  0  0
  -25.4222  -15.1868   20.4246 N   0  0  0  0  0  0
  -31.8887  -14.7354   20.1712 O   0  0  0  0  0  0
  -21.6601   -6.8863   21.4257 O   0  0  0  0  0  0
  -22.3535  -14.5522   20.6735 O   0  0  0  0  0  0
  -24.6330  -31.8557   23.2011 C   0  0  0  0  0  0
  -25.9151  -32.4763   23.8338 C   0  0  1  0  0  0
  -27.2026  -27.2422   20.1280 C   0  0  0  0  0  0
  -25.5946  -33.8563   24.2259 N   0  0  0  0  0  0
  -23.4299  -30.4842   21.5441 C   0  0  2  0  0  0
  -24.8757  -28.9423   20.1053 C   0  0  0  0  0  0
  -22.7515  -29.4611   22.4884 C   0  0  0  0  0  0
  -18.0307  -28.1364   22.8491 C   0  0  0  0  0  0
  -24.1493  -36.7298   23.2632 C   0  0  0  0  0  0
  -25.9795  -30.7646   21.3839 C   0  0  0  0  0  0
  -26.0503  -29.3873   20.7240 C   0  0  0  0  0  0
  -27.2170  -28.5488   20.7315 C   0  0  0  0  0  0
  -26.0064  -26.8963   19.4506 C   0  0  0  0  0  0
  -24.8597  -27.7056   19.4551 C   0  0  0  0  0  0
  -23.6488  -29.8300   20.1564 C   0  0  0  0  0  0
  -25.4115  -36.3072   24.0326 C   0  0  1  0  0  0
  -20.5912  -28.3682   23.1251 C   0  0  2  0  0  0
  -20.6789  -26.9393   22.5395 C   0  0  0  0  0  0
  -19.5759  -26.6360   21.5206 C   0  0  0  0  0  0
  -18.1947  -26.7902   22.1632 C   0  0  0  0  0  0
  -19.1564  -28.8837   23.2875 C   0  0  0  0  0  0
  -18.9480  -30.1439   23.8889 C   0  0  0  0  0  0
  -17.6479  -30.6566   24.0545 C   0  0  0  0  0  0
  -25.9067  -34.9445   23.5091 C   0  0  0  0  0  0
  -16.5365  -29.9070   23.6314 C   0  0  0  0  0  0
  -16.7297  -28.6479   23.0355 C   0  0  0  0  0  0
  -26.4522  -31.6581   25.0714 C   0  0  0  0  0  0
  -25.3768  -31.3738   26.1456 C   0  0  0  0  0  0
  -27.0342  -30.2994   24.6175 C   0  0  0  0  0  0
  -27.6068  -32.4322   25.7481 C   0  0  0  0  0  0
  -27.5590  -37.1789   24.8458 C   0  0  0  0  0  0
  -21.4223  -29.3048   22.3652 N   0  0  0  0  0  0
  -26.4281  -37.3779   23.9431 N   0  0  0  0  0  0
  -24.7006  -31.0522   22.0991 N   0  0  0  0  0  0
  -23.4225  -28.8119   23.2950 O   0  0  0  0  0  0
  -28.2511  -26.2799   20.2258 O   0  0  0  0  0  0
  -26.5617  -34.8921   22.4648 O   0  0  0  0  0  0
  -23.5475  -32.1377   23.7302 O   0  0  0  0  0  0
  -29.8423  -23.1015   19.7411 C   0  0  0  0  0  0
  -30.2752  -21.7352   19.7969 C   0  0  0  0  0  0
  -27.9551  -22.4285   21.0160 C   0  0  0  0  0  0
  -28.6190  -23.4980   20.3408 C   0  0  0  0  0  0
  -29.5020  -20.7211   20.4335 C   0  0  0  0  0  0
  -30.2886  -18.4591   21.6849 C   0  0  0  0  0  0
  -30.8398  -16.9794   21.5312 C   0  0  0  0  0  0
  -29.3762  -16.6609   19.5837 C   0  0  0  0  0  0
  -29.8937  -19.1645   20.3613 C   0  0  1  0  0  0
  -28.8615  -18.1532   19.7620 C   0  0  1  0  0  0
  -27.8257  -24.8457   20.0179 C   0  0  0  0  0  0
  -28.3666  -21.1163   21.0698 N   0  0  0  0  0  0
  -30.0680  -15.9727   20.7206 N   0  0  0  0  0  0
  -28.4293  -18.5674   18.4760 O   0  0  0  0  0  0
  -31.4595  -12.5537   19.1680 H   0  0  0  0  0  0
  -30.3535  -11.5008   20.0018 H   0  0  0  0  0  0
  -29.7880  -11.6841   17.5525 H   0  0  0  0  0  0
  -29.6026  -13.4184   17.7114 H   0  0  0  0  0  0
  -27.9500  -11.2319   19.0185 H   0  0  0  0  0  0
  -27.3595  -12.3693   17.8379 H   0  0  0  0  0  0
  -27.5800  -14.1986   19.3917 H   0  0  0  0  0  0
  -28.7267  -12.2946   21.5109 H   0  0  0  0  0  0
  -28.4097  -14.0025   21.7170 H   0  0  0  0  0  0
  -25.2733   -9.5601   22.4796 H   0  0  0  0  0  0
  -23.9964   -7.4574   22.7469 H   0  0  0  0  0  0
  -21.0809   -8.8800   19.8992 H   0  0  0  0  0  0
  -22.3689  -10.9685   19.6230 H   0  0  0  0  0  0
  -21.1983   -7.6150   23.9746 H   0  0  0  0  0  0
  -21.1491   -6.0531   25.9109 H   0  0  0  0  0  0
  -22.0583   -2.7610   23.2902 H   0  0  0  0  0  0
  -22.4031  -11.9913   22.4871 H   0  0  0  0  0  0
  -21.1077  -13.1334   22.2684 H   0  0  0  0  0  0
  -24.6581  -15.8397   20.5569 H   0  0  0  0  0  0
  -26.2827  -15.6354   20.1404 H   0  0  0  0  0  0
  -26.7200  -32.5427   23.1064 H   0  0  0  0  0  0
  -25.0114  -33.9709   25.0419 H   0  0  0  0  0  0
  -22.7262  -31.3071   21.4014 H   0  0  0  0  0  0
  -23.3759  -35.9622   23.3259 H   0  0  0  0  0  0
  -24.3597  -36.8958   22.2053 H   0  0  0  0  0  0
  -23.7237  -37.6489   23.6673 H   0  0  0  0  0  0
  -26.1157  -31.5239   20.6131 H   0  0  0  0  0  0
  -26.8593  -30.8175   22.0125 H   0  0  0  0  0  0
  -28.1052  -28.8739   21.2532 H   0  0  0  0  0  0
  -25.8927  -25.9640   18.9203 H   0  0  0  0  0  0
  -23.9634  -27.3658   18.9543 H   0  0  0  0  0  0
  -23.7786  -30.6118   19.4066 H   0  0  0  0  0  0
  -22.7665  -29.2683   19.8447 H   0  0  0  0  0  0
  -25.1291  -36.1907   25.0813 H   0  0  0  0  0  0
  -21.0015  -28.3244   24.1366 H   0  0  0  0  0  0
  -20.5683  -26.2284   23.3602 H   0  0  0  0  0  0
  -21.6656  -26.7408   22.1189 H   0  0  0  0  0  0
  -19.6921  -25.6273   21.1239 H   0  0  0  0  0  0
  -19.6692  -27.3164   20.6729 H   0  0  0  0  0  0
  -17.4211  -26.6634   21.4040 H   0  0  0  0  0  0
  -18.0370  -26.0040   22.9032 H   0  0  0  0  0  0
  -19.7959  -30.7250   24.2254 H   0  0  0  0  0  0
  -17.5038  -31.6248   24.5141 H   0  0  0  0  0  0
  -15.5366  -30.2970   23.7635 H   0  0  0  0  0  0
  -15.8700  -28.0792   22.7077 H   0  0  0  0  0  0
  -24.5896  -30.7140   25.7797 H   0  0  0  0  0  0
  -24.9034  -32.2923   26.4933 H   0  0  0  0  0  0
  -25.8115  -30.8868   27.0194 H   0  0  0  0  0  0
  -26.2895  -29.6756   24.1215 H   0  0  0  0  0  0
  -27.4047  -29.7241   25.4669 H   0  0  0  0  0  0
  -27.8773  -30.4265   23.9379 H   0  0  0  0  0  0
  -27.2647  -33.3596   26.2084 H   0  0  0  0  0  0
  -28.3858  -32.6940   25.0309 H   0  0  0  0  0  0
  -28.0751  -31.8442   26.5385 H   0  0  0  0  0  0
  -28.2568  -38.0128   24.7560 H   0  0  0  0  0  0
  -28.1124  -36.2667   24.6194 H   0  0  0  0  0  0
  -27.2322  -37.1318   25.8860 H   0  0  0  0  0  0
  -20.9381  -29.8799   21.6904 H   0  0  0  0  0  0
  -26.0159  -38.2835   24.1495 H   0  0  0  0  0  0
  -30.4166  -23.8155   19.1675 H   0  0  0  0  0  0
  -31.1902  -21.4635   19.2865 H   0  0  0  0  0  0
  -26.9885  -22.6020   21.4683 H   0  0  0  0  0  0
  -31.0435  -19.0623   22.1906 H   0  0  0  0  0  0
  -29.4297  -18.4575   22.3564 H   0  0  0  0  0  0
  -30.9895  -16.5638   22.5293 H   0  0  0  0  0  0
  -31.8443  -17.0632   21.1124 H   0  0  0  0  0  0
  -30.0536  -16.6259   18.7271 H   0  0  0  0  0  0
  -28.5180  -16.0642   19.2855 H   0  0  0  0  0  0
  -30.7768  -19.1312   19.7193 H   0  0  0  0  0  0
  -27.9867  -18.1377   20.4156 H   0  0  0  0  0  0
  -26.8769  -24.7199   20.5417 H   0  0  0  0  0  0
  -27.6081  -24.7400   18.9557 H   0  0  0  0  0  0
  -27.8774  -19.3370   18.5957 H   0  0  0  0  0  0
  1 25  1  0  0  0
  1 30  2  0  0  0
  1 83  1  0  0  0
  2  3  1  0  0  0
  2 25  1  0  0  0
  2 85  1  0  0  0
  2 86  1  0  0  0
  3  4  1  0  0  0
  3 87  1  0  0  0
  3 88  1  0  0  0
  4  5  1  0  0  0
  4 89  1  0  0  0
  4 90  1  0  0  0
  5  6  1  0  0  0
  5 26  1  0  0  0
  5 91  1  0  0  0
  6 25  1  0  0  0
  6 92  1  0  0  0
  6 93  1  0  0  0
  7  8  2  0  0  0
  7 26  1  0  0  0
  7 29  1  0  0  0
  8  9  1  0  0  0
  8 22  1  0  0  0
  9 10  1  0  0  0
  9 27  2  0  0  0
 10 11  2  0  0  0
 10 15  1  0  0  0
 11 12  1  0  0  0
 11 94  1  0  0  0
 12 13  2  0  0  0
 12 95  1  0  0  0
 13 14  1  0  0  0
 13 31  1  0  0  0
 14 15  2  0  0  0
 14 96  1  0  0  0
 15 97  1  0  0  0
 16 17  2  0  0  0
 16 21  1  0  0  0
 16 31  1  0  0  0
 17 18  1  0  0  0
 17 98  1  0  0  0
 18 19  2  0  0  0
 18 99  1  0  0  0
 19 20  1  0  0  0
 19 24  1  0  0  0
 20 21  2  0  0  0
 20100  1  0  0  0
 21 23  1  0  0  0
 22 28  1  0  0  0
 22 32  2  0  0  0
 26 27  1  0  0  0
 28101  1  0  0  0
 28102  1  0  0  0
 29103  1  0  0  0
 29104  1  0  0  0
 33 34  1  0  0  0
 33 66  1  0  0  0
 33 70  2  0  0  0
 34 36  1  0  0  0
 34 59  1  0  0  0
 34105  1  0  0  0
 35 44  2  0  0  0
 35 45  1  0  0  0
 35 68  1  0  0  0
 36 56  1  0  0  0
 36106  1  0  0  0
 37 39  1  0  0  0
 37 47  1  0  0  0
 37 66  1  0  0  0
 37107  1  0  0  0
 38 43  2  0  0  0
 38 46  1  0  0  0
 38 47  1  0  0  0
 39 64  1  0  0  0
 39 67  2  0  0  0
 40 52  1  0  0  0
 40 53  2  0  0  0
 40 58  1  0  0  0
 41108  1  0  0  0
 41109  1  0  0  0
 41110  1  0  0  0
 41 48  1  0  0  0
 42 43  1  0  0  0
 42 66  1  0  0  0
 42111  1  0  0  0
 42112  1  0  0  0
 43 44  1  0  0  0
 44113  1  0  0  0
 45 46  2  0  0  0
 45114  1  0  0  0
 46115  1  0  0  0
 47116  1  0  0  0
 47117  1  0  0  0
 48 56  1  0  0  0
 48 65  1  0  0  0
 48118  1  0  0  0
 49 50  1  0  0  0
 49 53  1  0  0  0
 49 64  1  0  0  0
 49119  1  0  0  0
 50 51  1  0  0  0
 50120  1  0  0  0
 50121  1  0  0  0
 51 52  1  0  0  0
 51122  1  0  0  0
 51123  1  0  0  0
 52124  1  0  0  0
 52125  1  0  0  0
 53 54  1  0  0  0
 54 55  2  0  0  0
 54126  1  0  0  0
 55 57  1  0  0  0
 55127  1  0  0  0
 56 69  2  0  0  0
 57 58  2  0  0  0
 57128  1  0  0  0
 58129  1  0  0  0
 59 60  1  0  0  0
 59 61  1  0  0  0
 59 62  1  0  0  0
 60130  1  0  0  0
 60131  1  0  0  0
 60132  1  0  0  0
 61133  1  0  0  0
 61134  1  0  0  0
 61135  1  0  0  0
 62136  1  0  0  0
 62137  1  0  0  0
 62138  1  0  0  0
 63 65  1  0  0  0
 63139  1  0  0  0
 63140  1  0  0  0
 63141  1  0  0  0
 64142  1  0  0  0
 65143  1  0  0  0
 68 81  1  0  0  0
 71 72  2  0  0  0
 71 74  1  0  0  0
 71144  1  0  0  0
 72 75  1  0  0  0
 72145  1  0  0  0
 73 74  2  0  0  0
 73 82  1  0  0  0
 73146  1  0  0  0
 74 81  1  0  0  0
 75 82  2  0  0  0
 75 79  1  0  0  0
 76 77  1  0  0  0
 76 79  1  0  0  0
 76147  1  0  0  0
 76148  1  0  0  0
 77 83  1  0  0  0
 77149  1  0  0  0
 77150  1  0  0  0
 78 80  1  0  0  0
 78 83  1  0  0  0
 78151  1  0  0  0
 78152  1  0  0  0
 79 80  1  0  0  0
 79153  1  0  0  0
 80 84  1  0  0  0
 80154  1  0  0  0
 81155  1  0  0  0
 81156  1  0  0  0
 84157  1  0  0  0
M  ISO  4   1 100  68 101  81 101  83 100
M  END
> <chiral flag>
0

> <version>
0

> <s_m_source_file>
/data/baiqing/PycharmProjects/Reinvent-master-3.2/result/LINK_invent/BTK/process_docking_weight1_custom_sum_contain_oxygen_bond_distance_aromatic_linkinvent_7_9_3/rearranged_h_0117.sdf

> <i_m_source_file_index>
52

> <r_mmod_Potential_Energy-OPLS-2005>
313.379669189453

> <r_mmod_Stretch_Energy-OPLS-2005>
119.361946105957

> <r_mmod_Bend_Energy-OPLS-2005>
203.233154296875

> <r_mmod_Torsional_Energy-OPLS-2005>
327.626373291016

> <r_mmod_Improper_Torsional_Energy-OPLS-2005>
10.0977430343628

> <r_mmod_Van_der_Waal_Energy-OPLS-2005>
155.626098632812

> <r_mmod_Electrostatic_Energy-OPLS-2005>
-387.049377441406

> <r_mmod_Solvation_Energy-OPLS-2005>
-220.916015625

> <b_mmod_Minimization_Converged-OPLS-2005>
0

> <r_mmod_RMS_Derivative-OPLS-2005>
3.14036798477173

$$$$
53
                    3D
 Structure written by MMmdl.
159167  0  0  1  0            999 V2000
  -30.4823  -15.1451   20.3743 C   0  0  0  0  0  0
  -30.4332  -12.7160   19.5315 C   0  0  0  0  0  0
  -29.5325  -12.5646   18.2818 C   0  0  0  0  0  0
  -28.0727  -12.3130   18.6984 C   0  0  0  0  0  0
  -27.6163  -13.2705   19.8294 C   0  0  2  0  0  0
  -28.6504  -13.3960   20.9696 C   0  0  0  0  0  0
  -25.2397  -13.8249   20.5719 C   0  0  0  0  0  0
  -24.1748  -13.0437   20.9246 C   0  0  0  0  0  0
  -24.6404  -11.6936   20.8761 C   0  0  0  0  0  0
  -23.9098  -10.4294   21.0411 C   0  0  0  0  0  0
  -24.3643   -9.4208   21.9186 C   0  0  0  0  0  0
  -23.6311   -8.2248   22.0756 C   0  0  0  0  0  0
  -22.4290   -8.0289   21.3551 C   0  0  0  0  0  0
  -21.9935   -9.0261   20.4649 C   0  0  0  0  0  0
  -22.7272  -10.2135   20.3056 C   0  0  0  0  0  0
  -21.6852   -6.0748   22.5283 C   0  0  0  0  0  0
  -21.4015   -6.5648   23.8220 C   0  0  0  0  0  0
  -21.3660   -5.6798   24.9178 C   0  0  0  0  0  0
  -21.6037   -4.3060   24.7225 C   0  0  0  0  0  0
  -21.8820   -3.8156   23.4344 C   0  0  0  0  0  0
  -21.9191   -4.6976   22.3400 C   0  0  0  0  0  0
  -22.7767  -13.5195   21.1895 C   0  0  0  0  0  0
  -22.1660   -4.2159   21.0980 F   0  0  0  0  0  0
  -21.5626   -3.4543   25.7740 F   0  0  0  0  0  0
  -29.9055  -13.8553   20.3589 N   0  0  0  0  0  0
  -26.2828  -12.9517   20.3220 N   0  0  0  0  0  0
  -25.9339  -11.6626   20.5726 N   0  0  0  0  0  0
  -22.0424  -12.8169   22.0446 N   0  0  0  0  0  0
  -25.4024  -15.1982   20.4152 N   0  0  0  0  0  0
  -31.6895  -15.1554   20.1051 O   0  0  0  0  0  0
  -21.6645   -6.8891   21.4247 O   0  0  0  0  0  0
  -22.3447  -14.5498   20.6742 O   0  0  0  0  0  0
  -24.6530  -31.8301   23.1762 C   0  0  0  0  0  0
  -25.9257  -32.4603   23.8195 C   0  0  1  0  0  0
  -27.2225  -27.0149   20.1620 C   0  0  0  0  0  0
  -25.5968  -33.8421   24.2103 N   0  0  0  0  0  0
  -23.4633  -30.4436   21.5224 C   0  0  2  0  0  0
  -24.9148  -28.8447   20.1059 C   0  0  0  0  0  0
  -22.7619  -29.4471   22.4800 C   0  0  0  0  0  0
  -18.0315  -28.1398   22.8457 C   0  0  0  0  0  0
  -24.1493  -36.7215   23.2646 C   0  0  0  0  0  0
  -26.0260  -30.6638   21.3935 C   0  0  0  0  0  0
  -26.0940  -29.2630   20.7343 C   0  0  0  0  0  0
  -27.2399  -28.3659   20.7409 C   0  0  0  0  0  0
  -26.0129  -26.7207   19.4957 C   0  0  0  0  0  0
  -24.8942  -27.5911   19.4718 C   0  0  0  0  0  0
  -23.6965  -29.7620   20.1456 C   0  0  0  0  0  0
  -25.4133  -36.2965   24.0291 C   0  0  1  0  0  0
  -20.5934  -28.3730   23.1205 C   0  0  2  0  0  0
  -20.6798  -26.9422   22.5393 C   0  0  0  0  0  0
  -19.5775  -26.6377   21.5202 C   0  0  0  0  0  0
  -18.1956  -26.7932   22.1609 C   0  0  0  0  0  0
  -19.1575  -28.8883   23.2817 C   0  0  0  0  0  0
  -18.9492  -30.1479   23.8838 C   0  0  0  0  0  0
  -17.6489  -30.6587   24.0560 C   0  0  0  0  0  0
  -25.9094  -34.9355   23.5018 C   0  0  0  0  0  0
  -16.5377  -29.9080   23.6346 C   0  0  0  0  0  0
  -16.7302  -28.6508   23.0349 C   0  0  0  0  0  0
  -26.4541  -31.6522   25.0693 C   0  0  0  0  0  0
  -25.3694  -31.3753   26.1372 C   0  0  0  0  0  0
  -27.0427  -30.2899   24.6367 C   0  0  0  0  0  0
  -27.6052  -32.4321   25.7475 C   0  0  0  0  0  0
  -27.5566  -37.1752   24.8460 C   0  0  0  0  0  0
  -21.4299  -29.3034   22.3561 N   0  0  0  0  0  0
  -26.4275  -37.3698   23.9410 N   0  0  0  0  0  0
  -24.7346  -31.0042   22.0850 N   0  0  0  0  0  0
  -23.4211  -28.8043   23.3009 O   0  0  0  0  0  0
  -28.2731  -25.9941   20.2880 O   0  0  0  0  0  0
  -26.5688  -34.8867   22.4602 O   0  0  0  0  0  0
  -23.5626  -32.1239   23.6911 O   0  0  0  0  0  0
  -29.6929  -23.6196   20.3735 C   0  0  0  0  0  0
  -27.3569  -23.2510   20.3175 C   0  0  0  0  0  0
  -29.7445  -22.0306   20.8815 C   0  0  0  0  0  0
  -27.6249  -21.6647   19.8866 C   0  0  0  0  0  0
  -28.3629  -24.4259   19.8885 C   0  0  1  0  0  0
  -28.4107  -24.4883   18.3476 C   0  0  0  0  0  0
  -31.3971  -18.3696   20.4754 C   0  0  0  0  0  0
  -28.9375  -19.3607   20.6155 C   0  0  0  0  0  0
  -29.9419  -17.9934   20.1500 C   0  0  2  0  0  0
  -29.7207  -16.3921   20.4875 N   0  0  0  0  0  0
  -28.9696  -20.9416   20.1336 N   0  3  2  0  0  0
  -31.4662  -12.8798   19.2220 H   0  0  0  0  0  0
  -30.4459  -11.7915   20.1125 H   0  0  0  0  0  0
  -29.8910  -11.7528   17.6478 H   0  0  0  0  0  0
  -29.5906  -13.4741   17.6814 H   0  0  0  0  0  0
  -28.0030  -11.2798   19.0412 H   0  0  0  0  0  0
  -27.4104  -12.3956   17.8355 H   0  0  0  0  0  0
  -27.5479  -14.2506   19.3563 H   0  0  0  0  0  0
  -28.7795  -12.4506   21.4988 H   0  0  0  0  0  0
  -28.3114  -14.1242   21.7087 H   0  0  0  0  0  0
  -25.2784   -9.5676   22.4770 H   0  0  0  0  0  0
  -24.0009   -7.4636   22.7483 H   0  0  0  0  0  0
  -21.0862   -8.8794   19.8955 H   0  0  0  0  0  0
  -22.3739  -10.9679   19.6169 H   0  0  0  0  0  0
  -21.2013   -7.6157   23.9725 H   0  0  0  0  0  0
  -21.1477   -6.0529   25.9081 H   0  0  0  0  0  0
  -22.0595   -2.7619   23.2845 H   0  0  0  0  0  0
  -22.4055  -11.9830   22.4817 H   0  0  0  0  0  0
  -21.1039  -13.1183   22.2664 H   0  0  0  0  0  0
  -24.6230  -15.8412   20.5056 H   0  0  0  0  0  0
  -26.2386  -15.6392   20.0552 H   0  0  0  0  0  0
  -26.7325  -32.5152   23.0912 H   0  0  0  0  0  0
  -25.0098  -33.9521   25.0239 H   0  0  0  0  0  0
  -22.7696  -31.2713   21.3565 H   0  0  0  0  0  0
  -23.3756  -35.9548   23.3279 H   0  0  0  0  0  0
  -24.3587  -36.8892   22.2068 H   0  0  0  0  0  0
  -23.7251  -37.6391   23.6737 H   0  0  0  0  0  0
  -26.1977  -31.4121   20.6188 H   0  0  0  0  0  0
  -26.8900  -30.7139   22.0447 H   0  0  0  0  0  0
  -28.1344  -28.6794   21.2606 H   0  0  0  0  0  0
  -25.8927  -25.7572   19.0264 H   0  0  0  0  0  0
  -23.9940  -27.2630   18.9709 H   0  0  0  0  0  0
  -23.8403  -30.5319   19.3867 H   0  0  0  0  0  0
  -22.8078  -29.2095   19.8329 H   0  0  0  0  0  0
  -25.1322  -36.1765   25.0775 H   0  0  0  0  0  0
  -21.0014  -28.3341   24.1335 H   0  0  0  0  0  0
  -20.5695  -26.2336   23.3617 H   0  0  0  0  0  0
  -21.6664  -26.7420   22.1188 H   0  0  0  0  0  0
  -19.6940  -25.6281   21.1246 H   0  0  0  0  0  0
  -19.6724  -27.3171   20.6721 H   0  0  0  0  0  0
  -17.4223  -26.6670   21.4012 H   0  0  0  0  0  0
  -18.0362  -26.0079   22.9004 H   0  0  0  0  0  0
  -19.7975  -30.7316   24.2165 H   0  0  0  0  0  0
  -17.5046  -31.6261   24.5178 H   0  0  0  0  0  0
  -15.5377  -30.2965   23.7714 H   0  0  0  0  0  0
  -15.8698  -28.0829   22.7069 H   0  0  0  0  0  0
  -24.5915  -30.7032   25.7711 H   0  0  0  0  0  0
  -24.8816  -32.2926   26.4663 H   0  0  0  0  0  0
  -25.7949  -30.9036   27.0232 H   0  0  0  0  0  0
  -26.3066  -29.6583   24.1369 H   0  0  0  0  0  0
  -27.3984  -29.7237   25.4982 H   0  0  0  0  0  0
  -27.8998  -30.4090   23.9741 H   0  0  0  0  0  0
  -27.2652  -33.3684   26.1916 H   0  0  0  0  0  0
  -28.3935  -32.6774   25.0344 H   0  0  0  0  0  0
  -28.0640  -31.8523   26.5492 H   0  0  0  0  0  0
  -28.2538  -38.0085   24.7533 H   0  0  0  0  0  0
  -28.1094  -36.2602   24.6264 H   0  0  0  0  0  0
  -27.2276  -37.1371   25.8857 H   0  0  0  0  0  0
  -20.9532  -29.8735   21.6711 H   0  0  0  0  0  0
  -26.0113  -38.2739   24.1460 H   0  0  0  0  0  0
  -30.4561  -23.7342   19.6029 H   0  0  0  0  0  0
  -30.0943  -24.1978   21.2055 H   0  0  0  0  0  0
  -27.2503  -23.2889   21.4031 H   0  0  0  0  0  0
  -26.3655  -23.5150   19.9501 H   0  0  0  0  0  0
  -29.3982  -22.0038   21.9154 H   0  0  0  0  0  0
  -30.7890  -21.7216   20.9309 H   0  0  0  0  0  0
  -27.4051  -21.5569   18.8249 H   0  0  0  0  0  0
  -26.8515  -21.0810   20.3856 H   0  0  0  0  0  0
  -28.7195  -23.5400   17.9109 H   0  0  0  0  0  0
  -29.1251  -25.2397   18.0091 H   0  0  0  0  0  0
  -27.4463  -24.7335   17.9075 H   0  0  0  0  0  0
  -31.6146  -19.3930   20.1695 H   0  0  0  0  0  0
  -32.1067  -17.7334   19.9464 H   0  0  0  0  0  0
  -31.6031  -18.2923   21.5432 H   0  0  0  0  0  0
  -28.9093  -19.3888   21.7049 H   0  0  0  0  0  0
  -27.9357  -19.0304   20.3407 H   0  0  0  0  0  0
  -29.8775  -18.0018   19.0615 H   0  0  0  0  0  0
  -28.7603  -16.1955   20.7294 H   0  0  0  0  0  0
  -29.3973  -20.9026   19.2205 H   0  0  0  0  0  0
  1 25  1  0  0  0
  1 30  2  0  0  0
  1 80  1  0  0  0
  2  3  1  0  0  0
  2 25  1  0  0  0
  2 82  1  0  0  0
  2 83  1  0  0  0
  3  4  1  0  0  0
  3 84  1  0  0  0
  3 85  1  0  0  0
  4  5  1  0  0  0
  4 86  1  0  0  0
  4 87  1  0  0  0
  5  6  1  0  0  0
  5 26  1  0  0  0
  5 88  1  0  0  0
  6 25  1  0  0  0
  6 89  1  0  0  0
  6 90  1  0  0  0
  7  8  2  0  0  0
  7 26  1  0  0  0
  7 29  1  0  0  0
  8  9  1  0  0  0
  8 22  1  0  0  0
  9 10  1  0  0  0
  9 27  2  0  0  0
 10 11  2  0  0  0
 10 15  1  0  0  0
 11 12  1  0  0  0
 11 91  1  0  0  0
 12 13  2  0  0  0
 12 92  1  0  0  0
 13 14  1  0  0  0
 13 31  1  0  0  0
 14 15  2  0  0  0
 14 93  1  0  0  0
 15 94  1  0  0  0
 16 17  2  0  0  0
 16 21  1  0  0  0
 16 31  1  0  0  0
 17 18  1  0  0  0
 17 95  1  0  0  0
 18 19  2  0  0  0
 18 96  1  0  0  0
 19 20  1  0  0  0
 19 24  1  0  0  0
 20 21  2  0  0  0
 20 97  1  0  0  0
 21 23  1  0  0  0
 22 28  1  0  0  0
 22 32  2  0  0  0
 26 27  1  0  0  0
 28 98  1  0  0  0
 28 99  1  0  0  0
 29100  1  0  0  0
 29101  1  0  0  0
 33 34  1  0  0  0
 33 66  1  0  0  0
 33 70  2  0  0  0
 34 36  1  0  0  0
 34 59  1  0  0  0
 34102  1  0  0  0
 35 44  2  0  0  0
 35 45  1  0  0  0
 35 68  1  0  0  0
 36 56  1  0  0  0
 36103  1  0  0  0
 37 39  1  0  0  0
 37 47  1  0  0  0
 37 66  1  0  0  0
 37104  1  0  0  0
 38 43  2  0  0  0
 38 46  1  0  0  0
 38 47  1  0  0  0
 39 64  1  0  0  0
 39 67  2  0  0  0
 40 52  1  0  0  0
 40 53  2  0  0  0
 40 58  1  0  0  0
 41105  1  0  0  0
 41106  1  0  0  0
 41107  1  0  0  0
 41 48  1  0  0  0
 42 43  1  0  0  0
 42 66  1  0  0  0
 42108  1  0  0  0
 42109  1  0  0  0
 43 44  1  0  0  0
 44110  1  0  0  0
 45 46  2  0  0  0
 45111  1  0  0  0
 46112  1  0  0  0
 47113  1  0  0  0
 47114  1  0  0  0
 48 56  1  0  0  0
 48 65  1  0  0  0
 48115  1  0  0  0
 49 50  1  0  0  0
 49 53  1  0  0  0
 49 64  1  0  0  0
 49116  1  0  0  0
 50 51  1  0  0  0
 50117  1  0  0  0
 50118  1  0  0  0
 51 52  1  0  0  0
 51119  1  0  0  0
 51120  1  0  0  0
 52121  1  0  0  0
 52122  1  0  0  0
 53 54  1  0  0  0
 54 55  2  0  0  0
 54123  1  0  0  0
 55 57  1  0  0  0
 55124  1  0  0  0
 56 69  2  0  0  0
 57 58  2  0  0  0
 57125  1  0  0  0
 58126  1  0  0  0
 59 60  1  0  0  0
 59 61  1  0  0  0
 59 62  1  0  0  0
 60127  1  0  0  0
 60128  1  0  0  0
 60129  1  0  0  0
 61130  1  0  0  0
 61131  1  0  0  0
 61132  1  0  0  0
 62133  1  0  0  0
 62134  1  0  0  0
 62135  1  0  0  0
 63 65  1  0  0  0
 63136  1  0  0  0
 63137  1  0  0  0
 63138  1  0  0  0
 64139  1  0  0  0
 65140  1  0  0  0
 68 75  1  0  0  0
 71 73  1  0  0  0
 71 75  1  0  0  0
 71141  1  0  0  0
 71142  1  0  0  0
 72 74  1  0  0  0
 72 75  1  0  0  0
 72143  1  0  0  0
 72144  1  0  0  0
 73 81  1  0  0  0
 73145  1  0  0  0
 73146  1  0  0  0
 74 81  1  0  0  0
 74147  1  0  0  0
 74148  1  0  0  0
 75 76  1  0  0  0
 76149  1  0  0  0
 76150  1  0  0  0
 76151  1  0  0  0
 77152  1  0  0  0
 77153  1  0  0  0
 77154  1  0  0  0
 77 79  1  0  0  0
 78 79  1  0  0  0
 78155  1  0  0  0
 78156  1  0  0  0
 78 81  1  0  0  0
 79 80  1  0  0  0
 79157  1  0  0  0
 80158  1  0  0  0
 81159  1  0  0  0
M  CHG  1  81   1
M  ISO  4   1 100  68 101  75 101  80 100
M  END
> <chiral flag>
0

> <version>
0

> <s_m_source_file>
/data/baiqing/PycharmProjects/Reinvent-master-3.2/result/LINK_invent/BTK/process_docking_weight1_custom_sum_contain_oxygen_bond_distance_aromatic_linkinvent_7_9_3/rearranged_h_0117.sdf

> <i_m_source_file_index>
53

> <r_mmod_Potential_Energy-OPLS-2005>
836.568908691406

> <r_mmod_Stretch_Energy-OPLS-2005>
425.033752441406

> <r_mmod_Bend_Energy-OPLS-2005>
423.812927246094

> <r_mmod_Torsional_Energy-OPLS-2005>
265.480255126953

> <r_mmod_Improper_Torsional_Energy-OPLS-2005>
4.55054950714111

> <r_mmod_Van_der_Waal_Energy-OPLS-2005>
115.759033203125

> <r_mmod_Electrostatic_Energy-OPLS-2005>
-264.716796875

> <r_mmod_Solvation_Energy-OPLS-2005>
-468.260040283203

> <b_mmod_Minimization_Converged-OPLS-2005>
0

> <r_mmod_RMS_Derivative-OPLS-2005>
1.94187021255493

$$$$
54
                    3D
 Structure written by MMmdl.
159167  0  0  1  0            999 V2000
  -30.6698  -14.5174   20.5489 C   0  0  0  0  0  0
  -30.4249  -12.3258   19.4258 C   0  0  0  0  0  0
  -29.4954  -12.5078   18.2074 C   0  0  0  0  0  0
  -28.0156  -12.3653   18.6199 C   0  0  0  0  0  0
  -27.6579  -13.2076   19.8738 C   0  0  2  0  0  0
  -28.7022  -13.0029   20.9936 C   0  0  0  0  0  0
  -25.2565  -13.8169   20.5674 C   0  0  0  0  0  0
  -24.1814  -13.0452   20.9184 C   0  0  0  0  0  0
  -24.6360  -11.6922   20.8738 C   0  0  0  0  0  0
  -23.9031  -10.4300   21.0403 C   0  0  0  0  0  0
  -24.3581   -9.4225   21.9187 C   0  0  0  0  0  0
  -23.6267   -8.2251   22.0752 C   0  0  0  0  0  0
  -22.4244   -8.0284   21.3551 C   0  0  0  0  0  0
  -21.9882   -9.0253   20.4647 C   0  0  0  0  0  0
  -22.7197  -10.2139   20.3064 C   0  0  0  0  0  0
  -21.6853   -6.0716   22.5270 C   0  0  0  0  0  0
  -21.4018   -6.5624   23.8206 C   0  0  0  0  0  0
  -21.3659   -5.6775   24.9164 C   0  0  0  0  0  0
  -21.6054   -4.3043   24.7215 C   0  0  0  0  0  0
  -21.8817   -3.8131   23.4340 C   0  0  0  0  0  0
  -21.9194   -4.6945   22.3394 C   0  0  0  0  0  0
  -22.7837  -13.5276   21.1812 C   0  0  0  0  0  0
  -22.1661   -4.2138   21.0968 F   0  0  0  0  0  0
  -21.5631   -3.4523   25.7730 F   0  0  0  0  0  0
  -30.0253  -13.3224   20.4332 N   0  0  0  0  0  0
  -26.2998  -12.9339   20.3371 N   0  0  0  0  0  0
  -25.9284  -11.6497   20.5754 N   0  0  0  0  0  0
  -22.0439  -12.8308   22.0383 N   0  0  0  0  0  0
  -25.4286  -15.1875   20.4027 N   0  0  0  0  0  0
  -31.8237  -14.6862   20.1401 O   0  0  0  0  0  0
  -21.6634   -6.8864   21.4237 O   0  0  0  0  0  0
  -22.3555  -14.5567   20.6626 O   0  0  0  0  0  0
  -24.6191  -31.8679   23.2035 C   0  0  0  0  0  0
  -25.9074  -32.4819   23.8361 C   0  0  1  0  0  0
  -27.2284  -27.3880   20.1124 C   0  0  0  0  0  0
  -25.5917  -33.8611   24.2296 N   0  0  0  0  0  0
  -23.4087  -30.4885   21.5497 C   0  0  2  0  0  0
  -24.8537  -28.9560   20.1079 C   0  0  0  0  0  0
  -22.7441  -29.4654   22.5000 C   0  0  0  0  0  0
  -18.0288  -28.1364   22.8489 C   0  0  0  0  0  0
  -24.1484  -36.7304   23.2639 C   0  0  0  0  0  0
  -25.9415  -30.8194   21.3648 C   0  0  0  0  0  0
  -26.0180  -29.4544   20.7049 C   0  0  0  0  0  0
  -27.2099  -28.6838   20.6943 C   0  0  0  0  0  0
  -26.0450  -26.9303   19.4873 C   0  0  0  0  0  0
  -24.8671  -27.6964   19.4895 C   0  0  0  0  0  0
  -23.6141  -29.8224   20.1634 C   0  0  0  0  0  0
  -25.4110  -36.3109   24.0341 C   0  0  1  0  0  0
  -20.5880  -28.3665   23.1300 C   0  0  2  0  0  0
  -20.6772  -26.9389   22.5418 C   0  0  0  0  0  0
  -19.5767  -26.6379   21.5194 C   0  0  0  0  0  0
  -18.1945  -26.7915   22.1614 C   0  0  0  0  0  0
  -19.1533  -28.8834   23.2887 C   0  0  0  0  0  0
  -18.9464  -30.1431   23.8919 C   0  0  0  0  0  0
  -17.6467  -30.6571   24.0581 C   0  0  0  0  0  0
  -25.9046  -34.9476   23.5117 C   0  0  0  0  0  0
  -16.5354  -29.9076   23.6328 C   0  0  0  0  0  0
  -16.7277  -28.6483   23.0366 C   0  0  0  0  0  0
  -26.4468  -31.6613   25.0715 C   0  0  0  0  0  0
  -25.3689  -31.3758   26.1430 C   0  0  0  0  0  0
  -27.0312  -30.3037   24.6160 C   0  0  0  0  0  0
  -27.6045  -32.4341   25.7480 C   0  0  0  0  0  0
  -27.5584  -37.1798   24.8467 C   0  0  0  0  0  0
  -21.4169  -29.3030   22.3717 N   0  0  0  0  0  0
  -26.4298  -37.3790   23.9409 N   0  0  0  0  0  0
  -24.6752  -31.0733   22.0967 N   0  0  0  0  0  0
  -23.4193  -28.8232   23.3087 O   0  0  0  0  0  0
  -28.3633  -26.5858   20.1776 O   0  0  0  0  0  0
  -26.5608  -34.8946   22.4673 O   0  0  0  0  0  0
  -23.5369  -32.1478   23.7375 O   0  0  0  0  0  0
  -29.3511  -17.9628   20.5893 C   0  0  0  0  0  0
  -30.8618  -19.7248   21.3278 C   0  0  0  0  0  0
  -31.4497  -17.3664   21.6617 C   0  0  0  0  0  0
  -29.6478  -19.3551   20.7095 C   0  0  0  0  0  0
  -30.2476  -16.9535   21.0442 C   0  0  0  0  0  0
  -31.7496  -18.7374   21.8036 C   0  0  0  0  0  0
  -27.9414  -22.6304   22.0472 C   0  0  0  0  0  0
  -28.6532  -20.4020   20.1524 C   0  0  0  0  0  0
  -29.0755  -21.9090   19.9292 C   0  0  0  0  0  0
  -29.3277  -24.3054   20.7946 C   0  0  0  0  0  0
  -28.1418  -25.1434   20.2086 C   0  0  0  0  0  0
  -29.8977  -15.5596   20.9460 N   0  0  0  0  0  0
  -29.0703  -22.8425   21.1074 N   0  3  1  0  0  0
  -33.2144  -19.2156   22.5802 Cl  0  0  0  0  0  0
  -31.4698  -12.4297   19.1274 H   0  0  0  0  0  0
  -30.3288  -11.3176   19.8325 H   0  0  0  0  0  0
  -29.7362  -11.7772   17.4342 H   0  0  0  0  0  0
  -29.6625  -13.4894   17.7607 H   0  0  0  0  0  0
  -27.8314  -11.3078   18.8165 H   0  0  0  0  0  0
  -27.3638  -12.6382   17.7894 H   0  0  0  0  0  0
  -27.6979  -14.2536   19.5670 H   0  0  0  0  0  0
  -28.6884  -11.9683   21.3437 H   0  0  0  0  0  0
  -28.4663  -13.6128   21.8662 H   0  0  0  0  0  0
  -25.2719   -9.5709   22.4766 H   0  0  0  0  0  0
  -23.9972   -7.4646   22.7472 H   0  0  0  0  0  0
  -21.0814   -8.8759   19.8956 H   0  0  0  0  0  0
  -22.3647  -10.9661   19.6167 H   0  0  0  0  0  0
  -21.2015   -7.6131   23.9709 H   0  0  0  0  0  0
  -21.1482   -6.0498   25.9068 H   0  0  0  0  0  0
  -22.0595   -2.7595   23.2828 H   0  0  0  0  0  0
  -22.4013  -11.9993   22.4841 H   0  0  0  0  0  0
  -21.1050  -13.1366   22.2525 H   0  0  0  0  0  0
  -24.6553  -15.8369   20.4929 H   0  0  0  0  0  0
  -26.2665  -15.6202   20.0378 H   0  0  0  0  0  0
  -26.7161  -32.5515   23.1141 H   0  0  0  0  0  0
  -25.0052  -33.9765   25.0430 H   0  0  0  0  0  0
  -22.7016  -31.3083   21.4118 H   0  0  0  0  0  0
  -23.3753  -35.9631   23.3318 H   0  0  0  0  0  0
  -24.3568  -36.8884   22.2045 H   0  0  0  0  0  0
  -23.7218  -37.6508   23.6643 H   0  0  0  0  0  0
  -26.0666  -31.5889   20.6018 H   0  0  0  0  0  0
  -26.8225  -30.8614   21.9932 H   0  0  0  0  0  0
  -28.1023  -29.0694   21.1642 H   0  0  0  0  0  0
  -26.0043  -25.9693   18.9976 H   0  0  0  0  0  0
  -23.9773  -27.3036   19.0152 H   0  0  0  0  0  0
  -23.7180  -30.5970   19.4037 H   0  0  0  0  0  0
  -22.7379  -29.2397   19.8698 H   0  0  0  0  0  0
  -25.1279  -36.1985   25.0836 H   0  0  0  0  0  0
  -20.9944  -28.3229   24.1431 H   0  0  0  0  0  0
  -20.5620  -26.2276   23.3611 H   0  0  0  0  0  0
  -21.6657  -26.7388   22.1256 H   0  0  0  0  0  0
  -19.6919  -25.6290   21.1221 H   0  0  0  0  0  0
  -19.6731  -27.3183   20.6724 H   0  0  0  0  0  0
  -17.4208  -26.6631   21.4025 H   0  0  0  0  0  0
  -18.0375  -26.0051   22.9021 H   0  0  0  0  0  0
  -19.7945  -30.7226   24.2306 H   0  0  0  0  0  0
  -17.5029  -31.6257   24.5188 H   0  0  0  0  0  0
  -15.5355  -30.2992   23.7629 H   0  0  0  0  0  0
  -15.8681  -28.0788   22.7099 H   0  0  0  0  0  0
  -24.5861  -30.7139   25.7723 H   0  0  0  0  0  0
  -24.8897  -32.2937   26.4847 H   0  0  0  0  0  0
  -25.7968  -30.8910   27.0211 H   0  0  0  0  0  0
  -26.2896  -29.6803   24.1160 H   0  0  0  0  0  0
  -27.3986  -29.7283   25.4666 H   0  0  0  0  0  0
  -27.8771  -30.4326   23.9404 H   0  0  0  0  0  0
  -27.2673  -33.3636   26.2081 H   0  0  0  0  0  0
  -28.3831  -32.6904   25.0287 H   0  0  0  0  0  0
  -28.0762  -31.8463   26.5366 H   0  0  0  0  0  0
  -28.2605  -38.0090   24.7515 H   0  0  0  0  0  0
  -28.1077  -36.2620   24.6308 H   0  0  0  0  0  0
  -27.2308  -37.1463   25.8871 H   0  0  0  0  0  0
  -20.9346  -29.8781   21.6950 H   0  0  0  0  0  0
  -26.0197  -38.2876   24.1390 H   0  0  0  0  0  0
  -28.4207  -17.6658   20.1223 H   0  0  0  0  0  0
  -31.1336  -20.7620   21.4469 H   0  0  0  0  0  0
  -32.1432  -16.6348   22.0510 H   0  0  0  0  0  0
  -28.0152  -21.6565   22.5323 H   0  0  0  0  0  0
  -26.9766  -22.6864   21.5426 H   0  0  0  0  0  0
  -27.9503  -23.3727   22.8440 H   0  0  0  0  0  0
  -27.7317  -20.3369   20.7300 H   0  0  0  0  0  0
  -28.3677  -20.0244   19.1695 H   0  0  0  0  0  0
  -28.3733  -22.3299   19.2088 H   0  0  0  0  0  0
  -30.0505  -21.9473   19.4405 H   0  0  0  0  0  0
  -29.6264  -24.7806   21.7293 H   0  0  0  0  0  0
  -30.1922  -24.3919   20.1357 H   0  0  0  0  0  0
  -27.2499  -24.9448   20.8054 H   0  0  0  0  0  0
  -27.9344  -24.7958   19.1968 H   0  0  0  0  0  0
  -28.9291  -15.3248   21.1012 H   0  0  0  0  0  0
  -29.8813  -22.5644   21.6406 H   0  0  0  0  0  0
  1 25  1  0  0  0
  1 30  2  0  0  0
  1 82  1  0  0  0
  2  3  1  0  0  0
  2 25  1  0  0  0
  2 85  1  0  0  0
  2 86  1  0  0  0
  3  4  1  0  0  0
  3 87  1  0  0  0
  3 88  1  0  0  0
  4  5  1  0  0  0
  4 89  1  0  0  0
  4 90  1  0  0  0
  5  6  1  0  0  0
  5 26  1  0  0  0
  5 91  1  0  0  0
  6 25  1  0  0  0
  6 92  1  0  0  0
  6 93  1  0  0  0
  7  8  2  0  0  0
  7 26  1  0  0  0
  7 29  1  0  0  0
  8  9  1  0  0  0
  8 22  1  0  0  0
  9 10  1  0  0  0
  9 27  2  0  0  0
 10 11  2  0  0  0
 10 15  1  0  0  0
 11 12  1  0  0  0
 11 94  1  0  0  0
 12 13  2  0  0  0
 12 95  1  0  0  0
 13 14  1  0  0  0
 13 31  1  0  0  0
 14 15  2  0  0  0
 14 96  1  0  0  0
 15 97  1  0  0  0
 16 17  2  0  0  0
 16 21  1  0  0  0
 16 31  1  0  0  0
 17 18  1  0  0  0
 17 98  1  0  0  0
 18 19  2  0  0  0
 18 99  1  0  0  0
 19 20  1  0  0  0
 19 24  1  0  0  0
 20 21  2  0  0  0
 20100  1  0  0  0
 21 23  1  0  0  0
 22 28  1  0  0  0
 22 32  2  0  0  0
 26 27  1  0  0  0
 28101  1  0  0  0
 28102  1  0  0  0
 29103  1  0  0  0
 29104  1  0  0  0
 33 34  1  0  0  0
 33 66  1  0  0  0
 33 70  2  0  0  0
 34 36  1  0  0  0
 34 59  1  0  0  0
 34105  1  0  0  0
 35 44  2  0  0  0
 35 45  1  0  0  0
 35 68  1  0  0  0
 36 56  1  0  0  0
 36106  1  0  0  0
 37 39  1  0  0  0
 37 47  1  0  0  0
 37 66  1  0  0  0
 37107  1  0  0  0
 38 43  2  0  0  0
 38 46  1  0  0  0
 38 47  1  0  0  0
 39 64  1  0  0  0
 39 67  2  0  0  0
 40 52  1  0  0  0
 40 53  2  0  0  0
 40 58  1  0  0  0
 41108  1  0  0  0
 41109  1  0  0  0
 41110  1  0  0  0
 41 48  1  0  0  0
 42 43  1  0  0  0
 42 66  1  0  0  0
 42111  1  0  0  0
 42112  1  0  0  0
 43 44  1  0  0  0
 44113  1  0  0  0
 45 46  2  0  0  0
 45114  1  0  0  0
 46115  1  0  0  0
 47116  1  0  0  0
 47117  1  0  0  0
 48 56  1  0  0  0
 48 65  1  0  0  0
 48118  1  0  0  0
 49 50  1  0  0  0
 49 53  1  0  0  0
 49 64  1  0  0  0
 49119  1  0  0  0
 50 51  1  0  0  0
 50120  1  0  0  0
 50121  1  0  0  0
 51 52  1  0  0  0
 51122  1  0  0  0
 51123  1  0  0  0
 52124  1  0  0  0
 52125  1  0  0  0
 53 54  1  0  0  0
 54 55  2  0  0  0
 54126  1  0  0  0
 55 57  1  0  0  0
 55127  1  0  0  0
 56 69  2  0  0  0
 57 58  2  0  0  0
 57128  1  0  0  0
 58129  1  0  0  0
 59 60  1  0  0  0
 59 61  1  0  0  0
 59 62  1  0  0  0
 60130  1  0  0  0
 60131  1  0  0  0
 60132  1  0  0  0
 61133  1  0  0  0
 61134  1  0  0  0
 61135  1  0  0  0
 62136  1  0  0  0
 62137  1  0  0  0
 62138  1  0  0  0
 63 65  1  0  0  0
 63139  1  0  0  0
 63140  1  0  0  0
 63141  1  0  0  0
 64142  1  0  0  0
 65143  1  0  0  0
 68 81  1  0  0  0
 71 74  2  0  0  0
 71 75  1  0  0  0
 71144  1  0  0  0
 72 74  1  0  0  0
 72 76  2  0  0  0
 72145  1  0  0  0
 73 75  2  0  0  0
 73 76  1  0  0  0
 73146  1  0  0  0
 74 78  1  0  0  0
 75 82  1  0  0  0
 76 84  1  0  0  0
 77147  1  0  0  0
 77148  1  0  0  0
 77149  1  0  0  0
 77 83  1  0  0  0
 78 79  1  0  0  0
 78150  1  0  0  0
 78151  1  0  0  0
 79 83  1  0  0  0
 79152  1  0  0  0
 79153  1  0  0  0
 80 81  1  0  0  0
 80 83  1  0  0  0
 80154  1  0  0  0
 80155  1  0  0  0
 81156  1  0  0  0
 81157  1  0  0  0
 82158  1  0  0  0
 83159  1  0  0  0
M  CHG  1  83   1
M  ISO  4   1 100  68 101  81 101  82 100
M  END
> <chiral flag>
0

> <version>
0

> <s_m_source_file>
/data/baiqing/PycharmProjects/Reinvent-master-3.2/result/LINK_invent/BTK/process_docking_weight1_custom_sum_contain_oxygen_bond_distance_aromatic_linkinvent_7_9_3/rearranged_h_0117.sdf

> <i_m_source_file_index>
54

> <r_mmod_Potential_Energy-OPLS-2005>
-50.3294677734375

> <r_mmod_Stretch_Energy-OPLS-2005>
53.6903953552246

> <r_mmod_Bend_Energy-OPLS-2005>
119.87931060791

> <r_mmod_Torsional_Energy-OPLS-2005>
247.177490234375

> <r_mmod_Improper_Torsional_Energy-OPLS-2005>
4.99685144424438

> <r_mmod_Van_der_Waal_Energy-OPLS-2005>
148.606369018555

> <r_mmod_Electrostatic_Energy-OPLS-2005>
-197.850570678711

> <r_mmod_Solvation_Energy-OPLS-2005>
-449.660430908203

> <b_mmod_Minimization_Converged-OPLS-2005>
0

> <r_mmod_RMS_Derivative-OPLS-2005>
2.62773251533508

$$$$
55
                    3D
 Structure written by MMmdl.
169178  0  0  1  0            999 V2000
  -30.5022  -15.0006   20.4223 C   0  0  0  0  0  0
  -30.4348  -12.6195   19.5145 C   0  0  0  0  0  0
  -29.5236  -12.5474   18.2664 C   0  0  0  0  0  0
  -28.0609  -12.3099   18.6878 C   0  0  0  0  0  0
  -27.6240  -13.2475   19.8434 C   0  0  2  0  0  0
  -28.6610  -13.2965   20.9839 C   0  0  0  0  0  0
  -25.2436  -13.8186   20.5730 C   0  0  0  0  0  0
  -24.1760  -13.0414   20.9245 C   0  0  0  0  0  0
  -24.6388  -11.6903   20.8777 C   0  0  0  0  0  0
  -23.9068  -10.4288   21.0420 C   0  0  0  0  0  0
  -24.3622   -9.4198   21.9179 C   0  0  0  0  0  0
  -23.6312   -8.2231   22.0745 C   0  0  0  0  0  0
  -22.4295   -8.0270   21.3542 C   0  0  0  0  0  0
  -21.9926   -9.0234   20.4640 C   0  0  0  0  0  0
  -22.7251  -10.2111   20.3056 C   0  0  0  0  0  0
  -21.6848   -6.0729   22.5274 C   0  0  0  0  0  0
  -21.4013   -6.5633   23.8203 C   0  0  0  0  0  0
  -21.3664   -5.6787   24.9170 C   0  0  0  0  0  0
  -21.6055   -4.3057   24.7220 C   0  0  0  0  0  0
  -21.8818   -3.8142   23.4349 C   0  0  0  0  0  0
  -21.9191   -4.6962   22.3406 C   0  0  0  0  0  0
  -22.7791  -13.5190   21.1897 C   0  0  0  0  0  0
  -22.1661   -4.2142   21.0995 F   0  0  0  0  0  0
  -21.5633   -3.4548   25.7737 F   0  0  0  0  0  0
  -29.9257  -13.7266   20.3805 N   0  0  0  0  0  0
  -26.2855  -12.9420   20.3276 N   0  0  0  0  0  0
  -25.9311  -11.6552   20.5735 N   0  0  0  0  0  0
  -22.0451  -12.8164   22.0469 N   0  0  0  0  0  0
  -25.4070  -15.1913   20.4116 N   0  0  0  0  0  0
  -31.7160  -15.0386   20.1776 O   0  0  0  0  0  0
  -21.6654   -6.8872   21.4235 O   0  0  0  0  0  0
  -22.3489  -14.5504   20.6743 O   0  0  0  0  0  0
  -24.6529  -31.8357   23.1851 C   0  0  0  0  0  0
  -25.9259  -32.4655   23.8274 C   0  0  1  0  0  0
  -27.2362  -27.0809   20.1896 C   0  0  0  0  0  0
  -25.5991  -33.8477   24.2208 N   0  0  0  0  0  0
  -23.4611  -30.4521   21.5278 C   0  0  2  0  0  0
  -24.9122  -28.8481   20.1362 C   0  0  0  0  0  0
  -22.7584  -29.4552   22.4832 C   0  0  0  0  0  0
  -18.0308  -28.1423   22.8458 C   0  0  0  0  0  0
  -24.1493  -36.7226   23.2650 C   0  0  0  0  0  0
  -26.0183  -30.6942   21.3889 C   0  0  0  0  0  0
  -26.0899  -29.2895   20.7552 C   0  0  0  0  0  0
  -27.2524  -28.4240   20.7594 C   0  0  0  0  0  0
  -26.0328  -26.7464   19.5373 C   0  0  0  0  0  0
  -24.8979  -27.5886   19.5137 C   0  0  0  0  0  0
  -23.6970  -29.7643   20.1548 C   0  0  0  0  0  0
  -25.4116  -36.3005   24.0338 C   0  0  1  0  0  0
  -20.5923  -28.3774   23.1210 C   0  0  2  0  0  0
  -20.6787  -26.9456   22.5400 C   0  0  0  0  0  0
  -19.5765  -26.6391   21.5209 C   0  0  0  0  0  0
  -18.1947  -26.7960   22.1609 C   0  0  0  0  0  0
  -19.1559  -28.8901   23.2832 C   0  0  0  0  0  0
  -18.9476  -30.1486   23.8877 C   0  0  0  0  0  0
  -17.6472  -30.6602   24.0558 C   0  0  0  0  0  0
  -25.9079  -34.9389   23.5070 C   0  0  0  0  0  0
  -16.5360  -29.9088   23.6340 C   0  0  0  0  0  0
  -16.7283  -28.6515   23.0351 C   0  0  0  0  0  0
  -26.4576  -31.6527   25.0717 C   0  0  0  0  0  0
  -25.3781  -31.3705   26.1428 C   0  0  0  0  0  0
  -27.0411  -30.2907   24.6317 C   0  0  0  0  0  0
  -27.6140  -32.4255   25.7465 C   0  0  0  0  0  0
  -27.5563  -37.1763   24.8468 C   0  0  0  0  0  0
  -21.4265  -29.3089   22.3570 N   0  0  0  0  0  0
  -26.4253  -37.3736   23.9448 N   0  0  0  0  0  0
  -24.7316  -31.0170   22.0897 N   0  0  0  0  0  0
  -23.4180  -28.8096   23.3019 O   0  0  0  0  0  0
  -28.3374  -26.1576   20.0273 O   0  0  0  0  0  0
  -26.5618  -34.8909   22.4626 O   0  0  0  0  0  0
  -23.5627  -32.1211   23.7034 O   0  0  0  0  0  0
  -29.1185  -18.8853   20.2876 C   0  0  0  0  0  0
  -31.6128  -19.3243   21.1665 C   0  0  0  0  0  0
  -29.5122  -20.3331   20.3907 C   0  0  0  0  0  0
  -30.8589  -20.4747   20.8051 C   0  0  0  0  0  0
  -29.9988  -17.7057   20.5970 C   0  0  0  0  0  0
  -31.5400  -23.3856   17.8145 C   0  0  0  0  0  0
  -32.7296  -24.2498   17.4873 C   0  0  0  0  0  0
  -32.9006  -23.0230   18.3591 C   0  0  0  0  0  0
  -27.6902  -21.3459   18.8121 C   0  0  0  0  0  0
  -28.9121  -25.2042   22.1654 C   0  0  0  0  0  0
  -33.1802  -23.1254   19.8494 C   0  0  0  0  0  0
  -28.2290  -23.1289   20.6742 C   0  0  0  0  0  0
  -32.8371  -21.8368   20.6139 C   0  0  0  0  0  0
  -28.7744  -21.7374   19.8300 C   0  0  1  0  0  0
  -28.7146  -24.7833   20.7004 C   0  0  1  0  0  0
  -31.2166  -18.0368   21.0644 N   0  0  0  0  0  0
  -29.6966  -16.1932   20.4944 N   0  0  0  0  0  0
  -31.4188  -21.7378   20.7798 O   0  0  0  0  0  0
  -31.4736  -12.7731   19.2145 H   0  0  0  0  0  0
  -30.4230  -11.6683   20.0504 H   0  0  0  0  0  0
  -29.8576  -11.7561   17.5934 H   0  0  0  0  0  0
  -29.5975  -13.4809   17.7057 H   0  0  0  0  0  0
  -27.9826  -11.2696   19.0075 H   0  0  0  0  0  0
  -27.3885  -12.4119   17.8347 H   0  0  0  0  0  0
  -27.5798  -14.2456   19.4067 H   0  0  0  0  0  0
  -28.7648  -12.3271   21.4734 H   0  0  0  0  0  0
  -28.3505  -14.0000   21.7585 H   0  0  0  0  0  0
  -25.2748   -9.5676   22.4766 H   0  0  0  0  0  0
  -24.0005   -7.4623   22.7468 H   0  0  0  0  0  0
  -21.0843   -8.8756   19.8956 H   0  0  0  0  0  0
  -22.3701  -10.9651   19.6182 H   0  0  0  0  0  0
  -21.2005   -7.6137   23.9706 H   0  0  0  0  0  0
  -21.1495   -6.0525   25.9070 H   0  0  0  0  0  0
  -22.0598   -2.7608   23.2846 H   0  0  0  0  0  0
  -22.4068  -11.9821   22.4835 H   0  0  0  0  0  0
  -21.1071  -13.1166   22.2665 H   0  0  0  0  0  0
  -24.6259  -15.8297   20.5208 H   0  0  0  0  0  0
  -26.2244  -15.6353   20.0154 H   0  0  0  0  0  0
  -26.7330  -32.5244   23.1014 H   0  0  0  0  0  0
  -25.0221  -33.9615   25.0401 H   0  0  0  0  0  0
  -22.7700  -31.2795   21.3552 H   0  0  0  0  0  0
  -23.3774  -35.9532   23.3229 H   0  0  0  0  0  0
  -24.3601  -36.8918   22.2079 H   0  0  0  0  0  0
  -23.7225  -37.6405   23.6708 H   0  0  0  0  0  0
  -26.1684  -31.4341   20.6001 H   0  0  0  0  0  0
  -26.8937  -30.7666   22.0257 H   0  0  0  0  0  0
  -28.1623  -28.7697   21.2272 H   0  0  0  0  0  0
  -25.9786  -25.7950   19.0250 H   0  0  0  0  0  0
  -24.0092  -27.2431   19.0060 H   0  0  0  0  0  0
  -23.8544  -30.5285   19.3916 H   0  0  0  0  0  0
  -22.8136  -29.2107   19.8335 H   0  0  0  0  0  0
  -25.1298  -36.1804   25.0824 H   0  0  0  0  0  0
  -21.0014  -28.3348   24.1337 H   0  0  0  0  0  0
  -20.5677  -26.2366   23.3632 H   0  0  0  0  0  0
  -21.6656  -26.7459   22.1198 H   0  0  0  0  0  0
  -19.6933  -25.6292   21.1261 H   0  0  0  0  0  0
  -19.6714  -27.3176   20.6723 H   0  0  0  0  0  0
  -17.4216  -26.6698   21.4018 H   0  0  0  0  0  0
  -18.0342  -26.0118   22.9021 H   0  0  0  0  0  0
  -19.7951  -30.7295   24.2244 H   0  0  0  0  0  0
  -17.5028  -31.6290   24.5158 H   0  0  0  0  0  0
  -15.5362  -30.2983   23.7700 H   0  0  0  0  0  0
  -15.8679  -28.0830   22.7083 H   0  0  0  0  0  0
  -24.6000  -30.7017   25.7738 H   0  0  0  0  0  0
  -24.8937  -32.2861   26.4816 H   0  0  0  0  0  0
  -25.8092  -30.8904   27.0216 H   0  0  0  0  0  0
  -26.3006  -29.6640   24.1342 H   0  0  0  0  0  0
  -27.4018  -29.7229   25.4899 H   0  0  0  0  0  0
  -27.8928  -30.4123   23.9627 H   0  0  0  0  0  0
  -27.2841  -33.3652   26.1907 H   0  0  0  0  0  0
  -28.4013  -32.6630   25.0294 H   0  0  0  0  0  0
  -28.0733  -31.8427   26.5467 H   0  0  0  0  0  0
  -28.2535  -38.0098   24.7531 H   0  0  0  0  0  0
  -28.1087  -36.2626   24.6213 H   0  0  0  0  0  0
  -27.2289  -37.1301   25.8870 H   0  0  0  0  0  0
  -20.9475  -29.8773   21.6723 H   0  0  0  0  0  0
  -26.0091  -38.2788   24.1470 H   0  0  0  0  0  0
  -28.1263  -18.6739   19.9148 H   0  0  0  0  0  0
  -32.6238  -19.4245   21.5255 H   0  0  0  0  0  0
  -31.1345  -22.7467   17.0334 H   0  0  0  0  0  0
  -30.8120  -23.8201   18.4924 H   0  0  0  0  0  0
  -32.7787  -25.2290   17.9596 H   0  0  0  0  0  0
  -33.0737  -24.2139   16.4549 H   0  0  0  0  0  0
  -33.4243  -22.1972   17.8762 H   0  0  0  0  0  0
  -28.1017  -20.7207   18.0191 H   0  0  0  0  0  0
  -27.2659  -22.2254   18.3271 H   0  0  0  0  0  0
  -26.8756  -20.7962   19.2845 H   0  0  0  0  0  0
  -29.5066  -24.4733   22.7170 H   0  0  0  0  0  0
  -27.9565  -25.3253   22.6754 H   0  0  0  0  0  0
  -29.4490  -26.1520   22.2338 H   0  0  0  0  0  0
  -32.6349  -23.9685   20.2713 H   0  0  0  0  0  0
  -34.2390  -23.3482   19.9788 H   0  0  0  0  0  0
  -28.3479  -22.7995   21.7073 H   0  0  0  0  0  0
  -27.1429  -23.1584   20.5773 H   0  0  0  0  0  0
  -33.3020  -21.8478   21.6020 H   0  0  0  0  0  0
  -33.2601  -20.9913   20.0650 H   0  0  0  0  0  0
  -29.5590  -22.1477   19.2012 H   0  0  0  0  0  0
  -29.7341  -24.6817   20.3302 H   0  0  0  0  0  0
  -28.7130  -15.9811   20.5297 H   0  0  0  0  0  0
  1 25  1  0  0  0
  1 30  2  0  0  0
  1 87  1  0  0  0
  2  3  1  0  0  0
  2 25  1  0  0  0
  2 89  1  0  0  0
  2 90  1  0  0  0
  3  4  1  0  0  0
  3 91  1  0  0  0
  3 92  1  0  0  0
  4  5  1  0  0  0
  4 93  1  0  0  0
  4 94  1  0  0  0
  5  6  1  0  0  0
  5 26  1  0  0  0
  5 95  1  0  0  0
  6 25  1  0  0  0
  6 96  1  0  0  0
  6 97  1  0  0  0
  7  8  2  0  0  0
  7 26  1  0  0  0
  7 29  1  0  0  0
  8  9  1  0  0  0
  8 22  1  0  0  0
  9 10  1  0  0  0
  9 27  2  0  0  0
 10 11  2  0  0  0
 10 15  1  0  0  0
 11 12  1  0  0  0
 11 98  1  0  0  0
 12 13  2  0  0  0
 12 99  1  0  0  0
 13 14  1  0  0  0
 13 31  1  0  0  0
 14 15  2  0  0  0
 14100  1  0  0  0
 15101  1  0  0  0
 16 17  2  0  0  0
 16 21  1  0  0  0
 16 31  1  0  0  0
 17 18  1  0  0  0
 17102  1  0  0  0
 18 19  2  0  0  0
 18103  1  0  0  0
 19 20  1  0  0  0
 19 24  1  0  0  0
 20 21  2  0  0  0
 20104  1  0  0  0
 21 23  1  0  0  0
 22 28  1  0  0  0
 22 32  2  0  0  0
 26 27  1  0  0  0
 28105  1  0  0  0
 28106  1  0  0  0
 29107  1  0  0  0
 29108  1  0  0  0
 33 34  1  0  0  0
 33 66  1  0  0  0
 33 70  2  0  0  0
 34 36  1  0  0  0
 34 59  1  0  0  0
 34109  1  0  0  0
 35 44  2  0  0  0
 35 45  1  0  0  0
 35 68  1  0  0  0
 36 56  1  0  0  0
 36110  1  0  0  0
 37 39  1  0  0  0
 37 47  1  0  0  0
 37 66  1  0  0  0
 37111  1  0  0  0
 38 43  2  0  0  0
 38 46  1  0  0  0
 38 47  1  0  0  0
 39 64  1  0  0  0
 39 67  2  0  0  0
 40 52  1  0  0  0
 40 53  2  0  0  0
 40 58  1  0  0  0
 41112  1  0  0  0
 41113  1  0  0  0
 41114  1  0  0  0
 41 48  1  0  0  0
 42 43  1  0  0  0
 42 66  1  0  0  0
 42115  1  0  0  0
 42116  1  0  0  0
 43 44  1  0  0  0
 44117  1  0  0  0
 45 46  2  0  0  0
 45118  1  0  0  0
 46119  1  0  0  0
 47120  1  0  0  0
 47121  1  0  0  0
 48 56  1  0  0  0
 48 65  1  0  0  0
 48122  1  0  0  0
 49 50  1  0  0  0
 49 53  1  0  0  0
 49 64  1  0  0  0
 49123  1  0  0  0
 50 51  1  0  0  0
 50124  1  0  0  0
 50125  1  0  0  0
 51 52  1  0  0  0
 51126  1  0  0  0
 51127  1  0  0  0
 52128  1  0  0  0
 52129  1  0  0  0
 53 54  1  0  0  0
 54 55  2  0  0  0
 54130  1  0  0  0
 55 57  1  0  0  0
 55131  1  0  0  0
 56 69  2  0  0  0
 57 58  2  0  0  0
 57132  1  0  0  0
 58133  1  0  0  0
 59 60  1  0  0  0
 59 61  1  0  0  0
 59 62  1  0  0  0
 60134  1  0  0  0
 60135  1  0  0  0
 60136  1  0  0  0
 61137  1  0  0  0
 61138  1  0  0  0
 61139  1  0  0  0
 62140  1  0  0  0
 62141  1  0  0  0
 62142  1  0  0  0
 63 65  1  0  0  0
 63143  1  0  0  0
 63144  1  0  0  0
 63145  1  0  0  0
 64146  1  0  0  0
 65147  1  0  0  0
 68 85  1  0  0  0
 71 73  2  0  0  0
 71 75  1  0  0  0
 71148  1  0  0  0
 72 74  2  0  0  0
 72 86  1  0  0  0
 72149  1  0  0  0
 73 74  1  0  0  0
 73 84  1  0  0  0
 74 88  1  0  0  0
 75 86  2  0  0  0
 75 87  1  0  0  0
 76 77  1  0  0  0
 76 78  1  0  0  0
 76150  1  0  0  0
 76151  1  0  0  0
 77 78  1  0  0  0
 77152  1  0  0  0
 77153  1  0  0  0
 78 81  1  0  0  0
 78154  1  0  0  0
 79155  1  0  0  0
 79156  1  0  0  0
 79157  1  0  0  0
 79 84  1  0  0  0
 80158  1  0  0  0
 80159  1  0  0  0
 80160  1  0  0  0
 80 85  1  0  0  0
 81 83  1  0  0  0
 81161  1  0  0  0
 81162  1  0  0  0
 82 84  1  0  0  0
 82 85  1  0  0  0
 82163  1  0  0  0
 82164  1  0  0  0
 83 88  1  0  0  0
 83165  1  0  0  0
 83166  1  0  0  0
 84167  1  0  0  0
 85168  1  0  0  0
 87169  1  0  0  0
M  ISO  4   1 100  68 101  85 101  87 100
M  END
> <chiral flag>
0

> <version>
0

> <s_m_source_file>
/data/baiqing/PycharmProjects/Reinvent-master-3.2/result/LINK_invent/BTK/process_docking_weight1_custom_sum_contain_oxygen_bond_distance_aromatic_linkinvent_7_9_3/rearranged_h_0117.sdf

> <i_m_source_file_index>
55

> <r_mmod_Potential_Energy-OPLS-2005>
687.805603027344

> <r_mmod_Stretch_Energy-OPLS-2005>
324.661987304688

> <r_mmod_Bend_Energy-OPLS-2005>
402.322631835938

> <r_mmod_Torsional_Energy-OPLS-2005>
305.460205078125

> <r_mmod_Improper_Torsional_Energy-OPLS-2005>
8.88986492156982

> <r_mmod_Van_der_Waal_Energy-OPLS-2005>
127.525291442871

> <r_mmod_Electrostatic_Energy-OPLS-2005>
-473.997894287109

> <r_mmod_Solvation_Energy-OPLS-2005>
-228.855392456055

> <b_mmod_Minimization_Converged-OPLS-2005>
0

> <r_mmod_RMS_Derivative-OPLS-2005>
4.27079772949219

$$$$
56
                    3D
 Structure written by MMmdl.
168177  0  0  1  0            999 V2000
  -30.6143  -14.7004   20.4755 C   0  0  0  0  0  0
  -30.4396  -12.4352   19.4432 C   0  0  0  0  0  0
  -29.5039  -12.5022   18.2162 C   0  0  0  0  0  0
  -28.0300  -12.3292   18.6371 C   0  0  0  0  0  0
  -27.6447  -13.2180   19.8489 C   0  0  2  0  0  0
  -28.6954  -13.1248   20.9753 C   0  0  0  0  0  0
  -25.2535  -13.8154   20.5676 C   0  0  0  0  0  0
  -24.1817  -13.0426   20.9211 C   0  0  0  0  0  0
  -24.6392  -11.6898   20.8756 C   0  0  0  0  0  0
  -23.9067  -10.4281   21.0419 C   0  0  0  0  0  0
  -24.3618   -9.4197   21.9191 C   0  0  0  0  0  0
  -23.6292   -8.2231   22.0758 C   0  0  0  0  0  0
  -22.4277   -8.0273   21.3546 C   0  0  0  0  0  0
  -21.9910   -9.0250   20.4648 C   0  0  0  0  0  0
  -22.7240  -10.2127   20.3061 C   0  0  0  0  0  0
  -21.6848   -6.0735   22.5282 C   0  0  0  0  0  0
  -21.4008   -6.5643   23.8214 C   0  0  0  0  0  0
  -21.3656   -5.6793   24.9178 C   0  0  0  0  0  0
  -21.6041   -4.3057   24.7227 C   0  0  0  0  0  0
  -21.8822   -3.8151   23.4348 C   0  0  0  0  0  0
  -21.9193   -4.6963   22.3405 C   0  0  0  0  0  0
  -22.7844  -13.5219   21.1872 C   0  0  0  0  0  0
  -22.1662   -4.2152   21.0979 F   0  0  0  0  0  0
  -21.5628   -3.4538   25.7739 F   0  0  0  0  0  0
  -29.9954  -13.4785   20.3882 N   0  0  0  0  0  0
  -26.2954  -12.9341   20.3274 N   0  0  0  0  0  0
  -25.9317  -11.6499   20.5755 N   0  0  0  0  0  0
  -22.0479  -12.8202   22.0419 N   0  0  0  0  0  0
  -25.4230  -15.1873   20.4043 N   0  0  0  0  0  0
  -31.8085  -14.8288   20.1970 O   0  0  0  0  0  0
  -21.6636   -6.8877   21.4242 O   0  0  0  0  0  0
  -22.3537  -14.5534   20.6733 O   0  0  0  0  0  0
  -24.6274  -31.8578   23.1987 C   0  0  0  0  0  0
  -25.9116  -32.4765   23.8325 C   0  0  1  0  0  0
  -27.2257  -27.3066   20.1202 C   0  0  0  0  0  0
  -25.5928  -33.8567   24.2259 N   0  0  0  0  0  0
  -23.4229  -30.4792   21.5409 C   0  0  2  0  0  0
  -24.8727  -28.9287   20.1103 C   0  0  0  0  0  0
  -22.7480  -29.4621   22.4917 C   0  0  0  0  0  0
  -18.0287  -28.1393   22.8487 C   0  0  0  0  0  0
  -24.1485  -36.7279   23.2639 C   0  0  0  0  0  0
  -25.9653  -30.7841   21.3709 C   0  0  0  0  0  0
  -26.0421  -29.4086   20.7159 C   0  0  0  0  0  0
  -27.2267  -28.6097   20.7110 C   0  0  0  0  0  0
  -26.0374  -26.8756   19.5003 C   0  0  0  0  0  0
  -24.8717  -27.6666   19.4947 C   0  0  0  0  0  0
  -23.6391  -29.8091   20.1578 C   0  0  0  0  0  0
  -25.4111  -36.3070   24.0327 C   0  0  1  0  0  0
  -20.5893  -28.3696   23.1278 C   0  0  2  0  0  0
  -20.6786  -26.9415   22.5408 C   0  0  0  0  0  0
  -19.5756  -26.6392   21.5212 C   0  0  0  0  0  0
  -18.1935  -26.7944   22.1622 C   0  0  0  0  0  0
  -19.1540  -28.8865   23.2882 C   0  0  0  0  0  0
  -18.9468  -30.1473   23.8890 C   0  0  0  0  0  0
  -17.6465  -30.6597   24.0564 C   0  0  0  0  0  0
  -25.9050  -34.9447   23.5093 C   0  0  0  0  0  0
  -16.5355  -29.9094   23.6336 C   0  0  0  0  0  0
  -16.7277  -28.6512   23.0352 C   0  0  0  0  0  0
  -26.4494  -31.6580   25.0701 C   0  0  0  0  0  0
  -25.3728  -31.3735   26.1426 C   0  0  0  0  0  0
  -27.0329  -30.3003   24.6159 C   0  0  0  0  0  0
  -27.6047  -32.4319   25.7476 C   0  0  0  0  0  0
  -27.5582  -37.1779   24.8457 C   0  0  0  0  0  0
  -21.4194  -29.3047   22.3664 N   0  0  0  0  0  0
  -26.4277  -37.3776   23.9424 N   0  0  0  0  0  0
  -24.6906  -31.0574   22.0933 N   0  0  0  0  0  0
  -23.4198  -28.8167   23.3006 O   0  0  0  0  0  0
  -28.3092  -26.4153   20.1187 O   0  0  0  0  0  0
  -26.5613  -34.8931   22.4658 O   0  0  0  0  0  0
  -23.5437  -32.1371   23.7316 O   0  0  0  0  0  0
  -27.7681  -22.7743   21.4773 C   0  0  0  0  0  0
  -27.9777  -21.3742   21.3258 C   0  0  0  0  0  0
  -29.3781  -23.2194   19.7689 C   0  0  0  0  0  0
  -28.4418  -23.7543   20.7004 C   0  0  0  0  0  0
  -29.5904  -21.7991   19.6025 C   0  0  0  0  0  0
  -28.8765  -20.8231   20.3759 C   0  0  0  0  0  0
  -26.3364  -18.7772   18.0457 C   0  0  0  0  0  0
  -27.7904  -18.3206   18.1510 C   0  0  1  0  0  0
  -27.6677  -18.7608   19.6229 C   0  0  1  0  0  0
  -30.5891  -21.3454   18.5534 C   0  0  0  0  0  0
  -28.1375  -16.8845   17.7743 C   0  0  0  0  0  0
  -28.2045  -25.2844   21.0668 C   0  0  0  0  0  0
  -30.1297  -17.2074   21.1469 C   0  0  0  0  0  0
  -30.1012  -18.4852   20.1695 C   0  0  0  0  0  0
  -29.8081  -15.7943   20.6974 N   0  0  0  0  0  0
  -28.8927  -19.3823   20.1729 N   0  0  0  0  0  0
  -26.6047  -19.6701   19.1645 N   0  3  0  0  0  0
  -31.4764  -12.5766   19.1332 H   0  0  0  0  0  0
  -30.3956  -11.4522   19.9140 H   0  0  0  0  0  0
  -29.7770  -11.7335   17.4911 H   0  0  0  0  0  0
  -29.6293  -13.4602   17.7082 H   0  0  0  0  0  0
  -27.8827  -11.2786   18.8902 H   0  0  0  0  0  0
  -27.3698  -12.5322   17.7931 H   0  0  0  0  0  0
  -27.6464  -14.2427   19.4827 H   0  0  0  0  0  0
  -28.7291  -12.1182   21.3934 H   0  0  0  0  0  0
  -28.4392  -13.7889   21.8027 H   0  0  0  0  0  0
  -25.2766   -9.5667   22.4765 H   0  0  0  0  0  0
  -24.0005   -7.4618   22.7471 H   0  0  0  0  0  0
  -21.0845   -8.8764   19.8951 H   0  0  0  0  0  0
  -22.3704  -10.9664   19.6168 H   0  0  0  0  0  0
  -21.1996   -7.6151   23.9718 H   0  0  0  0  0  0
  -21.1472   -6.0525   25.9080 H   0  0  0  0  0  0
  -22.0604   -2.7613   23.2848 H   0  0  0  0  0  0
  -22.4089  -11.9852   22.4785 H   0  0  0  0  0  0
  -21.1098  -13.1220   22.2623 H   0  0  0  0  0  0
  -24.6482  -15.8328   20.5086 H   0  0  0  0  0  0
  -26.2568  -15.6149   20.0308 H   0  0  0  0  0  0
  -26.7182  -32.5414   23.1068 H   0  0  0  0  0  0
  -25.0102  -33.9716   25.0427 H   0  0  0  0  0  0
  -22.7182  -31.3003   21.3946 H   0  0  0  0  0  0
  -23.3763  -35.9590   23.3267 H   0  0  0  0  0  0
  -24.3598  -36.8923   22.2059 H   0  0  0  0  0  0
  -23.7212  -37.6466   23.6676 H   0  0  0  0  0  0
  -26.0986  -31.5457   20.6016 H   0  0  0  0  0  0
  -26.8460  -30.8345   21.9993 H   0  0  0  0  0  0
  -28.1260  -28.9760   21.1866 H   0  0  0  0  0  0
  -26.0080  -25.9006   19.0344 H   0  0  0  0  0  0
  -23.9745  -27.2902   19.0235 H   0  0  0  0  0  0
  -23.7556  -30.5829   19.3982 H   0  0  0  0  0  0
  -22.7599  -29.2359   19.8566 H   0  0  0  0  0  0
  -25.1290  -36.1902   25.0812 H   0  0  0  0  0  0
  -20.9991  -28.3264   24.1397 H   0  0  0  0  0  0
  -20.5704  -26.2295   23.3610 H   0  0  0  0  0  0
  -21.6655  -26.7460   22.1183 H   0  0  0  0  0  0
  -19.6911  -25.6305   21.1236 H   0  0  0  0  0  0
  -19.6697  -27.3216   20.6751 H   0  0  0  0  0  0
  -17.4211  -26.6699   21.4016 H   0  0  0  0  0  0
  -18.0326  -26.0102   22.9027 H   0  0  0  0  0  0
  -19.7942  -30.7298   24.2249 H   0  0  0  0  0  0
  -17.5016  -31.6277   24.5170 H   0  0  0  0  0  0
  -15.5354  -30.2984   23.7688 H   0  0  0  0  0  0
  -15.8674  -28.0835   22.7058 H   0  0  0  0  0  0
  -24.5899  -30.7086   25.7757 H   0  0  0  0  0  0
  -24.8936  -32.2918   26.4829 H   0  0  0  0  0  0
  -25.8059  -30.8924   27.0204 H   0  0  0  0  0  0
  -26.2897  -29.6758   24.1191 H   0  0  0  0  0  0
  -27.4035  -29.7249   25.4649 H   0  0  0  0  0  0
  -27.8760  -30.4289   23.9372 H   0  0  0  0  0  0
  -27.2655  -33.3638   26.2014 H   0  0  0  0  0  0
  -28.3884  -32.6841   25.0321 H   0  0  0  0  0  0
  -28.0682  -31.8464   26.5426 H   0  0  0  0  0  0
  -28.2549  -38.0127   24.7580 H   0  0  0  0  0  0
  -28.1127  -36.2663   24.6180 H   0  0  0  0  0  0
  -27.2320  -37.1291   25.8862 H   0  0  0  0  0  0
  -20.9375  -29.8750   21.6858 H   0  0  0  0  0  0
  -26.0145  -38.2828   24.1492 H   0  0  0  0  0  0
  -27.0684  -23.0992   22.2337 H   0  0  0  0  0  0
  -27.4115  -20.7060   21.9597 H   0  0  0  0  0  0
  -29.9525  -23.9147   19.1725 H   0  0  0  0  0  0
  -25.6109  -18.0009   18.2989 H   0  0  0  0  0  0
  -26.0777  -19.2882   17.1176 H   0  0  0  0  0  0
  -28.4229  -19.0195   17.5978 H   0  0  0  0  0  0
  -27.2675  -17.9755   20.2680 H   0  0  0  0  0  0
  -30.8453  -22.1522   17.8665 H   0  0  0  0  0  0
  -30.1897  -20.5247   17.9589 H   0  0  0  0  0  0
  -31.5078  -21.0057   19.0311 H   0  0  0  0  0  0
  -27.4665  -16.1739   18.2523 H   0  0  0  0  0  0
  -29.1562  -16.6208   18.0544 H   0  0  0  0  0  0
  -28.0518  -16.7312   16.6987 H   0  0  0  0  0  0
  -28.9142  -25.5092   21.8632 H   0  0  0  0  0  0
  -27.2294  -25.3336   21.5558 H   0  0  0  0  0  0
  -29.5141  -17.4237   22.0204 H   0  0  0  0  0  0
  -31.1450  -17.1550   21.5447 H   0  0  0  0  0  0
  -30.3534  -18.1889   19.1516 H   0  0  0  0  0  0
  -30.9322  -19.1228   20.4754 H   0  0  0  0  0  0
  -28.8331  -15.5533   20.7815 H   0  0  0  0  0  0
  -25.8237  -19.7698   19.7934 H   0  0  0  0  0  0
  -26.9561  -20.5558   18.8428 H   0  0  0  0  0  0
  1 25  1  0  0  0
  1 30  2  0  0  0
  1 85  1  0  0  0
  2  3  1  0  0  0
  2 25  1  0  0  0
  2 88  1  0  0  0
  2 89  1  0  0  0
  3  4  1  0  0  0
  3 90  1  0  0  0
  3 91  1  0  0  0
  4  5  1  0  0  0
  4 92  1  0  0  0
  4 93  1  0  0  0
  5  6  1  0  0  0
  5 26  1  0  0  0
  5 94  1  0  0  0
  6 25  1  0  0  0
  6 95  1  0  0  0
  6 96  1  0  0  0
  7  8  2  0  0  0
  7 26  1  0  0  0
  7 29  1  0  0  0
  8  9  1  0  0  0
  8 22  1  0  0  0
  9 10  1  0  0  0
  9 27  2  0  0  0
 10 11  2  0  0  0
 10 15  1  0  0  0
 11 12  1  0  0  0
 11 97  1  0  0  0
 12 13  2  0  0  0
 12 98  1  0  0  0
 13 14  1  0  0  0
 13 31  1  0  0  0
 14 15  2  0  0  0
 14 99  1  0  0  0
 15100  1  0  0  0
 16 17  2  0  0  0
 16 21  1  0  0  0
 16 31  1  0  0  0
 17 18  1  0  0  0
 17101  1  0  0  0
 18 19  2  0  0  0
 18102  1  0  0  0
 19 20  1  0  0  0
 19 24  1  0  0  0
 20 21  2  0  0  0
 20103  1  0  0  0
 21 23  1  0  0  0
 22 28  1  0  0  0
 22 32  2  0  0  0
 26 27  1  0  0  0
 28104  1  0  0  0
 28105  1  0  0  0
 29106  1  0  0  0
 29107  1  0  0  0
 33 34  1  0  0  0
 33 66  1  0  0  0
 33 70  2  0  0  0
 34 36  1  0  0  0
 34 59  1  0  0  0
 34108  1  0  0  0
 35 44  2  0  0  0
 35 45  1  0  0  0
 35 68  1  0  0  0
 36 56  1  0  0  0
 36109  1  0  0  0
 37 39  1  0  0  0
 37 47  1  0  0  0
 37 66  1  0  0  0
 37110  1  0  0  0
 38 43  2  0  0  0
 38 46  1  0  0  0
 38 47  1  0  0  0
 39 64  1  0  0  0
 39 67  2  0  0  0
 40 52  1  0  0  0
 40 53  2  0  0  0
 40 58  1  0  0  0
 41111  1  0  0  0
 41112  1  0  0  0
 41113  1  0  0  0
 41 48  1  0  0  0
 42 43  1  0  0  0
 42 66  1  0  0  0
 42114  1  0  0  0
 42115  1  0  0  0
 43 44  1  0  0  0
 44116  1  0  0  0
 45 46  2  0  0  0
 45117  1  0  0  0
 46118  1  0  0  0
 47119  1  0  0  0
 47120  1  0  0  0
 48 56  1  0  0  0
 48 65  1  0  0  0
 48121  1  0  0  0
 49 50  1  0  0  0
 49 53  1  0  0  0
 49 64  1  0  0  0
 49122  1  0  0  0
 50 51  1  0  0  0
 50123  1  0  0  0
 50124  1  0  0  0
 51 52  1  0  0  0
 51125  1  0  0  0
 51126  1  0  0  0
 52127  1  0  0  0
 52128  1  0  0  0
 53 54  1  0  0  0
 54 55  2  0  0  0
 54129  1  0  0  0
 55 57  1  0  0  0
 55130  1  0  0  0
 56 69  2  0  0  0
 57 58  2  0  0  0
 57131  1  0  0  0
 58132  1  0  0  0
 59 60  1  0  0  0
 59 61  1  0  0  0
 59 62  1  0  0  0
 60133  1  0  0  0
 60134  1  0  0  0
 60135  1  0  0  0
 61136  1  0  0  0
 61137  1  0  0  0
 61138  1  0  0  0
 62139  1  0  0  0
 62140  1  0  0  0
 62141  1  0  0  0
 63 65  1  0  0  0
 63142  1  0  0  0
 63143  1  0  0  0
 63144  1  0  0  0
 64145  1  0  0  0
 65146  1  0  0  0
 68 82  1  0  0  0
 71 72  2  0  0  0
 71 74  1  0  0  0
 71147  1  0  0  0
 72 76  1  0  0  0
 72148  1  0  0  0
 73 74  2  0  0  0
 73 75  1  0  0  0
 73149  1  0  0  0
 74 82  1  0  0  0
 75 76  2  0  0  0
 75 80  1  0  0  0
 76 86  1  0  0  0
 77 78  1  0  0  0
 77 87  1  0  0  0
 77150  1  0  0  0
 77151  1  0  0  0
 78 79  1  0  0  0
 78 81  1  0  0  0
 78152  1  0  0  0
 79 86  1  0  0  0
 79 87  1  0  0  0
 79153  1  0  0  0
 80154  1  0  0  0
 80155  1  0  0  0
 80156  1  0  0  0
 81157  1  0  0  0
 81158  1  0  0  0
 81159  1  0  0  0
 82160  1  0  0  0
 82161  1  0  0  0
 83 84  1  0  0  0
 83 85  1  0  0  0
 83162  1  0  0  0
 83163  1  0  0  0
 84 86  1  0  0  0
 84164  1  0  0  0
 84165  1  0  0  0
 85166  1  0  0  0
 87167  1  0  0  0
 87168  1  0  0  0
M  CHG  1  87   1
M  ISO  4   1 100  68 101  82 101  85 100
M  END
> <chiral flag>
0

> <version>
0

> <s_m_source_file>
/data/baiqing/PycharmProjects/Reinvent-master-3.2/result/LINK_invent/BTK/process_docking_weight1_custom_sum_contain_oxygen_bond_distance_aromatic_linkinvent_7_9_3/rearranged_h_0117.sdf

> <i_m_source_file_index>
56

> <r_mmod_Potential_Energy-OPLS-2005>
9.90901947021484

> <r_mmod_Stretch_Energy-OPLS-2005>
96.5810165405273

> <r_mmod_Bend_Energy-OPLS-2005>
203.470001220703

> <r_mmod_Torsional_Energy-OPLS-2005>
310.447052001953

> <r_mmod_Improper_Torsional_Energy-OPLS-2005>
6.34633207321167

> <r_mmod_Van_der_Waal_Energy-OPLS-2005>
125.846855163574

> <r_mmod_Electrostatic_Energy-OPLS-2005>
-337.832427978516

> <r_mmod_Solvation_Energy-OPLS-2005>
-461.8955078125

> <b_mmod_Minimization_Converged-OPLS-2005>
0

> <r_mmod_RMS_Derivative-OPLS-2005>
1.38041687011719

$$$$
57
                    3D
 Structure written by MMmdl.
187195  0  0  1  0            999 V2000
  -30.7160  -14.5347   20.6067 C   0  0  0  0  0  0
  -30.4246  -12.3684   19.4255 C   0  0  0  0  0  0
  -29.4943  -12.5514   18.2063 C   0  0  0  0  0  0
  -28.0096  -12.4069   18.6011 C   0  0  0  0  0  0
  -27.6599  -13.2063   19.8822 C   0  0  2  0  0  0
  -28.7062  -12.9189   20.9801 C   0  0  0  0  0  0
  -25.2538  -13.8166   20.5575 C   0  0  0  0  0  0
  -24.1794  -13.0432   20.9139 C   0  0  0  0  0  0
  -24.6386  -11.6899   20.8763 C   0  0  0  0  0  0
  -23.9065  -10.4269   21.0449 C   0  0  0  0  0  0
  -24.3630   -9.4174   21.9206 C   0  0  0  0  0  0
  -23.6297   -8.2212   22.0771 C   0  0  0  0  0  0
  -22.4283   -8.0268   21.3565 C   0  0  0  0  0  0
  -21.9917   -9.0240   20.4677 C   0  0  0  0  0  0
  -22.7244  -10.2107   20.3088 C   0  0  0  0  0  0
  -21.6817   -6.0743   22.5303 C   0  0  0  0  0  0
  -21.3970   -6.5648   23.8235 C   0  0  0  0  0  0
  -21.3664   -5.6811   24.9194 C   0  0  0  0  0  0
  -21.6051   -4.3083   24.7244 C   0  0  0  0  0  0
  -21.8802   -3.8163   23.4368 C   0  0  0  0  0  0
  -21.9154   -4.6969   22.3422 C   0  0  0  0  0  0
  -22.7827  -13.5260   21.1823 C   0  0  0  0  0  0
  -22.1631   -4.2173   21.0991 F   0  0  0  0  0  0
  -21.5657   -3.4555   25.7758 F   0  0  0  0  0  0
  -30.0232  -13.3471   20.4681 N   0  0  0  0  0  0
  -26.2990  -12.9323   20.3364 N   0  0  0  0  0  0
  -25.9311  -11.6494   20.5788 N   0  0  0  0  0  0
  -22.0436  -12.8245   22.0385 N   0  0  0  0  0  0
  -25.4244  -15.1852   20.3883 N   0  0  0  0  0  0
  -31.7798  -14.6428   19.9839 O   0  0  0  0  0  0
  -21.6627   -6.8878   21.4265 O   0  0  0  0  0  0
  -22.3510  -14.5578   20.6707 O   0  0  0  0  0  0
  -24.6171  -31.8688   23.2066 C   0  0  0  0  0  0
  -25.9061  -32.4821   23.8373 C   0  0  1  0  0  0
  -27.2429  -27.4155   20.0947 C   0  0  0  0  0  0
  -25.5935  -33.8612   24.2307 N   0  0  0  0  0  0
  -23.4028  -30.4913   21.5531 C   0  0  2  0  0  0
  -24.8485  -28.9493   20.1178 C   0  0  0  0  0  0
  -22.7389  -29.4695   22.5017 C   0  0  0  0  0  0
  -18.0299  -28.1353   22.8520 C   0  0  0  0  0  0
  -24.1485  -36.7291   23.2641 C   0  0  0  0  0  0
  -25.9301  -30.8263   21.3619 C   0  0  0  0  0  0
  -26.0081  -29.4572   20.7125 C   0  0  0  0  0  0
  -27.2005  -28.6958   20.7052 C   0  0  0  0  0  0
  -26.0576  -26.9224   19.5019 C   0  0  0  0  0  0
  -24.8693  -27.6799   19.5146 C   0  0  0  0  0  0
  -23.6110  -29.8194   20.1700 C   0  0  0  0  0  0
  -25.4120  -36.3111   24.0344 C   0  0  1  0  0  0
  -20.5897  -28.3642   23.1348 C   0  0  2  0  0  0
  -20.6794  -26.9372   22.5439 C   0  0  0  0  0  0
  -19.5754  -26.6318   21.5243 C   0  0  0  0  0  0
  -18.1934  -26.7904   22.1650 C   0  0  0  0  0  0
  -19.1547  -28.8815   23.2946 C   0  0  0  0  0  0
  -18.9471  -30.1441   23.8936 C   0  0  0  0  0  0
  -17.6473  -30.6585   24.0567 C   0  0  0  0  0  0
  -25.9049  -34.9476   23.5123 C   0  0  0  0  0  0
  -16.5372  -29.9074   23.6314 C   0  0  0  0  0  0
  -16.7284  -28.6492   23.0355 C   0  0  0  0  0  0
  -26.4473  -31.6589   25.0692 C   0  0  0  0  0  0
  -25.3719  -31.3669   26.1428 C   0  0  0  0  0  0
  -27.0311  -30.3053   24.6023 C   0  0  0  0  0  0
  -27.6070  -32.4290   25.7450 C   0  0  0  0  0  0
  -27.5588  -37.1824   24.8473 C   0  0  0  0  0  0
  -21.4126  -29.3031   22.3736 N   0  0  0  0  0  0
  -26.4307  -37.3803   23.9414 N   0  0  0  0  0  0
  -24.6698  -31.0741   22.1013 N   0  0  0  0  0  0
  -23.4164  -28.8265   23.3098 O   0  0  0  0  0  0
  -28.4478  -26.7268   20.0978 O   0  0  0  0  0  0
  -26.5576  -34.8929   22.4660 O   0  0  0  0  0  0
  -23.5360  -32.1464   23.7452 O   0  0  0  0  0  0
  -28.2656  -18.5719   19.8285 C   0  0  0  0  0  0
  -28.8318  -17.1506   19.6891 C   0  0  0  0  0  0
  -30.3601  -18.5516   21.0183 C   0  0  0  0  0  0
  -29.4390  -19.4866   20.1816 C   0  0  2  0  0  0
  -30.1517  -17.0898   20.4992 C   0  0  1  0  0  0
  -28.4754  -16.7104   23.2882 C   0  0  0  0  0  0
  -28.9737  -20.8944   22.3355 C   0  0  0  0  0  0
  -27.0456  -23.5737   20.7222 C   0  0  0  0  0  0
  -32.9235  -17.5965   25.5844 C   0  0  0  0  0  0
  -31.7357  -15.4698   25.3730 C   0  0  0  0  0  0
  -29.1233  -15.6025   22.4337 C   0  0  0  0  0  0
  -31.6881  -16.0323   22.3150 C   0  0  0  0  0  0
  -31.8021  -17.0622   23.4686 C   0  0  0  0  0  0
  -29.6803  -22.1077   20.1496 C   0  0  0  0  0  0
  -28.5660  -25.3625   19.6322 C   0  0  0  0  0  0
  -28.9742  -20.8687   20.7922 C   0  0  1  0  0  0
  -28.4005  -24.3041   20.7673 C   0  0  2  0  0  0
  -30.3567  -15.8377   21.4859 C   0  0  1  0  0  0
  -29.5839  -23.3894   20.9130 N   0  3  0  0  0  0
  -32.5075  -16.5193   24.6586 N   0  3  0  0  0  0
  -31.4665  -12.4612   19.1160 H   0  0  0  0  0  0
  -30.3529  -11.3476   19.8022 H   0  0  0  0  0  0
  -29.7442  -11.8186   17.4392 H   0  0  0  0  0  0
  -29.6574  -13.5360   17.7629 H   0  0  0  0  0  0
  -27.8010  -11.3466   18.7513 H   0  0  0  0  0  0
  -27.3723  -12.7223   17.7746 H   0  0  0  0  0  0
  -27.7196  -14.2609   19.6237 H   0  0  0  0  0  0
  -28.7230  -11.8440   21.1620 H   0  0  0  0  0  0
  -28.4126  -13.2845   21.9538 H   0  0  0  0  0  0
  -25.2772   -9.5636   22.4773 H   0  0  0  0  0  0
  -24.0006   -7.4600   22.7483 H   0  0  0  0  0  0
  -21.0841   -8.8736   19.9008 H   0  0  0  0  0  0
  -22.3695  -10.9622   19.6195 H   0  0  0  0  0  0
  -21.1941   -7.6154   23.9734 H   0  0  0  0  0  0
  -21.1525   -6.0550   25.9104 H   0  0  0  0  0  0
  -22.0587   -2.7630   23.2858 H   0  0  0  0  0  0
  -22.4061  -11.9937   22.4830 H   0  0  0  0  0  0
  -21.1077  -13.1290   22.2651 H   0  0  0  0  0  0
  -24.6620  -15.8432   20.4956 H   0  0  0  0  0  0
  -26.2825  -15.6228   20.0782 H   0  0  0  0  0  0
  -26.7153  -32.5520   23.1149 H   0  0  0  0  0  0
  -25.0138  -33.9786   25.0493 H   0  0  0  0  0  0
  -22.6969  -31.3113   21.4104 H   0  0  0  0  0  0
  -23.3758  -35.9613   23.3301 H   0  0  0  0  0  0
  -24.3556  -36.8871   22.2050 H   0  0  0  0  0  0
  -23.7212  -37.6502   23.6616 H   0  0  0  0  0  0
  -26.0313  -31.5936   20.5929 H   0  0  0  0  0  0
  -26.8204  -30.8865   21.9741 H   0  0  0  0  0  0
  -28.0900  -29.0899   21.1746 H   0  0  0  0  0  0
  -26.0156  -25.9599   19.0171 H   0  0  0  0  0  0
  -23.9772  -27.2766   19.0588 H   0  0  0  0  0  0
  -23.7147  -30.5914   19.4073 H   0  0  0  0  0  0
  -22.7319  -29.2460   19.8743 H   0  0  0  0  0  0
  -25.1301  -36.2007   25.0847 H   0  0  0  0  0  0
  -21.0019  -28.3186   24.1454 H   0  0  0  0  0  0
  -20.5731  -26.2254   23.3641 H   0  0  0  0  0  0
  -21.6658  -26.7404   22.1196 H   0  0  0  0  0  0
  -19.6875  -25.6191   21.1335 H   0  0  0  0  0  0
  -19.6669  -27.3074   20.6714 H   0  0  0  0  0  0
  -17.4187  -26.6629   21.4077 H   0  0  0  0  0  0
  -18.0260  -26.0079   22.9054 H   0  0  0  0  0  0
  -19.7950  -30.7276   24.2284 H   0  0  0  0  0  0
  -17.5022  -31.6267   24.5171 H   0  0  0  0  0  0
  -15.5374  -30.3001   23.7629 H   0  0  0  0  0  0
  -15.8659  -28.0831   22.7046 H   0  0  0  0  0  0
  -24.5942  -30.6960   25.7729 H   0  0  0  0  0  0
  -24.8845  -32.2807   26.4864 H   0  0  0  0  0  0
  -25.8097  -30.8851   27.0183 H   0  0  0  0  0  0
  -26.2847  -29.6820   24.1076 H   0  0  0  0  0  0
  -27.4123  -29.7293   25.4462 H   0  0  0  0  0  0
  -27.8647  -30.4389   23.9111 H   0  0  0  0  0  0
  -27.2736  -33.3614   26.2020 H   0  0  0  0  0  0
  -28.3896  -32.6813   25.0270 H   0  0  0  0  0  0
  -28.0704  -31.8387   26.5368 H   0  0  0  0  0  0
  -28.2653  -38.0091   24.7543 H   0  0  0  0  0  0
  -28.1058  -36.2636   24.6305 H   0  0  0  0  0  0
  -27.2281  -37.1456   25.8868 H   0  0  0  0  0  0
  -20.9242  -29.8672   21.6921 H   0  0  0  0  0  0
  -26.0191  -38.2888   24.1408 H   0  0  0  0  0  0
  -27.5337  -18.5881   20.6336 H   0  0  0  0  0  0
  -27.7500  -18.9042   18.9259 H   0  0  0  0  0  0
  -29.0375  -16.9428   18.6381 H   0  0  0  0  0  0
  -28.0811  -16.4263   19.9927 H   0  0  0  0  0  0
  -30.1189  -18.6259   22.0701 H   0  0  0  0  0  0
  -31.4058  -18.8532   20.9206 H   0  0  0  0  0  0
  -29.9540  -19.6824   19.2387 H   0  0  0  0  0  0
  -30.9231  -17.0004   19.7326 H   0  0  0  0  0  0
  -28.9825  -16.8948   24.2324 H   0  0  0  0  0  0
  -27.4751  -16.3948   23.5897 H   0  0  0  0  0  0
  -28.3352  -17.6377   22.7394 H   0  0  0  0  0  0
  -28.4235  -20.0433   22.7362 H   0  0  0  0  0  0
  -28.4708  -21.7734   22.7352 H   0  0  0  0  0  0
  -29.9833  -20.8756   22.7427 H   0  0  0  0  0  0
  -26.2161  -24.2783   20.7674 H   0  0  0  0  0  0
  -26.9304  -22.9007   21.5695 H   0  0  0  0  0  0
  -26.9299  -22.9969   19.8057 H   0  0  0  0  0  0
  -33.4737  -17.2040   26.4401 H   0  0  0  0  0  0
  -32.0512  -18.1282   25.9638 H   0  0  0  0  0  0
  -33.5678  -18.3196   25.0820 H   0  0  0  0  0  0
  -32.3210  -15.0286   26.1794 H   0  0  0  0  0  0
  -31.4347  -14.6447   24.7278 H   0  0  0  0  0  0
  -30.8310  -15.8905   25.8121 H   0  0  0  0  0  0
  -28.2865  -15.3092   21.8112 H   0  0  0  0  0  0
  -29.3493  -14.7756   23.1085 H   0  0  0  0  0  0
  -31.9992  -15.0539   22.6820 H   0  0  0  0  0  0
  -32.4967  -16.3029   21.6313 H   0  0  0  0  0  0
  -30.8646  -17.4916   23.7877 H   0  0  0  0  0  0
  -32.3669  -17.9187   23.0960 H   0  0  0  0  0  0
  -29.3316  -22.2512   19.1251 H   0  0  0  0  0  0
  -30.7461  -21.8852   20.0755 H   0  0  0  0  0  0
  -29.5762  -25.2866   19.2285 H   0  0  0  0  0  0
  -27.9342  -25.1340   18.7740 H   0  0  0  0  0  0
  -27.9255  -20.9739   20.5157 H   0  0  0  0  0  0
  -28.4074  -24.8676   21.7037 H   0  0  0  0  0  0
  -30.3991  -23.9364   20.6740 H   0  0  0  0  0  0
  -29.7003  -23.1536   21.8875 H   0  0  0  0  0  0
  -33.3616  -16.0977   24.3219 H   0  0  0  0  0  0
  1 25  1  0  0  0
  1 30  2  0  0  0
  1 88  1  0  0  0
  2  3  1  0  0  0
  2 25  1  0  0  0
  2 91  1  0  0  0
  2 92  1  0  0  0
  3  4  1  0  0  0
  3 93  1  0  0  0
  3 94  1  0  0  0
  4  5  1  0  0  0
  4 95  1  0  0  0
  4 96  1  0  0  0
  5  6  1  0  0  0
  5 26  1  0  0  0
  5 97  1  0  0  0
  6 25  1  0  0  0
  6 98  1  0  0  0
  6 99  1  0  0  0
  7  8  2  0  0  0
  7 26  1  0  0  0
  7 29  1  0  0  0
  8  9  1  0  0  0
  8 22  1  0  0  0
  9 10  1  0  0  0
  9 27  2  0  0  0
 10 11  2  0  0  0
 10 15  1  0  0  0
 11 12  1  0  0  0
 11100  1  0  0  0
 12 13  2  0  0  0
 12101  1  0  0  0
 13 14  1  0  0  0
 13 31  1  0  0  0
 14 15  2  0  0  0
 14102  1  0  0  0
 15103  1  0  0  0
 16 17  2  0  0  0
 16 21  1  0  0  0
 16 31  1  0  0  0
 17 18  1  0  0  0
 17104  1  0  0  0
 18 19  2  0  0  0
 18105  1  0  0  0
 19 20  1  0  0  0
 19 24  1  0  0  0
 20 21  2  0  0  0
 20106  1  0  0  0
 21 23  1  0  0  0
 22 28  1  0  0  0
 22 32  2  0  0  0
 26 27  1  0  0  0
 28107  1  0  0  0
 28108  1  0  0  0
 29109  1  0  0  0
 29110  1  0  0  0
 33 34  1  0  0  0
 33 66  1  0  0  0
 33 70  2  0  0  0
 34 36  1  0  0  0
 34 59  1  0  0  0
 34111  1  0  0  0
 35 44  2  0  0  0
 35 45  1  0  0  0
 35 68  1  0  0  0
 36 56  1  0  0  0
 36112  1  0  0  0
 37 39  1  0  0  0
 37 47  1  0  0  0
 37 66  1  0  0  0
 37113  1  0  0  0
 38 43  2  0  0  0
 38 46  1  0  0  0
 38 47  1  0  0  0
 39 64  1  0  0  0
 39 67  2  0  0  0
 40 52  1  0  0  0
 40 53  2  0  0  0
 40 58  1  0  0  0
 41114  1  0  0  0
 41115  1  0  0  0
 41116  1  0  0  0
 41 48  1  0  0  0
 42 43  1  0  0  0
 42 66  1  0  0  0
 42117  1  0  0  0
 42118  1  0  0  0
 43 44  1  0  0  0
 44119  1  0  0  0
 45 46  2  0  0  0
 45120  1  0  0  0
 46121  1  0  0  0
 47122  1  0  0  0
 47123  1  0  0  0
 48 56  1  0  0  0
 48 65  1  0  0  0
 48124  1  0  0  0
 49 50  1  0  0  0
 49 53  1  0  0  0
 49 64  1  0  0  0
 49125  1  0  0  0
 50 51  1  0  0  0
 50126  1  0  0  0
 50127  1  0  0  0
 51 52  1  0  0  0
 51128  1  0  0  0
 51129  1  0  0  0
 52130  1  0  0  0
 52131  1  0  0  0
 53 54  1  0  0  0
 54 55  2  0  0  0
 54132  1  0  0  0
 55 57  1  0  0  0
 55133  1  0  0  0
 56 69  2  0  0  0
 57 58  2  0  0  0
 57134  1  0  0  0
 58135  1  0  0  0
 59 60  1  0  0  0
 59 61  1  0  0  0
 59 62  1  0  0  0
 60136  1  0  0  0
 60137  1  0  0  0
 60138  1  0  0  0
 61139  1  0  0  0
 61140  1  0  0  0
 61141  1  0  0  0
 62142  1  0  0  0
 62143  1  0  0  0
 62144  1  0  0  0
 63 65  1  0  0  0
 63145  1  0  0  0
 63146  1  0  0  0
 63147  1  0  0  0
 64148  1  0  0  0
 65149  1  0  0  0
 68 85  1  0  0  0
 71 72  1  0  0  0
 71150  1  0  0  0
 71151  1  0  0  0
 71 74  1  0  0  0
 72152  1  0  0  0
 72153  1  0  0  0
 72 75  1  0  0  0
 73 74  1  0  0  0
 73 75  1  0  0  0
 73154  1  0  0  0
 73155  1  0  0  0
 74 86  1  0  0  0
 74156  1  0  0  0
 75 88  1  0  0  0
 75157  1  0  0  0
 76 81  1  0  0  0
 76158  1  0  0  0
 76159  1  0  0  0
 76160  1  0  0  0
 77161  1  0  0  0
 77162  1  0  0  0
 77163  1  0  0  0
 77 86  1  0  0  0
 78164  1  0  0  0
 78165  1  0  0  0
 78166  1  0  0  0
 78 87  1  0  0  0
 79167  1  0  0  0
 79168  1  0  0  0
 79169  1  0  0  0
 79 90  1  0  0  0
 80 90  1  0  0  0
 80170  1  0  0  0
 80171  1  0  0  0
 80172  1  0  0  0
 81173  1  0  0  0
 81174  1  0  0  0
 81 88  1  0  0  0
 82 83  1  0  0  0
 82 88  1  0  0  0
 82175  1  0  0  0
 82176  1  0  0  0
 83 90  1  0  0  0
 83177  1  0  0  0
 83178  1  0  0  0
 84 86  1  0  0  0
 84 89  1  0  0  0
 84179  1  0  0  0
 84180  1  0  0  0
 85 87  1  0  0  0
 85181  1  0  0  0
 85182  1  0  0  0
 86183  1  0  0  0
 87 89  1  0  0  0
 87184  1  0  0  0
 89185  1  0  0  0
 89186  1  0  0  0
 90187  1  0  0  0
M  CHG  2  89   1  90   1
M  ISO  4   1 100  68 101  85 101  88 100
M  END
> <chiral flag>
0

> <version>
0

> <s_m_source_file>
/data/baiqing/PycharmProjects/Reinvent-master-3.2/result/LINK_invent/BTK/process_docking_weight1_custom_sum_contain_oxygen_bond_distance_aromatic_linkinvent_7_9_3/rearranged_h_0117.sdf

> <i_m_source_file_index>
57

> <r_mmod_Potential_Energy-OPLS-2005>
97.0352554321289

> <r_mmod_Stretch_Energy-OPLS-2005>
72.9504470825195

> <r_mmod_Bend_Energy-OPLS-2005>
236.709182739258

> <r_mmod_Torsional_Energy-OPLS-2005>
316.817352294922

> <r_mmod_Improper_Torsional_Energy-OPLS-2005>
1.73002970218658

> <r_mmod_Van_der_Waal_Energy-OPLS-2005>
155.459564208984

> <r_mmod_Electrostatic_Energy-OPLS-2005>
98.09130859375

> <r_mmod_Solvation_Energy-OPLS-2005>
-801.896118164062

> <b_mmod_Minimization_Converged-OPLS-2005>
0

> <r_mmod_RMS_Derivative-OPLS-2005>
4.74870347976685

$$$$
58
                    3D
 Structure written by MMmdl.
158167  0  0  1  0            999 V2000
  -30.6831  -14.4606   20.5269 C   0  0  0  0  0  0
  -30.4239  -12.2809   19.4350 C   0  0  0  0  0  0
  -29.5033  -12.5026   18.2162 C   0  0  0  0  0  0
  -28.0203  -12.3703   18.6182 C   0  0  0  0  0  0
  -27.6657  -13.1999   19.8813 C   0  0  2  0  0  0
  -28.7059  -12.9782   21.0058 C   0  0  0  0  0  0
  -25.2614  -13.8149   20.5664 C   0  0  0  0  0  0
  -24.1857  -13.0443   20.9173 C   0  0  0  0  0  0
  -24.6392  -11.6901   20.8724 C   0  0  0  0  0  0
  -23.9044  -10.4300   21.0389 C   0  0  0  0  0  0
  -24.3607   -9.4215   21.9165 C   0  0  0  0  0  0
  -23.6294   -8.2241   22.0729 C   0  0  0  0  0  0
  -22.4271   -8.0280   21.3530 C   0  0  0  0  0  0
  -21.9902   -9.0248   20.4626 C   0  0  0  0  0  0
  -22.7214  -10.2139   20.3035 C   0  0  0  0  0  0
  -21.6859   -6.0735   22.5274 C   0  0  0  0  0  0
  -21.4014   -6.5632   23.8209 C   0  0  0  0  0  0
  -21.3669   -5.6782   24.9169 C   0  0  0  0  0  0
  -21.6042   -4.3045   24.7217 C   0  0  0  0  0  0
  -21.8824   -3.8142   23.4339 C   0  0  0  0  0  0
  -21.9193   -4.6964   22.3400 C   0  0  0  0  0  0
  -22.7879  -13.5241   21.1839 C   0  0  0  0  0  0
  -22.1662   -4.2152   21.0976 F   0  0  0  0  0  0
  -21.5641   -3.4527   25.7730 F   0  0  0  0  0  0
  -30.0446  -13.2628   20.4607 N   0  0  0  0  0  0
  -26.3046  -12.9294   20.3373 N   0  0  0  0  0  0
  -25.9317  -11.6464   20.5773 N   0  0  0  0  0  0
  -22.0504  -12.8242   22.0401 N   0  0  0  0  0  0
  -25.4359  -15.1862   20.4050 N   0  0  0  0  0  0
  -31.8218  -14.6517   20.0905 O   0  0  0  0  0  0
  -21.6642   -6.8873   21.4230 O   0  0  0  0  0  0
  -22.3565  -14.5538   20.6675 O   0  0  0  0  0  0
  -24.6133  -31.8687   23.2097 C   0  0  0  0  0  0
  -25.9037  -32.4817   23.8395 C   0  0  1  0  0  0
  -27.2378  -27.4452   20.0928 C   0  0  0  0  0  0
  -25.5888  -33.8613   24.2330 N   0  0  0  0  0  0
  -23.3997  -30.4936   21.5499 C   0  0  2  0  0  0
  -24.8459  -28.9604   20.1126 C   0  0  0  0  0  0
  -22.7398  -29.4666   22.4979 C   0  0  0  0  0  0
  -18.0262  -28.1369   22.8485 C   0  0  0  0  0  0
  -24.1485  -36.7326   23.2639 C   0  0  0  0  0  0
  -25.9278  -30.8393   21.3587 C   0  0  0  0  0  0
  -26.0049  -29.4744   20.7056 C   0  0  0  0  0  0
  -27.2023  -28.7254   20.6900 C   0  0  0  0  0  0
  -26.0578  -26.9432   19.4930 C   0  0  0  0  0  0
  -24.8663  -27.6933   19.5049 C   0  0  0  0  0  0
  -23.6079  -29.8275   20.1632 C   0  0  0  0  0  0
  -25.4098  -36.3109   24.0345 C   0  0  1  0  0  0
  -20.5851  -28.3663   23.1309 C   0  0  2  0  0  0
  -20.6746  -26.9397   22.5414 C   0  0  0  0  0  0
  -19.5727  -26.6374   21.5206 C   0  0  0  0  0  0
  -18.1907  -26.7913   22.1617 C   0  0  0  0  0  0
  -19.1512  -28.8830   23.2896 C   0  0  0  0  0  0
  -18.9447  -30.1435   23.8905 C   0  0  0  0  0  0
  -17.6452  -30.6577   24.0560 C   0  0  0  0  0  0
  -25.9030  -34.9475   23.5138 C   0  0  0  0  0  0
  -16.5338  -29.9085   23.6310 C   0  0  0  0  0  0
  -16.7256  -28.6500   23.0333 C   0  0  0  0  0  0
  -26.4470  -31.6585   25.0718 C   0  0  0  0  0  0
  -25.3753  -31.3690   26.1485 C   0  0  0  0  0  0
  -27.0282  -30.3021   24.6077 C   0  0  0  0  0  0
  -27.6045  -32.4303   25.7475 C   0  0  0  0  0  0
  -27.5583  -37.1808   24.8458 C   0  0  0  0  0  0
  -21.4122  -29.3040   22.3725 N   0  0  0  0  0  0
  -26.4283  -37.3799   23.9422 N   0  0  0  0  0  0
  -24.6656  -31.0803   22.0990 N   0  0  0  0  0  0
  -23.4187  -28.8201   23.3008 O   0  0  0  0  0  0
  -28.4226  -26.7369   20.1196 O   0  0  0  0  0  0
  -26.5597  -34.8931   22.4704 O   0  0  0  0  0  0
  -23.5334  -32.1431   23.7510 O   0  0  0  0  0  0
  -29.9780  -22.6616   18.9404 C   0  0  0  0  0  0
  -29.4875  -22.2234   21.2801 C   0  0  0  0  0  0
  -30.0163  -21.2686   18.7957 C   0  0  0  0  0  0
  -29.6971  -23.1533   20.2305 C   0  0  0  0  0  0
  -29.7973  -20.4281   19.8737 C   0  0  0  0  0  0
  -30.2793  -20.4841   17.5513 C   0  0  0  0  0  0
  -30.3512  -19.0530   18.1163 C   0  0  0  0  0  0
  -29.6390  -24.6583   20.4754 C   0  0  0  0  0  0
  -30.1616  -18.0150   20.4665 C   0  0  0  0  0  0
  -29.7601  -16.6417   19.8887 C   0  0  0  0  0  0
  -28.3724  -25.3231   19.9011 C   0  0  0  0  0  0
  -29.5389  -20.8745   21.1155 N   0  0  0  0  0  0
  -29.8566  -19.0778   19.5042 N   0  0  0  0  0  0
  -29.8717  -15.4942   20.7981 N   0  0  0  0  0  0
  -31.4711  -12.3704   19.1407 H   0  0  0  0  0  0
  -30.3099  -11.2667   19.8216 H   0  0  0  0  0  0
  -29.7419  -11.7862   17.4294 H   0  0  0  0  0  0
  -29.6843  -13.4920   17.7927 H   0  0  0  0  0  0
  -27.8185  -11.3139   18.7983 H   0  0  0  0  0  0
  -27.3772  -12.6654   17.7890 H   0  0  0  0  0  0
  -27.7072  -14.2481   19.5857 H   0  0  0  0  0  0
  -28.6696  -11.9471   21.3607 H   0  0  0  0  0  0
  -28.4784  -13.5974   21.8746 H   0  0  0  0  0  0
  -25.2761   -9.5713   22.4731 H   0  0  0  0  0  0
  -24.0032   -7.4631   22.7435 H   0  0  0  0  0  0
  -21.0837   -8.8739   19.8939 H   0  0  0  0  0  0
  -22.3647  -10.9669   19.6145 H   0  0  0  0  0  0
  -21.1995   -7.6138   23.9713 H   0  0  0  0  0  0
  -21.1490   -6.0508   25.9073 H   0  0  0  0  0  0
  -22.0599   -2.7604   23.2827 H   0  0  0  0  0  0
  -22.4116  -11.9929   22.4845 H   0  0  0  0  0  0
  -21.1108  -13.1257   22.2568 H   0  0  0  0  0  0
  -24.6696  -15.8433   20.5014 H   0  0  0  0  0  0
  -26.2883  -15.6216   20.0762 H   0  0  0  0  0  0
  -26.7112  -32.5531   23.1167 H   0  0  0  0  0  0
  -25.0027  -33.9770   25.0466 H   0  0  0  0  0  0
  -22.6883  -31.3105   21.4113 H   0  0  0  0  0  0
  -23.3743  -35.9659   23.3270 H   0  0  0  0  0  0
  -24.3601  -36.8973   22.2062 H   0  0  0  0  0  0
  -23.7234  -37.6525   23.6668 H   0  0  0  0  0  0
  -26.0376  -31.6068   20.5907 H   0  0  0  0  0  0
  -26.8174  -30.8928   21.9751 H   0  0  0  0  0  0
  -28.0988  -29.1238   21.1447 H   0  0  0  0  0  0
  -26.0398  -25.9782   19.0074 H   0  0  0  0  0  0
  -23.9754  -27.2899   19.0438 H   0  0  0  0  0  0
  -23.7204  -30.6053   19.4066 H   0  0  0  0  0  0
  -22.7312  -29.2514   19.8626 H   0  0  0  0  0  0
  -25.1267  -36.1973   25.0835 H   0  0  0  0  0  0
  -20.9943  -28.3225   24.1429 H   0  0  0  0  0  0
  -20.5618  -26.2280   23.3609 H   0  0  0  0  0  0
  -21.6621  -26.7417   22.1223 H   0  0  0  0  0  0
  -19.6883  -25.6284   21.1234 H   0  0  0  0  0  0
  -19.6661  -27.3184   20.6734 H   0  0  0  0  0  0
  -17.4178  -26.6663   21.4020 H   0  0  0  0  0  0
  -18.0305  -26.0048   22.9004 H   0  0  0  0  0  0
  -19.7931  -30.7241   24.2280 H   0  0  0  0  0  0
  -17.5013  -31.6258   24.5159 H   0  0  0  0  0  0
  -15.5342  -30.3003   23.7609 H   0  0  0  0  0  0
  -15.8652  -28.0829   22.7034 H   0  0  0  0  0  0
  -24.5907  -30.7047   25.7849 H   0  0  0  0  0  0
  -24.8968  -32.2842   26.4973 H   0  0  0  0  0  0
  -25.8130  -30.8844   27.0219 H   0  0  0  0  0  0
  -26.2811  -29.6792   24.1141 H   0  0  0  0  0  0
  -27.4066  -29.7248   25.4523 H   0  0  0  0  0  0
  -27.8644  -30.4340   23.9203 H   0  0  0  0  0  0
  -27.2656  -33.3592   26.2076 H   0  0  0  0  0  0
  -28.3836  -32.6877   25.0288 H   0  0  0  0  0  0
  -28.0725  -31.8411   26.5373 H   0  0  0  0  0  0
  -28.2576  -38.0130   24.7527 H   0  0  0  0  0  0
  -28.1098  -36.2660   24.6229 H   0  0  0  0  0  0
  -27.2317  -37.1403   25.8867 H   0  0  0  0  0  0
  -20.9269  -29.8829   21.7009 H   0  0  0  0  0  0
  -26.0166  -38.2873   24.1437 H   0  0  0  0  0  0
  -30.1542  -23.3231   18.1031 H   0  0  0  0  0  0
  -29.2754  -22.5682   22.2819 H   0  0  0  0  0  0
  -31.2013  -20.7899   17.0554 H   0  0  0  0  0  0
  -29.4451  -20.5993   16.8579 H   0  0  0  0  0  0
  -31.3863  -18.7094   18.1173 H   0  0  0  0  0  0
  -29.7748  -18.3625   17.4990 H   0  0  0  0  0  0
  -30.5266  -25.1125   20.0332 H   0  0  0  0  0  0
  -29.7004  -24.8544   21.5464 H   0  0  0  0  0  0
  -31.2241  -18.0358   20.7112 H   0  0  0  0  0  0
  -29.6176  -18.1997   21.3940 H   0  0  0  0  0  0
  -30.3219  -16.4498   18.9712 H   0  0  0  0  0  0
  -28.7150  -16.6852   19.5793 H   0  0  0  0  0  0
  -27.5030  -24.8798   20.3902 H   0  0  0  0  0  0
  -28.2928  -25.1301   18.8297 H   0  0  0  0  0  0
  -29.0150  -15.2404   21.2681 H   0  0  0  0  0  0
  1 25  1  0  0  0
  1 30  2  0  0  0
  1 84  1  0  0  0
  2  3  1  0  0  0
  2 25  1  0  0  0
  2 85  1  0  0  0
  2 86  1  0  0  0
  3  4  1  0  0  0
  3 87  1  0  0  0
  3 88  1  0  0  0
  4  5  1  0  0  0
  4 89  1  0  0  0
  4 90  1  0  0  0
  5  6  1  0  0  0
  5 26  1  0  0  0
  5 91  1  0  0  0
  6 25  1  0  0  0
  6 92  1  0  0  0
  6 93  1  0  0  0
  7  8  2  0  0  0
  7 26  1  0  0  0
  7 29  1  0  0  0
  8  9  1  0  0  0
  8 22  1  0  0  0
  9 10  1  0  0  0
  9 27  2  0  0  0
 10 11  2  0  0  0
 10 15  1  0  0  0
 11 12  1  0  0  0
 11 94  1  0  0  0
 12 13  2  0  0  0
 12 95  1  0  0  0
 13 14  1  0  0  0
 13 31  1  0  0  0
 14 15  2  0  0  0
 14 96  1  0  0  0
 15 97  1  0  0  0
 16 17  2  0  0  0
 16 21  1  0  0  0
 16 31  1  0  0  0
 17 18  1  0  0  0
 17 98  1  0  0  0
 18 19  2  0  0  0
 18 99  1  0  0  0
 19 20  1  0  0  0
 19 24  1  0  0  0
 20 21  2  0  0  0
 20100  1  0  0  0
 21 23  1  0  0  0
 22 28  1  0  0  0
 22 32  2  0  0  0
 26 27  1  0  0  0
 28101  1  0  0  0
 28102  1  0  0  0
 29103  1  0  0  0
 29104  1  0  0  0
 33 34  1  0  0  0
 33 66  1  0  0  0
 33 70  2  0  0  0
 34 36  1  0  0  0
 34 59  1  0  0  0
 34105  1  0  0  0
 35 44  2  0  0  0
 35 45  1  0  0  0
 35 68  1  0  0  0
 36 56  1  0  0  0
 36106  1  0  0  0
 37 39  1  0  0  0
 37 47  1  0  0  0
 37 66  1  0  0  0
 37107  1  0  0  0
 38 43  2  0  0  0
 38 46  1  0  0  0
 38 47  1  0  0  0
 39 64  1  0  0  0
 39 67  2  0  0  0
 40 52  1  0  0  0
 40 53  2  0  0  0
 40 58  1  0  0  0
 41108  1  0  0  0
 41109  1  0  0  0
 41110  1  0  0  0
 41 48  1  0  0  0
 42 43  1  0  0  0
 42 66  1  0  0  0
 42111  1  0  0  0
 42112  1  0  0  0
 43 44  1  0  0  0
 44113  1  0  0  0
 45 46  2  0  0  0
 45114  1  0  0  0
 46115  1  0  0  0
 47116  1  0  0  0
 47117  1  0  0  0
 48 56  1  0  0  0
 48 65  1  0  0  0
 48118  1  0  0  0
 49 50  1  0  0  0
 49 53  1  0  0  0
 49 64  1  0  0  0
 49119  1  0  0  0
 50 51  1  0  0  0
 50120  1  0  0  0
 50121  1  0  0  0
 51 52  1  0  0  0
 51122  1  0  0  0
 51123  1  0  0  0
 52124  1  0  0  0
 52125  1  0  0  0
 53 54  1  0  0  0
 54 55  2  0  0  0
 54126  1  0  0  0
 55 57  1  0  0  0
 55127  1  0  0  0
 56 69  2  0  0  0
 57 58  2  0  0  0
 57128  1  0  0  0
 58129  1  0  0  0
 59 60  1  0  0  0
 59 61  1  0  0  0
 59 62  1  0  0  0
 60130  1  0  0  0
 60131  1  0  0  0
 60132  1  0  0  0
 61133  1  0  0  0
 61134  1  0  0  0
 61135  1  0  0  0
 62136  1  0  0  0
 62137  1  0  0  0
 62138  1  0  0  0
 63 65  1  0  0  0
 63139  1  0  0  0
 63140  1  0  0  0
 63141  1  0  0  0
 64142  1  0  0  0
 65143  1  0  0  0
 68 81  1  0  0  0
 71 73  2  0  0  0
 71 74  1  0  0  0
 71144  1  0  0  0
 72 74  2  0  0  0
 72 82  1  0  0  0
 72145  1  0  0  0
 73 75  1  0  0  0
 73 76  1  0  0  0
 74 78  1  0  0  0
 75 82  2  0  0  0
 75 83  1  0  0  0
 76 77  1  0  0  0
 76146  1  0  0  0
 76147  1  0  0  0
 77 83  1  0  0  0
 77148  1  0  0  0
 77149  1  0  0  0
 78 81  1  0  0  0
 78150  1  0  0  0
 78151  1  0  0  0
 79 80  1  0  0  0
 79 83  1  0  0  0
 79152  1  0  0  0
 79153  1  0  0  0
 80 84  1  0  0  0
 80154  1  0  0  0
 80155  1  0  0  0
 81156  1  0  0  0
 81157  1  0  0  0
 84158  1  0  0  0
M  ISO  4   1 100  68 101  81 101  84 100
M  END
> <chiral flag>
0

> <version>
0

> <s_m_source_file>
/data/baiqing/PycharmProjects/Reinvent-master-3.2/result/LINK_invent/BTK/process_docking_weight1_custom_sum_contain_oxygen_bond_distance_aromatic_linkinvent_7_9_3/rearranged_h_0117.sdf

> <i_m_source_file_index>
58

> <r_mmod_Potential_Energy-OPLS-2005>
-277.025695800781

> <r_mmod_Stretch_Energy-OPLS-2005>
36.0502967834473

> <r_mmod_Bend_Energy-OPLS-2005>
141.714614868164

> <r_mmod_Torsional_Energy-OPLS-2005>
224.694305419922

> <r_mmod_Improper_Torsional_Energy-OPLS-2005>
13.5770769119263

> <r_mmod_Van_der_Waal_Energy-OPLS-2005>
155.060409545898

> <r_mmod_Electrostatic_Energy-OPLS-2005>
-610.863403320312

> <r_mmod_Solvation_Energy-OPLS-2005>
-250.014282226562

> <b_mmod_Minimization_Converged-OPLS-2005>
0

> <r_mmod_RMS_Derivative-OPLS-2005>
1.61318373680115

$$$$
59
                    3D
 Structure written by MMmdl.
180189  0  0  1  0            999 V2000
  -30.5516  -14.9278   20.4306 C   0  0  0  0  0  0
  -30.4443  -12.5850   19.5001 C   0  0  0  0  0  0
  -29.5251  -12.5586   18.2549 C   0  0  0  0  0  0
  -28.0540  -12.3498   18.6647 C   0  0  0  0  0  0
  -27.6355  -13.2526   19.8549 C   0  0  2  0  0  0
  -28.6782  -13.2326   20.9882 C   0  0  0  0  0  0
  -25.2487  -13.8246   20.5746 C   0  0  0  0  0  0
  -24.1787  -13.0436   20.9263 C   0  0  0  0  0  0
  -24.6415  -11.6930   20.8756 C   0  0  0  0  0  0
  -23.9082  -10.4306   21.0385 C   0  0  0  0  0  0
  -24.3617   -9.4223   21.9173 C   0  0  0  0  0  0
  -23.6292   -8.2252   22.0725 C   0  0  0  0  0  0
  -22.4272   -8.0296   21.3536 C   0  0  0  0  0  0
  -21.9922   -9.0265   20.4624 C   0  0  0  0  0  0
  -22.7252  -10.2141   20.3041 C   0  0  0  0  0  0
  -21.6846   -6.0740   22.5285 C   0  0  0  0  0  0
  -21.4006   -6.5629   23.8230 C   0  0  0  0  0  0
  -21.3659   -5.6775   24.9186 C   0  0  0  0  0  0
  -21.6045   -4.3044   24.7242 C   0  0  0  0  0  0
  -21.8801   -3.8152   23.4349 C   0  0  0  0  0  0
  -21.9181   -4.6971   22.3410 C   0  0  0  0  0  0
  -22.7805  -13.5231   21.1885 C   0  0  0  0  0  0
  -22.1651   -4.2149   21.0988 F   0  0  0  0  0  0
  -21.5647   -3.4531   25.7756 F   0  0  0  0  0  0
  -29.9560  -13.6646   20.4008 N   0  0  0  0  0  0
  -26.2918  -12.9464   20.3303 N   0  0  0  0  0  0
  -25.9353  -11.6601   20.5749 N   0  0  0  0  0  0
  -22.0423  -12.8194   22.0413 N   0  0  0  0  0  0
  -25.4183  -15.1977   20.4170 N   0  0  0  0  0  0
  -31.7202  -15.0053   20.0356 O   0  0  0  0  0  0
  -21.6637   -6.8895   21.4245 O   0  0  0  0  0  0
  -22.3514  -14.5531   20.6741 O   0  0  0  0  0  0
  -24.6371  -31.8466   23.1907 C   0  0  0  0  0  0
  -25.9157  -32.4697   23.8273 C   0  0  1  0  0  0
  -27.2104  -27.1798   20.1193 C   0  0  0  0  0  0
  -25.5932  -33.8502   24.2186 N   0  0  0  0  0  0
  -23.4365  -30.4684   21.5363 C   0  0  2  0  0  0
  -24.8843  -28.9019   20.1092 C   0  0  0  0  0  0
  -22.7522  -29.4552   22.4881 C   0  0  0  0  0  0
  -18.0285  -28.1374   22.8480 C   0  0  0  0  0  0
  -24.1503  -36.7271   23.2633 C   0  0  0  0  0  0
  -25.9910  -30.7300   21.3840 C   0  0  0  0  0  0
  -26.0627  -29.3451   20.7254 C   0  0  0  0  0  0
  -27.2296  -28.4993   20.7144 C   0  0  0  0  0  0
  -26.0098  -26.8269   19.4698 C   0  0  0  0  0  0
  -24.8688  -27.6541   19.4682 C   0  0  0  0  0  0
  -23.6581  -29.7981   20.1557 C   0  0  0  0  0  0
  -25.4132  -36.3030   24.0296 C   0  0  1  0  0  0
  -20.5895  -28.3697   23.1257 C   0  0  2  0  0  0
  -20.6794  -26.9423   22.5409 C   0  0  0  0  0  0
  -19.5780  -26.6371   21.5206 C   0  0  0  0  0  0
  -18.1934  -26.7912   22.1605 C   0  0  0  0  0  0
  -19.1547  -28.8854   23.2843 C   0  0  0  0  0  0
  -18.9468  -30.1444   23.8890 C   0  0  0  0  0  0
  -17.6476  -30.6580   24.0562 C   0  0  0  0  0  0
  -25.9070  -34.9398   23.5047 C   0  0  0  0  0  0
  -16.5359  -29.9083   23.6338 C   0  0  0  0  0  0
  -16.7280  -28.6495   23.0363 C   0  0  0  0  0  0
  -26.4507  -31.6551   25.0690 C   0  0  0  0  0  0
  -25.3725  -31.3716   26.1415 C   0  0  0  0  0  0
  -27.0334  -30.2944   24.6235 C   0  0  0  0  0  0
  -27.6059  -32.4311   25.7463 C   0  0  0  0  0  0
  -27.5580  -37.1775   24.8445 C   0  0  0  0  0  0
  -21.4224  -29.3038   22.3641 N   0  0  0  0  0  0
  -26.4276  -37.3757   23.9411 N   0  0  0  0  0  0
  -24.7075  -31.0363   22.0911 N   0  0  0  0  0  0
  -23.4206  -28.8096   23.2977 O   0  0  0  0  0  0
  -28.2805  -26.2294   20.1111 O   0  0  0  0  0  0
  -26.5690  -34.8894   22.4639 O   0  0  0  0  0  0
  -23.5504  -32.1313   23.7171 O   0  0  0  0  0  0
  -26.7139  -19.8006   22.5362 C   0  0  0  0  0  0
  -30.3838  -20.0649   16.0309 C   0  0  0  0  0  0
  -29.0330  -20.7583   15.7937 C   0  0  0  0  0  0
  -30.3526  -19.5986   17.4919 C   0  0  0  0  0  0
  -28.3377  -20.7830   17.1585 C   0  0  0  0  0  0
  -29.2732  -16.3141   22.0135 C   0  0  0  0  0  0
  -29.7020  -17.4441   19.8118 C   0  0  0  0  0  0
  -29.5424  -17.7366   22.5773 C   0  0  0  0  0  0
  -29.4605  -20.6235   18.1989 C   0  0  0  0  0  0
  -29.5092  -18.9880   20.4630 C   0  0  1  0  0  0
  -25.1948  -19.8543   22.4379 C   0  0  0  0  0  0
  -30.3149  -23.8510   19.7030 C   0  0  0  0  0  0
  -27.3897  -18.6552   21.7855 C   0  0  0  0  0  0
  -28.7199  -21.8760   20.4043 C   0  0  0  0  0  0
  -28.0352  -24.7373   20.4165 C   0  0  0  0  0  0
  -28.9339  -20.3742   19.6553 C   0  0  1  0  0  0
  -28.8361  -23.4293   19.7601 C   0  0  1  0  0  0
  -29.7844  -16.1125   20.6526 N   0  0  0  0  0  0
  -28.8707  -18.8174   21.8003 N   0  3  1  0  0  0
  -27.3565  -20.6095   23.2132 O   0  0  0  0  0  0
  -31.4777  -12.7480   19.1911 H   0  0  0  0  0  0
  -30.4413  -11.6261   20.0212 H   0  0  0  0  0  0
  -29.8429  -11.7780   17.5654 H   0  0  0  0  0  0
  -29.6227  -13.5013   17.7144 H   0  0  0  0  0  0
  -27.9325  -11.3008   18.9365 H   0  0  0  0  0  0
  -27.3968  -12.5243   17.8129 H   0  0  0  0  0  0
  -27.6134  -14.2692   19.4634 H   0  0  0  0  0  0
  -28.7688  -12.2366   21.4234 H   0  0  0  0  0  0
  -28.3613  -13.8768   21.8032 H   0  0  0  0  0  0
  -25.2746   -9.5687   22.4764 H   0  0  0  0  0  0
  -23.9982   -7.4627   22.7438 H   0  0  0  0  0  0
  -21.0858   -8.8797   19.8934 H   0  0  0  0  0  0
  -22.3720  -10.9672   19.6156 H   0  0  0  0  0  0
  -21.1983   -7.6143   23.9736 H   0  0  0  0  0  0
  -21.1498   -6.0515   25.9090 H   0  0  0  0  0  0
  -22.0571   -2.7612   23.2871 H   0  0  0  0  0  0
  -22.4041  -11.9861   22.4802 H   0  0  0  0  0  0
  -21.1042  -13.1203   22.2582 H   0  0  0  0  0  0
  -24.6360  -15.8396   20.4818 H   0  0  0  0  0  0
  -26.2426  -15.6137   20.0041 H   0  0  0  0  0  0
  -26.7212  -32.5322   23.0988 H   0  0  0  0  0  0
  -25.0066  -33.9635   25.0331 H   0  0  0  0  0  0
  -22.7348  -31.2910   21.3825 H   0  0  0  0  0  0
  -23.3772  -35.9583   23.3206 H   0  0  0  0  0  0
  -24.3624  -36.9026   22.2073 H   0  0  0  0  0  0
  -23.7244  -37.6418   23.6769 H   0  0  0  0  0  0
  -26.1396  -31.4837   20.6106 H   0  0  0  0  0  0
  -26.8649  -30.7799   22.0209 H   0  0  0  0  0  0
  -28.1304  -28.8352   21.2071 H   0  0  0  0  0  0
  -25.9389  -25.8805   18.9516 H   0  0  0  0  0  0
  -23.9753  -27.3163   18.9615 H   0  0  0  0  0  0
  -23.7862  -30.5713   19.3967 H   0  0  0  0  0  0
  -22.7741  -29.2347   19.8511 H   0  0  0  0  0  0
  -25.1308  -36.1840   25.0784 H   0  0  0  0  0  0
  -20.9966  -28.3295   24.1379 H   0  0  0  0  0  0
  -20.5702  -26.2312   23.3603 H   0  0  0  0  0  0
  -21.6651  -26.7442   22.1201 H   0  0  0  0  0  0
  -19.6956  -25.6279   21.1231 H   0  0  0  0  0  0
  -19.6720  -27.3182   20.6738 H   0  0  0  0  0  0
  -17.4211  -26.6666   21.3989 H   0  0  0  0  0  0
  -18.0318  -26.0024   22.8984 H   0  0  0  0  0  0
  -19.7949  -30.7234   24.2281 H   0  0  0  0  0  0
  -17.5038  -31.6274   24.5143 H   0  0  0  0  0  0
  -15.5371  -30.2995   23.7659 H   0  0  0  0  0  0
  -15.8666  -28.0816   22.7118 H   0  0  0  0  0  0
  -24.5919  -30.7039   25.7748 H   0  0  0  0  0  0
  -24.8891  -32.2874   26.4821 H   0  0  0  0  0  0
  -25.8022  -30.8916   27.0214 H   0  0  0  0  0  0
  -26.2896  -29.6686   24.1285 H   0  0  0  0  0  0
  -27.3991  -29.7233   25.4775 H   0  0  0  0  0  0
  -27.8798  -30.4166   23.9473 H   0  0  0  0  0  0
  -27.2707  -33.3709   26.1873 H   0  0  0  0  0  0
  -28.3946  -32.6713   25.0312 H   0  0  0  0  0  0
  -28.0618  -31.8526   26.5515 H   0  0  0  0  0  0
  -28.2510  -38.0151   24.7567 H   0  0  0  0  0  0
  -28.1154  -36.2675   24.6160 H   0  0  0  0  0  0
  -27.2309  -37.1289   25.8847 H   0  0  0  0  0  0
  -20.9409  -29.8782   21.6863 H   0  0  0  0  0  0
  -26.0119  -38.2792   24.1493 H   0  0  0  0  0  0
  -31.2025  -20.7716   15.8756 H   0  0  0  0  0  0
  -30.5431  -19.2365   15.3389 H   0  0  0  0  0  0
  -28.4265  -20.2309   15.0548 H   0  0  0  0  0  0
  -29.1843  -21.7723   15.4192 H   0  0  0  0  0  0
  -31.3492  -19.5138   17.9265 H   0  0  0  0  0  0
  -29.8780  -18.6225   17.4884 H   0  0  0  0  0  0
  -27.6674  -19.9229   17.2139 H   0  0  0  0  0  0
  -27.7253  -21.6748   17.3060 H   0  0  0  0  0  0
  -28.2086  -16.0864   22.0060 H   0  0  0  0  0  0
  -29.7092  -15.5879   22.7032 H   0  0  0  0  0  0
  -30.5839  -17.4454   19.1710 H   0  0  0  0  0  0
  -28.8559  -17.2984   19.1383 H   0  0  0  0  0  0
  -30.6205  -17.9153   22.5702 H   0  0  0  0  0  0
  -29.2386  -17.7905   23.6241 H   0  0  0  0  0  0
  -30.0366  -21.5460   18.1930 H   0  0  0  0  0  0
  -30.5349  -19.2808   20.6989 H   0  0  0  0  0  0
  -24.8964  -19.7490   21.3931 H   0  0  0  0  0  0
  -24.7855  -20.7883   22.8232 H   0  0  0  0  0  0
  -24.7617  -19.0240   22.9968 H   0  0  0  0  0  0
  -30.9776  -23.0748   19.3260 H   0  0  0  0  0  0
  -30.6718  -24.1227   20.6974 H   0  0  0  0  0  0
  -30.4416  -24.7259   19.0608 H   0  0  0  0  0  0
  -26.9855  -18.5753   20.7783 H   0  0  0  0  0  0
  -27.0827  -17.7657   22.3297 H   0  0  0  0  0  0
  -29.3294  -21.8778   21.3077 H   0  0  0  0  0  0
  -27.7009  -21.8464   20.7845 H   0  0  0  0  0  0
  -28.2304  -24.6700   21.4872 H   0  0  0  0  0  0
  -26.9703  -24.5209   20.3368 H   0  0  0  0  0  0
  -27.9032  -20.0757   19.4707 H   0  0  0  0  0  0
  -28.4790  -23.3611   18.7322 H   0  0  0  0  0  0
  -29.0170  -19.6783   22.3160 H   0  0  0  0  0  0
  1 25  1  0  0  0
  1 30  2  0  0  0
  1 88  1  0  0  0
  2  3  1  0  0  0
  2 25  1  0  0  0
  2 91  1  0  0  0
  2 92  1  0  0  0
  3  4  1  0  0  0
  3 93  1  0  0  0
  3 94  1  0  0  0
  4  5  1  0  0  0
  4 95  1  0  0  0
  4 96  1  0  0  0
  5  6  1  0  0  0
  5 26  1  0  0  0
  5 97  1  0  0  0
  6 25  1  0  0  0
  6 98  1  0  0  0
  6 99  1  0  0  0
  7  8  2  0  0  0
  7 26  1  0  0  0
  7 29  1  0  0  0
  8  9  1  0  0  0
  8 22  1  0  0  0
  9 10  1  0  0  0
  9 27  2  0  0  0
 10 11  2  0  0  0
 10 15  1  0  0  0
 11 12  1  0  0  0
 11100  1  0  0  0
 12 13  2  0  0  0
 12101  1  0  0  0
 13 14  1  0  0  0
 13 31  1  0  0  0
 14 15  2  0  0  0
 14102  1  0  0  0
 15103  1  0  0  0
 16 17  2  0  0  0
 16 21  1  0  0  0
 16 31  1  0  0  0
 17 18  1  0  0  0
 17104  1  0  0  0
 18 19  2  0  0  0
 18105  1  0  0  0
 19 20  1  0  0  0
 19 24  1  0  0  0
 20 21  2  0  0  0
 20106  1  0  0  0
 21 23  1  0  0  0
 22 28  1  0  0  0
 22 32  2  0  0  0
 26 27  1  0  0  0
 28107  1  0  0  0
 28108  1  0  0  0
 29109  1  0  0  0
 29110  1  0  0  0
 33 34  1  0  0  0
 33 66  1  0  0  0
 33 70  2  0  0  0
 34 36  1  0  0  0
 34 59  1  0  0  0
 34111  1  0  0  0
 35 44  2  0  0  0
 35 45  1  0  0  0
 35 68  1  0  0  0
 36 56  1  0  0  0
 36112  1  0  0  0
 37 39  1  0  0  0
 37 47  1  0  0  0
 37 66  1  0  0  0
 37113  1  0  0  0
 38 43  2  0  0  0
 38 46  1  0  0  0
 38 47  1  0  0  0
 39 64  1  0  0  0
 39 67  2  0  0  0
 40 52  1  0  0  0
 40 53  2  0  0  0
 40 58  1  0  0  0
 41114  1  0  0  0
 41115  1  0  0  0
 41116  1  0  0  0
 41 48  1  0  0  0
 42 43  1  0  0  0
 42 66  1  0  0  0
 42117  1  0  0  0
 42118  1  0  0  0
 43 44  1  0  0  0
 44119  1  0  0  0
 45 46  2  0  0  0
 45120  1  0  0  0
 46121  1  0  0  0
 47122  1  0  0  0
 47123  1  0  0  0
 48 56  1  0  0  0
 48 65  1  0  0  0
 48124  1  0  0  0
 49 50  1  0  0  0
 49 53  1  0  0  0
 49 64  1  0  0  0
 49125  1  0  0  0
 50 51  1  0  0  0
 50126  1  0  0  0
 50127  1  0  0  0
 51 52  1  0  0  0
 51128  1  0  0  0
 51129  1  0  0  0
 52130  1  0  0  0
 52131  1  0  0  0
 53 54  1  0  0  0
 54 55  2  0  0  0
 54132  1  0  0  0
 55 57  1  0  0  0
 55133  1  0  0  0
 56 69  2  0  0  0
 57 58  2  0  0  0
 57134  1  0  0  0
 58135  1  0  0  0
 59 60  1  0  0  0
 59 61  1  0  0  0
 59 62  1  0  0  0
 60136  1  0  0  0
 60137  1  0  0  0
 60138  1  0  0  0
 61139  1  0  0  0
 61140  1  0  0  0
 61141  1  0  0  0
 62142  1  0  0  0
 62143  1  0  0  0
 62144  1  0  0  0
 63 65  1  0  0  0
 63145  1  0  0  0
 63146  1  0  0  0
 63147  1  0  0  0
 64148  1  0  0  0
 65149  1  0  0  0
 68 85  1  0  0  0
 71 81  1  0  0  0
 71 83  1  0  0  0
 71 90  2  0  0  0
 72 73  1  0  0  0
 72 74  1  0  0  0
 72150  1  0  0  0
 72151  1  0  0  0
 73 75  1  0  0  0
 73152  1  0  0  0
 73153  1  0  0  0
 74154  1  0  0  0
 74155  1  0  0  0
 74 79  1  0  0  0
 75 79  1  0  0  0
 75156  1  0  0  0
 75157  1  0  0  0
 76 78  1  0  0  0
 76 88  1  0  0  0
 76158  1  0  0  0
 76159  1  0  0  0
 77 88  1  0  0  0
 77160  1  0  0  0
 77161  1  0  0  0
 77 80  1  0  0  0
 78 89  1  0  0  0
 78162  1  0  0  0
 78163  1  0  0  0
 79 86  1  0  0  0
 79164  1  0  0  0
 80 86  1  0  0  0
 80 89  1  0  0  0
 80165  1  0  0  0
 81166  1  0  0  0
 81167  1  0  0  0
 81168  1  0  0  0
 82169  1  0  0  0
 82170  1  0  0  0
 82171  1  0  0  0
 82 87  1  0  0  0
 83172  1  0  0  0
 83173  1  0  0  0
 83 89  1  0  0  0
 84 87  1  0  0  0
 84174  1  0  0  0
 84175  1  0  0  0
 84 86  1  0  0  0
 85 87  1  0  0  0
 85176  1  0  0  0
 85177  1  0  0  0
 86178  1  0  0  0
 87179  1  0  0  0
 89180  1  0  0  0
M  CHG  1  89   1
M  ISO  4   1 100  68 101  85 101  88 100
M  END
> <chiral flag>
0

> <version>
0

> <s_m_source_file>
/data/baiqing/PycharmProjects/Reinvent-master-3.2/result/LINK_invent/BTK/process_docking_weight1_custom_sum_contain_oxygen_bond_distance_aromatic_linkinvent_7_9_3/rearranged_h_0117.sdf

> <i_m_source_file_index>
59

> <r_mmod_Potential_Energy-OPLS-2005>
648.898071289062

> <r_mmod_Stretch_Energy-OPLS-2005>
267.157135009766

> <r_mmod_Bend_Energy-OPLS-2005>
313.957153320312

> <r_mmod_Torsional_Energy-OPLS-2005>
508.878784179688

> <r_mmod_Improper_Torsional_Energy-OPLS-2005>
7.17736482620239

> <r_mmod_Van_der_Waal_Energy-OPLS-2005>
120.903762817383

> <r_mmod_Electrostatic_Energy-OPLS-2005>
-294.417572021484

> <r_mmod_Solvation_Energy-OPLS-2005>
-436.613586425781

> <b_mmod_Minimization_Converged-OPLS-2005>
0

> <r_mmod_RMS_Derivative-OPLS-2005>
5.06258583068848

$$$$
60
                    3D
 Structure written by MMmdl.
174182  0  0  1  0            999 V2000
  -30.7042  -14.5710   20.4952 C   0  0  0  0  0  0
  -30.4220  -12.3578   19.4427 C   0  0  0  0  0  0
  -29.4971  -12.4875   18.2168 C   0  0  0  0  0  0
  -28.0197  -12.3454   18.6351 C   0  0  0  0  0  0
  -27.6471  -13.2219   19.8611 C   0  0  2  0  0  0
  -28.6973  -13.0821   20.9840 C   0  0  0  0  0  0
  -25.2494  -13.8149   20.5694 C   0  0  0  0  0  0
  -24.1780  -13.0407   20.9211 C   0  0  0  0  0  0
  -24.6365  -11.6885   20.8755 C   0  0  0  0  0  0
  -23.9028  -10.4263   21.0417 C   0  0  0  0  0  0
  -24.3592   -9.4172   21.9185 C   0  0  0  0  0  0
  -23.6283   -8.2197   22.0751 C   0  0  0  0  0  0
  -22.4261   -8.0231   21.3544 C   0  0  0  0  0  0
  -21.9879   -9.0197   20.4645 C   0  0  0  0  0  0
  -22.7197  -10.2089   20.3055 C   0  0  0  0  0  0
  -21.6851   -6.0688   22.5278 C   0  0  0  0  0  0
  -21.3999   -6.5606   23.8207 C   0  0  0  0  0  0
  -21.3665   -5.6781   24.9185 C   0  0  0  0  0  0
  -21.6048   -4.3045   24.7242 C   0  0  0  0  0  0
  -21.8816   -3.8103   23.4375 C   0  0  0  0  0  0
  -21.9190   -4.6910   22.3418 C   0  0  0  0  0  0
  -22.7803  -13.5195   21.1847 C   0  0  0  0  0  0
  -22.1657   -4.2084   21.0998 F   0  0  0  0  0  0
  -21.5658   -3.4549   25.7775 F   0  0  0  0  0  0
  -30.0061  -13.3990   20.4005 N   0  0  0  0  0  0
  -26.2963  -12.9355   20.3358 N   0  0  0  0  0  0
  -25.9301  -11.6499   20.5773 N   0  0  0  0  0  0
  -22.0418  -12.8225   22.0421 N   0  0  0  0  0  0
  -25.4116  -15.1859   20.4027 N   0  0  0  0  0  0
  -31.9023  -14.6036   20.1987 O   0  0  0  0  0  0
  -21.6631   -6.8819   21.4238 O   0  0  0  0  0  0
  -22.3498  -14.5488   20.6663 O   0  0  0  0  0  0
  -24.6200  -31.8663   23.2086 C   0  0  0  0  0  0
  -25.9080  -32.4816   23.8398 C   0  0  1  0  0  0
  -27.2158  -27.3877   20.1008 C   0  0  0  0  0  0
  -25.5941  -33.8615   24.2332 N   0  0  0  0  0  0
  -23.4092  -30.4927   21.5506 C   0  0  2  0  0  0
  -24.8514  -28.9586   20.1128 C   0  0  0  0  0  0
  -22.7428  -29.4668   22.4972 C   0  0  0  0  0  0
  -18.0286  -28.1377   22.8491 C   0  0  0  0  0  0
  -24.1489  -36.7297   23.2643 C   0  0  0  0  0  0
  -25.9457  -30.8200   21.3679 C   0  0  0  0  0  0
  -26.0199  -29.4530   20.7097 C   0  0  0  0  0  0
  -27.2090  -28.6791   20.6936 C   0  0  0  0  0  0
  -26.0293  -26.9317   19.4868 C   0  0  0  0  0  0
  -24.8526  -27.6978   19.4982 C   0  0  0  0  0  0
  -23.6184  -29.8307   20.1650 C   0  0  0  0  0  0
  -25.4116  -36.3112   24.0347 C   0  0  1  0  0  0
  -20.5876  -28.3678   23.1296 C   0  0  2  0  0  0
  -20.6775  -26.9409   22.5415 C   0  0  0  0  0  0
  -19.5767  -26.6382   21.5205 C   0  0  0  0  0  0
  -18.1941  -26.7925   22.1606 C   0  0  0  0  0  0
  -19.1533  -28.8839   23.2894 C   0  0  0  0  0  0
  -18.9457  -30.1440   23.8912 C   0  0  0  0  0  0
  -17.6459  -30.6587   24.0548 C   0  0  0  0  0  0
  -25.9044  -34.9480   23.5123 C   0  0  0  0  0  0
  -16.5348  -29.9091   23.6318 C   0  0  0  0  0  0
  -16.7271  -28.6498   23.0355 C   0  0  0  0  0  0
  -26.4486  -31.6603   25.0733 C   0  0  0  0  0  0
  -25.3736  -31.3732   26.1466 C   0  0  0  0  0  0
  -27.0312  -30.3040   24.6141 C   0  0  0  0  0  0
  -27.6071  -32.4319   25.7484 C   0  0  0  0  0  0
  -27.5585  -37.1806   24.8467 C   0  0  0  0  0  0
  -21.4151  -29.3040   22.3692 N   0  0  0  0  0  0
  -26.4297  -37.3799   23.9418 N   0  0  0  0  0  0
  -24.6773  -31.0739   22.1001 N   0  0  0  0  0  0
  -23.4175  -28.8200   23.3022 O   0  0  0  0  0  0
  -28.3347  -26.5660   20.1181 O   0  0  0  0  0  0
  -26.5584  -34.8920   22.4674 O   0  0  0  0  0  0
  -23.5374  -32.1426   23.7451 O   0  0  0  0  0  0
  -29.5468  -17.9931   19.2865 C   0  0  0  0  0  0
  -28.4764  -17.5097   21.4478 C   0  0  0  0  0  0
  -30.5157  -16.8087   19.5529 C   0  0  0  0  0  0
  -29.5304  -16.3933   21.7040 C   0  0  0  0  0  0
  -29.0019  -18.6787   20.5635 C   0  0  0  0  0  0
  -25.4644  -20.4820   20.3366 C   0  0  0  0  0  0
  -28.6421  -21.2413   19.7653 C   0  0  0  0  0  0
  -28.2758  -22.6039   20.4857 C   0  0  0  0  0  0
  -28.4562  -24.1023   18.3155 C   0  0  0  0  0  0
  -28.1121  -25.2198   20.6394 C   0  0  0  0  0  0
  -27.9829  -19.8535   20.2075 C   0  0  2  0  0  0
  -28.6998  -23.9914   19.8453 C   0  0  1  0  0  0
  -26.6948  -19.9317   21.0942 C   0  0  1  0  0  0
  -29.9953  -15.7495   20.4600 N   0  0  0  0  0  0
  -27.1146  -23.6835   17.8602 N   0  3  0  0  0  0
  -26.9267  -20.6078   22.3861 N   0  3  0  0  0  0
  -31.4639  -12.4595   19.1358 H   0  0  0  0  0  0
  -30.3404  -11.3677   19.8942 H   0  0  0  0  0  0
  -29.7495  -11.7250   17.4789 H   0  0  0  0  0  0
  -29.6564  -13.4517   17.7299 H   0  0  0  0  0  0
  -27.8482  -11.2945   18.8718 H   0  0  0  0  0  0
  -27.3641  -12.5779   17.7949 H   0  0  0  0  0  0
  -27.6619  -14.2589   19.5241 H   0  0  0  0  0  0
  -28.7051  -12.0644   21.3777 H   0  0  0  0  0  0
  -28.4545  -13.7259   21.8260 H   0  0  0  0  0  0
  -25.2737   -9.5654   22.4768 H   0  0  0  0  0  0
  -23.9990   -7.4574   22.7475 H   0  0  0  0  0  0
  -21.0797   -8.8678   19.8966 H   0  0  0  0  0  0
  -22.3615  -10.9614   19.6168 H   0  0  0  0  0  0
  -21.1950   -7.6106   23.9699 H   0  0  0  0  0  0
  -21.1527   -6.0514   25.9100 H   0  0  0  0  0  0
  -22.0588   -2.7559   23.2902 H   0  0  0  0  0  0
  -22.4045  -11.9987   22.4970 H   0  0  0  0  0  0
  -21.1015  -13.1221   22.2523 H   0  0  0  0  0  0
  -24.6307  -15.8267   20.4822 H   0  0  0  0  0  0
  -26.2564  -15.6241   20.0619 H   0  0  0  0  0  0
  -26.7151  -32.5500   23.1156 H   0  0  0  0  0  0
  -25.0154  -33.9790   25.0520 H   0  0  0  0  0  0
  -22.7014  -31.3127   21.4113 H   0  0  0  0  0  0
  -23.3765  -35.9611   23.3299 H   0  0  0  0  0  0
  -24.3586  -36.8903   22.2055 H   0  0  0  0  0  0
  -23.7209  -37.6494   23.6640 H   0  0  0  0  0  0
  -26.0637  -31.5883   20.6011 H   0  0  0  0  0  0
  -26.8319  -30.8679   21.9894 H   0  0  0  0  0  0
  -28.1089  -29.0560   21.1597 H   0  0  0  0  0  0
  -25.9961  -25.9681   19.0075 H   0  0  0  0  0  0
  -23.9532  -27.3100   19.0386 H   0  0  0  0  0  0
  -23.7331  -30.6084   19.4099 H   0  0  0  0  0  0
  -22.7398  -29.2582   19.8629 H   0  0  0  0  0  0
  -25.1285  -36.1976   25.0840 H   0  0  0  0  0  0
  -20.9973  -28.3245   24.1411 H   0  0  0  0  0  0
  -20.5659  -26.2293   23.3613 H   0  0  0  0  0  0
  -21.6649  -26.7447   22.1207 H   0  0  0  0  0  0
  -19.6927  -25.6291   21.1243 H   0  0  0  0  0  0
  -19.6709  -27.3185   20.6730 H   0  0  0  0  0  0
  -17.4211  -26.6686   21.3996 H   0  0  0  0  0  0
  -18.0325  -26.0061   22.8990 H   0  0  0  0  0  0
  -19.7934  -30.7242   24.2298 H   0  0  0  0  0  0
  -17.5019  -31.6272   24.5147 H   0  0  0  0  0  0
  -15.5351  -30.2994   23.7641 H   0  0  0  0  0  0
  -15.8668  -28.0812   22.7084 H   0  0  0  0  0  0
  -24.5970  -30.6991   25.7819 H   0  0  0  0  0  0
  -24.8841  -32.2881   26.4816 H   0  0  0  0  0  0
  -25.8084  -30.9004   27.0278 H   0  0  0  0  0  0
  -26.2865  -29.6806   24.1168 H   0  0  0  0  0  0
  -27.4032  -29.7271   25.4617 H   0  0  0  0  0  0
  -27.8722  -30.4344   23.9328 H   0  0  0  0  0  0
  -27.2733  -33.3652   26.2028 H   0  0  0  0  0  0
  -28.3898  -32.6818   25.0307 H   0  0  0  0  0  0
  -28.0715  -31.8451   26.5418 H   0  0  0  0  0  0
  -28.2608  -38.0096   24.7520 H   0  0  0  0  0  0
  -28.1077  -36.2631   24.6288 H   0  0  0  0  0  0
  -27.2304  -37.1447   25.8869 H   0  0  0  0  0  0
  -20.9313  -29.8770   21.6916 H   0  0  0  0  0  0
  -26.0183  -38.2872   24.1426 H   0  0  0  0  0  0
  -28.7157  -17.6218   18.6847 H   0  0  0  0  0  0
  -30.0512  -18.7369   18.6675 H   0  0  0  0  0  0
  -28.1561  -17.8916   22.4165 H   0  0  0  0  0  0
  -27.6030  -17.0522   20.9834 H   0  0  0  0  0  0
  -31.4460  -17.2043   19.9627 H   0  0  0  0  0  0
  -30.7766  -16.3637   18.5887 H   0  0  0  0  0  0
  -29.1217  -15.6642   22.4017 H   0  0  0  0  0  0
  -30.3939  -16.8225   22.2141 H   0  0  0  0  0  0
  -29.8394  -19.1234   21.1028 H   0  0  0  0  0  0
  -25.2074  -19.8242   19.5044 H   0  0  0  0  0  0
  -25.6079  -21.4723   19.9151 H   0  0  0  0  0  0
  -24.5862  -20.5190   20.9824 H   0  0  0  0  0  0
  -29.7269  -21.1328   19.7768 H   0  0  0  0  0  0
  -28.4108  -21.3559   18.7065 H   0  0  0  0  0  0
  -28.7027  -22.5670   21.4887 H   0  0  0  0  0  0
  -27.2031  -22.6647   20.6372 H   0  0  0  0  0  0
  -29.1912  -23.4921   17.7893 H   0  0  0  0  0  0
  -28.6385  -25.1259   17.9832 H   0  0  0  0  0  0
  -28.5594  -25.2118   21.6334 H   0  0  0  0  0  0
  -27.0555  -25.0294   20.8333 H   0  0  0  0  0  0
  -27.5544  -19.4866   19.2734 H   0  0  0  0  0  0
  -29.7827  -24.0667   19.9604 H   0  0  0  0  0  0
  -26.3793  -18.9233   21.3537 H   0  0  0  0  0  0
  -26.9425  -22.7166   18.0681 H   0  0  0  0  0  0
  -27.0655  -23.7847   16.8604 H   0  0  0  0  0  0
  -26.3836  -24.2426   18.2575 H   0  0  0  0  0  0
  -27.1841  -21.5696   22.2587 H   0  0  0  0  0  0
  -27.6590  -20.1471   22.8970 H   0  0  0  0  0  0
  -26.0974  -20.5757   22.9531 H   0  0  0  0  0  0
  1 25  1  0  0  0
  1 30  2  0  0  0
  1 84  1  0  0  0
  2  3  1  0  0  0
  2 25  1  0  0  0
  2 87  1  0  0  0
  2 88  1  0  0  0
  3  4  1  0  0  0
  3 89  1  0  0  0
  3 90  1  0  0  0
  4  5  1  0  0  0
  4 91  1  0  0  0
  4 92  1  0  0  0
  5  6  1  0  0  0
  5 26  1  0  0  0
  5 93  1  0  0  0
  6 25  1  0  0  0
  6 94  1  0  0  0
  6 95  1  0  0  0
  7  8  2  0  0  0
  7 26  1  0  0  0
  7 29  1  0  0  0
  8  9  1  0  0  0
  8 22  1  0  0  0
  9 10  1  0  0  0
  9 27  2  0  0  0
 10 11  2  0  0  0
 10 15  1  0  0  0
 11 12  1  0  0  0
 11 96  1  0  0  0
 12 13  2  0  0  0
 12 97  1  0  0  0
 13 14  1  0  0  0
 13 31  1  0  0  0
 14 15  2  0  0  0
 14 98  1  0  0  0
 15 99  1  0  0  0
 16 17  2  0  0  0
 16 21  1  0  0  0
 16 31  1  0  0  0
 17 18  1  0  0  0
 17100  1  0  0  0
 18 19  2  0  0  0
 18101  1  0  0  0
 19 20  1  0  0  0
 19 24  1  0  0  0
 20 21  2  0  0  0
 20102  1  0  0  0
 21 23  1  0  0  0
 22 28  1  0  0  0
 22 32  2  0  0  0
 26 27  1  0  0  0
 28103  1  0  0  0
 28104  1  0  0  0
 29105  1  0  0  0
 29106  1  0  0  0
 33 34  1  0  0  0
 33 66  1  0  0  0
 33 70  2  0  0  0
 34 36  1  0  0  0
 34 59  1  0  0  0
 34107  1  0  0  0
 35 44  2  0  0  0
 35 45  1  0  0  0
 35 68  1  0  0  0
 36 56  1  0  0  0
 36108  1  0  0  0
 37 39  1  0  0  0
 37 47  1  0  0  0
 37 66  1  0  0  0
 37109  1  0  0  0
 38 43  2  0  0  0
 38 46  1  0  0  0
 38 47  1  0  0  0
 39 64  1  0  0  0
 39 67  2  0  0  0
 40 52  1  0  0  0
 40 53  2  0  0  0
 40 58  1  0  0  0
 41110  1  0  0  0
 41111  1  0  0  0
 41112  1  0  0  0
 41 48  1  0  0  0
 42 43  1  0  0  0
 42 66  1  0  0  0
 42113  1  0  0  0
 42114  1  0  0  0
 43 44  1  0  0  0
 44115  1  0  0  0
 45 46  2  0  0  0
 45116  1  0  0  0
 46117  1  0  0  0
 47118  1  0  0  0
 47119  1  0  0  0
 48 56  1  0  0  0
 48 65  1  0  0  0
 48120  1  0  0  0
 49 50  1  0  0  0
 49 53  1  0  0  0
 49 64  1  0  0  0
 49121  1  0  0  0
 50 51  1  0  0  0
 50122  1  0  0  0
 50123  1  0  0  0
 51 52  1  0  0  0
 51124  1  0  0  0
 51125  1  0  0  0
 52126  1  0  0  0
 52127  1  0  0  0
 53 54  1  0  0  0
 54 55  2  0  0  0
 54128  1  0  0  0
 55 57  1  0  0  0
 55129  1  0  0  0
 56 69  2  0  0  0
 57 58  2  0  0  0
 57130  1  0  0  0
 58131  1  0  0  0
 59 60  1  0  0  0
 59 61  1  0  0  0
 59 62  1  0  0  0
 60132  1  0  0  0
 60133  1  0  0  0
 60134  1  0  0  0
 61135  1  0  0  0
 61136  1  0  0  0
 61137  1  0  0  0
 62138  1  0  0  0
 62139  1  0  0  0
 62140  1  0  0  0
 63 65  1  0  0  0
 63141  1  0  0  0
 63142  1  0  0  0
 63143  1  0  0  0
 64144  1  0  0  0
 65145  1  0  0  0
 68 80  1  0  0  0
 71 73  1  0  0  0
 71146  1  0  0  0
 71147  1  0  0  0
 71 75  1  0  0  0
 72 74  1  0  0  0
 72 75  1  0  0  0
 72148  1  0  0  0
 72149  1  0  0  0
 73 84  1  0  0  0
 73150  1  0  0  0
 73151  1  0  0  0
 74 84  1  0  0  0
 74152  1  0  0  0
 74153  1  0  0  0
 75 81  1  0  0  0
 75154  1  0  0  0
 76155  1  0  0  0
 76156  1  0  0  0
 76157  1  0  0  0
 76 83  1  0  0  0
 77 78  1  0  0  0
 77158  1  0  0  0
 77159  1  0  0  0
 77 81  1  0  0  0
 78160  1  0  0  0
 78161  1  0  0  0
 78 82  1  0  0  0
 79 82  1  0  0  0
 79 85  1  0  0  0
 79162  1  0  0  0
 79163  1  0  0  0
 80 82  1  0  0  0
 80164  1  0  0  0
 80165  1  0  0  0
 81 83  1  0  0  0
 81166  1  0  0  0
 82167  1  0  0  0
 83 86  1  0  0  0
 83168  1  0  0  0
 85169  1  0  0  0
 85170  1  0  0  0
 85171  1  0  0  0
 86172  1  0  0  0
 86173  1  0  0  0
 86174  1  0  0  0
M  CHG  2  85   1  86   1
M  ISO  4   1 100  68 101  80 101  84 100
M  END
> <chiral flag>
0

> <version>
0

> <s_m_source_file>
/data/baiqing/PycharmProjects/Reinvent-master-3.2/result/LINK_invent/BTK/process_docking_weight1_custom_sum_contain_oxygen_bond_distance_aromatic_linkinvent_7_9_3/rearranged_h_0117.sdf

> <i_m_source_file_index>
60

> <r_mmod_Potential_Energy-OPLS-2005>
-84.3034744262695

> <r_mmod_Stretch_Energy-OPLS-2005>
67.9473190307617

> <r_mmod_Bend_Energy-OPLS-2005>
161.443511962891

> <r_mmod_Torsional_Energy-OPLS-2005>
400.152404785156

> <r_mmod_Improper_Torsional_Energy-OPLS-2005>
18.1633567810059

> <r_mmod_Van_der_Waal_Energy-OPLS-2005>
138.321029663086

> <r_mmod_Electrostatic_Energy-OPLS-2005>
97.0248413085938

> <r_mmod_Solvation_Energy-OPLS-2005>
-1001.37969970703

> <b_mmod_Minimization_Converged-OPLS-2005>
0

> <r_mmod_RMS_Derivative-OPLS-2005>
2.76713943481445

$$$$
61
                    3D
 Structure written by MMmdl.
162170  0  0  1  0            999 V2000
  -30.7472  -14.3831   20.6450 C   0  0  0  0  0  0
  -30.4169  -12.2753   19.3940 C   0  0  0  0  0  0
  -29.4834  -12.5031   18.1904 C   0  0  0  0  0  0
  -28.0081  -12.3631   18.6133 C   0  0  0  0  0  0
  -27.6656  -13.1988   19.8723 C   0  0  2  0  0  0
  -28.7024  -12.9519   20.9898 C   0  0  0  0  0  0
  -25.2612  -13.8164   20.5708 C   0  0  0  0  0  0
  -24.1868  -13.0459   20.9202 C   0  0  0  0  0  0
  -24.6411  -11.6914   20.8739 C   0  0  0  0  0  0
  -23.9085  -10.4302   21.0395 C   0  0  0  0  0  0
  -24.3621   -9.4205   21.9156 C   0  0  0  0  0  0
  -23.6293   -8.2249   22.0718 C   0  0  0  0  0  0
  -22.4270   -8.0292   21.3522 C   0  0  0  0  0  0
  -21.9928   -9.0279   20.4621 C   0  0  0  0  0  0
  -22.7269  -10.2148   20.3023 C   0  0  0  0  0  0
  -21.6826   -6.0769   22.5302 C   0  0  0  0  0  0
  -21.3987   -6.5653   23.8241 C   0  0  0  0  0  0
  -21.3647   -5.6792   24.9189 C   0  0  0  0  0  0
  -21.6029   -4.3059   24.7219 C   0  0  0  0  0  0
  -21.8788   -3.8163   23.4325 C   0  0  0  0  0  0
  -21.9158   -4.7000   22.3395 C   0  0  0  0  0  0
  -22.7861  -13.5228   21.1863 C   0  0  0  0  0  0
  -22.1635   -4.2200   21.0972 F   0  0  0  0  0  0
  -21.5651   -3.4518   25.7717 F   0  0  0  0  0  0
  -30.0535  -13.2289   20.4543 N   0  0  0  0  0  0
  -26.3033  -12.9323   20.3330 N   0  0  0  0  0  0
  -25.9320  -11.6478   20.5719 N   0  0  0  0  0  0
  -22.0497  -12.8234   22.0419 N   0  0  0  0  0  0
  -25.4387  -15.1885   20.4119 N   0  0  0  0  0  0
  -31.7613  -14.6774   20.0020 O   0  0  0  0  0  0
  -21.6603   -6.8916   21.4254 O   0  0  0  0  0  0
  -22.3538  -14.5541   20.6713 O   0  0  0  0  0  0
  -24.6139  -31.8714   23.2156 C   0  0  0  0  0  0
  -25.9065  -32.4836   23.8399 C   0  0  1  0  0  0
  -27.2254  -27.4385   20.1190 C   0  0  0  0  0  0
  -25.5920  -33.8624   24.2332 N   0  0  0  0  0  0
  -23.3982  -30.4948   21.5584 C   0  0  2  0  0  0
  -24.8468  -28.9685   20.1122 C   0  0  0  0  0  0
  -22.7397  -29.4671   22.5059 C   0  0  0  0  0  0
  -18.0253  -28.1405   22.8512 C   0  0  0  0  0  0
  -24.1483  -36.7302   23.2628 C   0  0  0  0  0  0
  -25.9261  -30.8364   21.3718 C   0  0  0  0  0  0
  -26.0023  -29.4693   20.7268 C   0  0  0  0  0  0
  -27.1956  -28.7097   20.7350 C   0  0  0  0  0  0
  -26.0660  -26.9719   19.4641 C   0  0  0  0  0  0
  -24.8729  -27.7171   19.4743 C   0  0  0  0  0  0
  -23.6048  -29.8303   20.1710 C   0  0  0  0  0  0
  -25.4104  -36.3099   24.0322 C   0  0  1  0  0  0
  -20.5845  -28.3680   23.1360 C   0  0  2  0  0  0
  -20.6763  -26.9431   22.5440 C   0  0  0  0  0  0
  -19.5754  -26.6411   21.5230 C   0  0  0  0  0  0
  -18.1914  -26.7954   22.1625 C   0  0  0  0  0  0
  -19.1504  -28.8862   23.2923 C   0  0  0  0  0  0
  -18.9440  -30.1473   23.8935 C   0  0  0  0  0  0
  -17.6447  -30.6629   24.0566 C   0  0  0  0  0  0
  -25.9039  -34.9479   23.5116 C   0  0  0  0  0  0
  -16.5333  -29.9132   23.6340 C   0  0  0  0  0  0
  -16.7239  -28.6535   23.0376 C   0  0  0  0  0  0
  -26.4492  -31.6621   25.0725 C   0  0  0  0  0  0
  -25.3747  -31.3769   26.1469 C   0  0  0  0  0  0
  -27.0303  -30.3056   24.6093 C   0  0  0  0  0  0
  -27.6049  -32.4366   25.7493 C   0  0  0  0  0  0
  -27.5566  -37.1809   24.8468 C   0  0  0  0  0  0
  -21.4139  -29.3020   22.3752 N   0  0  0  0  0  0
  -26.4278  -37.3793   23.9403 N   0  0  0  0  0  0
  -24.6635  -31.0821   22.1068 N   0  0  0  0  0  0
  -23.4168  -28.8224   23.3110 O   0  0  0  0  0  0
  -28.3753  -26.6777   20.0954 O   0  0  0  0  0  0
  -26.5607  -34.8940   22.4684 O   0  0  0  0  0  0
  -23.5339  -32.1471   23.7562 O   0  0  0  0  0  0
  -30.2468  -18.8135   20.9488 C   0  0  0  0  0  0
  -30.3199  -17.4238   20.7292 C   0  0  0  0  0  0
  -30.2922  -18.3516   23.3027 C   0  0  0  0  0  0
  -30.2261  -19.3151   22.2652 C   0  0  0  0  0  0
  -30.3610  -16.5410   21.8314 C   0  0  0  0  0  0
  -27.3544  -24.5497   20.9008 C   0  0  0  0  0  0
  -29.7722  -22.6315   23.8780 C   0  0  0  0  0  0
  -30.3820  -23.7698   23.0349 C   0  0  0  0  0  0
  -29.8725  -24.9543   20.8689 C   0  0  0  0  0  0
  -30.4040  -21.2371   23.7335 C   0  0  0  0  0  0
  -28.4756  -25.6064   21.0597 C   0  0  1  0  0  0
  -30.3393  -17.0178   23.0932 N   0  0  0  0  0  0
  -30.2891  -15.1409   21.6510 N   0  0  0  0  0  0
  -30.0446  -23.6668   21.5967 N   0  3  0  0  0  0
  -30.1190  -20.6851   22.4458 O   0  0  0  0  0  0
  -31.4591  -12.3608   19.0826 H   0  0  0  0  0  0
  -30.3115  -11.2571   19.7720 H   0  0  0  0  0  0
  -29.7132  -11.7843   17.4036 H   0  0  0  0  0  0
  -29.6574  -13.4926   17.7610 H   0  0  0  0  0  0
  -27.8179  -11.3060   18.8100 H   0  0  0  0  0  0
  -27.3494  -12.6364   17.7873 H   0  0  0  0  0  0
  -27.7252  -14.2498   19.5874 H   0  0  0  0  0  0
  -28.6536  -11.9167   21.3260 H   0  0  0  0  0  0
  -28.4433  -13.5419   21.8680 H   0  0  0  0  0  0
  -25.2767   -9.5675   22.4725 H   0  0  0  0  0  0
  -23.9990   -7.4631   22.7429 H   0  0  0  0  0  0
  -21.0851   -8.8820   19.8938 H   0  0  0  0  0  0
  -22.3739  -10.9685   19.6126 H   0  0  0  0  0  0
  -21.1988   -7.6164   23.9760 H   0  0  0  0  0  0
  -21.1506   -6.0519   25.9107 H   0  0  0  0  0  0
  -22.0584   -2.7639   23.2796 H   0  0  0  0  0  0
  -22.4080  -11.9872   22.4799 H   0  0  0  0  0  0
  -21.1114  -13.1250   22.2667 H   0  0  0  0  0  0
  -24.6844  -15.8574   20.5244 H   0  0  0  0  0  0
  -26.2965  -15.6142   20.0845 H   0  0  0  0  0  0
  -26.7118  -32.5583   23.1137 H   0  0  0  0  0  0
  -25.0052  -33.9794   25.0461 H   0  0  0  0  0  0
  -22.6852  -31.3109   21.4236 H   0  0  0  0  0  0
  -23.3730  -35.9652   23.3315 H   0  0  0  0  0  0
  -24.3571  -36.8896   22.2036 H   0  0  0  0  0  0
  -23.7245  -37.6507   23.6651 H   0  0  0  0  0  0
  -26.0313  -31.5975   20.5975 H   0  0  0  0  0  0
  -26.8179  -30.8945   21.9843 H   0  0  0  0  0  0
  -28.0845  -29.0871   21.2208 H   0  0  0  0  0  0
  -26.0796  -26.0197   18.9555 H   0  0  0  0  0  0
  -23.9910  -27.3296   18.9809 H   0  0  0  0  0  0
  -23.7059  -30.6080   19.4128 H   0  0  0  0  0  0
  -22.7292  -29.2439   19.8840 H   0  0  0  0  0  0
  -25.1275  -36.1928   25.0806 H   0  0  0  0  0  0
  -20.9910  -28.3241   24.1498 H   0  0  0  0  0  0
  -20.5703  -26.2278   23.3606 H   0  0  0  0  0  0
  -21.6636  -26.7519   22.1218 H   0  0  0  0  0  0
  -19.6925  -25.6323   21.1270 H   0  0  0  0  0  0
  -19.6722  -27.3219   20.6765 H   0  0  0  0  0  0
  -17.4192  -26.6711   21.4013 H   0  0  0  0  0  0
  -18.0318  -26.0086   22.9017 H   0  0  0  0  0  0
  -19.7910  -30.7278   24.2337 H   0  0  0  0  0  0
  -17.5006  -31.6330   24.5149 H   0  0  0  0  0  0
  -15.5343  -30.3055   23.7688 H   0  0  0  0  0  0
  -15.8611  -28.0876   22.7117 H   0  0  0  0  0  0
  -24.5900  -30.7125   25.7818 H   0  0  0  0  0  0
  -24.8965  -32.2971   26.4872 H   0  0  0  0  0  0
  -25.8100  -30.8953   27.0238 H   0  0  0  0  0  0
  -26.2838  -29.6836   24.1125 H   0  0  0  0  0  0
  -27.4040  -29.7284   25.4561 H   0  0  0  0  0  0
  -27.8702  -30.4351   23.9250 H   0  0  0  0  0  0
  -27.2625  -33.3658   26.2074 H   0  0  0  0  0  0
  -28.3862  -32.6963   25.0333 H   0  0  0  0  0  0
  -28.0708  -31.8479   26.5407 H   0  0  0  0  0  0
  -28.2590  -38.0094   24.7480 H   0  0  0  0  0  0
  -28.1050  -36.2626   24.6321 H   0  0  0  0  0  0
  -27.2299  -37.1501   25.8878 H   0  0  0  0  0  0
  -20.9322  -29.8648   21.6878 H   0  0  0  0  0  0
  -26.0143  -38.2849   24.1443 H   0  0  0  0  0  0
  -30.2016  -19.4923   20.1097 H   0  0  0  0  0  0
  -30.3196  -17.0575   19.7119 H   0  0  0  0  0  0
  -30.2772  -18.6190   24.3462 H   0  0  0  0  0  0
  -26.3722  -24.9690   21.1103 H   0  0  0  0  0  0
  -27.4591  -23.7170   21.5955 H   0  0  0  0  0  0
  -27.3353  -24.1413   19.8904 H   0  0  0  0  0  0
  -28.6954  -22.5675   23.7224 H   0  0  0  0  0  0
  -29.8969  -22.9189   24.9233 H   0  0  0  0  0  0
  -31.4659  -23.8051   23.1595 H   0  0  0  0  0  0
  -29.9991  -24.7149   23.4227 H   0  0  0  0  0  0
  -29.9954  -24.7238   19.8118 H   0  0  0  0  0  0
  -30.6685  -25.6584   21.1200 H   0  0  0  0  0  0
  -29.9780  -20.6412   24.5380 H   0  0  0  0  0  0
  -31.4839  -21.2782   23.8933 H   0  0  0  0  0  0
  -28.4173  -26.0415   22.0600 H   0  0  0  0  0  0
  -29.6714  -14.6658   22.2891 H   0  0  0  0  0  0
  -30.7658  -23.1242   21.1439 H   0  0  0  0  0  0
  -29.1882  -23.1445   21.4959 H   0  0  0  0  0  0
  1 25  1  0  0  0
  1 30  2  0  0  0
  1 83  1  0  0  0
  2  3  1  0  0  0
  2 25  1  0  0  0
  2 86  1  0  0  0
  2 87  1  0  0  0
  3  4  1  0  0  0
  3 88  1  0  0  0
  3 89  1  0  0  0
  4  5  1  0  0  0
  4 90  1  0  0  0
  4 91  1  0  0  0
  5  6  1  0  0  0
  5 26  1  0  0  0
  5 92  1  0  0  0
  6 25  1  0  0  0
  6 93  1  0  0  0
  6 94  1  0  0  0
  7  8  2  0  0  0
  7 26  1  0  0  0
  7 29  1  0  0  0
  8  9  1  0  0  0
  8 22  1  0  0  0
  9 10  1  0  0  0
  9 27  2  0  0  0
 10 11  2  0  0  0
 10 15  1  0  0  0
 11 12  1  0  0  0
 11 95  1  0  0  0
 12 13  2  0  0  0
 12 96  1  0  0  0
 13 14  1  0  0  0
 13 31  1  0  0  0
 14 15  2  0  0  0
 14 97  1  0  0  0
 15 98  1  0  0  0
 16 17  2  0  0  0
 16 21  1  0  0  0
 16 31  1  0  0  0
 17 18  1  0  0  0
 17 99  1  0  0  0
 18 19  2  0  0  0
 18100  1  0  0  0
 19 20  1  0  0  0
 19 24  1  0  0  0
 20 21  2  0  0  0
 20101  1  0  0  0
 21 23  1  0  0  0
 22 28  1  0  0  0
 22 32  2  0  0  0
 26 27  1  0  0  0
 28102  1  0  0  0
 28103  1  0  0  0
 29104  1  0  0  0
 29105  1  0  0  0
 33 34  1  0  0  0
 33 66  1  0  0  0
 33 70  2  0  0  0
 34 36  1  0  0  0
 34 59  1  0  0  0
 34106  1  0  0  0
 35 44  2  0  0  0
 35 45  1  0  0  0
 35 68  1  0  0  0
 36 56  1  0  0  0
 36107  1  0  0  0
 37 39  1  0  0  0
 37 47  1  0  0  0
 37 66  1  0  0  0
 37108  1  0  0  0
 38 43  2  0  0  0
 38 46  1  0  0  0
 38 47  1  0  0  0
 39 64  1  0  0  0
 39 67  2  0  0  0
 40 52  1  0  0  0
 40 53  2  0  0  0
 40 58  1  0  0  0
 41109  1  0  0  0
 41110  1  0  0  0
 41111  1  0  0  0
 41 48  1  0  0  0
 42 43  1  0  0  0
 42 66  1  0  0  0
 42112  1  0  0  0
 42113  1  0  0  0
 43 44  1  0  0  0
 44114  1  0  0  0
 45 46  2  0  0  0
 45115  1  0  0  0
 46116  1  0  0  0
 47117  1  0  0  0
 47118  1  0  0  0
 48 56  1  0  0  0
 48 65  1  0  0  0
 48119  1  0  0  0
 49 50  1  0  0  0
 49 53  1  0  0  0
 49 64  1  0  0  0
 49120  1  0  0  0
 50 51  1  0  0  0
 50121  1  0  0  0
 50122  1  0  0  0
 51 52  1  0  0  0
 51123  1  0  0  0
 51124  1  0  0  0
 52125  1  0  0  0
 52126  1  0  0  0
 53 54  1  0  0  0
 54 55  2  0  0  0
 54127  1  0  0  0
 55 57  1  0  0  0
 55128  1  0  0  0
 56 69  2  0  0  0
 57 58  2  0  0  0
 57129  1  0  0  0
 58130  1  0  0  0
 59 60  1  0  0  0
 59 61  1  0  0  0
 59 62  1  0  0  0
 60131  1  0  0  0
 60132  1  0  0  0
 60133  1  0  0  0
 61134  1  0  0  0
 61135  1  0  0  0
 61136  1  0  0  0
 62137  1  0  0  0
 62138  1  0  0  0
 62139  1  0  0  0
 63 65  1  0  0  0
 63140  1  0  0  0
 63141  1  0  0  0
 63142  1  0  0  0
 64143  1  0  0  0
 65144  1  0  0  0
 68 81  1  0  0  0
 71 72  2  0  0  0
 71 74  1  0  0  0
 71145  1  0  0  0
 72 75  1  0  0  0
 72146  1  0  0  0
 73 74  2  0  0  0
 73 82  1  0  0  0
 73147  1  0  0  0
 74 85  1  0  0  0
 75 82  2  0  0  0
 75 83  1  0  0  0
 76148  1  0  0  0
 76149  1  0  0  0
 76150  1  0  0  0
 76 81  1  0  0  0
 77 78  1  0  0  0
 77 80  1  0  0  0
 77151  1  0  0  0
 77152  1  0  0  0
 78 84  1  0  0  0
 78153  1  0  0  0
 78154  1  0  0  0
 79 81  1  0  0  0
 79 84  1  0  0  0
 79155  1  0  0  0
 79156  1  0  0  0
 80 85  1  0  0  0
 80157  1  0  0  0
 80158  1  0  0  0
 81159  1  0  0  0
 83160  1  0  0  0
 84161  1  0  0  0
 84162  1  0  0  0
M  CHG  1  84   1
M  ISO  4   1 100  68 101  81 101  83 100
M  END
> <chiral flag>
0

> <version>
0

> <s_m_source_file>
/data/baiqing/PycharmProjects/Reinvent-master-3.2/result/LINK_invent/BTK/process_docking_weight1_custom_sum_contain_oxygen_bond_distance_aromatic_linkinvent_7_9_3/rearranged_h_0117.sdf

> <i_m_source_file_index>
61

> <r_mmod_Potential_Energy-OPLS-2005>
-278.301208496094

> <r_mmod_Stretch_Energy-OPLS-2005>
36.4075622558594

> <r_mmod_Bend_Energy-OPLS-2005>
111.96989440918

> <r_mmod_Torsional_Energy-OPLS-2005>
269.087646484375

> <r_mmod_Improper_Torsional_Energy-OPLS-2005>
3.26705503463745

> <r_mmod_Van_der_Waal_Energy-OPLS-2005>
161.804901123047

> <r_mmod_Electrostatic_Energy-OPLS-2005>
-426.245666503906

> <r_mmod_Solvation_Energy-OPLS-2005>
-443.675659179688

> <b_mmod_Minimization_Converged-OPLS-2005>
0

> <r_mmod_RMS_Derivative-OPLS-2005>
4.24895143508911

$$$$
62
                    3D
 Structure written by MMmdl.
168177  0  0  1  0            999 V2000
  -30.5198  -15.0038   20.4276 C   0  0  0  0  0  0
  -30.4366  -12.6247   19.5150 C   0  0  0  0  0  0
  -29.5247  -12.5466   18.2677 C   0  0  0  0  0  0
  -28.0574  -12.3252   18.6785 C   0  0  0  0  0  0
  -27.6267  -13.2552   19.8424 C   0  0  2  0  0  0
  -28.6631  -13.2926   20.9851 C   0  0  0  0  0  0
  -25.2446  -13.8236   20.5744 C   0  0  0  0  0  0
  -24.1760  -13.0456   20.9237 C   0  0  0  0  0  0
  -24.6374  -11.6937   20.8746 C   0  0  0  0  0  0
  -23.9057  -10.4307   21.0400 C   0  0  0  0  0  0
  -24.3613   -9.4223   21.9175 C   0  0  0  0  0  0
  -23.6301   -8.2248   22.0738 C   0  0  0  0  0  0
  -22.4281   -8.0279   21.3535 C   0  0  0  0  0  0
  -21.9914   -9.0246   20.4632 C   0  0  0  0  0  0
  -22.7229  -10.2134   20.3051 C   0  0  0  0  0  0
  -21.6854   -6.0730   22.5276 C   0  0  0  0  0  0
  -21.4013   -6.5631   23.8208 C   0  0  0  0  0  0
  -21.3668   -5.6786   24.9170 C   0  0  0  0  0  0
  -21.6056   -4.3050   24.7227 C   0  0  0  0  0  0
  -21.8817   -3.8138   23.4344 C   0  0  0  0  0  0
  -21.9198   -4.6958   22.3399 C   0  0  0  0  0  0
  -22.7778  -13.5218   21.1900 C   0  0  0  0  0  0
  -22.1667   -4.2140   21.0978 F   0  0  0  0  0  0
  -21.5639   -3.4535   25.7739 F   0  0  0  0  0  0
  -29.9385  -13.7271   20.3974 N   0  0  0  0  0  0
  -26.2858  -12.9469   20.3256 N   0  0  0  0  0  0
  -25.9309  -11.6589   20.5724 N   0  0  0  0  0  0
  -22.0420  -12.8200   22.0448 N   0  0  0  0  0  0
  -25.4173  -15.1963   20.4234 N   0  0  0  0  0  0
  -31.6803  -15.0788   20.0041 O   0  0  0  0  0  0
  -21.6652   -6.8870   21.4233 O   0  0  0  0  0  0
  -22.3464  -14.5523   20.6745 O   0  0  0  0  0  0
  -24.6456  -31.8371   23.1827 C   0  0  0  0  0  0
  -25.9217  -32.4654   23.8235 C   0  0  1  0  0  0
  -27.2297  -27.0944   20.1535 C   0  0  0  0  0  0
  -25.5949  -33.8466   24.2158 N   0  0  0  0  0  0
  -23.4538  -30.4513   21.5263 C   0  0  2  0  0  0
  -24.9069  -28.8660   20.1031 C   0  0  0  0  0  0
  -22.7587  -29.4489   22.4822 C   0  0  0  0  0  0
  -18.0302  -28.1383   22.8477 C   0  0  0  0  0  0
  -24.1491  -36.7245   23.2643 C   0  0  0  0  0  0
  -26.0099  -30.6948   21.3880 C   0  0  0  0  0  0
  -26.0800  -29.3013   20.7296 C   0  0  0  0  0  0
  -27.2336  -28.4285   20.7425 C   0  0  0  0  0  0
  -26.0336  -26.7641   19.4825 C   0  0  0  0  0  0
  -24.8984  -27.6120   19.4662 C   0  0  0  0  0  0
  -23.6831  -29.7727   20.1466 C   0  0  0  0  0  0
  -25.4127  -36.3014   24.0308 C   0  0  1  0  0  0
  -20.5922  -28.3706   23.1230 C   0  0  2  0  0  0
  -20.6781  -26.9400   22.5409 C   0  0  0  0  0  0
  -19.5756  -26.6368   21.5211 C   0  0  0  0  0  0
  -18.1941  -26.7923   22.1626 C   0  0  0  0  0  0
  -19.1562  -28.8863   23.2844 C   0  0  0  0  0  0
  -18.9479  -30.1462   23.8866 C   0  0  0  0  0  0
  -17.6475  -30.6585   24.0558 C   0  0  0  0  0  0
  -25.9087  -34.9385   23.5058 C   0  0  0  0  0  0
  -16.5368  -29.9080   23.6337 C   0  0  0  0  0  0
  -16.7289  -28.6495   23.0366 C   0  0  0  0  0  0
  -26.4525  -31.6544   25.0703 C   0  0  0  0  0  0
  -25.3707  -31.3739   26.1401 C   0  0  0  0  0  0
  -27.0394  -30.2935   24.6319 C   0  0  0  0  0  0
  -27.6059  -32.4311   25.7480 C   0  0  0  0  0  0
  -27.5578  -37.1781   24.8467 C   0  0  0  0  0  0
  -21.4271  -29.3030   22.3593 N   0  0  0  0  0  0
  -26.4290  -37.3731   23.9403 N   0  0  0  0  0  0
  -24.7229  -31.0177   22.0870 N   0  0  0  0  0  0
  -23.4211  -28.8030   23.2987 O   0  0  0  0  0  0
  -28.2874  -26.1145   20.3050 O   0  0  0  0  0  0
  -26.5679  -34.8890   22.4642 O   0  0  0  0  0  0
  -23.5578  -32.1273   23.7025 O   0  0  0  0  0  0
  -27.4117  -20.4758   20.7859 C   0  0  0  0  0  0
  -29.1843  -21.9606   20.1869 C   0  0  0  0  0  0
  -28.7877  -20.5467   20.4838 C   0  0  0  0  0  0
  -26.5873  -21.6284   20.8331 C   0  0  0  0  0  0
  -28.2715  -23.1534   20.2233 C   0  0  0  0  0  0
  -30.4656  -17.6190   22.7078 C   0  0  0  0  0  0
  -29.6426  -16.4014   22.2399 C   0  0  0  0  0  0
  -29.4357  -17.5915   20.0894 C   0  0  0  0  0  0
  -29.6970  -19.1535   20.7406 C   0  0  2  0  0  0
  -29.8295  -18.9705   22.2822 C   0  0  2  0  0  0
  -25.1276  -21.4969   21.2137 C   0  0  0  0  0  0
  -30.0170  -20.3692   24.3313 C   0  0  0  0  0  0
  -31.9509  -20.2070   22.8245 C   0  0  0  0  0  0
  -28.4834  -24.7046   19.6319 C   0  0  0  0  0  0
  -26.9928  -22.8963   20.5724 N   0  0  0  0  0  0
  -29.7912  -16.1954   20.7981 N   0  0  0  0  0  0
  -30.4721  -20.1512   22.9367 N   0  3  0  0  0  0
  -31.4698  -12.7847   19.2043 H   0  0  0  0  0  0
  -30.4385  -11.6748   20.0510 H   0  0  0  0  0  0
  -29.8521  -11.7431   17.6075 H   0  0  0  0  0  0
  -29.6093  -13.4706   17.6931 H   0  0  0  0  0  0
  -27.9556  -11.2823   18.9826 H   0  0  0  0  0  0
  -27.3979  -12.4581   17.8200 H   0  0  0  0  0  0
  -27.5856  -14.2577   19.4149 H   0  0  0  0  0  0
  -28.7579  -12.3147   21.4605 H   0  0  0  0  0  0
  -28.3390  -13.9823   21.7649 H   0  0  0  0  0  0
  -25.2750   -9.5718   22.4756 H   0  0  0  0  0  0
  -24.0019   -7.4643   22.7453 H   0  0  0  0  0  0
  -21.0845   -8.8750   19.8935 H   0  0  0  0  0  0
  -22.3664  -10.9669   19.6169 H   0  0  0  0  0  0
  -21.1988   -7.6137   23.9705 H   0  0  0  0  0  0
  -21.1504   -6.0517   25.9074 H   0  0  0  0  0  0
  -22.0591   -2.7599   23.2846 H   0  0  0  0  0  0
  -22.4034  -11.9882   22.4873 H   0  0  0  0  0  0
  -21.1020  -13.1193   22.2613 H   0  0  0  0  0  0
  -24.6579  -15.8577   20.5454 H   0  0  0  0  0  0
  -26.2795  -15.6332   20.1254 H   0  0  0  0  0  0
  -26.7273  -32.5234   23.0949 H   0  0  0  0  0  0
  -25.0061  -33.9561   25.0284 H   0  0  0  0  0  0
  -22.7598  -31.2787   21.3662 H   0  0  0  0  0  0
  -23.3762  -35.9571   23.3289 H   0  0  0  0  0  0
  -24.3581  -36.8909   22.2066 H   0  0  0  0  0  0
  -23.7240  -37.6430   23.6700 H   0  0  0  0  0  0
  -26.1744  -31.4441   20.6130 H   0  0  0  0  0  0
  -26.8777  -30.7477   22.0339 H   0  0  0  0  0  0
  -28.1216  -28.7503   21.2669 H   0  0  0  0  0  0
  -25.9404  -25.7948   19.0162 H   0  0  0  0  0  0
  -23.9994  -27.2715   18.9715 H   0  0  0  0  0  0
  -23.8225  -30.5458   19.3899 H   0  0  0  0  0  0
  -22.7972  -29.2166   19.8346 H   0  0  0  0  0  0
  -25.1315  -36.1847   25.0800 H   0  0  0  0  0  0
  -21.0017  -28.3294   24.1353 H   0  0  0  0  0  0
  -20.5661  -26.2309   23.3629 H   0  0  0  0  0  0
  -21.6644  -26.7386   22.1210 H   0  0  0  0  0  0
  -19.6914  -25.6272   21.1257 H   0  0  0  0  0  0
  -19.6707  -27.3161   20.6724 H   0  0  0  0  0  0
  -17.4211  -26.6664   21.4035 H   0  0  0  0  0  0
  -18.0342  -26.0068   22.9021 H   0  0  0  0  0  0
  -19.7952  -30.7287   24.2222 H   0  0  0  0  0  0
  -17.5030  -31.6266   24.5151 H   0  0  0  0  0  0
  -15.5366  -30.2980   23.7667 H   0  0  0  0  0  0
  -15.8687  -28.0805   22.7106 H   0  0  0  0  0  0
  -24.5904  -30.7058   25.7728 H   0  0  0  0  0  0
  -24.8861  -32.2912   26.4757 H   0  0  0  0  0  0
  -25.7994  -30.8970   27.0228 H   0  0  0  0  0  0
  -26.3010  -29.6654   24.1324 H   0  0  0  0  0  0
  -27.3988  -29.7245   25.4904 H   0  0  0  0  0  0
  -27.8929  -30.4159   23.9649 H   0  0  0  0  0  0
  -27.2671  -33.3654   26.1970 H   0  0  0  0  0  0
  -28.3912  -32.6810   25.0330 H   0  0  0  0  0  0
  -28.0680  -31.8494   26.5472 H   0  0  0  0  0  0
  -28.2581  -38.0091   24.7519 H   0  0  0  0  0  0
  -28.1090  -36.2621   24.6287 H   0  0  0  0  0  0
  -27.2297  -37.1415   25.8871 H   0  0  0  0  0  0
  -20.9479  -29.8756   21.6782 H   0  0  0  0  0  0
  -26.0162  -38.2800   24.1410 H   0  0  0  0  0  0
  -26.9797  -19.5160   21.0371 H   0  0  0  0  0  0
  -30.2133  -22.1473   19.9097 H   0  0  0  0  0  0
  -31.4841  -17.5318   22.3272 H   0  0  0  0  0  0
  -30.5438  -17.5752   23.7936 H   0  0  0  0  0  0
  -28.5851  -16.5276   22.4797 H   0  0  0  0  0  0
  -29.9662  -15.5224   22.8025 H   0  0  0  0  0  0
  -28.3598  -17.5221   19.9278 H   0  0  0  0  0  0
  -29.8538  -17.5670   19.0831 H   0  0  0  0  0  0
  -30.6833  -19.4170   20.3597 H   0  0  0  0  0  0
  -28.8032  -18.9351   22.6510 H   0  0  0  0  0  0
  -24.8773  -22.1945   22.0134 H   0  0  0  0  0  0
  -24.8963  -20.4913   21.5659 H   0  0  0  0  0  0
  -24.4886  -21.7138   20.3577 H   0  0  0  0  0  0
  -28.9302  -20.4250   24.3906 H   0  0  0  0  0  0
  -30.4060  -21.3102   24.7203 H   0  0  0  0  0  0
  -30.3523  -19.5707   24.9937 H   0  0  0  0  0  0
  -32.2858  -20.1049   21.7930 H   0  0  0  0  0  0
  -32.4268  -19.4228   23.4133 H   0  0  0  0  0  0
  -32.3260  -21.1616   23.1937 H   0  0  0  0  0  0
  -27.9310  -24.7327   18.6930 H   0  0  0  0  0  0
  -29.5254  -24.7169   19.3129 H   0  0  0  0  0  0
  -30.1261  -20.9531   22.4279 H   0  0  0  0  0  0
  1 25  1  0  0  0
  1 30  2  0  0  0
  1 86  1  0  0  0
  2  3  1  0  0  0
  2 25  1  0  0  0
  2 88  1  0  0  0
  2 89  1  0  0  0
  3  4  1  0  0  0
  3 90  1  0  0  0
  3 91  1  0  0  0
  4  5  1  0  0  0
  4 92  1  0  0  0
  4 93  1  0  0  0
  5  6  1  0  0  0
  5 26  1  0  0  0
  5 94  1  0  0  0
  6 25  1  0  0  0
  6 95  1  0  0  0
  6 96  1  0  0  0
  7  8  2  0  0  0
  7 26  1  0  0  0
  7 29  1  0  0  0
  8  9  1  0  0  0
  8 22  1  0  0  0
  9 10  1  0  0  0
  9 27  2  0  0  0
 10 11  2  0  0  0
 10 15  1  0  0  0
 11 12  1  0  0  0
 11 97  1  0  0  0
 12 13  2  0  0  0
 12 98  1  0  0  0
 13 14  1  0  0  0
 13 31  1  0  0  0
 14 15  2  0  0  0
 14 99  1  0  0  0
 15100  1  0  0  0
 16 17  2  0  0  0
 16 21  1  0  0  0
 16 31  1  0  0  0
 17 18  1  0  0  0
 17101  1  0  0  0
 18 19  2  0  0  0
 18102  1  0  0  0
 19 20  1  0  0  0
 19 24  1  0  0  0
 20 21  2  0  0  0
 20103  1  0  0  0
 21 23  1  0  0  0
 22 28  1  0  0  0
 22 32  2  0  0  0
 26 27  1  0  0  0
 28104  1  0  0  0
 28105  1  0  0  0
 29106  1  0  0  0
 29107  1  0  0  0
 33 34  1  0  0  0
 33 66  1  0  0  0
 33 70  2  0  0  0
 34 36  1  0  0  0
 34 59  1  0  0  0
 34108  1  0  0  0
 35 44  2  0  0  0
 35 45  1  0  0  0
 35 68  1  0  0  0
 36 56  1  0  0  0
 36109  1  0  0  0
 37 39  1  0  0  0
 37 47  1  0  0  0
 37 66  1  0  0  0
 37110  1  0  0  0
 38 43  2  0  0  0
 38 46  1  0  0  0
 38 47  1  0  0  0
 39 64  1  0  0  0
 39 67  2  0  0  0
 40 52  1  0  0  0
 40 53  2  0  0  0
 40 58  1  0  0  0
 41111  1  0  0  0
 41112  1  0  0  0
 41113  1  0  0  0
 41 48  1  0  0  0
 42 43  1  0  0  0
 42 66  1  0  0  0
 42114  1  0  0  0
 42115  1  0  0  0
 43 44  1  0  0  0
 44116  1  0  0  0
 45 46  2  0  0  0
 45117  1  0  0  0
 46118  1  0  0  0
 47119  1  0  0  0
 47120  1  0  0  0
 48 56  1  0  0  0
 48 65  1  0  0  0
 48121  1  0  0  0
 49 50  1  0  0  0
 49 53  1  0  0  0
 49 64  1  0  0  0
 49122  1  0  0  0
 50 51  1  0  0  0
 50123  1  0  0  0
 50124  1  0  0  0
 51 52  1  0  0  0
 51125  1  0  0  0
 51126  1  0  0  0
 52127  1  0  0  0
 52128  1  0  0  0
 53 54  1  0  0  0
 54 55  2  0  0  0
 54129  1  0  0  0
 55 57  1  0  0  0
 55130  1  0  0  0
 56 69  2  0  0  0
 57 58  2  0  0  0
 57131  1  0  0  0
 58132  1  0  0  0
 59 60  1  0  0  0
 59 61  1  0  0  0
 59 62  1  0  0  0
 60133  1  0  0  0
 60134  1  0  0  0
 60135  1  0  0  0
 61136  1  0  0  0
 61137  1  0  0  0
 61138  1  0  0  0
 62139  1  0  0  0
 62140  1  0  0  0
 62141  1  0  0  0
 63 65  1  0  0  0
 63142  1  0  0  0
 63143  1  0  0  0
 63144  1  0  0  0
 64145  1  0  0  0
 65146  1  0  0  0
 68 84  1  0  0  0
 71 73  2  0  0  0
 71 74  1  0  0  0
 71147  1  0  0  0
 72 73  1  0  0  0
 72 75  2  0  0  0
 72148  1  0  0  0
 73 79  1  0  0  0
 74 81  1  0  0  0
 74 85  2  0  0  0
 75 84  1  0  0  0
 75 85  1  0  0  0
 76 77  1  0  0  0
 76149  1  0  0  0
 76150  1  0  0  0
 76 80  1  0  0  0
 77 86  1  0  0  0
 77151  1  0  0  0
 77152  1  0  0  0
 78 79  1  0  0  0
 78 86  1  0  0  0
 78153  1  0  0  0
 78154  1  0  0  0
 79 80  1  0  0  0
 79155  1  0  0  0
 80 87  1  0  0  0
 80156  1  0  0  0
 81157  1  0  0  0
 81158  1  0  0  0
 81159  1  0  0  0
 82160  1  0  0  0
 82161  1  0  0  0
 82162  1  0  0  0
 82 87  1  0  0  0
 83 87  1  0  0  0
 83163  1  0  0  0
 83164  1  0  0  0
 83165  1  0  0  0
 84166  1  0  0  0
 84167  1  0  0  0
 87168  1  0  0  0
M  CHG  1  87   1
M  ISO  4   1 100  68 101  84 101  86 100
M  END
> <chiral flag>
0

> <version>
0

> <s_m_source_file>
/data/baiqing/PycharmProjects/Reinvent-master-3.2/result/LINK_invent/BTK/process_docking_weight1_custom_sum_contain_oxygen_bond_distance_aromatic_linkinvent_7_9_3/rearranged_h_0117.sdf

> <i_m_source_file_index>
62

> <r_mmod_Potential_Energy-OPLS-2005>
646.420104980469

> <r_mmod_Stretch_Energy-OPLS-2005>
323.291900634766

> <r_mmod_Bend_Energy-OPLS-2005>
328.794830322266

> <r_mmod_Torsional_Energy-OPLS-2005>
366.445037841797

> <r_mmod_Improper_Torsional_Energy-OPLS-2005>
6.47139024734497

> <r_mmod_Van_der_Waal_Energy-OPLS-2005>
129.546829223633

> <r_mmod_Electrostatic_Energy-OPLS-2005>
-296.450408935547

> <r_mmod_Solvation_Energy-OPLS-2005>
-444.467590332031

> <b_mmod_Minimization_Converged-OPLS-2005>
0

> <r_mmod_RMS_Derivative-OPLS-2005>
1.54717206954956

$$$$
63
                    3D
 Structure written by MMmdl.
178186  0  0  1  0            999 V2000
  -30.7431  -14.7377   20.3151 C   0  0  0  0  0  0
  -30.4019  -12.4434   19.4090 C   0  0  0  0  0  0
  -29.4641  -12.3664   18.1944 C   0  0  0  0  0  0
  -27.9932  -12.2885   18.6363 C   0  0  0  0  0  0
  -27.6252  -13.2391   19.8047 C   0  0  2  0  0  0
  -28.7066  -13.2711   20.8983 C   0  0  0  0  0  0
  -25.2491  -13.8208   20.5743 C   0  0  0  0  0  0
  -24.1791  -13.0468   20.9210 C   0  0  0  0  0  0
  -24.6352  -11.6938   20.8760 C   0  0  0  0  0  0
  -23.9009  -10.4324   21.0434 C   0  0  0  0  0  0
  -24.3571   -9.4237   21.9220 C   0  0  0  0  0  0
  -23.6282   -8.2245   22.0749 C   0  0  0  0  0  0
  -22.4267   -8.0258   21.3526 C   0  0  0  0  0  0
  -21.9892   -9.0221   20.4606 C   0  0  0  0  0  0
  -22.7170  -10.2145   20.3066 C   0  0  0  0  0  0
  -21.6861   -6.0701   22.5256 C   0  0  0  0  0  0
  -21.4018   -6.5620   23.8179 C   0  0  0  0  0  0
  -21.3683   -5.6781   24.9167 C   0  0  0  0  0  0
  -21.6044   -4.3041   24.7212 C   0  0  0  0  0  0
  -21.8842   -3.8114   23.4347 C   0  0  0  0  0  0
  -21.9205   -4.6925   22.3395 C   0  0  0  0  0  0
  -22.7792  -13.5206   21.1893 C   0  0  0  0  0  0
  -22.1708   -4.2102   21.0978 F   0  0  0  0  0  0
  -21.5631   -3.4548   25.7744 F   0  0  0  0  0  0
  -29.9651  -13.6011   20.2083 N   0  0  0  0  0  0
  -26.2922  -12.9464   20.3256 N   0  0  0  0  0  0
  -25.9307  -11.6618   20.5814 N   0  0  0  0  0  0
  -22.0427  -12.8192   22.0408 N   0  0  0  0  0  0
  -25.4212  -15.1941   20.4208 N   0  0  0  0  0  0
  -31.9014  -14.5364   20.6648 O   0  0  0  0  0  0
  -21.6643   -6.8845   21.4225 O   0  0  0  0  0  0
  -22.3484  -14.5535   20.6750 O   0  0  0  0  0  0
  -24.6268  -31.8609   23.2027 C   0  0  0  0  0  0
  -25.9101  -32.4816   23.8340 C   0  0  1  0  0  0
  -27.2163  -27.2794   20.1200 C   0  0  0  0  0  0
  -25.5904  -33.8604   24.2296 N   0  0  0  0  0  0
  -23.4257  -30.4842   21.5477 C   0  0  2  0  0  0
  -24.8731  -28.9382   20.1099 C   0  0  0  0  0  0
  -22.7474  -29.4662   22.4965 C   0  0  0  0  0  0
  -18.0291  -28.1404   22.8459 C   0  0  0  0  0  0
  -24.1499  -36.7305   23.2638 C   0  0  0  0  0  0
  -25.9697  -30.7782   21.3839 C   0  0  0  0  0  0
  -26.0469  -29.4058   20.7154 C   0  0  0  0  0  0
  -27.2240  -28.5901   20.7089 C   0  0  0  0  0  0
  -26.0163  -26.8829   19.4853 C   0  0  0  0  0  0
  -24.8605  -27.6826   19.4842 C   0  0  0  0  0  0
  -23.6431  -29.8202   20.1642 C   0  0  0  0  0  0
  -25.4133  -36.3121   24.0325 C   0  0  1  0  0  0
  -20.5872  -28.3737   23.1259 C   0  0  2  0  0  0
  -20.6780  -26.9487   22.5374 C   0  0  0  0  0  0
  -19.5778  -26.6413   21.5161 C   0  0  0  0  0  0
  -18.1961  -26.7952   22.1587 C   0  0  0  0  0  0
  -19.1535  -28.8882   23.2854 C   0  0  0  0  0  0
  -18.9477  -30.1453   23.8942 C   0  0  0  0  0  0
  -17.6494  -30.6629   24.0537 C   0  0  0  0  0  0
  -25.9050  -34.9489   23.5131 C   0  0  0  0  0  0
  -16.5382  -29.9118   23.6331 C   0  0  0  0  0  0
  -16.7285  -28.6501   23.0391 C   0  0  0  0  0  0
  -26.4480  -31.6638   25.0734 C   0  0  0  0  0  0
  -25.3656  -31.3736   26.1405 C   0  0  0  0  0  0
  -27.0363  -30.3075   24.6237 C   0  0  0  0  0  0
  -27.6097  -32.4343   25.7480 C   0  0  0  0  0  0
  -27.5629  -37.1785   24.8470 C   0  0  0  0  0  0
  -21.4197  -29.3086   22.3657 N   0  0  0  0  0  0
  -26.4358  -37.3787   23.9396 N   0  0  0  0  0  0
  -24.6936  -31.0576   22.0996 N   0  0  0  0  0  0
  -23.4155  -28.8244   23.3121 O   0  0  0  0  0  0
  -28.3076  -26.3848   20.1869 O   0  0  0  0  0  0
  -26.5655  -34.8944   22.4706 O   0  0  0  0  0  0
  -23.5425  -32.1394   23.7330 O   0  0  0  0  0  0
  -31.2897  -15.5909   17.9488 C   0  0  0  0  0  0
  -30.1991  -15.6786   16.8913 C   0  0  0  0  0  0
  -30.7292  -16.0289   19.3178 C   0  0  1  0  0  0
  -30.0234  -17.5261   19.1980 C   0  0  1  0  0  0
  -29.3273  -17.8248   17.7917 C   0  0  1  0  0  0
  -30.7451  -19.8819   17.0603 C   0  0  0  0  0  0
  -28.4245  -19.6487   16.1569 C   0  0  0  0  0  0
  -31.1695  -19.3181   21.7034 C   0  0  0  0  0  0
  -27.5431  -21.8110   21.1781 C   0  0  0  0  0  0
  -29.2597  -18.2910   20.3713 C   0  0  0  0  0  0
  -29.1035  -23.7890   20.4677 C   0  0  0  0  0  0
  -29.9133  -21.1394   20.3976 C   0  0  0  0  0  0
  -28.0225  -24.9189   20.0916 C   0  0  0  0  0  0
  -29.3302  -19.3316   17.3702 C   0  0  0  0  0  0
  -29.8087  -19.6519   21.0568 C   0  0  2  0  0  0
  -28.7223  -22.2196   20.2824 C   0  0  1  0  0  0
  -29.8905  -17.0818   16.6358 N   0  3  0  0  0  0
  -31.4414  -12.5252   19.0869 H   0  0  0  0  0  0
  -30.3419  -11.5259   19.9970 H   0  0  0  0  0  0
  -29.7053  -11.4939   17.5854 H   0  0  0  0  0  0
  -29.6136  -13.2107   17.5432 H   0  0  0  0  0  0
  -27.8267  -11.2576   18.9463 H   0  0  0  0  0  0
  -27.3261  -12.4658   17.7893 H   0  0  0  0  0  0
  -27.5874  -14.2384   19.3683 H   0  0  0  0  0  0
  -28.7618  -12.3093   21.4111 H   0  0  0  0  0  0
  -28.4574  -14.0119   21.6583 H   0  0  0  0  0  0
  -25.2735   -9.5736   22.4774 H   0  0  0  0  0  0
  -23.9994   -7.4663   22.7506 H   0  0  0  0  0  0
  -21.0814   -8.8704   19.8917 H   0  0  0  0  0  0
  -22.3605  -10.9676   19.6152 H   0  0  0  0  0  0
  -21.2015   -7.6129   23.9642 H   0  0  0  0  0  0
  -21.1493   -6.0547   25.9064 H   0  0  0  0  0  0
  -22.0596   -2.7562   23.2842 H   0  0  0  0  0  0
  -22.4117  -11.9910   22.4851 H   0  0  0  0  0  0
  -21.1007  -13.1180   22.2569 H   0  0  0  0  0  0
  -24.6591  -15.8502   20.5467 H   0  0  0  0  0  0
  -26.2869  -15.6313   20.1294 H   0  0  0  0  0  0
  -26.7148  -32.5495   23.1070 H   0  0  0  0  0  0
  -25.0018  -33.9714   25.0429 H   0  0  0  0  0  0
  -22.7239  -31.3088   21.3960 H   0  0  0  0  0  0
  -23.3810  -35.9586   23.3297 H   0  0  0  0  0  0
  -24.3582  -36.8940   22.2059 H   0  0  0  0  0  0
  -23.7196  -37.6467   23.6668 H   0  0  0  0  0  0
  -26.1024  -31.5524   20.6276 H   0  0  0  0  0  0
  -26.8455  -30.8219   22.0187 H   0  0  0  0  0  0
  -28.1263  -28.9385   21.1997 H   0  0  0  0  0  0
  -25.9301  -25.9278   18.9893 H   0  0  0  0  0  0
  -23.9621  -27.3168   19.0062 H   0  0  0  0  0  0
  -23.7554  -30.5935   19.4029 H   0  0  0  0  0  0
  -22.7608  -29.2453   19.8719 H   0  0  0  0  0  0
  -25.1297  -36.2017   25.0819 H   0  0  0  0  0  0
  -20.9891  -28.3334   24.1395 H   0  0  0  0  0  0
  -20.5685  -26.2393   23.3586 H   0  0  0  0  0  0
  -21.6678  -26.7564   22.1195 H   0  0  0  0  0  0
  -19.6998  -25.6284   21.1309 H   0  0  0  0  0  0
  -19.6735  -27.3128   20.6614 H   0  0  0  0  0  0
  -17.4210  -26.6657   21.4018 H   0  0  0  0  0  0
  -18.0403  -26.0109   22.9003 H   0  0  0  0  0  0
  -19.7967  -30.7167   24.2444 H   0  0  0  0  0  0
  -17.5088  -31.6356   24.5066 H   0  0  0  0  0  0
  -15.5387  -30.3044   23.7671 H   0  0  0  0  0  0
  -15.8663  -28.0813   22.7180 H   0  0  0  0  0  0
  -24.5870  -30.7113   25.7624 H   0  0  0  0  0  0
  -24.8780  -32.2868   26.4831 H   0  0  0  0  0  0
  -25.7872  -30.8855   27.0198 H   0  0  0  0  0  0
  -26.2960  -29.6778   24.1287 H   0  0  0  0  0  0
  -27.4086  -29.7404   25.4779 H   0  0  0  0  0  0
  -27.8823  -30.4399   23.9478 H   0  0  0  0  0  0
  -27.2823  -33.3686   26.2038 H   0  0  0  0  0  0
  -28.3883  -32.6805   25.0260 H   0  0  0  0  0  0
  -28.0780  -31.8449   26.5363 H   0  0  0  0  0  0
  -28.2603  -38.0126   24.7561 H   0  0  0  0  0  0
  -28.1164  -36.2645   24.6265 H   0  0  0  0  0  0
  -27.2312  -37.1366   25.8860 H   0  0  0  0  0  0
  -20.9432  -29.8780   21.6799 H   0  0  0  0  0  0
  -26.0284  -38.2892   24.1373 H   0  0  0  0  0  0
  -32.1339  -16.2253   17.6729 H   0  0  0  0  0  0
  -31.7078  -14.5820   17.9648 H   0  0  0  0  0  0
  -29.2630  -15.2171   17.2063 H   0  0  0  0  0  0
  -30.5378  -15.1900   15.9760 H   0  0  0  0  0  0
  -31.6320  -16.4596   19.7613 H   0  0  0  0  0  0
  -30.9033  -18.1611   19.1286 H   0  0  0  0  0  0
  -28.2897  -17.4965   17.8753 H   0  0  0  0  0  0
  -31.4333  -19.7923   17.8995 H   0  0  0  0  0  0
  -30.6859  -20.9420   16.8133 H   0  0  0  0  0  0
  -31.2216  -19.3849   16.2118 H   0  0  0  0  0  0
  -27.4096  -19.2645   16.2537 H   0  0  0  0  0  0
  -28.8329  -19.2611   15.2216 H   0  0  0  0  0  0
  -28.3407  -20.7276   16.0304 H   0  0  0  0  0  0
  -31.1424  -18.3930   22.2772 H   0  0  0  0  0  0
  -31.4709  -20.0835   22.4195 H   0  0  0  0  0  0
  -31.9578  -19.2212   20.9561 H   0  0  0  0  0  0
  -26.6610  -22.4309   21.0190 H   0  0  0  0  0  0
  -27.8131  -21.8719   22.2325 H   0  0  0  0  0  0
  -27.2246  -20.7897   20.9723 H   0  0  0  0  0  0
  -29.1435  -17.5651   21.1812 H   0  0  0  0  0  0
  -28.2284  -18.4606   20.0614 H   0  0  0  0  0  0
  -29.3937  -23.9517   21.5056 H   0  0  0  0  0  0
  -30.0113  -23.9828   19.8926 H   0  0  0  0  0  0
  -30.4296  -21.0904   19.4406 H   0  0  0  0  0  0
  -30.6498  -21.6489   21.0205 H   0  0  0  0  0  0
  -27.1457  -24.7368   20.7202 H   0  0  0  0  0  0
  -27.7256  -24.7060   19.0636 H   0  0  0  0  0  0
  -28.9250  -19.9020   18.2023 H   0  0  0  0  0  0
  -29.1487  -19.7977   21.9135 H   0  0  0  0  0  0
  -28.3571  -22.1372   19.2557 H   0  0  0  0  0  0
  -29.2138  -17.1033   15.8901 H   0  0  0  0  0  0
  -30.7114  -17.5523   16.2849 H   0  0  0  0  0  0
  1 25  1  0  0  0
  1 30  2  0  0  0
  1 73  1  0  0  0
  2  3  1  0  0  0
  2 25  1  0  0  0
  2 88  1  0  0  0
  2 89  1  0  0  0
  3  4  1  0  0  0
  3 90  1  0  0  0
  3 91  1  0  0  0
  4  5  1  0  0  0
  4 92  1  0  0  0
  4 93  1  0  0  0
  5  6  1  0  0  0
  5 26  1  0  0  0
  5 94  1  0  0  0
  6 25  1  0  0  0
  6 95  1  0  0  0
  6 96  1  0  0  0
  7  8  2  0  0  0
  7 26  1  0  0  0
  7 29  1  0  0  0
  8  9  1  0  0  0
  8 22  1  0  0  0
  9 10  1  0  0  0
  9 27  2  0  0  0
 10 11  2  0  0  0
 10 15  1  0  0  0
 11 12  1  0  0  0
 11 97  1  0  0  0
 12 13  2  0  0  0
 12 98  1  0  0  0
 13 14  1  0  0  0
 13 31  1  0  0  0
 14 15  2  0  0  0
 14 99  1  0  0  0
 15100  1  0  0  0
 16 17  2  0  0  0
 16 21  1  0  0  0
 16 31  1  0  0  0
 17 18  1  0  0  0
 17101  1  0  0  0
 18 19  2  0  0  0
 18102  1  0  0  0
 19 20  1  0  0  0
 19 24  1  0  0  0
 20 21  2  0  0  0
 20103  1  0  0  0
 21 23  1  0  0  0
 22 28  1  0  0  0
 22 32  2  0  0  0
 26 27  1  0  0  0
 28104  1  0  0  0
 28105  1  0  0  0
 29106  1  0  0  0
 29107  1  0  0  0
 33 34  1  0  0  0
 33 66  1  0  0  0
 33 70  2  0  0  0
 34 36  1  0  0  0
 34 59  1  0  0  0
 34108  1  0  0  0
 35 44  2  0  0  0
 35 45  1  0  0  0
 35 68  1  0  0  0
 36 56  1  0  0  0
 36109  1  0  0  0
 37 39  1  0  0  0
 37 47  1  0  0  0
 37 66  1  0  0  0
 37110  1  0  0  0
 38 43  2  0  0  0
 38 46  1  0  0  0
 38 47  1  0  0  0
 39 64  1  0  0  0
 39 67  2  0  0  0
 40 52  1  0  0  0
 40 53  2  0  0  0
 40 58  1  0  0  0
 41111  1  0  0  0
 41112  1  0  0  0
 41113  1  0  0  0
 41 48  1  0  0  0
 42 43  1  0  0  0
 42 66  1  0  0  0
 42114  1  0  0  0
 42115  1  0  0  0
 43 44  1  0  0  0
 44116  1  0  0  0
 45 46  2  0  0  0
 45117  1  0  0  0
 46118  1  0  0  0
 47119  1  0  0  0
 47120  1  0  0  0
 48 56  1  0  0  0
 48 65  1  0  0  0
 48121  1  0  0  0
 49 50  1  0  0  0
 49 53  1  0  0  0
 49 64  1  0  0  0
 49122  1  0  0  0
 50 51  1  0  0  0
 50123  1  0  0  0
 50124  1  0  0  0
 51 52  1  0  0  0
 51125  1  0  0  0
 51126  1  0  0  0
 52127  1  0  0  0
 52128  1  0  0  0
 53 54  1  0  0  0
 54 55  2  0  0  0
 54129  1  0  0  0
 55 57  1  0  0  0
 55130  1  0  0  0
 56 69  2  0  0  0
 57 58  2  0  0  0
 57131  1  0  0  0
 58132  1  0  0  0
 59 60  1  0  0  0
 59 61  1  0  0  0
 59 62  1  0  0  0
 60133  1  0  0  0
 60134  1  0  0  0
 60135  1  0  0  0
 61136  1  0  0  0
 61137  1  0  0  0
 61138  1  0  0  0
 62139  1  0  0  0
 62140  1  0  0  0
 62141  1  0  0  0
 63 65  1  0  0  0
 63142  1  0  0  0
 63143  1  0  0  0
 63144  1  0  0  0
 64145  1  0  0  0
 65146  1  0  0  0
 68 83  1  0  0  0
 71 72  1  0  0  0
 71 73  1  0  0  0
 71147  1  0  0  0
 71148  1  0  0  0
 72 87  1  0  0  0
 72149  1  0  0  0
 72150  1  0  0  0
 73 74  1  0  0  0
 73151  1  0  0  0
 74 75  1  0  0  0
 74 80  1  0  0  0
 74152  1  0  0  0
 75 84  1  0  0  0
 75 87  1  0  0  0
 75153  1  0  0  0
 76154  1  0  0  0
 76155  1  0  0  0
 76156  1  0  0  0
 76 84  1  0  0  0
 77 84  1  0  0  0
 77157  1  0  0  0
 77158  1  0  0  0
 77159  1  0  0  0
 78160  1  0  0  0
 78161  1  0  0  0
 78162  1  0  0  0
 78 85  1  0  0  0
 79163  1  0  0  0
 79164  1  0  0  0
 79165  1  0  0  0
 79 86  1  0  0  0
 80 85  1  0  0  0
 80166  1  0  0  0
 80167  1  0  0  0
 81 83  1  0  0  0
 81 86  1  0  0  0
 81168  1  0  0  0
 81169  1  0  0  0
 82 85  1  0  0  0
 82 86  1  0  0  0
 82170  1  0  0  0
 82171  1  0  0  0
 83172  1  0  0  0
 83173  1  0  0  0
 84174  1  0  0  0
 85175  1  0  0  0
 86176  1  0  0  0
 87177  1  0  0  0
 87178  1  0  0  0
M  CHG  1  87   1
M  ISO  4   1 100  68 101  73 100  83 101
M  END
> <chiral flag>
0

> <version>
0

> <s_m_source_file>
/data/baiqing/PycharmProjects/Reinvent-master-3.2/result/LINK_invent/BTK/process_docking_weight1_custom_sum_contain_oxygen_bond_distance_aromatic_linkinvent_7_9_3/rearranged_h_0117.sdf

> <i_m_source_file_index>
63

> <r_mmod_Potential_Energy-OPLS-2005>
493.344329833984

> <r_mmod_Stretch_Energy-OPLS-2005>
146.943054199219

> <r_mmod_Bend_Energy-OPLS-2005>
358.28125

> <r_mmod_Torsional_Energy-OPLS-2005>
337.026336669922

> <r_mmod_Improper_Torsional_Energy-OPLS-2005>
33.4179229736328

> <r_mmod_Van_der_Waal_Energy-OPLS-2005>
138.100463867188

> <r_mmod_Electrostatic_Energy-OPLS-2005>
-236.989852905273

> <r_mmod_Solvation_Energy-OPLS-2005>
-429.10400390625

> <b_mmod_Minimization_Converged-OPLS-2005>
0

> <r_mmod_RMS_Derivative-OPLS-2005>
7.15317916870117

$$$$
64
                    3D
 Structure written by MMmdl.
159167  0  0  1  0            999 V2000
  -30.6334  -15.1306   20.4282 C   0  0  0  0  0  0
  -30.4287  -12.7448   19.5176 C   0  0  0  0  0  0
  -29.5163  -12.5623   18.2842 C   0  0  0  0  0  0
  -28.0736  -12.2980   18.7295 C   0  0  0  0  0  0
  -27.6161  -13.2810   19.8330 C   0  0  2  0  0  0
  -28.6615  -13.4935   20.9540 C   0  0  0  0  0  0
  -25.2411  -13.8284   20.5889 C   0  0  0  0  0  0
  -24.1773  -13.0484   20.9356 C   0  0  0  0  0  0
  -24.6401  -11.6946   20.8783 C   0  0  0  0  0  0
  -23.9101  -10.4304   21.0407 C   0  0  0  0  0  0
  -24.3616   -9.4183   21.9192 C   0  0  0  0  0  0
  -23.6228   -8.2253   22.0769 C   0  0  0  0  0  0
  -22.4221   -8.0281   21.3554 C   0  0  0  0  0  0
  -21.9889   -9.0288   20.4681 C   0  0  0  0  0  0
  -22.7258  -10.2145   20.3051 C   0  0  0  0  0  0
  -21.6854   -6.0689   22.5241 C   0  0  0  0  0  0
  -21.4057   -6.5606   23.8177 C   0  0  0  0  0  0
  -21.3672   -5.6775   24.9145 C   0  0  0  0  0  0
  -21.6009   -4.3034   24.7229 C   0  0  0  0  0  0
  -21.8801   -3.8101   23.4364 C   0  0  0  0  0  0
  -21.9202   -4.6912   22.3393 C   0  0  0  0  0  0
  -22.7781  -13.5204   21.1944 C   0  0  0  0  0  0
  -22.1639   -4.2075   21.0978 F   0  0  0  0  0  0
  -21.5630   -3.4525   25.7762 F   0  0  0  0  0  0
  -29.9199  -13.9143   20.3179 N   0  0  0  0  0  0
  -26.2861  -12.9568   20.3397 N   0  0  0  0  0  0
  -25.9373  -11.6672   20.5876 N   0  0  0  0  0  0
  -22.0438  -12.8162   22.0455 N   0  0  0  0  0  0
  -25.3991  -15.2052   20.4384 N   0  0  0  0  0  0
  -31.8474  -14.9945   20.2357 O   0  0  0  0  0  0
  -21.6611   -6.8838   21.4212 O   0  0  0  0  0  0
  -22.3432  -14.5489   20.6745 O   0  0  0  0  0  0
  -24.6453  -31.8372   23.1899 C   0  0  0  0  0  0
  -25.9201  -32.4691   23.8269 C   0  0  1  0  0  0
  -27.1887  -26.9950   20.2040 C   0  0  0  0  0  0
  -25.5974  -33.8525   24.2233 N   0  0  0  0  0  0
  -23.4573  -30.4559   21.5311 C   0  0  2  0  0  0
  -24.9173  -28.8721   20.1159 C   0  0  0  0  0  0
  -22.7573  -29.4464   22.4780 C   0  0  0  0  0  0
  -18.0222  -28.1497   22.8426 C   0  0  0  0  0  0
  -24.1503  -36.7267   23.2633 C   0  0  0  0  0  0
  -26.0197  -30.6612   21.4237 C   0  0  0  0  0  0
  -26.0882  -29.2558   20.7818 C   0  0  0  0  0  0
  -27.2113  -28.3276   20.8288 C   0  0  0  0  0  0
  -26.0311  -26.8089   19.4121 C   0  0  0  0  0  0
  -24.9113  -27.6678   19.4094 C   0  0  0  0  0  0
  -23.7062  -29.7958   20.1504 C   0  0  0  0  0  0
  -25.4111  -36.3016   24.0308 C   0  0  1  0  0  0
  -20.5825  -28.3857   23.1164 C   0  0  2  0  0  0
  -20.6629  -26.9549   22.5392 C   0  0  0  0  0  0
  -19.5603  -26.6444   21.5198 C   0  0  0  0  0  0
  -18.1807  -26.8021   22.1622 C   0  0  0  0  0  0
  -19.1456  -28.8994   23.2798 C   0  0  0  0  0  0
  -18.9336  -30.1566   23.8903 C   0  0  0  0  0  0
  -17.6302  -30.6618   24.0640 C   0  0  0  0  0  0
  -25.9054  -34.9416   23.5062 C   0  0  0  0  0  0
  -16.5234  -29.9099   23.6361 C   0  0  0  0  0  0
  -16.7202  -28.6571   23.0295 C   0  0  0  0  0  0
  -26.4603  -31.6525   25.0662 C   0  0  0  0  0  0
  -25.3779  -31.3677   26.1299 C   0  0  0  0  0  0
  -27.0476  -30.2898   24.6340 C   0  0  0  0  0  0
  -27.6150  -32.4269   25.7429 C   0  0  0  0  0  0
  -27.5566  -37.1777   24.8457 C   0  0  0  0  0  0
  -21.4238  -29.3147   22.3548 N   0  0  0  0  0  0
  -26.4276  -37.3713   23.9413 N   0  0  0  0  0  0
  -24.7266  -31.0074   22.1043 N   0  0  0  0  0  0
  -23.4129  -28.7907   23.2918 O   0  0  0  0  0  0
  -28.1934  -25.9155   20.2808 O   0  0  0  0  0  0
  -26.5575  -34.8891   22.4603 O   0  0  0  0  0  0
  -23.5538  -32.1320   23.7031 O   0  0  0  0  0  0
  -30.6083  -19.2981   20.3044 C   0  0  0  0  0  0
  -28.3802  -18.6683   20.3478 C   0  0  0  0  0  0
  -31.0272  -17.7409   20.6726 C   0  0  0  0  0  0
  -28.7359  -17.0934   20.7229 C   0  0  0  0  0  0
  -29.2405  -19.9591   20.8231 C   0  0  0  0  0  0
  -29.2890  -20.0418   22.3643 C   0  0  0  0  0  0
  -26.8167  -23.8133   19.4566 C   0  0  0  0  0  0
  -29.0055  -22.9533   20.6687 C   0  0  0  0  0  0
  -27.9251  -24.3087   20.4086 C   0  0  1  0  0  0
  -30.1165  -16.5067   20.5239 N   0  0  0  0  0  0
  -28.7121  -21.4002   20.2490 N   0  3  0  0  0  0
  -31.4539  -12.8846   19.1726 H   0  0  0  0  0  0
  -30.4574  -11.8482   20.1358 H   0  0  0  0  0  0
  -29.8735  -11.7430   17.6606 H   0  0  0  0  0  0
  -29.5469  -13.4586   17.6625 H   0  0  0  0  0  0
  -28.0204  -11.2744   19.1020 H   0  0  0  0  0  0
  -27.3888  -12.3485   17.8832 H   0  0  0  0  0  0
  -27.5226  -14.2391   19.3219 H   0  0  0  0  0  0
  -28.8016  -12.6043   21.5680 H   0  0  0  0  0  0
  -28.3281  -14.2807   21.6300 H   0  0  0  0  0  0
  -25.2795   -9.5594   22.4753 H   0  0  0  0  0  0
  -23.9924   -7.4626   22.7470 H   0  0  0  0  0  0
  -21.0832   -8.8824   19.8972 H   0  0  0  0  0  0
  -22.3756  -10.9671   19.6116 H   0  0  0  0  0  0
  -21.2067   -7.6125   23.9637 H   0  0  0  0  0  0
  -21.1514   -6.0545   25.9041 H   0  0  0  0  0  0
  -22.0570   -2.7560   23.2902 H   0  0  0  0  0  0
  -22.4138  -11.9897   22.4901 H   0  0  0  0  0  0
  -21.1021  -13.1078   22.2612 H   0  0  0  0  0  0
  -24.6258  -15.8476   20.5808 H   0  0  0  0  0  0
  -26.2533  -15.6624   20.1463 H   0  0  0  0  0  0
  -26.7196  -32.5320   23.0916 H   0  0  0  0  0  0
  -25.0295  -33.9709   25.0511 H   0  0  0  0  0  0
  -22.7539  -31.2767   21.3687 H   0  0  0  0  0  0
  -23.3749  -35.9609   23.3238 H   0  0  0  0  0  0
  -24.3649  -36.8945   22.2063 H   0  0  0  0  0  0
  -23.7281  -37.6472   23.6694 H   0  0  0  0  0  0
  -26.1803  -31.4006   20.6381 H   0  0  0  0  0  0
  -26.8908  -30.7387   22.0616 H   0  0  0  0  0  0
  -28.0742  -28.5954   21.4297 H   0  0  0  0  0  0
  -25.9578  -25.9766   18.7354 H   0  0  0  0  0  0
  -24.0443  -27.4082   18.8150 H   0  0  0  0  0  0
  -23.8984  -30.5799   19.4173 H   0  0  0  0  0  0
  -22.8142  -29.2659   19.8049 H   0  0  0  0  0  0
  -25.1299  -36.1811   25.0789 H   0  0  0  0  0  0
  -20.9895  -28.3481   24.1285 H   0  0  0  0  0  0
  -20.5323  -26.2585   23.3685 H   0  0  0  0  0  0
  -21.6520  -26.7458   22.1330 H   0  0  0  0  0  0
  -19.6684  -25.6294   21.1351 H   0  0  0  0  0  0
  -19.6468  -27.3175   20.6651 H   0  0  0  0  0  0
  -17.4013  -26.6803   21.4069 H   0  0  0  0  0  0
  -18.0229  -26.0187   22.9045 H   0  0  0  0  0  0
  -19.7781  -30.7439   24.2257 H   0  0  0  0  0  0
  -17.4804  -31.6258   24.5321 H   0  0  0  0  0  0
  -15.5204  -30.2955   23.7688 H   0  0  0  0  0  0
  -15.8639  -28.0947   22.6844 H   0  0  0  0  0  0
  -24.6008  -30.7013   25.7546 H   0  0  0  0  0  0
  -24.8903  -32.2827   26.4664 H   0  0  0  0  0  0
  -25.8021  -30.8829   27.0098 H   0  0  0  0  0  0
  -26.3134  -29.6528   24.1389 H   0  0  0  0  0  0
  -27.4080  -29.7290   25.4982 H   0  0  0  0  0  0
  -27.9053  -30.4071   23.9709 H   0  0  0  0  0  0
  -27.2841  -33.3624   26.1956 H   0  0  0  0  0  0
  -28.4002  -32.6737   25.0269 H   0  0  0  0  0  0
  -28.0790  -31.8392   26.5363 H   0  0  0  0  0  0
  -28.2515  -38.0131   24.7466 H   0  0  0  0  0  0
  -28.1098  -36.2629   24.6261 H   0  0  0  0  0  0
  -27.2280  -37.1408   25.8864 H   0  0  0  0  0  0
  -20.9431  -29.9083   21.6947 H   0  0  0  0  0  0
  -26.0099  -38.2776   24.1402 H   0  0  0  0  0  0
  -30.6362  -19.3953   19.2215 H   0  0  0  0  0  0
  -31.4370  -19.9211   20.6513 H   0  0  0  0  0  0
  -27.3415  -18.8267   20.6386 H   0  0  0  0  0  0
  -28.3539  -18.7200   19.2566 H   0  0  0  0  0  0
  -31.3356  -17.7431   21.7186 H   0  0  0  0  0  0
  -31.9457  -17.5469   20.1194 H   0  0  0  0  0  0
  -28.0636  -16.4468   20.1608 H   0  0  0  0  0  0
  -28.4862  -16.9282   21.7725 H   0  0  0  0  0  0
  -29.4655  -19.0644   22.8094 H   0  0  0  0  0  0
  -28.3606  -20.4298   22.7876 H   0  0  0  0  0  0
  -30.1004  -20.6892   22.7070 H   0  0  0  0  0  0
  -25.8435  -24.1958   19.7589 H   0  0  0  0  0  0
  -26.6714  -22.7368   19.5042 H   0  0  0  0  0  0
  -27.0269  -24.0598   18.4140 H   0  0  0  0  0  0
  -29.1886  -22.9444   21.7461 H   0  0  0  0  0  0
  -29.9822  -23.2073   20.2533 H   0  0  0  0  0  0
  -27.4076  -24.3055   21.3653 H   0  0  0  0  0  0
  -28.7790  -21.3608   19.2415 H   0  0  0  0  0  0
  -27.7240  -21.3399   20.4336 H   0  0  0  0  0  0
  1 25  1  0  0  0
  1 30  2  0  0  0
  1 80  1  0  0  0
  2  3  1  0  0  0
  2 25  1  0  0  0
  2 82  1  0  0  0
  2 83  1  0  0  0
  3  4  1  0  0  0
  3 84  1  0  0  0
  3 85  1  0  0  0
  4  5  1  0  0  0
  4 86  1  0  0  0
  4 87  1  0  0  0
  5  6  1  0  0  0
  5 26  1  0  0  0
  5 88  1  0  0  0
  6 25  1  0  0  0
  6 89  1  0  0  0
  6 90  1  0  0  0
  7  8  2  0  0  0
  7 26  1  0  0  0
  7 29  1  0  0  0
  8  9  1  0  0  0
  8 22  1  0  0  0
  9 10  1  0  0  0
  9 27  2  0  0  0
 10 11  2  0  0  0
 10 15  1  0  0  0
 11 12  1  0  0  0
 11 91  1  0  0  0
 12 13  2  0  0  0
 12 92  1  0  0  0
 13 14  1  0  0  0
 13 31  1  0  0  0
 14 15  2  0  0  0
 14 93  1  0  0  0
 15 94  1  0  0  0
 16 17  2  0  0  0
 16 21  1  0  0  0
 16 31  1  0  0  0
 17 18  1  0  0  0
 17 95  1  0  0  0
 18 19  2  0  0  0
 18 96  1  0  0  0
 19 20  1  0  0  0
 19 24  1  0  0  0
 20 21  2  0  0  0
 20 97  1  0  0  0
 21 23  1  0  0  0
 22 28  1  0  0  0
 22 32  2  0  0  0
 26 27  1  0  0  0
 28 98  1  0  0  0
 28 99  1  0  0  0
 29100  1  0  0  0
 29101  1  0  0  0
 33 34  1  0  0  0
 33 66  1  0  0  0
 33 70  2  0  0  0
 34 36  1  0  0  0
 34 59  1  0  0  0
 34102  1  0  0  0
 35 44  2  0  0  0
 35 45  1  0  0  0
 35 68  1  0  0  0
 36 56  1  0  0  0
 36103  1  0  0  0
 37 39  1  0  0  0
 37 47  1  0  0  0
 37 66  1  0  0  0
 37104  1  0  0  0
 38 43  2  0  0  0
 38 46  1  0  0  0
 38 47  1  0  0  0
 39 64  1  0  0  0
 39 67  2  0  0  0
 40 52  1  0  0  0
 40 53  2  0  0  0
 40 58  1  0  0  0
 41105  1  0  0  0
 41106  1  0  0  0
 41107  1  0  0  0
 41 48  1  0  0  0
 42 43  1  0  0  0
 42 66  1  0  0  0
 42108  1  0  0  0
 42109  1  0  0  0
 43 44  1  0  0  0
 44110  1  0  0  0
 45 46  2  0  0  0
 45111  1  0  0  0
 46112  1  0  0  0
 47113  1  0  0  0
 47114  1  0  0  0
 48 56  1  0  0  0
 48 65  1  0  0  0
 48115  1  0  0  0
 49 50  1  0  0  0
 49 53  1  0  0  0
 49 64  1  0  0  0
 49116  1  0  0  0
 50 51  1  0  0  0
 50117  1  0  0  0
 50118  1  0  0  0
 51 52  1  0  0  0
 51119  1  0  0  0
 51120  1  0  0  0
 52121  1  0  0  0
 52122  1  0  0  0
 53 54  1  0  0  0
 54 55  2  0  0  0
 54123  1  0  0  0
 55 57  1  0  0  0
 55124  1  0  0  0
 56 69  2  0  0  0
 57 58  2  0  0  0
 57125  1  0  0  0
 58126  1  0  0  0
 59 60  1  0  0  0
 59 61  1  0  0  0
 59 62  1  0  0  0
 60127  1  0  0  0
 60128  1  0  0  0
 60129  1  0  0  0
 61130  1  0  0  0
 61131  1  0  0  0
 61132  1  0  0  0
 62133  1  0  0  0
 62134  1  0  0  0
 62135  1  0  0  0
 63 65  1  0  0  0
 63136  1  0  0  0
 63137  1  0  0  0
 63138  1  0  0  0
 64139  1  0  0  0
 65140  1  0  0  0
 68 79  1  0  0  0
 71 73  1  0  0  0
 71 75  1  0  0  0
 71141  1  0  0  0
 71142  1  0  0  0
 72 74  1  0  0  0
 72 75  1  0  0  0
 72143  1  0  0  0
 72144  1  0  0  0
 73 80  1  0  0  0
 73145  1  0  0  0
 73146  1  0  0  0
 74 80  1  0  0  0
 74147  1  0  0  0
 74148  1  0  0  0
 75 76  1  0  0  0
 75 81  1  0  0  0
 76149  1  0  0  0
 76150  1  0  0  0
 76151  1  0  0  0
 77152  1  0  0  0
 77153  1  0  0  0
 77154  1  0  0  0
 77 79  1  0  0  0
 78 79  1  0  0  0
 78 81  1  0  0  0
 78155  1  0  0  0
 78156  1  0  0  0
 79157  1  0  0  0
 81158  1  0  0  0
 81159  1  0  0  0
M  CHG  1  81   1
M  ISO  4   1 100  68 101  79 101  80 100
M  END
> <chiral flag>
0

> <version>
0

> <s_m_source_file>
/data/baiqing/PycharmProjects/Reinvent-master-3.2/result/LINK_invent/BTK/process_docking_weight1_custom_sum_contain_oxygen_bond_distance_aromatic_linkinvent_7_9_3/rearranged_h_0117.sdf

> <i_m_source_file_index>
64

> <r_mmod_Potential_Energy-OPLS-2005>
1050.40014648438

> <r_mmod_Stretch_Energy-OPLS-2005>
408.459655761719

> <r_mmod_Bend_Energy-OPLS-2005>
443.998504638672

> <r_mmod_Torsional_Energy-OPLS-2005>
347.261749267578

> <r_mmod_Improper_Torsional_Energy-OPLS-2005>
4.74365997314453

> <r_mmod_Van_der_Waal_Energy-OPLS-2005>
128.088455200195

> <r_mmod_Electrostatic_Energy-OPLS-2005>
-187.481506347656

> <r_mmod_Solvation_Energy-OPLS-2005>
-447.082061767578

> <b_mmod_Minimization_Converged-OPLS-2005>
0

> <r_mmod_RMS_Derivative-OPLS-2005>
8.17274570465088

$$$$
65
                    3D
 Structure written by MMmdl.
169177  0  0  1  0            999 V2000
  -30.6090  -14.7470   20.4495 C   0  0  0  0  0  0
  -30.4345  -12.4592   19.4591 C   0  0  0  0  0  0
  -29.5063  -12.4992   18.2259 C   0  0  0  0  0  0
  -28.0337  -12.3230   18.6458 C   0  0  0  0  0  0
  -27.6390  -13.2303   19.8418 C   0  0  2  0  0  0
  -28.6865  -13.1696   20.9740 C   0  0  0  0  0  0
  -25.2505  -13.8196   20.5680 C   0  0  0  0  0  0
  -24.1798  -13.0442   20.9215 C   0  0  0  0  0  0
  -24.6383  -11.6919   20.8745 C   0  0  0  0  0  0
  -23.9065  -10.4293   21.0407 C   0  0  0  0  0  0
  -24.3613   -9.4201   21.9186 C   0  0  0  0  0  0
  -23.6287   -8.2234   22.0749 C   0  0  0  0  0  0
  -22.4271   -8.0267   21.3534 C   0  0  0  0  0  0
  -21.9909   -9.0245   20.4638 C   0  0  0  0  0  0
  -22.7239  -10.2128   20.3051 C   0  0  0  0  0  0
  -21.6859   -6.0725   22.5271 C   0  0  0  0  0  0
  -21.4010   -6.5628   23.8208 C   0  0  0  0  0  0
  -21.3660   -5.6781   24.9169 C   0  0  0  0  0  0
  -21.6052   -4.3050   24.7229 C   0  0  0  0  0  0
  -21.8818   -3.8135   23.4353 C   0  0  0  0  0  0
  -21.9193   -4.6945   22.3401 C   0  0  0  0  0  0
  -22.7822  -13.5221   21.1881 C   0  0  0  0  0  0
  -22.1661   -4.2130   21.0983 F   0  0  0  0  0  0
  -21.5635   -3.4535   25.7747 F   0  0  0  0  0  0
  -29.9839  -13.5222   20.3846 N   0  0  0  0  0  0
  -26.2922  -12.9401   20.3250 N   0  0  0  0  0  0
  -25.9312  -11.6549   20.5736 N   0  0  0  0  0  0
  -22.0463  -12.8197   22.0428 N   0  0  0  0  0  0
  -25.4208  -15.1917   20.4064 N   0  0  0  0  0  0
  -31.8057  -14.8428   20.1675 O   0  0  0  0  0  0
  -21.6638   -6.8866   21.4233 O   0  0  0  0  0  0
  -22.3498  -14.5525   20.6732 O   0  0  0  0  0  0
  -24.6356  -31.8541   23.1957 C   0  0  0  0  0  0
  -25.9184  -32.4751   23.8291 C   0  0  1  0  0  0
  -27.2173  -27.2576   20.1088 C   0  0  0  0  0  0
  -25.5994  -33.8545   24.2266 N   0  0  0  0  0  0
  -23.4288  -30.4808   21.5376 C   0  0  2  0  0  0
  -24.8706  -28.9253   20.1057 C   0  0  0  0  0  0
  -22.7522  -29.4618   22.4867 C   0  0  0  0  0  0
  -18.0315  -28.1430   22.8459 C   0  0  0  0  0  0
  -24.1492  -36.7230   23.2634 C   0  0  0  0  0  0
  -25.9755  -30.7672   21.3720 C   0  0  0  0  0  0
  -26.0447  -29.3887   20.7117 C   0  0  0  0  0  0
  -27.2155  -28.5664   20.7035 C   0  0  0  0  0  0
  -26.0062  -26.8495   19.5007 C   0  0  0  0  0  0
  -24.8557  -27.6632   19.4959 C   0  0  0  0  0  0
  -23.6451  -29.8185   20.1518 C   0  0  0  0  0  0
  -25.4115  -36.3044   24.0338 C   0  0  1  0  0  0
  -20.5920  -28.3724   23.1248 C   0  0  2  0  0  0
  -20.6797  -26.9428   22.5412 C   0  0  0  0  0  0
  -19.5787  -26.6424   21.5194 C   0  0  0  0  0  0
  -18.1960  -26.7990   22.1593 C   0  0  0  0  0  0
  -19.1567  -28.8892   23.2856 C   0  0  0  0  0  0
  -18.9500  -30.1494   23.8878 C   0  0  0  0  0  0
  -17.6493  -30.6620   24.0581 C   0  0  0  0  0  0
  -25.9062  -34.9432   23.5096 C   0  0  0  0  0  0
  -16.5378  -29.9121   23.6350 C   0  0  0  0  0  0
  -16.7301  -28.6543   23.0360 C   0  0  0  0  0  0
  -26.4536  -31.6594   25.0692 C   0  0  0  0  0  0
  -25.3744  -31.3776   26.1406 C   0  0  0  0  0  0
  -27.0394  -30.3028   24.6169 C   0  0  0  0  0  0
  -27.6104  -32.4314   25.7459 C   0  0  0  0  0  0
  -27.5588  -37.1755   24.8452 C   0  0  0  0  0  0
  -21.4215  -29.3063   22.3626 N   0  0  0  0  0  0
  -26.4268  -37.3769   23.9438 N   0  0  0  0  0  0
  -24.6991  -31.0528   22.0907 N   0  0  0  0  0  0
  -23.4216  -28.8160   23.2962 O   0  0  0  0  0  0
  -28.3291  -26.3854   20.1801 O   0  0  0  0  0  0
  -26.5597  -34.8907   22.4640 O   0  0  0  0  0  0
  -23.5517  -32.1373   23.7272 O   0  0  0  0  0  0
  -28.5044  -23.6595   20.0953 C   0  0  0  0  0  0
  -28.7109  -22.4857   19.3687 C   0  0  0  0  0  0
  -27.9553  -18.7371   20.5075 C   0  0  0  0  0  0
  -29.8611  -20.0976   20.2360 C   0  0  0  0  0  0
  -29.4205  -18.5631   20.0787 C   0  0  1  0  0  0
  -27.4700  -20.1169   19.9356 C   0  0  1  0  0  0
  -28.3087  -23.6650   21.5995 C   0  0  0  0  0  0
  -28.9613  -22.5271   17.8663 C   0  0  0  0  0  0
  -25.4897  -21.7754   19.8697 C   0  0  0  0  0  0
  -25.2832  -19.7353   21.2723 C   0  0  0  0  0  0
  -28.4408  -25.1028   19.4052 C   0  0  0  0  0  0
  -30.2572  -17.3503   20.7671 C   0  0  0  0  0  0
  -26.2922  -20.7728   20.7285 C   0  0  0  0  0  0
  -29.8314  -15.8833   20.6281 N   0  0  0  0  0  0
  -28.7074  -20.9450   19.7409 N   0  3  1  0  0  0
  -31.4714  -12.5966   19.1481 H   0  0  0  0  0  0
  -30.3936  -11.4848   19.9484 H   0  0  0  0  0  0
  -29.7870  -11.7186   17.5179 H   0  0  0  0  0  0
  -29.6302  -13.4470   17.7001 H   0  0  0  0  0  0
  -27.8952  -11.2773   18.9215 H   0  0  0  0  0  0
  -27.3722  -12.5033   17.7968 H   0  0  0  0  0  0
  -27.6307  -14.2493   19.4540 H   0  0  0  0  0  0
  -28.7261  -12.1727   21.4152 H   0  0  0  0  0  0
  -28.4233  -13.8541   21.7825 H   0  0  0  0  0  0
  -25.2760   -9.5672   22.4759 H   0  0  0  0  0  0
  -24.0000   -7.4619   22.7460 H   0  0  0  0  0  0
  -21.0852   -8.8751   19.8939 H   0  0  0  0  0  0
  -22.3696  -10.9651   19.6147 H   0  0  0  0  0  0
  -21.1993   -7.6133   23.9695 H   0  0  0  0  0  0
  -21.1488   -6.0520   25.9072 H   0  0  0  0  0  0
  -22.0601   -2.7597   23.2860 H   0  0  0  0  0  0
  -22.4066  -11.9835   22.4785 H   0  0  0  0  0  0
  -21.1075  -13.1212   22.2639 H   0  0  0  0  0  0
  -24.6533  -15.8462   20.5103 H   0  0  0  0  0  0
  -26.2593  -15.6201   20.0385 H   0  0  0  0  0  0
  -26.7236  -32.5366   23.1013 H   0  0  0  0  0  0
  -25.0255  -33.9660   25.0491 H   0  0  0  0  0  0
  -22.7274  -31.3053   21.3938 H   0  0  0  0  0  0
  -23.3794  -35.9517   23.3257 H   0  0  0  0  0  0
  -24.3598  -36.8903   22.2059 H   0  0  0  0  0  0
  -23.7204  -37.6410   23.6646 H   0  0  0  0  0  0
  -26.1199  -31.5293   20.6032 H   0  0  0  0  0  0
  -26.8528  -30.8102   22.0054 H   0  0  0  0  0  0
  -28.1149  -28.9216   21.1881 H   0  0  0  0  0  0
  -25.8969  -25.8734   19.0558 H   0  0  0  0  0  0
  -23.9471  -27.2968   19.0358 H   0  0  0  0  0  0
  -23.7720  -30.5958   19.3967 H   0  0  0  0  0  0
  -22.7600  -29.2573   19.8459 H   0  0  0  0  0  0
  -25.1307  -36.1860   25.0834 H   0  0  0  0  0  0
  -21.0023  -28.3314   24.1361 H   0  0  0  0  0  0
  -20.5687  -26.2330   23.3623 H   0  0  0  0  0  0
  -21.6668  -26.7449   22.1203 H   0  0  0  0  0  0
  -19.6924  -25.6325   21.1252 H   0  0  0  0  0  0
  -19.6757  -27.3203   20.6691 H   0  0  0  0  0  0
  -17.4237  -26.6753   21.3978 H   0  0  0  0  0  0
  -18.0320  -26.0146   22.9001 H   0  0  0  0  0  0
  -19.7967  -30.7326   24.2238 H   0  0  0  0  0  0
  -17.5045  -31.6275   24.5226 H   0  0  0  0  0  0
  -15.5384  -30.3035   23.7663 H   0  0  0  0  0  0
  -15.8699  -28.0869   22.7086 H   0  0  0  0  0  0
  -24.5939  -30.7096   25.7752 H   0  0  0  0  0  0
  -24.8878  -32.2946   26.4730 H   0  0  0  0  0  0
  -25.8066  -30.9052   27.0238 H   0  0  0  0  0  0
  -26.2977  -29.6755   24.1212 H   0  0  0  0  0  0
  -27.4152  -29.7329   25.4680 H   0  0  0  0  0  0
  -27.8817  -30.4360   23.9374 H   0  0  0  0  0  0
  -27.2762  -33.3663   26.1958 H   0  0  0  0  0  0
  -28.3937  -32.6804   25.0285 H   0  0  0  0  0  0
  -28.0698  -31.8465   26.5432 H   0  0  0  0  0  0
  -28.2556  -38.0110   24.7625 H   0  0  0  0  0  0
  -28.1166  -36.2664   24.6131 H   0  0  0  0  0  0
  -27.2328  -37.1236   25.8859 H   0  0  0  0  0  0
  -20.9396  -29.8819   21.6856 H   0  0  0  0  0  0
  -26.0156  -38.2828   24.1540 H   0  0  0  0  0  0
  -27.9215  -18.7464   21.5980 H   0  0  0  0  0  0
  -27.3271  -17.9137   20.1644 H   0  0  0  0  0  0
  -30.7728  -20.3117   19.6779 H   0  0  0  0  0  0
  -30.0542  -20.3454   21.2805 H   0  0  0  0  0  0
  -29.4250  -18.3493   19.0080 H   0  0  0  0  0  0
  -27.1079  -19.9203   18.9254 H   0  0  0  0  0  0
  -28.4377  -22.6742   22.0319 H   0  0  0  0  0  0
  -27.3129  -24.0282   21.8549 H   0  0  0  0  0  0
  -29.0398  -24.3213   22.0735 H   0  0  0  0  0  0
  -29.9285  -22.9856   17.6575 H   0  0  0  0  0  0
  -28.1964  -23.1167   17.3625 H   0  0  0  0  0  0
  -28.9612  -21.5416   17.3987 H   0  0  0  0  0  0
  -26.0865  -22.6135   19.5200 H   0  0  0  0  0  0
  -24.6631  -22.2046   20.4378 H   0  0  0  0  0  0
  -25.0579  -21.2950   18.9893 H   0  0  0  0  0  0
  -25.7297  -19.0685   22.0082 H   0  0  0  0  0  0
  -24.8626  -19.1212   20.4751 H   0  0  0  0  0  0
  -24.4462  -20.2216   21.7750 H   0  0  0  0  0  0
  -27.7224  -25.0608   18.5886 H   0  0  0  0  0  0
  -29.3896  -25.2031   18.8763 H   0  0  0  0  0  0
  -30.3000  -17.5487   21.8387 H   0  0  0  0  0  0
  -31.2922  -17.4288   20.4294 H   0  0  0  0  0  0
  -26.6967  -21.2917   21.5962 H   0  0  0  0  0  0
  -28.8504  -15.7012   20.7757 H   0  0  0  0  0  0
  -28.8396  -20.6130   18.7979 H   0  0  0  0  0  0
  1 25  1  0  0  0
  1 30  2  0  0  0
  1 84  1  0  0  0
  2  3  1  0  0  0
  2 25  1  0  0  0
  2 86  1  0  0  0
  2 87  1  0  0  0
  3  4  1  0  0  0
  3 88  1  0  0  0
  3 89  1  0  0  0
  4  5  1  0  0  0
  4 90  1  0  0  0
  4 91  1  0  0  0
  5  6  1  0  0  0
  5 26  1  0  0  0
  5 92  1  0  0  0
  6 25  1  0  0  0
  6 93  1  0  0  0
  6 94  1  0  0  0
  7  8  2  0  0  0
  7 26  1  0  0  0
  7 29  1  0  0  0
  8  9  1  0  0  0
  8 22  1  0  0  0
  9 10  1  0  0  0
  9 27  2  0  0  0
 10 11  2  0  0  0
 10 15  1  0  0  0
 11 12  1  0  0  0
 11 95  1  0  0  0
 12 13  2  0  0  0
 12 96  1  0  0  0
 13 14  1  0  0  0
 13 31  1  0  0  0
 14 15  2  0  0  0
 14 97  1  0  0  0
 15 98  1  0  0  0
 16 17  2  0  0  0
 16 21  1  0  0  0
 16 31  1  0  0  0
 17 18  1  0  0  0
 17 99  1  0  0  0
 18 19  2  0  0  0
 18100  1  0  0  0
 19 20  1  0  0  0
 19 24  1  0  0  0
 20 21  2  0  0  0
 20101  1  0  0  0
 21 23  1  0  0  0
 22 28  1  0  0  0
 22 32  2  0  0  0
 26 27  1  0  0  0
 28102  1  0  0  0
 28103  1  0  0  0
 29104  1  0  0  0
 29105  1  0  0  0
 33 34  1  0  0  0
 33 66  1  0  0  0
 33 70  2  0  0  0
 34 36  1  0  0  0
 34 59  1  0  0  0
 34106  1  0  0  0
 35 44  2  0  0  0
 35 45  1  0  0  0
 35 68  1  0  0  0
 36 56  1  0  0  0
 36107  1  0  0  0
 37 39  1  0  0  0
 37 47  1  0  0  0
 37 66  1  0  0  0
 37108  1  0  0  0
 38 43  2  0  0  0
 38 46  1  0  0  0
 38 47  1  0  0  0
 39 64  1  0  0  0
 39 67  2  0  0  0
 40 52  1  0  0  0
 40 53  2  0  0  0
 40 58  1  0  0  0
 41109  1  0  0  0
 41110  1  0  0  0
 41111  1  0  0  0
 41 48  1  0  0  0
 42 43  1  0  0  0
 42 66  1  0  0  0
 42112  1  0  0  0
 42113  1  0  0  0
 43 44  1  0  0  0
 44114  1  0  0  0
 45 46  2  0  0  0
 45115  1  0  0  0
 46116  1  0  0  0
 47117  1  0  0  0
 47118  1  0  0  0
 48 56  1  0  0  0
 48 65  1  0  0  0
 48119  1  0  0  0
 49 50  1  0  0  0
 49 53  1  0  0  0
 49 64  1  0  0  0
 49120  1  0  0  0
 50 51  1  0  0  0
 50121  1  0  0  0
 50122  1  0  0  0
 51 52  1  0  0  0
 51123  1  0  0  0
 51124  1  0  0  0
 52125  1  0  0  0
 52126  1  0  0  0
 53 54  1  0  0  0
 54 55  2  0  0  0
 54127  1  0  0  0
 55 57  1  0  0  0
 55128  1  0  0  0
 56 69  2  0  0  0
 57 58  2  0  0  0
 57129  1  0  0  0
 58130  1  0  0  0
 59 60  1  0  0  0
 59 61  1  0  0  0
 59 62  1  0  0  0
 60131  1  0  0  0
 60132  1  0  0  0
 60133  1  0  0  0
 61134  1  0  0  0
 61135  1  0  0  0
 61136  1  0  0  0
 62137  1  0  0  0
 62138  1  0  0  0
 62139  1  0  0  0
 63 65  1  0  0  0
 63140  1  0  0  0
 63141  1  0  0  0
 63142  1  0  0  0
 64143  1  0  0  0
 65144  1  0  0  0
 68 81  1  0  0  0
 71 72  2  0  0  0
 71 77  1  0  0  0
 71 81  1  0  0  0
 72 78  1  0  0  0
 72 85  1  0  0  0
 73 75  1  0  0  0
 73145  1  0  0  0
 73146  1  0  0  0
 73 76  1  0  0  0
 74 75  1  0  0  0
 74 85  1  0  0  0
 74147  1  0  0  0
 74148  1  0  0  0
 75 82  1  0  0  0
 75149  1  0  0  0
 76 83  1  0  0  0
 76 85  1  0  0  0
 76150  1  0  0  0
 77151  1  0  0  0
 77152  1  0  0  0
 77153  1  0  0  0
 78154  1  0  0  0
 78155  1  0  0  0
 78156  1  0  0  0
 79157  1  0  0  0
 79158  1  0  0  0
 79159  1  0  0  0
 79 83  1  0  0  0
 80 83  1  0  0  0
 80160  1  0  0  0
 80161  1  0  0  0
 80162  1  0  0  0
 81163  1  0  0  0
 81164  1  0  0  0
 82 84  1  0  0  0
 82165  1  0  0  0
 82166  1  0  0  0
 83167  1  0  0  0
 84168  1  0  0  0
 85169  1  0  0  0
M  CHG  1  85   1
M  ISO  4   1 100  68 101  81 101  84 100
M  END
> <chiral flag>
0

> <version>
0

> <s_m_source_file>
/data/baiqing/PycharmProjects/Reinvent-master-3.2/result/LINK_invent/BTK/process_docking_weight1_custom_sum_contain_oxygen_bond_distance_aromatic_linkinvent_7_9_3/rearranged_h_0117.sdf

> <i_m_source_file_index>
65

> <r_mmod_Potential_Energy-OPLS-2005>
217.935424804688

> <r_mmod_Stretch_Energy-OPLS-2005>
128.824432373047

> <r_mmod_Bend_Energy-OPLS-2005>
282.784301757812

> <r_mmod_Torsional_Energy-OPLS-2005>
270.895660400391

> <r_mmod_Improper_Torsional_Energy-OPLS-2005>
4.91053819656372

> <r_mmod_Van_der_Waal_Energy-OPLS-2005>
111.202156066895

> <r_mmod_Electrostatic_Energy-OPLS-2005>
-226.437362670898

> <r_mmod_Solvation_Energy-OPLS-2005>
-441.688354492188

> <b_mmod_Minimization_Converged-OPLS-2005>
0

> <r_mmod_RMS_Derivative-OPLS-2005>
3.0595269203186

$$$$
66
                    3D
 Structure written by MMmdl.
169177  0  0  1  0            999 V2000
  -30.6066  -14.7190   20.5053 C   0  0  0  0  0  0
  -30.4526  -12.4580   19.4368 C   0  0  0  0  0  0
  -29.5110  -12.5195   18.2139 C   0  0  0  0  0  0
  -28.0376  -12.3366   18.6325 C   0  0  0  0  0  0
  -27.6522  -13.2191   19.8503 C   0  0  2  0  0  0
  -28.7049  -13.1069   20.9760 C   0  0  0  0  0  0
  -25.2574  -13.8147   20.5709 C   0  0  0  0  0  0
  -24.1860  -13.0423   20.9224 C   0  0  0  0  0  0
  -24.6438  -11.6890   20.8758 C   0  0  0  0  0  0
  -23.9079  -10.4281   21.0408 C   0  0  0  0  0  0
  -24.3618   -9.4185   21.9182 C   0  0  0  0  0  0
  -23.6281   -8.2235   22.0763 C   0  0  0  0  0  0
  -22.4255   -8.0290   21.3569 C   0  0  0  0  0  0
  -21.9886   -9.0256   20.4658 C   0  0  0  0  0  0
  -22.7241  -10.2122   20.3051 C   0  0  0  0  0  0
  -21.6841   -6.0730   22.5292 C   0  0  0  0  0  0
  -21.4026   -6.5636   23.8224 C   0  0  0  0  0  0
  -21.3643   -5.6796   24.9178 C   0  0  0  0  0  0
  -21.6028   -4.3053   24.7239 C   0  0  0  0  0  0
  -21.8823   -3.8153   23.4365 C   0  0  0  0  0  0
  -21.9190   -4.6953   22.3418 C   0  0  0  0  0  0
  -22.7868  -13.5201   21.1805 C   0  0  0  0  0  0
  -22.1659   -4.2140   21.0997 F   0  0  0  0  0  0
  -21.5588   -3.4541   25.7756 F   0  0  0  0  0  0
  -30.0051  -13.4860   20.4011 N   0  0  0  0  0  0
  -26.3014  -12.9351   20.3277 N   0  0  0  0  0  0
  -25.9364  -11.6506   20.5761 N   0  0  0  0  0  0
  -22.0462  -12.8265   22.0356 N   0  0  0  0  0  0
  -25.4190  -15.1892   20.4159 N   0  0  0  0  0  0
  -31.7882  -14.8757   20.1866 O   0  0  0  0  0  0
  -21.6624   -6.8879   21.4268 O   0  0  0  0  0  0
  -22.3583  -14.5495   20.6592 O   0  0  0  0  0  0
  -24.6301  -31.8544   23.1990 C   0  0  0  0  0  0
  -25.9128  -32.4758   23.8304 C   0  0  1  0  0  0
  -27.2396  -27.2757   20.1360 C   0  0  0  0  0  0
  -25.5931  -33.8560   24.2223 N   0  0  0  0  0  0
  -23.4257  -30.4807   21.5429 C   0  0  2  0  0  0
  -24.8766  -28.9246   20.1143 C   0  0  0  0  0  0
  -22.7471  -29.4626   22.4914 C   0  0  0  0  0  0
  -18.0287  -28.1403   22.8496 C   0  0  0  0  0  0
  -24.1483  -36.7287   23.2645 C   0  0  0  0  0  0
  -25.9711  -30.7751   21.3739 C   0  0  0  0  0  0
  -26.0474  -29.3967   20.7210 C   0  0  0  0  0  0
  -27.2297  -28.5885   20.7181 C   0  0  0  0  0  0
  -26.0417  -26.8711   19.4987 C   0  0  0  0  0  0
  -24.8787  -27.6683   19.4914 C   0  0  0  0  0  0
  -23.6453  -29.8111   20.1604 C   0  0  0  0  0  0
  -25.4114  -36.3077   24.0331 C   0  0  1  0  0  0
  -20.5886  -28.3701   23.1278 C   0  0  2  0  0  0
  -20.6781  -26.9421   22.5412 C   0  0  0  0  0  0
  -19.5751  -26.6392   21.5229 C   0  0  0  0  0  0
  -18.1931  -26.7946   22.1636 C   0  0  0  0  0  0
  -19.1538  -28.8877   23.2889 C   0  0  0  0  0  0
  -18.9460  -30.1486   23.8892 C   0  0  0  0  0  0
  -17.6458  -30.6606   24.0581 C   0  0  0  0  0  0
  -25.9062  -34.9454   23.5081 C   0  0  0  0  0  0
  -16.5353  -29.9099   23.6342 C   0  0  0  0  0  0
  -16.7275  -28.6527   23.0346 C   0  0  0  0  0  0
  -26.4498  -31.6581   25.0681 C   0  0  0  0  0  0
  -25.3722  -31.3730   26.1398 C   0  0  0  0  0  0
  -27.0339  -30.3005   24.6148 C   0  0  0  0  0  0
  -27.6054  -32.4309   25.7459 C   0  0  0  0  0  0
  -27.5576  -37.1793   24.8465 C   0  0  0  0  0  0
  -21.4180  -29.3050   22.3659 N   0  0  0  0  0  0
  -26.4277  -37.3779   23.9425 N   0  0  0  0  0  0
  -24.6949  -31.0536   22.0955 N   0  0  0  0  0  0
  -23.4190  -28.8154   23.2993 O   0  0  0  0  0  0
  -28.3553  -26.4001   20.1802 O   0  0  0  0  0  0
  -26.5635  -34.8937   22.4651 O   0  0  0  0  0  0
  -23.5458  -32.1333   23.7326 O   0  0  0  0  0  0
  -30.1604  -20.8296   17.9581 C   0  0  0  0  0  0
  -30.7902  -21.3339   19.0174 C   0  0  0  0  0  0
  -28.9624  -20.0208   18.3901 C   0  0  0  0  0  0
  -29.9974  -21.0097   20.2709 C   0  0  1  0  0  0
  -33.2536  -21.2218   19.6048 C   0  0  0  0  0  0
  -32.5223  -22.6639   17.6746 C   0  0  0  0  0  0
  -28.4960  -22.0645   22.0780 C   0  0  0  0  0  0
  -29.3247  -23.8229   20.3542 C   0  0  0  0  0  0
  -29.9415  -17.2899   21.0556 C   0  0  0  0  0  0
  -29.9923  -18.3134   19.8255 C   0  0  0  0  0  0
  -28.1264  -24.9182   20.3167 C   0  0  0  0  0  0
  -32.1168  -22.0981   19.0493 C   0  0  0  0  0  0
  -28.9744  -22.2495   20.6237 C   0  0  1  0  0  0
  -29.7793  -15.7864   20.7920 N   0  0  0  0  0  0
  -29.2935  -19.7079   19.8208 N   0  3  2  0  0  0
  -31.4871  -12.6130   19.1214 H   0  0  0  0  0  0
  -30.4246  -11.4712   19.8979 H   0  0  0  0  0  0
  -29.7956  -11.7557   17.4867 H   0  0  0  0  0  0
  -29.6307  -13.4822   17.7138 H   0  0  0  0  0  0
  -27.8934  -11.2847   18.8794 H   0  0  0  0  0  0
  -27.3753  -12.5460   17.7907 H   0  0  0  0  0  0
  -27.6544  -14.2489   19.4899 H   0  0  0  0  0  0
  -28.7487  -12.0879   21.3656 H   0  0  0  0  0  0
  -28.4435  -13.7430   21.8226 H   0  0  0  0  0  0
  -25.2727   -9.5653   22.4783 H   0  0  0  0  0  0
  -23.9975   -7.4620   22.7483 H   0  0  0  0  0  0
  -21.0807   -8.8767   19.8981 H   0  0  0  0  0  0
  -22.3676  -10.9667   19.6175 H   0  0  0  0  0  0
  -21.2059   -7.6150   23.9731 H   0  0  0  0  0  0
  -21.1436   -6.0519   25.9075 H   0  0  0  0  0  0
  -22.0621   -2.7623   23.2872 H   0  0  0  0  0  0
  -22.4059  -11.9984   22.4885 H   0  0  0  0  0  0
  -21.1077  -13.1344   22.2450 H   0  0  0  0  0  0
  -24.6436  -15.8294   20.5411 H   0  0  0  0  0  0
  -26.2502  -15.6372   20.0576 H   0  0  0  0  0  0
  -26.7183  -32.5423   23.1047 H   0  0  0  0  0  0
  -25.0061  -33.9663   25.0359 H   0  0  0  0  0  0
  -22.7218  -31.3038   21.3989 H   0  0  0  0  0  0
  -23.3754  -35.9610   23.3293 H   0  0  0  0  0  0
  -24.3571  -36.8908   22.2057 H   0  0  0  0  0  0
  -23.7205  -37.6477   23.6667 H   0  0  0  0  0  0
  -26.1009  -31.5329   20.5999 H   0  0  0  0  0  0
  -26.8546  -30.8293   21.9992 H   0  0  0  0  0  0
  -28.1217  -28.9588   21.2023 H   0  0  0  0  0  0
  -25.9711  -25.9190   18.9984 H   0  0  0  0  0  0
  -23.9872  -27.2985   19.0049 H   0  0  0  0  0  0
  -23.7664  -30.5884   19.4051 H   0  0  0  0  0  0
  -22.7632  -29.2450   19.8531 H   0  0  0  0  0  0
  -25.1295  -36.1920   25.0818 H   0  0  0  0  0  0
  -20.9993  -28.3300   24.1398 H   0  0  0  0  0  0
  -20.5688  -26.2316   23.3618 H   0  0  0  0  0  0
  -21.6651  -26.7453   22.1211 H   0  0  0  0  0  0
  -19.6902  -25.6299   21.1262 H   0  0  0  0  0  0
  -19.6706  -27.3211   20.6769 H   0  0  0  0  0  0
  -17.4198  -26.6704   21.4035 H   0  0  0  0  0  0
  -18.0339  -26.0098   22.9036 H   0  0  0  0  0  0
  -19.7939  -30.7325   24.2229 H   0  0  0  0  0  0
  -17.5011  -31.6282   24.5184 H   0  0  0  0  0  0
  -15.5346  -30.3000   23.7686 H   0  0  0  0  0  0
  -15.8677  -28.0866   22.7022 H   0  0  0  0  0  0
  -24.5923  -30.7044   25.7725 H   0  0  0  0  0  0
  -24.8898  -32.2900   26.4779 H   0  0  0  0  0  0
  -25.8046  -30.8932   27.0185 H   0  0  0  0  0  0
  -26.2902  -29.6744   24.1197 H   0  0  0  0  0  0
  -27.4050  -29.7268   25.4647 H   0  0  0  0  0  0
  -27.8771  -30.4282   23.9362 H   0  0  0  0  0  0
  -27.2673  -33.3634   26.1993 H   0  0  0  0  0  0
  -28.3907  -32.6800   25.0309 H   0  0  0  0  0  0
  -28.0670  -31.8436   26.5403 H   0  0  0  0  0  0
  -28.2595  -38.0089   24.7543 H   0  0  0  0  0  0
  -28.1060  -36.2621   24.6263 H   0  0  0  0  0  0
  -27.2300  -37.1429   25.8867 H   0  0  0  0  0  0
  -20.9344  -29.8759   21.6874 H   0  0  0  0  0  0
  -26.0156  -38.2850   24.1434 H   0  0  0  0  0  0
  -30.4695  -20.9120   16.9270 H   0  0  0  0  0  0
  -28.8232  -19.1608   17.7377 H   0  0  0  0  0  0
  -28.0570  -20.6233   18.3010 H   0  0  0  0  0  0
  -30.6736  -20.8031   21.1020 H   0  0  0  0  0  0
  -33.0357  -20.8537   20.6083 H   0  0  0  0  0  0
  -34.1889  -21.7814   19.6674 H   0  0  0  0  0  0
  -33.4413  -20.3536   18.9699 H   0  0  0  0  0  0
  -31.7721  -23.3508   17.2867 H   0  0  0  0  0  0
  -32.6743  -21.8753   16.9376 H   0  0  0  0  0  0
  -33.4556  -23.2234   17.7409 H   0  0  0  0  0  0
  -29.3168  -22.1955   22.7863 H   0  0  0  0  0  0
  -28.0903  -21.0649   22.2383 H   0  0  0  0  0  0
  -27.7056  -22.7655   22.3468 H   0  0  0  0  0  0
  -30.0697  -24.1416   21.0851 H   0  0  0  0  0  0
  -29.8200  -23.8990   19.3863 H   0  0  0  0  0  0
  -30.8321  -17.4341   21.6679 H   0  0  0  0  0  0
  -29.1095  -17.5754   21.7024 H   0  0  0  0  0  0
  -29.5104  -17.7204   19.0507 H   0  0  0  0  0  0
  -31.0207  -18.4257   19.4804 H   0  0  0  0  0  0
  -27.4841  -24.5843   19.5033 H   0  0  0  0  0  0
  -27.5365  -24.7952   21.2251 H   0  0  0  0  0  0
  -31.9941  -22.9444   19.7259 H   0  0  0  0  0  0
  -28.0958  -22.0952   20.0009 H   0  0  0  0  0  0
  -28.8315  -15.4733   20.9434 H   0  0  0  0  0  0
  -28.4288  -19.6082   20.3308 H   0  0  0  0  0  0
  1 25  1  0  0  0
  1 30  2  0  0  0
  1 84  1  0  0  0
  2  3  1  0  0  0
  2 25  1  0  0  0
  2 86  1  0  0  0
  2 87  1  0  0  0
  3  4  1  0  0  0
  3 88  1  0  0  0
  3 89  1  0  0  0
  4  5  1  0  0  0
  4 90  1  0  0  0
  4 91  1  0  0  0
  5  6  1  0  0  0
  5 26  1  0  0  0
  5 92  1  0  0  0
  6 25  1  0  0  0
  6 93  1  0  0  0
  6 94  1  0  0  0
  7  8  2  0  0  0
  7 26  1  0  0  0
  7 29  1  0  0  0
  8  9  1  0  0  0
  8 22  1  0  0  0
  9 10  1  0  0  0
  9 27  2  0  0  0
 10 11  2  0  0  0
 10 15  1  0  0  0
 11 12  1  0  0  0
 11 95  1  0  0  0
 12 13  2  0  0  0
 12 96  1  0  0  0
 13 14  1  0  0  0
 13 31  1  0  0  0
 14 15  2  0  0  0
 14 97  1  0  0  0
 15 98  1  0  0  0
 16 17  2  0  0  0
 16 21  1  0  0  0
 16 31  1  0  0  0
 17 18  1  0  0  0
 17 99  1  0  0  0
 18 19  2  0  0  0
 18100  1  0  0  0
 19 20  1  0  0  0
 19 24  1  0  0  0
 20 21  2  0  0  0
 20101  1  0  0  0
 21 23  1  0  0  0
 22 28  1  0  0  0
 22 32  2  0  0  0
 26 27  1  0  0  0
 28102  1  0  0  0
 28103  1  0  0  0
 29104  1  0  0  0
 29105  1  0  0  0
 33 34  1  0  0  0
 33 66  1  0  0  0
 33 70  2  0  0  0
 34 36  1  0  0  0
 34 59  1  0  0  0
 34106  1  0  0  0
 35 44  2  0  0  0
 35 45  1  0  0  0
 35 68  1  0  0  0
 36 56  1  0  0  0
 36107  1  0  0  0
 37 39  1  0  0  0
 37 47  1  0  0  0
 37 66  1  0  0  0
 37108  1  0  0  0
 38 43  2  0  0  0
 38 46  1  0  0  0
 38 47  1  0  0  0
 39 64  1  0  0  0
 39 67  2  0  0  0
 40 52  1  0  0  0
 40 53  2  0  0  0
 40 58  1  0  0  0
 41109  1  0  0  0
 41110  1  0  0  0
 41111  1  0  0  0
 41 48  1  0  0  0
 42 43  1  0  0  0
 42 66  1  0  0  0
 42112  1  0  0  0
 42113  1  0  0  0
 43 44  1  0  0  0
 44114  1  0  0  0
 45 46  2  0  0  0
 45115  1  0  0  0
 46116  1  0  0  0
 47117  1  0  0  0
 47118  1  0  0  0
 48 56  1  0  0  0
 48 65  1  0  0  0
 48119  1  0  0  0
 49 50  1  0  0  0
 49 53  1  0  0  0
 49 64  1  0  0  0
 49120  1  0  0  0
 50 51  1  0  0  0
 50121  1  0  0  0
 50122  1  0  0  0
 51 52  1  0  0  0
 51123  1  0  0  0
 51124  1  0  0  0
 52125  1  0  0  0
 52126  1  0  0  0
 53 54  1  0  0  0
 54 55  2  0  0  0
 54127  1  0  0  0
 55 57  1  0  0  0
 55128  1  0  0  0
 56 69  2  0  0  0
 57 58  2  0  0  0
 57129  1  0  0  0
 58130  1  0  0  0
 59 60  1  0  0  0
 59 61  1  0  0  0
 59 62  1  0  0  0
 60131  1  0  0  0
 60132  1  0  0  0
 60133  1  0  0  0
 61134  1  0  0  0
 61135  1  0  0  0
 61136  1  0  0  0
 62137  1  0  0  0
 62138  1  0  0  0
 62139  1  0  0  0
 63 65  1  0  0  0
 63140  1  0  0  0
 63141  1  0  0  0
 63142  1  0  0  0
 64143  1  0  0  0
 65144  1  0  0  0
 68 81  1  0  0  0
 71 72  2  0  0  0
 71 73  1  0  0  0
 71145  1  0  0  0
 72 82  1  0  0  0
 72 74  1  0  0  0
 73 85  1  0  0  0
 73146  1  0  0  0
 73147  1  0  0  0
 74 83  1  0  0  0
 74 85  1  0  0  0
 74148  1  0  0  0
 75149  1  0  0  0
 75150  1  0  0  0
 75151  1  0  0  0
 75 82  1  0  0  0
 76 82  1  0  0  0
 76152  1  0  0  0
 76153  1  0  0  0
 76154  1  0  0  0
 77155  1  0  0  0
 77156  1  0  0  0
 77157  1  0  0  0
 77 83  1  0  0  0
 78 81  1  0  0  0
 78 83  1  0  0  0
 78158  1  0  0  0
 78159  1  0  0  0
 79 80  1  0  0  0
 79 84  1  0  0  0
 79160  1  0  0  0
 79161  1  0  0  0
 80162  1  0  0  0
 80163  1  0  0  0
 80 85  1  0  0  0
 81164  1  0  0  0
 81165  1  0  0  0
 82166  1  0  0  0
 83167  1  0  0  0
 84168  1  0  0  0
 85169  1  0  0  0
M  CHG  1  85   1
M  ISO  4   1 100  68 101  81 101  84 100
M  END
> <chiral flag>
0

> <version>
0

> <s_m_source_file>
/data/baiqing/PycharmProjects/Reinvent-master-3.2/result/LINK_invent/BTK/process_docking_weight1_custom_sum_contain_oxygen_bond_distance_aromatic_linkinvent_7_9_3/rearranged_h_0117.sdf

> <i_m_source_file_index>
66

> <r_mmod_Potential_Energy-OPLS-2005>
170.053344726562

> <r_mmod_Stretch_Energy-OPLS-2005>
137.50910949707

> <r_mmod_Bend_Energy-OPLS-2005>
270.596435546875

> <r_mmod_Torsional_Energy-OPLS-2005>
269.066284179688

> <r_mmod_Improper_Torsional_Energy-OPLS-2005>
4.2870626449585

> <r_mmod_Van_der_Waal_Energy-OPLS-2005>
118.780387878418

> <r_mmod_Electrostatic_Energy-OPLS-2005>
-260.037628173828

> <r_mmod_Solvation_Energy-OPLS-2005>
-444.118865966797

> <b_mmod_Minimization_Converged-OPLS-2005>
0

> <r_mmod_RMS_Derivative-OPLS-2005>
3.60265111923218

$$$$
67
                    3D
 Structure written by MMmdl.
162170  0  0  1  0            999 V2000
  -30.6569  -14.8399   20.4668 C   0  0  0  0  0  0
  -30.4190  -12.5278   19.4846 C   0  0  0  0  0  0
  -29.5023  -12.5077   18.2408 C   0  0  0  0  0  0
  -28.0439  -12.2953   18.6827 C   0  0  0  0  0  0
  -27.6346  -13.2368   19.8485 C   0  0  2  0  0  0
  -28.6879  -13.2252   20.9814 C   0  0  0  0  0  0
  -25.2489  -13.8197   20.5740 C   0  0  0  0  0  0
  -24.1791  -13.0393   20.9227 C   0  0  0  0  0  0
  -24.6404  -11.6903   20.8755 C   0  0  0  0  0  0
  -23.9106  -10.4258   21.0397 C   0  0  0  0  0  0
  -24.3645   -9.4177   21.9168 C   0  0  0  0  0  0
  -23.6290   -8.2231   22.0742 C   0  0  0  0  0  0
  -22.4274   -8.0283   21.3544 C   0  0  0  0  0  0
  -21.9930   -9.0261   20.4647 C   0  0  0  0  0  0
  -22.7285  -10.2118   20.3044 C   0  0  0  0  0  0
  -21.6877   -6.0752   22.5281 C   0  0  0  0  0  0
  -21.4050   -6.5650   23.8212 C   0  0  0  0  0  0
  -21.3645   -5.6797   24.9162 C   0  0  0  0  0  0
  -21.6008   -4.3058   24.7214 C   0  0  0  0  0  0
  -21.8809   -3.8165   23.4336 C   0  0  0  0  0  0
  -21.9185   -4.6981   22.3396 C   0  0  0  0  0  0
  -22.7826  -13.5168   21.1875 C   0  0  0  0  0  0
  -22.1662   -4.2170   21.0974 F   0  0  0  0  0  0
  -21.5596   -3.4534   25.7725 F   0  0  0  0  0  0
  -29.9571  -13.6408   20.3676 N   0  0  0  0  0  0
  -26.2921  -12.9421   20.3317 N   0  0  0  0  0  0
  -25.9332  -11.6558   20.5771 N   0  0  0  0  0  0
  -22.0522  -12.8134   22.0440 N   0  0  0  0  0  0
  -25.4049  -15.1911   20.4178 N   0  0  0  0  0  0
  -31.8573  -14.7850   20.1772 O   0  0  0  0  0  0
  -21.6627   -6.8901   21.4248 O   0  0  0  0  0  0
  -22.3503  -14.5468   20.6754 O   0  0  0  0  0  0
  -24.6387  -31.8557   23.1940 C   0  0  0  0  0  0
  -25.9215  -32.4754   23.8269 C   0  0  1  0  0  0
  -27.2050  -27.2103   20.1504 C   0  0  0  0  0  0
  -25.5998  -33.8545   24.2220 N   0  0  0  0  0  0
  -23.4352  -30.4823   21.5360 C   0  0  2  0  0  0
  -24.8879  -28.9361   20.0972 C   0  0  0  0  0  0
  -22.7548  -29.4634   22.4824 C   0  0  0  0  0  0
  -18.0379  -28.1397   22.8539 C   0  0  0  0  0  0
  -24.1489  -36.7252   23.2624 C   0  0  0  0  0  0
  -25.9877  -30.7593   21.3812 C   0  0  0  0  0  0
  -26.0630  -29.3819   20.7167 C   0  0  0  0  0  0
  -27.2267  -28.5341   20.7328 C   0  0  0  0  0  0
  -26.0226  -26.8777   19.4508 C   0  0  0  0  0  0
  -24.8779  -27.6940   19.4516 C   0  0  0  0  0  0
  -23.6610  -29.8269   20.1493 C   0  0  0  0  0  0
  -25.4117  -36.3045   24.0315 C   0  0  1  0  0  0
  -20.5967  -28.3736   23.1253 C   0  0  2  0  0  0
  -20.6882  -26.9449   22.5384 C   0  0  0  0  0  0
  -19.5799  -26.6408   21.5238 C   0  0  0  0  0  0
  -18.2017  -26.7934   22.1704 C   0  0  0  0  0  0
  -19.1618  -28.8893   23.2912 C   0  0  0  0  0  0
  -18.9504  -30.1494   23.8898 C   0  0  0  0  0  0
  -17.6493  -30.6625   24.0553 C   0  0  0  0  0  0
  -25.9082  -34.9435   23.5068 C   0  0  0  0  0  0
  -16.5407  -29.9101   23.6304 C   0  0  0  0  0  0
  -16.7350  -28.6505   23.0375 C   0  0  0  0  0  0
  -26.4553  -31.6557   25.0662 C   0  0  0  0  0  0
  -25.3709  -31.3786   26.1333 C   0  0  0  0  0  0
  -27.0413  -30.2940   24.6219 C   0  0  0  0  0  0
  -27.6113  -32.4248   25.7452 C   0  0  0  0  0  0
  -27.5566  -37.1793   24.8466 C   0  0  0  0  0  0
  -21.4262  -29.3060   22.3574 N   0  0  0  0  0  0
  -26.4282  -37.3753   23.9411 N   0  0  0  0  0  0
  -24.7068  -31.0494   22.0924 N   0  0  0  0  0  0
  -23.4222  -28.8223   23.2990 O   0  0  0  0  0  0
  -28.2182  -26.2078   20.3073 O   0  0  0  0  0  0
  -26.5629  -34.8932   22.4619 O   0  0  0  0  0  0
  -23.5537  -32.1418   23.7213 O   0  0  0  0  0  0
  -30.2731  -18.7966   19.9509 C   0  0  0  0  0  0
  -28.2025  -18.0005   20.8211 C   0  0  0  0  0  0
  -30.9262  -17.3790   20.3428 C   0  0  0  0  0  0
  -28.8682  -16.6245   21.2867 C   0  0  0  0  0  0
  -29.0853  -19.3193   20.8297 C   0  0  0  0  0  0
  -26.7124  -24.5561   21.3885 C   0  0  0  0  0  0
  -27.1865  -20.9668   21.3081 C   0  0  0  0  0  0
  -28.8938  -23.4758   20.6652 C   0  0  0  0  0  0
  -29.0380  -21.9690   19.9633 C   0  0  0  0  0  0
  -27.8381  -24.7103   20.3268 C   0  0  1  0  0  0
  -30.0676  -16.1419   20.5398 N   0  0  0  0  0  0
  -28.3384  -20.6532   20.4283 N   0  3  1  0  0  0
  -31.4628  -12.6156   19.1781 H   0  0  0  0  0  0
  -30.3593  -11.5761   20.0151 H   0  0  0  0  0  0
  -29.8112  -11.7202   17.5487 H   0  0  0  0  0  0
  -29.5798  -13.4508   17.6960 H   0  0  0  0  0  0
  -27.9569  -11.2595   19.0135 H   0  0  0  0  0  0
  -27.3641  -12.3914   17.8364 H   0  0  0  0  0  0
  -27.6111  -14.2429   19.4297 H   0  0  0  0  0  0
  -28.7719  -12.2234   21.4068 H   0  0  0  0  0  0
  -28.4113  -13.8643   21.8186 H   0  0  0  0  0  0
  -25.2793   -9.5607   22.4751 H   0  0  0  0  0  0
  -23.9972   -7.4616   22.7461 H   0  0  0  0  0  0
  -21.0861   -8.8813   19.8970 H   0  0  0  0  0  0
  -22.3771  -10.9661   19.6156 H   0  0  0  0  0  0
  -21.2125   -7.6175   23.9729 H   0  0  0  0  0  0
  -21.1453   -6.0537   25.9058 H   0  0  0  0  0  0
  -22.0602   -2.7639   23.2836 H   0  0  0  0  0  0
  -22.4243  -11.9824   22.4792 H   0  0  0  0  0  0
  -21.1133  -13.1116   22.2649 H   0  0  0  0  0  0
  -24.6350  -15.8259   20.5943 H   0  0  0  0  0  0
  -26.2194  -15.6558   20.0367 H   0  0  0  0  0  0
  -26.7282  -32.5421   23.1002 H   0  0  0  0  0  0
  -25.0158  -33.9654   25.0379 H   0  0  0  0  0  0
  -22.7335  -31.3072   21.3910 H   0  0  0  0  0  0
  -23.3750  -35.9583   23.3296 H   0  0  0  0  0  0
  -24.3599  -36.8867   22.2040 H   0  0  0  0  0  0
  -23.7267  -37.6470   23.6636 H   0  0  0  0  0  0
  -26.1344  -31.5250   20.6192 H   0  0  0  0  0  0
  -26.8577  -30.8051   22.0218 H   0  0  0  0  0  0
  -28.1114  -28.8695   21.2517 H   0  0  0  0  0  0
  -25.9234  -25.9244   18.9533 H   0  0  0  0  0  0
  -23.9811  -27.3463   18.9581 H   0  0  0  0  0  0
  -23.8009  -30.6111   19.4036 H   0  0  0  0  0  0
  -22.7742  -29.2786   19.8259 H   0  0  0  0  0  0
  -25.1304  -36.1857   25.0806 H   0  0  0  0  0  0
  -21.0125  -28.3328   24.1334 H   0  0  0  0  0  0
  -20.5931  -26.2293   23.3573 H   0  0  0  0  0  0
  -21.6706  -26.7601   22.1032 H   0  0  0  0  0  0
  -19.6961  -25.6325   21.1242 H   0  0  0  0  0  0
  -19.6666  -27.3225   20.6759 H   0  0  0  0  0  0
  -17.4253  -26.6691   21.4151 H   0  0  0  0  0  0
  -18.0474  -26.0109   22.9134 H   0  0  0  0  0  0
  -19.7970  -30.7373   24.2226 H   0  0  0  0  0  0
  -17.5033  -31.6318   24.5108 H   0  0  0  0  0  0
  -15.5408  -30.2999   23.7563 H   0  0  0  0  0  0
  -15.8792  -28.0782   22.7066 H   0  0  0  0  0  0
  -24.5900  -30.7128   25.7640 H   0  0  0  0  0  0
  -24.8876  -32.2996   26.4581 H   0  0  0  0  0  0
  -25.7957  -30.9067   27.0196 H   0  0  0  0  0  0
  -26.3045  -29.6645   24.1215 H   0  0  0  0  0  0
  -27.4028  -29.7256   25.4804 H   0  0  0  0  0  0
  -27.8947  -30.4160   23.9547 H   0  0  0  0  0  0
  -27.2754  -33.3556   26.2013 H   0  0  0  0  0  0
  -28.3958  -32.6768   25.0303 H   0  0  0  0  0  0
  -28.0728  -31.8346   26.5369 H   0  0  0  0  0  0
  -28.2606  -38.0063   24.7482 H   0  0  0  0  0  0
  -28.1049  -36.2606   24.6323 H   0  0  0  0  0  0
  -27.2296  -37.1489   25.8874 H   0  0  0  0  0  0
  -20.9464  -29.8740   21.6726 H   0  0  0  0  0  0
  -26.0150  -38.2833   24.1376 H   0  0  0  0  0  0
  -29.9557  -18.7496   18.9080 H   0  0  0  0  0  0
  -31.0642  -19.5463   19.9764 H   0  0  0  0  0  0
  -27.3133  -18.1283   21.4364 H   0  0  0  0  0  0
  -27.8222  -17.8432   19.8109 H   0  0  0  0  0  0
  -31.4902  -17.5160   21.2704 H   0  0  0  0  0  0
  -31.6878  -17.1799   19.5849 H   0  0  0  0  0  0
  -28.0859  -15.8770   21.2705 H   0  0  0  0  0  0
  -29.1637  -16.7188   22.3322 H   0  0  0  0  0  0
  -29.4517  -19.4776   21.8447 H   0  0  0  0  0  0
  -26.1333  -23.6517   21.2266 H   0  0  0  0  0  0
  -25.9783  -25.3549   21.4178 H   0  0  0  0  0  0
  -27.1269  -24.5230   22.3974 H   0  0  0  0  0  0
  -26.6152  -20.0996   21.6240 H   0  0  0  0  0  0
  -26.4839  -21.5932   20.7621 H   0  0  0  0  0  0
  -27.5050  -21.5050   22.1992 H   0  0  0  0  0  0
  -29.8670  -23.9206   20.4624 H   0  0  0  0  0  0
  -28.9327  -23.3297   21.7455 H   0  0  0  0  0  0
  -30.1034  -21.7373   19.9816 H   0  0  0  0  0  0
  -28.8158  -22.0677   18.8992 H   0  0  0  0  0  0
  -27.4514  -24.4971   19.3291 H   0  0  0  0  0  0
  -27.8774  -20.3656   19.5776 H   0  0  0  0  0  0
  1 25  1  0  0  0
  1 30  2  0  0  0
  1 81  1  0  0  0
  2  3  1  0  0  0
  2 25  1  0  0  0
  2 83  1  0  0  0
  2 84  1  0  0  0
  3  4  1  0  0  0
  3 85  1  0  0  0
  3 86  1  0  0  0
  4  5  1  0  0  0
  4 87  1  0  0  0
  4 88  1  0  0  0
  5  6  1  0  0  0
  5 26  1  0  0  0
  5 89  1  0  0  0
  6 25  1  0  0  0
  6 90  1  0  0  0
  6 91  1  0  0  0
  7  8  2  0  0  0
  7 26  1  0  0  0
  7 29  1  0  0  0
  8  9  1  0  0  0
  8 22  1  0  0  0
  9 10  1  0  0  0
  9 27  2  0  0  0
 10 11  2  0  0  0
 10 15  1  0  0  0
 11 12  1  0  0  0
 11 92  1  0  0  0
 12 13  2  0  0  0
 12 93  1  0  0  0
 13 14  1  0  0  0
 13 31  1  0  0  0
 14 15  2  0  0  0
 14 94  1  0  0  0
 15 95  1  0  0  0
 16 17  2  0  0  0
 16 21  1  0  0  0
 16 31  1  0  0  0
 17 18  1  0  0  0
 17 96  1  0  0  0
 18 19  2  0  0  0
 18 97  1  0  0  0
 19 20  1  0  0  0
 19 24  1  0  0  0
 20 21  2  0  0  0
 20 98  1  0  0  0
 21 23  1  0  0  0
 22 28  1  0  0  0
 22 32  2  0  0  0
 26 27  1  0  0  0
 28 99  1  0  0  0
 28100  1  0  0  0
 29101  1  0  0  0
 29102  1  0  0  0
 33 34  1  0  0  0
 33 66  1  0  0  0
 33 70  2  0  0  0
 34 36  1  0  0  0
 34 59  1  0  0  0
 34103  1  0  0  0
 35 44  2  0  0  0
 35 45  1  0  0  0
 35 68  1  0  0  0
 36 56  1  0  0  0
 36104  1  0  0  0
 37 39  1  0  0  0
 37 47  1  0  0  0
 37 66  1  0  0  0
 37105  1  0  0  0
 38 43  2  0  0  0
 38 46  1  0  0  0
 38 47  1  0  0  0
 39 64  1  0  0  0
 39 67  2  0  0  0
 40 52  1  0  0  0
 40 53  2  0  0  0
 40 58  1  0  0  0
 41106  1  0  0  0
 41107  1  0  0  0
 41108  1  0  0  0
 41 48  1  0  0  0
 42 43  1  0  0  0
 42 66  1  0  0  0
 42109  1  0  0  0
 42110  1  0  0  0
 43 44  1  0  0  0
 44111  1  0  0  0
 45 46  2  0  0  0
 45112  1  0  0  0
 46113  1  0  0  0
 47114  1  0  0  0
 47115  1  0  0  0
 48 56  1  0  0  0
 48 65  1  0  0  0
 48116  1  0  0  0
 49 50  1  0  0  0
 49 53  1  0  0  0
 49 64  1  0  0  0
 49117  1  0  0  0
 50 51  1  0  0  0
 50118  1  0  0  0
 50119  1  0  0  0
 51 52  1  0  0  0
 51120  1  0  0  0
 51121  1  0  0  0
 52122  1  0  0  0
 52123  1  0  0  0
 53 54  1  0  0  0
 54 55  2  0  0  0
 54124  1  0  0  0
 55 57  1  0  0  0
 55125  1  0  0  0
 56 69  2  0  0  0
 57 58  2  0  0  0
 57126  1  0  0  0
 58127  1  0  0  0
 59 60  1  0  0  0
 59 61  1  0  0  0
 59 62  1  0  0  0
 60128  1  0  0  0
 60129  1  0  0  0
 60130  1  0  0  0
 61131  1  0  0  0
 61132  1  0  0  0
 61133  1  0  0  0
 62134  1  0  0  0
 62135  1  0  0  0
 62136  1  0  0  0
 63 65  1  0  0  0
 63137  1  0  0  0
 63138  1  0  0  0
 63139  1  0  0  0
 64140  1  0  0  0
 65141  1  0  0  0
 68 80  1  0  0  0
 71 73  1  0  0  0
 71142  1  0  0  0
 71143  1  0  0  0
 71 75  1  0  0  0
 72 74  1  0  0  0
 72 75  1  0  0  0
 72144  1  0  0  0
 72145  1  0  0  0
 73 81  1  0  0  0
 73146  1  0  0  0
 73147  1  0  0  0
 74 81  1  0  0  0
 74148  1  0  0  0
 74149  1  0  0  0
 75 82  1  0  0  0
 75150  1  0  0  0
 76151  1  0  0  0
 76152  1  0  0  0
 76153  1  0  0  0
 76 80  1  0  0  0
 77154  1  0  0  0
 77155  1  0  0  0
 77156  1  0  0  0
 77 82  1  0  0  0
 78 79  1  0  0  0
 78 80  1  0  0  0
 78157  1  0  0  0
 78158  1  0  0  0
 79 82  1  0  0  0
 79159  1  0  0  0
 79160  1  0  0  0
 80161  1  0  0  0
 82162  1  0  0  0
M  CHG  1  82   1
M  ISO  4   1 100  68 101  80 101  81 100
M  END
> <chiral flag>
0

> <version>
0

> <s_m_source_file>
/data/baiqing/PycharmProjects/Reinvent-master-3.2/result/LINK_invent/BTK/process_docking_weight1_custom_sum_contain_oxygen_bond_distance_aromatic_linkinvent_7_9_3/rearranged_h_0117.sdf

> <i_m_source_file_index>
67

> <r_mmod_Potential_Energy-OPLS-2005>
542.238464355469

> <r_mmod_Stretch_Energy-OPLS-2005>
198.13151550293

> <r_mmod_Bend_Energy-OPLS-2005>
307.782165527344

> <r_mmod_Torsional_Energy-OPLS-2005>
336.267669677734

> <r_mmod_Improper_Torsional_Energy-OPLS-2005>
10.695481300354

> <r_mmod_Van_der_Waal_Energy-OPLS-2005>
143.893112182617

> <r_mmod_Electrostatic_Energy-OPLS-2005>
-149.793746948242

> <r_mmod_Solvation_Energy-OPLS-2005>
-443.992218017578

> <b_mmod_Minimization_Converged-OPLS-2005>
0

> <r_mmod_RMS_Derivative-OPLS-2005>
5.99527215957642

$$$$
68
                    3D
 Structure written by MMmdl.
171179  0  0  1  0            999 V2000
  -30.5801  -14.6759   20.4418 C   0  0  0  0  0  0
  -30.4316  -12.3946   19.4560 C   0  0  0  0  0  0
  -29.5015  -12.4969   18.2245 C   0  0  0  0  0  0
  -28.0251  -12.3395   18.6391 C   0  0  0  0  0  0
  -27.6482  -13.2163   19.8615 C   0  0  2  0  0  0
  -28.6955  -13.0832   20.9910 C   0  0  0  0  0  0
  -25.2547  -13.8163   20.5717 C   0  0  0  0  0  0
  -24.1846  -13.0436   20.9226 C   0  0  0  0  0  0
  -24.6413  -11.6890   20.8774 C   0  0  0  0  0  0
  -23.9074  -10.4294   21.0427 C   0  0  0  0  0  0
  -24.3628   -9.4200   21.9197 C   0  0  0  0  0  0
  -23.6311   -8.2230   22.0752 C   0  0  0  0  0  0
  -22.4287   -8.0287   21.3541 C   0  0  0  0  0  0
  -21.9925   -9.0254   20.4634 C   0  0  0  0  0  0
  -22.7251  -10.2138   20.3061 C   0  0  0  0  0  0
  -21.6846   -6.0746   22.5284 C   0  0  0  0  0  0
  -21.3998   -6.5645   23.8214 C   0  0  0  0  0  0
  -21.3665   -5.6801   24.9177 C   0  0  0  0  0  0
  -21.6042   -4.3063   24.7222 C   0  0  0  0  0  0
  -21.8823   -3.8158   23.4341 C   0  0  0  0  0  0
  -21.9194   -4.6977   22.3405 C   0  0  0  0  0  0
  -22.7865  -13.5202   21.1905 C   0  0  0  0  0  0
  -22.1667   -4.2169   21.0978 F   0  0  0  0  0  0
  -21.5642   -3.4543   25.7729 F   0  0  0  0  0  0
  -30.0028  -13.4317   20.4210 N   0  0  0  0  0  0
  -26.2977  -12.9345   20.3326 N   0  0  0  0  0  0
  -25.9331  -11.6493   20.5768 N   0  0  0  0  0  0
  -22.0519  -12.8160   22.0436 N   0  0  0  0  0  0
  -25.4253  -15.1900   20.4117 N   0  0  0  0  0  0
  -31.7391  -14.8438   20.0521 O   0  0  0  0  0  0
  -21.6633   -6.8894   21.4248 O   0  0  0  0  0  0
  -22.3531  -14.5518   20.6776 O   0  0  0  0  0  0
  -24.6336  -31.8565   23.1920 C   0  0  0  0  0  0
  -25.9157  -32.4781   23.8267 C   0  0  1  0  0  0
  -27.2115  -27.2641   20.1041 C   0  0  0  0  0  0
  -25.5918  -33.8569   24.2219 N   0  0  0  0  0  0
  -23.4241  -30.4789   21.5427 C   0  0  2  0  0  0
  -24.8657  -28.9336   20.0938 C   0  0  0  0  0  0
  -22.7472  -29.4608   22.4922 C   0  0  0  0  0  0
  -18.0291  -28.1412   22.8464 C   0  0  0  0  0  0
  -24.1487  -36.7302   23.2641 C   0  0  0  0  0  0
  -25.9690  -30.7720   21.3619 C   0  0  0  0  0  0
  -26.0382  -29.3930   20.7063 C   0  0  0  0  0  0
  -27.2113  -28.5720   20.6979 C   0  0  0  0  0  0
  -26.0156  -26.8797   19.4537 C   0  0  0  0  0  0
  -24.8647  -27.6887   19.4484 C   0  0  0  0  0  0
  -23.6306  -29.8135   20.1575 C   0  0  0  0  0  0
  -25.4126  -36.3093   24.0319 C   0  0  1  0  0  0
  -20.5884  -28.3687   23.1277 C   0  0  2  0  0  0
  -20.6763  -26.9406   22.5394 C   0  0  0  0  0  0
  -19.5754  -26.6386   21.5185 C   0  0  0  0  0  0
  -18.1936  -26.7956   22.1612 C   0  0  0  0  0  0
  -19.1541  -28.8874   23.2872 C   0  0  0  0  0  0
  -18.9461  -30.1481   23.8884 C   0  0  0  0  0  0
  -17.6452  -30.6597   24.0551 C   0  0  0  0  0  0
  -25.9057  -34.9454   23.5084 C   0  0  0  0  0  0
  -16.5344  -29.9079   23.6336 C   0  0  0  0  0  0
  -16.7275  -28.6515   23.0332 C   0  0  0  0  0  0
  -26.4502  -31.6602   25.0659 C   0  0  0  0  0  0
  -25.3682  -31.3640   26.1325 C   0  0  0  0  0  0
  -27.0306  -30.3050   24.6054 C   0  0  0  0  0  0
  -27.6130  -32.4266   25.7426 C   0  0  0  0  0  0
  -27.5594  -37.1802   24.8469 C   0  0  0  0  0  0
  -21.4183  -29.3023   22.3654 N   0  0  0  0  0  0
  -26.4315  -37.3782   23.9397 N   0  0  0  0  0  0
  -24.6975  -31.0509   22.0916 N   0  0  0  0  0  0
  -23.4182  -28.8171   23.3028 O   0  0  0  0  0  0
  -28.3282  -26.3970   20.1763 O   0  0  0  0  0  0
  -26.5627  -34.8933   22.4654 O   0  0  0  0  0  0
  -23.5506  -32.1399   23.7230 O   0  0  0  0  0  0
  -29.3940  -21.8156   19.1666 C   0  0  0  0  0  0
  -29.6900  -20.2813   19.2348 C   0  0  0  0  0  0
  -28.4181  -22.1926   20.3057 C   0  0  1  0  0  0
  -28.6683  -20.9286   21.2610 C   0  0  1  0  0  0
  -27.5456  -24.0214   21.9650 C   0  0  0  0  0  0
  -28.6299  -21.4140   24.5047 C   0  0  0  0  0  0
  -26.9749  -19.5237   24.5392 C   0  0  0  0  0  0
  -27.5425  -20.6304   22.2962 C   0  0  0  0  0  0
  -29.7240  -17.1343   20.0564 C   0  0  0  0  0  0
  -29.3954  -18.3995   20.9939 C   0  0  0  0  0  0
  -28.3041  -24.9464   19.7584 C   0  0  0  0  0  0
  -28.5253  -23.7472   20.8161 C   0  0  2  0  0  0
  -28.0586  -20.2288   23.7056 C   0  0  0  0  0  0
  -29.7331  -15.7392   20.6674 N   0  0  0  0  0  0
  -28.9191  -19.7239   20.3687 N   0  3  2  0  0  0
  -31.4763  -12.5039   19.1585 H   0  0  0  0  0  0
  -30.3520  -11.4036   19.9061 H   0  0  0  0  0  0
  -29.7561  -11.7348   17.4860 H   0  0  0  0  0  0
  -29.6435  -13.4597   17.7309 H   0  0  0  0  0  0
  -27.8629  -11.2881   18.8786 H   0  0  0  0  0  0
  -27.3678  -12.5629   17.7994 H   0  0  0  0  0  0
  -27.6573  -14.2466   19.5068 H   0  0  0  0  0  0
  -28.7150  -12.0622   21.3740 H   0  0  0  0  0  0
  -28.4493  -13.7194   21.8421 H   0  0  0  0  0  0
  -25.2784   -9.5661   22.4756 H   0  0  0  0  0  0
  -24.0028   -7.4602   22.7448 H   0  0  0  0  0  0
  -21.0866   -8.8768   19.8912 H   0  0  0  0  0  0
  -22.3735  -10.9679   19.6155 H   0  0  0  0  0  0
  -21.1973   -7.6152   23.9724 H   0  0  0  0  0  0
  -21.1481   -6.0528   25.9086 H   0  0  0  0  0  0
  -22.0599   -2.7618   23.2829 H   0  0  0  0  0  0
  -22.4156  -11.9790   22.4762 H   0  0  0  0  0  0
  -21.1123  -13.1127   22.2673 H   0  0  0  0  0  0
  -24.6517  -15.8367   20.5254 H   0  0  0  0  0  0
  -26.2570  -15.6265   20.0389 H   0  0  0  0  0  0
  -26.7228  -32.5410   23.1005 H   0  0  0  0  0  0
  -24.9993  -33.9686   25.0318 H   0  0  0  0  0  0
  -22.7230  -31.3047   21.3992 H   0  0  0  0  0  0
  -23.3761  -35.9625   23.3307 H   0  0  0  0  0  0
  -24.3582  -36.8930   22.2058 H   0  0  0  0  0  0
  -23.7221  -37.6493   23.6669 H   0  0  0  0  0  0
  -26.0808  -31.5253   20.5805 H   0  0  0  0  0  0
  -26.8642  -30.8411   21.9683 H   0  0  0  0  0  0
  -28.1115  -28.9214   21.1842 H   0  0  0  0  0  0
  -25.9133  -25.9425   18.9345 H   0  0  0  0  0  0
  -23.9778  -27.3361   18.9373 H   0  0  0  0  0  0
  -23.7242  -30.5918   19.4000 H   0  0  0  0  0  0
  -22.7489  -29.2363   19.8707 H   0  0  0  0  0  0
  -25.1311  -36.1960   25.0815 H   0  0  0  0  0  0
  -20.9986  -28.3255   24.1396 H   0  0  0  0  0  0
  -20.5628  -26.2273   23.3575 H   0  0  0  0  0  0
  -21.6635  -26.7396   22.1209 H   0  0  0  0  0  0
  -19.6883  -25.6278   21.1250 H   0  0  0  0  0  0
  -19.6744  -27.3168   20.6699 H   0  0  0  0  0  0
  -17.4175  -26.6676   21.4043 H   0  0  0  0  0  0
  -18.0368  -26.0151   22.9072 H   0  0  0  0  0  0
  -19.7935  -30.7309   24.2248 H   0  0  0  0  0  0
  -17.4997  -31.6286   24.5142 H   0  0  0  0  0  0
  -15.5344  -30.2954   23.7693 H   0  0  0  0  0  0
  -15.8683  -28.0826   22.7032 H   0  0  0  0  0  0
  -24.6006  -30.6873   25.7550 H   0  0  0  0  0  0
  -24.8655  -32.2703   26.4706 H   0  0  0  0  0  0
  -25.7983  -30.8838   27.0122 H   0  0  0  0  0  0
  -26.2808  -29.6818   24.1171 H   0  0  0  0  0  0
  -27.4124  -29.7326   25.4515 H   0  0  0  0  0  0
  -27.8630  -30.4389   23.9144 H   0  0  0  0  0  0
  -27.2907  -33.3662   26.1927 H   0  0  0  0  0  0
  -28.3984  -32.6652   25.0234 H   0  0  0  0  0  0
  -28.0724  -31.8363   26.5366 H   0  0  0  0  0  0
  -28.2605  -38.0108   24.7551 H   0  0  0  0  0  0
  -28.1099  -36.2638   24.6290 H   0  0  0  0  0  0
  -27.2280  -37.1425   25.8859 H   0  0  0  0  0  0
  -20.9345  -29.8722   21.6847 H   0  0  0  0  0  0
  -26.0210  -38.2859   24.1416 H   0  0  0  0  0  0
  -28.9951  -22.1021   18.1924 H   0  0  0  0  0  0
  -30.3296  -22.3607   19.2985 H   0  0  0  0  0  0
  -30.7560  -20.1204   19.3992 H   0  0  0  0  0  0
  -29.4234  -19.7648   18.3114 H   0  0  0  0  0  0
  -27.4050  -22.0674   19.9179 H   0  0  0  0  0  0
  -29.6012  -21.1149   21.7954 H   0  0  0  0  0  0
  -27.7492  -23.3946   22.8291 H   0  0  0  0  0  0
  -26.5139  -23.8655   21.6436 H   0  0  0  0  0  0
  -27.6307  -25.0518   22.3087 H   0  0  0  0  0  0
  -29.1412  -21.0652   25.4045 H   0  0  0  0  0  0
  -27.8406  -22.0954   24.8269 H   0  0  0  0  0  0
  -29.3568  -21.9888   23.9324 H   0  0  0  0  0  0
  -27.3788  -19.1868   25.4957 H   0  0  0  0  0  0
  -26.5747  -18.6469   24.0281 H   0  0  0  0  0  0
  -26.1375  -20.1887   24.7552 H   0  0  0  0  0  0
  -26.9058  -19.8335   21.9107 H   0  0  0  0  0  0
  -26.8546  -21.4668   22.3829 H   0  0  0  0  0  0
  -30.6785  -17.3098   19.5593 H   0  0  0  0  0  0
  -28.9849  -17.0980   19.2533 H   0  0  0  0  0  0
  -30.2807  -18.6208   21.5888 H   0  0  0  0  0  0
  -28.6299  -18.0819   21.6993 H   0  0  0  0  0  0
  -27.4281  -24.6870   19.1779 H   0  0  0  0  0  0
  -29.1134  -24.8556   19.0330 H   0  0  0  0  0  0
  -29.5317  -23.8776   21.2161 H   0  0  0  0  0  0
  -28.8661  -19.5082   23.5803 H   0  0  0  0  0  0
  -28.8411  -15.4463   21.0406 H   0  0  0  0  0  0
  -28.0169  -19.5023   19.9729 H   0  0  0  0  0  0
  1 25  1  0  0  0
  1 30  2  0  0  0
  1 84  1  0  0  0
  2  3  1  0  0  0
  2 25  1  0  0  0
  2 86  1  0  0  0
  2 87  1  0  0  0
  3  4  1  0  0  0
  3 88  1  0  0  0
  3 89  1  0  0  0
  4  5  1  0  0  0
  4 90  1  0  0  0
  4 91  1  0  0  0
  5  6  1  0  0  0
  5 26  1  0  0  0
  5 92  1  0  0  0
  6 25  1  0  0  0
  6 93  1  0  0  0
  6 94  1  0  0  0
  7  8  2  0  0  0
  7 26  1  0  0  0
  7 29  1  0  0  0
  8  9  1  0  0  0
  8 22  1  0  0  0
  9 10  1  0  0  0
  9 27  2  0  0  0
 10 11  2  0  0  0
 10 15  1  0  0  0
 11 12  1  0  0  0
 11 95  1  0  0  0
 12 13  2  0  0  0
 12 96  1  0  0  0
 13 14  1  0  0  0
 13 31  1  0  0  0
 14 15  2  0  0  0
 14 97  1  0  0  0
 15 98  1  0  0  0
 16 17  2  0  0  0
 16 21  1  0  0  0
 16 31  1  0  0  0
 17 18  1  0  0  0
 17 99  1  0  0  0
 18 19  2  0  0  0
 18100  1  0  0  0
 19 20  1  0  0  0
 19 24  1  0  0  0
 20 21  2  0  0  0
 20101  1  0  0  0
 21 23  1  0  0  0
 22 28  1  0  0  0
 22 32  2  0  0  0
 26 27  1  0  0  0
 28102  1  0  0  0
 28103  1  0  0  0
 29104  1  0  0  0
 29105  1  0  0  0
 33 34  1  0  0  0
 33 66  1  0  0  0
 33 70  2  0  0  0
 34 36  1  0  0  0
 34 59  1  0  0  0
 34106  1  0  0  0
 35 44  2  0  0  0
 35 45  1  0  0  0
 35 68  1  0  0  0
 36 56  1  0  0  0
 36107  1  0  0  0
 37 39  1  0  0  0
 37 47  1  0  0  0
 37 66  1  0  0  0
 37108  1  0  0  0
 38 43  2  0  0  0
 38 46  1  0  0  0
 38 47  1  0  0  0
 39 64  1  0  0  0
 39 67  2  0  0  0
 40 52  1  0  0  0
 40 53  2  0  0  0
 40 58  1  0  0  0
 41109  1  0  0  0
 41110  1  0  0  0
 41111  1  0  0  0
 41 48  1  0  0  0
 42 43  1  0  0  0
 42 66  1  0  0  0
 42112  1  0  0  0
 42113  1  0  0  0
 43 44  1  0  0  0
 44114  1  0  0  0
 45 46  2  0  0  0
 45115  1  0  0  0
 46116  1  0  0  0
 47117  1  0  0  0
 47118  1  0  0  0
 48 56  1  0  0  0
 48 65  1  0  0  0
 48119  1  0  0  0
 49 50  1  0  0  0
 49 53  1  0  0  0
 49 64  1  0  0  0
 49120  1  0  0  0
 50 51  1  0  0  0
 50121  1  0  0  0
 50122  1  0  0  0
 51 52  1  0  0  0
 51123  1  0  0  0
 51124  1  0  0  0
 52125  1  0  0  0
 52126  1  0  0  0
 53 54  1  0  0  0
 54 55  2  0  0  0
 54127  1  0  0  0
 55 57  1  0  0  0
 55128  1  0  0  0
 56 69  2  0  0  0
 57 58  2  0  0  0
 57129  1  0  0  0
 58130  1  0  0  0
 59 60  1  0  0  0
 59 61  1  0  0  0
 59 62  1  0  0  0
 60131  1  0  0  0
 60132  1  0  0  0
 60133  1  0  0  0
 61134  1  0  0  0
 61135  1  0  0  0
 61136  1  0  0  0
 62137  1  0  0  0
 62138  1  0  0  0
 62139  1  0  0  0
 63 65  1  0  0  0
 63140  1  0  0  0
 63141  1  0  0  0
 63142  1  0  0  0
 64143  1  0  0  0
 65144  1  0  0  0
 68 81  1  0  0  0
 71 72  1  0  0  0
 71145  1  0  0  0
 71146  1  0  0  0
 71 73  1  0  0  0
 72 85  1  0  0  0
 72147  1  0  0  0
 72148  1  0  0  0
 73 74  1  0  0  0
 73 82  1  0  0  0
 73149  1  0  0  0
 74 78  1  0  0  0
 74 85  1  0  0  0
 74150  1  0  0  0
 75151  1  0  0  0
 75152  1  0  0  0
 75153  1  0  0  0
 75 82  1  0  0  0
 76154  1  0  0  0
 76155  1  0  0  0
 76156  1  0  0  0
 76 83  1  0  0  0
 77 83  1  0  0  0
 77157  1  0  0  0
 77158  1  0  0  0
 77159  1  0  0  0
 78 83  1  0  0  0
 78160  1  0  0  0
 78161  1  0  0  0
 79 80  1  0  0  0
 79 84  1  0  0  0
 79162  1  0  0  0
 79163  1  0  0  0
 80164  1  0  0  0
 80165  1  0  0  0
 80 85  1  0  0  0
 81 82  1  0  0  0
 81166  1  0  0  0
 81167  1  0  0  0
 82168  1  0  0  0
 83169  1  0  0  0
 84170  1  0  0  0
 85171  1  0  0  0
M  CHG  1  85   1
M  ISO  4   1 100  68 101  81 101  84 100
M  END
> <chiral flag>
0

> <version>
0

> <s_m_source_file>
/data/baiqing/PycharmProjects/Reinvent-master-3.2/result/LINK_invent/BTK/process_docking_weight1_custom_sum_contain_oxygen_bond_distance_aromatic_linkinvent_7_9_3/rearranged_h_0117.sdf

> <i_m_source_file_index>
68

> <r_mmod_Potential_Energy-OPLS-2005>
138.134307861328

> <r_mmod_Stretch_Energy-OPLS-2005>
117.213768005371

> <r_mmod_Bend_Energy-OPLS-2005>
205.822082519531

> <r_mmod_Torsional_Energy-OPLS-2005>
309.128753662109

> <r_mmod_Improper_Torsional_Energy-OPLS-2005>
7.43923044204712

> <r_mmod_Van_der_Waal_Energy-OPLS-2005>
113.455032348633

> <r_mmod_Electrostatic_Energy-OPLS-2005>
-234.932571411133

> <r_mmod_Solvation_Energy-OPLS-2005>
-448.578155517578

> <b_mmod_Minimization_Converged-OPLS-2005>
0

> <r_mmod_RMS_Derivative-OPLS-2005>
3.93552565574646

$$$$
69
                    3D
 Structure written by MMmdl.
166174  0  0  1  0            999 V2000
  -30.6116  -14.7413   20.4738 C   0  0  0  0  0  0
  -30.4333  -12.4581   19.4627 C   0  0  0  0  0  0
  -29.5088  -12.5113   18.2273 C   0  0  0  0  0  0
  -28.0352  -12.3325   18.6437 C   0  0  0  0  0  0
  -27.6401  -13.2308   19.8461 C   0  0  2  0  0  0
  -28.6855  -13.1607   20.9799 C   0  0  0  0  0  0
  -25.2501  -13.8186   20.5687 C   0  0  0  0  0  0
  -24.1793  -13.0434   20.9202 C   0  0  0  0  0  0
  -24.6381  -11.6913   20.8735 C   0  0  0  0  0  0
  -23.9060  -10.4289   21.0393 C   0  0  0  0  0  0
  -24.3606   -9.4206   21.9173 C   0  0  0  0  0  0
  -23.6279   -8.2244   22.0753 C   0  0  0  0  0  0
  -22.4261   -8.0277   21.3552 C   0  0  0  0  0  0
  -21.9895   -9.0251   20.4654 C   0  0  0  0  0  0
  -22.7229  -10.2126   20.3051 C   0  0  0  0  0  0
  -21.6859   -6.0722   22.5274 C   0  0  0  0  0  0
  -21.4020   -6.5627   23.8206 C   0  0  0  0  0  0
  -21.3665   -5.6780   24.9168 C   0  0  0  0  0  0
  -21.6040   -4.3043   24.7223 C   0  0  0  0  0  0
  -21.8817   -3.8136   23.4347 C   0  0  0  0  0  0
  -21.9201   -4.6951   22.3402 C   0  0  0  0  0  0
  -22.7819  -13.5229   21.1862 C   0  0  0  0  0  0
  -22.1662   -4.2136   21.0981 F   0  0  0  0  0  0
  -21.5632   -3.4530   25.7740 F   0  0  0  0  0  0
  -29.9838  -13.5182   20.3935 N   0  0  0  0  0  0
  -26.2924  -12.9393   20.3250 N   0  0  0  0  0  0
  -25.9307  -11.6540   20.5710 N   0  0  0  0  0  0
  -22.0467  -12.8228   22.0422 N   0  0  0  0  0  0
  -25.4173  -15.1907   20.4106 N   0  0  0  0  0  0
  -31.8047  -14.8270   20.1745 O   0  0  0  0  0  0
  -21.6639   -6.8863   21.4235 O   0  0  0  0  0  0
  -22.3504  -14.5534   20.6702 O   0  0  0  0  0  0
  -24.6315  -31.8547   23.1974 C   0  0  0  0  0  0
  -25.9133  -32.4753   23.8322 C   0  0  1  0  0  0
  -27.2174  -27.2595   20.1360 C   0  0  0  0  0  0
  -25.5921  -33.8560   24.2250 N   0  0  0  0  0  0
  -23.4293  -30.4769   21.5406 C   0  0  2  0  0  0
  -24.8770  -28.9190   20.1139 C   0  0  0  0  0  0
  -22.7502  -29.4608   22.4907 C   0  0  0  0  0  0
  -18.0293  -28.1388   22.8485 C   0  0  0  0  0  0
  -24.1485  -36.7281   23.2642 C   0  0  0  0  0  0
  -25.9755  -30.7669   21.3777 C   0  0  0  0  0  0
  -26.0497  -29.3884   20.7218 C   0  0  0  0  0  0
  -27.2276  -28.5722   20.7183 C   0  0  0  0  0  0
  -26.0259  -26.8574   19.5000 C   0  0  0  0  0  0
  -24.8698  -27.6613   19.4915 C   0  0  0  0  0  0
  -23.6486  -29.8075   20.1584 C   0  0  0  0  0  0
  -25.4113  -36.3071   24.0329 C   0  0  1  0  0  0
  -20.5897  -28.3706   23.1263 C   0  0  2  0  0  0
  -20.6776  -26.9421   22.5410 C   0  0  0  0  0  0
  -19.5753  -26.6387   21.5209 C   0  0  0  0  0  0
  -18.1935  -26.7932   22.1623 C   0  0  0  0  0  0
  -19.1547  -28.8861   23.2872 C   0  0  0  0  0  0
  -18.9470  -30.1459   23.8899 C   0  0  0  0  0  0
  -17.6468  -30.6595   24.0563 C   0  0  0  0  0  0
  -25.9057  -34.9439   23.5097 C   0  0  0  0  0  0
  -16.5358  -29.9092   23.6332 C   0  0  0  0  0  0
  -16.7281  -28.6505   23.0360 C   0  0  0  0  0  0
  -26.4491  -31.6587   25.0720 C   0  0  0  0  0  0
  -25.3709  -31.3757   26.1443 C   0  0  0  0  0  0
  -27.0334  -30.2994   24.6227 C   0  0  0  0  0  0
  -27.6042  -32.4332   25.7493 C   0  0  0  0  0  0
  -27.5581  -37.1792   24.8465 C   0  0  0  0  0  0
  -21.4207  -29.3048   22.3647 N   0  0  0  0  0  0
  -26.4286  -37.3770   23.9416 N   0  0  0  0  0  0
  -24.6978  -31.0506   22.0949 N   0  0  0  0  0  0
  -23.4192  -28.8151   23.3015 O   0  0  0  0  0  0
  -28.2953  -26.3468   20.1375 O   0  0  0  0  0  0
  -26.5642  -34.8920   22.4676 O   0  0  0  0  0  0
  -23.5458  -32.1366   23.7265 O   0  0  0  0  0  0
  -28.7182  -22.3817   20.8896 C   0  0  0  0  0  0
  -28.6094  -23.6379   20.1790 C   0  0  0  0  0  0
  -29.1035  -21.1804   20.2055 C   0  0  0  0  0  0
  -29.2290  -22.4662   18.3019 C   0  0  0  0  0  0
  -28.6478  -25.2098   22.2284 C   0  0  0  0  0  0
  -27.9978  -18.0476   19.7032 C   0  0  0  0  0  0
  -29.6152  -17.4737   22.5294 C   0  0  0  0  0  0
  -31.6165  -17.6521   21.0621 C   0  0  0  0  0  0
  -29.8095  -21.3843   16.2533 C   0  0  0  0  0  0
  -28.0862  -25.0158   20.8127 C   0  0  1  0  0  0
  -29.3801  -18.5116   20.1891 C   0  0  2  0  0  0
  -30.1063  -17.3420   21.0713 C   0  0  0  0  0  0
  -28.8880  -23.6266   18.8611 N   0  0  0  0  0  0
  -29.3455  -21.2690   18.8909 N   0  0  0  0  0  0
  -29.2631  -19.8861   20.8316 N   0  0  0  0  0  0
  -29.8280  -15.8662   20.7182 N   0  0  0  0  0  0
  -29.4614  -22.5645   16.9737 O   0  0  0  0  0  0
  -31.4734  -12.5874   19.1585 H   0  0  0  0  0  0
  -30.3816  -11.4802   19.9442 H   0  0  0  0  0  0
  -29.7913  -11.7398   17.5098 H   0  0  0  0  0  0
  -29.6336  -13.4672   17.7151 H   0  0  0  0  0  0
  -27.8942  -11.2837   18.9070 H   0  0  0  0  0  0
  -27.3773  -12.5240   17.7949 H   0  0  0  0  0  0
  -27.6348  -14.2525   19.4656 H   0  0  0  0  0  0
  -28.7232  -12.1605   21.4139 H   0  0  0  0  0  0
  -28.4198  -13.8372   21.7939 H   0  0  0  0  0  0
  -25.2750   -9.5687   22.4747 H   0  0  0  0  0  0
  -23.9997   -7.4634   22.7465 H   0  0  0  0  0  0
  -21.0831   -8.8761   19.8963 H   0  0  0  0  0  0
  -22.3677  -10.9656   19.6156 H   0  0  0  0  0  0
  -21.2015   -7.6133   23.9704 H   0  0  0  0  0  0
  -21.1484   -6.0512   25.9069 H   0  0  0  0  0  0
  -22.0600   -2.7601   23.2849 H   0  0  0  0  0  0
  -22.4089  -11.9898   22.4822 H   0  0  0  0  0  0
  -21.1084  -13.1253   22.2628 H   0  0  0  0  0  0
  -24.6431  -15.8369   20.5153 H   0  0  0  0  0  0
  -26.2514  -15.6329   20.0506 H   0  0  0  0  0  0
  -26.7205  -32.5403   23.1066 H   0  0  0  0  0  0
  -25.0035  -33.9688   25.0373 H   0  0  0  0  0  0
  -22.7261  -31.2994   21.3920 H   0  0  0  0  0  0
  -23.3752  -35.9608   23.3299 H   0  0  0  0  0  0
  -24.3577  -36.8911   22.2059 H   0  0  0  0  0  0
  -23.7230  -37.6476   23.6672 H   0  0  0  0  0  0
  -26.1153  -31.5269   20.6078 H   0  0  0  0  0  0
  -26.8518  -30.8157   22.0128 H   0  0  0  0  0  0
  -28.1285  -28.9274   21.1979 H   0  0  0  0  0  0
  -25.9818  -25.8909   19.0171 H   0  0  0  0  0  0
  -23.9725  -27.2971   19.0095 H   0  0  0  0  0  0
  -23.7745  -30.5811   19.4001 H   0  0  0  0  0  0
  -22.7666  -29.2406   19.8545 H   0  0  0  0  0  0
  -25.1290  -36.1913   25.0819 H   0  0  0  0  0  0
  -20.9996  -28.3289   24.1380 H   0  0  0  0  0  0
  -20.5667  -26.2318   23.3617 H   0  0  0  0  0  0
  -21.6646  -26.7437   22.1212 H   0  0  0  0  0  0
  -19.6916  -25.6296   21.1244 H   0  0  0  0  0  0
  -19.6689  -27.3191   20.6733 H   0  0  0  0  0  0
  -17.4203  -26.6679   21.4028 H   0  0  0  0  0  0
  -18.0339  -26.0072   22.9017 H   0  0  0  0  0  0
  -19.7949  -30.7266   24.2272 H   0  0  0  0  0  0
  -17.5033  -31.6277   24.5163 H   0  0  0  0  0  0
  -15.5360  -30.2996   23.7662 H   0  0  0  0  0  0
  -15.8679  -28.0823   22.7081 H   0  0  0  0  0  0
  -24.5875  -30.7113   25.7781 H   0  0  0  0  0  0
  -24.8908  -32.2935   26.4847 H   0  0  0  0  0  0
  -25.8014  -30.8950   27.0236 H   0  0  0  0  0  0
  -26.2924  -29.6747   24.1226 H   0  0  0  0  0  0
  -27.3970  -29.7258   25.4763 H   0  0  0  0  0  0
  -27.8824  -30.4255   23.9505 H   0  0  0  0  0  0
  -27.2643  -33.3632   26.2063 H   0  0  0  0  0  0
  -28.3850  -32.6897   25.0320 H   0  0  0  0  0  0
  -28.0715  -31.8466   26.5411 H   0  0  0  0  0  0
  -28.2594  -38.0093   24.7520 H   0  0  0  0  0  0
  -28.1075  -36.2624   24.6267 H   0  0  0  0  0  0
  -27.2308  -37.1427   25.8871 H   0  0  0  0  0  0
  -20.9392  -29.8760   21.6844 H   0  0  0  0  0  0
  -26.0162  -38.2843   24.1419 H   0  0  0  0  0  0
  -28.4882  -22.3428   21.9444 H   0  0  0  0  0  0
  -28.3832  -24.3806   22.8828 H   0  0  0  0  0  0
  -28.2536  -26.1160   22.6867 H   0  0  0  0  0  0
  -29.7342  -25.2883   22.2087 H   0  0  0  0  0  0
  -28.0747  -17.1397   19.1047 H   0  0  0  0  0  0
  -27.5274  -18.8012   19.0713 H   0  0  0  0  0  0
  -27.3248  -17.8432   20.5365 H   0  0  0  0  0  0
  -29.8877  -18.4322   22.9723 H   0  0  0  0  0  0
  -30.0496  -16.7049   23.1694 H   0  0  0  0  0  0
  -28.5312  -17.3767   22.5983 H   0  0  0  0  0  0
  -31.8099  -18.6752   21.3872 H   0  0  0  0  0  0
  -32.0372  -17.5524   20.0614 H   0  0  0  0  0  0
  -32.1753  -16.9949   21.7296 H   0  0  0  0  0  0
  -29.9372  -21.6279   15.1989 H   0  0  0  0  0  0
  -29.0277  -20.6262   16.3224 H   0  0  0  0  0  0
  -30.7488  -20.9602   16.6115 H   0  0  0  0  0  0
  -27.0132  -24.8585   20.9259 H   0  0  0  0  0  0
  -29.9815  -18.6498   19.2885 H   0  0  0  0  0  0
  -29.1456  -19.8699   21.8371 H   0  0  0  0  0  0
  -28.8526  -15.6265   20.8075 H   0  0  0  0  0  0
  1 25  1  0  0  0
  1 30  2  0  0  0
  1 86  1  0  0  0
  2  3  1  0  0  0
  2 25  1  0  0  0
  2 88  1  0  0  0
  2 89  1  0  0  0
  3  4  1  0  0  0
  3 90  1  0  0  0
  3 91  1  0  0  0
  4  5  1  0  0  0
  4 92  1  0  0  0
  4 93  1  0  0  0
  5  6  1  0  0  0
  5 26  1  0  0  0
  5 94  1  0  0  0
  6 25  1  0  0  0
  6 95  1  0  0  0
  6 96  1  0  0  0
  7  8  2  0  0  0
  7 26  1  0  0  0
  7 29  1  0  0  0
  8  9  1  0  0  0
  8 22  1  0  0  0
  9 10  1  0  0  0
  9 27  2  0  0  0
 10 11  2  0  0  0
 10 15  1  0  0  0
 11 12  1  0  0  0
 11 97  1  0  0  0
 12 13  2  0  0  0
 12 98  1  0  0  0
 13 14  1  0  0  0
 13 31  1  0  0  0
 14 15  2  0  0  0
 14 99  1  0  0  0
 15100  1  0  0  0
 16 17  2  0  0  0
 16 21  1  0  0  0
 16 31  1  0  0  0
 17 18  1  0  0  0
 17101  1  0  0  0
 18 19  2  0  0  0
 18102  1  0  0  0
 19 20  1  0  0  0
 19 24  1  0  0  0
 20 21  2  0  0  0
 20103  1  0  0  0
 21 23  1  0  0  0
 22 28  1  0  0  0
 22 32  2  0  0  0
 26 27  1  0  0  0
 28104  1  0  0  0
 28105  1  0  0  0
 29106  1  0  0  0
 29107  1  0  0  0
 33 34  1  0  0  0
 33 66  1  0  0  0
 33 70  2  0  0  0
 34 36  1  0  0  0
 34 59  1  0  0  0
 34108  1  0  0  0
 35 44  2  0  0  0
 35 45  1  0  0  0
 35 68  1  0  0  0
 36 56  1  0  0  0
 36109  1  0  0  0
 37 39  1  0  0  0
 37 47  1  0  0  0
 37 66  1  0  0  0
 37110  1  0  0  0
 38 43  2  0  0  0
 38 46  1  0  0  0
 38 47  1  0  0  0
 39 64  1  0  0  0
 39 67  2  0  0  0
 40 52  1  0  0  0
 40 53  2  0  0  0
 40 58  1  0  0  0
 41111  1  0  0  0
 41112  1  0  0  0
 41113  1  0  0  0
 41 48  1  0  0  0
 42 43  1  0  0  0
 42 66  1  0  0  0
 42114  1  0  0  0
 42115  1  0  0  0
 43 44  1  0  0  0
 44116  1  0  0  0
 45 46  2  0  0  0
 45117  1  0  0  0
 46118  1  0  0  0
 47119  1  0  0  0
 47120  1  0  0  0
 48 56  1  0  0  0
 48 65  1  0  0  0
 48121  1  0  0  0
 49 50  1  0  0  0
 49 53  1  0  0  0
 49 64  1  0  0  0
 49122  1  0  0  0
 50 51  1  0  0  0
 50123  1  0  0  0
 50124  1  0  0  0
 51 52  1  0  0  0
 51125  1  0  0  0
 51126  1  0  0  0
 52127  1  0  0  0
 52128  1  0  0  0
 53 54  1  0  0  0
 54 55  2  0  0  0
 54129  1  0  0  0
 55 57  1  0  0  0
 55130  1  0  0  0
 56 69  2  0  0  0
 57 58  2  0  0  0
 57131  1  0  0  0
 58132  1  0  0  0
 59 60  1  0  0  0
 59 61  1  0  0  0
 59 62  1  0  0  0
 60133  1  0  0  0
 60134  1  0  0  0
 60135  1  0  0  0
 61136  1  0  0  0
 61137  1  0  0  0
 61138  1  0  0  0
 62139  1  0  0  0
 62140  1  0  0  0
 62141  1  0  0  0
 63 65  1  0  0  0
 63142  1  0  0  0
 63143  1  0  0  0
 63144  1  0  0  0
 64145  1  0  0  0
 65146  1  0  0  0
 68 80  1  0  0  0
 71 72  2  0  0  0
 71 73  1  0  0  0
 71147  1  0  0  0
 72 80  1  0  0  0
 72 83  1  0  0  0
 73 84  2  0  0  0
 73 85  1  0  0  0
 74 83  2  0  0  0
 74 84  1  0  0  0
 74 87  1  0  0  0
 75148  1  0  0  0
 75149  1  0  0  0
 75150  1  0  0  0
 75 80  1  0  0  0
 76151  1  0  0  0
 76152  1  0  0  0
 76153  1  0  0  0
 76 81  1  0  0  0
 77154  1  0  0  0
 77155  1  0  0  0
 77156  1  0  0  0
 77 82  1  0  0  0
 78 82  1  0  0  0
 78157  1  0  0  0
 78158  1  0  0  0
 78159  1  0  0  0
 79 87  1  0  0  0
 79160  1  0  0  0
 79161  1  0  0  0
 79162  1  0  0  0
 80163  1  0  0  0
 81 82  1  0  0  0
 81 85  1  0  0  0
 81164  1  0  0  0
 82 86  1  0  0  0
 85165  1  0  0  0
 86166  1  0  0  0
M  ISO  4   1 100  68 101  80 101  86 100
M  END
> <chiral flag>
0

> <version>
0

> <s_m_source_file>
/data/baiqing/PycharmProjects/Reinvent-master-3.2/result/LINK_invent/BTK/process_docking_weight1_custom_sum_contain_oxygen_bond_distance_aromatic_linkinvent_7_9_3/rearranged_h_0117.sdf

> <i_m_source_file_index>
69

> <r_mmod_Potential_Energy-OPLS-2005>
-489.602416992188

> <r_mmod_Stretch_Energy-OPLS-2005>
121.65852355957

> <r_mmod_Bend_Energy-OPLS-2005>
191.416946411133

> <r_mmod_Torsional_Energy-OPLS-2005>
234.427291870117

> <r_mmod_Improper_Torsional_Energy-OPLS-2005>
4.47038888931274

> <r_mmod_Van_der_Waal_Energy-OPLS-2005>
152.682022094727

> <r_mmod_Electrostatic_Energy-OPLS-2005>
-1050.0205078125

> <r_mmod_Solvation_Energy-OPLS-2005>
-229.863479614258

> <b_mmod_Minimization_Converged-OPLS-2005>
0

> <r_mmod_RMS_Derivative-OPLS-2005>
1.20112264156342

$$$$
70
                    3D
 Structure written by MMmdl.
148156  0  0  1  0            999 V2000
  -30.4262  -15.2845   20.3680 C   0  0  0  0  0  0
  -30.4383  -12.8223   19.5251 C   0  0  0  0  0  0
  -29.5360  -12.5819   18.2880 C   0  0  0  0  0  0
  -28.0851  -12.3015   18.7157 C   0  0  0  0  0  0
  -27.6102  -13.2763   19.8217 C   0  0  2  0  0  0
  -28.6433  -13.4568   20.9545 C   0  0  0  0  0  0
  -25.2379  -13.8243   20.5741 C   0  0  0  0  0  0
  -24.1738  -13.0434   20.9266 C   0  0  0  0  0  0
  -24.6396  -11.6931   20.8766 C   0  0  0  0  0  0
  -23.9091  -10.4290   21.0407 C   0  0  0  0  0  0
  -24.3636   -9.4204   21.9184 C   0  0  0  0  0  0
  -23.6304   -8.2242   22.0753 C   0  0  0  0  0  0
  -22.4285   -8.0282   21.3544 C   0  0  0  0  0  0
  -21.9927   -9.0257   20.4645 C   0  0  0  0  0  0
  -22.7261  -10.2133   20.3056 C   0  0  0  0  0  0
  -21.6855   -6.0738   22.5279 C   0  0  0  0  0  0
  -21.4014   -6.5640   23.8213 C   0  0  0  0  0  0
  -21.3661   -5.6792   24.9175 C   0  0  0  0  0  0
  -21.6045   -4.3056   24.7224 C   0  0  0  0  0  0
  -21.8819   -3.8148   23.4345 C   0  0  0  0  0  0
  -21.9193   -4.6965   22.3402 C   0  0  0  0  0  0
  -22.7754  -13.5184   21.1910 C   0  0  0  0  0  0
  -22.1661   -4.2152   21.0979 F   0  0  0  0  0  0
  -21.5629   -3.4539   25.7737 F   0  0  0  0  0  0
  -29.8719  -13.9706   20.3267 N   0  0  0  0  0  0
  -26.2807  -12.9521   20.3208 N   0  0  0  0  0  0
  -25.9332  -11.6626   20.5719 N   0  0  0  0  0  0
  -22.0412  -12.8167   22.0464 N   0  0  0  0  0  0
  -25.3999  -15.1973   20.4141 N   0  0  0  0  0  0
  -31.6486  -15.2873   20.1593 O   0  0  0  0  0  0
  -21.6644   -6.8883   21.4242 O   0  0  0  0  0  0
  -22.3432  -14.5482   20.6744 O   0  0  0  0  0  0
  -24.6642  -31.8221   23.1687 C   0  0  0  0  0  0
  -25.9316  -32.4580   23.8157 C   0  0  1  0  0  0
  -27.2198  -26.9143   20.1877 C   0  0  0  0  0  0
  -25.5978  -33.8395   24.2064 N   0  0  0  0  0  0
  -23.4797  -30.4328   21.5184 C   0  0  2  0  0  0
  -24.9334  -28.8157   20.1138 C   0  0  0  0  0  0
  -22.7672  -29.4433   22.4777 C   0  0  0  0  0  0
  -18.0325  -28.1412   22.8463 C   0  0  0  0  0  0
  -24.1495  -36.7204   23.2648 C   0  0  0  0  0  0
  -26.0496  -30.6250   21.4002 C   0  0  0  0  0  0
  -26.1180  -29.2126   20.7465 C   0  0  0  0  0  0
  -27.2560  -28.2842   20.7559 C   0  0  0  0  0  0
  -26.0048  -26.6720   19.5079 C   0  0  0  0  0  0
  -24.9030  -27.5664   19.4736 C   0  0  0  0  0  0
  -23.7205  -29.7459   20.1459 C   0  0  0  0  0  0
  -25.4137  -36.2963   24.0298 C   0  0  1  0  0  0
  -20.5949  -28.3757   23.1185 C   0  0  2  0  0  0
  -20.6802  -26.9437   22.5402 C   0  0  0  0  0  0
  -19.5776  -26.6378   21.5214 C   0  0  0  0  0  0
  -18.1958  -26.7944   22.1621 C   0  0  0  0  0  0
  -19.1585  -28.8906   23.2810 C   0  0  0  0  0  0
  -18.9494  -30.1495   23.8847 C   0  0  0  0  0  0
  -17.6486  -30.6598   24.0556 C   0  0  0  0  0  0
  -25.9102  -34.9346   23.5004 C   0  0  0  0  0  0
  -16.5377  -29.9085   23.6343 C   0  0  0  0  0  0
  -16.7306  -28.6508   23.0358 C   0  0  0  0  0  0
  -26.4564  -31.6529   25.0691 C   0  0  0  0  0  0
  -25.3685  -31.3782   26.1342 C   0  0  0  0  0  0
  -27.0463  -30.2894   24.6432 C   0  0  0  0  0  0
  -27.6053  -32.4342   25.7496 C   0  0  0  0  0  0
  -27.5569  -37.1763   24.8468 C   0  0  0  0  0  0
  -21.4340  -29.3043   22.3530 N   0  0  0  0  0  0
  -26.4282  -37.3700   23.9404 N   0  0  0  0  0  0
  -24.7528  -30.9872   22.0829 N   0  0  0  0  0  0
  -23.4213  -28.8010   23.3029 O   0  0  0  0  0  0
  -28.2236  -25.8056   20.2578 O   0  0  0  0  0  0
  -26.5714  -34.8885   22.4601 O   0  0  0  0  0  0
  -23.5710  -32.1197   23.6773 O   0  0  0  0  0  0
  -26.4062  -19.8391   20.0809 C   0  0  0  0  0  0
  -27.4359  -18.8832   20.1784 C   0  0  0  0  0  0
  -26.9627  -21.0743   20.1261 C   0  0  0  0  0  0
  -28.6702  -19.4692   20.2871 C   0  0  0  0  0  0
  -29.8729  -18.2200   20.3900 C   0  0  0  0  0  0
  -28.9100  -22.6155   20.3139 C   0  0  0  0  0  0
  -27.9553  -24.1689   20.1635 C   0  0  0  0  0  0
  -28.3478  -21.0338   20.2544 N   0  0  0  0  0  0
  -29.6481  -16.5516   20.4483 N   0  0  0  0  0  0
  -31.4553  -13.0318   19.1913 H   0  0  0  0  0  0
  -30.5113  -11.9198   20.1343 H   0  0  0  0  0  0
  -29.9195  -11.7537   17.6908 H   0  0  0  0  0  0
  -29.5623  -13.4629   17.6449 H   0  0  0  0  0  0
  -28.0439  -11.2775   19.0890 H   0  0  0  0  0  0
  -27.4169  -12.3409   17.8546 H   0  0  0  0  0  0
  -27.5231  -14.2417   19.3217 H   0  0  0  0  0  0
  -28.8162  -12.5238   21.4930 H   0  0  0  0  0  0
  -28.2788  -14.1773   21.6885 H   0  0  0  0  0  0
  -25.2776   -9.5680   22.4766 H   0  0  0  0  0  0
  -24.0010   -7.4632   22.7473 H   0  0  0  0  0  0
  -21.0858   -8.8779   19.8949 H   0  0  0  0  0  0
  -22.3717  -10.9674   19.6170 H   0  0  0  0  0  0
  -21.2005   -7.6149   23.9717 H   0  0  0  0  0  0
  -21.1485   -6.0522   25.9078 H   0  0  0  0  0  0
  -22.0596   -2.7610   23.2843 H   0  0  0  0  0  0
  -22.4046  -11.9840   22.4859 H   0  0  0  0  0  0
  -21.1023  -13.1173   22.2666 H   0  0  0  0  0  0
  -24.6240  -15.8428   20.5153 H   0  0  0  0  0  0
  -26.2263  -15.6305   20.0261 H   0  0  0  0  0  0
  -26.7387  -32.5117   23.0872 H   0  0  0  0  0  0
  -25.0070  -33.9469   25.0178 H   0  0  0  0  0  0
  -22.7937  -31.2648   21.3457 H   0  0  0  0  0  0
  -23.3766  -35.9524   23.3285 H   0  0  0  0  0  0
  -24.3568  -36.8876   22.2066 H   0  0  0  0  0  0
  -23.7244  -37.6382   23.6721 H   0  0  0  0  0  0
  -26.2295  -31.3648   20.6191 H   0  0  0  0  0  0
  -26.9096  -30.6839   22.0553 H   0  0  0  0  0  0
  -28.1536  -28.5878   21.2763 H   0  0  0  0  0  0
  -25.8724  -25.7189   19.0174 H   0  0  0  0  0  0
  -24.0033  -27.2565   18.9597 H   0  0  0  0  0  0
  -23.8780  -30.5131   19.3869 H   0  0  0  0  0  0
  -22.8298  -29.2012   19.8280 H   0  0  0  0  0  0
  -25.1338  -36.1759   25.0789 H   0  0  0  0  0  0
  -21.0037  -28.3368   24.1309 H   0  0  0  0  0  0
  -20.5684  -26.2376   23.3643 H   0  0  0  0  0  0
  -21.6666  -26.7413   22.1208 H   0  0  0  0  0  0
  -19.6935  -25.6275   21.1278 H   0  0  0  0  0  0
  -19.6718  -27.3160   20.6721 H   0  0  0  0  0  0
  -17.4226  -26.6683   21.4026 H   0  0  0  0  0  0
  -18.0356  -26.0100   22.9032 H   0  0  0  0  0  0
  -19.7968  -30.7327   24.2194 H   0  0  0  0  0  0
  -17.5036  -31.6273   24.5168 H   0  0  0  0  0  0
  -15.5375  -30.2970   23.7697 H   0  0  0  0  0  0
  -15.8708  -28.0811   22.7097 H   0  0  0  0  0  0
  -24.5887  -30.7112   25.7647 H   0  0  0  0  0  0
  -24.8853  -32.2982   26.4638 H   0  0  0  0  0  0
  -25.7912  -30.9033   27.0205 H   0  0  0  0  0  0
  -26.3133  -29.6564   24.1422 H   0  0  0  0  0  0
  -27.3973  -29.7267   25.5093 H   0  0  0  0  0  0
  -27.9082  -30.4073   23.9862 H   0  0  0  0  0  0
  -27.2618  -33.3688   26.1944 H   0  0  0  0  0  0
  -28.3931  -32.6830   25.0374 H   0  0  0  0  0  0
  -28.0645  -31.8553   26.5520 H   0  0  0  0  0  0
  -28.2574  -38.0069   24.7502 H   0  0  0  0  0  0
  -28.1077  -36.2593   24.6313 H   0  0  0  0  0  0
  -27.2280  -37.1426   25.8869 H   0  0  0  0  0  0
  -20.9599  -29.8723   21.6648 H   0  0  0  0  0  0
  -26.0129  -38.2759   24.1404 H   0  0  0  0  0  0
  -25.3467  -19.6406   19.9855 H   0  0  0  0  0  0
  -27.2710  -17.8153   20.1663 H   0  0  0  0  0  0
  -26.4416  -22.0196   20.0751 H   0  0  0  0  0  0
  -30.4822  -18.4457   21.2655 H   0  0  0  0  0  0
  -30.5554  -18.3749   19.5537 H   0  0  0  0  0  0
  -29.6961  -22.6705   19.5609 H   0  0  0  0  0  0
  -29.4442  -22.6883   21.2611 H   0  0  0  0  0  0
  -27.1454  -24.0431   20.8820 H   0  0  0  0  0  0
  -27.4685  -24.0670   19.1939 H   0  0  0  0  0  0
  -28.6730  -16.3333   20.5810 H   0  0  0  0  0  0
  1 25  1  0  0  0
  1 30  2  0  0  0
  1 79  1  0  0  0
  2  3  1  0  0  0
  2 25  1  0  0  0
  2 80  1  0  0  0
  2 81  1  0  0  0
  3  4  1  0  0  0
  3 82  1  0  0  0
  3 83  1  0  0  0
  4  5  1  0  0  0
  4 84  1  0  0  0
  4 85  1  0  0  0
  5  6  1  0  0  0
  5 26  1  0  0  0
  5 86  1  0  0  0
  6 25  1  0  0  0
  6 87  1  0  0  0
  6 88  1  0  0  0
  7  8  2  0  0  0
  7 26  1  0  0  0
  7 29  1  0  0  0
  8  9  1  0  0  0
  8 22  1  0  0  0
  9 10  1  0  0  0
  9 27  2  0  0  0
 10 11  2  0  0  0
 10 15  1  0  0  0
 11 12  1  0  0  0
 11 89  1  0  0  0
 12 13  2  0  0  0
 12 90  1  0  0  0
 13 14  1  0  0  0
 13 31  1  0  0  0
 14 15  2  0  0  0
 14 91  1  0  0  0
 15 92  1  0  0  0
 16 17  2  0  0  0
 16 21  1  0  0  0
 16 31  1  0  0  0
 17 18  1  0  0  0
 17 93  1  0  0  0
 18 19  2  0  0  0
 18 94  1  0  0  0
 19 20  1  0  0  0
 19 24  1  0  0  0
 20 21  2  0  0  0
 20 95  1  0  0  0
 21 23  1  0  0  0
 22 28  1  0  0  0
 22 32  2  0  0  0
 26 27  1  0  0  0
 28 96  1  0  0  0
 28 97  1  0  0  0
 29 98  1  0  0  0
 29 99  1  0  0  0
 33 34  1  0  0  0
 33 66  1  0  0  0
 33 70  2  0  0  0
 34 36  1  0  0  0
 34 59  1  0  0  0
 34100  1  0  0  0
 35 44  2  0  0  0
 35 45  1  0  0  0
 35 68  1  0  0  0
 36 56  1  0  0  0
 36101  1  0  0  0
 37 39  1  0  0  0
 37 47  1  0  0  0
 37 66  1  0  0  0
 37102  1  0  0  0
 38 43  2  0  0  0
 38 46  1  0  0  0
 38 47  1  0  0  0
 39 64  1  0  0  0
 39 67  2  0  0  0
 40 52  1  0  0  0
 40 53  2  0  0  0
 40 58  1  0  0  0
 41103  1  0  0  0
 41104  1  0  0  0
 41105  1  0  0  0
 41 48  1  0  0  0
 42 43  1  0  0  0
 42 66  1  0  0  0
 42106  1  0  0  0
 42107  1  0  0  0
 43 44  1  0  0  0
 44108  1  0  0  0
 45 46  2  0  0  0
 45109  1  0  0  0
 46110  1  0  0  0
 47111  1  0  0  0
 47112  1  0  0  0
 48 56  1  0  0  0
 48 65  1  0  0  0
 48113  1  0  0  0
 49 50  1  0  0  0
 49 53  1  0  0  0
 49 64  1  0  0  0
 49114  1  0  0  0
 50 51  1  0  0  0
 50115  1  0  0  0
 50116  1  0  0  0
 51 52  1  0  0  0
 51117  1  0  0  0
 51118  1  0  0  0
 52119  1  0  0  0
 52120  1  0  0  0
 53 54  1  0  0  0
 54 55  2  0  0  0
 54121  1  0  0  0
 55 57  1  0  0  0
 55122  1  0  0  0
 56 69  2  0  0  0
 57 58  2  0  0  0
 57123  1  0  0  0
 58124  1  0  0  0
 59 60  1  0  0  0
 59 61  1  0  0  0
 59 62  1  0  0  0
 60125  1  0  0  0
 60126  1  0  0  0
 60127  1  0  0  0
 61128  1  0  0  0
 61129  1  0  0  0
 61130  1  0  0  0
 62131  1  0  0  0
 62132  1  0  0  0
 62133  1  0  0  0
 63 65  1  0  0  0
 63134  1  0  0  0
 63135  1  0  0  0
 63136  1  0  0  0
 64137  1  0  0  0
 65138  1  0  0  0
 68 77  1  0  0  0
 71 72  1  0  0  0
 71 73  2  0  0  0
 71139  1  0  0  0
 72 74  2  0  0  0
 72140  1  0  0  0
 73 78  1  0  0  0
 73141  1  0  0  0
 74 75  1  0  0  0
 74 78  1  0  0  0
 75 79  1  0  0  0
 75142  1  0  0  0
 75143  1  0  0  0
 76 77  1  0  0  0
 76 78  1  0  0  0
 76144  1  0  0  0
 76145  1  0  0  0
 77146  1  0  0  0
 77147  1  0  0  0
 79148  1  0  0  0
M  ISO  4   1 100  68 101  77 101  79 100
M  END
> <chiral flag>
0

> <version>
0

> <s_m_source_file>
/data/baiqing/PycharmProjects/Reinvent-master-3.2/result/LINK_invent/BTK/process_docking_weight1_custom_sum_contain_oxygen_bond_distance_aromatic_linkinvent_7_9_3/rearranged_h_0117.sdf

> <i_m_source_file_index>
70

> <r_mmod_Potential_Energy-OPLS-2005>
1367.59924316406

> <r_mmod_Stretch_Energy-OPLS-2005>
664.463928222656

> <r_mmod_Bend_Energy-OPLS-2005>
504.992950439453

> <r_mmod_Torsional_Energy-OPLS-2005>
213.954727172852

> <r_mmod_Improper_Torsional_Energy-OPLS-2005>
3.93369126319885

> <r_mmod_Van_der_Waal_Energy-OPLS-2005>
107.784873962402

> <r_mmod_Electrostatic_Energy-OPLS-2005>
-382.770721435547

> <r_mmod_Solvation_Energy-OPLS-2005>
-222.682189941406

> <b_mmod_Minimization_Converged-OPLS-2005>
0

> <r_mmod_RMS_Derivative-OPLS-2005>
0.295470982789993

$$$$
71
                    3D
 Structure written by MMmdl.
152160  0  0  1  0            999 V2000
  -30.6604  -14.5740   20.5437 C   0  0  0  0  0  0
  -30.4336  -12.3668   19.4358 C   0  0  0  0  0  0
  -29.5033  -12.5095   18.2121 C   0  0  0  0  0  0
  -28.0242  -12.3583   18.6230 C   0  0  0  0  0  0
  -27.6552  -13.2147   19.8648 C   0  0  2  0  0  0
  -28.6993  -13.0448   20.9899 C   0  0  0  0  0  0
  -25.2560  -13.8174   20.5686 C   0  0  0  0  0  0
  -24.1828  -13.0444   20.9195 C   0  0  0  0  0  0
  -24.6392  -11.6914   20.8739 C   0  0  0  0  0  0
  -23.9065  -10.4298   21.0410 C   0  0  0  0  0  0
  -24.3620   -9.4215   21.9188 C   0  0  0  0  0  0
  -23.6299   -8.2246   22.0752 C   0  0  0  0  0  0
  -22.4280   -8.0285   21.3548 C   0  0  0  0  0  0
  -21.9913   -9.0258   20.4652 C   0  0  0  0  0  0
  -22.7238  -10.2139   20.3059 C   0  0  0  0  0  0
  -21.6854   -6.0742   22.5286 C   0  0  0  0  0  0
  -21.4015   -6.5644   23.8221 C   0  0  0  0  0  0
  -21.3659   -5.6793   24.9178 C   0  0  0  0  0  0
  -21.6044   -4.3057   24.7223 C   0  0  0  0  0  0
  -21.8816   -3.8152   23.4343 C   0  0  0  0  0  0
  -21.9188   -4.6969   22.3403 C   0  0  0  0  0  0
  -22.7851  -13.5239   21.1852 C   0  0  0  0  0  0
  -22.1659   -4.2155   21.0980 F   0  0  0  0  0  0
  -21.5620   -3.4541   25.7732 F   0  0  0  0  0  0
  -30.0173  -13.3750   20.4254 N   0  0  0  0  0  0
  -26.2995  -12.9352   20.3321 N   0  0  0  0  0  0
  -25.9322  -11.6511   20.5752 N   0  0  0  0  0  0
  -22.0476  -12.8245   22.0410 N   0  0  0  0  0  0
  -25.4256  -15.1896   20.4093 N   0  0  0  0  0  0
  -31.8165  -14.7416   20.1468 O   0  0  0  0  0  0
  -21.6643   -6.8884   21.4250 O   0  0  0  0  0  0
  -22.3545  -14.5546   20.6695 O   0  0  0  0  0  0
  -24.6199  -31.8631   23.2044 C   0  0  0  0  0  0
  -25.9056  -32.4798   23.8370 C   0  0  1  0  0  0
  -27.2353  -27.3764   20.1229 C   0  0  0  0  0  0
  -25.5891  -33.8603   24.2301 N   0  0  0  0  0  0
  -23.4117  -30.4838   21.5452 C   0  0  2  0  0  0
  -24.8610  -28.9376   20.1175 C   0  0  0  0  0  0
  -22.7442  -29.4628   22.4962 C   0  0  0  0  0  0
  -18.0275  -28.1374   22.8490 C   0  0  0  0  0  0
  -24.1483  -36.7314   23.2639 C   0  0  0  0  0  0
  -25.9443  -30.8150   21.3625 C   0  0  0  0  0  0
  -26.0236  -29.4424   20.7139 C   0  0  0  0  0  0
  -27.2165  -28.6733   20.7039 C   0  0  0  0  0  0
  -26.0549  -26.8964   19.5183 C   0  0  0  0  0  0
  -24.8751  -27.6680   19.5118 C   0  0  0  0  0  0
  -23.6246  -29.8118   20.1614 C   0  0  0  0  0  0
  -25.4103  -36.3104   24.0336 C   0  0  1  0  0  0
  -20.5869  -28.3668   23.1308 C   0  0  2  0  0  0
  -20.6765  -26.9400   22.5421 C   0  0  0  0  0  0
  -19.5741  -26.6374   21.5220 C   0  0  0  0  0  0
  -18.1920  -26.7914   22.1630 C   0  0  0  0  0  0
  -19.1525  -28.8837   23.2898 C   0  0  0  0  0  0
  -18.9451  -30.1440   23.8908 C   0  0  0  0  0  0
  -17.6454  -30.6579   24.0562 C   0  0  0  0  0  0
  -25.9033  -34.9467   23.5119 C   0  0  0  0  0  0
  -16.5346  -29.9082   23.6319 C   0  0  0  0  0  0
  -16.7266  -28.6501   23.0342 C   0  0  0  0  0  0
  -26.4463  -31.6600   25.0724 C   0  0  0  0  0  0
  -25.3723  -31.3728   26.1472 C   0  0  0  0  0  0
  -27.0289  -30.3034   24.6122 C   0  0  0  0  0  0
  -27.6029  -32.4325   25.7494 C   0  0  0  0  0  0
  -27.5575  -37.1815   24.8461 C   0  0  0  0  0  0
  -21.4161  -29.3035   22.3713 N   0  0  0  0  0  0
  -26.4286  -37.3793   23.9407 N   0  0  0  0  0  0
  -24.6768  -31.0693   22.0954 N   0  0  0  0  0  0
  -23.4198  -28.8176   23.3018 O   0  0  0  0  0  0
  -28.3872  -26.6017   20.1054 O   0  0  0  0  0  0
  -26.5608  -34.8928   22.4687 O   0  0  0  0  0  0
  -23.5373  -32.1391   23.7413 O   0  0  0  0  0  0
  -30.4523  -18.1153   19.0348 C   0  0  0  0  0  0
  -29.8719  -20.3355   18.7324 C   0  0  0  0  0  0
  -30.0698  -18.1791   20.3949 C   0  0  0  0  0  0
  -29.4734  -20.4400   20.0898 C   0  0  0  0  0  0
  -30.3515  -16.9901   21.3538 C   0  0  0  0  0  0
  -28.6935  -24.0650   19.7469 C   0  0  0  0  0  0
  -28.3301  -25.2669   20.6952 C   0  0  0  0  0  0
  -29.5736  -22.8880   20.3270 C   0  0  0  0  0  0
  -30.3516  -19.1819   18.2029 N   0  0  0  0  0  0
  -29.5609  -19.3468   20.9159 N   0  0  0  0  0  0
  -29.9094  -15.6153   20.9837 N   0  0  0  0  0  0
  -28.9436  -21.6119   20.6406 O   0  0  0  0  0  0
  -31.4766  -12.4879   19.1370 H   0  0  0  0  0  0
  -30.3601  -11.3662   19.8647 H   0  0  0  0  0  0
  -29.7602  -11.7670   17.4555 H   0  0  0  0  0  0
  -29.6561  -13.4845   17.7453 H   0  0  0  0  0  0
  -27.8485  -11.3034   18.8372 H   0  0  0  0  0  0
  -27.3730  -12.6112   17.7856 H   0  0  0  0  0  0
  -27.6813  -14.2559   19.5420 H   0  0  0  0  0  0
  -28.6985  -12.0185   21.3602 H   0  0  0  0  0  0
  -28.4506  -13.6678   21.8509 H   0  0  0  0  0  0
  -25.2767   -9.5691   22.4766 H   0  0  0  0  0  0
  -24.0010   -7.4635   22.7471 H   0  0  0  0  0  0
  -21.0839   -8.8787   19.8965 H   0  0  0  0  0  0
  -22.3704  -10.9681   19.6168 H   0  0  0  0  0  0
  -21.2024   -7.6155   23.9726 H   0  0  0  0  0  0
  -21.1480   -6.0525   25.9082 H   0  0  0  0  0  0
  -22.0595   -2.7614   23.2843 H   0  0  0  0  0  0
  -22.4073  -11.9922   22.4843 H   0  0  0  0  0  0
  -21.1093  -13.1288   22.2583 H   0  0  0  0  0  0
  -24.6572  -15.8427   20.5225 H   0  0  0  0  0  0
  -26.2715  -15.6307   20.0715 H   0  0  0  0  0  0
  -26.7135  -32.5499   23.1142 H   0  0  0  0  0  0
  -25.0046  -33.9761   25.0446 H   0  0  0  0  0  0
  -22.7028  -31.3023   21.4020 H   0  0  0  0  0  0
  -23.3740  -35.9653   23.3305 H   0  0  0  0  0  0
  -24.3575  -36.8926   22.2053 H   0  0  0  0  0  0
  -23.7244  -37.6521   23.6653 H   0  0  0  0  0  0
  -26.0594  -31.5764   20.5902 H   0  0  0  0  0  0
  -26.8305  -30.8727   21.9829 H   0  0  0  0  0  0
  -28.1154  -29.0625   21.1617 H   0  0  0  0  0  0
  -26.0480  -25.9214   19.0518 H   0  0  0  0  0  0
  -23.9828  -27.2760   19.0435 H   0  0  0  0  0  0
  -23.7387  -30.5850   19.4005 H   0  0  0  0  0  0
  -22.7473  -29.2352   19.8640 H   0  0  0  0  0  0
  -25.1282  -36.1966   25.0830 H   0  0  0  0  0  0
  -20.9966  -28.3228   24.1428 H   0  0  0  0  0  0
  -20.5661  -26.2277   23.3611 H   0  0  0  0  0  0
  -21.6634  -26.7427   22.1221 H   0  0  0  0  0  0
  -19.6902  -25.6287   21.1243 H   0  0  0  0  0  0
  -19.6676  -27.3190   20.6753 H   0  0  0  0  0  0
  -17.4195  -26.6663   21.4029 H   0  0  0  0  0  0
  -18.0319  -26.0057   22.9026 H   0  0  0  0  0  0
  -19.7929  -30.7251   24.2287 H   0  0  0  0  0  0
  -17.5008  -31.6257   24.5162 H   0  0  0  0  0  0
  -15.5346  -30.2991   23.7623 H   0  0  0  0  0  0
  -15.8669  -28.0823   22.7044 H   0  0  0  0  0  0
  -24.5884  -30.7085   25.7813 H   0  0  0  0  0  0
  -24.8932  -32.2897   26.4922 H   0  0  0  0  0  0
  -25.8070  -30.8897   27.0233 H   0  0  0  0  0  0
  -26.2843  -29.6817   24.1132 H   0  0  0  0  0  0
  -27.3991  -29.7253   25.4599 H   0  0  0  0  0  0
  -27.8709  -30.4338   23.9320 H   0  0  0  0  0  0
  -27.2635  -33.3617   26.2087 H   0  0  0  0  0  0
  -28.3831  -32.6900   25.0318 H   0  0  0  0  0  0
  -28.0701  -31.8442   26.5402 H   0  0  0  0  0  0
  -28.2602  -38.0105   24.7501 H   0  0  0  0  0  0
  -28.1062  -36.2637   24.6288 H   0  0  0  0  0  0
  -27.2297  -37.1470   25.8867 H   0  0  0  0  0  0
  -20.9324  -29.8778   21.6951 H   0  0  0  0  0  0
  -26.0170  -38.2869   24.1407 H   0  0  0  0  0  0
  -30.8793  -17.2123   18.6226 H   0  0  0  0  0  0
  -29.7919  -21.1769   18.0591 H   0  0  0  0  0  0
  -29.8926  -17.2206   22.3160 H   0  0  0  0  0  0
  -31.4253  -16.9794   21.5480 H   0  0  0  0  0  0
  -29.2700  -24.4947   18.9273 H   0  0  0  0  0  0
  -27.7936  -23.6712   19.2739 H   0  0  0  0  0  0
  -29.0462  -25.2874   21.5167 H   0  0  0  0  0  0
  -27.3663  -25.0802   21.1716 H   0  0  0  0  0  0
  -30.0502  -23.2288   21.2461 H   0  0  0  0  0  0
  -30.4148  -22.7368   19.6497 H   0  0  0  0  0  0
  -28.9547  -15.3915   21.2173 H   0  0  0  0  0  0
  1 25  1  0  0  0
  1 30  2  0  0  0
  1 81  1  0  0  0
  2  3  1  0  0  0
  2 25  1  0  0  0
  2 83  1  0  0  0
  2 84  1  0  0  0
  3  4  1  0  0  0
  3 85  1  0  0  0
  3 86  1  0  0  0
  4  5  1  0  0  0
  4 87  1  0  0  0
  4 88  1  0  0  0
  5  6  1  0  0  0
  5 26  1  0  0  0
  5 89  1  0  0  0
  6 25  1  0  0  0
  6 90  1  0  0  0
  6 91  1  0  0  0
  7  8  2  0  0  0
  7 26  1  0  0  0
  7 29  1  0  0  0
  8  9  1  0  0  0
  8 22  1  0  0  0
  9 10  1  0  0  0
  9 27  2  0  0  0
 10 11  2  0  0  0
 10 15  1  0  0  0
 11 12  1  0  0  0
 11 92  1  0  0  0
 12 13  2  0  0  0
 12 93  1  0  0  0
 13 14  1  0  0  0
 13 31  1  0  0  0
 14 15  2  0  0  0
 14 94  1  0  0  0
 15 95  1  0  0  0
 16 17  2  0  0  0
 16 21  1  0  0  0
 16 31  1  0  0  0
 17 18  1  0  0  0
 17 96  1  0  0  0
 18 19  2  0  0  0
 18 97  1  0  0  0
 19 20  1  0  0  0
 19 24  1  0  0  0
 20 21  2  0  0  0
 20 98  1  0  0  0
 21 23  1  0  0  0
 22 28  1  0  0  0
 22 32  2  0  0  0
 26 27  1  0  0  0
 28 99  1  0  0  0
 28100  1  0  0  0
 29101  1  0  0  0
 29102  1  0  0  0
 33 34  1  0  0  0
 33 66  1  0  0  0
 33 70  2  0  0  0
 34 36  1  0  0  0
 34 59  1  0  0  0
 34103  1  0  0  0
 35 44  2  0  0  0
 35 45  1  0  0  0
 35 68  1  0  0  0
 36 56  1  0  0  0
 36104  1  0  0  0
 37 39  1  0  0  0
 37 47  1  0  0  0
 37 66  1  0  0  0
 37105  1  0  0  0
 38 43  2  0  0  0
 38 46  1  0  0  0
 38 47  1  0  0  0
 39 64  1  0  0  0
 39 67  2  0  0  0
 40 52  1  0  0  0
 40 53  2  0  0  0
 40 58  1  0  0  0
 41106  1  0  0  0
 41107  1  0  0  0
 41108  1  0  0  0
 41 48  1  0  0  0
 42 43  1  0  0  0
 42 66  1  0  0  0
 42109  1  0  0  0
 42110  1  0  0  0
 43 44  1  0  0  0
 44111  1  0  0  0
 45 46  2  0  0  0
 45112  1  0  0  0
 46113  1  0  0  0
 47114  1  0  0  0
 47115  1  0  0  0
 48 56  1  0  0  0
 48 65  1  0  0  0
 48116  1  0  0  0
 49 50  1  0  0  0
 49 53  1  0  0  0
 49 64  1  0  0  0
 49117  1  0  0  0
 50 51  1  0  0  0
 50118  1  0  0  0
 50119  1  0  0  0
 51 52  1  0  0  0
 51120  1  0  0  0
 51121  1  0  0  0
 52122  1  0  0  0
 52123  1  0  0  0
 53 54  1  0  0  0
 54 55  2  0  0  0
 54124  1  0  0  0
 55 57  1  0  0  0
 55125  1  0  0  0
 56 69  2  0  0  0
 57 58  2  0  0  0
 57126  1  0  0  0
 58127  1  0  0  0
 59 60  1  0  0  0
 59 61  1  0  0  0
 59 62  1  0  0  0
 60128  1  0  0  0
 60129  1  0  0  0
 60130  1  0  0  0
 61131  1  0  0  0
 61132  1  0  0  0
 61133  1  0  0  0
 62134  1  0  0  0
 62135  1  0  0  0
 62136  1  0  0  0
 63 65  1  0  0  0
 63137  1  0  0  0
 63138  1  0  0  0
 63139  1  0  0  0
 64140  1  0  0  0
 65141  1  0  0  0
 68 77  1  0  0  0
 71 73  2  0  0  0
 71 79  1  0  0  0
 71142  1  0  0  0
 72 74  1  0  0  0
 72 79  2  0  0  0
 72143  1  0  0  0
 73 75  1  0  0  0
 73 80  1  0  0  0
 74 80  2  0  0  0
 74 82  1  0  0  0
 75 81  1  0  0  0
 75144  1  0  0  0
 75145  1  0  0  0
 76 77  1  0  0  0
 76 78  1  0  0  0
 76146  1  0  0  0
 76147  1  0  0  0
 77148  1  0  0  0
 77149  1  0  0  0
 78 82  1  0  0  0
 78150  1  0  0  0
 78151  1  0  0  0
 81152  1  0  0  0
M  ISO  4   1 100  68 101  77 101  81 100
M  END
> <chiral flag>
0

> <version>
0

> <s_m_source_file>
/data/baiqing/PycharmProjects/Reinvent-master-3.2/result/LINK_invent/BTK/process_docking_weight1_custom_sum_contain_oxygen_bond_distance_aromatic_linkinvent_7_9_3/rearranged_h_0117.sdf

> <i_m_source_file_index>
71

> <r_mmod_Potential_Energy-OPLS-2005>
31.8556308746338

> <r_mmod_Stretch_Energy-OPLS-2005>
59.7706985473633

> <r_mmod_Bend_Energy-OPLS-2005>
123.772262573242

> <r_mmod_Torsional_Energy-OPLS-2005>
246.541458129883

> <r_mmod_Improper_Torsional_Energy-OPLS-2005>
3.89123439788818

> <r_mmod_Van_der_Waal_Energy-OPLS-2005>
147.574935913086

> <r_mmod_Electrostatic_Energy-OPLS-2005>
-352.349182128906

> <r_mmod_Solvation_Energy-OPLS-2005>
-224.527679443359

> <b_mmod_Minimization_Converged-OPLS-2005>
0

> <r_mmod_RMS_Derivative-OPLS-2005>
1.28396797180176

$$$$
72
                    3D
 Structure written by MMmdl.
165173  0  0  1  0            999 V2000
  -30.7683  -14.4376   20.5516 C   0  0  0  0  0  0
  -30.3997  -12.2878   19.4199 C   0  0  0  0  0  0
  -29.4796  -12.5150   18.2057 C   0  0  0  0  0  0
  -28.0000  -12.3932   18.6214 C   0  0  0  0  0  0
  -27.6603  -13.2261   19.8899 C   0  0  2  0  0  0
  -28.7096  -13.0154   21.0053 C   0  0  0  0  0  0
  -25.2524  -13.8251   20.5670 C   0  0  0  0  0  0
  -24.1793  -13.0480   20.9141 C   0  0  0  0  0  0
  -24.6389  -11.6962   20.8718 C   0  0  0  0  0  0
  -23.9078  -10.4352   21.0379 C   0  0  0  0  0  0
  -24.3652   -9.4290   21.9176 C   0  0  0  0  0  0
  -23.6353   -8.2302   22.0779 C   0  0  0  0  0  0
  -22.4333   -8.0306   21.3566 C   0  0  0  0  0  0
  -21.9945   -9.0275   20.4661 C   0  0  0  0  0  0
  -22.7254  -10.2181   20.3044 C   0  0  0  0  0  0
  -21.6896   -6.0772   22.5282 C   0  0  0  0  0  0
  -21.4031   -6.5674   23.8215 C   0  0  0  0  0  0
  -21.3636   -5.6814   24.9170 C   0  0  0  0  0  0
  -21.6033   -4.3084   24.7214 C   0  0  0  0  0  0
  -21.8842   -3.8165   23.4338 C   0  0  0  0  0  0
  -21.9229   -4.6991   22.3400 C   0  0  0  0  0  0
  -22.7830  -13.5258   21.1799 C   0  0  0  0  0  0
  -22.1702   -4.2187   21.0970 F   0  0  0  0  0  0
  -21.5589   -3.4544   25.7718 F   0  0  0  0  0  0
  -30.0369  -13.2944   20.4332 N   0  0  0  0  0  0
  -26.3013  -12.9449   20.3488 N   0  0  0  0  0  0
  -25.9327  -11.6587   20.5817 N   0  0  0  0  0  0
  -22.0484  -12.8239   22.0365 N   0  0  0  0  0  0
  -25.4165  -15.1974   20.4025 N   0  0  0  0  0  0
  -31.9063  -14.5361   20.0808 O   0  0  0  0  0  0
  -21.6717   -6.8905   21.4244 O   0  0  0  0  0  0
  -22.3499  -14.5565   20.6640 O   0  0  0  0  0  0
  -24.6135  -31.8646   23.2060 C   0  0  0  0  0  0
  -25.9022  -32.4808   23.8328 C   0  0  1  0  0  0
  -27.2227  -27.4156   20.0963 C   0  0  0  0  0  0
  -25.5914  -33.8602   24.2304 N   0  0  0  0  0  0
  -23.3988  -30.4867   21.5511 C   0  0  2  0  0  0
  -24.8427  -28.9540   20.1056 C   0  0  0  0  0  0
  -22.7383  -29.4619   22.5017 C   0  0  0  0  0  0
  -18.0284  -28.1335   22.8483 C   0  0  0  0  0  0
  -24.1516  -36.7298   23.2647 C   0  0  0  0  0  0
  -25.9267  -30.8300   21.3522 C   0  0  0  0  0  0
  -26.0028  -29.4605   20.7057 C   0  0  0  0  0  0
  -27.1921  -28.6960   20.6989 C   0  0  0  0  0  0
  -26.0431  -26.9322   19.4849 C   0  0  0  0  0  0
  -24.8586  -27.6910   19.4940 C   0  0  0  0  0  0
  -23.6005  -29.8157   20.1653 C   0  0  0  0  0  0
  -25.4142  -36.3113   24.0348 C   0  0  1  0  0  0
  -20.5855  -28.3608   23.1357 C   0  0  2  0  0  0
  -20.6780  -26.9345   22.5452 C   0  0  0  0  0  0
  -19.5777  -26.6346   21.5226 C   0  0  0  0  0  0
  -18.1931  -26.7896   22.1592 C   0  0  0  0  0  0
  -19.1529  -28.8787   23.2910 C   0  0  0  0  0  0
  -18.9458  -30.1402   23.8904 C   0  0  0  0  0  0
  -17.6467  -30.6554   24.0533 C   0  0  0  0  0  0
  -25.9062  -34.9458   23.5136 C   0  0  0  0  0  0
  -16.5342  -29.9046   23.6330 C   0  0  0  0  0  0
  -16.7274  -28.6446   23.0366 C   0  0  0  0  0  0
  -26.4454  -31.6552   25.0645 C   0  0  0  0  0  0
  -25.3729  -31.3599   26.1402 C   0  0  0  0  0  0
  -27.0295  -30.3030   24.5940 C   0  0  0  0  0  0
  -27.6059  -32.4231   25.7421 C   0  0  0  0  0  0
  -27.5610  -37.1800   24.8473 C   0  0  0  0  0  0
  -21.4123  -29.2986   22.3758 N   0  0  0  0  0  0
  -26.4317  -37.3800   23.9403 N   0  0  0  0  0  0
  -24.6648  -31.0744   22.0962 N   0  0  0  0  0  0
  -23.4162  -28.8202   23.3083 O   0  0  0  0  0  0
  -28.4045  -26.6969   20.1439 O   0  0  0  0  0  0
  -26.5620  -34.8908   22.4700 O   0  0  0  0  0  0
  -23.5326  -32.1433   23.7454 O   0  0  0  0  0  0
  -30.3566  -19.0662   22.2450 C   0  0  0  0  0  0
  -30.0776  -18.0776   21.2723 C   0  0  0  0  0  0
  -28.5753  -19.5298   20.2543 C   0  0  0  0  0  0
  -28.8824  -20.5279   21.2353 C   0  0  0  0  0  0
  -26.5162  -18.6886   18.9397 C   0  0  0  0  0  0
  -28.3533  -20.0073   17.7798 C   0  0  0  0  0  0
  -26.6669  -24.2206   21.1849 C   0  0  0  0  0  0
  -30.9084  -16.7945   21.2313 C   0  0  0  0  0  0
  -28.6426  -22.8219   20.3396 C   0  0  0  0  0  0
  -28.4720  -25.3262   19.6967 C   0  0  0  0  0  0
  -27.5963  -19.7813   19.0995 C   0  0  0  0  0  0
  -28.1553  -24.2400   20.7716 C   0  0  1  0  0  0
  -29.7588  -20.2782   22.2296 N   0  0  0  0  0  0
  -29.1849  -18.3074   20.2726 N   0  0  0  0  0  0
  -28.2928  -21.7969   21.3266 N   0  0  0  0  0  0
  -30.1823  -15.5171   21.0908 N   0  0  0  0  0  0
  -31.4475  -12.3522   19.1114 H   0  0  0  0  0  0
  -30.2565  -11.2804   19.8183 H   0  0  0  0  0  0
  -29.7071  -11.7956   17.4174 H   0  0  0  0  0  0
  -29.6626  -13.4999   17.7765 H   0  0  0  0  0  0
  -27.7953  -11.3360   18.8019 H   0  0  0  0  0  0
  -27.3491  -12.6940   17.8003 H   0  0  0  0  0  0
  -27.6969  -14.2783   19.6079 H   0  0  0  0  0  0
  -28.6735  -11.9823   21.3587 H   0  0  0  0  0  0
  -28.4930  -13.6329   21.8791 H   0  0  0  0  0  0
  -25.2824   -9.5798   22.4739 H   0  0  0  0  0  0
  -24.0064   -7.4702   22.7520 H   0  0  0  0  0  0
  -21.0844   -8.8778   19.8991 H   0  0  0  0  0  0
  -22.3658  -10.9696   19.6158 H   0  0  0  0  0  0
  -21.2035   -7.6196   23.9742 H   0  0  0  0  0  0
  -21.1418   -6.0539   25.9081 H   0  0  0  0  0  0
  -22.0637   -2.7622   23.2823 H   0  0  0  0  0  0
  -22.4149  -11.9938   22.4766 H   0  0  0  0  0  0
  -21.1100  -13.1232   22.2617 H   0  0  0  0  0  0
  -24.6292  -15.8321   20.4808 H   0  0  0  0  0  0
  -26.2666  -15.6552   20.0973 H   0  0  0  0  0  0
  -26.7080  -32.5530   23.1062 H   0  0  0  0  0  0
  -25.0108  -33.9743   25.0491 H   0  0  0  0  0  0
  -22.6888  -31.3041   21.4106 H   0  0  0  0  0  0
  -23.3785  -35.9625   23.3325 H   0  0  0  0  0  0
  -24.3611  -36.8906   22.2061 H   0  0  0  0  0  0
  -23.7245  -37.6507   23.6641 H   0  0  0  0  0  0
  -26.0253  -31.5839   20.5719 H   0  0  0  0  0  0
  -26.8198  -30.8934   21.9629 H   0  0  0  0  0  0
  -28.0866  -29.0780   21.1703 H   0  0  0  0  0  0
  -26.0024  -25.9603   19.0173 H   0  0  0  0  0  0
  -23.9617  -27.2927   19.0405 H   0  0  0  0  0  0
  -23.6860  -30.5863   19.3976 H   0  0  0  0  0  0
  -22.7268  -29.2251   19.8884 H   0  0  0  0  0  0
  -25.1303  -36.1997   25.0843 H   0  0  0  0  0  0
  -20.9926  -28.3137   24.1484 H   0  0  0  0  0  0
  -20.5722  -26.2156   23.3609 H   0  0  0  0  0  0
  -21.6646  -26.7437   22.1222 H   0  0  0  0  0  0
  -19.6955  -25.6277   21.1228 H   0  0  0  0  0  0
  -19.6756  -27.3169   20.6774 H   0  0  0  0  0  0
  -17.4238  -26.6689   21.3951 H   0  0  0  0  0  0
  -18.0256  -26.0020   22.8954 H   0  0  0  0  0  0
  -19.7946  -30.7205   24.2264 H   0  0  0  0  0  0
  -17.5038  -31.6256   24.5086 H   0  0  0  0  0  0
  -15.5345  -30.2936   23.7694 H   0  0  0  0  0  0
  -15.8671  -28.0776   22.7107 H   0  0  0  0  0  0
  -24.6013  -30.6821   25.7734 H   0  0  0  0  0  0
  -24.8767  -32.2710   26.4768 H   0  0  0  0  0  0
  -25.8112  -30.8867   27.0203 H   0  0  0  0  0  0
  -26.2795  -29.6739   24.1139 H   0  0  0  0  0  0
  -27.4319  -29.7292   25.4291 H   0  0  0  0  0  0
  -27.8490  -30.4419   23.8881 H   0  0  0  0  0  0
  -27.2772  -33.3598   26.1927 H   0  0  0  0  0  0
  -28.3919  -32.6657   25.0253 H   0  0  0  0  0  0
  -28.0651  -31.8356   26.5389 H   0  0  0  0  0  0
  -28.2617  -38.0113   24.7547 H   0  0  0  0  0  0
  -28.1106  -36.2637   24.6261 H   0  0  0  0  0  0
  -27.2305  -37.1418   25.8871 H   0  0  0  0  0  0
  -20.9281  -29.8633   21.6945 H   0  0  0  0  0  0
  -26.0216  -38.2884   24.1408 H   0  0  0  0  0  0
  -31.1093  -18.9101   23.0076 H   0  0  0  0  0  0
  -26.2100  -18.2602   19.8938 H   0  0  0  0  0  0
  -26.8648  -17.8727   18.3069 H   0  0  0  0  0  0
  -25.6182  -19.0938   18.4719 H   0  0  0  0  0  0
  -29.0367  -20.8522   17.8585 H   0  0  0  0  0  0
  -27.6701  -20.2167   16.9557 H   0  0  0  0  0  0
  -28.9436  -19.1292   17.5124 H   0  0  0  0  0  0
  -26.0153  -23.9513   20.3530 H   0  0  0  0  0  0
  -26.3402  -25.1870   21.5687 H   0  0  0  0  0  0
  -26.4826  -23.5083   21.9871 H   0  0  0  0  0  0
  -31.6046  -16.9421   20.4018 H   0  0  0  0  0  0
  -31.5477  -16.7314   22.1157 H   0  0  0  0  0  0
  -29.7308  -22.8459   20.2195 H   0  0  0  0  0  0
  -28.2275  -22.5626   19.3642 H   0  0  0  0  0  0
  -27.9272  -25.1547   18.7701 H   0  0  0  0  0  0
  -29.5153  -25.1954   19.4126 H   0  0  0  0  0  0
  -27.0492  -20.6962   19.3265 H   0  0  0  0  0  0
  -28.7237  -24.5106   21.6618 H   0  0  0  0  0  0
  -28.3991  -22.1669   22.2650 H   0  0  0  0  0  0
  -29.2274  -15.4665   21.4182 H   0  0  0  0  0  0
  1 25  1  0  0  0
  1 30  2  0  0  0
  1 86  1  0  0  0
  2  3  1  0  0  0
  2 25  1  0  0  0
  2 87  1  0  0  0
  2 88  1  0  0  0
  3  4  1  0  0  0
  3 89  1  0  0  0
  3 90  1  0  0  0
  4  5  1  0  0  0
  4 91  1  0  0  0
  4 92  1  0  0  0
  5  6  1  0  0  0
  5 26  1  0  0  0
  5 93  1  0  0  0
  6 25  1  0  0  0
  6 94  1  0  0  0
  6 95  1  0  0  0
  7  8  2  0  0  0
  7 26  1  0  0  0
  7 29  1  0  0  0
  8  9  1  0  0  0
  8 22  1  0  0  0
  9 10  1  0  0  0
  9 27  2  0  0  0
 10 11  2  0  0  0
 10 15  1  0  0  0
 11 12  1  0  0  0
 11 96  1  0  0  0
 12 13  2  0  0  0
 12 97  1  0  0  0
 13 14  1  0  0  0
 13 31  1  0  0  0
 14 15  2  0  0  0
 14 98  1  0  0  0
 15 99  1  0  0  0
 16 17  2  0  0  0
 16 21  1  0  0  0
 16 31  1  0  0  0
 17 18  1  0  0  0
 17100  1  0  0  0
 18 19  2  0  0  0
 18101  1  0  0  0
 19 20  1  0  0  0
 19 24  1  0  0  0
 20 21  2  0  0  0
 20102  1  0  0  0
 21 23  1  0  0  0
 22 28  1  0  0  0
 22 32  2  0  0  0
 26 27  1  0  0  0
 28103  1  0  0  0
 28104  1  0  0  0
 29105  1  0  0  0
 29106  1  0  0  0
 33 34  1  0  0  0
 33 66  1  0  0  0
 33 70  2  0  0  0
 34 36  1  0  0  0
 34 59  1  0  0  0
 34107  1  0  0  0
 35 44  2  0  0  0
 35 45  1  0  0  0
 35 68  1  0  0  0
 36 56  1  0  0  0
 36108  1  0  0  0
 37 39  1  0  0  0
 37 47  1  0  0  0
 37 66  1  0  0  0
 37109  1  0  0  0
 38 43  2  0  0  0
 38 46  1  0  0  0
 38 47  1  0  0  0
 39 64  1  0  0  0
 39 67  2  0  0  0
 40 52  1  0  0  0
 40 53  2  0  0  0
 40 58  1  0  0  0
 41110  1  0  0  0
 41111  1  0  0  0
 41112  1  0  0  0
 41 48  1  0  0  0
 42 43  1  0  0  0
 42 66  1  0  0  0
 42113  1  0  0  0
 42114  1  0  0  0
 43 44  1  0  0  0
 44115  1  0  0  0
 45 46  2  0  0  0
 45116  1  0  0  0
 46117  1  0  0  0
 47118  1  0  0  0
 47119  1  0  0  0
 48 56  1  0  0  0
 48 65  1  0  0  0
 48120  1  0  0  0
 49 50  1  0  0  0
 49 53  1  0  0  0
 49 64  1  0  0  0
 49121  1  0  0  0
 50 51  1  0  0  0
 50122  1  0  0  0
 50123  1  0  0  0
 51 52  1  0  0  0
 51124  1  0  0  0
 51125  1  0  0  0
 52126  1  0  0  0
 52127  1  0  0  0
 53 54  1  0  0  0
 54 55  2  0  0  0
 54128  1  0  0  0
 55 57  1  0  0  0
 55129  1  0  0  0
 56 69  2  0  0  0
 57 58  2  0  0  0
 57130  1  0  0  0
 58131  1  0  0  0
 59 60  1  0  0  0
 59 61  1  0  0  0
 59 62  1  0  0  0
 60132  1  0  0  0
 60133  1  0  0  0
 60134  1  0  0  0
 61135  1  0  0  0
 61136  1  0  0  0
 61137  1  0  0  0
 62138  1  0  0  0
 62139  1  0  0  0
 62140  1  0  0  0
 63 65  1  0  0  0
 63141  1  0  0  0
 63142  1  0  0  0
 63143  1  0  0  0
 64144  1  0  0  0
 65145  1  0  0  0
 68 80  1  0  0  0
 71 72  2  0  0  0
 71 83  1  0  0  0
 71146  1  0  0  0
 72 78  1  0  0  0
 72 84  1  0  0  0
 73 74  1  0  0  0
 73 81  1  0  0  0
 73 84  2  0  0  0
 74 83  2  0  0  0
 74 85  1  0  0  0
 75147  1  0  0  0
 75148  1  0  0  0
 75149  1  0  0  0
 75 81  1  0  0  0
 76 81  1  0  0  0
 76150  1  0  0  0
 76151  1  0  0  0
 76152  1  0  0  0
 77153  1  0  0  0
 77154  1  0  0  0
 77155  1  0  0  0
 77 82  1  0  0  0
 78 86  1  0  0  0
 78156  1  0  0  0
 78157  1  0  0  0
 79 82  1  0  0  0
 79 85  1  0  0  0
 79158  1  0  0  0
 79159  1  0  0  0
 80 82  1  0  0  0
 80160  1  0  0  0
 80161  1  0  0  0
 81162  1  0  0  0
 82163  1  0  0  0
 85164  1  0  0  0
 86165  1  0  0  0
M  ISO  4   1 100  68 101  80 101  86 100
M  END
> <chiral flag>
0

> <version>
0

> <s_m_source_file>
/data/baiqing/PycharmProjects/Reinvent-master-3.2/result/LINK_invent/BTK/process_docking_weight1_custom_sum_contain_oxygen_bond_distance_aromatic_linkinvent_7_9_3/rearranged_h_0117.sdf

> <i_m_source_file_index>
72

> <r_mmod_Potential_Energy-OPLS-2005>
-65.9085540771484

> <r_mmod_Stretch_Energy-OPLS-2005>
43.7908210754395

> <r_mmod_Bend_Energy-OPLS-2005>
126.365783691406

> <r_mmod_Torsional_Energy-OPLS-2005>
207.376190185547

> <r_mmod_Improper_Torsional_Energy-OPLS-2005>
8.49749660491943

> <r_mmod_Van_der_Waal_Energy-OPLS-2005>
158.083267211914

> <r_mmod_Electrostatic_Energy-OPLS-2005>
-414.931060791016

> <r_mmod_Solvation_Energy-OPLS-2005>
-211.730972290039

> <b_mmod_Minimization_Converged-OPLS-2005>
0

> <r_mmod_RMS_Derivative-OPLS-2005>
6.06673049926758

$$$$
73
                    3D
 Structure written by MMmdl.
173182  0  0  1  0            999 V2000
  -30.6461  -14.5637   20.5672 C   0  0  0  0  0  0
  -30.4326  -12.3671   19.4276 C   0  0  0  0  0  0
  -29.4958  -12.5093   18.2085 C   0  0  0  0  0  0
  -28.0209  -12.3432   18.6290 C   0  0  0  0  0  0
  -27.6507  -13.2068   19.8627 C   0  0  2  0  0  0
  -28.6928  -13.0292   20.9880 C   0  0  0  0  0  0
  -25.2550  -13.8150   20.5658 C   0  0  0  0  0  0
  -24.1815  -13.0440   20.9191 C   0  0  0  0  0  0
  -24.6370  -11.6898   20.8737 C   0  0  0  0  0  0
  -23.9033  -10.4289   21.0417 C   0  0  0  0  0  0
  -24.3597   -9.4208   21.9194 C   0  0  0  0  0  0
  -23.6286   -8.2234   22.0757 C   0  0  0  0  0  0
  -22.4262   -8.0278   21.3548 C   0  0  0  0  0  0
  -21.9894   -9.0243   20.4638 C   0  0  0  0  0  0
  -22.7211  -10.2126   20.3059 C   0  0  0  0  0  0
  -21.6858   -6.0724   22.5273 C   0  0  0  0  0  0
  -21.4014   -6.5631   23.8204 C   0  0  0  0  0  0
  -21.3663   -5.6793   24.9173 C   0  0  0  0  0  0
  -21.6046   -4.3054   24.7235 C   0  0  0  0  0  0
  -21.8814   -3.8139   23.4358 C   0  0  0  0  0  0
  -21.9190   -4.6949   22.3408 C   0  0  0  0  0  0
  -22.7835  -13.5241   21.1856 C   0  0  0  0  0  0
  -22.1653   -4.2136   21.0987 F   0  0  0  0  0  0
  -21.5632   -3.4536   25.7748 F   0  0  0  0  0  0
  -30.0102  -13.3648   20.4249 N   0  0  0  0  0  0
  -26.2965  -12.9309   20.3294 N   0  0  0  0  0  0
  -25.9299  -11.6473   20.5753 N   0  0  0  0  0  0
  -22.0485  -12.8238   22.0415 N   0  0  0  0  0  0
  -25.4262  -15.1867   20.4014 N   0  0  0  0  0  0
  -31.8050  -14.7430   20.1809 O   0  0  0  0  0  0
  -21.6634   -6.8871   21.4235 O   0  0  0  0  0  0
  -22.3529  -14.5553   20.6693 O   0  0  0  0  0  0
  -24.6204  -31.8620   23.2064 C   0  0  0  0  0  0
  -25.9078  -32.4783   23.8363 C   0  0  1  0  0  0
  -27.2149  -27.3764   20.1066 C   0  0  0  0  0  0
  -25.5895  -33.8580   24.2278 N   0  0  0  0  0  0
  -23.4098  -30.4883   21.5456 C   0  0  2  0  0  0
  -24.8522  -28.9491   20.1077 C   0  0  0  0  0  0
  -22.7422  -29.4645   22.4934 C   0  0  0  0  0  0
  -18.0264  -28.1393   22.8463 C   0  0  0  0  0  0
  -24.1489  -36.7320   23.2648 C   0  0  0  0  0  0
  -25.9467  -30.8105   21.3697 C   0  0  0  0  0  0
  -26.0174  -29.4461   20.7050 C   0  0  0  0  0  0
  -27.2072  -28.6717   20.6877 C   0  0  0  0  0  0
  -26.0352  -26.9156   19.4855 C   0  0  0  0  0  0
  -24.8574  -27.6851   19.4918 C   0  0  0  0  0  0
  -23.6181  -29.8232   20.1598 C   0  0  0  0  0  0
  -25.4108  -36.3076   24.0327 C   0  0  1  0  0  0
  -20.5860  -28.3671   23.1275 C   0  0  2  0  0  0
  -20.6757  -26.9388   22.5406 C   0  0  0  0  0  0
  -19.5731  -26.6367   21.5212 C   0  0  0  0  0  0
  -18.1906  -26.7930   22.1602 C   0  0  0  0  0  0
  -19.1518  -28.8836   23.2877 C   0  0  0  0  0  0
  -18.9458  -30.1445   23.8888 C   0  0  0  0  0  0
  -17.6468  -30.6594   24.0539 C   0  0  0  0  0  0
  -25.9049  -34.9449   23.5102 C   0  0  0  0  0  0
  -16.5349  -29.9093   23.6341 C   0  0  0  0  0  0
  -16.7259  -28.6512   23.0352 C   0  0  0  0  0  0
  -26.4479  -31.6584   25.0724 C   0  0  0  0  0  0
  -25.3750  -31.3714   26.1491 C   0  0  0  0  0  0
  -27.0322  -30.2998   24.6177 C   0  0  0  0  0  0
  -27.6008  -32.4349   25.7501 C   0  0  0  0  0  0
  -27.5563  -37.1803   24.8456 C   0  0  0  0  0  0
  -21.4142  -29.3043   22.3690 N   0  0  0  0  0  0
  -26.4256  -37.3783   23.9435 N   0  0  0  0  0  0
  -24.6765  -31.0704   22.0975 N   0  0  0  0  0  0
  -23.4174  -28.8173   23.2978 O   0  0  0  0  0  0
  -28.3527  -26.5807   20.1519 O   0  0  0  0  0  0
  -26.5618  -34.8904   22.4668 O   0  0  0  0  0  0
  -23.5386  -32.1388   23.7439 O   0  0  0  0  0  0
  -27.3274  -20.6004   20.3346 C   0  0  0  0  0  0
  -29.1868  -21.8771   20.5346 C   0  0  0  0  0  0
  -28.6723  -20.6177   20.7860 C   0  0  0  0  0  0
  -27.0567  -21.8375   19.7983 C   0  0  0  0  0  0
  -31.3731  -19.2070   21.2268 C   0  0  0  0  0  0
  -29.3522  -19.4412   21.5558 C   0  0  1  0  0  0
  -30.1995  -18.2426   20.9731 C   0  0  2  0  0  0
  -25.8022  -22.3201   19.1377 C   0  0  0  0  0  0
  -29.6689  -20.2537   24.5429 C   0  0  0  0  0  0
  -32.1436  -20.2474   24.1147 C   0  0  0  0  0  0
  -27.1756  -24.9466   21.6890 C   0  0  0  0  0  0
  -30.3401  -16.8422   21.7003 C   0  0  0  0  0  0
  -28.3014  -24.0824   19.5001 C   0  0  0  0  0  0
  -30.7880  -19.6782   23.6480 C   0  0  0  0  0  0
  -28.2618  -25.1873   20.6160 C   0  0  1  0  0  0
  -28.1834  -22.6576   19.9457 N   0  0  0  0  0  0
  -29.8876  -15.5870   21.0434 N   0  0  0  0  0  0
  -30.5632  -19.9548   22.1963 N   0  3  1  0  0  0
  -31.4714  -12.5034   19.1209 H   0  0  0  0  0  0
  -30.3716  -11.3619   19.8483 H   0  0  0  0  0  0
  -29.7538  -11.7713   17.4470 H   0  0  0  0  0  0
  -29.6399  -13.4894   17.7495 H   0  0  0  0  0  0
  -27.8626  -11.2885   18.8599 H   0  0  0  0  0  0
  -27.3613  -12.5742   17.7917 H   0  0  0  0  0  0
  -27.6816  -14.2455   19.5371 H   0  0  0  0  0  0
  -28.6965  -11.9999   21.3494 H   0  0  0  0  0  0
  -28.4407  -13.6437   21.8538 H   0  0  0  0  0  0
  -25.2740   -9.5692   22.4766 H   0  0  0  0  0  0
  -23.9992   -7.4629   22.7485 H   0  0  0  0  0  0
  -21.0823   -8.8764   19.8950 H   0  0  0  0  0  0
  -22.3675  -10.9667   19.6173 H   0  0  0  0  0  0
  -21.2002   -7.6137   23.9714 H   0  0  0  0  0  0
  -21.1492   -6.0519   25.9082 H   0  0  0  0  0  0
  -22.0594   -2.7600   23.2863 H   0  0  0  0  0  0
  -22.4072  -11.9887   22.4788 H   0  0  0  0  0  0
  -21.1117  -13.1272   22.2637 H   0  0  0  0  0  0
  -24.6517  -15.8362   20.4798 H   0  0  0  0  0  0
  -26.2616  -15.6179   20.0294 H   0  0  0  0  0  0
  -26.7143  -32.5440   23.1092 H   0  0  0  0  0  0
  -25.0035  -33.9714   25.0411 H   0  0  0  0  0  0
  -22.7023  -31.3093   21.4055 H   0  0  0  0  0  0
  -23.3725  -35.9682   23.3327 H   0  0  0  0  0  0
  -24.3581  -36.8923   22.2065 H   0  0  0  0  0  0
  -23.7265  -37.6523   23.6680 H   0  0  0  0  0  0
  -26.0850  -31.5821   20.6116 H   0  0  0  0  0  0
  -26.8254  -30.8445   22.0005 H   0  0  0  0  0  0
  -28.1079  -29.0494   21.1505 H   0  0  0  0  0  0
  -26.0155  -25.9483   19.0112 H   0  0  0  0  0  0
  -23.9641  -27.2967   19.0244 H   0  0  0  0  0  0
  -23.7326  -30.6003   19.4054 H   0  0  0  0  0  0
  -22.7399  -29.2510   19.8587 H   0  0  0  0  0  0
  -25.1285  -36.1920   25.0813 H   0  0  0  0  0  0
  -20.9953  -28.3268   24.1389 H   0  0  0  0  0  0
  -20.5660  -26.2271   23.3606 H   0  0  0  0  0  0
  -21.6628  -26.7422   22.1186 H   0  0  0  0  0  0
  -19.6894  -25.6283   21.1224 H   0  0  0  0  0  0
  -19.6691  -27.3190   20.6764 H   0  0  0  0  0  0
  -17.4174  -26.6668   21.4009 H   0  0  0  0  0  0
  -18.0293  -26.0094   22.9017 H   0  0  0  0  0  0
  -19.7964  -30.7243   24.2244 H   0  0  0  0  0  0
  -17.5050  -31.6272   24.5145 H   0  0  0  0  0  0
  -15.5357  -30.2990   23.7709 H   0  0  0  0  0  0
  -15.8647  -28.0845   22.7074 H   0  0  0  0  0  0
  -24.5907  -30.7056   25.7873 H   0  0  0  0  0  0
  -24.8951  -32.2878   26.4939 H   0  0  0  0  0  0
  -25.8117  -30.8906   27.0260 H   0  0  0  0  0  0
  -26.2870  -29.6726   24.1261 H   0  0  0  0  0  0
  -27.4056  -29.7263   25.4674 H   0  0  0  0  0  0
  -27.8737  -30.4269   23.9359 H   0  0  0  0  0  0
  -27.2567  -33.3646   26.2057 H   0  0  0  0  0  0
  -28.3834  -32.6913   25.0351 H   0  0  0  0  0  0
  -28.0666  -31.8507   26.5435 H   0  0  0  0  0  0
  -28.2553  -38.0130   24.7512 H   0  0  0  0  0  0
  -28.1063  -36.2640   24.6247 H   0  0  0  0  0  0
  -27.2288  -37.1425   25.8857 H   0  0  0  0  0  0
  -20.9318  -29.8781   21.6920 H   0  0  0  0  0  0
  -26.0139  -38.2839   24.1462 H   0  0  0  0  0  0
  -26.6267  -19.7773   20.3946 H   0  0  0  0  0  0
  -30.1550  -22.3207   20.7182 H   0  0  0  0  0  0
  -31.6126  -19.8203   20.3567 H   0  0  0  0  0  0
  -32.2769  -18.7551   21.6373 H   0  0  0  0  0  0
  -28.6301  -19.0473   22.2684 H   0  0  0  0  0  0
  -30.0181  -18.1291   19.9043 H   0  0  0  0  0  0
  -25.9183  -22.3077   18.0532 H   0  0  0  0  0  0
  -25.5481  -23.3359   19.4371 H   0  0  0  0  0  0
  -24.9539  -21.6829   19.3908 H   0  0  0  0  0  0
  -29.8428  -19.9838   25.5851 H   0  0  0  0  0  0
  -28.6789  -19.8763   24.2889 H   0  0  0  0  0  0
  -29.6338  -21.3422   24.4919 H   0  0  0  0  0  0
  -32.3159  -20.0207   25.1681 H   0  0  0  0  0  0
  -32.1831  -21.3325   24.0077 H   0  0  0  0  0  0
  -32.9815  -19.8318   23.5553 H   0  0  0  0  0  0
  -27.3334  -23.9885   22.1852 H   0  0  0  0  0  0
  -26.1727  -24.9123   21.2630 H   0  0  0  0  0  0
  -27.2025  -25.7175   22.4596 H   0  0  0  0  0  0
  -29.8046  -16.8736   22.6490 H   0  0  0  0  0  0
  -31.3802  -16.6838   21.9891 H   0  0  0  0  0  0
  -29.2291  -24.1835   18.9364 H   0  0  0  0  0  0
  -27.5189  -24.2842   18.7716 H   0  0  0  0  0  0
  -30.8148  -18.6008   23.7999 H   0  0  0  0  0  0
  -29.1969  -25.0487   21.1604 H   0  0  0  0  0  0
  -28.9237  -15.3412   21.2142 H   0  0  0  0  0  0
  -30.6057  -20.9462   22.0176 H   0  0  0  0  0  0
  1 25  1  0  0  0
  1 30  2  0  0  0
  1 87  1  0  0  0
  2  3  1  0  0  0
  2 25  1  0  0  0
  2 89  1  0  0  0
  2 90  1  0  0  0
  3  4  1  0  0  0
  3 91  1  0  0  0
  3 92  1  0  0  0
  4  5  1  0  0  0
  4 93  1  0  0  0
  4 94  1  0  0  0
  5  6  1  0  0  0
  5 26  1  0  0  0
  5 95  1  0  0  0
  6 25  1  0  0  0
  6 96  1  0  0  0
  6 97  1  0  0  0
  7  8  2  0  0  0
  7 26  1  0  0  0
  7 29  1  0  0  0
  8  9  1  0  0  0
  8 22  1  0  0  0
  9 10  1  0  0  0
  9 27  2  0  0  0
 10 11  2  0  0  0
 10 15  1  0  0  0
 11 12  1  0  0  0
 11 98  1  0  0  0
 12 13  2  0  0  0
 12 99  1  0  0  0
 13 14  1  0  0  0
 13 31  1  0  0  0
 14 15  2  0  0  0
 14100  1  0  0  0
 15101  1  0  0  0
 16 17  2  0  0  0
 16 21  1  0  0  0
 16 31  1  0  0  0
 17 18  1  0  0  0
 17102  1  0  0  0
 18 19  2  0  0  0
 18103  1  0  0  0
 19 20  1  0  0  0
 19 24  1  0  0  0
 20 21  2  0  0  0
 20104  1  0  0  0
 21 23  1  0  0  0
 22 28  1  0  0  0
 22 32  2  0  0  0
 26 27  1  0  0  0
 28105  1  0  0  0
 28106  1  0  0  0
 29107  1  0  0  0
 29108  1  0  0  0
 33 34  1  0  0  0
 33 66  1  0  0  0
 33 70  2  0  0  0
 34 36  1  0  0  0
 34 59  1  0  0  0
 34109  1  0  0  0
 35 44  2  0  0  0
 35 45  1  0  0  0
 35 68  1  0  0  0
 36 56  1  0  0  0
 36110  1  0  0  0
 37 39  1  0  0  0
 37 47  1  0  0  0
 37 66  1  0  0  0
 37111  1  0  0  0
 38 43  2  0  0  0
 38 46  1  0  0  0
 38 47  1  0  0  0
 39 64  1  0  0  0
 39 67  2  0  0  0
 40 52  1  0  0  0
 40 53  2  0  0  0
 40 58  1  0  0  0
 41112  1  0  0  0
 41113  1  0  0  0
 41114  1  0  0  0
 41 48  1  0  0  0
 42 43  1  0  0  0
 42 66  1  0  0  0
 42115  1  0  0  0
 42116  1  0  0  0
 43 44  1  0  0  0
 44117  1  0  0  0
 45 46  2  0  0  0
 45118  1  0  0  0
 46119  1  0  0  0
 47120  1  0  0  0
 47121  1  0  0  0
 48 56  1  0  0  0
 48 65  1  0  0  0
 48122  1  0  0  0
 49 50  1  0  0  0
 49 53  1  0  0  0
 49 64  1  0  0  0
 49123  1  0  0  0
 50 51  1  0  0  0
 50124  1  0  0  0
 50125  1  0  0  0
 51 52  1  0  0  0
 51126  1  0  0  0
 51127  1  0  0  0
 52128  1  0  0  0
 52129  1  0  0  0
 53 54  1  0  0  0
 54 55  2  0  0  0
 54130  1  0  0  0
 55 57  1  0  0  0
 55131  1  0  0  0
 56 69  2  0  0  0
 57 58  2  0  0  0
 57132  1  0  0  0
 58133  1  0  0  0
 59 60  1  0  0  0
 59 61  1  0  0  0
 59 62  1  0  0  0
 60134  1  0  0  0
 60135  1  0  0  0
 60136  1  0  0  0
 61137  1  0  0  0
 61138  1  0  0  0
 61139  1  0  0  0
 62140  1  0  0  0
 62141  1  0  0  0
 62142  1  0  0  0
 63 65  1  0  0  0
 63143  1  0  0  0
 63144  1  0  0  0
 63145  1  0  0  0
 64146  1  0  0  0
 65147  1  0  0  0
 68 85  1  0  0  0
 71 73  1  0  0  0
 71 74  2  0  0  0
 71148  1  0  0  0
 72 73  2  0  0  0
 72 86  1  0  0  0
 72149  1  0  0  0
 73 76  1  0  0  0
 74 78  1  0  0  0
 74 86  1  0  0  0
 75 77  1  0  0  0
 75150  1  0  0  0
 75151  1  0  0  0
 75 88  1  0  0  0
 76 77  1  0  0  0
 76 88  1  0  0  0
 76152  1  0  0  0
 77 82  1  0  0  0
 77153  1  0  0  0
 78154  1  0  0  0
 78155  1  0  0  0
 78156  1  0  0  0
 79157  1  0  0  0
 79158  1  0  0  0
 79159  1  0  0  0
 79 84  1  0  0  0
 80 84  1  0  0  0
 80160  1  0  0  0
 80161  1  0  0  0
 80162  1  0  0  0
 81163  1  0  0  0
 81164  1  0  0  0
 81165  1  0  0  0
 81 85  1  0  0  0
 82 87  1  0  0  0
 82166  1  0  0  0
 82167  1  0  0  0
 83 85  1  0  0  0
 83 86  1  0  0  0
 83168  1  0  0  0
 83169  1  0  0  0
 84 88  1  0  0  0
 84170  1  0  0  0
 85171  1  0  0  0
 87172  1  0  0  0
 88173  1  0  0  0
M  CHG  1  88   1
M  ISO  4   1 100  68 101  85 101  87 100
M  END
> <chiral flag>
0

> <version>
0

> <s_m_source_file>
/data/baiqing/PycharmProjects/Reinvent-master-3.2/result/LINK_invent/BTK/process_docking_weight1_custom_sum_contain_oxygen_bond_distance_aromatic_linkinvent_7_9_3/rearranged_h_0117.sdf

> <i_m_source_file_index>
73

> <r_mmod_Potential_Energy-OPLS-2005>
-35.8596611022949

> <r_mmod_Stretch_Energy-OPLS-2005>
62.966667175293

> <r_mmod_Bend_Energy-OPLS-2005>
162.834411621094

> <r_mmod_Torsional_Energy-OPLS-2005>
281.917175292969

> <r_mmod_Improper_Torsional_Energy-OPLS-2005>
4.46746158599854

> <r_mmod_Van_der_Waal_Energy-OPLS-2005>
121.766998291016

> <r_mmod_Electrostatic_Energy-OPLS-2005>
-269.722747802734

> <r_mmod_Solvation_Energy-OPLS-2005>
-429.317230224609

> <b_mmod_Minimization_Converged-OPLS-2005>
0

> <r_mmod_RMS_Derivative-OPLS-2005>
3.57281136512756

$$$$
74
                    3D
 Structure written by MMmdl.
177186  0  0  1  0            999 V2000
  -30.6915  -14.4763   20.5751 C   0  0  0  0  0  0
  -30.4295  -12.3125   19.4210 C   0  0  0  0  0  0
  -29.4960  -12.5063   18.2067 C   0  0  0  0  0  0
  -28.0168  -12.3700   18.6205 C   0  0  0  0  0  0
  -27.6646  -13.2050   19.8801 C   0  0  2  0  0  0
  -28.7081  -12.9781   20.9989 C   0  0  0  0  0  0
  -25.2600  -13.8154   20.5695 C   0  0  0  0  0  0
  -24.1846  -13.0433   20.9177 C   0  0  0  0  0  0
  -24.6396  -11.6898   20.8736 C   0  0  0  0  0  0
  -23.9055  -10.4287   21.0400 C   0  0  0  0  0  0
  -24.3610   -9.4205   21.9177 C   0  0  0  0  0  0
  -23.6293   -8.2237   22.0747 C   0  0  0  0  0  0
  -22.4274   -8.0274   21.3538 C   0  0  0  0  0  0
  -21.9901   -9.0245   20.4637 C   0  0  0  0  0  0
  -22.7228  -10.2127   20.3050 C   0  0  0  0  0  0
  -21.6848   -6.0731   22.5280 C   0  0  0  0  0  0
  -21.4005   -6.5638   23.8212 C   0  0  0  0  0  0
  -21.3656   -5.6789   24.9173 C   0  0  0  0  0  0
  -21.6047   -4.3055   24.7228 C   0  0  0  0  0  0
  -21.8823   -3.8141   23.4351 C   0  0  0  0  0  0
  -21.9195   -4.6957   22.3404 C   0  0  0  0  0  0
  -22.7870  -13.5233   21.1842 C   0  0  0  0  0  0
  -22.1665   -4.2142   21.0986 F   0  0  0  0  0  0
  -21.5630   -3.4539   25.7739 F   0  0  0  0  0  0
  -30.0396  -13.2890   20.4502 N   0  0  0  0  0  0
  -26.3044  -12.9319   20.3394 N   0  0  0  0  0  0
  -25.9327  -11.6481   20.5777 N   0  0  0  0  0  0
  -22.0499  -12.8229   22.0396 N   0  0  0  0  0  0
  -25.4326  -15.1869   20.4104 N   0  0  0  0  0  0
  -31.7960  -14.6990   20.0725 O   0  0  0  0  0  0
  -21.6637   -6.8872   21.4238 O   0  0  0  0  0  0
  -22.3557  -14.5544   20.6696 O   0  0  0  0  0  0
  -24.6152  -31.8671   23.2101 C   0  0  0  0  0  0
  -25.9042  -32.4812   23.8397 C   0  0  1  0  0  0
  -27.2333  -27.4290   20.1006 C   0  0  0  0  0  0
  -25.5903  -33.8615   24.2328 N   0  0  0  0  0  0
  -23.4045  -30.4906   21.5487 C   0  0  2  0  0  0
  -24.8541  -28.9564   20.1120 C   0  0  0  0  0  0
  -22.7418  -29.4654   22.4971 C   0  0  0  0  0  0
  -18.0274  -28.1381   22.8489 C   0  0  0  0  0  0
  -24.1475  -36.7303   23.2635 C   0  0  0  0  0  0
  -25.9340  -30.8290   21.3670 C   0  0  0  0  0  0
  -26.0120  -29.4620   20.7178 C   0  0  0  0  0  0
  -27.2055  -28.7021   20.7182 C   0  0  0  0  0  0
  -26.0682  -26.9481   19.4722 C   0  0  0  0  0  0
  -24.8767  -27.6975   19.4863 C   0  0  0  0  0  0
  -23.6153  -29.8228   20.1630 C   0  0  0  0  0  0
  -25.4095  -36.3105   24.0344 C   0  0  1  0  0  0
  -20.5865  -28.3666   23.1311 C   0  0  2  0  0  0
  -20.6759  -26.9398   22.5426 C   0  0  0  0  0  0
  -19.5749  -26.6384   21.5214 C   0  0  0  0  0  0
  -18.1920  -26.7934   22.1608 C   0  0  0  0  0  0
  -19.1523  -28.8838   23.2901 C   0  0  0  0  0  0
  -18.9451  -30.1444   23.8913 C   0  0  0  0  0  0
  -17.6457  -30.6586   24.0570 C   0  0  0  0  0  0
  -25.9036  -34.9472   23.5131 C   0  0  0  0  0  0
  -16.5343  -29.9089   23.6333 C   0  0  0  0  0  0
  -16.7262  -28.6510   23.0348 C   0  0  0  0  0  0
  -26.4470  -31.6591   25.0724 C   0  0  0  0  0  0
  -25.3747  -31.3716   26.1487 C   0  0  0  0  0  0
  -27.0271  -30.3017   24.6098 C   0  0  0  0  0  0
  -27.6065  -32.4294   25.7468 C   0  0  0  0  0  0
  -27.5586  -37.1784   24.8450 C   0  0  0  0  0  0
  -21.4145  -29.3026   22.3708 N   0  0  0  0  0  0
  -26.4268  -37.3804   23.9441 N   0  0  0  0  0  0
  -24.6688  -31.0773   22.0998 N   0  0  0  0  0  0
  -23.4187  -28.8203   23.3019 O   0  0  0  0  0  0
  -28.3600  -26.6341   20.1060 O   0  0  0  0  0  0
  -26.5600  -34.8931   22.4694 O   0  0  0  0  0  0
  -23.5343  -32.1416   23.7499 O   0  0  0  0  0  0
  -27.3280  -23.8373   20.3771 C   0  0  0  0  0  0
  -29.7451  -23.6007   20.9953 C   0  0  0  0  0  0
  -27.1501  -22.3077   20.5009 C   0  0  0  0  0  0
  -29.5562  -22.0677   21.1723 C   0  0  0  0  0  0
  -30.2545  -19.6718   18.7930 C   0  0  0  0  0  0
  -31.4538  -18.7757   18.4249 C   0  0  0  0  0  0
  -29.6543  -17.0784   18.4820 C   0  0  0  0  0  0
  -28.4406  -24.3700   21.2949 C   0  0  1  0  0  0
  -28.4553  -21.4909   20.2411 C   0  0  1  0  0  0
  -29.3917  -17.6345   19.9123 C   0  0  1  0  0  0
  -27.1439  -19.5239   19.2835 C   0  0  0  0  0  0
  -27.8508  -19.4713   21.7200 C   0  0  0  0  0  0
  -28.5691  -25.9282   21.3425 C   0  0  0  0  0  0
  -30.2382  -16.9257   21.0159 C   0  0  0  0  0  0
  -28.2661  -19.9038   20.2913 C   0  0  0  0  0  0
  -29.5064  -19.1323   19.9520 N   0  0  0  0  0  0
  -29.9597  -15.4781   21.0973 N   0  0  0  0  0  0
  -31.0065  -17.4329   17.9956 N   0  3  0  0  0  0
  -31.4724  -12.4225   19.1181 H   0  0  0  0  0  0
  -30.3407  -11.2989   19.8144 H   0  0  0  0  0  0
  -29.7326  -11.7774   17.4303 H   0  0  0  0  0  0
  -29.6654  -13.4877   17.7621 H   0  0  0  0  0  0
  -27.8234  -11.3141   18.8129 H   0  0  0  0  0  0
  -27.3658  -12.6495   17.7910 H   0  0  0  0  0  0
  -27.7089  -14.2536   19.5868 H   0  0  0  0  0  0
  -28.6858  -11.9395   21.3301 H   0  0  0  0  0  0
  -28.4707  -13.5688   21.8848 H   0  0  0  0  0  0
  -25.2752   -9.5689   22.4755 H   0  0  0  0  0  0
  -23.9999   -7.4624   22.7470 H   0  0  0  0  0  0
  -21.0824   -8.8764   19.8948 H   0  0  0  0  0  0
  -22.3681  -10.9666   19.6162 H   0  0  0  0  0  0
  -21.1989   -7.6146   23.9708 H   0  0  0  0  0  0
  -21.1473   -6.0522   25.9075 H   0  0  0  0  0  0
  -22.0606   -2.7603   23.2844 H   0  0  0  0  0  0
  -22.4097  -11.9880   22.4784 H   0  0  0  0  0  0
  -21.1119  -13.1257   22.2592 H   0  0  0  0  0  0
  -24.6639  -15.8400   20.5153 H   0  0  0  0  0  0
  -26.2851  -15.6270   20.0925 H   0  0  0  0  0  0
  -26.7115  -32.5525   23.1164 H   0  0  0  0  0  0
  -25.0067  -33.9778   25.0481 H   0  0  0  0  0  0
  -22.6943  -31.3081   21.4084 H   0  0  0  0  0  0
  -23.3765  -35.9602   23.3240 H   0  0  0  0  0  0
  -24.3593  -36.8975   22.2064 H   0  0  0  0  0  0
  -23.7176  -37.6470   23.6681 H   0  0  0  0  0  0
  -26.0486  -31.5922   20.5961 H   0  0  0  0  0  0
  -26.8218  -30.8835   21.9849 H   0  0  0  0  0  0
  -28.0970  -29.0826   21.1966 H   0  0  0  0  0  0
  -26.0791  -25.9868   18.9800 H   0  0  0  0  0  0
  -23.9897  -27.3047   19.0085 H   0  0  0  0  0  0
  -23.7247  -30.5978   19.4037 H   0  0  0  0  0  0
  -22.7404  -29.2416   19.8664 H   0  0  0  0  0  0
  -25.1260  -36.1954   25.0832 H   0  0  0  0  0  0
  -20.9964  -28.3232   24.1428 H   0  0  0  0  0  0
  -20.5639  -26.2278   23.3616 H   0  0  0  0  0  0
  -21.6631  -26.7424   22.1228 H   0  0  0  0  0  0
  -19.6908  -25.6299   21.1233 H   0  0  0  0  0  0
  -19.6708  -27.3199   20.6754 H   0  0  0  0  0  0
  -17.4205  -26.6705   21.3993 H   0  0  0  0  0  0
  -18.0298  -26.0062   22.8982 H   0  0  0  0  0  0
  -19.7931  -30.7251   24.2281 H   0  0  0  0  0  0
  -17.5017  -31.6269   24.5169 H   0  0  0  0  0  0
  -15.5348  -30.2998   23.7662 H   0  0  0  0  0  0
  -15.8661  -28.0842   22.7043 H   0  0  0  0  0  0
  -24.5925  -30.7043   25.7848 H   0  0  0  0  0  0
  -24.8934  -32.2878   26.4925 H   0  0  0  0  0  0
  -25.8116  -30.8912   27.0251 H   0  0  0  0  0  0
  -26.2792  -29.6794   24.1168 H   0  0  0  0  0  0
  -27.4036  -29.7247   25.4552 H   0  0  0  0  0  0
  -27.8642  -30.4311   23.9235 H   0  0  0  0  0  0
  -27.2705  -33.3608   26.2041 H   0  0  0  0  0  0
  -28.3875  -32.6822   25.0282 H   0  0  0  0  0  0
  -28.0721  -31.8406   26.5381 H   0  0  0  0  0  0
  -28.2556  -38.0131   24.7585 H   0  0  0  0  0  0
  -28.1128  -36.2674   24.6137 H   0  0  0  0  0  0
  -27.2341  -37.1269   25.8858 H   0  0  0  0  0  0
  -20.9302  -29.8743   21.6928 H   0  0  0  0  0  0
  -26.0152  -38.2861   24.1519 H   0  0  0  0  0  0
  -26.3845  -24.3241   20.6269 H   0  0  0  0  0  0
  -27.5500  -24.0972   19.3412 H   0  0  0  0  0  0
  -30.0848  -23.8227   19.9823 H   0  0  0  0  0  0
  -30.5347  -23.9440   21.6647 H   0  0  0  0  0  0
  -26.3671  -22.0257   19.7997 H   0  0  0  0  0  0
  -26.7603  -22.0959   21.4953 H   0  0  0  0  0  0
  -29.2987  -21.8624   22.2115 H   0  0  0  0  0  0
  -30.5078  -21.5647   21.0034 H   0  0  0  0  0  0
  -29.6025  -19.7828   17.9255 H   0  0  0  0  0  0
  -30.6410  -20.6659   19.0099 H   0  0  0  0  0  0
  -32.1252  -18.6838   19.2790 H   0  0  0  0  0  0
  -32.0378  -19.2308   17.6246 H   0  0  0  0  0  0
  -28.9148  -17.4836   17.7900 H   0  0  0  0  0  0
  -29.5216  -15.9982   18.4352 H   0  0  0  0  0  0
  -28.1687  -24.0856   22.3135 H   0  0  0  0  0  0
  -28.7368  -21.7539   19.2211 H   0  0  0  0  0  0
  -28.3715  -17.3444   20.1488 H   0  0  0  0  0  0
  -26.1745  -19.8999   19.6072 H   0  0  0  0  0  0
  -26.9821  -18.4568   19.1561 H   0  0  0  0  0  0
  -27.3332  -19.9366   18.2923 H   0  0  0  0  0  0
  -26.9790  -20.0167   22.0771 H   0  0  0  0  0  0
  -28.6528  -19.6369   22.4391 H   0  0  0  0  0  0
  -27.5736  -18.4204   21.7882 H   0  0  0  0  0  0
  -29.5561  -26.1988   21.7185 H   0  0  0  0  0  0
  -27.8759  -26.2939   22.1043 H   0  0  0  0  0  0
  -29.9992  -17.3589   21.9873 H   0  0  0  0  0  0
  -31.3040  -17.1059   20.8727 H   0  0  0  0  0  0
  -29.0741  -15.2104   21.5013 H   0  0  0  0  0  0
  -31.6770  -16.7568   18.3249 H   0  0  0  0  0  0
  -31.0027  -17.3902   16.9896 H   0  0  0  0  0  0
  1 25  1  0  0  0
  1 30  2  0  0  0
  1 87  1  0  0  0
  2  3  1  0  0  0
  2 25  1  0  0  0
  2 89  1  0  0  0
  2 90  1  0  0  0
  3  4  1  0  0  0
  3 91  1  0  0  0
  3 92  1  0  0  0
  4  5  1  0  0  0
  4 93  1  0  0  0
  4 94  1  0  0  0
  5  6  1  0  0  0
  5 26  1  0  0  0
  5 95  1  0  0  0
  6 25  1  0  0  0
  6 96  1  0  0  0
  6 97  1  0  0  0
  7  8  2  0  0  0
  7 26  1  0  0  0
  7 29  1  0  0  0
  8  9  1  0  0  0
  8 22  1  0  0  0
  9 10  1  0  0  0
  9 27  2  0  0  0
 10 11  2  0  0  0
 10 15  1  0  0  0
 11 12  1  0  0  0
 11 98  1  0  0  0
 12 13  2  0  0  0
 12 99  1  0  0  0
 13 14  1  0  0  0
 13 31  1  0  0  0
 14 15  2  0  0  0
 14100  1  0  0  0
 15101  1  0  0  0
 16 17  2  0  0  0
 16 21  1  0  0  0
 16 31  1  0  0  0
 17 18  1  0  0  0
 17102  1  0  0  0
 18 19  2  0  0  0
 18103  1  0  0  0
 19 20  1  0  0  0
 19 24  1  0  0  0
 20 21  2  0  0  0
 20104  1  0  0  0
 21 23  1  0  0  0
 22 28  1  0  0  0
 22 32  2  0  0  0
 26 27  1  0  0  0
 28105  1  0  0  0
 28106  1  0  0  0
 29107  1  0  0  0
 29108  1  0  0  0
 33 34  1  0  0  0
 33 66  1  0  0  0
 33 70  2  0  0  0
 34 36  1  0  0  0
 34 59  1  0  0  0
 34109  1  0  0  0
 35 44  2  0  0  0
 35 45  1  0  0  0
 35 68  1  0  0  0
 36 56  1  0  0  0
 36110  1  0  0  0
 37 39  1  0  0  0
 37 47  1  0  0  0
 37 66  1  0  0  0
 37111  1  0  0  0
 38 43  2  0  0  0
 38 46  1  0  0  0
 38 47  1  0  0  0
 39 64  1  0  0  0
 39 67  2  0  0  0
 40 52  1  0  0  0
 40 53  2  0  0  0
 40 58  1  0  0  0
 41112  1  0  0  0
 41113  1  0  0  0
 41114  1  0  0  0
 41 48  1  0  0  0
 42 43  1  0  0  0
 42 66  1  0  0  0
 42115  1  0  0  0
 42116  1  0  0  0
 43 44  1  0  0  0
 44117  1  0  0  0
 45 46  2  0  0  0
 45118  1  0  0  0
 46119  1  0  0  0
 47120  1  0  0  0
 47121  1  0  0  0
 48 56  1  0  0  0
 48 65  1  0  0  0
 48122  1  0  0  0
 49 50  1  0  0  0
 49 53  1  0  0  0
 49 64  1  0  0  0
 49123  1  0  0  0
 50 51  1  0  0  0
 50124  1  0  0  0
 50125  1  0  0  0
 51 52  1  0  0  0
 51126  1  0  0  0
 51127  1  0  0  0
 52128  1  0  0  0
 52129  1  0  0  0
 53 54  1  0  0  0
 54 55  2  0  0  0
 54130  1  0  0  0
 55 57  1  0  0  0
 55131  1  0  0  0
 56 69  2  0  0  0
 57 58  2  0  0  0
 57132  1  0  0  0
 58133  1  0  0  0
 59 60  1  0  0  0
 59 61  1  0  0  0
 59 62  1  0  0  0
 60134  1  0  0  0
 60135  1  0  0  0
 60136  1  0  0  0
 61137  1  0  0  0
 61138  1  0  0  0
 61139  1  0  0  0
 62140  1  0  0  0
 62141  1  0  0  0
 62142  1  0  0  0
 63 65  1  0  0  0
 63143  1  0  0  0
 63144  1  0  0  0
 63145  1  0  0  0
 64146  1  0  0  0
 65147  1  0  0  0
 68 83  1  0  0  0
 71 73  1  0  0  0
 71 78  1  0  0  0
 71148  1  0  0  0
 71149  1  0  0  0
 72 74  1  0  0  0
 72 78  1  0  0  0
 72150  1  0  0  0
 72151  1  0  0  0
 73152  1  0  0  0
 73153  1  0  0  0
 73 79  1  0  0  0
 74 79  1  0  0  0
 74154  1  0  0  0
 74155  1  0  0  0
 75 76  1  0  0  0
 75 86  1  0  0  0
 75156  1  0  0  0
 75157  1  0  0  0
 76 88  1  0  0  0
 76158  1  0  0  0
 76159  1  0  0  0
 77 80  1  0  0  0
 77 88  1  0  0  0
 77160  1  0  0  0
 77161  1  0  0  0
 78 83  1  0  0  0
 78162  1  0  0  0
 79 85  1  0  0  0
 79163  1  0  0  0
 80 84  1  0  0  0
 80 86  1  0  0  0
 80164  1  0  0  0
 81165  1  0  0  0
 81166  1  0  0  0
 81167  1  0  0  0
 81 85  1  0  0  0
 82 85  1  0  0  0
 82168  1  0  0  0
 82169  1  0  0  0
 82170  1  0  0  0
 83171  1  0  0  0
 83172  1  0  0  0
 84 87  1  0  0  0
 84173  1  0  0  0
 84174  1  0  0  0
 85 86  1  0  0  0
 87175  1  0  0  0
 88176  1  0  0  0
 88177  1  0  0  0
M  CHG  1  88   1
M  ISO  4   1 100  68 101  83 101  87 100
M  END
> <chiral flag>
0

> <version>
0

> <s_m_source_file>
/data/baiqing/PycharmProjects/Reinvent-master-3.2/result/LINK_invent/BTK/process_docking_weight1_custom_sum_contain_oxygen_bond_distance_aromatic_linkinvent_7_9_3/rearranged_h_0117.sdf

> <i_m_source_file_index>
74

> <r_mmod_Potential_Energy-OPLS-2005>
-154.273727416992

> <r_mmod_Stretch_Energy-OPLS-2005>
56.720832824707

> <r_mmod_Bend_Energy-OPLS-2005>
126.63166809082

> <r_mmod_Torsional_Energy-OPLS-2005>
316.426696777344

> <r_mmod_Improper_Torsional_Energy-OPLS-2005>
4.91486978530884

> <r_mmod_Van_der_Waal_Energy-OPLS-2005>
156.872207641602

> <r_mmod_Electrostatic_Energy-OPLS-2005>
-402.765747070312

> <r_mmod_Solvation_Energy-OPLS-2005>
-426.787292480469

> <b_mmod_Minimization_Converged-OPLS-2005>
0

> <r_mmod_RMS_Derivative-OPLS-2005>
1.11987590789795

$$$$
75
                    3D
 Structure written by MMmdl.
155163  0  0  1  0            999 V2000
  -30.6413  -14.7070   20.4294 C   0  0  0  0  0  0
  -30.4351  -12.4319   19.4629 C   0  0  0  0  0  0
  -29.5065  -12.5078   18.2309 C   0  0  0  0  0  0
  -28.0341  -12.3334   18.6456 C   0  0  0  0  0  0
  -27.6476  -13.2290   19.8515 C   0  0  2  0  0  0
  -28.6966  -13.1548   20.9847 C   0  0  0  0  0  0
  -25.2539  -13.8196   20.5709 C   0  0  0  0  0  0
  -24.1819  -13.0458   20.9222 C   0  0  0  0  0  0
  -24.6406  -11.6934   20.8774 C   0  0  0  0  0  0
  -23.9074  -10.4313   21.0409 C   0  0  0  0  0  0
  -24.3623   -9.4210   21.9160 C   0  0  0  0  0  0
  -23.6312   -8.2248   22.0723 C   0  0  0  0  0  0
  -22.4286   -8.0292   21.3531 C   0  0  0  0  0  0
  -21.9918   -9.0263   20.4629 C   0  0  0  0  0  0
  -22.7245  -10.2154   20.3047 C   0  0  0  0  0  0
  -21.6862   -6.0742   22.5277 C   0  0  0  0  0  0
  -21.4005   -6.5632   23.8210 C   0  0  0  0  0  0
  -21.3665   -5.6776   24.9170 C   0  0  0  0  0  0
  -21.6052   -4.3039   24.7206 C   0  0  0  0  0  0
  -21.8820   -3.8148   23.4321 C   0  0  0  0  0  0
  -21.9189   -4.6974   22.3389 C   0  0  0  0  0  0
  -22.7828  -13.5251   21.1853 C   0  0  0  0  0  0
  -22.1665   -4.2166   21.0960 F   0  0  0  0  0  0
  -21.5642   -3.4511   25.7714 F   0  0  0  0  0  0
  -30.0069  -13.4873   20.4063 N   0  0  0  0  0  0
  -26.2974  -12.9404   20.3313 N   0  0  0  0  0  0
  -25.9338  -11.6558   20.5781 N   0  0  0  0  0  0
  -22.0453  -12.8289   22.0431 N   0  0  0  0  0  0
  -25.4173  -15.1917   20.4077 N   0  0  0  0  0  0
  -31.8241  -14.7998   20.0935 O   0  0  0  0  0  0
  -21.6634   -6.8891   21.4242 O   0  0  0  0  0  0
  -22.3513  -14.5529   20.6650 O   0  0  0  0  0  0
  -24.6332  -31.8556   23.1957 C   0  0  0  0  0  0
  -25.9161  -32.4752   23.8320 C   0  0  1  0  0  0
  -27.2163  -27.2626   20.1079 C   0  0  0  0  0  0
  -25.5942  -33.8551   24.2248 N   0  0  0  0  0  0
  -23.4301  -30.4803   21.5377 C   0  0  2  0  0  0
  -24.8739  -28.9331   20.1009 C   0  0  0  0  0  0
  -22.7526  -29.4630   22.4885 C   0  0  0  0  0  0
  -18.0327  -28.1417   22.8522 C   0  0  0  0  0  0
  -24.1483  -36.7282   23.2643 C   0  0  0  0  0  0
  -25.9762  -30.7655   21.3759 C   0  0  0  0  0  0
  -26.0434  -29.3879   20.7213 C   0  0  0  0  0  0
  -27.2151  -28.5615   20.7235 C   0  0  0  0  0  0
  -26.0258  -26.8936   19.4364 C   0  0  0  0  0  0
  -24.8688  -27.6931   19.4497 C   0  0  0  0  0  0
  -23.6445  -29.8186   20.1527 C   0  0  0  0  0  0
  -25.4108  -36.3063   24.0334 C   0  0  1  0  0  0
  -20.5934  -28.3728   23.1253 C   0  0  2  0  0  0
  -20.6790  -26.9432   22.5403 C   0  0  0  0  0  0
  -19.5747  -26.6404   21.5223 C   0  0  0  0  0  0
  -18.1946  -26.7967   22.1650 C   0  0  0  0  0  0
  -19.1584  -28.8892   23.2887 C   0  0  0  0  0  0
  -18.9483  -30.1505   23.8895 C   0  0  0  0  0  0
  -17.6471  -30.6587   24.0605 C   0  0  0  0  0  0
  -25.9059  -34.9445   23.5094 C   0  0  0  0  0  0
  -16.5371  -29.9093   23.6349 C   0  0  0  0  0  0
  -16.7314  -28.6529   23.0339 C   0  0  0  0  0  0
  -26.4522  -31.6570   25.0712 C   0  0  0  0  0  0
  -25.3761  -31.3684   26.1433 C   0  0  0  0  0  0
  -27.0380  -30.3005   24.6177 C   0  0  0  0  0  0
  -27.6109  -32.4295   25.7452 C   0  0  0  0  0  0
  -27.5569  -37.1784   24.8474 C   0  0  0  0  0  0
  -21.4233  -29.3068   22.3630 N   0  0  0  0  0  0
  -26.4276  -37.3764   23.9430 N   0  0  0  0  0  0
  -24.6995  -31.0539   22.0922 N   0  0  0  0  0  0
  -23.4220  -28.8179   23.2984 O   0  0  0  0  0  0
  -28.3046  -26.3551   20.1801 O   0  0  0  0  0  0
  -26.5622  -34.8933   22.4661 O   0  0  0  0  0  0
  -23.5489  -32.1365   23.7258 O   0  0  0  0  0  0
  -30.7763  -20.0053   22.3257 C   0  0  0  0  0  0
  -30.6619  -18.7218   21.7615 C   0  0  0  0  0  0
  -30.2131  -21.1179   21.6677 C   0  0  0  0  0  0
  -29.9855  -18.5586   20.5461 C   0  0  0  0  0  0
  -29.5079  -20.9420   20.4638 C   0  0  0  0  0  0
  -29.2675  -22.2027   18.2561 C   0  0  0  0  0  0
  -30.0542  -17.1565   19.8222 C   0  0  0  0  0  0
  -29.0023  -23.6890   20.3555 C   0  0  0  0  0  0
  -28.1126  -24.9127   19.7825 C   0  0  0  0  0  0
  -28.8285  -22.1895   19.7353 C   0  0  2  0  0  0
  -29.4003  -19.6599   19.9320 N   0  0  0  0  0  0
  -29.8661  -15.8364   20.5535 N   0  0  0  0  0  0
  -31.4730  -12.5538   19.1469 H   0  0  0  0  0  0
  -30.3833  -11.4546   19.9420 H   0  0  0  0  0  0
  -29.7881  -11.7485   17.5003 H   0  0  0  0  0  0
  -29.6305  -13.4701   17.7309 H   0  0  0  0  0  0
  -27.8870  -11.2845   18.9039 H   0  0  0  0  0  0
  -27.3773  -12.5343   17.7985 H   0  0  0  0  0  0
  -27.6432  -14.2492   19.4708 H   0  0  0  0  0  0
  -28.7201  -12.1581   21.4285 H   0  0  0  0  0  0
  -28.4399  -13.8422   21.7905 H   0  0  0  0  0  0
  -25.2774   -9.5695   22.4723 H   0  0  0  0  0  0
  -24.0030   -7.4629   22.7438 H   0  0  0  0  0  0
  -21.0840   -8.8790   19.8944 H   0  0  0  0  0  0
  -22.3693  -10.9686   19.6162 H   0  0  0  0  0  0
  -21.1979   -7.6133   23.9729 H   0  0  0  0  0  0
  -21.1497   -6.0487   25.9077 H   0  0  0  0  0  0
  -22.0593   -2.7611   23.2801 H   0  0  0  0  0  0
  -22.4072  -12.0021   22.4947 H   0  0  0  0  0  0
  -21.1052  -13.1313   22.2548 H   0  0  0  0  0  0
  -24.6413  -15.8381   20.4983 H   0  0  0  0  0  0
  -26.2541  -15.6328   20.0484 H   0  0  0  0  0  0
  -26.7246  -32.5395   23.1084 H   0  0  0  0  0  0
  -25.0113  -33.9679   25.0411 H   0  0  0  0  0  0
  -22.7276  -31.3045   21.3927 H   0  0  0  0  0  0
  -23.3741  -35.9615   23.3297 H   0  0  0  0  0  0
  -24.3580  -36.8892   22.2056 H   0  0  0  0  0  0
  -23.7229  -37.6484   23.6670 H   0  0  0  0  0  0
  -26.1169  -31.5199   20.5995 H   0  0  0  0  0  0
  -26.8545  -30.8120   22.0079 H   0  0  0  0  0  0
  -28.1063  -28.9031   21.2318 H   0  0  0  0  0  0
  -25.9460  -25.9653   18.8922 H   0  0  0  0  0  0
  -23.9787  -27.3480   18.9402 H   0  0  0  0  0  0
  -23.7677  -30.5924   19.3927 H   0  0  0  0  0  0
  -22.7614  -29.2492   19.8562 H   0  0  0  0  0  0
  -25.1290  -36.1900   25.0821 H   0  0  0  0  0  0
  -21.0096  -28.3309   24.1343 H   0  0  0  0  0  0
  -20.5680  -26.2363   23.3633 H   0  0  0  0  0  0
  -21.6649  -26.7421   22.1190 H   0  0  0  0  0  0
  -19.6865  -25.6312   21.1243 H   0  0  0  0  0  0
  -19.6640  -27.3244   20.6772 H   0  0  0  0  0  0
  -17.4212  -26.6801   21.4039 H   0  0  0  0  0  0
  -18.0288  -26.0097   22.9023 H   0  0  0  0  0  0
  -19.7939  -30.7374   24.2210 H   0  0  0  0  0  0
  -17.4991  -31.6248   24.5228 H   0  0  0  0  0  0
  -15.5361  -30.2966   23.7629 H   0  0  0  0  0  0
  -15.8751  -28.0842   22.6977 H   0  0  0  0  0  0
  -24.5941  -30.7036   25.7738 H   0  0  0  0  0  0
  -24.8960  -32.2846   26.4888 H   0  0  0  0  0  0
  -25.8083  -30.8818   27.0189 H   0  0  0  0  0  0
  -26.2952  -29.6710   24.1263 H   0  0  0  0  0  0
  -27.4157  -29.7298   25.4666 H   0  0  0  0  0  0
  -27.8797  -30.4306   23.9368 H   0  0  0  0  0  0
  -27.2759  -33.3613   26.2020 H   0  0  0  0  0  0
  -28.3901  -32.6791   25.0242 H   0  0  0  0  0  0
  -28.0830  -31.8430   26.5342 H   0  0  0  0  0  0
  -28.2594  -38.0067   24.7524 H   0  0  0  0  0  0
  -28.1038  -36.2607   24.6290 H   0  0  0  0  0  0
  -27.2314  -37.1441   25.8878 H   0  0  0  0  0  0
  -20.9416  -29.8790   21.6844 H   0  0  0  0  0  0
  -26.0141  -38.2831   24.1426 H   0  0  0  0  0  0
  -31.3137  -20.1403   23.2526 H   0  0  0  0  0  0
  -31.1358  -17.8732   22.2377 H   0  0  0  0  0  0
  -30.3309  -22.0979   22.1053 H   0  0  0  0  0  0
  -29.0768  -21.2485   17.7628 H   0  0  0  0  0  0
  -30.3361  -22.3991   18.1704 H   0  0  0  0  0  0
  -28.7380  -22.9577   17.6766 H   0  0  0  0  0  0
  -31.0311  -17.1331   19.3364 H   0  0  0  0  0  0
  -29.3390  -17.1718   19.0003 H   0  0  0  0  0  0
  -28.7770  -23.6320   21.4203 H   0  0  0  0  0  0
  -30.0562  -23.9589   20.2942 H   0  0  0  0  0  0
  -27.0966  -24.6128   20.0337 H   0  0  0  0  0  0
  -28.1713  -24.8938   18.6944 H   0  0  0  0  0  0
  -27.7588  -21.9759   19.7506 H   0  0  0  0  0  0
  -28.9318  -15.6857   20.9002 H   0  0  0  0  0  0
  1 25  1  0  0  0
  1 30  2  0  0  0
  1 82  1  0  0  0
  2  3  1  0  0  0
  2 25  1  0  0  0
  2 83  1  0  0  0
  2 84  1  0  0  0
  3  4  1  0  0  0
  3 85  1  0  0  0
  3 86  1  0  0  0
  4  5  1  0  0  0
  4 87  1  0  0  0
  4 88  1  0  0  0
  5  6  1  0  0  0
  5 26  1  0  0  0
  5 89  1  0  0  0
  6 25  1  0  0  0
  6 90  1  0  0  0
  6 91  1  0  0  0
  7  8  2  0  0  0
  7 26  1  0  0  0
  7 29  1  0  0  0
  8  9  1  0  0  0
  8 22  1  0  0  0
  9 10  1  0  0  0
  9 27  2  0  0  0
 10 11  2  0  0  0
 10 15  1  0  0  0
 11 12  1  0  0  0
 11 92  1  0  0  0
 12 13  2  0  0  0
 12 93  1  0  0  0
 13 14  1  0  0  0
 13 31  1  0  0  0
 14 15  2  0  0  0
 14 94  1  0  0  0
 15 95  1  0  0  0
 16 17  2  0  0  0
 16 21  1  0  0  0
 16 31  1  0  0  0
 17 18  1  0  0  0
 17 96  1  0  0  0
 18 19  2  0  0  0
 18 97  1  0  0  0
 19 20  1  0  0  0
 19 24  1  0  0  0
 20 21  2  0  0  0
 20 98  1  0  0  0
 21 23  1  0  0  0
 22 28  1  0  0  0
 22 32  2  0  0  0
 26 27  1  0  0  0
 28 99  1  0  0  0
 28100  1  0  0  0
 29101  1  0  0  0
 29102  1  0  0  0
 33 34  1  0  0  0
 33 66  1  0  0  0
 33 70  2  0  0  0
 34 36  1  0  0  0
 34 59  1  0  0  0
 34103  1  0  0  0
 35 44  2  0  0  0
 35 45  1  0  0  0
 35 68  1  0  0  0
 36 56  1  0  0  0
 36104  1  0  0  0
 37 39  1  0  0  0
 37 47  1  0  0  0
 37 66  1  0  0  0
 37105  1  0  0  0
 38 43  2  0  0  0
 38 46  1  0  0  0
 38 47  1  0  0  0
 39 64  1  0  0  0
 39 67  2  0  0  0
 40 52  1  0  0  0
 40 53  2  0  0  0
 40 58  1  0  0  0
 41106  1  0  0  0
 41107  1  0  0  0
 41108  1  0  0  0
 41 48  1  0  0  0
 42 43  1  0  0  0
 42 66  1  0  0  0
 42109  1  0  0  0
 42110  1  0  0  0
 43 44  1  0  0  0
 44111  1  0  0  0
 45 46  2  0  0  0
 45112  1  0  0  0
 46113  1  0  0  0
 47114  1  0  0  0
 47115  1  0  0  0
 48 56  1  0  0  0
 48 65  1  0  0  0
 48116  1  0  0  0
 49 50  1  0  0  0
 49 53  1  0  0  0
 49 64  1  0  0  0
 49117  1  0  0  0
 50 51  1  0  0  0
 50118  1  0  0  0
 50119  1  0  0  0
 51 52  1  0  0  0
 51120  1  0  0  0
 51121  1  0  0  0
 52122  1  0  0  0
 52123  1  0  0  0
 53 54  1  0  0  0
 54 55  2  0  0  0
 54124  1  0  0  0
 55 57  1  0  0  0
 55125  1  0  0  0
 56 69  2  0  0  0
 57 58  2  0  0  0
 57126  1  0  0  0
 58127  1  0  0  0
 59 60  1  0  0  0
 59 61  1  0  0  0
 59 62  1  0  0  0
 60128  1  0  0  0
 60129  1  0  0  0
 60130  1  0  0  0
 61131  1  0  0  0
 61132  1  0  0  0
 61133  1  0  0  0
 62134  1  0  0  0
 62135  1  0  0  0
 62136  1  0  0  0
 63 65  1  0  0  0
 63137  1  0  0  0
 63138  1  0  0  0
 63139  1  0  0  0
 64140  1  0  0  0
 65141  1  0  0  0
 68 79  1  0  0  0
 71 72  2  0  0  0
 71 73  1  0  0  0
 71142  1  0  0  0
 72 74  1  0  0  0
 72143  1  0  0  0
 73 75  2  0  0  0
 73144  1  0  0  0
 74 77  1  0  0  0
 74 81  2  0  0  0
 75 80  1  0  0  0
 75 81  1  0  0  0
 76145  1  0  0  0
 76146  1  0  0  0
 76147  1  0  0  0
 76 80  1  0  0  0
 77 82  1  0  0  0
 77148  1  0  0  0
 77149  1  0  0  0
 78 79  1  0  0  0
 78 80  1  0  0  0
 78150  1  0  0  0
 78151  1  0  0  0
 79152  1  0  0  0
 79153  1  0  0  0
 80154  1  0  0  0
 82155  1  0  0  0
M  ISO  4   1 100  68 101  79 101  82 100
M  END
> <chiral flag>
0

> <version>
0

> <s_m_source_file>
/data/baiqing/PycharmProjects/Reinvent-master-3.2/result/LINK_invent/BTK/process_docking_weight1_custom_sum_contain_oxygen_bond_distance_aromatic_linkinvent_7_9_3/rearranged_h_0117.sdf

> <i_m_source_file_index>
75

> <r_mmod_Potential_Energy-OPLS-2005>
-156.702011108398

> <r_mmod_Stretch_Energy-OPLS-2005>
115.592872619629

> <r_mmod_Bend_Energy-OPLS-2005>
157.158325195312

> <r_mmod_Torsional_Energy-OPLS-2005>
210.541137695312

> <r_mmod_Improper_Torsional_Energy-OPLS-2005>
8.79913234710693

> <r_mmod_Van_der_Waal_Energy-OPLS-2005>
144.99104309082

> <r_mmod_Electrostatic_Energy-OPLS-2005>
-653.297241210938

> <r_mmod_Solvation_Energy-OPLS-2005>
-219.986267089844

> <b_mmod_Minimization_Converged-OPLS-2005>
0

> <r_mmod_RMS_Derivative-OPLS-2005>
3.58474516868591

$$$$
76
                    3D
 Structure written by MMmdl.
173181  0  0  1  0            999 V2000
  -30.5412  -14.8548   20.4423 C   0  0  0  0  0  0
  -30.4486  -12.5218   19.4794 C   0  0  0  0  0  0
  -29.5233  -12.4949   18.2405 C   0  0  0  0  0  0
  -28.0573  -12.2800   18.6686 C   0  0  0  0  0  0
  -27.6361  -13.2212   19.8286 C   0  0  2  0  0  0
  -28.6765  -13.2134   20.9696 C   0  0  0  0  0  0
  -25.2567  -13.8155   20.5670 C   0  0  0  0  0  0
  -24.1855  -13.0413   20.9236 C   0  0  0  0  0  0
  -24.6438  -11.6893   20.8788 C   0  0  0  0  0  0
  -23.9081  -10.4290   21.0452 C   0  0  0  0  0  0
  -24.3626   -9.4202   21.9224 C   0  0  0  0  0  0
  -23.6281   -8.2237   22.0785 C   0  0  0  0  0  0
  -22.4271   -8.0279   21.3557 C   0  0  0  0  0  0
  -21.9913   -9.0271   20.4682 C   0  0  0  0  0  0
  -22.7246  -10.2151   20.3094 C   0  0  0  0  0  0
  -21.6834   -6.0746   22.5296 C   0  0  0  0  0  0
  -21.4010   -6.5646   23.8229 C   0  0  0  0  0  0
  -21.3652   -5.6802   24.9188 C   0  0  0  0  0  0
  -21.6036   -4.3060   24.7237 C   0  0  0  0  0  0
  -21.8799   -3.8155   23.4344 C   0  0  0  0  0  0
  -21.9177   -4.6978   22.3408 C   0  0  0  0  0  0
  -22.7893  -13.5256   21.1864 C   0  0  0  0  0  0
  -22.1646   -4.2154   21.0991 F   0  0  0  0  0  0
  -21.5635   -3.4553   25.7751 F   0  0  0  0  0  0
  -29.9621  -13.5997   20.3796 N   0  0  0  0  0  0
  -26.2934  -12.9312   20.3155 N   0  0  0  0  0  0
  -25.9351  -11.6481   20.5732 N   0  0  0  0  0  0
  -22.0467  -12.8287   22.0405 N   0  0  0  0  0  0
  -25.4280  -15.1869   20.4112 N   0  0  0  0  0  0
  -31.7464  -14.9529   20.2018 O   0  0  0  0  0  0
  -21.6616   -6.8886   21.4247 O   0  0  0  0  0  0
  -22.3626  -14.5574   20.6711 O   0  0  0  0  0  0
  -24.6326  -31.8490   23.1889 C   0  0  0  0  0  0
  -25.9139  -32.4713   23.8203 C   0  0  1  0  0  0
  -27.2265  -27.2167   20.1260 C   0  0  0  0  0  0
  -25.5944  -33.8515   24.2141 N   0  0  0  0  0  0
  -23.4287  -30.4676   21.5337 C   0  0  2  0  0  0
  -24.8726  -28.8909   20.1068 C   0  0  0  0  0  0
  -22.7468  -29.4597   22.4868 C   0  0  0  0  0  0
  -18.0326  -28.1337   22.8470 C   0  0  0  0  0  0
  -24.1480  -36.7253   23.2636 C   0  0  0  0  0  0
  -25.9715  -30.7431   21.3696 C   0  0  0  0  0  0
  -26.0415  -29.3590   20.7165 C   0  0  0  0  0  0
  -27.2126  -28.5291   20.7196 C   0  0  0  0  0  0
  -26.0361  -26.8190   19.4781 C   0  0  0  0  0  0
  -24.8765  -27.6319   19.4772 C   0  0  0  0  0  0
  -23.6407  -29.7798   20.1557 C   0  0  0  0  0  0
  -25.4117  -36.3047   24.0307 C   0  0  1  0  0  0
  -20.5896  -28.3770   23.1329 C   0  0  2  0  0  0
  -20.6828  -26.9410   22.5652 C   0  0  0  0  0  0
  -19.5917  -26.6332   21.5335 C   0  0  0  0  0  0
  -18.2017  -26.7899   22.1580 C   0  0  0  0  0  0
  -19.1534  -28.8866   23.2877 C   0  0  0  0  0  0
  -18.9419  -30.1465   23.8867 C   0  0  0  0  0  0
  -17.6411  -30.6580   24.0447 C   0  0  0  0  0  0
  -25.9071  -34.9425   23.5037 C   0  0  0  0  0  0
  -16.5335  -29.9025   23.6234 C   0  0  0  0  0  0
  -16.7287  -28.6431   23.0288 C   0  0  0  0  0  0
  -26.4492  -31.6574   25.0626 C   0  0  0  0  0  0
  -25.3701  -31.3796   26.1351 C   0  0  0  0  0  0
  -27.0350  -30.2988   24.6157 C   0  0  0  0  0  0
  -27.6037  -32.4295   25.7416 C   0  0  0  0  0  0
  -27.5559  -37.1790   24.8463 C   0  0  0  0  0  0
  -21.4172  -29.3080   22.3651 N   0  0  0  0  0  0
  -26.4279  -37.3768   23.9411 N   0  0  0  0  0  0
  -24.6974  -31.0380   22.0882 N   0  0  0  0  0  0
  -23.4173  -28.8139   23.2975 O   0  0  0  0  0  0
  -28.3494  -26.3514   20.2567 O   0  0  0  0  0  0
  -26.5648  -34.8938   22.4606 O   0  0  0  0  0  0
  -23.5503  -32.1321   23.7221 O   0  0  0  0  0  0
  -28.3487  -18.2398   20.4316 C   0  0  0  0  0  0
  -28.2069  -19.7976   20.7855 C   0  0  0  0  0  0
  -30.4606  -20.0804   20.2767 C   0  0  0  0  0  0
  -30.7196  -18.5015   20.0528 C   0  0  2  0  0  0
  -29.7114  -17.5259   20.7820 C   0  0  2  0  0  0
  -32.1652  -18.2378   20.5035 C   0  0  0  0  0  0
  -25.2669  -22.4597   20.9276 C   0  0  0  0  0  0
  -25.7740  -23.2191   23.2856 C   0  0  0  0  0  0
  -28.6811  -25.0520   18.1596 C   0  0  0  0  0  0
  -29.1944  -22.2363   20.4107 C   0  0  0  0  0  0
  -26.3837  -22.7433   21.9537 C   0  0  0  0  0  0
  -28.1022  -23.4821   20.2092 C   0  0  2  0  0  0
  -28.6296  -24.9617   19.6887 C   0  0  1  0  0  0
  -29.1207  -20.7211   20.0585 N   0  0  0  0  0  0
  -29.6870  -15.9659   20.5868 N   0  0  0  0  0  0
  -27.3631  -23.7499   21.4688 N   0  3  0  0  0  0
  -31.4818  -12.6878   19.1686 H   0  0  0  0  0  0
  -30.4351  -11.5582   19.9913 H   0  0  0  0  0  0
  -29.8317  -11.7070   17.5501 H   0  0  0  0  0  0
  -29.6180  -13.4336   17.6941 H   0  0  0  0  0  0
  -27.9675  -11.2427   18.9984 H   0  0  0  0  0  0
  -27.3939  -12.3850   17.8093 H   0  0  0  0  0  0
  -27.6125  -14.2228   19.4023 H   0  0  0  0  0  0
  -28.7476  -12.2282   21.4303 H   0  0  0  0  0  0
  -28.3955  -13.9047   21.7668 H   0  0  0  0  0  0
  -25.2757   -9.5660   22.4826 H   0  0  0  0  0  0
  -23.9952   -7.4633   22.7528 H   0  0  0  0  0  0
  -21.0813   -8.8806   19.9045 H   0  0  0  0  0  0
  -22.3674  -10.9696   19.6232 H   0  0  0  0  0  0
  -21.2010   -7.6160   23.9720 H   0  0  0  0  0  0
  -21.1492   -6.0556   25.9088 H   0  0  0  0  0  0
  -22.0586   -2.7612   23.2861 H   0  0  0  0  0  0
  -22.3981  -11.9938   22.4851 H   0  0  0  0  0  0
  -21.1121  -13.1464   22.2520 H   0  0  0  0  0  0
  -24.6726  -15.8448   20.5657 H   0  0  0  0  0  0
  -26.2603  -15.6251   20.0396 H   0  0  0  0  0  0
  -26.7147  -32.5316   23.0883 H   0  0  0  0  0  0
  -25.0126  -33.9631   25.0314 H   0  0  0  0  0  0
  -22.7306  -31.2951   21.3819 H   0  0  0  0  0  0
  -23.3776  -35.9556   23.3318 H   0  0  0  0  0  0
  -24.3569  -36.8871   22.2048 H   0  0  0  0  0  0
  -23.7200  -37.6441   23.6660 H   0  0  0  0  0  0
  -26.1067  -31.4981   20.5932 H   0  0  0  0  0  0
  -26.8518  -30.8010   21.9970 H   0  0  0  0  0  0
  -28.1051  -28.8793   21.2236 H   0  0  0  0  0  0
  -25.9738  -25.8532   18.9987 H   0  0  0  0  0  0
  -23.9723  -27.2713   19.0028 H   0  0  0  0  0  0
  -23.7435  -30.5437   19.3862 H   0  0  0  0  0  0
  -22.7588  -29.2034   19.8685 H   0  0  0  0  0  0
  -25.1309  -36.1881   25.0805 H   0  0  0  0  0  0
  -21.0014  -28.3495   24.1452 H   0  0  0  0  0  0
  -20.5631  -26.2420   23.3982 H   0  0  0  0  0  0
  -21.6764  -26.7399   22.1608 H   0  0  0  0  0  0
  -19.7172  -25.6224   21.1449 H   0  0  0  0  0  0
  -19.6964  -27.3149   20.6878 H   0  0  0  0  0  0
  -17.4372  -26.6627   21.3895 H   0  0  0  0  0  0
  -18.0332  -26.0051   22.8968 H   0  0  0  0  0  0
  -19.7854  -30.7336   24.2203 H   0  0  0  0  0  0
  -17.4932  -31.6331   24.4894 H   0  0  0  0  0  0
  -15.5333  -30.2924   23.7488 H   0  0  0  0  0  0
  -15.8693  -28.0721   22.6988 H   0  0  0  0  0  0
  -24.5879  -30.7120   25.7710 H   0  0  0  0  0  0
  -24.8892  -32.3009   26.4655 H   0  0  0  0  0  0
  -25.8027  -30.9070   27.0180 H   0  0  0  0  0  0
  -26.2945  -29.6722   24.1174 H   0  0  0  0  0  0
  -27.4018  -29.7279   25.4697 H   0  0  0  0  0  0
  -27.8825  -30.4262   23.9415 H   0  0  0  0  0  0
  -27.2636  -33.3605   26.1964 H   0  0  0  0  0  0
  -28.3895  -32.6823   25.0277 H   0  0  0  0  0  0
  -28.0631  -31.8406   26.5369 H   0  0  0  0  0  0
  -28.2595  -38.0069   24.7514 H   0  0  0  0  0  0
  -28.1041  -36.2613   24.6296 H   0  0  0  0  0  0
  -27.2286  -37.1432   25.8867 H   0  0  0  0  0  0
  -20.9355  -29.8771   21.6814 H   0  0  0  0  0  0
  -26.0165  -38.2843   24.1456 H   0  0  0  0  0  0
  -28.1582  -18.1091   19.3633 H   0  0  0  0  0  0
  -27.5438  -17.7041   20.9387 H   0  0  0  0  0  0
  -28.3263  -19.9343   21.8608 H   0  0  0  0  0  0
  -27.1862  -20.0989   20.5480 H   0  0  0  0  0  0
  -31.1627  -20.6133   19.6351 H   0  0  0  0  0  0
  -30.7619  -20.3121   21.3006 H   0  0  0  0  0  0
  -30.6651  -18.3054   18.9822 H   0  0  0  0  0  0
  -29.8630  -17.6640   21.8535 H   0  0  0  0  0  0
  -32.2472  -18.3350   21.5858 H   0  0  0  0  0  0
  -32.8543  -18.9589   20.0609 H   0  0  0  0  0  0
  -32.5266  -17.2507   20.2297 H   0  0  0  0  0  0
  -24.4949  -21.8116   21.3450 H   0  0  0  0  0  0
  -25.6464  -21.9421   20.0493 H   0  0  0  0  0  0
  -24.7800  -23.3790   20.5982 H   0  0  0  0  0  0
  -25.0818  -22.4822   23.6923 H   0  0  0  0  0  0
  -25.2286  -24.1552   23.1663 H   0  0  0  0  0  0
  -26.5458  -23.3834   24.0379 H   0  0  0  0  0  0
  -29.0792  -24.1277   17.7409 H   0  0  0  0  0  0
  -29.3323  -25.8617   17.8283 H   0  0  0  0  0  0
  -27.6968  -25.2172   17.7291 H   0  0  0  0  0  0
  -29.5281  -22.2876   21.4481 H   0  0  0  0  0  0
  -30.0630  -22.5729   19.8403 H   0  0  0  0  0  0
  -26.9233  -21.8195   22.1586 H   0  0  0  0  0  0
  -27.3865  -23.1628   19.4567 H   0  0  0  0  0  0
  -29.6810  -24.9070   19.9688 H   0  0  0  0  0  0
  -28.7427  -15.6249   20.6790 H   0  0  0  0  0  0
  -28.0494  -23.9183   22.1881 H   0  0  0  0  0  0
  -26.8656  -24.6204   21.3506 H   0  0  0  0  0  0
  1 25  1  0  0  0
  1 30  2  0  0  0
  1 85  1  0  0  0
  2  3  1  0  0  0
  2 25  1  0  0  0
  2 87  1  0  0  0
  2 88  1  0  0  0
  3  4  1  0  0  0
  3 89  1  0  0  0
  3 90  1  0  0  0
  4  5  1  0  0  0
  4 91  1  0  0  0
  4 92  1  0  0  0
  5  6  1  0  0  0
  5 26  1  0  0  0
  5 93  1  0  0  0
  6 25  1  0  0  0
  6 94  1  0  0  0
  6 95  1  0  0  0
  7  8  2  0  0  0
  7 26  1  0  0  0
  7 29  1  0  0  0
  8  9  1  0  0  0
  8 22  1  0  0  0
  9 10  1  0  0  0
  9 27  2  0  0  0
 10 11  2  0  0  0
 10 15  1  0  0  0
 11 12  1  0  0  0
 11 96  1  0  0  0
 12 13  2  0  0  0
 12 97  1  0  0  0
 13 14  1  0  0  0
 13 31  1  0  0  0
 14 15  2  0  0  0
 14 98  1  0  0  0
 15 99  1  0  0  0
 16 17  2  0  0  0
 16 21  1  0  0  0
 16 31  1  0  0  0
 17 18  1  0  0  0
 17100  1  0  0  0
 18 19  2  0  0  0
 18101  1  0  0  0
 19 20  1  0  0  0
 19 24  1  0  0  0
 20 21  2  0  0  0
 20102  1  0  0  0
 21 23  1  0  0  0
 22 28  1  0  0  0
 22 32  2  0  0  0
 26 27  1  0  0  0
 28103  1  0  0  0
 28104  1  0  0  0
 29105  1  0  0  0
 29106  1  0  0  0
 33 34  1  0  0  0
 33 66  1  0  0  0
 33 70  2  0  0  0
 34 36  1  0  0  0
 34 59  1  0  0  0
 34107  1  0  0  0
 35 44  2  0  0  0
 35 45  1  0  0  0
 35 68  1  0  0  0
 36 56  1  0  0  0
 36108  1  0  0  0
 37 39  1  0  0  0
 37 47  1  0  0  0
 37 66  1  0  0  0
 37109  1  0  0  0
 38 43  2  0  0  0
 38 46  1  0  0  0
 38 47  1  0  0  0
 39 64  1  0  0  0
 39 67  2  0  0  0
 40 52  1  0  0  0
 40 53  2  0  0  0
 40 58  1  0  0  0
 41110  1  0  0  0
 41111  1  0  0  0
 41112  1  0  0  0
 41 48  1  0  0  0
 42 43  1  0  0  0
 42 66  1  0  0  0
 42113  1  0  0  0
 42114  1  0  0  0
 43 44  1  0  0  0
 44115  1  0  0  0
 45 46  2  0  0  0
 45116  1  0  0  0
 46117  1  0  0  0
 47118  1  0  0  0
 47119  1  0  0  0
 48 56  1  0  0  0
 48 65  1  0  0  0
 48120  1  0  0  0
 49 50  1  0  0  0
 49 53  1  0  0  0
 49 64  1  0  0  0
 49121  1  0  0  0
 50 51  1  0  0  0
 50122  1  0  0  0
 50123  1  0  0  0
 51 52  1  0  0  0
 51124  1  0  0  0
 51125  1  0  0  0
 52126  1  0  0  0
 52127  1  0  0  0
 53 54  1  0  0  0
 54 55  2  0  0  0
 54128  1  0  0  0
 55 57  1  0  0  0
 55129  1  0  0  0
 56 69  2  0  0  0
 57 58  2  0  0  0
 57130  1  0  0  0
 58131  1  0  0  0
 59 60  1  0  0  0
 59 61  1  0  0  0
 59 62  1  0  0  0
 60132  1  0  0  0
 60133  1  0  0  0
 60134  1  0  0  0
 61135  1  0  0  0
 61136  1  0  0  0
 61137  1  0  0  0
 62138  1  0  0  0
 62139  1  0  0  0
 62140  1  0  0  0
 63 65  1  0  0  0
 63141  1  0  0  0
 63142  1  0  0  0
 63143  1  0  0  0
 64144  1  0  0  0
 65145  1  0  0  0
 68 83  1  0  0  0
 71 72  1  0  0  0
 71 75  1  0  0  0
 71146  1  0  0  0
 71147  1  0  0  0
 72 84  1  0  0  0
 72148  1  0  0  0
 72149  1  0  0  0
 73 74  1  0  0  0
 73 84  1  0  0  0
 73150  1  0  0  0
 73151  1  0  0  0
 74 75  1  0  0  0
 74 76  1  0  0  0
 74152  1  0  0  0
 75 85  1  0  0  0
 75153  1  0  0  0
 76154  1  0  0  0
 76155  1  0  0  0
 76156  1  0  0  0
 77157  1  0  0  0
 77158  1  0  0  0
 77159  1  0  0  0
 77 81  1  0  0  0
 78 81  1  0  0  0
 78160  1  0  0  0
 78161  1  0  0  0
 78162  1  0  0  0
 79163  1  0  0  0
 79164  1  0  0  0
 79165  1  0  0  0
 79 83  1  0  0  0
 80 84  1  0  0  0
 80166  1  0  0  0
 80167  1  0  0  0
 80 82  1  0  0  0
 81 86  1  0  0  0
 81168  1  0  0  0
 82 83  1  0  0  0
 82 86  1  0  0  0
 82169  1  0  0  0
 83170  1  0  0  0
 85171  1  0  0  0
 86172  1  0  0  0
 86173  1  0  0  0
M  CHG  1  86   1
M  ISO  4   1 100  68 101  83 101  85 100
M  END
> <chiral flag>
0

> <version>
0

> <s_m_source_file>
/data/baiqing/PycharmProjects/Reinvent-master-3.2/result/LINK_invent/BTK/process_docking_weight1_custom_sum_contain_oxygen_bond_distance_aromatic_linkinvent_7_9_3/rearranged_h_0117.sdf

> <i_m_source_file_index>
76

> <r_mmod_Potential_Energy-OPLS-2005>
308.385528564453

> <r_mmod_Stretch_Energy-OPLS-2005>
186.517013549805

> <r_mmod_Bend_Energy-OPLS-2005>
338.175628662109

> <r_mmod_Torsional_Energy-OPLS-2005>
255.46044921875

> <r_mmod_Improper_Torsional_Energy-OPLS-2005>
4.31188011169434

> <r_mmod_Van_der_Waal_Energy-OPLS-2005>
108.904220581055

> <r_mmod_Electrostatic_Energy-OPLS-2005>
-288.978820800781

> <r_mmod_Solvation_Energy-OPLS-2005>
-426.70458984375

> <b_mmod_Minimization_Converged-OPLS-2005>
0

> <r_mmod_RMS_Derivative-OPLS-2005>
5.25622034072876

$$$$
77
                    3D
 Structure written by MMmdl.
165174  0  0  1  0            999 V2000
  -30.6355  -14.7580   20.5218 C   0  0  0  0  0  0
  -30.4093  -12.4978   19.4686 C   0  0  0  0  0  0
  -29.4951  -12.5008   18.2266 C   0  0  0  0  0  0
  -28.0294  -12.2704   18.6371 C   0  0  0  0  0  0
  -27.6083  -13.1931   19.8033 C   0  0  2  0  0  0
  -28.6434  -13.1973   20.9521 C   0  0  0  0  0  0
  -25.2386  -13.8042   20.5603 C   0  0  0  0  0  0
  -24.1701  -13.0325   20.9264 C   0  0  0  0  0  0
  -24.6260  -11.6803   20.8763 C   0  0  0  0  0  0
  -23.8937  -10.4204   21.0431 C   0  0  0  0  0  0
  -24.3532   -9.4138   21.9198 C   0  0  0  0  0  0
  -23.6260   -8.2150   22.0733 C   0  0  0  0  0  0
  -22.4243   -8.0196   21.3526 C   0  0  0  0  0  0
  -21.9848   -9.0144   20.4623 C   0  0  0  0  0  0
  -22.7132  -10.2041   20.3052 C   0  0  0  0  0  0
  -21.6829   -6.0694   22.5284 C   0  0  0  0  0  0
  -21.3986   -6.5611   23.8212 C   0  0  0  0  0  0
  -21.3670   -5.6773   24.9189 C   0  0  0  0  0  0
  -21.6068   -4.3038   24.7249 C   0  0  0  0  0  0
  -21.8811   -3.8120   23.4369 C   0  0  0  0  0  0
  -21.9183   -4.6928   22.3419 C   0  0  0  0  0  0
  -22.7741  -13.5143   21.1988 C   0  0  0  0  0  0
  -22.1656   -4.2124   21.0994 F   0  0  0  0  0  0
  -21.5656   -3.4520   25.7761 F   0  0  0  0  0  0
  -29.9429  -13.5707   20.3843 N   0  0  0  0  0  0
  -26.2709  -12.9160   20.3016 N   0  0  0  0  0  0
  -25.9141  -11.6353   20.5646 N   0  0  0  0  0  0
  -22.0394  -12.8097   22.0544 N   0  0  0  0  0  0
  -25.4000  -15.1738   20.3922 N   0  0  0  0  0  0
  -31.8276  -14.7711   20.1949 O   0  0  0  0  0  0
  -21.6604   -6.8807   21.4234 O   0  0  0  0  0  0
  -22.3412  -14.5463   20.6882 O   0  0  0  0  0  0
  -24.6226  -31.8604   23.2033 C   0  0  0  0  0  0
  -25.9078  -32.4800   23.8354 C   0  0  1  0  0  0
  -27.2123  -27.3201   20.1239 C   0  0  0  0  0  0
  -25.5906  -33.8610   24.2275 N   0  0  0  0  0  0
  -23.4144  -30.4790   21.5473 C   0  0  2  0  0  0
  -24.8609  -28.9288   20.1202 C   0  0  0  0  0  0
  -22.7457  -29.4587   22.4982 C   0  0  0  0  0  0
  -18.0264  -28.1345   22.8493 C   0  0  0  0  0  0
  -24.1494  -36.7313   23.2634 C   0  0  0  0  0  0
  -25.9532  -30.7916   21.3706 C   0  0  0  0  0  0
  -26.0285  -29.4135   20.7249 C   0  0  0  0  0  0
  -27.2125  -28.6166   20.7220 C   0  0  0  0  0  0
  -26.0306  -26.8826   19.4982 C   0  0  0  0  0  0
  -24.8609  -27.6672   19.5026 C   0  0  0  0  0  0
  -23.6304  -29.8105   20.1641 C   0  0  0  0  0  0
  -25.4112  -36.3108   24.0321 C   0  0  1  0  0  0
  -20.5870  -28.3620   23.1328 C   0  0  2  0  0  0
  -20.6743  -26.9359   22.5418 C   0  0  0  0  0  0
  -19.5728  -26.6350   21.5211 C   0  0  0  0  0  0
  -18.1905  -26.7887   22.1626 C   0  0  0  0  0  0
  -19.1524  -28.8812   23.2893 C   0  0  0  0  0  0
  -18.9448  -30.1422   23.8888 C   0  0  0  0  0  0
  -17.6452  -30.6561   24.0555 C   0  0  0  0  0  0
  -25.9045  -34.9467   23.5093 C   0  0  0  0  0  0
  -16.5342  -29.9052   23.6331 C   0  0  0  0  0  0
  -16.7252  -28.6469   23.0350 C   0  0  0  0  0  0
  -26.4447  -31.6597   25.0724 C   0  0  0  0  0  0
  -25.3703  -31.3712   26.1475 C   0  0  0  0  0  0
  -27.0257  -30.3024   24.6125 C   0  0  0  0  0  0
  -27.6031  -32.4311   25.7494 C   0  0  0  0  0  0
  -27.5569  -37.1803   24.8457 C   0  0  0  0  0  0
  -21.4179  -29.3019   22.3761 N   0  0  0  0  0  0
  -26.4291  -37.3798   23.9418 N   0  0  0  0  0  0
  -24.6835  -31.0599   22.0987 N   0  0  0  0  0  0
  -23.4218  -28.8123   23.3036 O   0  0  0  0  0  0
  -28.3368  -26.4986   20.0390 O   0  0  0  0  0  0
  -26.5617  -34.8920   22.4665 O   0  0  0  0  0  0
  -23.5386  -32.1420   23.7355 O   0  0  0  0  0  0
  -29.1258  -21.8111   17.9598 C   0  0  0  0  0  0
  -28.6088  -22.8845   18.6950 C   0  0  0  0  0  0
  -29.4062  -20.5788   18.5854 C   0  0  0  0  0  0
  -29.1143  -20.4201   19.9721 C   0  0  0  0  0  0
  -28.3813  -22.7366   20.0673 C   0  0  0  0  0  0
  -28.4202  -17.8397   20.1881 C   0  0  0  0  0  0
  -30.7239  -18.4629   20.9194 C   0  0  0  0  0  0
  -28.6392  -16.4511   20.9068 C   0  0  0  0  0  0
  -30.8316  -17.0487   21.6034 C   0  0  0  0  0  0
  -29.2781  -19.0227   20.7288 C   0  0  0  0  0  0
  -30.0108  -19.5030   17.6886 C   0  0  0  0  0  0
  -27.2639  -23.5096   22.2404 C   0  0  0  0  0  0
  -28.4864  -25.3544   20.9535 C   0  0  0  0  0  0
  -27.7185  -23.9490   20.8342 C   0  0  1  0  0  0
  -28.6316  -21.5131   20.6775 N   0  0  0  0  0  0
  -30.0419  -15.9533   20.9670 N   0  0  0  0  0  0
  -31.4445  -12.6288   19.1493 H   0  0  0  0  0  0
  -30.3789  -11.5329   19.9755 H   0  0  0  0  0  0
  -29.8137  -11.7372   17.5156 H   0  0  0  0  0  0
  -29.5821  -13.4570   17.7074 H   0  0  0  0  0  0
  -27.9161  -11.2254   18.9251 H   0  0  0  0  0  0
  -27.3717  -12.4171   17.7807 H   0  0  0  0  0  0
  -27.5563  -14.1576   19.3109 H   0  0  0  0  0  0
  -28.6993  -12.2098   21.4133 H   0  0  0  0  0  0
  -28.3389  -13.8853   21.7439 H   0  0  0  0  0  0
  -25.2654   -9.5636   22.4799 H   0  0  0  0  0  0
  -23.9999   -7.4499   22.7385 H   0  0  0  0  0  0
  -21.0814   -8.8586   19.8899 H   0  0  0  0  0  0
  -22.3555  -10.9565   19.6168 H   0  0  0  0  0  0
  -21.1935   -7.6113   23.9716 H   0  0  0  0  0  0
  -21.1545   -6.0507   25.9096 H   0  0  0  0  0  0
  -22.0602   -2.7590   23.2871 H   0  0  0  0  0  0
  -22.4025  -11.9753   22.4918 H   0  0  0  0  0  0
  -21.0999  -13.1082   22.2754 H   0  0  0  0  0  0
  -24.6221  -15.8195   20.4771 H   0  0  0  0  0  0
  -26.2336  -15.6053   20.0172 H   0  0  0  0  0  0
  -26.7158  -32.5444   23.1116 H   0  0  0  0  0  0
  -25.0081  -33.9804   25.0425 H   0  0  0  0  0  0
  -22.7074  -31.2977   21.4034 H   0  0  0  0  0  0
  -23.3765  -35.9642   23.3299 H   0  0  0  0  0  0
  -24.3579  -36.8939   22.2050 H   0  0  0  0  0  0
  -23.7241  -37.6505   23.6660 H   0  0  0  0  0  0
  -26.0715  -31.5496   20.5945 H   0  0  0  0  0  0
  -26.8398  -30.8535   21.9891 H   0  0  0  0  0  0
  -28.1162  -28.9844   21.1876 H   0  0  0  0  0  0
  -26.0117  -25.9247   18.9977 H   0  0  0  0  0  0
  -23.9667  -27.2926   19.0244 H   0  0  0  0  0  0
  -23.7490  -30.5856   19.4060 H   0  0  0  0  0  0
  -22.7498  -29.2370   19.8645 H   0  0  0  0  0  0
  -25.1293  -36.1960   25.0812 H   0  0  0  0  0  0
  -20.9918  -28.3143   24.1461 H   0  0  0  0  0  0
  -20.5620  -26.2227   23.3601 H   0  0  0  0  0  0
  -21.6609  -26.7372   22.1233 H   0  0  0  0  0  0
  -19.6885  -25.6266   21.1221 H   0  0  0  0  0  0
  -19.6654  -27.3180   20.6763 H   0  0  0  0  0  0
  -17.4170  -26.6642   21.4037 H   0  0  0  0  0  0
  -18.0309  -26.0025   22.9022 H   0  0  0  0  0  0
  -19.7928  -30.7236   24.2252 H   0  0  0  0  0  0
  -17.4999  -31.6243   24.5138 H   0  0  0  0  0  0
  -15.5339  -30.2940   23.7643 H   0  0  0  0  0  0
  -15.8659  -28.0770   22.7069 H   0  0  0  0  0  0
  -24.5958  -30.6951   25.7823 H   0  0  0  0  0  0
  -24.8803  -32.2857   26.4823 H   0  0  0  0  0  0
  -25.8077  -30.8988   27.0290 H   0  0  0  0  0  0
  -26.2789  -29.6830   24.1146 H   0  0  0  0  0  0
  -27.3961  -29.7217   25.4572 H   0  0  0  0  0  0
  -27.8656  -30.4310   23.9305 H   0  0  0  0  0  0
  -27.2680  -33.3663   26.1986 H   0  0  0  0  0  0
  -28.3878  -32.6773   25.0334 H   0  0  0  0  0  0
  -28.0633  -31.8477   26.5472 H   0  0  0  0  0  0
  -28.2569  -38.0117   24.7531 H   0  0  0  0  0  0
  -28.1085  -36.2644   24.6258 H   0  0  0  0  0  0
  -27.2296  -37.1415   25.8863 H   0  0  0  0  0  0
  -20.9329  -29.8826   21.7079 H   0  0  0  0  0  0
  -26.0165  -38.2871   24.1457 H   0  0  0  0  0  0
  -29.2969  -21.9366   16.9004 H   0  0  0  0  0  0
  -28.3687  -23.8123   18.1931 H   0  0  0  0  0  0
  -27.3686  -18.1226   20.2693 H   0  0  0  0  0  0
  -28.5926  -17.6990   19.1265 H   0  0  0  0  0  0
  -31.2367  -18.3600   19.9746 H   0  0  0  0  0  0
  -31.3069  -19.1909   21.4835 H   0  0  0  0  0  0
  -27.9964  -15.7507   20.4154 H   0  0  0  0  0  0
  -28.2589  -16.5147   21.9278 H   0  0  0  0  0  0
  -30.5044  -17.1210   22.6441 H   0  0  0  0  0  0
  -31.8864  -16.7800   21.6593 H   0  0  0  0  0  0
  -28.8980  -19.2041   21.7355 H   0  0  0  0  0  0
  -29.2917  -18.7324   17.4140 H   0  0  0  0  0  0
  -30.8960  -19.0455   18.1116 H   0  0  0  0  0  0
  -30.3654  -19.9417   16.7552 H   0  0  0  0  0  0
  -26.5912  -22.6534   22.1906 H   0  0  0  0  0  0
  -26.7356  -24.3063   22.7631 H   0  0  0  0  0  0
  -28.1161  -23.2230   22.8545 H   0  0  0  0  0  0
  -29.5524  -25.1385   21.0203 H   0  0  0  0  0  0
  -28.2472  -25.7827   21.9266 H   0  0  0  0  0  0
  -26.7944  -24.1550   20.2925 H   0  0  0  0  0  0
  1 25  1  0  0  0
  1 30  2  0  0  0
  1 86  1  0  0  0
  2  3  1  0  0  0
  2 25  1  0  0  0
  2 87  1  0  0  0
  2 88  1  0  0  0
  3  4  1  0  0  0
  3 89  1  0  0  0
  3 90  1  0  0  0
  4  5  1  0  0  0
  4 91  1  0  0  0
  4 92  1  0  0  0
  5  6  1  0  0  0
  5 26  1  0  0  0
  5 93  1  0  0  0
  6 25  1  0  0  0
  6 94  1  0  0  0
  6 95  1  0  0  0
  7  8  2  0  0  0
  7 26  1  0  0  0
  7 29  1  0  0  0
  8  9  1  0  0  0
  8 22  1  0  0  0
  9 10  1  0  0  0
  9 27  2  0  0  0
 10 11  2  0  0  0
 10 15  1  0  0  0
 11 12  1  0  0  0
 11 96  1  0  0  0
 12 13  2  0  0  0
 12 97  1  0  0  0
 13 14  1  0  0  0
 13 31  1  0  0  0
 14 15  2  0  0  0
 14 98  1  0  0  0
 15 99  1  0  0  0
 16 17  2  0  0  0
 16 21  1  0  0  0
 16 31  1  0  0  0
 17 18  1  0  0  0
 17100  1  0  0  0
 18 19  2  0  0  0
 18101  1  0  0  0
 19 20  1  0  0  0
 19 24  1  0  0  0
 20 21  2  0  0  0
 20102  1  0  0  0
 21 23  1  0  0  0
 22 28  1  0  0  0
 22 32  2  0  0  0
 26 27  1  0  0  0
 28103  1  0  0  0
 28104  1  0  0  0
 29105  1  0  0  0
 29106  1  0  0  0
 33 34  1  0  0  0
 33 66  1  0  0  0
 33 70  2  0  0  0
 34 36  1  0  0  0
 34 59  1  0  0  0
 34107  1  0  0  0
 35 44  2  0  0  0
 35 45  1  0  0  0
 35 68  1  0  0  0
 36 56  1  0  0  0
 36108  1  0  0  0
 37 39  1  0  0  0
 37 47  1  0  0  0
 37 66  1  0  0  0
 37109  1  0  0  0
 38 43  2  0  0  0
 38 46  1  0  0  0
 38 47  1  0  0  0
 39 64  1  0  0  0
 39 67  2  0  0  0
 40 52  1  0  0  0
 40 53  2  0  0  0
 40 58  1  0  0  0
 41110  1  0  0  0
 41111  1  0  0  0
 41112  1  0  0  0
 41 48  1  0  0  0
 42 43  1  0  0  0
 42 66  1  0  0  0
 42113  1  0  0  0
 42114  1  0  0  0
 43 44  1  0  0  0
 44115  1  0  0  0
 45 46  2  0  0  0
 45116  1  0  0  0
 46117  1  0  0  0
 47118  1  0  0  0
 47119  1  0  0  0
 48 56  1  0  0  0
 48 65  1  0  0  0
 48120  1  0  0  0
 49 50  1  0  0  0
 49 53  1  0  0  0
 49 64  1  0  0  0
 49121  1  0  0  0
 50 51  1  0  0  0
 50122  1  0  0  0
 50123  1  0  0  0
 51 52  1  0  0  0
 51124  1  0  0  0
 51125  1  0  0  0
 52126  1  0  0  0
 52127  1  0  0  0
 53 54  1  0  0  0
 54 55  2  0  0  0
 54128  1  0  0  0
 55 57  1  0  0  0
 55129  1  0  0  0
 56 69  2  0  0  0
 57 58  2  0  0  0
 57130  1  0  0  0
 58131  1  0  0  0
 59 60  1  0  0  0
 59 61  1  0  0  0
 59 62  1  0  0  0
 60132  1  0  0  0
 60133  1  0  0  0
 60134  1  0  0  0
 61135  1  0  0  0
 61136  1  0  0  0
 61137  1  0  0  0
 62138  1  0  0  0
 62139  1  0  0  0
 62140  1  0  0  0
 63 65  1  0  0  0
 63141  1  0  0  0
 63142  1  0  0  0
 63143  1  0  0  0
 64144  1  0  0  0
 65145  1  0  0  0
 68 83  1  0  0  0
 71 72  2  0  0  0
 71 73  1  0  0  0
 71146  1  0  0  0
 72 75  1  0  0  0
 72147  1  0  0  0
 73 74  2  0  0  0
 73 81  1  0  0  0
 74 85  1  0  0  0
 74 80  1  0  0  0
 75 84  1  0  0  0
 75 85  2  0  0  0
 76 78  1  0  0  0
 76 80  1  0  0  0
 76148  1  0  0  0
 76149  1  0  0  0
 77 79  1  0  0  0
 77 80  1  0  0  0
 77150  1  0  0  0
 77151  1  0  0  0
 78 86  1  0  0  0
 78152  1  0  0  0
 78153  1  0  0  0
 79 86  1  0  0  0
 79154  1  0  0  0
 79155  1  0  0  0
 80156  1  0  0  0
 81157  1  0  0  0
 81158  1  0  0  0
 81159  1  0  0  0
 82160  1  0  0  0
 82161  1  0  0  0
 82162  1  0  0  0
 82 84  1  0  0  0
 83 84  1  0  0  0
 83163  1  0  0  0
 83164  1  0  0  0
 84165  1  0  0  0
M  ISO  4   1 100  68 101  83 101  86 100
M  END
> <chiral flag>
0

> <version>
0

> <s_m_source_file>
/data/baiqing/PycharmProjects/Reinvent-master-3.2/result/LINK_invent/BTK/process_docking_weight1_custom_sum_contain_oxygen_bond_distance_aromatic_linkinvent_7_9_3/rearranged_h_0117.sdf

> <i_m_source_file_index>
77

> <r_mmod_Potential_Energy-OPLS-2005>
233.408905029297

> <r_mmod_Stretch_Energy-OPLS-2005>
101.955261230469

> <r_mmod_Bend_Energy-OPLS-2005>
201.430557250977

> <r_mmod_Torsional_Energy-OPLS-2005>
328.858551025391

> <r_mmod_Improper_Torsional_Energy-OPLS-2005>
2.39278602600098

> <r_mmod_Van_der_Waal_Energy-OPLS-2005>
154.03662109375

> <r_mmod_Electrostatic_Energy-OPLS-2005>
-426.742279052734

> <r_mmod_Solvation_Energy-OPLS-2005>
-204.660110473633

> <b_mmod_Minimization_Converged-OPLS-2005>
0

> <r_mmod_RMS_Derivative-OPLS-2005>
4.44703674316406

$$$$
78
                    3D
 Structure written by MMmdl.
164172  0  0  1  0            999 V2000
  -30.5300  -14.9530   20.3958 C   0  0  0  0  0  0
  -30.4357  -12.5891   19.4861 C   0  0  0  0  0  0
  -29.5160  -12.5283   18.2463 C   0  0  0  0  0  0
  -28.0461  -12.3234   18.6625 C   0  0  0  0  0  0
  -27.6249  -13.2514   19.8317 C   0  0  2  0  0  0
  -28.6729  -13.2754   20.9644 C   0  0  0  0  0  0
  -25.2428  -13.8224   20.5729 C   0  0  0  0  0  0
  -24.1755  -13.0431   20.9241 C   0  0  0  0  0  0
  -24.6371  -11.6918   20.8751 C   0  0  0  0  0  0
  -23.9047  -10.4278   21.0395 C   0  0  0  0  0  0
  -24.3601   -9.4201   21.9174 C   0  0  0  0  0  0
  -23.6288   -8.2231   22.0737 C   0  0  0  0  0  0
  -22.4269   -8.0267   21.3535 C   0  0  0  0  0  0
  -21.9898   -9.0228   20.4638 C   0  0  0  0  0  0
  -22.7213  -10.2112   20.3052 C   0  0  0  0  0  0
  -21.6852   -6.0720   22.5266 C   0  0  0  0  0  0
  -21.4012   -6.5621   23.8203 C   0  0  0  0  0  0
  -21.3665   -5.6777   24.9166 C   0  0  0  0  0  0
  -21.6055   -4.3037   24.7219 C   0  0  0  0  0  0
  -21.8823   -3.8129   23.4334 C   0  0  0  0  0  0
  -21.9186   -4.6944   22.3392 C   0  0  0  0  0  0
  -22.7770  -13.5208   21.1881 C   0  0  0  0  0  0
  -22.1667   -4.2129   21.0970 F   0  0  0  0  0  0
  -21.5629   -3.4530   25.7728 F   0  0  0  0  0  0
  -29.9420  -13.6920   20.3561 N   0  0  0  0  0  0
  -26.2852  -12.9463   20.3226 N   0  0  0  0  0  0
  -25.9303  -11.6584   20.5720 N   0  0  0  0  0  0
  -22.0417  -12.8204   22.0443 N   0  0  0  0  0  0
  -25.4071  -15.1966   20.4158 N   0  0  0  0  0  0
  -31.7420  -15.0195   20.1658 O   0  0  0  0  0  0
  -21.6636   -6.8862   21.4235 O   0  0  0  0  0  0
  -22.3442  -14.5496   20.6688 O   0  0  0  0  0  0
  -24.6432  -31.8401   23.1835 C   0  0  0  0  0  0
  -25.9200  -32.4680   23.8241 C   0  0  1  0  0  0
  -27.2215  -27.1266   20.1392 C   0  0  0  0  0  0
  -25.5941  -33.8480   24.2166 N   0  0  0  0  0  0
  -23.4481  -30.4571   21.5284 C   0  0  2  0  0  0
  -24.8959  -28.8782   20.1034 C   0  0  0  0  0  0
  -22.7573  -29.4520   22.4838 C   0  0  0  0  0  0
  -18.0304  -28.1384   22.8480 C   0  0  0  0  0  0
  -24.1479  -36.7247   23.2644 C   0  0  0  0  0  0
  -26.0030  -30.7127   21.3811 C   0  0  0  0  0  0
  -26.0720  -29.3228   20.7199 C   0  0  0  0  0  0
  -27.2294  -28.4609   20.7199 C   0  0  0  0  0  0
  -26.0103  -26.7721   19.5096 C   0  0  0  0  0  0
  -24.8785  -27.6186   19.4830 C   0  0  0  0  0  0
  -23.6731  -29.7794   20.1484 C   0  0  0  0  0  0
  -25.4114  -36.3019   24.0313 C   0  0  1  0  0  0
  -20.5922  -28.3705   23.1226 C   0  0  2  0  0  0
  -20.6779  -26.9404   22.5395 C   0  0  0  0  0  0
  -19.5752  -26.6366   21.5206 C   0  0  0  0  0  0
  -18.1933  -26.7920   22.1621 C   0  0  0  0  0  0
  -19.1563  -28.8859   23.2846 C   0  0  0  0  0  0
  -18.9480  -30.1463   23.8872 C   0  0  0  0  0  0
  -17.6477  -30.6578   24.0553 C   0  0  0  0  0  0
  -25.9063  -34.9395   23.5047 C   0  0  0  0  0  0
  -16.5365  -29.9078   23.6335 C   0  0  0  0  0  0
  -16.7293  -28.6489   23.0363 C   0  0  0  0  0  0
  -26.4510  -31.6578   25.0705 C   0  0  0  0  0  0
  -25.3699  -31.3799   26.1409 C   0  0  0  0  0  0
  -27.0387  -30.2979   24.6311 C   0  0  0  0  0  0
  -27.6027  -32.4368   25.7504 C   0  0  0  0  0  0
  -27.5569  -37.1771   24.8452 C   0  0  0  0  0  0
  -21.4257  -29.3035   22.3598 N   0  0  0  0  0  0
  -26.4272  -37.3743   23.9415 N   0  0  0  0  0  0
  -24.7187  -31.0250   22.0863 N   0  0  0  0  0  0
  -23.4210  -28.8078   23.2988 O   0  0  0  0  0  0
  -28.3142  -26.1925   20.2483 O   0  0  0  0  0  0
  -26.5641  -34.8899   22.4624 O   0  0  0  0  0  0
  -23.5547  -32.1268   23.7052 O   0  0  0  0  0  0
  -31.4308  -21.8527   21.4412 C   0  0  0  0  0  0
  -30.7620  -21.0592   22.3857 C   0  0  0  0  0  0
  -30.7466  -22.2404   20.2675 C   0  0  0  0  0  0
  -29.3790  -21.8646   20.1575 C   0  0  0  0  0  0
  -29.1889  -20.5224   20.8102 C   0  0  0  0  0  0
  -32.4337  -22.2419   18.3995 C   0  0  0  0  0  0
  -32.2363  -24.2829   19.8642 C   0  0  0  0  0  0
  -28.2245  -24.6748   18.1886 C   0  0  0  0  0  0
  -28.4073  -23.2027   20.4108 C   0  0  0  0  0  0
  -29.0384  -18.9838   20.2195 C   0  0  0  0  0  0
  -30.0859  -17.6854   20.5548 C   0  0  0  0  0  0
  -31.4746  -23.0992   19.2338 C   0  0  0  0  0  0
  -28.5341  -24.7440   19.6942 C   0  0  2  0  0  0
  -29.6346  -20.3939   22.0755 N   0  0  0  0  0  0
  -29.7386  -16.1358   20.4826 N   0  0  0  0  0  0
  -31.4685  -12.7476   19.1710 H   0  0  0  0  0  0
  -30.4303  -11.6400   20.0245 H   0  0  0  0  0  0
  -29.8366  -11.7282   17.5789 H   0  0  0  0  0  0
  -29.6091  -13.4551   17.6768 H   0  0  0  0  0  0
  -27.9335  -11.2820   18.9647 H   0  0  0  0  0  0
  -27.3846  -12.4655   17.8063 H   0  0  0  0  0  0
  -27.5835  -14.2532   19.4024 H   0  0  0  0  0  0
  -28.7673  -12.2973   21.4391 H   0  0  0  0  0  0
  -28.3771  -13.9724   21.7484 H   0  0  0  0  0  0
  -25.2735   -9.5689   22.4761 H   0  0  0  0  0  0
  -23.9987   -7.4633   22.7460 H   0  0  0  0  0  0
  -21.0825   -8.8750   19.8961 H   0  0  0  0  0  0
  -22.3658  -10.9652   19.6177 H   0  0  0  0  0  0
  -21.2012   -7.6130   23.9706 H   0  0  0  0  0  0
  -21.1496   -6.0503   25.9074 H   0  0  0  0  0  0
  -22.0600   -2.7588   23.2833 H   0  0  0  0  0  0
  -22.4010  -11.9883   22.4885 H   0  0  0  0  0  0
  -21.1037  -13.1247   22.2632 H   0  0  0  0  0  0
  -24.6329  -15.8442   20.5238 H   0  0  0  0  0  0
  -26.2377  -15.6353   20.0427 H   0  0  0  0  0  0
  -26.7276  -32.5262   23.0977 H   0  0  0  0  0  0
  -25.0095  -33.9587   25.0322 H   0  0  0  0  0  0
  -22.7534  -31.2841   21.3694 H   0  0  0  0  0  0
  -23.3743  -35.9576   23.3281 H   0  0  0  0  0  0
  -24.3577  -36.8896   22.2064 H   0  0  0  0  0  0
  -23.7221  -37.6434   23.6692 H   0  0  0  0  0  0
  -26.1560  -31.4707   20.6112 H   0  0  0  0  0  0
  -26.8751  -30.7645   22.0227 H   0  0  0  0  0  0
  -28.1285  -28.7929   21.2202 H   0  0  0  0  0  0
  -25.8893  -25.7929   19.0798 H   0  0  0  0  0  0
  -23.9739  -27.2696   19.0033 H   0  0  0  0  0  0
  -23.8052  -30.5481   19.3855 H   0  0  0  0  0  0
  -22.7894  -29.2142   19.8454 H   0  0  0  0  0  0
  -25.1307  -36.1837   25.0806 H   0  0  0  0  0  0
  -21.0022  -28.3272   24.1342 H   0  0  0  0  0  0
  -20.5631  -26.2314   23.3608 H   0  0  0  0  0  0
  -21.6644  -26.7366   22.1217 H   0  0  0  0  0  0
  -19.6894  -25.6267   21.1247 H   0  0  0  0  0  0
  -19.6691  -27.3155   20.6723 H   0  0  0  0  0  0
  -17.4199  -26.6670   21.4028 H   0  0  0  0  0  0
  -18.0338  -26.0074   22.9031 H   0  0  0  0  0  0
  -19.7957  -30.7288   24.2218 H   0  0  0  0  0  0
  -17.5028  -31.6255   24.5153 H   0  0  0  0  0  0
  -15.5358  -30.2967   23.7661 H   0  0  0  0  0  0
  -15.8702  -28.0791   22.7104 H   0  0  0  0  0  0
  -24.5838  -30.7191   25.7737 H   0  0  0  0  0  0
  -24.8928  -32.2995   26.4805 H   0  0  0  0  0  0
  -25.7965  -30.8976   27.0209 H   0  0  0  0  0  0
  -26.3013  -29.6703   24.1284 H   0  0  0  0  0  0
  -27.3959  -29.7287   25.4900 H   0  0  0  0  0  0
  -27.8933  -30.4228   23.9663 H   0  0  0  0  0  0
  -27.2594  -33.3669   26.2055 H   0  0  0  0  0  0
  -28.3855  -32.6938   25.0358 H   0  0  0  0  0  0
  -28.0689  -31.8525   26.5446 H   0  0  0  0  0  0
  -28.2548  -38.0106   24.7539 H   0  0  0  0  0  0
  -28.1100  -36.2627   24.6225 H   0  0  0  0  0  0
  -27.2293  -37.1365   25.8858 H   0  0  0  0  0  0
  -20.9455  -29.8789   21.6824 H   0  0  0  0  0  0
  -26.0117  -38.2791   24.1480 H   0  0  0  0  0  0
  -32.4314  -22.1977   21.6569 H   0  0  0  0  0  0
  -31.1998  -20.8403   23.3474 H   0  0  0  0  0  0
  -31.8896  -21.4706   17.8545 H   0  0  0  0  0  0
  -33.1783  -21.7493   19.0260 H   0  0  0  0  0  0
  -32.9643  -22.8511   17.6682 H   0  0  0  0  0  0
  -31.6040  -24.8770   20.5226 H   0  0  0  0  0  0
  -32.6262  -24.9493   19.0953 H   0  0  0  0  0  0
  -33.0872  -23.9460   20.4548 H   0  0  0  0  0  0
  -28.6816  -23.7936   17.7397 H   0  0  0  0  0  0
  -28.6176  -25.5488   17.6679 H   0  0  0  0  0  0
  -27.1617  -24.5932   17.9748 H   0  0  0  0  0  0
  -28.4813  -23.3743   21.4838 H   0  0  0  0  0  0
  -27.3815  -22.8638   20.2640 H   0  0  0  0  0  0
  -28.9376  -19.0674   19.1364 H   0  0  0  0  0  0
  -28.0522  -18.6726   20.5632 H   0  0  0  0  0  0
  -30.4162  -17.8248   21.5837 H   0  0  0  0  0  0
  -30.9886  -17.8388   19.9617 H   0  0  0  0  0  0
  -30.7474  -23.4897   18.5276 H   0  0  0  0  0  0
  -29.6064  -24.8599   19.7138 H   0  0  0  0  0  0
  -28.7530  -15.9413   20.5764 H   0  0  0  0  0  0
  1 25  1  0  0  0
  1 30  2  0  0  0
  1 85  1  0  0  0
  2  3  1  0  0  0
  2 25  1  0  0  0
  2 86  1  0  0  0
  2 87  1  0  0  0
  3  4  1  0  0  0
  3 88  1  0  0  0
  3 89  1  0  0  0
  4  5  1  0  0  0
  4 90  1  0  0  0
  4 91  1  0  0  0
  5  6  1  0  0  0
  5 26  1  0  0  0
  5 92  1  0  0  0
  6 25  1  0  0  0
  6 93  1  0  0  0
  6 94  1  0  0  0
  7  8  2  0  0  0
  7 26  1  0  0  0
  7 29  1  0  0  0
  8  9  1  0  0  0
  8 22  1  0  0  0
  9 10  1  0  0  0
  9 27  2  0  0  0
 10 11  2  0  0  0
 10 15  1  0  0  0
 11 12  1  0  0  0
 11 95  1  0  0  0
 12 13  2  0  0  0
 12 96  1  0  0  0
 13 14  1  0  0  0
 13 31  1  0  0  0
 14 15  2  0  0  0
 14 97  1  0  0  0
 15 98  1  0  0  0
 16 17  2  0  0  0
 16 21  1  0  0  0
 16 31  1  0  0  0
 17 18  1  0  0  0
 17 99  1  0  0  0
 18 19  2  0  0  0
 18100  1  0  0  0
 19 20  1  0  0  0
 19 24  1  0  0  0
 20 21  2  0  0  0
 20101  1  0  0  0
 21 23  1  0  0  0
 22 28  1  0  0  0
 22 32  2  0  0  0
 26 27  1  0  0  0
 28102  1  0  0  0
 28103  1  0  0  0
 29104  1  0  0  0
 29105  1  0  0  0
 33 34  1  0  0  0
 33 66  1  0  0  0
 33 70  2  0  0  0
 34 36  1  0  0  0
 34 59  1  0  0  0
 34106  1  0  0  0
 35 44  2  0  0  0
 35 45  1  0  0  0
 35 68  1  0  0  0
 36 56  1  0  0  0
 36107  1  0  0  0
 37 39  1  0  0  0
 37 47  1  0  0  0
 37 66  1  0  0  0
 37108  1  0  0  0
 38 43  2  0  0  0
 38 46  1  0  0  0
 38 47  1  0  0  0
 39 64  1  0  0  0
 39 67  2  0  0  0
 40 52  1  0  0  0
 40 53  2  0  0  0
 40 58  1  0  0  0
 41109  1  0  0  0
 41110  1  0  0  0
 41111  1  0  0  0
 41 48  1  0  0  0
 42 43  1  0  0  0
 42 66  1  0  0  0
 42112  1  0  0  0
 42113  1  0  0  0
 43 44  1  0  0  0
 44114  1  0  0  0
 45 46  2  0  0  0
 45115  1  0  0  0
 46116  1  0  0  0
 47117  1  0  0  0
 47118  1  0  0  0
 48 56  1  0  0  0
 48 65  1  0  0  0
 48119  1  0  0  0
 49 50  1  0  0  0
 49 53  1  0  0  0
 49 64  1  0  0  0
 49120  1  0  0  0
 50 51  1  0  0  0
 50121  1  0  0  0
 50122  1  0  0  0
 51 52  1  0  0  0
 51123  1  0  0  0
 51124  1  0  0  0
 52125  1  0  0  0
 52126  1  0  0  0
 53 54  1  0  0  0
 54 55  2  0  0  0
 54127  1  0  0  0
 55 57  1  0  0  0
 55128  1  0  0  0
 56 69  2  0  0  0
 57 58  2  0  0  0
 57129  1  0  0  0
 58130  1  0  0  0
 59 60  1  0  0  0
 59 61  1  0  0  0
 59 62  1  0  0  0
 60131  1  0  0  0
 60132  1  0  0  0
 60133  1  0  0  0
 61134  1  0  0  0
 61135  1  0  0  0
 61136  1  0  0  0
 62137  1  0  0  0
 62138  1  0  0  0
 62139  1  0  0  0
 63 65  1  0  0  0
 63140  1  0  0  0
 63141  1  0  0  0
 63142  1  0  0  0
 64143  1  0  0  0
 65144  1  0  0  0
 68 83  1  0  0  0
 71 72  2  0  0  0
 71 73  1  0  0  0
 71145  1  0  0  0
 72 84  1  0  0  0
 72146  1  0  0  0
 73 74  2  0  0  0
 73 82  1  0  0  0
 74 75  1  0  0  0
 74 79  1  0  0  0
 75 80  1  0  0  0
 75 84  2  0  0  0
 76147  1  0  0  0
 76148  1  0  0  0
 76149  1  0  0  0
 76 82  1  0  0  0
 77 82  1  0  0  0
 77150  1  0  0  0
 77151  1  0  0  0
 77152  1  0  0  0
 78153  1  0  0  0
 78154  1  0  0  0
 78155  1  0  0  0
 78 83  1  0  0  0
 79 83  1  0  0  0
 79156  1  0  0  0
 79157  1  0  0  0
 80 81  1  0  0  0
 80158  1  0  0  0
 80159  1  0  0  0
 81 85  1  0  0  0
 81160  1  0  0  0
 81161  1  0  0  0
 82162  1  0  0  0
 83163  1  0  0  0
 85164  1  0  0  0
M  ISO  4   1 100  68 101  83 101  85 100
M  END
> <chiral flag>
0

> <version>
0

> <s_m_source_file>
/data/baiqing/PycharmProjects/Reinvent-master-3.2/result/LINK_invent/BTK/process_docking_weight1_custom_sum_contain_oxygen_bond_distance_aromatic_linkinvent_7_9_3/rearranged_h_0117.sdf

> <i_m_source_file_index>
78

> <r_mmod_Potential_Energy-OPLS-2005>
639.248901367188

> <r_mmod_Stretch_Energy-OPLS-2005>
293.391967773438

> <r_mmod_Bend_Energy-OPLS-2005>
347.594177246094

> <r_mmod_Torsional_Energy-OPLS-2005>
414.106170654297

> <r_mmod_Improper_Torsional_Energy-OPLS-2005>
27.1097679138184

> <r_mmod_Van_der_Waal_Energy-OPLS-2005>
139.662460327148

> <r_mmod_Electrostatic_Energy-OPLS-2005>
-556.757141113281

> <r_mmod_Solvation_Energy-OPLS-2005>
-221.048294067383

> <b_mmod_Minimization_Converged-OPLS-2005>
0

> <r_mmod_RMS_Derivative-OPLS-2005>
2.54636383056641

$$$$
79
                    3D
 Structure written by MMmdl.
156164  0  0  1  0            999 V2000
  -30.3755  -15.4959   20.3485 C   0  0  0  0  0  0
  -30.4246  -12.9799   19.5357 C   0  0  0  0  0  0
  -29.5417  -12.6211   18.3105 C   0  0  0  0  0  0
  -28.1070  -12.2950   18.7520 C   0  0  0  0  0  0
  -27.5988  -13.2969   19.8156 C   0  0  2  0  0  0
  -28.6211  -13.5845   20.9386 C   0  0  0  0  0  0
  -25.2344  -13.8283   20.5800 C   0  0  0  0  0  0
  -24.1714  -13.0442   20.9274 C   0  0  0  0  0  0
  -24.6401  -11.6945   20.8764 C   0  0  0  0  0  0
  -23.9107  -10.4293   21.0400 C   0  0  0  0  0  0
  -24.3648   -9.4206   21.9182 C   0  0  0  0  0  0
  -23.6306   -8.2247   22.0755 C   0  0  0  0  0  0
  -22.4286   -8.0289   21.3548 C   0  0  0  0  0  0
  -21.9931   -9.0264   20.4649 C   0  0  0  0  0  0
  -22.7274  -10.2135   20.3053 C   0  0  0  0  0  0
  -21.6857   -6.0741   22.5279 C   0  0  0  0  0  0
  -21.4021   -6.5645   23.8213 C   0  0  0  0  0  0
  -21.3659   -5.6796   24.9174 C   0  0  0  0  0  0
  -21.6043   -4.3058   24.7221 C   0  0  0  0  0  0
  -21.8817   -3.8151   23.4341 C   0  0  0  0  0  0
  -21.9191   -4.6969   22.3400 C   0  0  0  0  0  0
  -22.7728  -13.5179   21.1907 C   0  0  0  0  0  0
  -22.1661   -4.2159   21.0975 F   0  0  0  0  0  0
  -21.5623   -3.4539   25.7731 F   0  0  0  0  0  0
  -29.8144  -14.1609   20.2855 N   0  0  0  0  0  0
  -26.2776  -12.9591   20.3244 N   0  0  0  0  0  0
  -25.9346  -11.6676   20.5719 N   0  0  0  0  0  0
  -22.0393  -12.8158   22.0463 N   0  0  0  0  0  0
  -25.3985  -15.2024   20.4287 N   0  0  0  0  0  0
  -31.6048  -15.4204   20.1648 O   0  0  0  0  0  0
  -21.6646   -6.8887   21.4243 O   0  0  0  0  0  0
  -22.3407  -14.5478   20.6742 O   0  0  0  0  0  0
  -24.6763  -31.8073   23.1572 C   0  0  0  0  0  0
  -25.9376  -32.4504   23.8094 C   0  0  1  0  0  0
  -27.2229  -26.7764   20.2077 C   0  0  0  0  0  0
  -25.5983  -33.8324   24.1986 N   0  0  0  0  0  0
  -23.4992  -30.4116   21.5095 C   0  0  2  0  0  0
  -24.9549  -28.7663   20.1167 C   0  0  0  0  0  0
  -22.7735  -29.4348   22.4733 C   0  0  0  0  0  0
  -18.0335  -28.1414   22.8458 C   0  0  0  0  0  0
  -24.1496  -36.7173   23.2653 C   0  0  0  0  0  0
  -26.0758  -30.5653   21.4093 C   0  0  0  0  0  0
  -26.1423  -29.1379   20.7587 C   0  0  0  0  0  0
  -27.2645  -28.1685   20.7721 C   0  0  0  0  0  0
  -26.0039  -26.5939   19.5108 C   0  0  0  0  0  0
  -24.9203  -27.5191   19.4699 C   0  0  0  0  0  0
  -23.7488  -29.7134   20.1421 C   0  0  0  0  0  0
  -25.4141  -36.2918   24.0289 C   0  0  1  0  0  0
  -20.5966  -28.3768   23.1157 C   0  0  2  0  0  0
  -20.6802  -26.9433   22.5402 C   0  0  0  0  0  0
  -19.5776  -26.6369   21.5214 C   0  0  0  0  0  0
  -18.1959  -26.7944   22.1620 C   0  0  0  0  0  0
  -19.1598  -28.8915   23.2792 C   0  0  0  0  0  0
  -18.9504  -30.1501   23.8832 C   0  0  0  0  0  0
  -17.6493  -30.6598   24.0550 C   0  0  0  0  0  0
  -25.9113  -34.9303   23.4972 C   0  0  0  0  0  0
  -16.5385  -29.9079   23.6345 C   0  0  0  0  0  0
  -16.7314  -28.6503   23.0363 C   0  0  0  0  0  0
  -26.4579  -31.6512   25.0689 C   0  0  0  0  0  0
  -25.3665  -31.3806   26.1321 C   0  0  0  0  0  0
  -27.0499  -30.2859   24.6537 C   0  0  0  0  0  0
  -27.6039  -32.4358   25.7504 C   0  0  0  0  0  0
  -27.5566  -37.1743   24.8466 C   0  0  0  0  0  0
  -21.4389  -29.3029   22.3488 N   0  0  0  0  0  0
  -26.4276  -37.3668   23.9406 N   0  0  0  0  0  0
  -24.7734  -30.9591   22.0786 N   0  0  0  0  0  0
  -23.4213  -28.7935   23.3042 O   0  0  0  0  0  0
  -28.2078  -25.6044   20.2861 O   0  0  0  0  0  0
  -26.5745  -34.8870   22.4583 O   0  0  0  0  0  0
  -23.5798  -32.1108   23.6571 O   0  0  0  0  0  0
  -29.5065  -17.9574   19.2379 C   0  0  0  0  0  0
  -29.6137  -17.9625   21.4921 C   0  0  0  0  0  0
  -28.8638  -19.5884   19.2899 C   0  0  0  0  0  0
  -29.8694  -19.6568   21.3447 C   0  0  1  0  0  0
  -31.3613  -19.8814   20.9869 C   0  0  0  0  0  0
  -29.6317  -22.7583   21.8674 C   0  0  0  0  0  0
  -28.0290  -23.8874   20.1635 C   0  0  0  0  0  0
  -29.1017  -22.3573   20.4710 C   0  0  2  0  0  0
  -29.6762  -16.8714   20.3716 N   0  0  0  0  0  0
  -28.9396  -20.6028   20.4909 N   0  3  1  0  0  0
  -31.4307  -13.2087   19.1824 H   0  0  0  0  0  0
  -30.5454  -12.1174   20.1932 H   0  0  0  0  0  0
  -29.9692  -11.7796   17.7634 H   0  0  0  0  0  0
  -29.5282  -13.4643   17.6183 H   0  0  0  0  0  0
  -28.1132  -11.2892   19.1748 H   0  0  0  0  0  0
  -27.4353  -12.2647   17.8934 H   0  0  0  0  0  0
  -27.4770  -14.2324   19.2677 H   0  0  0  0  0  0
  -28.8493  -12.6888   21.5187 H   0  0  0  0  0  0
  -28.2138  -14.3138   21.6404 H   0  0  0  0  0  0
  -25.2789   -9.5677   22.4764 H   0  0  0  0  0  0
  -24.0010   -7.4637   22.7476 H   0  0  0  0  0  0
  -21.0862   -8.8792   19.8953 H   0  0  0  0  0  0
  -22.3735  -10.9677   19.6163 H   0  0  0  0  0  0
  -21.2028   -7.6156   23.9721 H   0  0  0  0  0  0
  -21.1479   -6.0525   25.9078 H   0  0  0  0  0  0
  -22.0596   -2.7614   23.2837 H   0  0  0  0  0  0
  -22.4029  -11.9837   22.4866 H   0  0  0  0  0  0
  -21.1000  -13.1157   22.2660 H   0  0  0  0  0  0
  -24.6324  -15.8549   20.5562 H   0  0  0  0  0  0
  -26.2545  -15.6493   20.1264 H   0  0  0  0  0  0
  -26.7457  -32.5000   23.0810 H   0  0  0  0  0  0
  -25.0049  -33.9372   25.0085 H   0  0  0  0  0  0
  -22.8206  -31.2470   21.3249 H   0  0  0  0  0  0
  -23.3771  -35.9489   23.3271 H   0  0  0  0  0  0
  -24.3566  -36.8871   22.2076 H   0  0  0  0  0  0
  -23.7243  -37.6340   23.6750 H   0  0  0  0  0  0
  -26.2699  -31.2959   20.6227 H   0  0  0  0  0  0
  -26.9301  -30.6301   22.0712 H   0  0  0  0  0  0
  -28.1609  -28.4568   21.3032 H   0  0  0  0  0  0
  -25.8508  -25.6468   19.0140 H   0  0  0  0  0  0
  -24.0220  -27.2278   18.9429 H   0  0  0  0  0  0
  -23.9183  -30.4753   19.3802 H   0  0  0  0  0  0
  -22.8555  -29.1759   19.8201 H   0  0  0  0  0  0
  -25.1346  -36.1693   25.0779 H   0  0  0  0  0  0
  -21.0049  -28.3386   24.1283 H   0  0  0  0  0  0
  -20.5662  -26.2388   23.3657 H   0  0  0  0  0  0
  -21.6665  -26.7379   22.1220 H   0  0  0  0  0  0
  -19.6928  -25.6262   21.1285 H   0  0  0  0  0  0
  -19.6717  -27.3145   20.6715 H   0  0  0  0  0  0
  -17.4226  -26.6684   21.4027 H   0  0  0  0  0  0
  -18.0353  -26.0103   22.9032 H   0  0  0  0  0  0
  -19.7978  -30.7336   24.2172 H   0  0  0  0  0  0
  -17.5042  -31.6270   24.5166 H   0  0  0  0  0  0
  -15.5381  -30.2957   23.7706 H   0  0  0  0  0  0
  -15.8718  -28.0797   22.7112 H   0  0  0  0  0  0
  -24.5866  -30.7139   25.7625 H   0  0  0  0  0  0
  -24.8839  -32.3021   26.4585 H   0  0  0  0  0  0
  -25.7862  -30.9075   27.0207 H   0  0  0  0  0  0
  -26.3198  -29.6493   24.1531 H   0  0  0  0  0  0
  -27.3955  -29.7282   25.5252 H   0  0  0  0  0  0
  -27.9169  -30.4000   24.0028 H   0  0  0  0  0  0
  -27.2582  -33.3714   26.1912 H   0  0  0  0  0  0
  -28.3939  -32.6831   25.0399 H   0  0  0  0  0  0
  -28.0614  -31.8604   26.5562 H   0  0  0  0  0  0
  -28.2556  -38.0063   24.7507 H   0  0  0  0  0  0
  -28.1089  -36.2585   24.6300 H   0  0  0  0  0  0
  -27.2279  -37.1390   25.8868 H   0  0  0  0  0  0
  -20.9676  -29.8704   21.6582 H   0  0  0  0  0  0
  -26.0110  -38.2721   24.1412 H   0  0  0  0  0  0
  -30.5004  -18.0332   18.7967 H   0  0  0  0  0  0
  -28.9399  -17.4472   18.4580 H   0  0  0  0  0  0
  -28.6309  -17.8380   21.9480 H   0  0  0  0  0  0
  -30.3044  -17.6139   22.2611 H   0  0  0  0  0  0
  -27.7991  -19.5122   19.0682 H   0  0  0  0  0  0
  -29.2742  -20.1149   18.4279 H   0  0  0  0  0  0
  -29.7468  -20.0304   22.3619 H   0  0  0  0  0  0
  -31.6198  -19.4926   20.0049 H   0  0  0  0  0  0
  -32.0076  -19.3767   21.7052 H   0  0  0  0  0  0
  -31.6531  -20.9278   20.9758 H   0  0  0  0  0  0
  -29.9054  -23.8141   21.8903 H   0  0  0  0  0  0
  -30.5163  -22.2201   22.1922 H   0  0  0  0  0  0
  -28.8649  -22.6112   22.6286 H   0  0  0  0  0  0
  -27.1437  -23.7089   20.7743 H   0  0  0  0  0  0
  -27.6655  -23.7562   19.1443 H   0  0  0  0  0  0
  -29.9331  -22.4925   19.7794 H   0  0  0  0  0  0
  -28.0393  -20.4863   20.9351 H   0  0  0  0  0  0
  1 25  1  0  0  0
  1 30  2  0  0  0
  1 79  1  0  0  0
  2  3  1  0  0  0
  2 25  1  0  0  0
  2 81  1  0  0  0
  2 82  1  0  0  0
  3  4  1  0  0  0
  3 83  1  0  0  0
  3 84  1  0  0  0
  4  5  1  0  0  0
  4 85  1  0  0  0
  4 86  1  0  0  0
  5  6  1  0  0  0
  5 26  1  0  0  0
  5 87  1  0  0  0
  6 25  1  0  0  0
  6 88  1  0  0  0
  6 89  1  0  0  0
  7  8  2  0  0  0
  7 26  1  0  0  0
  7 29  1  0  0  0
  8  9  1  0  0  0
  8 22  1  0  0  0
  9 10  1  0  0  0
  9 27  2  0  0  0
 10 11  2  0  0  0
 10 15  1  0  0  0
 11 12  1  0  0  0
 11 90  1  0  0  0
 12 13  2  0  0  0
 12 91  1  0  0  0
 13 14  1  0  0  0
 13 31  1  0  0  0
 14 15  2  0  0  0
 14 92  1  0  0  0
 15 93  1  0  0  0
 16 17  2  0  0  0
 16 21  1  0  0  0
 16 31  1  0  0  0
 17 18  1  0  0  0
 17 94  1  0  0  0
 18 19  2  0  0  0
 18 95  1  0  0  0
 19 20  1  0  0  0
 19 24  1  0  0  0
 20 21  2  0  0  0
 20 96  1  0  0  0
 21 23  1  0  0  0
 22 28  1  0  0  0
 22 32  2  0  0  0
 26 27  1  0  0  0
 28 97  1  0  0  0
 28 98  1  0  0  0
 29 99  1  0  0  0
 29100  1  0  0  0
 33 34  1  0  0  0
 33 66  1  0  0  0
 33 70  2  0  0  0
 34 36  1  0  0  0
 34 59  1  0  0  0
 34101  1  0  0  0
 35 44  2  0  0  0
 35 45  1  0  0  0
 35 68  1  0  0  0
 36 56  1  0  0  0
 36102  1  0  0  0
 37 39  1  0  0  0
 37 47  1  0  0  0
 37 66  1  0  0  0
 37103  1  0  0  0
 38 43  2  0  0  0
 38 46  1  0  0  0
 38 47  1  0  0  0
 39 64  1  0  0  0
 39 67  2  0  0  0
 40 52  1  0  0  0
 40 53  2  0  0  0
 40 58  1  0  0  0
 41104  1  0  0  0
 41105  1  0  0  0
 41106  1  0  0  0
 41 48  1  0  0  0
 42 43  1  0  0  0
 42 66  1  0  0  0
 42107  1  0  0  0
 42108  1  0  0  0
 43 44  1  0  0  0
 44109  1  0  0  0
 45 46  2  0  0  0
 45110  1  0  0  0
 46111  1  0  0  0
 47112  1  0  0  0
 47113  1  0  0  0
 48 56  1  0  0  0
 48 65  1  0  0  0
 48114  1  0  0  0
 49 50  1  0  0  0
 49 53  1  0  0  0
 49 64  1  0  0  0
 49115  1  0  0  0
 50 51  1  0  0  0
 50116  1  0  0  0
 50117  1  0  0  0
 51 52  1  0  0  0
 51118  1  0  0  0
 51119  1  0  0  0
 52120  1  0  0  0
 52121  1  0  0  0
 53 54  1  0  0  0
 54 55  2  0  0  0
 54122  1  0  0  0
 55 57  1  0  0  0
 55123  1  0  0  0
 56 69  2  0  0  0
 57 58  2  0  0  0
 57124  1  0  0  0
 58125  1  0  0  0
 59 60  1  0  0  0
 59 61  1  0  0  0
 59 62  1  0  0  0
 60126  1  0  0  0
 60127  1  0  0  0
 60128  1  0  0  0
 61129  1  0  0  0
 61130  1  0  0  0
 61131  1  0  0  0
 62132  1  0  0  0
 62133  1  0  0  0
 62134  1  0  0  0
 63 65  1  0  0  0
 63135  1  0  0  0
 63136  1  0  0  0
 63137  1  0  0  0
 64138  1  0  0  0
 65139  1  0  0  0
 68 77  1  0  0  0
 71 73  1  0  0  0
 71 79  1  0  0  0
 71140  1  0  0  0
 71141  1  0  0  0
 72 74  1  0  0  0
 72 79  1  0  0  0
 72142  1  0  0  0
 72143  1  0  0  0
 73144  1  0  0  0
 73145  1  0  0  0
 73 80  1  0  0  0
 74 75  1  0  0  0
 74 80  1  0  0  0
 74146  1  0  0  0
 75147  1  0  0  0
 75148  1  0  0  0
 75149  1  0  0  0
 76150  1  0  0  0
 76151  1  0  0  0
 76152  1  0  0  0
 76 78  1  0  0  0
 77 78  1  0  0  0
 77153  1  0  0  0
 77154  1  0  0  0
 78 80  1  0  0  0
 78155  1  0  0  0
 80156  1  0  0  0
M  CHG  1  80   1
M  ISO  4   1 100  68 101  77 101  79 100
M  END
> <chiral flag>
0

> <version>
0

> <s_m_source_file>
/data/baiqing/PycharmProjects/Reinvent-master-3.2/result/LINK_invent/BTK/process_docking_weight1_custom_sum_contain_oxygen_bond_distance_aromatic_linkinvent_7_9_3/rearranged_h_0117.sdf

> <i_m_source_file_index>
79

> <r_mmod_Potential_Energy-OPLS-2005>
2181.08911132812

> <r_mmod_Stretch_Energy-OPLS-2005>
846.710510253906

> <r_mmod_Bend_Energy-OPLS-2005>
668.141296386719

> <r_mmod_Torsional_Energy-OPLS-2005>
421.888122558594

> <r_mmod_Improper_Torsional_Energy-OPLS-2005>
8.22321224212646

> <r_mmod_Van_der_Waal_Energy-OPLS-2005>
121.230339050293

> <r_mmod_Electrostatic_Energy-OPLS-2005>
-183.03483581543

> <r_mmod_Solvation_Energy-OPLS-2005>
-421.851593017578

> <b_mmod_Minimization_Converged-OPLS-2005>
0

> <r_mmod_RMS_Derivative-OPLS-2005>
0.74344938993454

$$$$
80
                    3D
 Structure written by MMmdl.
161170  0  0  1  0            999 V2000
  -30.7520  -14.5262   20.3933 C   0  0  0  0  0  0
  -30.4004  -12.3078   19.4061 C   0  0  0  0  0  0
  -29.4414  -12.3498   18.1964 C   0  0  0  0  0  0
  -27.9785  -12.2694   18.6573 C   0  0  0  0  0  0
  -27.6400  -13.2115   19.8425 C   0  0  2  0  0  0
  -28.7093  -13.1498   20.9545 C   0  0  0  0  0  0
  -25.2549  -13.8243   20.5811 C   0  0  0  0  0  0
  -24.1811  -13.0523   20.9246 C   0  0  0  0  0  0
  -24.6334  -11.6987   20.8859 C   0  0  0  0  0  0
  -23.9043  -10.4337   21.0493 C   0  0  0  0  0  0
  -24.3605   -9.4231   21.9231 C   0  0  0  0  0  0
  -23.6283   -8.2253   22.0766 C   0  0  0  0  0  0
  -22.4259   -8.0303   21.3554 C   0  0  0  0  0  0
  -21.9905   -9.0285   20.4664 C   0  0  0  0  0  0
  -22.7241  -10.2171   20.3106 C   0  0  0  0  0  0
  -21.6836   -6.0761   22.5290 C   0  0  0  0  0  0
  -21.4019   -6.5660   23.8230 C   0  0  0  0  0  0
  -21.3657   -5.6811   24.9180 C   0  0  0  0  0  0
  -21.6020   -4.3065   24.7229 C   0  0  0  0  0  0
  -21.8819   -3.8161   23.4348 C   0  0  0  0  0  0
  -21.9185   -4.6979   22.3413 C   0  0  0  0  0  0
  -22.7804  -13.5293   21.1895 C   0  0  0  0  0  0
  -22.1659   -4.2163   21.0977 F   0  0  0  0  0  0
  -21.5602   -3.4562   25.7734 F   0  0  0  0  0  0
  -30.0173  -13.3816   20.3334 N   0  0  0  0  0  0
  -26.2957  -12.9424   20.3467 N   0  0  0  0  0  0
  -25.9256  -11.6587   20.5933 N   0  0  0  0  0  0
  -22.0461  -12.8270   22.0440 N   0  0  0  0  0  0
  -25.4419  -15.1970   20.4250 N   0  0  0  0  0  0
  -31.9791  -14.5298   20.2904 O   0  0  0  0  0  0
  -21.6634   -6.8901   21.4254 O   0  0  0  0  0  0
  -22.3509  -14.5643   20.6783 O   0  0  0  0  0  0
  -24.6106  -31.8709   23.2113 C   0  0  0  0  0  0
  -25.9016  -32.4846   23.8408 C   0  0  1  0  0  0
  -27.2420  -27.4356   20.0977 C   0  0  0  0  0  0
  -25.5923  -33.8651   24.2340 N   0  0  0  0  0  0
  -23.3995  -30.4876   21.5523 C   0  0  2  0  0  0
  -24.8528  -28.9455   20.1255 C   0  0  0  0  0  0
  -22.7370  -29.4693   22.5051 C   0  0  0  0  0  0
  -18.0199  -28.1362   22.8435 C   0  0  0  0  0  0
  -24.1494  -36.7322   23.2633 C   0  0  0  0  0  0
  -25.9282  -30.8296   21.3690 C   0  0  0  0  0  0
  -26.0104  -29.4597   20.7247 C   0  0  0  0  0  0
  -27.2087  -28.7070   20.7187 C   0  0  0  0  0  0
  -26.0721  -26.9402   19.4880 C   0  0  0  0  0  0
  -24.8741  -27.6802   19.5150 C   0  0  0  0  0  0
  -23.6116  -29.8087   20.1725 C   0  0  0  0  0  0
  -25.4123  -36.3118   24.0329 C   0  0  1  0  0  0
  -20.5793  -28.3646   23.1311 C   0  0  2  0  0  0
  -20.6727  -26.9440   22.5249 C   0  0  0  0  0  0
  -19.5662  -26.6457   21.5060 C   0  0  0  0  0  0
  -18.1854  -26.7949   22.1483 C   0  0  0  0  0  0
  -19.1450  -28.8804   23.2908 C   0  0  0  0  0  0
  -18.9363  -30.1401   23.8924 C   0  0  0  0  0  0
  -17.6371  -30.6514   24.0561 C   0  0  0  0  0  0
  -25.9049  -34.9491   23.5132 C   0  0  0  0  0  0
  -16.5283  -29.9027   23.6302 C   0  0  0  0  0  0
  -16.7192  -28.6471   23.0312 C   0  0  0  0  0  0
  -26.4451  -31.6624   25.0727 C   0  0  0  0  0  0
  -25.3751  -31.3754   26.1495 C   0  0  0  0  0  0
  -27.0250  -30.3067   24.6099 C   0  0  0  0  0  0
  -27.6031  -32.4329   25.7484 C   0  0  0  0  0  0
  -27.5582  -37.1820   24.8462 C   0  0  0  0  0  0
  -21.4096  -29.3066   22.3819 N   0  0  0  0  0  0
  -26.4304  -37.3796   23.9403 N   0  0  0  0  0  0
  -24.6641  -31.0769   22.1012 N   0  0  0  0  0  0
  -23.4146  -28.8255   23.3096 O   0  0  0  0  0  0
  -28.3968  -26.6912   19.9889 O   0  0  0  0  0  0
  -26.5597  -34.8924   22.4663 O   0  0  0  0  0  0
  -23.5322  -32.1485   23.7512 O   0  0  0  0  0  0
  -27.1441  -22.1534   22.0591 C   0  0  0  0  0  0
  -26.7642  -20.8354   22.3224 C   0  0  0  0  0  0
  -28.4843  -22.3728   21.7017 C   0  0  0  0  0  0
  -28.8804  -20.1241   21.9049 C   0  0  0  0  0  0
  -31.0753  -16.9911   18.3178 C   0  0  0  0  0  0
  -31.0136  -17.8780   19.5332 C   0  0  0  0  0  0
  -30.0120  -15.9537   18.6411 C   0  0  0  0  0  0
  -30.5260  -16.9759   20.6938 C   0  0  1  0  0  0
  -29.3947  -17.7016   21.4698 C   0  0  0  0  0  0
  -28.8950  -26.0874   21.1845 C   0  0  0  0  0  0
  -28.1795  -24.7587   21.5344 C   0  0  0  0  0  0
  -27.6429  -19.8214   22.2514 N   0  0  0  0  0  0
  -29.3518  -21.3358   21.6320 N   0  0  0  0  0  0
  -30.0891  -15.6802   20.0937 N   0  0  0  0  0  0
  -29.7734  -19.0775   21.8191 N   0  0  0  0  0  0
  -29.0365  -23.6116   21.4159 O   0  0  0  0  0  0
  -31.4289  -12.4039   19.0520 H   0  0  0  0  0  0
  -30.3417  -11.3449   19.9145 H   0  0  0  0  0  0
  -29.6478  -11.5051   17.5422 H   0  0  0  0  0  0
  -29.5826  -13.2221   17.5686 H   0  0  0  0  0  0
  -27.7982  -11.2354   18.9623 H   0  0  0  0  0  0
  -27.3018  -12.4629   17.8225 H   0  0  0  0  0  0
  -27.6443  -14.2262   19.4416 H   0  0  0  0  0  0
  -28.6951  -12.1877   21.4654 H   0  0  0  0  0  0
  -28.5086  -13.9095   21.7086 H   0  0  0  0  0  0
  -25.2746   -9.5661   22.4837 H   0  0  0  0  0  0
  -23.9978   -7.4606   22.7468 H   0  0  0  0  0  0
  -21.0868   -8.8853   19.8927 H   0  0  0  0  0  0
  -22.3758  -10.9740   19.6226 H   0  0  0  0  0  0
  -21.2050   -7.6166   23.9745 H   0  0  0  0  0  0
  -21.1461   -6.0534   25.9092 H   0  0  0  0  0  0
  -22.0596   -2.7621   23.2858 H   0  0  0  0  0  0
  -22.3998  -11.9841   22.4722 H   0  0  0  0  0  0
  -21.1127  -13.1380   22.2741 H   0  0  0  0  0  0
  -24.7054  -15.8796   20.5670 H   0  0  0  0  0  0
  -26.3303  -15.6156   20.1805 H   0  0  0  0  0  0
  -26.7095  -32.5535   23.1173 H   0  0  0  0  0  0
  -25.0044  -33.9806   25.0473 H   0  0  0  0  0  0
  -22.6841  -31.2995   21.4066 H   0  0  0  0  0  0
  -23.3750  -35.9656   23.3305 H   0  0  0  0  0  0
  -24.3582  -36.8913   22.2039 H   0  0  0  0  0  0
  -23.7251  -37.6535   23.6636 H   0  0  0  0  0  0
  -26.0308  -31.5901   20.5937 H   0  0  0  0  0  0
  -26.8174  -30.8923   21.9832 H   0  0  0  0  0  0
  -28.1055  -29.1077   21.1681 H   0  0  0  0  0  0
  -26.0870  -25.9799   18.9919 H   0  0  0  0  0  0
  -23.9830  -27.2720   19.0602 H   0  0  0  0  0  0
  -23.7157  -30.5724   19.4029 H   0  0  0  0  0  0
  -22.7365  -29.2227   19.8853 H   0  0  0  0  0  0
  -25.1290  -36.1974   25.0822 H   0  0  0  0  0  0
  -20.9846  -28.3106   24.1433 H   0  0  0  0  0  0
  -20.5740  -26.2221   23.3358 H   0  0  0  0  0  0
  -21.6580  -26.7595   22.0965 H   0  0  0  0  0  0
  -19.6856  -25.6425   21.0930 H   0  0  0  0  0  0
  -19.6543  -27.3341   20.6644 H   0  0  0  0  0  0
  -17.4165  -26.6790   21.3866 H   0  0  0  0  0  0
  -18.0222  -26.0010   22.8764 H   0  0  0  0  0  0
  -19.7825  -30.7174   24.2373 H   0  0  0  0  0  0
  -17.4884  -31.6170   24.5192 H   0  0  0  0  0  0
  -15.5274  -30.2907   23.7595 H   0  0  0  0  0  0
  -15.8619  -28.0794   22.7029 H   0  0  0  0  0  0
  -24.5893  -30.7113   25.7875 H   0  0  0  0  0  0
  -24.8973  -32.2925   26.4968 H   0  0  0  0  0  0
  -25.8121  -30.8928   27.0252 H   0  0  0  0  0  0
  -26.2790  -29.6862   24.1137 H   0  0  0  0  0  0
  -27.3983  -29.7243   25.4526 H   0  0  0  0  0  0
  -27.8633  -30.4326   23.9248 H   0  0  0  0  0  0
  -27.2645  -33.3580   26.2153 H   0  0  0  0  0  0
  -28.3810  -32.6996   25.0319 H   0  0  0  0  0  0
  -28.0767  -31.8439   26.5335 H   0  0  0  0  0  0
  -28.2620  -38.0098   24.7491 H   0  0  0  0  0  0
  -28.1057  -36.2630   24.6314 H   0  0  0  0  0  0
  -27.2299  -37.1501   25.8865 H   0  0  0  0  0  0
  -20.9305  -29.8812   21.7037 H   0  0  0  0  0  0
  -26.0193  -38.2872   24.1408 H   0  0  0  0  0  0
  -26.4004  -22.9297   22.1596 H   0  0  0  0  0  0
  -25.7518  -20.5919   22.5988 H   0  0  0  0  0  0
  -32.0582  -16.5224   18.2398 H   0  0  0  0  0  0
  -30.8821  -17.5281   17.3873 H   0  0  0  0  0  0
  -30.3002  -18.6747   19.3162 H   0  0  0  0  0  0
  -31.9701  -18.3509   19.7478 H   0  0  0  0  0  0
  -30.2027  -15.0963   18.0052 H   0  0  0  0  0  0
  -29.0208  -16.3323   18.3924 H   0  0  0  0  0  0
  -31.3653  -16.8080   21.3777 H   0  0  0  0  0  0
  -28.5011  -17.7273   20.8430 H   0  0  0  0  0  0
  -29.1370  -17.1693   22.3841 H   0  0  0  0  0  0
  -29.9674  -25.9157   21.0503 H   0  0  0  0  0  0
  -28.8042  -26.7845   22.0157 H   0  0  0  0  0  0
  -27.8144  -24.8375   22.5599 H   0  0  0  0  0  0
  -27.2993  -24.6317   20.9031 H   0  0  0  0  0  0
  -30.6938  -19.3594   21.5123 H   0  0  0  0  0  0
  1 25  1  0  0  0
  1 30  2  0  0  0
  1 84  1  0  0  0
  2  3  1  0  0  0
  2 25  1  0  0  0
  2 87  1  0  0  0
  2 88  1  0  0  0
  3  4  1  0  0  0
  3 89  1  0  0  0
  3 90  1  0  0  0
  4  5  1  0  0  0
  4 91  1  0  0  0
  4 92  1  0  0  0
  5  6  1  0  0  0
  5 26  1  0  0  0
  5 93  1  0  0  0
  6 25  1  0  0  0
  6 94  1  0  0  0
  6 95  1  0  0  0
  7  8  2  0  0  0
  7 26  1  0  0  0
  7 29  1  0  0  0
  8  9  1  0  0  0
  8 22  1  0  0  0
  9 10  1  0  0  0
  9 27  2  0  0  0
 10 11  2  0  0  0
 10 15  1  0  0  0
 11 12  1  0  0  0
 11 96  1  0  0  0
 12 13  2  0  0  0
 12 97  1  0  0  0
 13 14  1  0  0  0
 13 31  1  0  0  0
 14 15  2  0  0  0
 14 98  1  0  0  0
 15 99  1  0  0  0
 16 17  2  0  0  0
 16 21  1  0  0  0
 16 31  1  0  0  0
 17 18  1  0  0  0
 17100  1  0  0  0
 18 19  2  0  0  0
 18101  1  0  0  0
 19 20  1  0  0  0
 19 24  1  0  0  0
 20 21  2  0  0  0
 20102  1  0  0  0
 21 23  1  0  0  0
 22 28  1  0  0  0
 22 32  2  0  0  0
 26 27  1  0  0  0
 28103  1  0  0  0
 28104  1  0  0  0
 29105  1  0  0  0
 29106  1  0  0  0
 33 34  1  0  0  0
 33 66  1  0  0  0
 33 70  2  0  0  0
 34 36  1  0  0  0
 34 59  1  0  0  0
 34107  1  0  0  0
 35 44  2  0  0  0
 35 45  1  0  0  0
 35 68  1  0  0  0
 36 56  1  0  0  0
 36108  1  0  0  0
 37 39  1  0  0  0
 37 47  1  0  0  0
 37 66  1  0  0  0
 37109  1  0  0  0
 38 43  2  0  0  0
 38 46  1  0  0  0
 38 47  1  0  0  0
 39 64  1  0  0  0
 39 67  2  0  0  0
 40 52  1  0  0  0
 40 53  2  0  0  0
 40 58  1  0  0  0
 41110  1  0  0  0
 41111  1  0  0  0
 41112  1  0  0  0
 41 48  1  0  0  0
 42 43  1  0  0  0
 42 66  1  0  0  0
 42113  1  0  0  0
 42114  1  0  0  0
 43 44  1  0  0  0
 44115  1  0  0  0
 45 46  2  0  0  0
 45116  1  0  0  0
 46117  1  0  0  0
 47118  1  0  0  0
 47119  1  0  0  0
 48 56  1  0  0  0
 48 65  1  0  0  0
 48120  1  0  0  0
 49 50  1  0  0  0
 49 53  1  0  0  0
 49 64  1  0  0  0
 49121  1  0  0  0
 50 51  1  0  0  0
 50122  1  0  0  0
 50123  1  0  0  0
 51 52  1  0  0  0
 51124  1  0  0  0
 51125  1  0  0  0
 52126  1  0  0  0
 52127  1  0  0  0
 53 54  1  0  0  0
 54 55  2  0  0  0
 54128  1  0  0  0
 55 57  1  0  0  0
 55129  1  0  0  0
 56 69  2  0  0  0
 57 58  2  0  0  0
 57130  1  0  0  0
 58131  1  0  0  0
 59 60  1  0  0  0
 59 61  1  0  0  0
 59 62  1  0  0  0
 60132  1  0  0  0
 60133  1  0  0  0
 60134  1  0  0  0
 61135  1  0  0  0
 61136  1  0  0  0
 61137  1  0  0  0
 62138  1  0  0  0
 62139  1  0  0  0
 62140  1  0  0  0
 63 65  1  0  0  0
 63141  1  0  0  0
 63142  1  0  0  0
 63143  1  0  0  0
 64144  1  0  0  0
 65145  1  0  0  0
 68 80  1  0  0  0
 71 72  2  0  0  0
 71 73  1  0  0  0
 71146  1  0  0  0
 72 82  1  0  0  0
 72147  1  0  0  0
 73 83  2  0  0  0
 73 86  1  0  0  0
 74 82  2  0  0  0
 74 83  1  0  0  0
 74 85  1  0  0  0
 75 76  1  0  0  0
 75 77  1  0  0  0
 75148  1  0  0  0
 75149  1  0  0  0
 76 78  1  0  0  0
 76150  1  0  0  0
 76151  1  0  0  0
 77 84  1  0  0  0
 77152  1  0  0  0
 77153  1  0  0  0
 78 79  1  0  0  0
 78 84  1  0  0  0
 78154  1  0  0  0
 79 85  1  0  0  0
 79155  1  0  0  0
 79156  1  0  0  0
 80 81  1  0  0  0
 80157  1  0  0  0
 80158  1  0  0  0
 81 86  1  0  0  0
 81159  1  0  0  0
 81160  1  0  0  0
 85161  1  0  0  0
M  ISO  4   1 100  68 101  80 101  84 100
M  END
> <chiral flag>
0

> <version>
0

> <s_m_source_file>
/data/baiqing/PycharmProjects/Reinvent-master-3.2/result/LINK_invent/BTK/process_docking_weight1_custom_sum_contain_oxygen_bond_distance_aromatic_linkinvent_7_9_3/rearranged_h_0117.sdf

> <i_m_source_file_index>
80

> <r_mmod_Potential_Energy-OPLS-2005>
-346.738952636719

> <r_mmod_Stretch_Energy-OPLS-2005>
40.8922004699707

> <r_mmod_Bend_Energy-OPLS-2005>
139.125076293945

> <r_mmod_Torsional_Energy-OPLS-2005>
378.414916992188

> <r_mmod_Improper_Torsional_Energy-OPLS-2005>
21.597770690918

> <r_mmod_Van_der_Waal_Energy-OPLS-2005>
166.319671630859

> <r_mmod_Electrostatic_Energy-OPLS-2005>
-911.481262207031

> <r_mmod_Solvation_Energy-OPLS-2005>
-225.33039855957

> <b_mmod_Minimization_Converged-OPLS-2005>
0

> <r_mmod_RMS_Derivative-OPLS-2005>
5.69025993347168

$$$$
81
                    3D
 Structure written by MMmdl.
168177  0  0  1  0            999 V2000
  -30.7283  -14.4078   20.6503 C   0  0  0  0  0  0
  -30.4217  -12.3074   19.3926 C   0  0  0  0  0  0
  -29.4865  -12.5130   18.1862 C   0  0  0  0  0  0
  -28.0052  -12.3874   18.5987 C   0  0  0  0  0  0
  -27.6595  -13.2082   19.8719 C   0  0  2  0  0  0
  -28.6952  -12.9532   20.9848 C   0  0  0  0  0  0
  -25.2582  -13.8171   20.5702 C   0  0  0  0  0  0
  -24.1835  -13.0466   20.9199 C   0  0  0  0  0  0
  -24.6376  -11.6917   20.8758 C   0  0  0  0  0  0
  -23.9045  -10.4304   21.0410 C   0  0  0  0  0  0
  -24.3619   -9.4219   21.9192 C   0  0  0  0  0  0
  -23.6315   -8.2239   22.0744 C   0  0  0  0  0  0
  -22.4294   -8.0279   21.3543 C   0  0  0  0  0  0
  -21.9927   -9.0235   20.4637 C   0  0  0  0  0  0
  -22.7219  -10.2128   20.3056 C   0  0  0  0  0  0
  -21.6850   -6.0749   22.5293 C   0  0  0  0  0  0
  -21.3995   -6.5653   23.8225 C   0  0  0  0  0  0
  -21.3652   -5.6801   24.9187 C   0  0  0  0  0  0
  -21.6042   -4.3066   24.7214 C   0  0  0  0  0  0
  -21.8820   -3.8161   23.4331 C   0  0  0  0  0  0
  -21.9192   -4.6984   22.3394 C   0  0  0  0  0  0
  -22.7845  -13.5241   21.1849 C   0  0  0  0  0  0
  -22.1664   -4.2179   21.0968 F   0  0  0  0  0  0
  -21.5637   -3.4540   25.7714 F   0  0  0  0  0  0
  -30.0289  -13.2624   20.4409 N   0  0  0  0  0  0
  -26.3006  -12.9349   20.3336 N   0  0  0  0  0  0
  -25.9294  -11.6506   20.5761 N   0  0  0  0  0  0
  -22.0444  -12.8260   22.0399 N   0  0  0  0  0  0
  -25.4343  -15.1905   20.4144 N   0  0  0  0  0  0
  -31.8289  -14.6183   20.1276 O   0  0  0  0  0  0
  -21.6650   -6.8884   21.4250 O   0  0  0  0  0  0
  -22.3532  -14.5547   20.6675 O   0  0  0  0  0  0
  -24.6042  -31.8715   23.2177 C   0  0  0  0  0  0
  -25.8991  -32.4840   23.8379 C   0  0  1  0  0  0
  -27.2294  -27.4549   20.1039 C   0  0  0  0  0  0
  -25.5897  -33.8641   24.2310 N   0  0  0  0  0  0
  -23.3858  -30.4965   21.5622 C   0  0  2  0  0  0
  -24.8268  -28.9575   20.1278 C   0  0  0  0  0  0
  -22.7339  -29.4662   22.5102 C   0  0  0  0  0  0
  -18.0248  -28.1219   22.8654 C   0  0  0  0  0  0
  -24.1481  -36.7305   23.2633 C   0  0  0  0  0  0
  -25.9103  -30.8438   21.3661 C   0  0  0  0  0  0
  -25.9863  -29.4794   20.7141 C   0  0  0  0  0  0
  -27.1852  -28.7360   20.6989 C   0  0  0  0  0  0
  -26.0461  -26.9323   19.5327 C   0  0  0  0  0  0
  -24.8500  -27.6801   19.5420 C   0  0  0  0  0  0
  -23.5871  -29.8225   20.1776 C   0  0  0  0  0  0
  -25.4120  -36.3124   24.0317 C   0  0  1  0  0  0
  -20.5862  -28.3520   23.1334 C   0  0  2  0  0  0
  -20.6834  -26.9369   22.5133 C   0  0  0  0  0  0
  -19.5600  -26.6321   21.5183 C   0  0  0  0  0  0
  -18.1939  -26.7715   22.1912 C   0  0  0  0  0  0
  -19.1508  -28.8706   23.2992 C   0  0  0  0  0  0
  -18.9443  -30.1371   23.8893 C   0  0  0  0  0  0
  -17.6448  -30.6530   24.0512 C   0  0  0  0  0  0
  -25.9031  -34.9483   23.5101 C   0  0  0  0  0  0
  -16.5337  -29.8984   23.6322 C   0  0  0  0  0  0
  -16.7226  -28.6355   23.0460 C   0  0  0  0  0  0
  -26.4436  -31.6612   25.0692 C   0  0  0  0  0  0
  -25.3716  -31.3775   26.1463 C   0  0  0  0  0  0
  -27.0260  -30.3040   24.6086 C   0  0  0  0  0  0
  -27.5966  -32.4345   25.7482 C   0  0  0  0  0  0
  -27.5582  -37.1817   24.8462 C   0  0  0  0  0  0
  -21.4073  -29.3039   22.3893 N   0  0  0  0  0  0
  -26.4302  -37.3822   23.9399 N   0  0  0  0  0  0
  -24.6518  -31.0836   22.1074 N   0  0  0  0  0  0
  -23.4161  -28.8158   23.3063 O   0  0  0  0  0  0
  -28.4460  -26.8044   20.0968 O   0  0  0  0  0  0
  -26.5581  -34.8937   22.4646 O   0  0  0  0  0  0
  -23.5257  -32.1461   23.7626 O   0  0  0  0  0  0
  -30.8740  -18.2914   18.2190 C   0  0  0  0  0  0
  -30.5321  -17.1182   18.9342 C   0  0  0  0  0  0
  -30.4692  -19.3480   18.9716 C   0  0  0  0  0  0
  -29.9906  -17.4675   20.1483 C   0  0  0  0  0  0
  -28.7032  -22.9832   20.4643 C   0  0  0  0  0  0
  -29.9673  -16.9164   22.7379 C   0  0  0  0  0  0
  -31.0131  -15.8331   22.5994 C   0  0  0  0  0  0
  -29.5299  -16.5930   21.3095 C   0  0  2  0  0  0
  -28.7568  -24.2752   23.4529 C   0  0  0  0  0  0
  -29.2441  -24.8534   22.1158 C   0  0  0  0  0  0
  -29.2621  -19.7808   21.1060 C   0  0  0  0  0  0
  -28.0641  -20.5697   20.5100 C   0  0  0  0  0  0
  -28.5702  -25.4283   19.7168 C   0  0  0  0  0  0
  -28.3723  -24.4367   20.9039 C   0  0  1  0  0  0
  -29.8687  -18.8691   20.1269 N   0  0  0  0  0  0
  -30.1837  -15.2680   21.5347 N   0  0  0  0  0  0
  -27.9732  -21.9688   20.9597 N   0  0  0  0  0  0
  -29.6154  -22.7761   19.6613 O   0  0  0  0  0  0
  -31.4626  -12.4275   19.0853 H   0  0  0  0  0  0
  -30.3397  -11.2882   19.7708 H   0  0  0  0  0  0
  -29.7227  -11.7933   17.4014 H   0  0  0  0  0  0
  -29.6599  -13.4997   17.7525 H   0  0  0  0  0  0
  -27.7939  -11.3321   18.7693 H   0  0  0  0  0  0
  -27.3628  -12.6909   17.7701 H   0  0  0  0  0  0
  -27.7126  -14.2637   19.6035 H   0  0  0  0  0  0
  -28.6672  -11.9055   21.2856 H   0  0  0  0  0  0
  -28.4503  -13.5195   21.8846 H   0  0  0  0  0  0
  -25.2767   -9.5716   22.4771 H   0  0  0  0  0  0
  -24.0046   -7.4631   22.7469 H   0  0  0  0  0  0
  -21.0851   -8.8717   19.8952 H   0  0  0  0  0  0
  -22.3662  -10.9661   19.6171 H   0  0  0  0  0  0
  -21.1971   -7.6163   23.9725 H   0  0  0  0  0  0
  -21.1498   -6.0533   25.9093 H   0  0  0  0  0  0
  -22.0619   -2.7623   23.2811 H   0  0  0  0  0  0
  -22.4029  -11.9962   22.4887 H   0  0  0  0  0  0
  -21.1038  -13.1278   22.2520 H   0  0  0  0  0  0
  -24.6733  -15.8513   20.5301 H   0  0  0  0  0  0
  -26.2910  -15.6232   20.0925 H   0  0  0  0  0  0
  -26.7057  -32.5542   23.1122 H   0  0  0  0  0  0
  -25.0133  -33.9849   25.0512 H   0  0  0  0  0  0
  -22.6718  -31.3122   21.4307 H   0  0  0  0  0  0
  -23.3754  -35.9624   23.3319 H   0  0  0  0  0  0
  -24.3590  -36.8881   22.2045 H   0  0  0  0  0  0
  -23.7220  -37.6502   23.6638 H   0  0  0  0  0  0
  -26.0180  -31.6172   20.6020 H   0  0  0  0  0  0
  -26.7965  -30.8942   21.9858 H   0  0  0  0  0  0
  -28.0791  -29.1481   21.1465 H   0  0  0  0  0  0
  -26.0118  -25.9577   19.0731 H   0  0  0  0  0  0
  -23.9498  -27.2646   19.1091 H   0  0  0  0  0  0
  -23.6830  -30.5935   19.4126 H   0  0  0  0  0  0
  -22.7048  -29.2420   19.8969 H   0  0  0  0  0  0
  -25.1313  -36.1983   25.0818 H   0  0  0  0  0  0
  -21.0019  -28.2863   24.1408 H   0  0  0  0  0  0
  -20.6249  -26.2024   23.3168 H   0  0  0  0  0  0
  -21.6569  -26.7734   22.0496 H   0  0  0  0  0  0
  -19.6710  -25.6293   21.1054 H   0  0  0  0  0  0
  -19.6201  -27.3213   20.6761 H   0  0  0  0  0  0
  -17.4024  -26.6215   21.4566 H   0  0  0  0  0  0
  -18.0728  -25.9909   22.9440 H   0  0  0  0  0  0
  -19.7934  -30.7233   24.2143 H   0  0  0  0  0  0
  -17.4995  -31.6274   24.4997 H   0  0  0  0  0  0
  -15.5345  -30.2898   23.7610 H   0  0  0  0  0  0
  -15.8616  -28.0647   22.7230 H   0  0  0  0  0  0
  -24.5852  -30.7150   25.7865 H   0  0  0  0  0  0
  -24.8965  -32.2972   26.4885 H   0  0  0  0  0  0
  -25.8088  -30.8978   27.0231 H   0  0  0  0  0  0
  -26.2841  -29.6836   24.1061 H   0  0  0  0  0  0
  -27.3930  -29.7252   25.4569 H   0  0  0  0  0  0
  -27.8703  -30.4323   23.9307 H   0  0  0  0  0  0
  -27.2520  -33.3614   26.2083 H   0  0  0  0  0  0
  -28.3788  -32.6966   25.0350 H   0  0  0  0  0  0
  -28.0616  -31.8465   26.5395 H   0  0  0  0  0  0
  -28.2612  -38.0115   24.7525 H   0  0  0  0  0  0
  -28.1071  -36.2630   24.6290 H   0  0  0  0  0  0
  -27.2281  -37.1475   25.8868 H   0  0  0  0  0  0
  -20.9153  -29.8944   21.7353 H   0  0  0  0  0  0
  -26.0164  -38.2872   24.1476 H   0  0  0  0  0  0
  -31.3465  -18.3497   17.2474 H   0  0  0  0  0  0
  -30.6970  -16.1176   18.5640 H   0  0  0  0  0  0
  -30.5242  -20.4107   18.7748 H   0  0  0  0  0  0
  -30.4064  -17.8975   22.9093 H   0  0  0  0  0  0
  -29.2102  -16.6739   23.4851 H   0  0  0  0  0  0
  -31.1083  -15.2063   23.4881 H   0  0  0  0  0  0
  -31.9857  -16.2031   22.2652 H   0  0  0  0  0  0
  -28.4430  -16.5069   21.2741 H   0  0  0  0  0  0
  -29.3481  -24.6683   24.2819 H   0  0  0  0  0  0
  -28.8447  -23.1891   23.4757 H   0  0  0  0  0  0
  -27.7131  -24.5336   23.6421 H   0  0  0  0  0  0
  -30.2856  -24.5752   21.9426 H   0  0  0  0  0  0
  -29.2535  -25.9410   22.2140 H   0  0  0  0  0  0
  -28.9227  -19.2374   21.9841 H   0  0  0  0  0  0
  -30.0435  -20.4616   21.4458 H   0  0  0  0  0  0
  -27.1384  -20.0548   20.7668 H   0  0  0  0  0  0
  -28.0924  -20.5562   19.4188 H   0  0  0  0  0  0
  -27.9507  -25.1722   18.8598 H   0  0  0  0  0  0
  -29.5945  -25.3397   19.3530 H   0  0  0  0  0  0
  -27.3246  -24.4939   21.2047 H   0  0  0  0  0  0
  -27.2563  -22.1886   21.6402 H   0  0  0  0  0  0
  1 25  1  0  0  0
  1 30  2  0  0  0
  1 86  1  0  0  0
  2  3  1  0  0  0
  2 25  1  0  0  0
  2 89  1  0  0  0
  2 90  1  0  0  0
  3  4  1  0  0  0
  3 91  1  0  0  0
  3 92  1  0  0  0
  4  5  1  0  0  0
  4 93  1  0  0  0
  4 94  1  0  0  0
  5  6  1  0  0  0
  5 26  1  0  0  0
  5 95  1  0  0  0
  6 25  1  0  0  0
  6 96  1  0  0  0
  6 97  1  0  0  0
  7  8  2  0  0  0
  7 26  1  0  0  0
  7 29  1  0  0  0
  8  9  1  0  0  0
  8 22  1  0  0  0
  9 10  1  0  0  0
  9 27  2  0  0  0
 10 11  2  0  0  0
 10 15  1  0  0  0
 11 12  1  0  0  0
 11 98  1  0  0  0
 12 13  2  0  0  0
 12 99  1  0  0  0
 13 14  1  0  0  0
 13 31  1  0  0  0
 14 15  2  0  0  0
 14100  1  0  0  0
 15101  1  0  0  0
 16 17  2  0  0  0
 16 21  1  0  0  0
 16 31  1  0  0  0
 17 18  1  0  0  0
 17102  1  0  0  0
 18 19  2  0  0  0
 18103  1  0  0  0
 19 20  1  0  0  0
 19 24  1  0  0  0
 20 21  2  0  0  0
 20104  1  0  0  0
 21 23  1  0  0  0
 22 28  1  0  0  0
 22 32  2  0  0  0
 26 27  1  0  0  0
 28105  1  0  0  0
 28106  1  0  0  0
 29107  1  0  0  0
 29108  1  0  0  0
 33 34  1  0  0  0
 33 66  1  0  0  0
 33 70  2  0  0  0
 34 36  1  0  0  0
 34 59  1  0  0  0
 34109  1  0  0  0
 35 44  2  0  0  0
 35 45  1  0  0  0
 35 68  1  0  0  0
 36 56  1  0  0  0
 36110  1  0  0  0
 37 39  1  0  0  0
 37 47  1  0  0  0
 37 66  1  0  0  0
 37111  1  0  0  0
 38 43  2  0  0  0
 38 46  1  0  0  0
 38 47  1  0  0  0
 39 64  1  0  0  0
 39 67  2  0  0  0
 40 52  1  0  0  0
 40 53  2  0  0  0
 40 58  1  0  0  0
 41112  1  0  0  0
 41113  1  0  0  0
 41114  1  0  0  0
 41 48  1  0  0  0
 42 43  1  0  0  0
 42 66  1  0  0  0
 42115  1  0  0  0
 42116  1  0  0  0
 43 44  1  0  0  0
 44117  1  0  0  0
 45 46  2  0  0  0
 45118  1  0  0  0
 46119  1  0  0  0
 47120  1  0  0  0
 47121  1  0  0  0
 48 56  1  0  0  0
 48 65  1  0  0  0
 48122  1  0  0  0
 49 50  1  0  0  0
 49 53  1  0  0  0
 49 64  1  0  0  0
 49123  1  0  0  0
 50 51  1  0  0  0
 50124  1  0  0  0
 50125  1  0  0  0
 51 52  1  0  0  0
 51126  1  0  0  0
 51127  1  0  0  0
 52128  1  0  0  0
 52129  1  0  0  0
 53 54  1  0  0  0
 54 55  2  0  0  0
 54130  1  0  0  0
 55 57  1  0  0  0
 55131  1  0  0  0
 56 69  2  0  0  0
 57 58  2  0  0  0
 57132  1  0  0  0
 58133  1  0  0  0
 59 60  1  0  0  0
 59 61  1  0  0  0
 59 62  1  0  0  0
 60134  1  0  0  0
 60135  1  0  0  0
 60136  1  0  0  0
 61137  1  0  0  0
 61138  1  0  0  0
 61139  1  0  0  0
 62140  1  0  0  0
 62141  1  0  0  0
 62142  1  0  0  0
 63 65  1  0  0  0
 63143  1  0  0  0
 63144  1  0  0  0
 63145  1  0  0  0
 64146  1  0  0  0
 65147  1  0  0  0
 68 83  1  0  0  0
 71 72  1  0  0  0
 71 73  2  0  0  0
 71148  1  0  0  0
 72 74  2  0  0  0
 72149  1  0  0  0
 73 85  1  0  0  0
 73150  1  0  0  0
 74 85  1  0  0  0
 74 78  1  0  0  0
 75 84  1  0  0  0
 75 87  1  0  0  0
 75 88  2  0  0  0
 76 77  1  0  0  0
 76 78  1  0  0  0
 76151  1  0  0  0
 76152  1  0  0  0
 77 86  1  0  0  0
 77153  1  0  0  0
 77154  1  0  0  0
 78 86  1  0  0  0
 78155  1  0  0  0
 79 80  1  0  0  0
 79156  1  0  0  0
 79157  1  0  0  0
 79158  1  0  0  0
 80159  1  0  0  0
 80160  1  0  0  0
 80 84  1  0  0  0
 81 82  1  0  0  0
 81 85  1  0  0  0
 81161  1  0  0  0
 81162  1  0  0  0
 82 87  1  0  0  0
 82163  1  0  0  0
 82164  1  0  0  0
 83 84  1  0  0  0
 83165  1  0  0  0
 83166  1  0  0  0
 84167  1  0  0  0
 87168  1  0  0  0
M  ISO  4   1 100  68 101  83 101  86 100
M  END
> <chiral flag>
0

> <version>
0

> <s_m_source_file>
/data/baiqing/PycharmProjects/Reinvent-master-3.2/result/LINK_invent/BTK/process_docking_weight1_custom_sum_contain_oxygen_bond_distance_aromatic_linkinvent_7_9_3/rearranged_h_0117.sdf

> <i_m_source_file_index>
81

> <r_mmod_Potential_Energy-OPLS-2005>
17.8429546356201

> <r_mmod_Stretch_Energy-OPLS-2005>
42.6241264343262

> <r_mmod_Bend_Energy-OPLS-2005>
123.781723022461

> <r_mmod_Torsional_Energy-OPLS-2005>
279.145446777344

> <r_mmod_Improper_Torsional_Energy-OPLS-2005>
8.58659934997559

> <r_mmod_Van_der_Waal_Energy-OPLS-2005>
134.36408996582

> <r_mmod_Electrostatic_Energy-OPLS-2005>
-355.2490234375

> <r_mmod_Solvation_Energy-OPLS-2005>
-225.710723876953

> <b_mmod_Minimization_Converged-OPLS-2005>
0

> <r_mmod_RMS_Derivative-OPLS-2005>
4.31689453125

$$$$
82
                    3D
 Structure written by MMmdl.
170178  0  0  1  0            999 V2000
  -30.7505  -14.3811   20.6565 C   0  0  0  0  0  0
  -30.4124  -12.2896   19.3919 C   0  0  0  0  0  0
  -29.4812  -12.5225   18.1869 C   0  0  0  0  0  0
  -28.0062  -12.3756   18.6052 C   0  0  0  0  0  0
  -27.6630  -13.2008   19.8737 C   0  0  2  0  0  0
  -28.7010  -12.9460   20.9881 C   0  0  0  0  0  0
  -25.2596  -13.8151   20.5657 C   0  0  0  0  0  0
  -24.1843  -13.0437   20.9158 C   0  0  0  0  0  0
  -24.6387  -11.6899   20.8717 C   0  0  0  0  0  0
  -23.9056  -10.4292   21.0395 C   0  0  0  0  0  0
  -24.3614   -9.4207   21.9175 C   0  0  0  0  0  0
  -23.6287   -8.2245   22.0754 C   0  0  0  0  0  0
  -22.4271   -8.0278   21.3546 C   0  0  0  0  0  0
  -21.9903   -9.0251   20.4646 C   0  0  0  0  0  0
  -22.7231  -10.2125   20.3047 C   0  0  0  0  0  0
  -21.6853   -6.0732   22.5285 C   0  0  0  0  0  0
  -21.4015   -6.5635   23.8220 C   0  0  0  0  0  0
  -21.3658   -5.6792   24.9175 C   0  0  0  0  0  0
  -21.6047   -4.3052   24.7232 C   0  0  0  0  0  0
  -21.8818   -3.8145   23.4354 C   0  0  0  0  0  0
  -21.9192   -4.6962   22.3407 C   0  0  0  0  0  0
  -22.7871  -13.5235   21.1836 C   0  0  0  0  0  0
  -22.1659   -4.2145   21.0988 F   0  0  0  0  0  0
  -21.5629   -3.4543   25.7745 F   0  0  0  0  0  0
  -30.0403  -13.2431   20.4477 N   0  0  0  0  0  0
  -26.3027  -12.9310   20.3348 N   0  0  0  0  0  0
  -25.9307  -11.6471   20.5736 N   0  0  0  0  0  0
  -22.0520  -12.8225   22.0392 N   0  0  0  0  0  0
  -25.4327  -15.1871   20.4080 N   0  0  0  0  0  0
  -31.8002  -14.6444   20.0621 O   0  0  0  0  0  0
  -21.6638   -6.8874   21.4244 O   0  0  0  0  0  0
  -22.3560  -14.5553   20.6704 O   0  0  0  0  0  0
  -24.6177  -31.8665   23.2121 C   0  0  0  0  0  0
  -25.9082  -32.4819   23.8395 C   0  0  1  0  0  0
  -27.2385  -27.4488   20.0643 C   0  0  0  0  0  0
  -25.5952  -33.8614   24.2323 N   0  0  0  0  0  0
  -23.4015  -30.4940   21.5513 C   0  0  2  0  0  0
  -24.8430  -28.9558   20.1186 C   0  0  0  0  0  0
  -22.7397  -29.4678   22.4994 C   0  0  0  0  0  0
  -18.0244  -28.1371   22.8492 C   0  0  0  0  0  0
  -24.1486  -36.7288   23.2646 C   0  0  0  0  0  0
  -25.9310  -30.8317   21.3671 C   0  0  0  0  0  0
  -26.0028  -29.4680   20.7087 C   0  0  0  0  0  0
  -27.1991  -28.7218   20.6771 C   0  0  0  0  0  0
  -26.0464  -26.9258   19.5184 C   0  0  0  0  0  0
  -24.8578  -27.6814   19.5254 C   0  0  0  0  0  0
  -23.6080  -29.8251   20.1661 C   0  0  0  0  0  0
  -25.4117  -36.3103   24.0338 C   0  0  1  0  0  0
  -20.5851  -28.3667   23.1290 C   0  0  2  0  0  0
  -20.6759  -26.9398   22.5402 C   0  0  0  0  0  0
  -19.5744  -26.6366   21.5199 C   0  0  0  0  0  0
  -18.1911  -26.7917   22.1599 C   0  0  0  0  0  0
  -19.1506  -28.8838   23.2895 C   0  0  0  0  0  0
  -18.9451  -30.1449   23.8906 C   0  0  0  0  0  0
  -17.6464  -30.6598   24.0572 C   0  0  0  0  0  0
  -25.9036  -34.9467   23.5113 C   0  0  0  0  0  0
  -16.5344  -29.9103   23.6355 C   0  0  0  0  0  0
  -16.7238  -28.6518   23.0363 C   0  0  0  0  0  0
  -26.4506  -31.6615   25.0741 C   0  0  0  0  0  0
  -25.3766  -31.3743   26.1496 C   0  0  0  0  0  0
  -27.0379  -30.3067   24.6166 C   0  0  0  0  0  0
  -27.6072  -32.4376   25.7473 C   0  0  0  0  0  0
  -27.5575  -37.1794   24.8466 C   0  0  0  0  0  0
  -21.4137  -29.3044   22.3712 N   0  0  0  0  0  0
  -26.4297  -37.3791   23.9410 N   0  0  0  0  0  0
  -24.6674  -31.0795   22.1007 N   0  0  0  0  0  0
  -23.4162  -28.8218   23.3046 O   0  0  0  0  0  0
  -28.4648  -26.8164   20.0253 O   0  0  0  0  0  0
  -26.5548  -34.8916   22.4642 O   0  0  0  0  0  0
  -23.5385  -32.1394   23.7557 O   0  0  0  0  0  0
  -29.0449  -20.6223   22.5829 C   0  0  0  0  0  0
  -29.0049  -21.9390   22.0665 C   0  0  0  0  0  0
  -29.0138  -19.7529   21.5316 C   0  0  0  0  0  0
  -28.9651  -21.8687   20.7010 C   0  0  0  0  0  0
  -29.8439  -20.3017   17.9993 C   0  0  0  0  0  0
  -27.3142  -20.1844   18.4864 C   0  0  0  0  0  0
  -28.2806  -25.4936   17.8576 C   0  0  0  0  0  0
  -29.0994  -18.2490   21.6039 C   0  0  0  0  0  0
  -30.5179  -17.7093   21.3188 C   0  0  0  0  0  0
  -28.4486  -24.3506   20.2187 C   0  0  0  0  0  0
  -30.8932  -16.4186   22.0816 C   0  0  0  0  0  0
  -29.0650  -23.0132   19.7224 C   0  0  1  0  0  0
  -28.7392  -19.9307   19.0068 C   0  0  0  0  0  0
  -28.7357  -25.5879   19.3312 C   0  0  1  0  0  0
  -28.9147  -20.5063   20.3525 N   0  0  0  0  0  0
  -30.2404  -15.2116   21.5750 N   0  0  0  0  0  0
  -30.4361  -23.2179   19.4425 O   0  0  0  0  0  0
  -31.4572  -12.3832   19.0904 H   0  0  0  0  0  0
  -30.3040  -11.2694   19.7635 H   0  0  0  0  0  0
  -29.7154  -11.8164   17.3889 H   0  0  0  0  0  0
  -29.6490  -13.5183   17.7732 H   0  0  0  0  0  0
  -27.8177  -11.3170   18.7899 H   0  0  0  0  0  0
  -27.3506  -12.6612   17.7821 H   0  0  0  0  0  0
  -27.7191  -14.2541   19.5970 H   0  0  0  0  0  0
  -28.6665  -11.9020   21.3035 H   0  0  0  0  0  0
  -28.4491  -13.5206   21.8792 H   0  0  0  0  0  0
  -25.2761   -9.5690   22.4739 H   0  0  0  0  0  0
  -24.0006   -7.4640   22.7473 H   0  0  0  0  0  0
  -21.0835   -8.8764   19.8949 H   0  0  0  0  0  0
  -22.3694  -10.9661   19.6151 H   0  0  0  0  0  0
  -21.2007   -7.6146   23.9720 H   0  0  0  0  0  0
  -21.1479   -6.0522   25.9080 H   0  0  0  0  0  0
  -22.0598   -2.7609   23.2860 H   0  0  0  0  0  0
  -22.4135  -11.9879   22.4763 H   0  0  0  0  0  0
  -21.1140  -13.1252   22.2607 H   0  0  0  0  0  0
  -24.6694  -15.8453   20.5199 H   0  0  0  0  0  0
  -26.2917  -15.6248   20.0990 H   0  0  0  0  0  0
  -26.7153  -32.5524   23.1145 H   0  0  0  0  0  0
  -25.0240  -33.9781   25.0570 H   0  0  0  0  0  0
  -22.6929  -31.3135   21.4132 H   0  0  0  0  0  0
  -23.3768  -35.9602   23.3337 H   0  0  0  0  0  0
  -24.3563  -36.8876   22.2051 H   0  0  0  0  0  0
  -23.7202  -37.6490   23.6634 H   0  0  0  0  0  0
  -26.0581  -31.6025   20.6059 H   0  0  0  0  0  0
  -26.8125  -30.8716   21.9949 H   0  0  0  0  0  0
  -28.1049  -29.1257   21.1087 H   0  0  0  0  0  0
  -26.0069  -25.9408   19.0871 H   0  0  0  0  0  0
  -23.9600  -27.2755   19.0800 H   0  0  0  0  0  0
  -23.7220  -30.5983   19.4056 H   0  0  0  0  0  0
  -22.7308  -29.2477   19.8707 H   0  0  0  0  0  0
  -25.1302  -36.1961   25.0835 H   0  0  0  0  0  0
  -20.9972  -28.3233   24.1394 H   0  0  0  0  0  0
  -20.5671  -26.2264   23.3585 H   0  0  0  0  0  0
  -21.6625  -26.7422   22.1188 H   0  0  0  0  0  0
  -19.6922  -25.6268   21.1239 H   0  0  0  0  0  0
  -19.6717  -27.3176   20.6734 H   0  0  0  0  0  0
  -17.4190  -26.6670   21.3987 H   0  0  0  0  0  0
  -18.0330  -26.0013   22.8956 H   0  0  0  0  0  0
  -19.7922  -30.7275   24.2269 H   0  0  0  0  0  0
  -17.5010  -31.6288   24.5154 H   0  0  0  0  0  0
  -15.5360  -30.3031   23.7691 H   0  0  0  0  0  0
  -15.8601  -28.0875   22.7078 H   0  0  0  0  0  0
  -24.5893  -30.7151   25.7826 H   0  0  0  0  0  0
  -24.9033  -32.2925   26.4990 H   0  0  0  0  0  0
  -25.8100  -30.8844   27.0222 H   0  0  0  0  0  0
  -26.2931  -29.6758   24.1316 H   0  0  0  0  0  0
  -27.4246  -29.7401   25.4644 H   0  0  0  0  0  0
  -27.8709  -30.4390   23.9258 H   0  0  0  0  0  0
  -27.2673  -33.3676   26.2042 H   0  0  0  0  0  0
  -28.3850  -32.6958   25.0269 H   0  0  0  0  0  0
  -28.0771  -31.8520   26.5380 H   0  0  0  0  0  0
  -28.2616  -38.0073   24.7538 H   0  0  0  0  0  0
  -28.1045  -36.2605   24.6295 H   0  0  0  0  0  0
  -27.2272  -37.1470   25.8863 H   0  0  0  0  0  0
  -20.9319  -29.8775   21.6925 H   0  0  0  0  0  0
  -26.0196  -38.2868   24.1447 H   0  0  0  0  0  0
  -29.1145  -20.3395   23.6248 H   0  0  0  0  0  0
  -29.0420  -22.8508   22.6463 H   0  0  0  0  0  0
  -29.7474  -19.7065   17.0909 H   0  0  0  0  0  0
  -30.8346  -20.1056   18.4105 H   0  0  0  0  0  0
  -29.8083  -21.3415   17.6831 H   0  0  0  0  0  0
  -27.1073  -19.5768   17.6060 H   0  0  0  0  0  0
  -27.1374  -21.2236   18.2149 H   0  0  0  0  0  0
  -26.5754  -19.9178   19.2439 H   0  0  0  0  0  0
  -28.2752  -26.4707   17.3730 H   0  0  0  0  0  0
  -27.2988  -25.0408   17.7342 H   0  0  0  0  0  0
  -28.9674  -24.8609   17.2948 H   0  0  0  0  0  0
  -28.3630  -17.7742   20.9567 H   0  0  0  0  0  0
  -28.8093  -17.9473   22.6111 H   0  0  0  0  0  0
  -31.2351  -18.4650   21.6432 H   0  0  0  0  0  0
  -30.6818  -17.6037   20.2457 H   0  0  0  0  0  0
  -28.8394  -24.5846   21.2093 H   0  0  0  0  0  0
  -27.3737  -24.2242   20.3463 H   0  0  0  0  0  0
  -30.6496  -16.5256   23.1390 H   0  0  0  0  0  0
  -31.9760  -16.2860   22.0501 H   0  0  0  0  0  0
  -28.5604  -22.7657   18.7925 H   0  0  0  0  0  0
  -28.8145  -18.8496   19.0995 H   0  0  0  0  0  0
  -29.8212  -25.6597   19.2607 H   0  0  0  0  0  0
  -29.3900  -14.9128   22.0289 H   0  0  0  0  0  0
  -30.8867  -23.2034   20.2789 H   0  0  0  0  0  0
  1 25  1  0  0  0
  1 30  2  0  0  0
  1 86  1  0  0  0
  2  3  1  0  0  0
  2 25  1  0  0  0
  2 88  1  0  0  0
  2 89  1  0  0  0
  3  4  1  0  0  0
  3 90  1  0  0  0
  3 91  1  0  0  0
  4  5  1  0  0  0
  4 92  1  0  0  0
  4 93  1  0  0  0
  5  6  1  0  0  0
  5 26  1  0  0  0
  5 94  1  0  0  0
  6 25  1  0  0  0
  6 95  1  0  0  0
  6 96  1  0  0  0
  7  8  2  0  0  0
  7 26  1  0  0  0
  7 29  1  0  0  0
  8  9  1  0  0  0
  8 22  1  0  0  0
  9 10  1  0  0  0
  9 27  2  0  0  0
 10 11  2  0  0  0
 10 15  1  0  0  0
 11 12  1  0  0  0
 11 97  1  0  0  0
 12 13  2  0  0  0
 12 98  1  0  0  0
 13 14  1  0  0  0
 13 31  1  0  0  0
 14 15  2  0  0  0
 14 99  1  0  0  0
 15100  1  0  0  0
 16 17  2  0  0  0
 16 21  1  0  0  0
 16 31  1  0  0  0
 17 18  1  0  0  0
 17101  1  0  0  0
 18 19  2  0  0  0
 18102  1  0  0  0
 19 20  1  0  0  0
 19 24  1  0  0  0
 20 21  2  0  0  0
 20103  1  0  0  0
 21 23  1  0  0  0
 22 28  1  0  0  0
 22 32  2  0  0  0
 26 27  1  0  0  0
 28104  1  0  0  0
 28105  1  0  0  0
 29106  1  0  0  0
 29107  1  0  0  0
 33 34  1  0  0  0
 33 66  1  0  0  0
 33 70  2  0  0  0
 34 36  1  0  0  0
 34 59  1  0  0  0
 34108  1  0  0  0
 35 44  2  0  0  0
 35 45  1  0  0  0
 35 68  1  0  0  0
 36 56  1  0  0  0
 36109  1  0  0  0
 37 39  1  0  0  0
 37 47  1  0  0  0
 37 66  1  0  0  0
 37110  1  0  0  0
 38 43  2  0  0  0
 38 46  1  0  0  0
 38 47  1  0  0  0
 39 64  1  0  0  0
 39 67  2  0  0  0
 40 52  1  0  0  0
 40 53  2  0  0  0
 40 58  1  0  0  0
 41111  1  0  0  0
 41112  1  0  0  0
 41113  1  0  0  0
 41 48  1  0  0  0
 42 43  1  0  0  0
 42 66  1  0  0  0
 42114  1  0  0  0
 42115  1  0  0  0
 43 44  1  0  0  0
 44116  1  0  0  0
 45 46  2  0  0  0
 45117  1  0  0  0
 46118  1  0  0  0
 47119  1  0  0  0
 47120  1  0  0  0
 48 56  1  0  0  0
 48 65  1  0  0  0
 48121  1  0  0  0
 49 50  1  0  0  0
 49 53  1  0  0  0
 49 64  1  0  0  0
 49122  1  0  0  0
 50 51  1  0  0  0
 50123  1  0  0  0
 50124  1  0  0  0
 51 52  1  0  0  0
 51125  1  0  0  0
 51126  1  0  0  0
 52127  1  0  0  0
 52128  1  0  0  0
 53 54  1  0  0  0
 54 55  2  0  0  0
 54129  1  0  0  0
 55 57  1  0  0  0
 55130  1  0  0  0
 56 69  2  0  0  0
 57 58  2  0  0  0
 57131  1  0  0  0
 58132  1  0  0  0
 59 60  1  0  0  0
 59 61  1  0  0  0
 59 62  1  0  0  0
 60133  1  0  0  0
 60134  1  0  0  0
 60135  1  0  0  0
 61136  1  0  0  0
 61137  1  0  0  0
 61138  1  0  0  0
 62139  1  0  0  0
 62140  1  0  0  0
 62141  1  0  0  0
 63 65  1  0  0  0
 63142  1  0  0  0
 63143  1  0  0  0
 63144  1  0  0  0
 64145  1  0  0  0
 65146  1  0  0  0
 68 84  1  0  0  0
 71 72  1  0  0  0
 71 73  2  0  0  0
 71147  1  0  0  0
 72 74  2  0  0  0
 72148  1  0  0  0
 73 78  1  0  0  0
 73 85  1  0  0  0
 74 82  1  0  0  0
 74 85  1  0  0  0
 75149  1  0  0  0
 75150  1  0  0  0
 75151  1  0  0  0
 75 83  1  0  0  0
 76 83  1  0  0  0
 76152  1  0  0  0
 76153  1  0  0  0
 76154  1  0  0  0
 77155  1  0  0  0
 77156  1  0  0  0
 77157  1  0  0  0
 77 84  1  0  0  0
 78 79  1  0  0  0
 78158  1  0  0  0
 78159  1  0  0  0
 79 81  1  0  0  0
 79160  1  0  0  0
 79161  1  0  0  0
 80 82  1  0  0  0
 80 84  1  0  0  0
 80162  1  0  0  0
 80163  1  0  0  0
 81 86  1  0  0  0
 81164  1  0  0  0
 81165  1  0  0  0
 82 87  1  0  0  0
 82166  1  0  0  0
 83 85  1  0  0  0
 83167  1  0  0  0
 84168  1  0  0  0
 86169  1  0  0  0
 87170  1  0  0  0
M  ISO  4   1 100  68 101  84 101  86 100
M  END
> <chiral flag>
0

> <version>
0

> <s_m_source_file>
/data/baiqing/PycharmProjects/Reinvent-master-3.2/result/LINK_invent/BTK/process_docking_weight1_custom_sum_contain_oxygen_bond_distance_aromatic_linkinvent_7_9_3/rearranged_h_0117.sdf

> <i_m_source_file_index>
82

> <r_mmod_Potential_Energy-OPLS-2005>
-76.7789154052734

> <r_mmod_Stretch_Energy-OPLS-2005>
37.2556304931641

> <r_mmod_Bend_Energy-OPLS-2005>
137.553604125977

> <r_mmod_Torsional_Energy-OPLS-2005>
237.864990234375

> <r_mmod_Improper_Torsional_Energy-OPLS-2005>
2.10925006866455

> <r_mmod_Van_der_Waal_Energy-OPLS-2005>
131.399490356445

> <r_mmod_Electrostatic_Energy-OPLS-2005>
-419.713592529297

> <r_mmod_Solvation_Energy-OPLS-2005>
-212.347412109375

> <b_mmod_Minimization_Converged-OPLS-2005>
0

> <r_mmod_RMS_Derivative-OPLS-2005>
2.54345107078552

$$$$
83
                    3D
 Structure written by MMmdl.
163171  0  0  1  0            999 V2000
  -30.7381  -14.4485   20.5531 C   0  0  0  0  0  0
  -30.4215  -12.2965   19.4039 C   0  0  0  0  0  0
  -29.4817  -12.4792   18.1965 C   0  0  0  0  0  0
  -28.0148  -12.3185   18.6358 C   0  0  0  0  0  0
  -27.6641  -13.1913   19.8695 C   0  0  2  0  0  0
  -28.7150  -13.0004   20.9898 C   0  0  0  0  0  0
  -25.2657  -13.8125   20.5672 C   0  0  0  0  0  0
  -24.1876  -13.0431   20.9187 C   0  0  0  0  0  0
  -24.6398  -11.6894   20.8746 C   0  0  0  0  0  0
  -23.9048  -10.4285   21.0386 C   0  0  0  0  0  0
  -24.3608   -9.4205   21.9167 C   0  0  0  0  0  0
  -23.6293   -8.2237   22.0739 C   0  0  0  0  0  0
  -22.4277   -8.0264   21.3531 C   0  0  0  0  0  0
  -21.9890   -9.0227   20.4641 C   0  0  0  0  0  0
  -22.7204  -10.2123   20.3046 C   0  0  0  0  0  0
  -21.6860   -6.0723   22.5274 C   0  0  0  0  0  0
  -21.4017   -6.5634   23.8199 C   0  0  0  0  0  0
  -21.3656   -5.6786   24.9160 C   0  0  0  0  0  0
  -21.6057   -4.3054   24.7218 C   0  0  0  0  0  0
  -21.8833   -3.8142   23.4344 C   0  0  0  0  0  0
  -21.9202   -4.6959   22.3393 C   0  0  0  0  0  0
  -22.7919  -13.5263   21.1841 C   0  0  0  0  0  0
  -22.1670   -4.2147   21.0978 F   0  0  0  0  0  0
  -21.5626   -3.4541   25.7730 F   0  0  0  0  0  0
  -30.0421  -13.2894   20.4216 N   0  0  0  0  0  0
  -26.3076  -12.9247   20.3395 N   0  0  0  0  0  0
  -25.9339  -11.6437   20.5820 N   0  0  0  0  0  0
  -22.0560  -12.8231   22.0392 N   0  0  0  0  0  0
  -25.4432  -15.1829   20.4071 N   0  0  0  0  0  0
  -31.8686  -14.6071   20.0884 O   0  0  0  0  0  0
  -21.6650   -6.8856   21.4230 O   0  0  0  0  0  0
  -22.3610  -14.5552   20.6670 O   0  0  0  0  0  0
  -24.6125  -31.8696   23.2129 C   0  0  0  0  0  0
  -25.9056  -32.4832   23.8373 C   0  0  1  0  0  0
  -27.2312  -27.4559   20.0954 C   0  0  0  0  0  0
  -25.5894  -33.8632   24.2312 N   0  0  0  0  0  0
  -23.3960  -30.4986   21.5526 C   0  0  2  0  0  0
  -24.8366  -28.9650   20.1248 C   0  0  0  0  0  0
  -22.7394  -29.4690   22.4999 C   0  0  0  0  0  0
  -18.0277  -28.1383   22.8514 C   0  0  0  0  0  0
  -24.1464  -36.7294   23.2647 C   0  0  0  0  0  0
  -25.9231  -30.8519   21.3531 C   0  0  0  0  0  0
  -26.0007  -29.4865   20.7024 C   0  0  0  0  0  0
  -27.1995  -28.7417   20.6772 C   0  0  0  0  0  0
  -26.0340  -26.9339   19.5422 C   0  0  0  0  0  0
  -24.8460  -27.6872   19.5434 C   0  0  0  0  0  0
  -23.6001  -29.8324   20.1674 C   0  0  0  0  0  0
  -25.4100  -36.3123   24.0343 C   0  0  1  0  0  0
  -20.5870  -28.3656   23.1320 C   0  0  2  0  0  0
  -20.6749  -26.9387   22.5426 C   0  0  0  0  0  0
  -19.5713  -26.6380   21.5228 C   0  0  0  0  0  0
  -18.1895  -26.7938   22.1632 C   0  0  0  0  0  0
  -19.1539  -28.8836   23.2924 C   0  0  0  0  0  0
  -18.9465  -30.1438   23.8918 C   0  0  0  0  0  0
  -17.6467  -30.6604   24.0564 C   0  0  0  0  0  0
  -25.9031  -34.9493   23.5146 C   0  0  0  0  0  0
  -16.5356  -29.9111   23.6322 C   0  0  0  0  0  0
  -16.7256  -28.6534   23.0351 C   0  0  0  0  0  0
  -26.4495  -31.6626   25.0713 C   0  0  0  0  0  0
  -25.3766  -31.3762   26.1468 C   0  0  0  0  0  0
  -27.0307  -30.3064   24.6079 C   0  0  0  0  0  0
  -27.6054  -32.4386   25.7463 C   0  0  0  0  0  0
  -27.5580  -37.1794   24.8491 C   0  0  0  0  0  0
  -21.4136  -29.3026   22.3735 N   0  0  0  0  0  0
  -26.4291  -37.3814   23.9448 N   0  0  0  0  0  0
  -24.6625  -31.0873   22.0985 N   0  0  0  0  0  0
  -23.4226  -28.8217   23.2993 O   0  0  0  0  0  0
  -28.4318  -26.7740   20.0971 O   0  0  0  0  0  0
  -26.5605  -34.8960   22.4713 O   0  0  0  0  0  0
  -23.5333  -32.1392   23.7577 O   0  0  0  0  0  0
  -30.3355  -22.1243   19.0674 C   0  0  0  0  0  0
  -30.7369  -21.2272   20.0756 C   0  0  0  0  0  0
  -28.2389  -20.9308   18.9923 C   0  0  0  0  0  0
  -29.0459  -21.9814   18.5161 C   0  0  0  0  0  0
  -29.8583  -20.2040   20.4996 C   0  0  0  0  0  0
  -31.3165  -19.6395   22.4061 C   0  0  0  0  0  0
  -28.5602  -22.8489   17.3591 C   0  0  0  0  0  0
  -30.6038  -16.8663   21.0342 C   0  0  0  0  0  0
  -29.6279  -17.9377   21.5687 C   0  0  0  0  0  0
  -28.4515  -25.2139   18.2163 C   0  0  0  0  0  0
  -28.4472  -25.3905   19.7475 C   0  0  0  0  0  0
  -28.6313  -20.0717   19.9569 N   0  0  0  0  0  0
  -30.0657  -15.4960   21.0630 N   0  0  0  0  0  0
  -30.2134  -19.2870   21.5134 N   0  0  0  0  0  0
  -27.7274  -24.0007   17.7713 N   0  3  0  0  0  0
  -31.4613  -12.3904   19.0910 H   0  0  0  0  0  0
  -30.3249  -11.2867   19.8072 H   0  0  0  0  0  0
  -29.7136  -11.7506   17.4193 H   0  0  0  0  0  0
  -29.6276  -13.4635   17.7479 H   0  0  0  0  0  0
  -27.8673  -11.2655   18.8800 H   0  0  0  0  0  0
  -27.3383  -12.5296   17.8072 H   0  0  0  0  0  0
  -27.7047  -14.2283   19.5419 H   0  0  0  0  0  0
  -28.6964  -11.9748   21.3619 H   0  0  0  0  0  0
  -28.4930  -13.6308   21.8508 H   0  0  0  0  0  0
  -25.2762   -9.5711   22.4717 H   0  0  0  0  0  0
  -24.0026   -7.4652   22.7468 H   0  0  0  0  0  0
  -21.0803   -8.8737   19.8961 H   0  0  0  0  0  0
  -22.3632  -10.9654   19.6162 H   0  0  0  0  0  0
  -21.1987   -7.6138   23.9696 H   0  0  0  0  0  0
  -21.1472   -6.0515   25.9061 H   0  0  0  0  0  0
  -22.0610   -2.7612   23.2846 H   0  0  0  0  0  0
  -22.4208  -11.9901   22.4745 H   0  0  0  0  0  0
  -21.1185  -13.1270   22.2595 H   0  0  0  0  0  0
  -24.6858  -15.8458   20.5238 H   0  0  0  0  0  0
  -26.2954  -15.6164   20.0738 H   0  0  0  0  0  0
  -26.7135  -32.5542   23.1123 H   0  0  0  0  0  0
  -25.0051  -33.9792   25.0459 H   0  0  0  0  0  0
  -22.6813  -31.3130   21.4158 H   0  0  0  0  0  0
  -23.3757  -35.9595   23.3341 H   0  0  0  0  0  0
  -24.3529  -36.8868   22.2052 H   0  0  0  0  0  0
  -23.7190  -37.6499   23.6623 H   0  0  0  0  0  0
  -26.0374  -31.6220   20.5879 H   0  0  0  0  0  0
  -26.8110  -30.8983   21.9724 H   0  0  0  0  0  0
  -28.1028  -29.1554   21.1074 H   0  0  0  0  0  0
  -25.9816  -25.9512   19.1040 H   0  0  0  0  0  0
  -23.9469  -27.2779   19.1047 H   0  0  0  0  0  0
  -23.7088  -30.6067   19.4072 H   0  0  0  0  0  0
  -22.7190  -29.2570   19.8731 H   0  0  0  0  0  0
  -25.1272  -36.1969   25.0830 H   0  0  0  0  0  0
  -20.9970  -28.3209   24.1429 H   0  0  0  0  0  0
  -20.5646  -26.2253   23.3613 H   0  0  0  0  0  0
  -21.6619  -26.7396   22.1213 H   0  0  0  0  0  0
  -19.6886  -25.6298   21.1232 H   0  0  0  0  0  0
  -19.6678  -27.3209   20.6778 H   0  0  0  0  0  0
  -17.4169  -26.6705   21.4023 H   0  0  0  0  0  0
  -18.0273  -26.0065   22.9003 H   0  0  0  0  0  0
  -19.7956  -30.7256   24.2278 H   0  0  0  0  0  0
  -17.5046  -31.6281   24.5163 H   0  0  0  0  0  0
  -15.5371  -30.3032   23.7665 H   0  0  0  0  0  0
  -15.8641  -28.0878   22.7042 H   0  0  0  0  0  0
  -24.5907  -30.7137   25.7838 H   0  0  0  0  0  0
  -24.8989  -32.2926   26.4938 H   0  0  0  0  0  0
  -25.8102  -30.8923   27.0217 H   0  0  0  0  0  0
  -26.2826  -29.6846   24.1133 H   0  0  0  0  0  0
  -27.4097  -29.7302   25.4531 H   0  0  0  0  0  0
  -27.8657  -30.4410   23.9198 H   0  0  0  0  0  0
  -27.2630  -33.3663   26.2062 H   0  0  0  0  0  0
  -28.3803  -32.7003   25.0255 H   0  0  0  0  0  0
  -28.0772  -31.8516   26.5350 H   0  0  0  0  0  0
  -28.2627  -38.0062   24.7515 H   0  0  0  0  0  0
  -28.1029  -36.2594   24.6308 H   0  0  0  0  0  0
  -27.2296  -37.1445   25.8895 H   0  0  0  0  0  0
  -20.9288  -29.8730   21.6944 H   0  0  0  0  0  0
  -26.0180  -38.2896   24.1462 H   0  0  0  0  0  0
  -31.0196  -22.8872   18.7165 H   0  0  0  0  0  0
  -31.7360  -21.3301   20.4755 H   0  0  0  0  0  0
  -27.2553  -20.7629   18.5772 H   0  0  0  0  0  0
  -31.1367  -20.6117   22.8658 H   0  0  0  0  0  0
  -32.2582  -19.6900   21.8595 H   0  0  0  0  0  0
  -31.4446  -18.9190   23.2148 H   0  0  0  0  0  0
  -27.9380  -22.2297   16.7120 H   0  0  0  0  0  0
  -29.3961  -23.1839   16.7391 H   0  0  0  0  0  0
  -31.5323  -16.8887   21.6085 H   0  0  0  0  0  0
  -30.8701  -17.1126   20.0028 H   0  0  0  0  0  0
  -29.3721  -17.7216   22.6073 H   0  0  0  0  0  0
  -28.6846  -17.8866   21.0251 H   0  0  0  0  0  0
  -27.9385  -26.0556   17.7537 H   0  0  0  0  0  0
  -29.4678  -25.2612   17.8265 H   0  0  0  0  0  0
  -27.6193  -24.8737   20.2298 H   0  0  0  0  0  0
  -29.3507  -24.9495   20.1673 H   0  0  0  0  0  0
  -29.1158  -15.3492   21.3682 H   0  0  0  0  0  0
  -27.2209  -24.2744   16.9421 H   0  0  0  0  0  0
  -27.0340  -23.7236   18.4509 H   0  0  0  0  0  0
  1 25  1  0  0  0
  1 30  2  0  0  0
  1 83  1  0  0  0
  2  3  1  0  0  0
  2 25  1  0  0  0
  2 86  1  0  0  0
  2 87  1  0  0  0
  3  4  1  0  0  0
  3 88  1  0  0  0
  3 89  1  0  0  0
  4  5  1  0  0  0
  4 90  1  0  0  0
  4 91  1  0  0  0
  5  6  1  0  0  0
  5 26  1  0  0  0
  5 92  1  0  0  0
  6 25  1  0  0  0
  6 93  1  0  0  0
  6 94  1  0  0  0
  7  8  2  0  0  0
  7 26  1  0  0  0
  7 29  1  0  0  0
  8  9  1  0  0  0
  8 22  1  0  0  0
  9 10  1  0  0  0
  9 27  2  0  0  0
 10 11  2  0  0  0
 10 15  1  0  0  0
 11 12  1  0  0  0
 11 95  1  0  0  0
 12 13  2  0  0  0
 12 96  1  0  0  0
 13 14  1  0  0  0
 13 31  1  0  0  0
 14 15  2  0  0  0
 14 97  1  0  0  0
 15 98  1  0  0  0
 16 17  2  0  0  0
 16 21  1  0  0  0
 16 31  1  0  0  0
 17 18  1  0  0  0
 17 99  1  0  0  0
 18 19  2  0  0  0
 18100  1  0  0  0
 19 20  1  0  0  0
 19 24  1  0  0  0
 20 21  2  0  0  0
 20101  1  0  0  0
 21 23  1  0  0  0
 22 28  1  0  0  0
 22 32  2  0  0  0
 26 27  1  0  0  0
 28102  1  0  0  0
 28103  1  0  0  0
 29104  1  0  0  0
 29105  1  0  0  0
 33 34  1  0  0  0
 33 66  1  0  0  0
 33 70  2  0  0  0
 34 36  1  0  0  0
 34 59  1  0  0  0
 34106  1  0  0  0
 35 44  2  0  0  0
 35 45  1  0  0  0
 35 68  1  0  0  0
 36 56  1  0  0  0
 36107  1  0  0  0
 37 39  1  0  0  0
 37 47  1  0  0  0
 37 66  1  0  0  0
 37108  1  0  0  0
 38 43  2  0  0  0
 38 46  1  0  0  0
 38 47  1  0  0  0
 39 64  1  0  0  0
 39 67  2  0  0  0
 40 52  1  0  0  0
 40 53  2  0  0  0
 40 58  1  0  0  0
 41109  1  0  0  0
 41110  1  0  0  0
 41111  1  0  0  0
 41 48  1  0  0  0
 42 43  1  0  0  0
 42 66  1  0  0  0
 42112  1  0  0  0
 42113  1  0  0  0
 43 44  1  0  0  0
 44114  1  0  0  0
 45 46  2  0  0  0
 45115  1  0  0  0
 46116  1  0  0  0
 47117  1  0  0  0
 47118  1  0  0  0
 48 56  1  0  0  0
 48 65  1  0  0  0
 48119  1  0  0  0
 49 50  1  0  0  0
 49 53  1  0  0  0
 49 64  1  0  0  0
 49120  1  0  0  0
 50 51  1  0  0  0
 50121  1  0  0  0
 50122  1  0  0  0
 51 52  1  0  0  0
 51123  1  0  0  0
 51124  1  0  0  0
 52125  1  0  0  0
 52126  1  0  0  0
 53 54  1  0  0  0
 54 55  2  0  0  0
 54127  1  0  0  0
 55 57  1  0  0  0
 55128  1  0  0  0
 56 69  2  0  0  0
 57 58  2  0  0  0
 57129  1  0  0  0
 58130  1  0  0  0
 59 60  1  0  0  0
 59 61  1  0  0  0
 59 62  1  0  0  0
 60131  1  0  0  0
 60132  1  0  0  0
 60133  1  0  0  0
 61134  1  0  0  0
 61135  1  0  0  0
 61136  1  0  0  0
 62137  1  0  0  0
 62138  1  0  0  0
 62139  1  0  0  0
 63 65  1  0  0  0
 63140  1  0  0  0
 63141  1  0  0  0
 63142  1  0  0  0
 64143  1  0  0  0
 65144  1  0  0  0
 68 81  1  0  0  0
 71 72  2  0  0  0
 71 74  1  0  0  0
 71145  1  0  0  0
 72 75  1  0  0  0
 72146  1  0  0  0
 73 74  2  0  0  0
 73 82  1  0  0  0
 73147  1  0  0  0
 74 77  1  0  0  0
 75 82  2  0  0  0
 75 84  1  0  0  0
 76 84  1  0  0  0
 76148  1  0  0  0
 76149  1  0  0  0
 76150  1  0  0  0
 77 85  1  0  0  0
 77151  1  0  0  0
 77152  1  0  0  0
 78 79  1  0  0  0
 78 83  1  0  0  0
 78153  1  0  0  0
 78154  1  0  0  0
 79 84  1  0  0  0
 79155  1  0  0  0
 79156  1  0  0  0
 80 81  1  0  0  0
 80 85  1  0  0  0
 80157  1  0  0  0
 80158  1  0  0  0
 81159  1  0  0  0
 81160  1  0  0  0
 83161  1  0  0  0
 85162  1  0  0  0
 85163  1  0  0  0
M  CHG  1  85   1
M  ISO  4   1 100  68 101  81 101  83 100
M  END
> <chiral flag>
0

> <version>
0

> <s_m_source_file>
/data/baiqing/PycharmProjects/Reinvent-master-3.2/result/LINK_invent/BTK/process_docking_weight1_custom_sum_contain_oxygen_bond_distance_aromatic_linkinvent_7_9_3/rearranged_h_0117.sdf

> <i_m_source_file_index>
83

> <r_mmod_Potential_Energy-OPLS-2005>
-470.645446777344

> <r_mmod_Stretch_Energy-OPLS-2005>
35.006950378418

> <r_mmod_Bend_Energy-OPLS-2005>
113.506378173828

> <r_mmod_Torsional_Energy-OPLS-2005>
186.180419921875

> <r_mmod_Improper_Torsional_Energy-OPLS-2005>
4.31008958816528

> <r_mmod_Van_der_Waal_Energy-OPLS-2005>
166.982498168945

> <r_mmod_Electrostatic_Energy-OPLS-2005>
-499.750762939453

> <r_mmod_Solvation_Energy-OPLS-2005>
-490.573455810547

> <b_mmod_Minimization_Converged-OPLS-2005>
0

> <r_mmod_RMS_Derivative-OPLS-2005>
4.98430204391479

$$$$
84
                    3D
 Structure written by MMmdl.
170179  0  0  1  0            999 V2000
  -30.5904  -14.7609   20.4855 C   0  0  0  0  0  0
  -30.4408  -12.4705   19.4801 C   0  0  0  0  0  0
  -29.5132  -12.5035   18.2447 C   0  0  0  0  0  0
  -28.0386  -12.3231   18.6543 C   0  0  0  0  0  0
  -27.6440  -13.2252   19.8575 C   0  0  2  0  0  0
  -28.6876  -13.1462   20.9932 C   0  0  0  0  0  0
  -25.2526  -13.8147   20.5751 C   0  0  0  0  0  0
  -24.1826  -13.0438   20.9221 C   0  0  0  0  0  0
  -24.6396  -11.6894   20.8785 C   0  0  0  0  0  0
  -23.9048  -10.4281   21.0424 C   0  0  0  0  0  0
  -24.3567   -9.4188   21.9225 C   0  0  0  0  0  0
  -23.6258   -8.2220   22.0760 C   0  0  0  0  0  0
  -22.4240   -8.0246   21.3567 C   0  0  0  0  0  0
  -21.9883   -9.0223   20.4660 C   0  0  0  0  0  0
  -22.7192  -10.2113   20.3093 C   0  0  0  0  0  0
  -21.6830   -6.0686   22.5288 C   0  0  0  0  0  0
  -21.4001   -6.5612   23.8210 C   0  0  0  0  0  0
  -21.3656   -5.6773   24.9180 C   0  0  0  0  0  0
  -21.6043   -4.3047   24.7240 C   0  0  0  0  0  0
  -21.8831   -3.8121   23.4380 C   0  0  0  0  0  0
  -21.9189   -4.6920   22.3408 C   0  0  0  0  0  0
  -22.7850  -13.5233   21.1844 C   0  0  0  0  0  0
  -22.1664   -4.2109   21.0994 F   0  0  0  0  0  0
  -21.5634   -3.4527   25.7760 F   0  0  0  0  0  0
  -29.9877  -13.5219   20.4214 N   0  0  0  0  0  0
  -26.2939  -12.9365   20.3346 N   0  0  0  0  0  0
  -25.9313  -11.6499   20.5771 N   0  0  0  0  0  0
  -22.0422  -12.8296   22.0362 N   0  0  0  0  0  0
  -25.4282  -15.1861   20.4117 N   0  0  0  0  0  0
  -31.7701  -14.8853   20.1498 O   0  0  0  0  0  0
  -21.6642   -6.8819   21.4248 O   0  0  0  0  0  0
  -22.3618  -14.5594   20.6672 O   0  0  0  0  0  0
  -24.6307  -31.8537   23.2061 C   0  0  0  0  0  0
  -25.9137  -32.4729   23.8320 C   0  0  1  0  0  0
  -27.2346  -27.2898   20.0871 C   0  0  0  0  0  0
  -25.5954  -33.8543   24.2220 N   0  0  0  0  0  0
  -23.4227  -30.4777   21.5502 C   0  0  2  0  0  0
  -24.8665  -28.9127   20.1193 C   0  0  0  0  0  0
  -22.7470  -29.4666   22.5037 C   0  0  0  0  0  0
  -18.0454  -28.1508   22.8357 C   0  0  0  0  0  0
  -24.1513  -36.7232   23.2663 C   0  0  0  0  0  0
  -25.9666  -30.7621   21.3857 C   0  0  0  0  0  0
  -26.0396  -29.3949   20.7122 C   0  0  0  0  0  0
  -27.2229  -28.5924   20.6874 C   0  0  0  0  0  0
  -26.0311  -26.8653   19.4785 C   0  0  0  0  0  0
  -24.8649  -27.6537   19.4974 C   0  0  0  0  0  0
  -23.6304  -29.7897   20.1809 C   0  0  0  0  0  0
  -25.4125  -36.3041   24.0338 C   0  0  1  0  0  0
  -20.5927  -28.3882   23.1407 C   0  0  2  0  0  0
  -20.6939  -26.9686   22.5522 C   0  0  0  0  0  0
  -19.6117  -26.6687   21.5175 C   0  0  0  0  0  0
  -18.2196  -26.8163   22.1304 C   0  0  0  0  0  0
  -19.1581  -28.9009   23.2941 C   0  0  0  0  0  0
  -18.9375  -30.1494   23.9265 C   0  0  0  0  0  0
  -17.6328  -30.6550   24.0739 C   0  0  0  0  0  0
  -25.9066  -34.9426   23.5083 C   0  0  0  0  0  0
  -16.5325  -29.9099   23.6273 C   0  0  0  0  0  0
  -16.7395  -28.6561   23.0206 C   0  0  0  0  0  0
  -26.4525  -31.6593   25.0732 C   0  0  0  0  0  0
  -25.3723  -31.3726   26.1443 C   0  0  0  0  0  0
  -27.0395  -30.2989   24.6253 C   0  0  0  0  0  0
  -27.6046  -32.4383   25.7497 C   0  0  0  0  0  0
  -27.5550  -37.1776   24.8460 C   0  0  0  0  0  0
  -21.4170  -29.3255   22.3829 N   0  0  0  0  0  0
  -26.4258  -37.3720   23.9446 N   0  0  0  0  0  0
  -24.6908  -31.0488   22.1024 N   0  0  0  0  0  0
  -23.4220  -28.8108   23.3077 O   0  0  0  0  0  0
  -28.3708  -26.4542   20.1227 O   0  0  0  0  0  0
  -26.5642  -34.8893   22.4651 O   0  0  0  0  0  0
  -23.5500  -32.1394   23.7422 O   0  0  0  0  0  0
  -28.9604  -21.1430   20.4377 C   0  0  0  0  0  0
  -26.8090  -21.5364   20.3856 C   0  0  0  0  0  0
  -27.9674  -22.2449   20.4114 C   0  0  0  0  0  0
  -28.3571  -19.8575   20.5102 C   0  0  0  0  0  0
  -23.7462  -18.9815   22.1351 C   0  0  0  0  0  0
  -25.1266  -19.6368   22.0114 C   0  0  0  0  0  0
  -22.8847  -19.3486   20.9201 C   0  0  0  0  0  0
  -24.8739  -19.4382   19.4404 C   0  0  0  0  0  0
  -25.8156  -19.2977   20.6669 C   0  0  1  0  0  0
  -27.8409  -24.2218   22.0754 C   0  0  0  0  0  0
  -28.6658  -18.2864   20.7063 C   0  0  0  0  0  0
  -29.9965  -17.3884   20.5525 C   0  0  0  0  0  0
  -28.4066  -25.0253   19.6427 C   0  0  0  0  0  0
  -27.8389  -23.8494   20.5884 C   0  0  1  0  0  0
  -26.9927  -20.1707   20.5019 N   0  0  0  0  0  0
  -29.7817  -15.8672   20.7300 N   0  0  0  0  0  0
  -23.5261  -18.8758   19.6713 N   0  3  0  0  0  0
  -31.4724  -12.6212   19.1660 H   0  0  0  0  0  0
  -30.4134  -11.4962   19.9698 H   0  0  0  0  0  0
  -29.7974  -11.7213   17.5423 H   0  0  0  0  0  0
  -29.6303  -13.4514   17.7189 H   0  0  0  0  0  0
  -27.8901  -11.2698   18.9127 H   0  0  0  0  0  0
  -27.3775  -12.5262   17.8079 H   0  0  0  0  0  0
  -27.6422  -14.2461   19.4767 H   0  0  0  0  0  0
  -28.7277  -12.1370   21.4082 H   0  0  0  0  0  0
  -28.4118  -13.8028   21.8175 H   0  0  0  0  0  0
  -25.2673   -9.5654   22.4844 H   0  0  0  0  0  0
  -23.9936   -7.4591   22.7486 H   0  0  0  0  0  0
  -21.0811   -8.8733   19.8971 H   0  0  0  0  0  0
  -22.3630  -10.9668   19.6230 H   0  0  0  0  0  0
  -21.2003   -7.6123   23.9701 H   0  0  0  0  0  0
  -21.1465   -6.0511   25.9075 H   0  0  0  0  0  0
  -22.0618   -2.7585   23.2905 H   0  0  0  0  0  0
  -22.3921  -11.9911   22.4782 H   0  0  0  0  0  0
  -21.1067  -13.1456   22.2558 H   0  0  0  0  0  0
  -24.6415  -15.8098   20.4927 H   0  0  0  0  0  0
  -26.2481  -15.6041   20.0001 H   0  0  0  0  0  0
  -26.7136  -32.5399   23.1005 H   0  0  0  0  0  0
  -25.0054  -33.9621   25.0342 H   0  0  0  0  0  0
  -22.7236  -31.3090   21.4033 H   0  0  0  0  0  0
  -23.3773  -35.9562   23.3327 H   0  0  0  0  0  0
  -24.3582  -36.8833   22.2064 H   0  0  0  0  0  0
  -23.7255  -37.6424   23.6661 H   0  0  0  0  0  0
  -26.1275  -31.5337   20.6358 H   0  0  0  0  0  0
  -26.8293  -30.7936   22.0328 H   0  0  0  0  0  0
  -28.1311  -28.9612   21.1450 H   0  0  0  0  0  0
  -25.9568  -25.9034   18.9892 H   0  0  0  0  0  0
  -23.9667  -27.2701   19.0353 H   0  0  0  0  0  0
  -23.7222  -30.5411   19.3999 H   0  0  0  0  0  0
  -22.7588  -29.1872   19.9067 H   0  0  0  0  0  0
  -25.1332  -36.1850   25.0797 H   0  0  0  0  0  0
  -20.9919  -28.3616   24.1599 H   0  0  0  0  0  0
  -20.5794  -26.2549   23.3627 H   0  0  0  0  0  0
  -21.6746  -26.7750   22.1199 H   0  0  0  0  0  0
  -19.7638  -25.6723   21.1082 H   0  0  0  0  0  0
  -19.7257  -27.3513   20.6786 H   0  0  0  0  0  0
  -17.4701  -26.7151   21.3470 H   0  0  0  0  0  0
  -18.0498  -26.0143   22.8546 H   0  0  0  0  0  0
  -19.7625  -30.7361   24.3022 H   0  0  0  0  0  0
  -17.4705  -31.6246   24.5371 H   0  0  0  0  0  0
  -15.5321  -30.2945   23.7552 H   0  0  0  0  0  0
  -15.8908  -28.0774   22.6856 H   0  0  0  0  0  0
  -24.5923  -30.7054   25.7708 H   0  0  0  0  0  0
  -24.8944  -32.2918   26.4810 H   0  0  0  0  0  0
  -25.8086  -30.8891   27.0187 H   0  0  0  0  0  0
  -26.2960  -29.6711   24.1294 H   0  0  0  0  0  0
  -27.4024  -29.7285   25.4802 H   0  0  0  0  0  0
  -27.8874  -30.4195   23.9527 H   0  0  0  0  0  0
  -27.2547  -33.3629   26.2056 H   0  0  0  0  0  0
  -28.3831  -32.7015   25.0339 H   0  0  0  0  0  0
  -28.0699  -31.8529   26.5410 H   0  0  0  0  0  0
  -28.2598  -38.0039   24.7519 H   0  0  0  0  0  0
  -28.1037  -36.2599   24.6315 H   0  0  0  0  0  0
  -27.2288  -37.1418   25.8856 H   0  0  0  0  0  0
  -20.9243  -29.9200   21.7286 H   0  0  0  0  0  0
  -26.0169  -38.2796   24.1403 H   0  0  0  0  0  0
  -30.0304  -21.2901   20.5023 H   0  0  0  0  0  0
  -25.8035  -21.9300   20.4058 H   0  0  0  0  0  0
  -23.2689  -19.3140   23.0558 H   0  0  0  0  0  0
  -23.8469  -17.8999   22.2127 H   0  0  0  0  0  0
  -25.7595  -19.3440   22.8530 H   0  0  0  0  0  0
  -24.9885  -20.7125   22.1235 H   0  0  0  0  0  0
  -22.7462  -20.4308   20.8675 H   0  0  0  0  0  0
  -21.8966  -18.8946   21.0099 H   0  0  0  0  0  0
  -25.3284  -18.9399   18.5821 H   0  0  0  0  0  0
  -24.7484  -20.4790   19.1386 H   0  0  0  0  0  0
  -26.0935  -18.2522   20.7318 H   0  0  0  0  0  0
  -27.0372  -23.6945   22.5907 H   0  0  0  0  0  0
  -27.6446  -25.2876   22.2417 H   0  0  0  0  0  0
  -28.7963  -23.9778   22.5404 H   0  0  0  0  0  0
  -28.0047  -17.7702   20.0175 H   0  0  0  0  0  0
  -28.2876  -18.0153   21.6914 H   0  0  0  0  0  0
  -30.7473  -17.7191   21.2731 H   0  0  0  0  0  0
  -30.4292  -17.5610   19.5636 H   0  0  0  0  0  0
  -27.9186  -24.9636   18.6673 H   0  0  0  0  0  0
  -29.4493  -24.7985   19.4106 H   0  0  0  0  0  0
  -26.7795  -23.9770   20.3517 H   0  0  0  0  0  0
  -28.8488  -15.6116   21.0115 H   0  0  0  0  0  0
  -22.9413  -19.1185   18.8888 H   0  0  0  0  0  0
  -23.5856  -17.8737   19.6943 H   0  0  0  0  0  0
  1 25  1  0  0  0
  1 30  2  0  0  0
  1 86  1  0  0  0
  2  3  1  0  0  0
  2 25  1  0  0  0
  2 88  1  0  0  0
  2 89  1  0  0  0
  3  4  1  0  0  0
  3 90  1  0  0  0
  3 91  1  0  0  0
  4  5  1  0  0  0
  4 92  1  0  0  0
  4 93  1  0  0  0
  5  6  1  0  0  0
  5 26  1  0  0  0
  5 94  1  0  0  0
  6 25  1  0  0  0
  6 95  1  0  0  0
  6 96  1  0  0  0
  7  8  2  0  0  0
  7 26  1  0  0  0
  7 29  1  0  0  0
  8  9  1  0  0  0
  8 22  1  0  0  0
  9 10  1  0  0  0
  9 27  2  0  0  0
 10 11  2  0  0  0
 10 15  1  0  0  0
 11 12  1  0  0  0
 11 97  1  0  0  0
 12 13  2  0  0  0
 12 98  1  0  0  0
 13 14  1  0  0  0
 13 31  1  0  0  0
 14 15  2  0  0  0
 14 99  1  0  0  0
 15100  1  0  0  0
 16 17  2  0  0  0
 16 21  1  0  0  0
 16 31  1  0  0  0
 17 18  1  0  0  0
 17101  1  0  0  0
 18 19  2  0  0  0
 18102  1  0  0  0
 19 20  1  0  0  0
 19 24  1  0  0  0
 20 21  2  0  0  0
 20103  1  0  0  0
 21 23  1  0  0  0
 22 28  1  0  0  0
 22 32  2  0  0  0
 26 27  1  0  0  0
 28104  1  0  0  0
 28105  1  0  0  0
 29106  1  0  0  0
 29107  1  0  0  0
 33 34  1  0  0  0
 33 66  1  0  0  0
 33 70  2  0  0  0
 34 36  1  0  0  0
 34 59  1  0  0  0
 34108  1  0  0  0
 35 44  2  0  0  0
 35 45  1  0  0  0
 35 68  1  0  0  0
 36 56  1  0  0  0
 36109  1  0  0  0
 37 39  1  0  0  0
 37 47  1  0  0  0
 37 66  1  0  0  0
 37110  1  0  0  0
 38 43  2  0  0  0
 38 46  1  0  0  0
 38 47  1  0  0  0
 39 64  1  0  0  0
 39 67  2  0  0  0
 40 52  1  0  0  0
 40 53  2  0  0  0
 40 58  1  0  0  0
 41111  1  0  0  0
 41112  1  0  0  0
 41113  1  0  0  0
 41 48  1  0  0  0
 42 43  1  0  0  0
 42 66  1  0  0  0
 42114  1  0  0  0
 42115  1  0  0  0
 43 44  1  0  0  0
 44116  1  0  0  0
 45 46  2  0  0  0
 45117  1  0  0  0
 46118  1  0  0  0
 47119  1  0  0  0
 47120  1  0  0  0
 48 56  1  0  0  0
 48 65  1  0  0  0
 48121  1  0  0  0
 49 50  1  0  0  0
 49 53  1  0  0  0
 49 64  1  0  0  0
 49122  1  0  0  0
 50 51  1  0  0  0
 50123  1  0  0  0
 50124  1  0  0  0
 51 52  1  0  0  0
 51125  1  0  0  0
 51126  1  0  0  0
 52127  1  0  0  0
 52128  1  0  0  0
 53 54  1  0  0  0
 54 55  2  0  0  0
 54129  1  0  0  0
 55 57  1  0  0  0
 55130  1  0  0  0
 56 69  2  0  0  0
 57 58  2  0  0  0
 57131  1  0  0  0
 58132  1  0  0  0
 59 60  1  0  0  0
 59 61  1  0  0  0
 59 62  1  0  0  0
 60133  1  0  0  0
 60134  1  0  0  0
 60135  1  0  0  0
 61136  1  0  0  0
 61137  1  0  0  0
 61138  1  0  0  0
 62139  1  0  0  0
 62140  1  0  0  0
 62141  1  0  0  0
 63 65  1  0  0  0
 63142  1  0  0  0
 63143  1  0  0  0
 63144  1  0  0  0
 64145  1  0  0  0
 65146  1  0  0  0
 68 83  1  0  0  0
 71 73  1  0  0  0
 71 74  2  0  0  0
 71147  1  0  0  0
 72 73  2  0  0  0
 72 85  1  0  0  0
 72148  1  0  0  0
 73 84  1  0  0  0
 74 81  1  0  0  0
 74 85  1  0  0  0
 75 76  1  0  0  0
 75 77  1  0  0  0
 75149  1  0  0  0
 75150  1  0  0  0
 76 79  1  0  0  0
 76151  1  0  0  0
 76152  1  0  0  0
 77 87  1  0  0  0
 77153  1  0  0  0
 77154  1  0  0  0
 78 79  1  0  0  0
 78 87  1  0  0  0
 78155  1  0  0  0
 78156  1  0  0  0
 79 85  1  0  0  0
 79157  1  0  0  0
 80158  1  0  0  0
 80159  1  0  0  0
 80160  1  0  0  0
 80 84  1  0  0  0
 81 82  1  0  0  0
 81161  1  0  0  0
 81162  1  0  0  0
 82 86  1  0  0  0
 82163  1  0  0  0
 82164  1  0  0  0
 83 84  1  0  0  0
 83165  1  0  0  0
 83166  1  0  0  0
 84167  1  0  0  0
 86168  1  0  0  0
 87169  1  0  0  0
 87170  1  0  0  0
M  CHG  1  87   1
M  ISO  4   1 100  68 101  83 101  86 100
M  END
> <chiral flag>
0

> <version>
0

> <s_m_source_file>
/data/baiqing/PycharmProjects/Reinvent-master-3.2/result/LINK_invent/BTK/process_docking_weight1_custom_sum_contain_oxygen_bond_distance_aromatic_linkinvent_7_9_3/rearranged_h_0117.sdf

> <i_m_source_file_index>
84

> <r_mmod_Potential_Energy-OPLS-2005>
117.880065917969

> <r_mmod_Stretch_Energy-OPLS-2005>
142.598754882812

> <r_mmod_Bend_Energy-OPLS-2005>
278.632232666016

> <r_mmod_Torsional_Energy-OPLS-2005>
270.483215332031

> <r_mmod_Improper_Torsional_Energy-OPLS-2005>
7.1613655090332

> <r_mmod_Van_der_Waal_Energy-OPLS-2005>
122.843070983887

> <r_mmod_Electrostatic_Energy-OPLS-2005>
-281.251129150391

> <r_mmod_Solvation_Energy-OPLS-2005>
-502.286804199219

> <b_mmod_Minimization_Converged-OPLS-2005>
0

> <r_mmod_RMS_Derivative-OPLS-2005>
11.5936088562012

$$$$
85
                    3D
 Structure written by MMmdl.
169176  0  0  1  0            999 V2000
  -30.8144  -14.3945   20.5994 C   0  0  0  0  0  0
  -30.3937  -12.2778   19.4198 C   0  0  0  0  0  0
  -29.4864  -12.5155   18.2004 C   0  0  0  0  0  0
  -28.0103  -12.3887   18.6135 C   0  0  0  0  0  0
  -27.6671  -13.2227   19.8783 C   0  0  2  0  0  0
  -28.7116  -13.0306   21.0061 C   0  0  0  0  0  0
  -25.2621  -13.8187   20.5674 C   0  0  0  0  0  0
  -24.1869  -13.0435   20.9153 C   0  0  0  0  0  0
  -24.6421  -11.6901   20.8694 C   0  0  0  0  0  0
  -23.9075  -10.4273   21.0362 C   0  0  0  0  0  0
  -24.3634   -9.4205   21.9156 C   0  0  0  0  0  0
  -23.6294   -8.2259   22.0751 C   0  0  0  0  0  0
  -22.4277   -8.0283   21.3552 C   0  0  0  0  0  0
  -21.9921   -9.0244   20.4646 C   0  0  0  0  0  0
  -22.7241  -10.2111   20.3029 C   0  0  0  0  0  0
  -21.6866   -6.0729   22.5266 C   0  0  0  0  0  0
  -21.4024   -6.5637   23.8196 C   0  0  0  0  0  0
  -21.3654   -5.6798   24.9165 C   0  0  0  0  0  0
  -21.6041   -4.3062   24.7227 C   0  0  0  0  0  0
  -21.8819   -3.8141   23.4358 C   0  0  0  0  0  0
  -21.9191   -4.6950   22.3404 C   0  0  0  0  0  0
  -22.7886  -13.5233   21.1767 C   0  0  0  0  0  0
  -22.1665   -4.2133   21.0992 F   0  0  0  0  0  0
  -21.5616   -3.4548   25.7750 F   0  0  0  0  0  0
  -30.0525  -13.2772   20.4497 N   0  0  0  0  0  0
  -26.3075  -12.9378   20.3387 N   0  0  0  0  0  0
  -25.9375  -11.6510   20.5775 N   0  0  0  0  0  0
  -22.0538  -12.8222   22.0326 N   0  0  0  0  0  0
  -25.4343  -15.1911   20.4109 N   0  0  0  0  0  0
  -31.8423  -14.5758   19.9450 O   0  0  0  0  0  0
  -21.6651   -6.8866   21.4230 O   0  0  0  0  0  0
  -22.3564  -14.5515   20.6577 O   0  0  0  0  0  0
  -24.6165  -31.8661   23.2116 C   0  0  0  0  0  0
  -25.9027  -32.4821   23.8409 C   0  0  1  0  0  0
  -27.2462  -27.4576   20.1074 C   0  0  0  0  0  0
  -25.5858  -33.8638   24.2344 N   0  0  0  0  0  0
  -23.4026  -30.4869   21.5561 C   0  0  2  0  0  0
  -24.8550  -28.9676   20.1060 C   0  0  0  0  0  0
  -22.7396  -29.4627   22.5024 C   0  0  0  0  0  0
  -18.0250  -28.1336   22.8466 C   0  0  0  0  0  0
  -24.1498  -36.7345   23.2637 C   0  0  0  0  0  0
  -25.9282  -30.8487   21.3544 C   0  0  0  0  0  0
  -26.0119  -29.4890   20.6945 C   0  0  0  0  0  0
  -27.2108  -28.7440   20.6872 C   0  0  0  0  0  0
  -26.0739  -26.9481   19.5054 C   0  0  0  0  0  0
  -24.8773  -27.6948   19.5107 C   0  0  0  0  0  0
  -23.6070  -29.8212   20.1694 C   0  0  0  0  0  0
  -25.4117  -36.3155   24.0356 C   0  0  1  0  0  0
  -20.5843  -28.3600   23.1359 C   0  0  2  0  0  0
  -20.6754  -26.9333   22.5465 C   0  0  0  0  0  0
  -19.5753  -26.6355   21.5247 C   0  0  0  0  0  0
  -18.1915  -26.7876   22.1613 C   0  0  0  0  0  0
  -19.1503  -28.8785   23.2882 C   0  0  0  0  0  0
  -18.9445  -30.1392   23.8868 C   0  0  0  0  0  0
  -17.6461  -30.6542   24.0552 C   0  0  0  0  0  0
  -25.9010  -34.9493   23.5173 C   0  0  0  0  0  0
  -16.5338  -29.9029   23.6362 C   0  0  0  0  0  0
  -16.7255  -28.6476   23.0327 C   0  0  0  0  0  0
  -26.4451  -31.6576   25.0729 C   0  0  0  0  0  0
  -25.3698  -31.3633   26.1463 C   0  0  0  0  0  0
  -27.0310  -30.3029   24.6082 C   0  0  0  0  0  0
  -27.6054  -32.4295   25.7447 C   0  0  0  0  0  0
  -27.5615  -37.1796   24.8459 C   0  0  0  0  0  0
  -21.4127  -29.2997   22.3778 N   0  0  0  0  0  0
  -26.4323  -37.3823   23.9415 N   0  0  0  0  0  0
  -24.6672  -31.0755   22.1001 N   0  0  0  0  0  0
  -23.4167  -28.8156   23.3045 O   0  0  0  0  0  0
  -28.4171  -26.7250   20.2002 O   0  0  0  0  0  0
  -26.5630  -34.8935   22.4766 O   0  0  0  0  0  0
  -23.5350  -32.1410   23.7506 O   0  0  0  0  0  0
  -29.5549  -22.8974   22.5870 C   0  0  0  0  0  0
  -32.2524  -15.8314   23.0862 C   0  0  0  0  0  0
  -27.4122  -25.1380   21.8142 C   0  0  0  0  0  0
  -31.0966  -22.4412   20.6730 C   0  0  0  0  0  0
  -30.6750  -17.7363   22.3054 C   0  0  0  0  0  0
  -31.1040  -20.1224   21.5757 C   0  0  0  0  0  0
  -29.8068  -23.2097   21.0886 C   0  0  2  0  0  0
  -31.3709  -16.3859   21.9488 C   0  0  2  0  0  0
  -29.7608  -24.7686   20.7899 C   0  0  2  0  0  0
  -28.3102  -25.3310   20.5653 C   0  0  2  0  0  0
  -30.4536  -15.3042   21.5244 N   0  0  0  0  0  0
  -30.8592  -21.0122   20.4305 N   0  0  0  0  0  0
  -30.5772  -25.1820   19.6203 N   0  3  0  0  0  0
  -30.7870  -18.7210   21.1970 N   0  3  0  0  0  0
  -31.4438  -12.3084   19.1243 H   0  0  0  0  0  0
  -30.2364  -11.2709   19.8128 H   0  0  0  0  0  0
  -29.7160  -11.7991   17.4107 H   0  0  0  0  0  0
  -29.6769  -13.5049   17.7820 H   0  0  0  0  0  0
  -27.8027  -11.3327   18.7921 H   0  0  0  0  0  0
  -27.3678  -12.6876   17.7845 H   0  0  0  0  0  0
  -27.7076  -14.2702   19.5794 H   0  0  0  0  0  0
  -28.6668  -12.0143   21.4021 H   0  0  0  0  0  0
  -28.4824  -13.6870   21.8469 H   0  0  0  0  0  0
  -25.2782   -9.5684   22.4723 H   0  0  0  0  0  0
  -23.9984   -7.4671   22.7498 H   0  0  0  0  0  0
  -21.0844   -8.8746   19.8983 H   0  0  0  0  0  0
  -22.3676  -10.9639   19.6138 H   0  0  0  0  0  0
  -21.2034   -7.6142   23.9691 H   0  0  0  0  0  0
  -21.1476   -6.0540   25.9062 H   0  0  0  0  0  0
  -22.0600   -2.7600   23.2872 H   0  0  0  0  0  0
  -22.4168  -11.9925   22.4761 H   0  0  0  0  0  0
  -21.1134  -13.1210   22.2452 H   0  0  0  0  0  0
  -24.6717  -15.8500   20.5207 H   0  0  0  0  0  0
  -26.2897  -15.6247   20.0869 H   0  0  0  0  0  0
  -26.7086  -32.5560   23.1169 H   0  0  0  0  0  0
  -24.9876  -33.9778   25.0393 H   0  0  0  0  0  0
  -22.6918  -31.3045   21.4163 H   0  0  0  0  0  0
  -23.3765  -35.9666   23.3299 H   0  0  0  0  0  0
  -24.3553  -36.8981   22.2038 H   0  0  0  0  0  0
  -23.7253  -37.6549   23.6666 H   0  0  0  0  0  0
  -26.0309  -31.6246   20.5918 H   0  0  0  0  0  0
  -26.8129  -30.8998   21.9754 H   0  0  0  0  0  0
  -28.1024  -29.1332   21.1584 H   0  0  0  0  0  0
  -26.0707  -25.9664   19.0518 H   0  0  0  0  0  0
  -23.9843  -27.2779   19.0655 H   0  0  0  0  0  0
  -23.6935  -30.5999   19.4101 H   0  0  0  0  0  0
  -22.7317  -29.2294   19.8867 H   0  0  0  0  0  0
  -25.1288  -36.2036   25.0849 H   0  0  0  0  0  0
  -20.9912  -28.3184   24.1487 H   0  0  0  0  0  0
  -20.5716  -26.2173   23.3625 H   0  0  0  0  0  0
  -21.6615  -26.7429   22.1211 H   0  0  0  0  0  0
  -19.6961  -25.6289   21.1233 H   0  0  0  0  0  0
  -19.6748  -27.3200   20.6790 H   0  0  0  0  0  0
  -17.4212  -26.6664   21.3974 H   0  0  0  0  0  0
  -18.0235  -26.0018   22.8975 H   0  0  0  0  0  0
  -19.7938  -30.7199   24.2252 H   0  0  0  0  0  0
  -17.5017  -31.6243   24.5104 H   0  0  0  0  0  0
  -15.5320  -30.2898   23.7724 H   0  0  0  0  0  0
  -15.8658  -28.0806   22.7003 H   0  0  0  0  0  0
  -24.5974  -30.6874   25.7749 H   0  0  0  0  0  0
  -24.8751  -32.2728   26.4875 H   0  0  0  0  0  0
  -25.8006  -30.8849   27.0249 H   0  0  0  0  0  0
  -26.2856  -29.6697   24.1235 H   0  0  0  0  0  0
  -27.4167  -29.7349   25.4538 H   0  0  0  0  0  0
  -27.8638  -30.4347   23.9172 H   0  0  0  0  0  0
  -27.2761  -33.3635   26.1996 H   0  0  0  0  0  0
  -28.3826  -32.6757   25.0208 H   0  0  0  0  0  0
  -28.0756  -31.8454   26.5346 H   0  0  0  0  0  0
  -28.2605  -38.0108   24.7555 H   0  0  0  0  0  0
  -28.1144  -36.2639   24.6261 H   0  0  0  0  0  0
  -27.2340  -37.1441   25.8856 H   0  0  0  0  0  0
  -20.9285  -29.8697   21.6995 H   0  0  0  0  0  0
  -26.0253  -38.2930   24.1367 H   0  0  0  0  0  0
  -28.8568  -22.0718   22.7101 H   0  0  0  0  0  0
  -29.1665  -23.7383   23.1554 H   0  0  0  0  0  0
  -30.4733  -22.6200   23.1030 H   0  0  0  0  0  0
  -33.0175  -16.5424   23.3951 H   0  0  0  0  0  0
  -32.7769  -14.9306   22.7630 H   0  0  0  0  0  0
  -31.6698  -15.5592   23.9655 H   0  0  0  0  0  0
  -27.1533  -24.0876   21.9394 H   0  0  0  0  0  0
  -26.4572  -25.6581   21.7690 H   0  0  0  0  0  0
  -27.9133  -25.4924   22.7146 H   0  0  0  0  0  0
  -31.9205  -22.6116   21.3706 H   0  0  0  0  0  0
  -31.4541  -22.8225   19.7180 H   0  0  0  0  0  0
  -31.1598  -18.1606   23.1879 H   0  0  0  0  0  0
  -29.6282  -17.5992   22.5815 H   0  0  0  0  0  0
  -30.4896  -20.4105   22.4267 H   0  0  0  0  0  0
  -32.1508  -20.1880   21.8855 H   0  0  0  0  0  0
  -28.9882  -22.7833   20.5040 H   0  0  0  0  0  0
  -32.0693  -16.6199   21.1416 H   0  0  0  0  0  0
  -30.2014  -25.2973   21.6383 H   0  0  0  0  0  0
  -27.8617  -24.8032   19.7230 H   0  0  0  0  0  0
  -29.6025  -15.1473   22.0445 H   0  0  0  0  0  0
  -31.5008  -20.7440   19.6872 H   0  0  0  0  0  0
  -31.5678  -25.0768   19.7679 H   0  0  0  0  0  0
  -30.4043  -26.1649   19.4715 H   0  0  0  0  0  0
  -30.3127  -24.7117   18.7725 H   0  0  0  0  0  0
  -29.9164  -18.7144   20.6916 H   0  0  0  0  0  0
  -31.5052  -18.3889   20.5764 H   0  0  0  0  0  0
  1 25  1  0  0  0
  1 30  2  0  0  0
  1 81  1  0  0  0
  2  3  1  0  0  0
  2 25  1  0  0  0
  2 85  1  0  0  0
  2 86  1  0  0  0
  3  4  1  0  0  0
  3 87  1  0  0  0
  3 88  1  0  0  0
  4  5  1  0  0  0
  4 89  1  0  0  0
  4 90  1  0  0  0
  5  6  1  0  0  0
  5 26  1  0  0  0
  5 91  1  0  0  0
  6 25  1  0  0  0
  6 92  1  0  0  0
  6 93  1  0  0  0
  7  8  2  0  0  0
  7 26  1  0  0  0
  7 29  1  0  0  0
  8  9  1  0  0  0
  8 22  1  0  0  0
  9 10  1  0  0  0
  9 27  2  0  0  0
 10 11  2  0  0  0
 10 15  1  0  0  0
 11 12  1  0  0  0
 11 94  1  0  0  0
 12 13  2  0  0  0
 12 95  1  0  0  0
 13 14  1  0  0  0
 13 31  1  0  0  0
 14 15  2  0  0  0
 14 96  1  0  0  0
 15 97  1  0  0  0
 16 17  2  0  0  0
 16 21  1  0  0  0
 16 31  1  0  0  0
 17 18  1  0  0  0
 17 98  1  0  0  0
 18 19  2  0  0  0
 18 99  1  0  0  0
 19 20  1  0  0  0
 19 24  1  0  0  0
 20 21  2  0  0  0
 20100  1  0  0  0
 21 23  1  0  0  0
 22 28  1  0  0  0
 22 32  2  0  0  0
 26 27  1  0  0  0
 28101  1  0  0  0
 28102  1  0  0  0
 29103  1  0  0  0
 29104  1  0  0  0
 33 34  1  0  0  0
 33 66  1  0  0  0
 33 70  2  0  0  0
 34 36  1  0  0  0
 34 59  1  0  0  0
 34105  1  0  0  0
 35 44  2  0  0  0
 35 45  1  0  0  0
 35 68  1  0  0  0
 36 56  1  0  0  0
 36106  1  0  0  0
 37 39  1  0  0  0
 37 47  1  0  0  0
 37 66  1  0  0  0
 37107  1  0  0  0
 38 43  2  0  0  0
 38 46  1  0  0  0
 38 47  1  0  0  0
 39 64  1  0  0  0
 39 67  2  0  0  0
 40 52  1  0  0  0
 40 53  2  0  0  0
 40 58  1  0  0  0
 41108  1  0  0  0
 41109  1  0  0  0
 41110  1  0  0  0
 41 48  1  0  0  0
 42 43  1  0  0  0
 42 66  1  0  0  0
 42111  1  0  0  0
 42112  1  0  0  0
 43 44  1  0  0  0
 44113  1  0  0  0
 45 46  2  0  0  0
 45114  1  0  0  0
 46115  1  0  0  0
 47116  1  0  0  0
 47117  1  0  0  0
 48 56  1  0  0  0
 48 65  1  0  0  0
 48118  1  0  0  0
 49 50  1  0  0  0
 49 53  1  0  0  0
 49 64  1  0  0  0
 49119  1  0  0  0
 50 51  1  0  0  0
 50120  1  0  0  0
 50121  1  0  0  0
 51 52  1  0  0  0
 51122  1  0  0  0
 51123  1  0  0  0
 52124  1  0  0  0
 52125  1  0  0  0
 53 54  1  0  0  0
 54 55  2  0  0  0
 54126  1  0  0  0
 55 57  1  0  0  0
 55127  1  0  0  0
 56 69  2  0  0  0
 57 58  2  0  0  0
 57128  1  0  0  0
 58129  1  0  0  0
 59 60  1  0  0  0
 59 61  1  0  0  0
 59 62  1  0  0  0
 60130  1  0  0  0
 60131  1  0  0  0
 60132  1  0  0  0
 61133  1  0  0  0
 61134  1  0  0  0
 61135  1  0  0  0
 62136  1  0  0  0
 62137  1  0  0  0
 62138  1  0  0  0
 63 65  1  0  0  0
 63139  1  0  0  0
 63140  1  0  0  0
 63141  1  0  0  0
 64142  1  0  0  0
 65143  1  0  0  0
 68 80  1  0  0  0
 71144  1  0  0  0
 71145  1  0  0  0
 71146  1  0  0  0
 71 77  1  0  0  0
 72147  1  0  0  0
 72148  1  0  0  0
 72149  1  0  0  0
 72 78  1  0  0  0
 73150  1  0  0  0
 73151  1  0  0  0
 73152  1  0  0  0
 73 80  1  0  0  0
 74 77  1  0  0  0
 74 82  1  0  0  0
 74153  1  0  0  0
 74154  1  0  0  0
 75 78  1  0  0  0
 75 84  1  0  0  0
 75155  1  0  0  0
 75156  1  0  0  0
 76 82  1  0  0  0
 76 84  1  0  0  0
 76157  1  0  0  0
 76158  1  0  0  0
 77 79  1  0  0  0
 77159  1  0  0  0
 78 81  1  0  0  0
 78160  1  0  0  0
 79 80  1  0  0  0
 79 83  1  0  0  0
 79161  1  0  0  0
 80162  1  0  0  0
 81163  1  0  0  0
 82164  1  0  0  0
 83165  1  0  0  0
 83166  1  0  0  0
 83167  1  0  0  0
 84168  1  0  0  0
 84169  1  0  0  0
M  CHG  2  83   1  84   1
M  ISO  4   1 100  68 101  80 101  81 100
M  END
> <chiral flag>
0

> <version>
0

> <s_m_source_file>
/data/baiqing/PycharmProjects/Reinvent-master-3.2/result/LINK_invent/BTK/process_docking_weight1_custom_sum_contain_oxygen_bond_distance_aromatic_linkinvent_7_9_3/rearranged_h_0117.sdf

> <i_m_source_file_index>
85

> <r_mmod_Potential_Energy-OPLS-2005>
-313.248016357422

> <r_mmod_Stretch_Energy-OPLS-2005>
45.5617942810059

> <r_mmod_Bend_Energy-OPLS-2005>
119.454551696777

> <r_mmod_Torsional_Energy-OPLS-2005>
304.488189697266

> <r_mmod_Improper_Torsional_Energy-OPLS-2005>
2.29116606712341

> <r_mmod_Van_der_Waal_Energy-OPLS-2005>
155.524353027344

> <r_mmod_Electrostatic_Energy-OPLS-2005>
-42.9865455627441

> <r_mmod_Solvation_Energy-OPLS-2005>
-911.868835449219

> <b_mmod_Minimization_Converged-OPLS-2005>
0

> <r_mmod_RMS_Derivative-OPLS-2005>
5.98797178268433

$$$$
86
                    3D
 Structure written by MMmdl.
174183  0  0  1  0            999 V2000
  -30.7154  -14.4369   20.5595 C   0  0  0  0  0  0
  -30.4164  -12.2802   19.4254 C   0  0  0  0  0  0
  -29.4967  -12.5051   18.2084 C   0  0  0  0  0  0
  -28.0149  -12.3747   18.6122 C   0  0  0  0  0  0
  -27.6621  -13.2072   19.8760 C   0  0  2  0  0  0
  -28.7026  -12.9790   21.0001 C   0  0  0  0  0  0
  -25.2534  -13.8129   20.5590 C   0  0  0  0  0  0
  -24.1817  -13.0410   20.9157 C   0  0  0  0  0  0
  -24.6388  -11.6884   20.8741 C   0  0  0  0  0  0
  -23.9056  -10.4274   21.0391 C   0  0  0  0  0  0
  -24.3611   -9.4204   21.9167 C   0  0  0  0  0  0
  -23.6297   -8.2239   22.0747 C   0  0  0  0  0  0
  -22.4280   -8.0263   21.3530 C   0  0  0  0  0  0
  -21.9906   -9.0233   20.4638 C   0  0  0  0  0  0
  -22.7224  -10.2116   20.3038 C   0  0  0  0  0  0
  -21.6849   -6.0726   22.5274 C   0  0  0  0  0  0
  -21.4016   -6.5632   23.8208 C   0  0  0  0  0  0
  -21.3667   -5.6783   24.9171 C   0  0  0  0  0  0
  -21.6043   -4.3047   24.7220 C   0  0  0  0  0  0
  -21.8826   -3.8139   23.4348 C   0  0  0  0  0  0
  -21.9200   -4.6952   22.3402 C   0  0  0  0  0  0
  -22.7851  -13.5213   21.1833 C   0  0  0  0  0  0
  -22.1657   -4.2137   21.0977 F   0  0  0  0  0  0
  -21.5636   -3.4529   25.7737 F   0  0  0  0  0  0
  -30.0405  -13.2627   20.4526 N   0  0  0  0  0  0
  -26.3012  -12.9319   20.3345 N   0  0  0  0  0  0
  -25.9315  -11.6478   20.5773 N   0  0  0  0  0  0
  -22.0489  -12.8224   22.0405 N   0  0  0  0  0  0
  -25.4137  -15.1826   20.3876 N   0  0  0  0  0  0
  -31.8357  -14.6197   20.0766 O   0  0  0  0  0  0
  -21.6638   -6.8864   21.4238 O   0  0  0  0  0  0
  -22.3535  -14.5511   20.6673 O   0  0  0  0  0  0
  -24.6117  -31.8693   23.2114 C   0  0  0  0  0  0
  -25.9019  -32.4830   23.8401 C   0  0  1  0  0  0
  -27.2327  -27.4602   20.0980 C   0  0  0  0  0  0
  -25.5890  -33.8627   24.2336 N   0  0  0  0  0  0
  -23.3988  -30.4925   21.5502 C   0  0  2  0  0  0
  -24.8468  -28.9584   20.1151 C   0  0  0  0  0  0
  -22.7392  -29.4669   22.4995 C   0  0  0  0  0  0
  -18.0268  -28.1381   22.8492 C   0  0  0  0  0  0
  -24.1484  -36.7321   23.2637 C   0  0  0  0  0  0
  -25.9239  -30.8436   21.3591 C   0  0  0  0  0  0
  -26.0037  -29.4786   20.7104 C   0  0  0  0  0  0
  -27.2032  -28.7352   20.6998 C   0  0  0  0  0  0
  -26.0662  -26.9441   19.5003 C   0  0  0  0  0  0
  -24.8711  -27.6894   19.5078 C   0  0  0  0  0  0
  -23.6064  -29.8212   20.1653 C   0  0  0  0  0  0
  -25.4103  -36.3120   24.0340 C   0  0  1  0  0  0
  -20.5856  -28.3663   23.1325 C   0  0  2  0  0  0
  -20.6764  -26.9403   22.5418 C   0  0  0  0  0  0
  -19.5748  -26.6390   21.5211 C   0  0  0  0  0  0
  -18.1924  -26.7930   22.1619 C   0  0  0  0  0  0
  -19.1516  -28.8839   23.2906 C   0  0  0  0  0  0
  -18.9447  -30.1446   23.8917 C   0  0  0  0  0  0
  -17.6450  -30.6589   24.0564 C   0  0  0  0  0  0
  -25.9027  -34.9484   23.5138 C   0  0  0  0  0  0
  -16.5341  -29.9093   23.6326 C   0  0  0  0  0  0
  -16.7257  -28.6510   23.0344 C   0  0  0  0  0  0
  -26.4467  -31.6601   25.0715 C   0  0  0  0  0  0
  -25.3753  -31.3688   26.1475 C   0  0  0  0  0  0
  -27.0291  -30.3051   24.6059 C   0  0  0  0  0  0
  -27.6046  -32.4316   25.7476 C   0  0  0  0  0  0
  -27.5583  -37.1810   24.8462 C   0  0  0  0  0  0
  -21.4122  -29.3035   22.3731 N   0  0  0  0  0  0
  -26.4291  -37.3802   23.9414 N   0  0  0  0  0  0
  -24.6630  -31.0817   22.0996 N   0  0  0  0  0  0
  -23.4172  -28.8214   23.3030 O   0  0  0  0  0  0
  -28.3887  -26.7227   20.0881 O   0  0  0  0  0  0
  -26.5588  -34.8929   22.4691 O   0  0  0  0  0  0
  -23.5318  -32.1428   23.7528 O   0  0  0  0  0  0
  -27.0706  -18.3046   20.2214 C   0  0  0  0  0  0
  -30.7015  -25.7565   18.4780 C   0  0  0  0  0  0
  -31.3034  -24.4872   17.9276 C   0  0  0  0  0  0
  -27.8168  -17.4881   21.2668 C   0  0  0  0  0  0
  -27.8911  -19.5795   20.1285 C   0  0  0  0  0  0
  -29.9174  -24.4633   18.5355 C   0  0  0  0  0  0
  -29.2914  -17.9151   21.1538 C   0  0  1  0  0  0
  -31.0494  -19.8782   18.8130 C   0  0  0  0  0  0
  -30.2544  -16.8434   20.5803 C   0  0  0  0  0  0
  -28.3619  -24.2802   20.5432 C   0  0  0  0  0  0
  -30.1570  -21.4315   20.6812 C   0  0  0  0  0  0
  -28.4507  -25.7175   21.1035 C   0  0  0  0  0  0
  -29.6509  -23.7576   19.8592 C   0  0  1  0  0  0
  -30.4088  -19.9701   20.2101 C   0  0  1  0  0  0
  -29.2517  -19.0614   20.2322 N   0  0  0  0  0  0
  -30.0010  -15.4693   21.0279 N   0  0  0  0  0  0
  -29.5856  -22.2936   19.6167 N   0  3  0  0  0  0
  -31.4644  -12.3596   19.1306 H   0  0  0  0  0  0
  -30.2928  -11.2668   19.8119 H   0  0  0  0  0  0
  -29.7355  -11.7914   17.4184 H   0  0  0  0  0  0
  -29.6777  -13.4965   17.7907 H   0  0  0  0  0  0
  -27.8125  -11.3187   18.7964 H   0  0  0  0  0  0
  -27.3742  -12.6625   17.7772 H   0  0  0  0  0  0
  -27.7079  -14.2578   19.5876 H   0  0  0  0  0  0
  -28.6673  -11.9430   21.3397 H   0  0  0  0  0  0
  -28.4724  -13.5852   21.8782 H   0  0  0  0  0  0
  -25.2753   -9.5700   22.4741 H   0  0  0  0  0  0
  -24.0007   -7.4643   22.7476 H   0  0  0  0  0  0
  -21.0825   -8.8749   19.8956 H   0  0  0  0  0  0
  -22.3666  -10.9654   19.6153 H   0  0  0  0  0  0
  -21.1993   -7.6131   23.9713 H   0  0  0  0  0  0
  -21.1485   -6.0503   25.9074 H   0  0  0  0  0  0
  -22.0603   -2.7599   23.2850 H   0  0  0  0  0  0
  -22.4082  -11.9886   22.4807 H   0  0  0  0  0  0
  -21.1109  -13.1268   22.2581 H   0  0  0  0  0  0
  -24.6385  -15.8281   20.4881 H   0  0  0  0  0  0
  -26.2527  -15.6265   20.0415 H   0  0  0  0  0  0
  -26.7092  -32.5559   23.1172 H   0  0  0  0  0  0
  -25.0066  -33.9794   25.0501 H   0  0  0  0  0  0
  -22.6866  -31.3085   21.4104 H   0  0  0  0  0  0
  -23.3747  -35.9653   23.3303 H   0  0  0  0  0  0
  -24.3582  -36.8926   22.2051 H   0  0  0  0  0  0
  -23.7235  -37.6526   23.6645 H   0  0  0  0  0  0
  -26.0291  -31.6081   20.5881 H   0  0  0  0  0  0
  -26.8149  -30.9014   21.9728 H   0  0  0  0  0  0
  -28.0996  -29.1315   21.1560 H   0  0  0  0  0  0
  -26.0835  -25.9711   19.0308 H   0  0  0  0  0  0
  -23.9815  -27.2837   19.0458 H   0  0  0  0  0  0
  -23.7102  -30.5943   19.4033 H   0  0  0  0  0  0
  -22.7325  -29.2362   19.8731 H   0  0  0  0  0  0
  -25.1280  -36.1986   25.0833 H   0  0  0  0  0  0
  -20.9950  -28.3231   24.1445 H   0  0  0  0  0  0
  -20.5676  -26.2270   23.3600 H   0  0  0  0  0  0
  -21.6633  -26.7463   22.1201 H   0  0  0  0  0  0
  -19.6911  -25.6306   21.1236 H   0  0  0  0  0  0
  -19.6700  -27.3206   20.6748 H   0  0  0  0  0  0
  -17.4200  -26.6682   21.4015 H   0  0  0  0  0  0
  -18.0324  -26.0066   22.9007 H   0  0  0  0  0  0
  -19.7926  -30.7253   24.2295 H   0  0  0  0  0  0
  -17.5010  -31.6272   24.5162 H   0  0  0  0  0  0
  -15.5344  -30.3002   23.7644 H   0  0  0  0  0  0
  -15.8655  -28.0838   22.7049 H   0  0  0  0  0  0
  -24.5925  -30.7030   25.7820 H   0  0  0  0  0  0
  -24.8944  -32.2834   26.4952 H   0  0  0  0  0  0
  -25.8126  -30.8846   27.0216 H   0  0  0  0  0  0
  -26.2815  -29.6813   24.1139 H   0  0  0  0  0  0
  -27.4106  -29.7278   25.4492 H   0  0  0  0  0  0
  -27.8631  -30.4380   23.9163 H   0  0  0  0  0  0
  -27.2667  -33.3605   26.2080 H   0  0  0  0  0  0
  -28.3843  -32.6890   25.0296 H   0  0  0  0  0  0
  -28.0729  -31.8424   26.5371 H   0  0  0  0  0  0
  -28.2596  -38.0113   24.7522 H   0  0  0  0  0  0
  -28.1082  -36.2645   24.6271 H   0  0  0  0  0  0
  -27.2303  -37.1436   25.8865 H   0  0  0  0  0  0
  -20.9281  -29.8744   21.6945 H   0  0  0  0  0  0
  -26.0185  -38.2879   24.1421 H   0  0  0  0  0  0
  -26.0306  -18.4915   20.4922 H   0  0  0  0  0  0
  -27.0765  -17.7878   19.2610 H   0  0  0  0  0  0
  -30.3642  -26.5122   17.7698 H   0  0  0  0  0  0
  -31.1109  -26.1459   19.4088 H   0  0  0  0  0  0
  -32.1228  -24.0422   18.4895 H   0  0  0  0  0  0
  -31.3842  -24.4020   16.8450 H   0  0  0  0  0  0
  -27.6484  -16.4218   21.1415 H   0  0  0  0  0  0
  -27.4454  -17.7471   22.2590 H   0  0  0  0  0  0
  -27.6471  -20.2374   20.9650 H   0  0  0  0  0  0
  -27.7110  -20.1078   19.1910 H   0  0  0  0  0  0
  -29.0923  -24.3912   17.8280 H   0  0  0  0  0  0
  -29.6340  -18.2325   22.1408 H   0  0  0  0  0  0
  -31.9384  -20.5063   18.7408 H   0  0  0  0  0  0
  -30.3589  -20.1741   18.0221 H   0  0  0  0  0  0
  -31.3685  -18.8584   18.5947 H   0  0  0  0  0  0
  -31.2852  -17.1178   20.8125 H   0  0  0  0  0  0
  -30.1745  -16.8368   19.4910 H   0  0  0  0  0  0
  -27.5067  -24.1973   19.8728 H   0  0  0  0  0  0
  -28.1336  -23.6264   21.3853 H   0  0  0  0  0  0
  -31.1248  -21.8464   20.9658 H   0  0  0  0  0  0
  -29.5467  -21.4669   21.5839 H   0  0  0  0  0  0
  -29.3820  -25.8450   21.6567 H   0  0  0  0  0  0
  -27.6555  -25.8566   21.8404 H   0  0  0  0  0  0
  -30.4988  -23.9627   20.5143 H   0  0  0  0  0  0
  -31.1424  -19.5601   20.9068 H   0  0  0  0  0  0
  -29.0944  -15.2625   21.4158 H   0  0  0  0  0  0
  -28.6420  -22.0126   19.4111 H   0  0  0  0  0  0
  -30.1352  -22.1071   18.7937 H   0  0  0  0  0  0
  1 25  1  0  0  0
  1 30  2  0  0  0
  1 86  1  0  0  0
  2  3  1  0  0  0
  2 25  1  0  0  0
  2 88  1  0  0  0
  2 89  1  0  0  0
  3  4  1  0  0  0
  3 90  1  0  0  0
  3 91  1  0  0  0
  4  5  1  0  0  0
  4 92  1  0  0  0
  4 93  1  0  0  0
  5  6  1  0  0  0
  5 26  1  0  0  0
  5 94  1  0  0  0
  6 25  1  0  0  0
  6 95  1  0  0  0
  6 96  1  0  0  0
  7  8  2  0  0  0
  7 26  1  0  0  0
  7 29  1  0  0  0
  8  9  1  0  0  0
  8 22  1  0  0  0
  9 10  1  0  0  0
  9 27  2  0  0  0
 10 11  2  0  0  0
 10 15  1  0  0  0
 11 12  1  0  0  0
 11 97  1  0  0  0
 12 13  2  0  0  0
 12 98  1  0  0  0
 13 14  1  0  0  0
 13 31  1  0  0  0
 14 15  2  0  0  0
 14 99  1  0  0  0
 15100  1  0  0  0
 16 17  2  0  0  0
 16 21  1  0  0  0
 16 31  1  0  0  0
 17 18  1  0  0  0
 17101  1  0  0  0
 18 19  2  0  0  0
 18102  1  0  0  0
 19 20  1  0  0  0
 19 24  1  0  0  0
 20 21  2  0  0  0
 20103  1  0  0  0
 21 23  1  0  0  0
 22 28  1  0  0  0
 22 32  2  0  0  0
 26 27  1  0  0  0
 28104  1  0  0  0
 28105  1  0  0  0
 29106  1  0  0  0
 29107  1  0  0  0
 33 34  1  0  0  0
 33 66  1  0  0  0
 33 70  2  0  0  0
 34 36  1  0  0  0
 34 59  1  0  0  0
 34108  1  0  0  0
 35 44  2  0  0  0
 35 45  1  0  0  0
 35 68  1  0  0  0
 36 56  1  0  0  0
 36109  1  0  0  0
 37 39  1  0  0  0
 37 47  1  0  0  0
 37 66  1  0  0  0
 37110  1  0  0  0
 38 43  2  0  0  0
 38 46  1  0  0  0
 38 47  1  0  0  0
 39 64  1  0  0  0
 39 67  2  0  0  0
 40 52  1  0  0  0
 40 53  2  0  0  0
 40 58  1  0  0  0
 41111  1  0  0  0
 41112  1  0  0  0
 41113  1  0  0  0
 41 48  1  0  0  0
 42 43  1  0  0  0
 42 66  1  0  0  0
 42114  1  0  0  0
 42115  1  0  0  0
 43 44  1  0  0  0
 44116  1  0  0  0
 45 46  2  0  0  0
 45117  1  0  0  0
 46118  1  0  0  0
 47119  1  0  0  0
 47120  1  0  0  0
 48 56  1  0  0  0
 48 65  1  0  0  0
 48121  1  0  0  0
 49 50  1  0  0  0
 49 53  1  0  0  0
 49 64  1  0  0  0
 49122  1  0  0  0
 50 51  1  0  0  0
 50123  1  0  0  0
 50124  1  0  0  0
 51 52  1  0  0  0
 51125  1  0  0  0
 51126  1  0  0  0
 52127  1  0  0  0
 52128  1  0  0  0
 53 54  1  0  0  0
 54 55  2  0  0  0
 54129  1  0  0  0
 55 57  1  0  0  0
 55130  1  0  0  0
 56 69  2  0  0  0
 57 58  2  0  0  0
 57131  1  0  0  0
 58132  1  0  0  0
 59 60  1  0  0  0
 59 61  1  0  0  0
 59 62  1  0  0  0
 60133  1  0  0  0
 60134  1  0  0  0
 60135  1  0  0  0
 61136  1  0  0  0
 61137  1  0  0  0
 61138  1  0  0  0
 62139  1  0  0  0
 62140  1  0  0  0
 62141  1  0  0  0
 63 65  1  0  0  0
 63142  1  0  0  0
 63143  1  0  0  0
 63144  1  0  0  0
 64145  1  0  0  0
 65146  1  0  0  0
 68 82  1  0  0  0
 71 74  1  0  0  0
 71 75  1  0  0  0
 71147  1  0  0  0
 71148  1  0  0  0
 72 73  1  0  0  0
 72149  1  0  0  0
 72150  1  0  0  0
 72 76  1  0  0  0
 73 76  1  0  0  0
 73151  1  0  0  0
 73152  1  0  0  0
 74 77  1  0  0  0
 74153  1  0  0  0
 74154  1  0  0  0
 75 85  1  0  0  0
 75155  1  0  0  0
 75156  1  0  0  0
 76 83  1  0  0  0
 76157  1  0  0  0
 77 79  1  0  0  0
 77 85  1  0  0  0
 77158  1  0  0  0
 78159  1  0  0  0
 78160  1  0  0  0
 78161  1  0  0  0
 78 84  1  0  0  0
 79 86  1  0  0  0
 79162  1  0  0  0
 79163  1  0  0  0
 80 82  1  0  0  0
 80164  1  0  0  0
 80165  1  0  0  0
 80 83  1  0  0  0
 81 84  1  0  0  0
 81 87  1  0  0  0
 81166  1  0  0  0
 81167  1  0  0  0
 82168  1  0  0  0
 82169  1  0  0  0
 83 87  1  0  0  0
 83170  1  0  0  0
 84 85  1  0  0  0
 84171  1  0  0  0
 86172  1  0  0  0
 87173  1  0  0  0
 87174  1  0  0  0
M  CHG  1  87   1
M  ISO  4   1 100  68 101  82 101  86 100
M  END
> <chiral flag>
0

> <version>
0

> <s_m_source_file>
/data/baiqing/PycharmProjects/Reinvent-master-3.2/result/LINK_invent/BTK/process_docking_weight1_custom_sum_contain_oxygen_bond_distance_aromatic_linkinvent_7_9_3/rearranged_h_0117.sdf

> <i_m_source_file_index>
86

> <r_mmod_Potential_Energy-OPLS-2005>
-132.323196411133

> <r_mmod_Stretch_Energy-OPLS-2005>
35.0472030639648

> <r_mmod_Bend_Energy-OPLS-2005>
136.353225708008

> <r_mmod_Torsional_Energy-OPLS-2005>
374.782989501953

> <r_mmod_Improper_Torsional_Energy-OPLS-2005>
6.25856304168701

> <r_mmod_Van_der_Waal_Energy-OPLS-2005>
120.889236450195

> <r_mmod_Electrostatic_Energy-OPLS-2005>
-376.874114990234

> <r_mmod_Solvation_Energy-OPLS-2005>
-438.7255859375

> <b_mmod_Minimization_Converged-OPLS-2005>
0

> <r_mmod_RMS_Derivative-OPLS-2005>
1.76485276222229

$$$$
87
                    3D
 Structure written by MMmdl.
173182  0  0  1  0            999 V2000
  -30.7331  -14.4009   20.6461 C   0  0  0  0  0  0
  -30.4174  -12.2943   19.4030 C   0  0  0  0  0  0
  -29.4849  -12.5217   18.1967 C   0  0  0  0  0  0
  -28.0072  -12.3819   18.6100 C   0  0  0  0  0  0
  -27.6639  -13.2063   19.8791 C   0  0  2  0  0  0
  -28.7016  -12.9510   20.9938 C   0  0  0  0  0  0
  -25.2602  -13.8184   20.5672 C   0  0  0  0  0  0
  -24.1845  -13.0455   20.9166 C   0  0  0  0  0  0
  -24.6396  -11.6921   20.8742 C   0  0  0  0  0  0
  -23.9069  -10.4300   21.0408 C   0  0  0  0  0  0
  -24.3630   -9.4216   21.9188 C   0  0  0  0  0  0
  -23.6309   -8.2250   22.0755 C   0  0  0  0  0  0
  -22.4286   -8.0284   21.3550 C   0  0  0  0  0  0
  -21.9919   -9.0253   20.4648 C   0  0  0  0  0  0
  -22.7244  -10.2134   20.3053 C   0  0  0  0  0  0
  -21.6852   -6.0751   22.5291 C   0  0  0  0  0  0
  -21.4003   -6.5648   23.8223 C   0  0  0  0  0  0
  -21.3655   -5.6802   24.9180 C   0  0  0  0  0  0
  -21.6046   -4.3069   24.7229 C   0  0  0  0  0  0
  -21.8818   -3.8154   23.4352 C   0  0  0  0  0  0
  -21.9185   -4.6979   22.3409 C   0  0  0  0  0  0
  -22.7863  -13.5246   21.1851 C   0  0  0  0  0  0
  -22.1650   -4.2166   21.0989 F   0  0  0  0  0  0
  -21.5637   -3.4543   25.7741 F   0  0  0  0  0  0
  -30.0390  -13.2518   20.4522 N   0  0  0  0  0  0
  -26.3031  -12.9351   20.3377 N   0  0  0  0  0  0
  -25.9323  -11.6509   20.5772 N   0  0  0  0  0  0
  -22.0519  -12.8215   22.0403 N   0  0  0  0  0  0
  -25.4357  -15.1896   20.4080 N   0  0  0  0  0  0
  -31.8079  -14.6491   20.0920 O   0  0  0  0  0  0
  -21.6641   -6.8886   21.4250 O   0  0  0  0  0  0
  -22.3547  -14.5577   20.6743 O   0  0  0  0  0  0
  -24.6124  -31.8684   23.2124 C   0  0  0  0  0  0
  -25.9030  -32.4822   23.8405 C   0  0  1  0  0  0
  -27.2383  -27.4428   20.1105 C   0  0  0  0  0  0
  -25.5906  -33.8627   24.2349 N   0  0  0  0  0  0
  -23.4006  -30.4911   21.5498 C   0  0  2  0  0  0
  -24.8531  -28.9548   20.1194 C   0  0  0  0  0  0
  -22.7387  -29.4670   22.4989 C   0  0  0  0  0  0
  -18.0258  -28.1370   22.8498 C   0  0  0  0  0  0
  -24.1483  -36.7309   23.2635 C   0  0  0  0  0  0
  -25.9280  -30.8335   21.3692 C   0  0  0  0  0  0
  -26.0077  -29.4655   20.7267 C   0  0  0  0  0  0
  -27.2047  -28.7120   20.7337 C   0  0  0  0  0  0
  -26.0770  -26.9503   19.4851 C   0  0  0  0  0  0
  -24.8815  -27.6940   19.4968 C   0  0  0  0  0  0
  -23.6118  -29.8176   20.1662 C   0  0  0  0  0  0
  -25.4106  -36.3114   24.0342 C   0  0  1  0  0  0
  -20.5856  -28.3659   23.1324 C   0  0  2  0  0  0
  -20.6763  -26.9396   22.5429 C   0  0  0  0  0  0
  -19.5749  -26.6370   21.5221 C   0  0  0  0  0  0
  -18.1911  -26.7924   22.1596 C   0  0  0  0  0  0
  -19.1511  -28.8823   23.2912 C   0  0  0  0  0  0
  -18.9444  -30.1433   23.8911 C   0  0  0  0  0  0
  -17.6454  -30.6588   24.0564 C   0  0  0  0  0  0
  -25.9037  -34.9482   23.5143 C   0  0  0  0  0  0
  -16.5338  -29.9091   23.6329 C   0  0  0  0  0  0
  -16.7248  -28.6508   23.0343 C   0  0  0  0  0  0
  -26.4471  -31.6590   25.0717 C   0  0  0  0  0  0
  -25.3752  -31.3725   26.1485 C   0  0  0  0  0  0
  -27.0268  -30.3018   24.6090 C   0  0  0  0  0  0
  -27.6065  -32.4284   25.7458 C   0  0  0  0  0  0
  -27.5591  -37.1805   24.8462 C   0  0  0  0  0  0
  -21.4116  -29.3040   22.3732 N   0  0  0  0  0  0
  -26.4294  -37.3799   23.9416 N   0  0  0  0  0  0
  -24.6640  -31.0788   22.1024 N   0  0  0  0  0  0
  -23.4170  -28.8211   23.3021 O   0  0  0  0  0  0
  -28.3683  -26.6623   20.0555 O   0  0  0  0  0  0
  -26.5586  -34.8932   22.4697 O   0  0  0  0  0  0
  -23.5324  -32.1431   23.7531 O   0  0  0  0  0  0
  -29.3095  -18.1457   20.1592 C   0  0  0  0  0  0
  -28.7262  -22.3517   21.3982 C   0  0  0  0  0  0
  -30.8409  -23.0157   20.2121 C   0  0  0  0  0  0
  -28.2402  -23.8206   21.3452 C   0  0  0  0  0  0
  -30.3762  -24.4855   20.1641 C   0  0  0  0  0  0
  -31.0588  -20.0853   21.2613 C   0  0  0  0  0  0
  -30.7143  -17.6735   20.6390 C   0  0  2  0  0  0
  -29.6572  -22.0152   20.2080 C   0  0  1  0  0  0
  -29.4127  -24.8264   21.3199 C   0  0  1  0  0  0
  -30.1234  -20.5129   20.1063 C   0  0  2  0  0  0
  -27.7934  -19.5376   17.7462 C   0  0  0  0  0  0
  -30.7038  -16.6200   21.7931 C   0  0  0  0  0  0
  -28.9577  -26.3121   21.3082 C   0  0  0  0  0  0
  -27.7942  -19.8380   19.2550 C   0  0  0  0  0  0
  -29.0777  -19.4681   19.8915 N   0  0  0  0  0  0
  -30.1481  -15.3029   21.4480 N   0  0  0  0  0  0
  -31.6534  -18.7737   20.9579 N   0  3  0  0  0  0
  -28.4340  -17.2859   19.9998 O   0  0  0  0  0  0
  -31.4610  -12.3989   19.1004 H   0  0  0  0  0  0
  -30.3214  -11.2741   19.7781 H   0  0  0  0  0  0
  -29.7204  -11.8150   17.4000 H   0  0  0  0  0  0
  -29.6547  -13.5173   17.7840 H   0  0  0  0  0  0
  -27.8074  -11.3244   18.7861 H   0  0  0  0  0  0
  -27.3564  -12.6759   17.7858 H   0  0  0  0  0  0
  -27.7188  -14.2598   19.6042 H   0  0  0  0  0  0
  -28.6664  -11.9069   21.3080 H   0  0  0  0  0  0
  -28.4542  -13.5250   21.8871 H   0  0  0  0  0  0
  -25.2782   -9.5698   22.4757 H   0  0  0  0  0  0
  -24.0025   -7.4632   22.7463 H   0  0  0  0  0  0
  -21.0854   -8.8760   19.8949 H   0  0  0  0  0  0
  -22.3708  -10.9669   19.6154 H   0  0  0  0  0  0
  -21.1974   -7.6160   23.9736 H   0  0  0  0  0  0
  -21.1481   -6.0527   25.9090 H   0  0  0  0  0  0
  -22.0596   -2.7618   23.2835 H   0  0  0  0  0  0
  -22.4125  -11.9850   22.4747 H   0  0  0  0  0  0
  -21.1129  -13.1217   22.2624 H   0  0  0  0  0  0
  -24.6744  -15.8502   20.5184 H   0  0  0  0  0  0
  -26.3013  -15.6315   20.1182 H   0  0  0  0  0  0
  -26.7093  -32.5530   23.1162 H   0  0  0  0  0  0
  -25.0113  -33.9803   25.0535 H   0  0  0  0  0  0
  -22.6896  -31.3081   21.4084 H   0  0  0  0  0  0
  -23.3772  -35.9610   23.3265 H   0  0  0  0  0  0
  -24.3591  -36.8959   22.2054 H   0  0  0  0  0  0
  -23.7197  -37.6492   23.6663 H   0  0  0  0  0  0
  -26.0398  -31.5960   20.5975 H   0  0  0  0  0  0
  -26.8168  -30.8901   21.9859 H   0  0  0  0  0  0
  -28.0961  -29.1053   21.2036 H   0  0  0  0  0  0
  -26.1023  -25.9852   18.9980 H   0  0  0  0  0  0
  -23.9976  -27.2967   19.0155 H   0  0  0  0  0  0
  -23.7140  -30.5886   19.4020 H   0  0  0  0  0  0
  -22.7396  -29.2292   19.8739 H   0  0  0  0  0  0
  -25.1288  -36.1964   25.0837 H   0  0  0  0  0  0
  -20.9941  -28.3219   24.1445 H   0  0  0  0  0  0
  -20.5658  -26.2271   23.3621 H   0  0  0  0  0  0
  -21.6637  -26.7440   22.1214 H   0  0  0  0  0  0
  -19.6919  -25.6282   21.1238 H   0  0  0  0  0  0
  -19.6711  -27.3193   20.6762 H   0  0  0  0  0  0
  -17.4211  -26.6705   21.3969 H   0  0  0  0  0  0
  -18.0278  -26.0041   22.8958 H   0  0  0  0  0  0
  -19.7935  -30.7229   24.2279 H   0  0  0  0  0  0
  -17.5026  -31.6278   24.5146 H   0  0  0  0  0  0
  -15.5345  -30.3004   23.7671 H   0  0  0  0  0  0
  -15.8643  -28.0841   22.7041 H   0  0  0  0  0  0
  -24.5903  -30.7093   25.7843 H   0  0  0  0  0  0
  -24.8969  -32.2896   26.4936 H   0  0  0  0  0  0
  -25.8102  -30.8888   27.0242 H   0  0  0  0  0  0
  -26.2797  -29.6783   24.1169 H   0  0  0  0  0  0
  -27.4061  -29.7243   25.4530 H   0  0  0  0  0  0
  -27.8631  -30.4309   23.9218 H   0  0  0  0  0  0
  -27.2725  -33.3615   26.2006 H   0  0  0  0  0  0
  -28.3899  -32.6785   25.0291 H   0  0  0  0  0  0
  -28.0707  -31.8413   26.5393 H   0  0  0  0  0  0
  -28.2604  -38.0104   24.7518 H   0  0  0  0  0  0
  -28.1095  -36.2649   24.6262 H   0  0  0  0  0  0
  -27.2326  -37.1408   25.8867 H   0  0  0  0  0  0
  -20.9254  -29.8772   21.6978 H   0  0  0  0  0  0
  -26.0188  -38.2881   24.1415 H   0  0  0  0  0  0
  -27.8612  -21.6907   21.4206 H   0  0  0  0  0  0
  -29.2491  -22.1797   22.3395 H   0  0  0  0  0  0
  -31.4496  -22.8909   21.1076 H   0  0  0  0  0  0
  -31.4980  -22.8207   19.3635 H   0  0  0  0  0  0
  -27.6010  -24.0195   22.2069 H   0  0  0  0  0  0
  -27.6134  -23.9676   20.4649 H   0  0  0  0  0  0
  -29.8915  -24.6822   19.2073 H   0  0  0  0  0  0
  -31.2469  -25.1411   20.2042 H   0  0  0  0  0  0
  -30.5205  -20.0437   22.2110 H   0  0  0  0  0  0
  -31.8824  -20.7843   21.3996 H   0  0  0  0  0  0
  -31.1577  -17.1975   19.7660 H   0  0  0  0  0  0
  -29.1196  -22.2436   19.2867 H   0  0  0  0  0  0
  -29.9630  -24.6853   22.2521 H   0  0  0  0  0  0
  -30.7196  -20.4759   19.1932 H   0  0  0  0  0  0
  -26.8283  -19.7878   17.3056 H   0  0  0  0  0  0
  -27.9786  -18.4824   17.5399 H   0  0  0  0  0  0
  -28.5534  -20.1183   17.2229 H   0  0  0  0  0  0
  -30.1438  -17.0116   22.6436 H   0  0  0  0  0  0
  -31.7203  -16.4567   22.1553 H   0  0  0  0  0  0
  -29.8165  -26.9630   21.4780 H   0  0  0  0  0  0
  -28.2722  -26.4846   22.1409 H   0  0  0  0  0  0
  -26.9761  -19.2936   19.7310 H   0  0  0  0  0  0
  -27.5173  -20.8772   19.3966 H   0  0  0  0  0  0
  -29.2499  -15.0538   21.8356 H   0  0  0  0  0  0
  -32.2574  -18.4896   21.7099 H   0  0  0  0  0  0
  -32.2384  -18.8946   20.1467 H   0  0  0  0  0  0
  1 25  1  0  0  0
  1 30  2  0  0  0
  1 86  1  0  0  0
  2  3  1  0  0  0
  2 25  1  0  0  0
  2 89  1  0  0  0
  2 90  1  0  0  0
  3  4  1  0  0  0
  3 91  1  0  0  0
  3 92  1  0  0  0
  4  5  1  0  0  0
  4 93  1  0  0  0
  4 94  1  0  0  0
  5  6  1  0  0  0
  5 26  1  0  0  0
  5 95  1  0  0  0
  6 25  1  0  0  0
  6 96  1  0  0  0
  6 97  1  0  0  0
  7  8  2  0  0  0
  7 26  1  0  0  0
  7 29  1  0  0  0
  8  9  1  0  0  0
  8 22  1  0  0  0
  9 10  1  0  0  0
  9 27  2  0  0  0
 10 11  2  0  0  0
 10 15  1  0  0  0
 11 12  1  0  0  0
 11 98  1  0  0  0
 12 13  2  0  0  0
 12 99  1  0  0  0
 13 14  1  0  0  0
 13 31  1  0  0  0
 14 15  2  0  0  0
 14100  1  0  0  0
 15101  1  0  0  0
 16 17  2  0  0  0
 16 21  1  0  0  0
 16 31  1  0  0  0
 17 18  1  0  0  0
 17102  1  0  0  0
 18 19  2  0  0  0
 18103  1  0  0  0
 19 20  1  0  0  0
 19 24  1  0  0  0
 20 21  2  0  0  0
 20104  1  0  0  0
 21 23  1  0  0  0
 22 28  1  0  0  0
 22 32  2  0  0  0
 26 27  1  0  0  0
 28105  1  0  0  0
 28106  1  0  0  0
 29107  1  0  0  0
 29108  1  0  0  0
 33 34  1  0  0  0
 33 66  1  0  0  0
 33 70  2  0  0  0
 34 36  1  0  0  0
 34 59  1  0  0  0
 34109  1  0  0  0
 35 44  2  0  0  0
 35 45  1  0  0  0
 35 68  1  0  0  0
 36 56  1  0  0  0
 36110  1  0  0  0
 37 39  1  0  0  0
 37 47  1  0  0  0
 37 66  1  0  0  0
 37111  1  0  0  0
 38 43  2  0  0  0
 38 46  1  0  0  0
 38 47  1  0  0  0
 39 64  1  0  0  0
 39 67  2  0  0  0
 40 52  1  0  0  0
 40 53  2  0  0  0
 40 58  1  0  0  0
 41112  1  0  0  0
 41113  1  0  0  0
 41114  1  0  0  0
 41 48  1  0  0  0
 42 43  1  0  0  0
 42 66  1  0  0  0
 42115  1  0  0  0
 42116  1  0  0  0
 43 44  1  0  0  0
 44117  1  0  0  0
 45 46  2  0  0  0
 45118  1  0  0  0
 46119  1  0  0  0
 47120  1  0  0  0
 47121  1  0  0  0
 48 56  1  0  0  0
 48 65  1  0  0  0
 48122  1  0  0  0
 49 50  1  0  0  0
 49 53  1  0  0  0
 49 64  1  0  0  0
 49123  1  0  0  0
 50 51  1  0  0  0
 50124  1  0  0  0
 50125  1  0  0  0
 51 52  1  0  0  0
 51126  1  0  0  0
 51127  1  0  0  0
 52128  1  0  0  0
 52129  1  0  0  0
 53 54  1  0  0  0
 54 55  2  0  0  0
 54130  1  0  0  0
 55 57  1  0  0  0
 55131  1  0  0  0
 56 69  2  0  0  0
 57 58  2  0  0  0
 57132  1  0  0  0
 58133  1  0  0  0
 59 60  1  0  0  0
 59 61  1  0  0  0
 59 62  1  0  0  0
 60134  1  0  0  0
 60135  1  0  0  0
 60136  1  0  0  0
 61137  1  0  0  0
 61138  1  0  0  0
 61139  1  0  0  0
 62140  1  0  0  0
 62141  1  0  0  0
 62142  1  0  0  0
 63 65  1  0  0  0
 63143  1  0  0  0
 63144  1  0  0  0
 63145  1  0  0  0
 64146  1  0  0  0
 65147  1  0  0  0
 68 83  1  0  0  0
 71 77  1  0  0  0
 71 85  1  0  0  0
 71 88  2  0  0  0
 72 74  1  0  0  0
 72148  1  0  0  0
 72149  1  0  0  0
 72 78  1  0  0  0
 73 75  1  0  0  0
 73 78  1  0  0  0
 73150  1  0  0  0
 73151  1  0  0  0
 74 79  1  0  0  0
 74152  1  0  0  0
 74153  1  0  0  0
 75 79  1  0  0  0
 75154  1  0  0  0
 75155  1  0  0  0
 76 87  1  0  0  0
 76156  1  0  0  0
 76157  1  0  0  0
 76 80  1  0  0  0
 77 82  1  0  0  0
 77 87  1  0  0  0
 77158  1  0  0  0
 78 80  1  0  0  0
 78159  1  0  0  0
 79 83  1  0  0  0
 79160  1  0  0  0
 80 85  1  0  0  0
 80161  1  0  0  0
 81 84  1  0  0  0
 81162  1  0  0  0
 81163  1  0  0  0
 81164  1  0  0  0
 82 86  1  0  0  0
 82165  1  0  0  0
 82166  1  0  0  0
 83167  1  0  0  0
 83168  1  0  0  0
 84 85  1  0  0  0
 84169  1  0  0  0
 84170  1  0  0  0
 86171  1  0  0  0
 87172  1  0  0  0
 87173  1  0  0  0
M  CHG  1  87   1
M  ISO  4   1 100  68 101  83 101  86 100
M  END
> <chiral flag>
0

> <version>
0

> <s_m_source_file>
/data/baiqing/PycharmProjects/Reinvent-master-3.2/result/LINK_invent/BTK/process_docking_weight1_custom_sum_contain_oxygen_bond_distance_aromatic_linkinvent_7_9_3/rearranged_h_0117.sdf

> <i_m_source_file_index>
87

> <r_mmod_Potential_Energy-OPLS-2005>
-160.78923034668

> <r_mmod_Stretch_Energy-OPLS-2005>
45.4195098876953

> <r_mmod_Bend_Energy-OPLS-2005>
117.757316589355

> <r_mmod_Torsional_Energy-OPLS-2005>
313.615844726562

> <r_mmod_Improper_Torsional_Energy-OPLS-2005>
2.07477831840515

> <r_mmod_Van_der_Waal_Energy-OPLS-2005>
149.61589050293

> <r_mmod_Electrostatic_Energy-OPLS-2005>
-325.916076660156

> <r_mmod_Solvation_Energy-OPLS-2005>
-471.553649902344

> <b_mmod_Minimization_Converged-OPLS-2005>
0

> <r_mmod_RMS_Derivative-OPLS-2005>
2.23238086700439

$$$$
88
                    3D
 Structure written by MMmdl.
172180  0  0  1  0            999 V2000
  -30.7944  -14.3705   20.6875 C   0  0  0  0  0  0
  -30.4170  -12.3078   19.3905 C   0  0  0  0  0  0
  -29.4847  -12.5490   18.1908 C   0  0  0  0  0  0
  -28.0068  -12.4110   18.5992 C   0  0  0  0  0  0
  -27.6639  -13.2183   19.8790 C   0  0  2  0  0  0
  -28.7075  -12.9712   20.9941 C   0  0  0  0  0  0
  -25.2530  -13.8172   20.5665 C   0  0  0  0  0  0
  -24.1780  -13.0452   20.9166 C   0  0  0  0  0  0
  -24.6353  -11.6913   20.8690 C   0  0  0  0  0  0
  -23.9018  -10.4334   21.0355 C   0  0  0  0  0  0
  -24.3572   -9.4233   21.9140 C   0  0  0  0  0  0
  -23.6270   -8.2264   22.0750 C   0  0  0  0  0  0
  -22.4268   -8.0253   21.3530 C   0  0  0  0  0  0
  -21.9858   -9.0220   20.4661 C   0  0  0  0  0  0
  -22.7170  -10.2114   20.3043 C   0  0  0  0  0  0
  -21.6874   -6.0668   22.5245 C   0  0  0  0  0  0
  -21.4032   -6.5601   23.8176 C   0  0  0  0  0  0
  -21.3660   -5.6744   24.9135 C   0  0  0  0  0  0
  -21.6055   -4.3018   24.7174 C   0  0  0  0  0  0
  -21.8841   -3.8093   23.4313 C   0  0  0  0  0  0
  -21.9201   -4.6908   22.3346 C   0  0  0  0  0  0
  -22.7785  -13.5235   21.1738 C   0  0  0  0  0  0
  -22.1670   -4.2077   21.0923 F   0  0  0  0  0  0
  -21.5630   -3.4505   25.7706 F   0  0  0  0  0  0
  -30.0564  -13.2492   20.4609 N   0  0  0  0  0  0
  -26.3022  -12.9381   20.3369 N   0  0  0  0  0  0
  -25.9307  -11.6525   20.5702 N   0  0  0  0  0  0
  -22.0404  -12.8341   22.0379 N   0  0  0  0  0  0
  -25.4137  -15.1893   20.4058 N   0  0  0  0  0  0
  -31.7602  -14.6943   19.9969 O   0  0  0  0  0  0
  -21.6656   -6.8828   21.4229 O   0  0  0  0  0  0
  -22.3456  -14.5505   20.6530 O   0  0  0  0  0  0
  -24.6161  -31.8649   23.2088 C   0  0  0  0  0  0
  -25.9052  -32.4789   23.8369 C   0  0  1  0  0  0
  -27.2510  -27.4104   20.0917 C   0  0  0  0  0  0
  -25.5898  -33.8595   24.2287 N   0  0  0  0  0  0
  -23.4040  -30.4897   21.5457 C   0  0  2  0  0  0
  -24.8557  -28.9480   20.1153 C   0  0  0  0  0  0
  -22.7380  -29.4666   22.4957 C   0  0  0  0  0  0
  -18.0268  -28.1422   22.8489 C   0  0  0  0  0  0
  -24.1477  -36.7291   23.2634 C   0  0  0  0  0  0
  -25.9359  -30.8208   21.3697 C   0  0  0  0  0  0
  -26.0134  -29.4528   20.7164 C   0  0  0  0  0  0
  -27.2045  -28.6881   20.7067 C   0  0  0  0  0  0
  -26.0602  -26.9194   19.4998 C   0  0  0  0  0  0
  -24.8726  -27.6803   19.5122 C   0  0  0  0  0  0
  -23.6180  -29.8174   20.1616 C   0  0  0  0  0  0
  -25.4099  -36.3088   24.0330 C   0  0  1  0  0  0
  -20.5847  -28.3687   23.1327 C   0  0  2  0  0  0
  -20.6754  -26.9424   22.5444 C   0  0  0  0  0  0
  -19.5753  -26.6403   21.5229 C   0  0  0  0  0  0
  -18.1915  -26.7970   22.1613 C   0  0  0  0  0  0
  -19.1515  -28.8873   23.2906 C   0  0  0  0  0  0
  -18.9452  -30.1474   23.8913 C   0  0  0  0  0  0
  -17.6460  -30.6620   24.0577 C   0  0  0  0  0  0
  -25.9037  -34.9457   23.5100 C   0  0  0  0  0  0
  -16.5346  -29.9125   23.6350 C   0  0  0  0  0  0
  -16.7255  -28.6558   23.0339 C   0  0  0  0  0  0
  -26.4484  -31.6599   25.0707 C   0  0  0  0  0  0
  -25.3742  -31.3744   26.1455 C   0  0  0  0  0  0
  -27.0333  -30.3022   24.6159 C   0  0  0  0  0  0
  -27.6045  -32.4331   25.7468 C   0  0  0  0  0  0
  -27.5585  -37.1770   24.8437 C   0  0  0  0  0  0
  -21.4115  -29.3047   22.3705 N   0  0  0  0  0  0
  -26.4263  -37.3787   23.9437 N   0  0  0  0  0  0
  -24.6688  -31.0722   22.1005 N   0  0  0  0  0  0
  -23.4143  -28.8228   23.3019 O   0  0  0  0  0  0
  -28.4529  -26.7117   20.1227 O   0  0  0  0  0  0
  -26.5599  -34.8926   22.4665 O   0  0  0  0  0  0
  -23.5336  -32.1425   23.7455 O   0  0  0  0  0  0
  -31.5969  -18.4438   23.3670 C   0  0  0  0  0  0
  -33.1214  -18.2670   23.1678 C   0  0  0  0  0  0
  -32.8150  -15.9649   22.3633 C   0  0  0  0  0  0
  -31.2680  -16.0558   22.5442 C   0  0  1  0  0  0
  -30.7317  -17.5242   22.4639 C   0  0  2  0  0  0
  -29.0623  -24.2801   20.3191 C   0  0  0  0  0  0
  -29.4561  -21.6726   20.5972 C   0  0  0  0  0  0
  -29.4020  -19.0405   20.9287 C   0  0  0  0  0  0
  -28.6829  -25.4813   19.3919 C   0  0  0  0  0  0
  -29.3845  -22.9041   19.6177 C   0  0  2  0  0  0
  -29.6693  -20.2494   19.9612 C   0  0  2  0  0  0
  -30.4732  -15.0597   21.7933 N   0  0  0  0  0  0
  -33.5287  -16.8565   23.2948 N   0  3  0  0  0  0
  -30.6252  -22.9784   18.8212 N   0  3  0  0  0  0
  -30.5442  -18.0840   21.0902 N   0  3  0  0  0  0
  -30.9833  -20.1431   19.4114 O   0  0  0  0  0  0
  -31.4557  -12.4221   19.0778 H   0  0  0  0  0  0
  -30.3263  -11.2792   19.7436 H   0  0  0  0  0  0
  -29.7236  -11.8584   17.3825 H   0  0  0  0  0  0
  -29.6625  -13.5497   17.7962 H   0  0  0  0  0  0
  -27.8092  -11.3513   18.7571 H   0  0  0  0  0  0
  -27.3603  -12.7236   17.7771 H   0  0  0  0  0  0
  -27.7150  -14.2746   19.6116 H   0  0  0  0  0  0
  -28.6480  -11.9389   21.3424 H   0  0  0  0  0  0
  -28.4564  -13.5780   21.8611 H   0  0  0  0  0  0
  -25.2691   -9.5747   22.4710 H   0  0  0  0  0  0
  -23.9982   -7.4664   22.7482 H   0  0  0  0  0  0
  -21.0769   -8.8701   19.8986 H   0  0  0  0  0  0
  -22.3557  -10.9630   19.6162 H   0  0  0  0  0  0
  -21.2065   -7.6115   23.9650 H   0  0  0  0  0  0
  -21.1472   -6.0482   25.9032 H   0  0  0  0  0  0
  -22.0641   -2.7565   23.2796 H   0  0  0  0  0  0
  -22.3972  -12.0137   22.5030 H   0  0  0  0  0  0
  -21.0996  -13.1391   22.2423 H   0  0  0  0  0  0
  -24.6362  -15.8332   20.5057 H   0  0  0  0  0  0
  -26.2463  -15.6339   20.0458 H   0  0  0  0  0  0
  -26.7108  -32.5499   23.1110 H   0  0  0  0  0  0
  -25.0044  -33.9748   25.0424 H   0  0  0  0  0  0
  -22.6982  -31.3092   21.3987 H   0  0  0  0  0  0
  -23.3753  -35.9604   23.3257 H   0  0  0  0  0  0
  -24.3590  -36.8957   22.2060 H   0  0  0  0  0  0
  -23.7210  -37.6470   23.6688 H   0  0  0  0  0  0
  -26.0486  -31.5916   20.6043 H   0  0  0  0  0  0
  -26.8218  -30.8742   21.9895 H   0  0  0  0  0  0
  -28.0936  -29.0727   21.1864 H   0  0  0  0  0  0
  -26.0020  -25.9459   19.0391 H   0  0  0  0  0  0
  -23.9761  -27.2813   19.0570 H   0  0  0  0  0  0
  -23.7277  -30.5881   19.3984 H   0  0  0  0  0  0
  -22.7446  -29.2343   19.8654 H   0  0  0  0  0  0
  -25.1273  -36.1908   25.0813 H   0  0  0  0  0  0
  -20.9938  -28.3270   24.1445 H   0  0  0  0  0  0
  -20.5654  -26.2292   23.3628 H   0  0  0  0  0  0
  -21.6631  -26.7476   22.1240 H   0  0  0  0  0  0
  -19.6902  -25.6308   21.1277 H   0  0  0  0  0  0
  -19.6729  -27.3193   20.6752 H   0  0  0  0  0  0
  -17.4198  -26.6735   21.4001 H   0  0  0  0  0  0
  -18.0294  -26.0116   22.9007 H   0  0  0  0  0  0
  -19.7934  -30.7292   24.2264 H   0  0  0  0  0  0
  -17.5032  -31.6312   24.5166 H   0  0  0  0  0  0
  -15.5351  -30.3037   23.7704 H   0  0  0  0  0  0
  -15.8643  -28.0911   22.7012 H   0  0  0  0  0  0
  -24.5914  -30.7079   25.7822 H   0  0  0  0  0  0
  -24.8925  -32.2920   26.4849 H   0  0  0  0  0  0
  -25.8081  -30.8969   27.0245 H   0  0  0  0  0  0
  -26.2918  -29.6747   24.1200 H   0  0  0  0  0  0
  -27.4064  -29.7303   25.4666 H   0  0  0  0  0  0
  -27.8763  -30.4309   23.9359 H   0  0  0  0  0  0
  -27.2651  -33.3627   26.2052 H   0  0  0  0  0  0
  -28.3849  -32.6904   25.0289 H   0  0  0  0  0  0
  -28.0722  -31.8455   26.5377 H   0  0  0  0  0  0
  -28.2517  -38.0151   24.7604 H   0  0  0  0  0  0
  -28.1167  -36.2692   24.6085 H   0  0  0  0  0  0
  -27.2341  -37.1192   25.8843 H   0  0  0  0  0  0
  -20.9250  -29.8739   21.6913 H   0  0  0  0  0  0
  -26.0133  -38.2830   24.1553 H   0  0  0  0  0  0
  -31.3224  -19.4910   23.2384 H   0  0  0  0  0  0
  -31.3744  -18.2109   24.4079 H   0  0  0  0  0  0
  -33.6706  -18.8485   23.9117 H   0  0  0  0  0  0
  -33.4413  -18.6486   22.1975 H   0  0  0  0  0  0
  -33.1165  -16.2498   21.3540 H   0  0  0  0  0  0
  -33.1642  -14.9445   22.5220 H   0  0  0  0  0  0
  -31.0996  -15.7485   23.5780 H   0  0  0  0  0  0
  -29.7400  -17.4865   22.9125 H   0  0  0  0  0  0
  -28.2277  -24.1350   21.0048 H   0  0  0  0  0  0
  -29.9063  -24.5711   20.9462 H   0  0  0  0  0  0
  -28.4969  -21.6430   21.1127 H   0  0  0  0  0  0
  -30.1996  -21.8455   21.3758 H   0  0  0  0  0  0
  -28.5594  -18.4652   20.5375 H   0  0  0  0  0  0
  -29.0777  -19.4179   21.8988 H   0  0  0  0  0  0
  -27.8753  -25.1974   18.7209 H   0  0  0  0  0  0
  -29.5255  -25.6912   18.7296 H   0  0  0  0  0  0
  -28.5689  -22.7009   18.9199 H   0  0  0  0  0  0
  -28.9535  -20.1737   19.1373 H   0  0  0  0  0  0
  -29.6829  -14.6762   22.2948 H   0  0  0  0  0  0
  -33.3926  -16.5361   24.2417 H   0  0  0  0  0  0
  -34.5203  -16.7910   23.1149 H   0  0  0  0  0  0
  -31.3962  -23.3468   19.3487 H   0  0  0  0  0  0
  -30.5056  -23.5240   17.9868 H   0  0  0  0  0  0
  -30.8756  -22.0394   18.5465 H   0  0  0  0  0  0
  -30.3895  -17.3220   20.4501 H   0  0  0  0  0  0
  -31.3774  -18.5683   20.7899 H   0  0  0  0  0  0
  -30.9902  -19.4350   18.7680 H   0  0  0  0  0  0
  1 25  1  0  0  0
  1 30  2  0  0  0
  1 82  1  0  0  0
  2  3  1  0  0  0
  2 25  1  0  0  0
  2 87  1  0  0  0
  2 88  1  0  0  0
  3  4  1  0  0  0
  3 89  1  0  0  0
  3 90  1  0  0  0
  4  5  1  0  0  0
  4 91  1  0  0  0
  4 92  1  0  0  0
  5  6  1  0  0  0
  5 26  1  0  0  0
  5 93  1  0  0  0
  6 25  1  0  0  0
  6 94  1  0  0  0
  6 95  1  0  0  0
  7  8  2  0  0  0
  7 26  1  0  0  0
  7 29  1  0  0  0
  8  9  1  0  0  0
  8 22  1  0  0  0
  9 10  1  0  0  0
  9 27  2  0  0  0
 10 11  2  0  0  0
 10 15  1  0  0  0
 11 12  1  0  0  0
 11 96  1  0  0  0
 12 13  2  0  0  0
 12 97  1  0  0  0
 13 14  1  0  0  0
 13 31  1  0  0  0
 14 15  2  0  0  0
 14 98  1  0  0  0
 15 99  1  0  0  0
 16 17  2  0  0  0
 16 21  1  0  0  0
 16 31  1  0  0  0
 17 18  1  0  0  0
 17100  1  0  0  0
 18 19  2  0  0  0
 18101  1  0  0  0
 19 20  1  0  0  0
 19 24  1  0  0  0
 20 21  2  0  0  0
 20102  1  0  0  0
 21 23  1  0  0  0
 22 28  1  0  0  0
 22 32  2  0  0  0
 26 27  1  0  0  0
 28103  1  0  0  0
 28104  1  0  0  0
 29105  1  0  0  0
 29106  1  0  0  0
 33 34  1  0  0  0
 33 66  1  0  0  0
 33 70  2  0  0  0
 34 36  1  0  0  0
 34 59  1  0  0  0
 34107  1  0  0  0
 35 44  2  0  0  0
 35 45  1  0  0  0
 35 68  1  0  0  0
 36 56  1  0  0  0
 36108  1  0  0  0
 37 39  1  0  0  0
 37 47  1  0  0  0
 37 66  1  0  0  0
 37109  1  0  0  0
 38 43  2  0  0  0
 38 46  1  0  0  0
 38 47  1  0  0  0
 39 64  1  0  0  0
 39 67  2  0  0  0
 40 52  1  0  0  0
 40 53  2  0  0  0
 40 58  1  0  0  0
 41110  1  0  0  0
 41111  1  0  0  0
 41112  1  0  0  0
 41 48  1  0  0  0
 42 43  1  0  0  0
 42 66  1  0  0  0
 42113  1  0  0  0
 42114  1  0  0  0
 43 44  1  0  0  0
 44115  1  0  0  0
 45 46  2  0  0  0
 45116  1  0  0  0
 46117  1  0  0  0
 47118  1  0  0  0
 47119  1  0  0  0
 48 56  1  0  0  0
 48 65  1  0  0  0
 48120  1  0  0  0
 49 50  1  0  0  0
 49 53  1  0  0  0
 49 64  1  0  0  0
 49121  1  0  0  0
 50 51  1  0  0  0
 50122  1  0  0  0
 50123  1  0  0  0
 51 52  1  0  0  0
 51124  1  0  0  0
 51125  1  0  0  0
 52126  1  0  0  0
 52127  1  0  0  0
 53 54  1  0  0  0
 54 55  2  0  0  0
 54128  1  0  0  0
 55 57  1  0  0  0
 55129  1  0  0  0
 56 69  2  0  0  0
 57 58  2  0  0  0
 57130  1  0  0  0
 58131  1  0  0  0
 59 60  1  0  0  0
 59 61  1  0  0  0
 59 62  1  0  0  0
 60132  1  0  0  0
 60133  1  0  0  0
 60134  1  0  0  0
 61135  1  0  0  0
 61136  1  0  0  0
 61137  1  0  0  0
 62138  1  0  0  0
 62139  1  0  0  0
 62140  1  0  0  0
 63 65  1  0  0  0
 63141  1  0  0  0
 63142  1  0  0  0
 63143  1  0  0  0
 64144  1  0  0  0
 65145  1  0  0  0
 68 79  1  0  0  0
 71 72  1  0  0  0
 71 75  1  0  0  0
 71146  1  0  0  0
 71147  1  0  0  0
 72 83  1  0  0  0
 72148  1  0  0  0
 72149  1  0  0  0
 73 74  1  0  0  0
 73 83  1  0  0  0
 73150  1  0  0  0
 73151  1  0  0  0
 74 75  1  0  0  0
 74 82  1  0  0  0
 74152  1  0  0  0
 75 85  1  0  0  0
 75153  1  0  0  0
 76 79  1  0  0  0
 76 80  1  0  0  0
 76154  1  0  0  0
 76155  1  0  0  0
 77 80  1  0  0  0
 77 81  1  0  0  0
 77156  1  0  0  0
 77157  1  0  0  0
 78 81  1  0  0  0
 78 85  1  0  0  0
 78158  1  0  0  0
 78159  1  0  0  0
 79160  1  0  0  0
 79161  1  0  0  0
 80 84  1  0  0  0
 80162  1  0  0  0
 81 86  1  0  0  0
 81163  1  0  0  0
 82164  1  0  0  0
 83165  1  0  0  0
 83166  1  0  0  0
 84167  1  0  0  0
 84168  1  0  0  0
 84169  1  0  0  0
 85170  1  0  0  0
 85171  1  0  0  0
 86172  1  0  0  0
M  CHG  3  83   1  84   1  85   1
M  ISO  4   1 100  68 101  79 101  82 100
M  END
> <chiral flag>
0

> <version>
0

> <s_m_source_file>
/data/baiqing/PycharmProjects/Reinvent-master-3.2/result/LINK_invent/BTK/process_docking_weight1_custom_sum_contain_oxygen_bond_distance_aromatic_linkinvent_7_9_3/rearranged_h_0117.sdf

> <i_m_source_file_index>
88

> <r_mmod_Potential_Energy-OPLS-2005>
-656.704528808594

> <r_mmod_Stretch_Energy-OPLS-2005>
52.5001754760742

> <r_mmod_Bend_Energy-OPLS-2005>
137.717254638672

> <r_mmod_Torsional_Energy-OPLS-2005>
328.667419433594

> <r_mmod_Improper_Torsional_Energy-OPLS-2005>
3.41235947608948

> <r_mmod_Van_der_Waal_Energy-OPLS-2005>
142.135208129883

> <r_mmod_Electrostatic_Energy-OPLS-2005>
376.601196289062

> <r_mmod_Solvation_Energy-OPLS-2005>
-1709.22729492188

> <b_mmod_Minimization_Converged-OPLS-2005>
0

> <r_mmod_RMS_Derivative-OPLS-2005>
5.66403579711914

$$$$
89
                    3D
 Structure written by MMmdl.
156164  0  0  1  0            999 V2000
  -30.4814  -15.1380   20.3802 C   0  0  0  0  0  0
  -30.4351  -12.7129   19.5287 C   0  0  0  0  0  0
  -29.5303  -12.5587   18.2820 C   0  0  0  0  0  0
  -28.0710  -12.3093   18.7006 C   0  0  0  0  0  0
  -27.6180  -13.2668   19.8322 C   0  0  2  0  0  0
  -28.6526  -13.3850   20.9724 C   0  0  0  0  0  0
  -25.2405  -13.8242   20.5731 C   0  0  0  0  0  0
  -24.1749  -13.0439   20.9247 C   0  0  0  0  0  0
  -24.6394  -11.6933   20.8763 C   0  0  0  0  0  0
  -23.9090  -10.4294   21.0411 C   0  0  0  0  0  0
  -24.3637   -9.4206   21.9186 C   0  0  0  0  0  0
  -23.6306   -8.2243   22.0754 C   0  0  0  0  0  0
  -22.4287   -8.0283   21.3545 C   0  0  0  0  0  0
  -21.9928   -9.0259   20.4646 C   0  0  0  0  0  0
  -22.7263  -10.2135   20.3057 C   0  0  0  0  0  0
  -21.6856   -6.0741   22.5280 C   0  0  0  0  0  0
  -21.4016   -6.5644   23.8214 C   0  0  0  0  0  0
  -21.3658   -5.6795   24.9175 C   0  0  0  0  0  0
  -21.6043   -4.3058   24.7225 C   0  0  0  0  0  0
  -21.8819   -3.8151   23.4345 C   0  0  0  0  0  0
  -21.9193   -4.6968   22.3402 C   0  0  0  0  0  0
  -22.7767  -13.5195   21.1897 C   0  0  0  0  0  0
  -22.1662   -4.2155   21.0980 F   0  0  0  0  0  0
  -21.5627   -3.4540   25.7737 F   0  0  0  0  0  0
  -29.9072  -13.8475   20.3628 N   0  0  0  0  0  0
  -26.2834  -12.9505   20.3237 N   0  0  0  0  0  0
  -25.9330  -11.6619   20.5738 N   0  0  0  0  0  0
  -22.0430  -12.8172   22.0452 N   0  0  0  0  0  0
  -25.4043  -15.1975   20.4149 N   0  0  0  0  0  0
  -31.6871  -15.1515   20.1023 O   0  0  0  0  0  0
  -21.6644   -6.8885   21.4243 O   0  0  0  0  0  0
  -22.3447  -14.5499   20.6743 O   0  0  0  0  0  0
  -24.6534  -31.8307   23.1752 C   0  0  0  0  0  0
  -25.9255  -32.4621   23.8190 C   0  0  1  0  0  0
  -27.2198  -27.0121   20.1761 C   0  0  0  0  0  0
  -25.5960  -33.8435   24.2106 N   0  0  0  0  0  0
  -23.4637  -30.4435   21.5218 C   0  0  2  0  0  0
  -24.9157  -28.8422   20.1079 C   0  0  0  0  0  0
  -22.7617  -29.4475   22.4799 C   0  0  0  0  0  0
  -18.0314  -28.1407   22.8469 C   0  0  0  0  0  0
  -24.1493  -36.7219   23.2647 C   0  0  0  0  0  0
  -26.0256  -30.6652   21.3909 C   0  0  0  0  0  0
  -26.0942  -29.2626   20.7362 C   0  0  0  0  0  0
  -27.2407  -28.3653   20.7481 C   0  0  0  0  0  0
  -26.0148  -26.7164   19.5035 C   0  0  0  0  0  0
  -24.8959  -27.5880   19.4734 C   0  0  0  0  0  0
  -23.6977  -29.7603   20.1457 C   0  0  0  0  0  0
  -25.4130  -36.2985   24.0306 C   0  0  1  0  0  0
  -20.5931  -28.3740   23.1210 C   0  0  2  0  0  0
  -20.6792  -26.9431   22.5406 C   0  0  0  0  0  0
  -19.5769  -26.6380   21.5214 C   0  0  0  0  0  0
  -18.1949  -26.7941   22.1620 C   0  0  0  0  0  0
  -19.1573  -28.8893   23.2830 C   0  0  0  0  0  0
  -18.9489  -30.1485   23.8861 C   0  0  0  0  0  0
  -17.6485  -30.6599   24.0560 C   0  0  0  0  0  0
  -25.9088  -34.9367   23.5022 C   0  0  0  0  0  0
  -16.5374  -29.9089   23.6344 C   0  0  0  0  0  0
  -16.7298  -28.6510   23.0359 C   0  0  0  0  0  0
  -26.4541  -31.6539   25.0686 C   0  0  0  0  0  0
  -25.3697  -31.3759   26.1361 C   0  0  0  0  0  0
  -27.0429  -30.2922   24.6354 C   0  0  0  0  0  0
  -27.6048  -32.4335   25.7480 C   0  0  0  0  0  0
  -27.5569  -37.1765   24.8469 C   0  0  0  0  0  0
  -21.4295  -29.3042   22.3561 N   0  0  0  0  0  0
  -26.4280  -37.3714   23.9410 N   0  0  0  0  0  0
  -24.7348  -31.0050   22.0839 N   0  0  0  0  0  0
  -23.4206  -28.8043   23.3009 O   0  0  0  0  0  0
  -28.2652  -25.9851   20.2839 O   0  0  0  0  0  0
  -26.5694  -34.8892   22.4614 O   0  0  0  0  0  0
  -23.5626  -32.1239   23.6901 O   0  0  0  0  0  0
  -27.4386  -23.2510   20.7479 C   0  0  0  0  0  0
  -29.6318  -23.5605   19.8846 C   0  0  0  0  0  0
  -27.5326  -21.6569   20.2767 C   0  0  0  0  0  0
  -29.8675  -22.0205   20.4848 C   0  0  0  0  0  0
  -28.2387  -24.3982   19.9647 C   0  0  2  0  0  0
  -31.3856  -18.3472   20.3154 C   0  0  0  0  0  0
  -28.9733  -19.3541   20.6944 C   0  0  0  0  0  0
  -29.9058  -17.9765   20.1275 C   0  0  2  0  0  0
  -29.7163  -16.3814   20.5040 N   0  0  0  0  0  0
  -28.8780  -20.9058   20.1350 N   0  3  1  0  0  0
  -31.4646  -12.8843   19.2114 H   0  0  0  0  0  0
  -30.4590  -11.7875   20.1064 H   0  0  0  0  0  0
  -29.8856  -11.7432   17.6507 H   0  0  0  0  0  0
  -29.5870  -13.4645   17.6761 H   0  0  0  0  0  0
  -28.0000  -11.2766   19.0443 H   0  0  0  0  0  0
  -27.4062  -12.3912   17.8398 H   0  0  0  0  0  0
  -27.5529  -14.2488   19.3621 H   0  0  0  0  0  0
  -28.7827  -12.4353   21.4933 H   0  0  0  0  0  0
  -28.3152  -14.1055   21.7192 H   0  0  0  0  0  0
  -25.2780   -9.5679   22.4765 H   0  0  0  0  0  0
  -24.0013   -7.4632   22.7473 H   0  0  0  0  0  0
  -21.0859   -8.8782   19.8950 H   0  0  0  0  0  0
  -22.3724  -10.9676   19.6167 H   0  0  0  0  0  0
  -21.2010   -7.6152   23.9719 H   0  0  0  0  0  0
  -21.1479   -6.0525   25.9078 H   0  0  0  0  0  0
  -22.0598   -2.7613   23.2844 H   0  0  0  0  0  0
  -22.4067  -11.9836   22.4830 H   0  0  0  0  0  0
  -21.1041  -13.1173   22.2667 H   0  0  0  0  0  0
  -24.6285  -15.8433   20.5142 H   0  0  0  0  0  0
  -26.2389  -15.6359   20.0490 H   0  0  0  0  0  0
  -26.7318  -32.5188   23.0905 H   0  0  0  0  0  0
  -25.0079  -33.9528   25.0237 H   0  0  0  0  0  0
  -22.7726  -31.2726   21.3554 H   0  0  0  0  0  0
  -23.3765  -35.9541   23.3287 H   0  0  0  0  0  0
  -24.3573  -36.8881   22.2066 H   0  0  0  0  0  0
  -23.7242  -37.6399   23.6713 H   0  0  0  0  0  0
  -26.1938  -31.4106   20.6123 H   0  0  0  0  0  0
  -26.8904  -30.7206   22.0400 H   0  0  0  0  0  0
  -28.1342  -28.6817   21.2679 H   0  0  0  0  0  0
  -25.9076  -25.7525   19.0281 H   0  0  0  0  0  0
  -23.9967  -27.2605   18.9699 H   0  0  0  0  0  0
  -23.8448  -30.5293   19.3864 H   0  0  0  0  0  0
  -22.8100  -29.2082   19.8326 H   0  0  0  0  0  0
  -25.1325  -36.1786   25.0797 H   0  0  0  0  0  0
  -21.0026  -28.3344   24.1330 H   0  0  0  0  0  0
  -20.5678  -26.2357   23.3637 H   0  0  0  0  0  0
  -21.6657  -26.7419   22.1210 H   0  0  0  0  0  0
  -19.6932  -25.6281   21.1266 H   0  0  0  0  0  0
  -19.6711  -27.3172   20.6730 H   0  0  0  0  0  0
  -17.4219  -26.6689   21.4022 H   0  0  0  0  0  0
  -18.0345  -26.0093   22.9025 H   0  0  0  0  0  0
  -19.7967  -30.7311   24.2212 H   0  0  0  0  0  0
  -17.5039  -31.6275   24.5168 H   0  0  0  0  0  0
  -15.5375  -30.2981   23.7690 H   0  0  0  0  0  0
  -15.8696  -28.0819   22.7092 H   0  0  0  0  0  0
  -24.5901  -30.7079   25.7675 H   0  0  0  0  0  0
  -24.8859  -32.2950   26.4682 H   0  0  0  0  0  0
  -25.7955  -30.9002   27.0205 H   0  0  0  0  0  0
  -26.3072  -29.6609   24.1357 H   0  0  0  0  0  0
  -27.3997  -29.7263   25.4970 H   0  0  0  0  0  0
  -27.8995  -30.4127   23.9719 H   0  0  0  0  0  0
  -27.2630  -33.3681   26.1941 H   0  0  0  0  0  0
  -28.3916  -32.6823   25.0345 H   0  0  0  0  0  0
  -28.0653  -31.8538   26.5490 H   0  0  0  0  0  0
  -28.2569  -38.0075   24.7511 H   0  0  0  0  0  0
  -28.1078  -36.2600   24.6299 H   0  0  0  0  0  0
  -27.2284  -37.1408   25.8871 H   0  0  0  0  0  0
  -20.9529  -29.8737   21.6708 H   0  0  0  0  0  0
  -26.0130  -38.2773   24.1425 H   0  0  0  0  0  0
  -27.7236  -23.3063   21.7992 H   0  0  0  0  0  0
  -26.3846  -23.5291   20.7399 H   0  0  0  0  0  0
  -29.9272  -23.5437   18.8352 H   0  0  0  0  0  0
  -30.3906  -24.1844   20.3572 H   0  0  0  0  0  0
  -27.0290  -21.5608   19.3147 H   0  0  0  0  0  0
  -26.9153  -21.0860   20.9708 H   0  0  0  0  0  0
  -29.9036  -22.0835   21.5734 H   0  0  0  0  0  0
  -30.8617  -21.6857   20.1904 H   0  0  0  0  0  0
  -27.8294  -24.3716   18.9542 H   0  0  0  0  0  0
  -31.5846  -19.3615   19.9698 H   0  0  0  0  0  0
  -32.0449  -17.6920   19.7470 H   0  0  0  0  0  0
  -31.6777  -18.2935   21.3645 H   0  0  0  0  0  0
  -29.1527  -19.4427   21.7661 H   0  0  0  0  0  0
  -27.9439  -19.0016   20.6316 H   0  0  0  0  0  0
  -29.7306  -17.9747   19.0511 H   0  0  0  0  0  0
  -28.7636  -16.1768   20.7696 H   0  0  0  0  0  0
  -28.9780  -20.7875   19.1376 H   0  0  0  0  0  0
  1 25  1  0  0  0
  1 30  2  0  0  0
  1 79  1  0  0  0
  2  3  1  0  0  0
  2 25  1  0  0  0
  2 81  1  0  0  0
  2 82  1  0  0  0
  3  4  1  0  0  0
  3 83  1  0  0  0
  3 84  1  0  0  0
  4  5  1  0  0  0
  4 85  1  0  0  0
  4 86  1  0  0  0
  5  6  1  0  0  0
  5 26  1  0  0  0
  5 87  1  0  0  0
  6 25  1  0  0  0
  6 88  1  0  0  0
  6 89  1  0  0  0
  7  8  2  0  0  0
  7 26  1  0  0  0
  7 29  1  0  0  0
  8  9  1  0  0  0
  8 22  1  0  0  0
  9 10  1  0  0  0
  9 27  2  0  0  0
 10 11  2  0  0  0
 10 15  1  0  0  0
 11 12  1  0  0  0
 11 90  1  0  0  0
 12 13  2  0  0  0
 12 91  1  0  0  0
 13 14  1  0  0  0
 13 31  1  0  0  0
 14 15  2  0  0  0
 14 92  1  0  0  0
 15 93  1  0  0  0
 16 17  2  0  0  0
 16 21  1  0  0  0
 16 31  1  0  0  0
 17 18  1  0  0  0
 17 94  1  0  0  0
 18 19  2  0  0  0
 18 95  1  0  0  0
 19 20  1  0  0  0
 19 24  1  0  0  0
 20 21  2  0  0  0
 20 96  1  0  0  0
 21 23  1  0  0  0
 22 28  1  0  0  0
 22 32  2  0  0  0
 26 27  1  0  0  0
 28 97  1  0  0  0
 28 98  1  0  0  0
 29 99  1  0  0  0
 29100  1  0  0  0
 33 34  1  0  0  0
 33 66  1  0  0  0
 33 70  2  0  0  0
 34 36  1  0  0  0
 34 59  1  0  0  0
 34101  1  0  0  0
 35 44  2  0  0  0
 35 45  1  0  0  0
 35 68  1  0  0  0
 36 56  1  0  0  0
 36102  1  0  0  0
 37 39  1  0  0  0
 37 47  1  0  0  0
 37 66  1  0  0  0
 37103  1  0  0  0
 38 43  2  0  0  0
 38 46  1  0  0  0
 38 47  1  0  0  0
 39 64  1  0  0  0
 39 67  2  0  0  0
 40 52  1  0  0  0
 40 53  2  0  0  0
 40 58  1  0  0  0
 41104  1  0  0  0
 41105  1  0  0  0
 41106  1  0  0  0
 41 48  1  0  0  0
 42 43  1  0  0  0
 42 66  1  0  0  0
 42107  1  0  0  0
 42108  1  0  0  0
 43 44  1  0  0  0
 44109  1  0  0  0
 45 46  2  0  0  0
 45110  1  0  0  0
 46111  1  0  0  0
 47112  1  0  0  0
 47113  1  0  0  0
 48 56  1  0  0  0
 48 65  1  0  0  0
 48114  1  0  0  0
 49 50  1  0  0  0
 49 53  1  0  0  0
 49 64  1  0  0  0
 49115  1  0  0  0
 50 51  1  0  0  0
 50116  1  0  0  0
 50117  1  0  0  0
 51 52  1  0  0  0
 51118  1  0  0  0
 51119  1  0  0  0
 52120  1  0  0  0
 52121  1  0  0  0
 53 54  1  0  0  0
 54 55  2  0  0  0
 54122  1  0  0  0
 55 57  1  0  0  0
 55123  1  0  0  0
 56 69  2  0  0  0
 57 58  2  0  0  0
 57124  1  0  0  0
 58125  1  0  0  0
 59 60  1  0  0  0
 59 61  1  0  0  0
 59 62  1  0  0  0
 60126  1  0  0  0
 60127  1  0  0  0
 60128  1  0  0  0
 61129  1  0  0  0
 61130  1  0  0  0
 61131  1  0  0  0
 62132  1  0  0  0
 62133  1  0  0  0
 62134  1  0  0  0
 63 65  1  0  0  0
 63135  1  0  0  0
 63136  1  0  0  0
 63137  1  0  0  0
 64138  1  0  0  0
 65139  1  0  0  0
 68 75  1  0  0  0
 71 73  1  0  0  0
 71 75  1  0  0  0
 71140  1  0  0  0
 71141  1  0  0  0
 72 74  1  0  0  0
 72 75  1  0  0  0
 72142  1  0  0  0
 72143  1  0  0  0
 73 80  1  0  0  0
 73144  1  0  0  0
 73145  1  0  0  0
 74 80  1  0  0  0
 74146  1  0  0  0
 74147  1  0  0  0
 75148  1  0  0  0
 76149  1  0  0  0
 76150  1  0  0  0
 76151  1  0  0  0
 76 78  1  0  0  0
 77 78  1  0  0  0
 77152  1  0  0  0
 77153  1  0  0  0
 77 80  1  0  0  0
 78 79  1  0  0  0
 78154  1  0  0  0
 79155  1  0  0  0
 80156  1  0  0  0
M  CHG  1  80   1
M  ISO  4   1 100  68 101  75 101  79 100
M  END
> <chiral flag>
0

> <version>
0

> <s_m_source_file>
/data/baiqing/PycharmProjects/Reinvent-master-3.2/result/LINK_invent/BTK/process_docking_weight1_custom_sum_contain_oxygen_bond_distance_aromatic_linkinvent_7_9_3/rearranged_h_0117.sdf

> <i_m_source_file_index>
89

> <r_mmod_Potential_Energy-OPLS-2005>
819.302062988281

> <r_mmod_Stretch_Energy-OPLS-2005>
420.392456054688

> <r_mmod_Bend_Energy-OPLS-2005>
413.114166259766

> <r_mmod_Torsional_Energy-OPLS-2005>
263.519073486328

> <r_mmod_Improper_Torsional_Energy-OPLS-2005>
4.57047462463379

> <r_mmod_Van_der_Waal_Energy-OPLS-2005>
116.184181213379

> <r_mmod_Electrostatic_Energy-OPLS-2005>
-256.755065917969

> <r_mmod_Solvation_Energy-OPLS-2005>
-474.304382324219

> <b_mmod_Minimization_Converged-OPLS-2005>
0

> <r_mmod_RMS_Derivative-OPLS-2005>
0.480637907981873

$$$$
90
                    3D
 Structure written by MMmdl.
183192  0  0  1  0            999 V2000
  -30.6917  -14.5681   20.5075 C   0  0  0  0  0  0
  -30.4206  -12.3548   19.4313 C   0  0  0  0  0  0
  -29.4907  -12.4888   18.2094 C   0  0  0  0  0  0
  -28.0169  -12.3267   18.6308 C   0  0  0  0  0  0
  -27.6443  -13.1970   19.8589 C   0  0  2  0  0  0
  -28.6974  -13.0790   20.9828 C   0  0  0  0  0  0
  -25.2554  -13.8109   20.5709 C   0  0  0  0  0  0
  -24.1809  -13.0398   20.9205 C   0  0  0  0  0  0
  -24.6358  -11.6871   20.8760 C   0  0  0  0  0  0
  -23.9032  -10.4273   21.0426 C   0  0  0  0  0  0
  -24.3598   -9.4199   21.9200 C   0  0  0  0  0  0
  -23.6283   -8.2231   22.0763 C   0  0  0  0  0  0
  -22.4265   -8.0270   21.3548 C   0  0  0  0  0  0
  -21.9902   -9.0244   20.4647 C   0  0  0  0  0  0
  -22.7221  -10.2126   20.3064 C   0  0  0  0  0  0
  -21.6847   -6.0733   22.5282 C   0  0  0  0  0  0
  -21.4011   -6.5638   23.8215 C   0  0  0  0  0  0
  -21.3655   -5.6791   24.9176 C   0  0  0  0  0  0
  -21.6045   -4.3052   24.7233 C   0  0  0  0  0  0
  -21.8823   -3.8148   23.4348 C   0  0  0  0  0  0
  -21.9196   -4.6963   22.3401 C   0  0  0  0  0  0
  -22.7842  -13.5223   21.1858 C   0  0  0  0  0  0
  -22.1668   -4.2147   21.0979 F   0  0  0  0  0  0
  -21.5625   -3.4534   25.7745 F   0  0  0  0  0  0
  -30.0147  -13.3855   20.4025 N   0  0  0  0  0  0
  -26.2946  -12.9240   20.3358 N   0  0  0  0  0  0
  -25.9277  -11.6418   20.5797 N   0  0  0  0  0  0
  -22.0473  -12.8222   22.0398 N   0  0  0  0  0  0
  -25.4290  -15.1830   20.4127 N   0  0  0  0  0  0
  -31.8691  -14.6780   20.1553 O   0  0  0  0  0  0
  -21.6629   -6.8871   21.4240 O   0  0  0  0  0  0
  -22.3549  -14.5548   20.6720 O   0  0  0  0  0  0
  -24.6210  -31.8642   23.2085 C   0  0  0  0  0  0
  -25.9081  -32.4808   23.8399 C   0  0  1  0  0  0
  -27.2241  -27.3779   20.1086 C   0  0  0  0  0  0
  -25.5913  -33.8606   24.2317 N   0  0  0  0  0  0
  -23.4112  -30.4883   21.5522 C   0  0  2  0  0  0
  -24.8563  -28.9514   20.1154 C   0  0  0  0  0  0
  -22.7444  -29.4628   22.4989 C   0  0  0  0  0  0
  -18.0271  -28.1364   22.8493 C   0  0  0  0  0  0
  -24.1488  -36.7302   23.2646 C   0  0  0  0  0  0
  -25.9472  -30.8146   21.3692 C   0  0  0  0  0  0
  -26.0236  -29.4467   20.7115 C   0  0  0  0  0  0
  -27.2142  -28.6725   20.6956 C   0  0  0  0  0  0
  -26.0372  -26.9166   19.5004 C   0  0  0  0  0  0
  -24.8606  -27.6876   19.5045 C   0  0  0  0  0  0
  -23.6225  -29.8257   20.1660 C   0  0  0  0  0  0
  -25.4112  -36.3102   24.0341 C   0  0  1  0  0  0
  -20.5869  -28.3656   23.1298 C   0  0  2  0  0  0
  -20.6759  -26.9388   22.5406 C   0  0  0  0  0  0
  -19.5737  -26.6369   21.5206 C   0  0  0  0  0  0
  -18.1912  -26.7914   22.1614 C   0  0  0  0  0  0
  -19.1529  -28.8830   23.2888 C   0  0  0  0  0  0
  -18.9462  -30.1433   23.8901 C   0  0  0  0  0  0
  -17.6464  -30.6576   24.0557 C   0  0  0  0  0  0
  -25.9046  -34.9469   23.5130 C   0  0  0  0  0  0
  -16.5356  -29.9077   23.6341 C   0  0  0  0  0  0
  -16.7264  -28.6487   23.0374 C   0  0  0  0  0  0
  -26.4484  -31.6606   25.0750 C   0  0  0  0  0  0
  -25.3733  -31.3704   26.1485 C   0  0  0  0  0  0
  -27.0355  -30.3060   24.6163 C   0  0  0  0  0  0
  -27.6064  -32.4339   25.7509 C   0  0  0  0  0  0
  -27.5583  -37.1805   24.8471 C   0  0  0  0  0  0
  -21.4172  -29.3018   22.3714 N   0  0  0  0  0  0
  -26.4293  -37.3795   23.9421 N   0  0  0  0  0  0
  -24.6788  -31.0709   22.1009 N   0  0  0  0  0  0
  -23.4191  -28.8159   23.3038 O   0  0  0  0  0  0
  -28.3572  -26.5723   20.1229 O   0  0  0  0  0  0
  -26.5615  -34.8918   22.4693 O   0  0  0  0  0  0
  -23.5392  -32.1424   23.7435 O   0  0  0  0  0  0
  -32.1734  -19.9104   19.3609 C   0  0  0  0  0  0
  -32.6708  -21.2454   19.2497 C   0  0  0  0  0  0
  -31.0263  -19.9452   20.1392 C   0  0  0  0  0  0
  -31.8712  -22.0516   20.0026 C   0  0  0  0  0  0
  -29.6577  -17.7958   19.5094 C   0  0  0  0  0  0
  -31.0594  -17.8409   21.6264 C   0  0  0  0  0  0
  -29.0999  -16.4226   19.9856 C   0  0  0  0  0  0
  -30.3844  -16.5060   22.0439 C   0  0  0  0  0  0
  -30.2360  -18.7069   20.6287 C   0  0  0  0  0  0
  -33.8987  -21.7279   18.5037 C   0  0  0  0  0  0
  -32.1327  -23.4960   20.3510 C   0  0  0  0  0  0
  -34.3099  -18.5027   19.1631 C   0  0  0  0  0  0
  -32.6361  -18.6176   17.2194 C   0  0  0  0  0  0
  -29.0163  -21.2100   22.3163 C   0  0  0  0  0  0
  -28.5351  -22.5710   20.1778 C   0  0  0  0  0  0
  -28.1803  -25.1978   20.5909 C   0  0  0  0  0  0
  -32.8408  -18.6777   18.7426 C   0  0  0  0  0  0
  -29.6342  -22.0059   21.1524 C   0  0  2  0  0  0
  -28.5996  -24.0448   19.6074 C   0  0  2  0  0  0
  -30.7742  -21.3178   20.4603 N   0  0  0  0  0  0
  -29.9843  -15.6700   20.9013 N   0  0  0  0  0  0
  -27.6689  -24.0553   18.5358 O   0  0  0  0  0  0
  -31.4622  -12.4576   19.1225 H   0  0  0  0  0  0
  -30.3346  -11.3618   19.8745 H   0  0  0  0  0  0
  -29.7463  -11.7434   17.4553 H   0  0  0  0  0  0
  -29.6354  -13.4618   17.7376 H   0  0  0  0  0  0
  -27.8536  -11.2738   18.8630 H   0  0  0  0  0  0
  -27.3585  -12.5580   17.7926 H   0  0  0  0  0  0
  -27.6342  -14.2191   19.5022 H   0  0  0  0  0  0
  -28.6979  -12.0724   21.4034 H   0  0  0  0  0  0
  -28.4552  -13.7515   21.8078 H   0  0  0  0  0  0
  -25.2737   -9.5677   22.4776 H   0  0  0  0  0  0
  -23.9992   -7.4622   22.7485 H   0  0  0  0  0  0
  -21.0834   -8.8763   19.8947 H   0  0  0  0  0  0
  -22.3684  -10.9673   19.6176 H   0  0  0  0  0  0
  -21.2000   -7.6147   23.9718 H   0  0  0  0  0  0
  -21.1470   -6.0520   25.9080 H   0  0  0  0  0  0
  -22.0605   -2.7609   23.2856 H   0  0  0  0  0  0
  -22.4070  -11.9858   22.4761 H   0  0  0  0  0  0
  -21.1104  -13.1274   22.2620 H   0  0  0  0  0  0
  -24.6660  -15.8420   20.5237 H   0  0  0  0  0  0
  -26.2870  -15.6200   20.1031 H   0  0  0  0  0  0
  -26.7151  -32.5498   23.1158 H   0  0  0  0  0  0
  -25.0085  -33.9771   25.0477 H   0  0  0  0  0  0
  -22.7025  -31.3069   21.4132 H   0  0  0  0  0  0
  -23.3760  -35.9624   23.3314 H   0  0  0  0  0  0
  -24.3581  -36.8928   22.2061 H   0  0  0  0  0  0
  -23.7220  -37.6493   23.6672 H   0  0  0  0  0  0
  -26.0694  -31.5800   20.6014 H   0  0  0  0  0  0
  -26.8309  -30.8653   21.9938 H   0  0  0  0  0  0
  -28.1137  -29.0497   21.1620 H   0  0  0  0  0  0
  -26.0075  -25.9503   19.0224 H   0  0  0  0  0  0
  -23.9637  -27.2987   19.0423 H   0  0  0  0  0  0
  -23.7372  -30.6050   19.4117 H   0  0  0  0  0  0
  -22.7434  -29.2536   19.8651 H   0  0  0  0  0  0
  -25.1282  -36.1975   25.0833 H   0  0  0  0  0  0
  -20.9953  -28.3215   24.1422 H   0  0  0  0  0  0
  -20.5648  -26.2267   23.3595 H   0  0  0  0  0  0
  -21.6632  -26.7396   22.1217 H   0  0  0  0  0  0
  -19.6900  -25.6279   21.1242 H   0  0  0  0  0  0
  -19.6686  -27.3180   20.6736 H   0  0  0  0  0  0
  -17.4184  -26.6677   21.4007 H   0  0  0  0  0  0
  -18.0295  -26.0033   22.8983 H   0  0  0  0  0  0
  -19.7939  -30.7239   24.2283 H   0  0  0  0  0  0
  -17.5027  -31.6268   24.5138 H   0  0  0  0  0  0
  -15.5360  -30.2983   23.7661 H   0  0  0  0  0  0
  -15.8660  -28.0803   22.7112 H   0  0  0  0  0  0
  -24.5924  -30.7033   25.7810 H   0  0  0  0  0  0
  -24.8884  -32.2844   26.4931 H   0  0  0  0  0  0
  -25.8067  -30.8878   27.0254 H   0  0  0  0  0  0
  -26.2925  -29.6782   24.1228 H   0  0  0  0  0  0
  -27.4150  -29.7339   25.4637 H   0  0  0  0  0  0
  -27.8739  -30.4408   23.9325 H   0  0  0  0  0  0
  -27.2717  -33.3669   26.2061 H   0  0  0  0  0  0
  -28.3878  -32.6850   25.0323 H   0  0  0  0  0  0
  -28.0724  -31.8472   26.5439 H   0  0  0  0  0  0
  -28.2594  -38.0108   24.7542 H   0  0  0  0  0  0
  -28.1085  -36.2642   24.6277 H   0  0  0  0  0  0
  -27.2310  -37.1443   25.8875 H   0  0  0  0  0  0
  -20.9347  -29.8764   21.6950 H   0  0  0  0  0  0
  -26.0185  -38.2874   24.1418 H   0  0  0  0  0  0
  -28.8679  -18.3415   18.9922 H   0  0  0  0  0  0
  -30.3837  -17.5854   18.7341 H   0  0  0  0  0  0
  -32.0400  -17.6031   21.2220 H   0  0  0  0  0  0
  -31.2611  -18.4314   22.5211 H   0  0  0  0  0  0
  -28.9029  -15.8403   19.0861 H   0  0  0  0  0  0
  -28.1419  -16.5683   20.4859 H   0  0  0  0  0  0
  -29.4921  -16.7181   22.6344 H   0  0  0  0  0  0
  -31.0509  -15.9480   22.7053 H   0  0  0  0  0  0
  -29.3570  -19.0175   21.1735 H   0  0  0  0  0  0
  -34.2084  -21.0468   17.7160 H   0  0  0  0  0  0
  -34.7348  -21.8586   19.1917 H   0  0  0  0  0  0
  -33.7072  -22.6847   18.0179 H   0  0  0  0  0  0
  -32.7908  -23.9773   19.6296 H   0  0  0  0  0  0
  -32.6273  -23.5614   21.3202 H   0  0  0  0  0  0
  -31.2459  -24.1141   20.4083 H   0  0  0  0  0  0
  -34.3959  -18.4577   20.2489 H   0  0  0  0  0  0
  -34.9600  -19.3005   18.8130 H   0  0  0  0  0  0
  -34.7137  -17.5693   18.7702 H   0  0  0  0  0  0
  -31.5761  -18.6257   16.9662 H   0  0  0  0  0  0
  -33.0588  -17.7042   16.8014 H   0  0  0  0  0  0
  -33.0951  -19.4565   16.7007 H   0  0  0  0  0  0
  -28.5712  -21.8871   23.0456 H   0  0  0  0  0  0
  -29.7635  -20.6199   22.8480 H   0  0  0  0  0  0
  -28.2087  -20.5573   21.9868 H   0  0  0  0  0  0
  -27.5668  -22.4708   20.6688 H   0  0  0  0  0  0
  -28.4852  -21.8727   19.3404 H   0  0  0  0  0  0
  -28.8033  -25.1113   21.4814 H   0  0  0  0  0  0
  -27.1677  -25.0207   20.9573 H   0  0  0  0  0  0
  -32.3754  -17.7828   19.1363 H   0  0  0  0  0  0
  -30.0521  -22.8608   21.6795 H   0  0  0  0  0  0
  -29.5720  -24.2472   19.1660 H   0  0  0  0  0  0
  -26.8106  -23.8451   18.8895 H   0  0  0  0  0  0
  1 25  1  0  0  0
  1 30  2  0  0  0
  1 91  1  0  0  0
  2  3  1  0  0  0
  2 25  1  0  0  0
  2 93  1  0  0  0
  2 94  1  0  0  0
  3  4  1  0  0  0
  3 95  1  0  0  0
  3 96  1  0  0  0
  4  5  1  0  0  0
  4 97  1  0  0  0
  4 98  1  0  0  0
  5  6  1  0  0  0
  5 26  1  0  0  0
  5 99  1  0  0  0
  6 25  1  0  0  0
  6100  1  0  0  0
  6101  1  0  0  0
  7  8  2  0  0  0
  7 26  1  0  0  0
  7 29  1  0  0  0
  8  9  1  0  0  0
  8 22  1  0  0  0
  9 10  1  0  0  0
  9 27  2  0  0  0
 10 11  2  0  0  0
 10 15  1  0  0  0
 11 12  1  0  0  0
 11102  1  0  0  0
 12 13  2  0  0  0
 12103  1  0  0  0
 13 14  1  0  0  0
 13 31  1  0  0  0
 14 15  2  0  0  0
 14104  1  0  0  0
 15105  1  0  0  0
 16 17  2  0  0  0
 16 21  1  0  0  0
 16 31  1  0  0  0
 17 18  1  0  0  0
 17106  1  0  0  0
 18 19  2  0  0  0
 18107  1  0  0  0
 19 20  1  0  0  0
 19 24  1  0  0  0
 20 21  2  0  0  0
 20108  1  0  0  0
 21 23  1  0  0  0
 22 28  1  0  0  0
 22 32  2  0  0  0
 26 27  1  0  0  0
 28109  1  0  0  0
 28110  1  0  0  0
 29111  1  0  0  0
 29112  1  0  0  0
 33 34  1  0  0  0
 33 66  1  0  0  0
 33 70  2  0  0  0
 34 36  1  0  0  0
 34 59  1  0  0  0
 34113  1  0  0  0
 35 44  2  0  0  0
 35 45  1  0  0  0
 35 68  1  0  0  0
 36 56  1  0  0  0
 36114  1  0  0  0
 37 39  1  0  0  0
 37 47  1  0  0  0
 37 66  1  0  0  0
 37115  1  0  0  0
 38 43  2  0  0  0
 38 46  1  0  0  0
 38 47  1  0  0  0
 39 64  1  0  0  0
 39 67  2  0  0  0
 40 52  1  0  0  0
 40 53  2  0  0  0
 40 58  1  0  0  0
 41116  1  0  0  0
 41117  1  0  0  0
 41118  1  0  0  0
 41 48  1  0  0  0
 42 43  1  0  0  0
 42 66  1  0  0  0
 42119  1  0  0  0
 42120  1  0  0  0
 43 44  1  0  0  0
 44121  1  0  0  0
 45 46  2  0  0  0
 45122  1  0  0  0
 46123  1  0  0  0
 47124  1  0  0  0
 47125  1  0  0  0
 48 56  1  0  0  0
 48 65  1  0  0  0
 48126  1  0  0  0
 49 50  1  0  0  0
 49 53  1  0  0  0
 49 64  1  0  0  0
 49127  1  0  0  0
 50 51  1  0  0  0
 50128  1  0  0  0
 50129  1  0  0  0
 51 52  1  0  0  0
 51130  1  0  0  0
 51131  1  0  0  0
 52132  1  0  0  0
 52133  1  0  0  0
 53 54  1  0  0  0
 54 55  2  0  0  0
 54134  1  0  0  0
 55 57  1  0  0  0
 55135  1  0  0  0
 56 69  2  0  0  0
 57 58  2  0  0  0
 57136  1  0  0  0
 58137  1  0  0  0
 59 60  1  0  0  0
 59 61  1  0  0  0
 59 62  1  0  0  0
 60138  1  0  0  0
 60139  1  0  0  0
 60140  1  0  0  0
 61141  1  0  0  0
 61142  1  0  0  0
 61143  1  0  0  0
 62144  1  0  0  0
 62145  1  0  0  0
 62146  1  0  0  0
 63 65  1  0  0  0
 63147  1  0  0  0
 63148  1  0  0  0
 63149  1  0  0  0
 64150  1  0  0  0
 65151  1  0  0  0
 68 86  1  0  0  0
 71 72  1  0  0  0
 71 73  2  0  0  0
 71 87  1  0  0  0
 72 74  2  0  0  0
 72 80  1  0  0  0
 73 90  1  0  0  0
 73 79  1  0  0  0
 74 81  1  0  0  0
 74 90  1  0  0  0
 75 77  1  0  0  0
 75 79  1  0  0  0
 75152  1  0  0  0
 75153  1  0  0  0
 76 78  1  0  0  0
 76 79  1  0  0  0
 76154  1  0  0  0
 76155  1  0  0  0
 77 91  1  0  0  0
 77156  1  0  0  0
 77157  1  0  0  0
 78 91  1  0  0  0
 78158  1  0  0  0
 78159  1  0  0  0
 79160  1  0  0  0
 80161  1  0  0  0
 80162  1  0  0  0
 80163  1  0  0  0
 81164  1  0  0  0
 81165  1  0  0  0
 81166  1  0  0  0
 82167  1  0  0  0
 82168  1  0  0  0
 82169  1  0  0  0
 82 87  1  0  0  0
 83 87  1  0  0  0
 83170  1  0  0  0
 83171  1  0  0  0
 83172  1  0  0  0
 84173  1  0  0  0
 84174  1  0  0  0
 84175  1  0  0  0
 84 88  1  0  0  0
 85 88  1  0  0  0
 85 89  1  0  0  0
 85176  1  0  0  0
 85177  1  0  0  0
 86 89  1  0  0  0
 86178  1  0  0  0
 86179  1  0  0  0
 87180  1  0  0  0
 88 90  1  0  0  0
 88181  1  0  0  0
 89 92  1  0  0  0
 89182  1  0  0  0
 92183  1  0  0  0
M  ISO  4   1 100  68 101  86 101  91 100
M  END
> <chiral flag>
0

> <version>
0

> <s_m_source_file>
/data/baiqing/PycharmProjects/Reinvent-master-3.2/result/LINK_invent/BTK/process_docking_weight1_custom_sum_contain_oxygen_bond_distance_aromatic_linkinvent_7_9_3/rearranged_h_0117.sdf

> <i_m_source_file_index>
90

> <r_mmod_Potential_Energy-OPLS-2005>
247.145584106445

> <r_mmod_Stretch_Energy-OPLS-2005>
68.2198181152344

> <r_mmod_Bend_Energy-OPLS-2005>
156.35758972168

> <r_mmod_Torsional_Energy-OPLS-2005>
407.813201904297

> <r_mmod_Improper_Torsional_Energy-OPLS-2005>
4.30042219161987

> <r_mmod_Van_der_Waal_Energy-OPLS-2005>
132.032577514648

> <r_mmod_Electrostatic_Energy-OPLS-2005>
-336.354400634766

> <r_mmod_Solvation_Energy-OPLS-2005>
-215.925064086914

> <b_mmod_Minimization_Converged-OPLS-2005>
0

> <r_mmod_RMS_Derivative-OPLS-2005>
1.51968419551849

$$$$
91
                    3D
 Structure written by MMmdl.
183190  0  0  1  0            999 V2000
  -30.7581  -14.3321   20.6662 C   0  0  0  0  0  0
  -30.4121  -12.2647   19.3681 C   0  0  0  0  0  0
  -29.4797  -12.5276   18.1719 C   0  0  0  0  0  0
  -28.0019  -12.3919   18.5885 C   0  0  0  0  0  0
  -27.6660  -13.1941   19.8722 C   0  0  2  0  0  0
  -28.7036  -12.9050   20.9736 C   0  0  0  0  0  0
  -25.2634  -13.8123   20.5720 C   0  0  0  0  0  0
  -24.1852  -13.0417   20.9170 C   0  0  0  0  0  0
  -24.6368  -11.6877   20.8684 C   0  0  0  0  0  0
  -23.9027  -10.4270   21.0361 C   0  0  0  0  0  0
  -24.3588   -9.4205   21.9158 C   0  0  0  0  0  0
  -23.6280   -8.2231   22.0741 C   0  0  0  0  0  0
  -22.4259   -8.0254   21.3543 C   0  0  0  0  0  0
  -21.9895   -9.0218   20.4644 C   0  0  0  0  0  0
  -22.7195  -10.2103   20.3035 C   0  0  0  0  0  0
  -21.6858   -6.0699   22.5274 C   0  0  0  0  0  0
  -21.4012   -6.5608   23.8206 C   0  0  0  0  0  0
  -21.3687   -5.6760   24.9175 C   0  0  0  0  0  0
  -21.6054   -4.3021   24.7231 C   0  0  0  0  0  0
  -21.8826   -3.8112   23.4348 C   0  0  0  0  0  0
  -21.9187   -4.6928   22.3401 C   0  0  0  0  0  0
  -22.7893  -13.5243   21.1852 C   0  0  0  0  0  0
  -22.1660   -4.2111   21.0981 F   0  0  0  0  0  0
  -21.5660   -3.4516   25.7755 F   0  0  0  0  0  0
  -30.0476  -13.1971   20.4391 N   0  0  0  0  0  0
  -26.3035  -12.9270   20.3312 N   0  0  0  0  0  0
  -25.9291  -11.6436   20.5688 N   0  0  0  0  0  0
  -22.0518  -12.8235   22.0386 N   0  0  0  0  0  0
  -25.4425  -15.1844   20.4289 N   0  0  0  0  0  0
  -31.7754  -14.6449   20.0358 O   0  0  0  0  0  0
  -21.6622   -6.8839   21.4239 O   0  0  0  0  0  0
  -22.3585  -14.5551   20.6704 O   0  0  0  0  0  0
  -24.6134  -31.8700   23.2136 C   0  0  0  0  0  0
  -25.9037  -32.4826   23.8429 C   0  0  1  0  0  0
  -27.2503  -27.4793   20.0719 C   0  0  0  0  0  0
  -25.5894  -33.8626   24.2362 N   0  0  0  0  0  0
  -23.4027  -30.4931   21.5530 C   0  0  2  0  0  0
  -24.8529  -28.9610   20.1224 C   0  0  0  0  0  0
  -22.7416  -29.4672   22.5014 C   0  0  0  0  0  0
  -18.0279  -28.1376   22.8492 C   0  0  0  0  0  0
  -24.1480  -36.7322   23.2638 C   0  0  0  0  0  0
  -25.9290  -30.8461   21.3632 C   0  0  0  0  0  0
  -26.0127  -29.4823   20.7128 C   0  0  0  0  0  0
  -27.2195  -28.7461   20.6921 C   0  0  0  0  0  0
  -26.0721  -26.9534   19.5081 C   0  0  0  0  0  0
  -24.8742  -27.6914   19.5208 C   0  0  0  0  0  0
  -23.6117  -29.8235   20.1688 C   0  0  0  0  0  0
  -25.4093  -36.3120   24.0353 C   0  0  1  0  0  0
  -20.5862  -28.3661   23.1332 C   0  0  2  0  0  0
  -20.6758  -26.9398   22.5424 C   0  0  0  0  0  0
  -19.5733  -26.6386   21.5217 C   0  0  0  0  0  0
  -18.1915  -26.7917   22.1633 C   0  0  0  0  0  0
  -19.1519  -28.8836   23.2906 C   0  0  0  0  0  0
  -18.9452  -30.1441   23.8908 C   0  0  0  0  0  0
  -17.6450  -30.6578   24.0571 C   0  0  0  0  0  0
  -25.9018  -34.9476   23.5154 C   0  0  0  0  0  0
  -16.5344  -29.9077   23.6320 C   0  0  0  0  0  0
  -16.7267  -28.6500   23.0334 C   0  0  0  0  0  0
  -26.4470  -31.6576   25.0735 C   0  0  0  0  0  0
  -25.3765  -31.3674   26.1511 C   0  0  0  0  0  0
  -27.0270  -30.3017   24.6063 C   0  0  0  0  0  0
  -27.6069  -32.4275   25.7475 C   0  0  0  0  0  0
  -27.5582  -37.1810   24.8464 C   0  0  0  0  0  0
  -21.4149  -29.3033   22.3748 N   0  0  0  0  0  0
  -26.4280  -37.3803   23.9426 N   0  0  0  0  0  0
  -24.6667  -31.0825   22.1011 N   0  0  0  0  0  0
  -23.4186  -28.8210   23.3057 O   0  0  0  0  0  0
  -28.3663  -26.6803   19.9980 O   0  0  0  0  0  0
  -26.5583  -34.8929   22.4711 O   0  0  0  0  0  0
  -23.5344  -32.1425   23.7539 O   0  0  0  0  0  0
  -30.1273  -21.2659   20.6195 C   0  0  0  0  0  0
  -31.5408  -22.8668   21.9675 C   0  0  0  0  0  0
  -30.9166  -19.0230   23.8078 C   0  0  0  0  0  0
  -28.6758  -20.1261   23.4525 C   0  0  0  0  0  0
  -29.4883  -14.9680   24.0261 C   0  0  0  0  0  0
  -31.6420  -13.8630   23.3693 C   0  0  0  0  0  0
  -29.4822  -28.2271   18.3933 C   0  0  0  0  0  0
  -30.4609  -17.5917   21.0219 C   0  0  0  0  0  0
  -30.3474  -25.9376   19.0168 C   0  0  0  0  0  0
  -29.5519  -16.3495   21.2054 C   0  0  0  0  0  0
  -30.7487  -24.9265   20.1158 C   0  0  0  0  0  0
  -31.1308  -22.4305   20.5385 C   0  0  2  0  0  0
  -29.5941  -18.9741   23.0138 C   0  0  0  0  0  0
  -30.6872  -15.0460   23.0538 C   0  0  0  0  0  0
  -29.7925  -18.9200   21.4684 C   0  0  1  0  0  0
  -29.6138  -27.1972   19.5337 C   0  0  2  0  0  0
  -30.5908  -20.0756   21.0392 N   0  0  0  0  0  0
  -30.2559  -15.1267   21.6321 N   0  0  0  0  0  0
  -30.5418  -23.5128   19.7061 N   0  3  0  0  0  0
  -28.9373  -21.4731   20.3573 O   0  0  0  0  0  0
  -31.4554  -12.3631   19.0642 H   0  0  0  0  0  0
  -30.3034  -11.2373   19.7200 H   0  0  0  0  0  0
  -29.7038  -11.8360   17.3587 H   0  0  0  0  0  0
  -29.6591  -13.5278   17.7737 H   0  0  0  0  0  0
  -27.8003  -11.3319   18.7542 H   0  0  0  0  0  0
  -27.3522  -12.7017   17.7695 H   0  0  0  0  0  0
  -27.7341  -14.2537   19.6261 H   0  0  0  0  0  0
  -28.6544  -11.8598   21.2786 H   0  0  0  0  0  0
  -28.4485  -13.4739   21.8639 H   0  0  0  0  0  0
  -25.2734   -9.5704   22.4729 H   0  0  0  0  0  0
  -24.0001   -7.4621   22.7468 H   0  0  0  0  0  0
  -21.0827   -8.8724   19.8951 H   0  0  0  0  0  0
  -22.3640  -10.9638   19.6152 H   0  0  0  0  0  0
  -21.1989   -7.6117   23.9711 H   0  0  0  0  0  0
  -21.1527   -6.0485   25.9072 H   0  0  0  0  0  0
  -22.0584   -2.7571   23.2858 H   0  0  0  0  0  0
  -22.4099  -11.9897   22.4796 H   0  0  0  0  0  0
  -21.1152  -13.1294   22.2598 H   0  0  0  0  0  0
  -24.6974  -15.8503   20.5962 H   0  0  0  0  0  0
  -26.3134  -15.6236   20.1614 H   0  0  0  0  0  0
  -26.7114  -32.5561   23.1209 H   0  0  0  0  0  0
  -25.0051  -33.9782   25.0516 H   0  0  0  0  0  0
  -22.6918  -31.3093   21.4131 H   0  0  0  0  0  0
  -23.3736  -35.9659   23.3292 H   0  0  0  0  0  0
  -24.3588  -36.8934   22.2056 H   0  0  0  0  0  0
  -23.7232  -37.6531   23.6641 H   0  0  0  0  0  0
  -26.0392  -31.6125   20.5943 H   0  0  0  0  0  0
  -26.8189  -30.9014   21.9786 H   0  0  0  0  0  0
  -28.1161  -29.1506   21.1417 H   0  0  0  0  0  0
  -26.0912  -25.9793   19.0432 H   0  0  0  0  0  0
  -23.9851  -27.2789   19.0651 H   0  0  0  0  0  0
  -23.7212  -30.5968   19.4079 H   0  0  0  0  0  0
  -22.7374  -29.2409   19.8723 H   0  0  0  0  0  0
  -25.1257  -36.1991   25.0845 H   0  0  0  0  0  0
  -20.9968  -28.3212   24.1446 H   0  0  0  0  0  0
  -20.5656  -26.2262   23.3610 H   0  0  0  0  0  0
  -21.6633  -26.7431   22.1220 H   0  0  0  0  0  0
  -19.6891  -25.6304   21.1221 H   0  0  0  0  0  0
  -19.6668  -27.3217   20.6767 H   0  0  0  0  0  0
  -17.4194  -26.6688   21.4030 H   0  0  0  0  0  0
  -18.0308  -26.0048   22.9017 H   0  0  0  0  0  0
  -19.7920  -30.7262   24.2272 H   0  0  0  0  0  0
  -17.5001  -31.6250   24.5179 H   0  0  0  0  0  0
  -15.5339  -30.2985   23.7632 H   0  0  0  0  0  0
  -15.8673  -28.0839   22.7013 H   0  0  0  0  0  0
  -24.5946  -30.6985   25.7892 H   0  0  0  0  0  0
  -24.8940  -32.2817   26.4973 H   0  0  0  0  0  0
  -25.8164  -30.8869   27.0257 H   0  0  0  0  0  0
  -26.2776  -29.6805   24.1136 H   0  0  0  0  0  0
  -27.4067  -29.7226   25.4490 H   0  0  0  0  0  0
  -27.8611  -30.4336   23.9168 H   0  0  0  0  0  0
  -27.2703  -33.3571   26.2072 H   0  0  0  0  0  0
  -28.3855  -32.6831   25.0277 H   0  0  0  0  0  0
  -28.0746  -31.8377   26.5366 H   0  0  0  0  0  0
  -28.2597  -38.0112   24.7523 H   0  0  0  0  0  0
  -28.1079  -36.2648   24.6250 H   0  0  0  0  0  0
  -27.2317  -37.1422   25.8872 H   0  0  0  0  0  0
  -20.9307  -29.8762   21.6983 H   0  0  0  0  0  0
  -26.0172  -38.2881   24.1431 H   0  0  0  0  0  0
  -31.9126  -22.0216   22.5459 H   0  0  0  0  0  0
  -30.7024  -23.2886   22.5234 H   0  0  0  0  0  0
  -32.3513  -23.5948   21.9545 H   0  0  0  0  0  0
  -30.7231  -19.0411   24.8801 H   0  0  0  0  0  0
  -31.5048  -19.9084   23.5726 H   0  0  0  0  0  0
  -31.5481  -18.1554   23.6257 H   0  0  0  0  0  0
  -28.4264  -20.0402   24.5114 H   0  0  0  0  0  0
  -27.7393  -20.1218   22.8927 H   0  0  0  0  0  0
  -29.1458  -21.0979   23.3068 H   0  0  0  0  0  0
  -28.9235  -14.0433   23.9157 H   0  0  0  0  0  0
  -28.7974  -15.8013   23.9150 H   0  0  0  0  0  0
  -29.8323  -15.0012   25.0608 H   0  0  0  0  0  0
  -31.9449  -13.8627   24.4167 H   0  0  0  0  0  0
  -32.5575  -13.9051   22.7796 H   0  0  0  0  0  0
  -31.1718  -12.8960   23.1832 H   0  0  0  0  0  0
  -30.4628  -28.4859   17.9908 H   0  0  0  0  0  0
  -29.0269  -29.1593   18.7289 H   0  0  0  0  0  0
  -28.8793  -27.8402   17.5718 H   0  0  0  0  0  0
  -30.7462  -17.6545   19.9691 H   0  0  0  0  0  0
  -31.4007  -17.4542   21.5506 H   0  0  0  0  0  0
  -29.7084  -25.4580   18.2733 H   0  0  0  0  0  0
  -31.2495  -26.2262   18.4765 H   0  0  0  0  0  0
  -29.0490  -16.1653   20.2523 H   0  0  0  0  0  0
  -28.7296  -16.5386   21.8849 H   0  0  0  0  0  0
  -30.1730  -25.1086   21.0232 H   0  0  0  0  0  0
  -31.7961  -25.1027   20.3647 H   0  0  0  0  0  0
  -32.0190  -22.0745   20.0159 H   0  0  0  0  0  0
  -29.0797  -18.0687   23.3257 H   0  0  0  0  0  0
  -31.2401  -15.9579   23.2691 H   0  0  0  0  0  0
  -28.8149  -18.9621   20.9803 H   0  0  0  0  0  0
  -30.1616  -27.6455   20.3643 H   0  0  0  0  0  0
  -31.5859  -20.0078   21.2006 H   0  0  0  0  0  0
  -30.8639  -23.3768   18.7616 H   0  0  0  0  0  0
  -29.5514  -23.3022   19.7090 H   0  0  0  0  0  0
  1 25  1  0  0  0
  1 30  2  0  0  0
  1 88  1  0  0  0
  2  3  1  0  0  0
  2 25  1  0  0  0
  2 91  1  0  0  0
  2 92  1  0  0  0
  3  4  1  0  0  0
  3 93  1  0  0  0
  3 94  1  0  0  0
  4  5  1  0  0  0
  4 95  1  0  0  0
  4 96  1  0  0  0
  5  6  1  0  0  0
  5 26  1  0  0  0
  5 97  1  0  0  0
  6 25  1  0  0  0
  6 98  1  0  0  0
  6 99  1  0  0  0
  7  8  2  0  0  0
  7 26  1  0  0  0
  7 29  1  0  0  0
  8  9  1  0  0  0
  8 22  1  0  0  0
  9 10  1  0  0  0
  9 27  2  0  0  0
 10 11  2  0  0  0
 10 15  1  0  0  0
 11 12  1  0  0  0
 11100  1  0  0  0
 12 13  2  0  0  0
 12101  1  0  0  0
 13 14  1  0  0  0
 13 31  1  0  0  0
 14 15  2  0  0  0
 14102  1  0  0  0
 15103  1  0  0  0
 16 17  2  0  0  0
 16 21  1  0  0  0
 16 31  1  0  0  0
 17 18  1  0  0  0
 17104  1  0  0  0
 18 19  2  0  0  0
 18105  1  0  0  0
 19 20  1  0  0  0
 19 24  1  0  0  0
 20 21  2  0  0  0
 20106  1  0  0  0
 21 23  1  0  0  0
 22 28  1  0  0  0
 22 32  2  0  0  0
 26 27  1  0  0  0
 28107  1  0  0  0
 28108  1  0  0  0
 29109  1  0  0  0
 29110  1  0  0  0
 33 34  1  0  0  0
 33 66  1  0  0  0
 33 70  2  0  0  0
 34 36  1  0  0  0
 34 59  1  0  0  0
 34111  1  0  0  0
 35 44  2  0  0  0
 35 45  1  0  0  0
 35 68  1  0  0  0
 36 56  1  0  0  0
 36112  1  0  0  0
 37 39  1  0  0  0
 37 47  1  0  0  0
 37 66  1  0  0  0
 37113  1  0  0  0
 38 43  2  0  0  0
 38 46  1  0  0  0
 38 47  1  0  0  0
 39 64  1  0  0  0
 39 67  2  0  0  0
 40 52  1  0  0  0
 40 53  2  0  0  0
 40 58  1  0  0  0
 41114  1  0  0  0
 41115  1  0  0  0
 41116  1  0  0  0
 41 48  1  0  0  0
 42 43  1  0  0  0
 42 66  1  0  0  0
 42117  1  0  0  0
 42118  1  0  0  0
 43 44  1  0  0  0
 44119  1  0  0  0
 45 46  2  0  0  0
 45120  1  0  0  0
 46121  1  0  0  0
 47122  1  0  0  0
 47123  1  0  0  0
 48 56  1  0  0  0
 48 65  1  0  0  0
 48124  1  0  0  0
 49 50  1  0  0  0
 49 53  1  0  0  0
 49 64  1  0  0  0
 49125  1  0  0  0
 50 51  1  0  0  0
 50126  1  0  0  0
 50127  1  0  0  0
 51 52  1  0  0  0
 51128  1  0  0  0
 51129  1  0  0  0
 52130  1  0  0  0
 52131  1  0  0  0
 53 54  1  0  0  0
 54 55  2  0  0  0
 54132  1  0  0  0
 55 57  1  0  0  0
 55133  1  0  0  0
 56 69  2  0  0  0
 57 58  2  0  0  0
 57134  1  0  0  0
 58135  1  0  0  0
 59 60  1  0  0  0
 59 61  1  0  0  0
 59 62  1  0  0  0
 60136  1  0  0  0
 60137  1  0  0  0
 60138  1  0  0  0
 61139  1  0  0  0
 61140  1  0  0  0
 61141  1  0  0  0
 62142  1  0  0  0
 62143  1  0  0  0
 62144  1  0  0  0
 63 65  1  0  0  0
 63145  1  0  0  0
 63146  1  0  0  0
 63147  1  0  0  0
 64148  1  0  0  0
 65149  1  0  0  0
 68 86  1  0  0  0
 71 82  1  0  0  0
 71 87  1  0  0  0
 71 90  2  0  0  0
 72150  1  0  0  0
 72151  1  0  0  0
 72152  1  0  0  0
 72 82  1  0  0  0
 73153  1  0  0  0
 73154  1  0  0  0
 73155  1  0  0  0
 73 83  1  0  0  0
 74 83  1  0  0  0
 74156  1  0  0  0
 74157  1  0  0  0
 74158  1  0  0  0
 75159  1  0  0  0
 75160  1  0  0  0
 75161  1  0  0  0
 75 84  1  0  0  0
 76 84  1  0  0  0
 76162  1  0  0  0
 76163  1  0  0  0
 76164  1  0  0  0
 77165  1  0  0  0
 77166  1  0  0  0
 77167  1  0  0  0
 77 86  1  0  0  0
 78 80  1  0  0  0
 78168  1  0  0  0
 78169  1  0  0  0
 78 85  1  0  0  0
 79 81  1  0  0  0
 79 86  1  0  0  0
 79170  1  0  0  0
 79171  1  0  0  0
 80 88  1  0  0  0
 80172  1  0  0  0
 80173  1  0  0  0
 81 89  1  0  0  0
 81174  1  0  0  0
 81175  1  0  0  0
 82 89  1  0  0  0
 82176  1  0  0  0
 83 85  1  0  0  0
 83177  1  0  0  0
 84 88  1  0  0  0
 84178  1  0  0  0
 85 87  1  0  0  0
 85179  1  0  0  0
 86180  1  0  0  0
 87181  1  0  0  0
 89182  1  0  0  0
 89183  1  0  0  0
M  CHG  1  89   1
M  ISO  4   1 100  68 101  86 101  88 100
M  END
> <chiral flag>
0

> <version>
0

> <s_m_source_file>
/data/baiqing/PycharmProjects/Reinvent-master-3.2/result/LINK_invent/BTK/process_docking_weight1_custom_sum_contain_oxygen_bond_distance_aromatic_linkinvent_7_9_3/rearranged_h_0117.sdf

> <i_m_source_file_index>
91

> <r_mmod_Potential_Energy-OPLS-2005>
-88.3152923583984

> <r_mmod_Stretch_Energy-OPLS-2005>
38.8593902587891

> <r_mmod_Bend_Energy-OPLS-2005>
121.472595214844

> <r_mmod_Torsional_Energy-OPLS-2005>
366.155456542969

> <r_mmod_Improper_Torsional_Energy-OPLS-2005>
2.8968300819397

> <r_mmod_Van_der_Waal_Energy-OPLS-2005>
143.322036743164

> <r_mmod_Electrostatic_Energy-OPLS-2005>
-352.200164794922

> <r_mmod_Solvation_Energy-OPLS-2005>
-416.006103515625

> <b_mmod_Minimization_Converged-OPLS-2005>
0

> <r_mmod_RMS_Derivative-OPLS-2005>
3.52890133857727

$$$$
92
                    3D
 Structure written by MMmdl.
187196  0  0  1  0            999 V2000
  -30.6818  -14.4674   20.6404 C   0  0  0  0  0  0
  -30.4206  -12.3149   19.4355 C   0  0  0  0  0  0
  -29.4946  -12.4822   18.2119 C   0  0  0  0  0  0
  -28.0099  -12.3612   18.6115 C   0  0  0  0  0  0
  -27.6556  -13.1965   19.8699 C   0  0  2  0  0  0
  -28.6853  -12.9627   20.9928 C   0  0  0  0  0  0
  -25.2590  -13.8156   20.5691 C   0  0  0  0  0  0
  -24.1811  -13.0452   20.9161 C   0  0  0  0  0  0
  -24.6343  -11.6933   20.8709 C   0  0  0  0  0  0
  -23.9003  -10.4326   21.0375 C   0  0  0  0  0  0
  -24.3572   -9.4270   21.9168 C   0  0  0  0  0  0
  -23.6268   -8.2310   22.0781 C   0  0  0  0  0  0
  -22.4263   -8.0305   21.3550 C   0  0  0  0  0  0
  -21.9894   -9.0242   20.4618 C   0  0  0  0  0  0
  -22.7206  -10.2129   20.3001 C   0  0  0  0  0  0
  -21.6856   -6.0750   22.5285 C   0  0  0  0  0  0
  -21.4028   -6.5670   23.8219 C   0  0  0  0  0  0
  -21.3657   -5.6820   24.9184 C   0  0  0  0  0  0
  -21.6035   -4.3076   24.7242 C   0  0  0  0  0  0
  -21.8812   -3.8167   23.4362 C   0  0  0  0  0  0
  -21.9207   -4.6983   22.3421 C   0  0  0  0  0  0
  -22.7854  -13.5305   21.1817 C   0  0  0  0  0  0
  -22.1669   -4.2165   21.0994 F   0  0  0  0  0  0
  -21.5610   -3.4559   25.7754 F   0  0  0  0  0  0
  -30.0135  -13.2929   20.4552 N   0  0  0  0  0  0
  -26.2967  -12.9289   20.3307 N   0  0  0  0  0  0
  -25.9250  -11.6461   20.5724 N   0  0  0  0  0  0
  -22.0492  -12.8317   22.0394 N   0  0  0  0  0  0
  -25.4385  -15.1865   20.4161 N   0  0  0  0  0  0
  -31.7699  -14.7064   20.0980 O   0  0  0  0  0  0
  -21.6657   -6.8886   21.4242 O   0  0  0  0  0  0
  -22.3535  -14.5584   20.6623 O   0  0  0  0  0  0
  -24.6124  -31.8625   23.2112 C   0  0  0  0  0  0
  -25.9031  -32.4783   23.8385 C   0  0  1  0  0  0
  -27.2263  -27.4073   20.1438 C   0  0  0  0  0  0
  -25.5837  -33.8573   24.2283 N   0  0  0  0  0  0
  -23.4062  -30.4834   21.5482 C   0  0  2  0  0  0
  -24.8629  -28.9680   20.0936 C   0  0  0  0  0  0
  -22.7420  -29.4568   22.4938 C   0  0  0  0  0  0
  -18.0238  -28.1395   22.8419 C   0  0  0  0  0  0
  -24.1510  -36.7314   23.2629 C   0  0  0  0  0  0
  -25.9394  -30.8284   21.3752 C   0  0  0  0  0  0
  -26.0188  -29.4669   20.7125 C   0  0  0  0  0  0
  -27.2076  -28.6930   20.7326 C   0  0  0  0  0  0
  -26.0704  -26.9482   19.4790 C   0  0  0  0  0  0
  -24.8854  -27.7106   19.4645 C   0  0  0  0  0  0
  -23.6177  -29.8308   20.1590 C   0  0  0  0  0  0
  -25.4107  -36.3045   24.0313 C   0  0  1  0  0  0
  -20.5831  -28.3636   23.1274 C   0  0  2  0  0  0
  -20.6772  -26.9377   22.5391 C   0  0  0  0  0  0
  -19.5749  -26.6339   21.5190 C   0  0  0  0  0  0
  -18.1895  -26.7928   22.1579 C   0  0  0  0  0  0
  -19.1480  -28.8832   23.2853 C   0  0  0  0  0  0
  -18.9433  -30.1457   23.8814 C   0  0  0  0  0  0
  -17.6445  -30.6578   24.0556 C   0  0  0  0  0  0
  -25.9004  -34.9424   23.5098 C   0  0  0  0  0  0
  -16.5327  -29.9088   23.6380 C   0  0  0  0  0  0
  -16.7235  -28.6560   23.0298 C   0  0  0  0  0  0
  -26.4465  -31.6564   25.0707 C   0  0  0  0  0  0
  -25.3716  -31.3669   26.1460 C   0  0  0  0  0  0
  -27.0309  -30.2944   24.6103 C   0  0  0  0  0  0
  -27.6009  -32.4293   25.7478 C   0  0  0  0  0  0
  -27.5583  -37.1782   24.8434 C   0  0  0  0  0  0
  -21.4117  -29.3027   22.3743 N   0  0  0  0  0  0
  -26.4284  -37.3735   23.9380 N   0  0  0  0  0  0
  -24.6699  -31.0740   22.1028 N   0  0  0  0  0  0
  -23.4205  -28.8073   23.2937 O   0  0  0  0  0  0
  -28.3037  -26.5482   20.2778 O   0  0  0  0  0  0
  -26.5610  -34.8891   22.4658 O   0  0  0  0  0  0
  -23.5297  -32.1390   23.7489 O   0  0  0  0  0  0
  -25.6783  -18.3137   22.9560 C   0  0  0  0  0  0
  -26.9414  -17.8112   22.6366 C   0  0  0  0  0  0
  -25.3067  -19.5712   22.4797 C   0  0  0  0  0  0
  -27.8698  -18.5417   21.8569 C   0  0  0  0  0  0
  -26.1864  -20.3455   21.7021 C   0  0  0  0  0  0
  -27.5106  -19.8734   21.4168 C   0  0  0  0  0  0
  -30.0992  -16.5887   23.6885 C   0  0  0  0  0  0
  -30.0738  -17.9076   22.9150 C   0  0  0  0  0  0
  -30.7276  -15.4861   22.8310 C   0  0  0  0  0  0
  -29.1058  -16.3561   21.0596 C   0  0  0  0  0  0
  -29.2293  -17.8276   21.6278 C   0  0  1  0  0  0
  -25.5939  -21.6693   21.2156 C   0  0  0  0  0  0
  -27.2786  -22.8214   24.9962 C   0  0  0  0  0  0
  -30.8620  -23.1723   23.5339 C   0  0  0  0  0  0
  -26.8614  -25.4667   22.0871 C   0  0  0  0  0  0
  -28.4914  -20.8058   20.6645 C   0  0  0  0  0  0
  -28.6894  -22.3865   24.5648 C   0  0  0  0  0  0
  -28.8571  -24.1868   21.0216 C   0  0  0  0  0  0
  -29.3238  -23.2766   23.4647 C   0  0  2  0  0  0
  -28.7303  -22.9874   22.0501 C   0  0  2  0  0  0
  -28.2544  -25.5966   21.4010 C   0  0  1  0  0  0
  -30.1162  -15.3499   21.5030 N   0  0  0  0  0  0
  -29.2901  -21.6830   21.5629 N   0  3  0  0  0  0
  -31.4679  -12.4284   19.1435 H   0  0  0  0  0  0
  -30.3453  -11.3045   19.8455 H   0  0  0  0  0  0
  -29.7365  -11.7288   17.4609 H   0  0  0  0  0  0
  -29.6779  -13.4478   17.7407 H   0  0  0  0  0  0
  -27.7947  -11.3066   18.7873 H   0  0  0  0  0  0
  -27.3744  -12.6547   17.7763 H   0  0  0  0  0  0
  -27.7063  -14.2438   19.5762 H   0  0  0  0  0  0
  -28.6682  -11.9169   21.3057 H   0  0  0  0  0  0
  -28.4225  -13.5314   21.8839 H   0  0  0  0  0  0
  -25.2704   -9.5809   22.4732 H   0  0  0  0  0  0
  -23.9983   -7.4744   22.7539 H   0  0  0  0  0  0
  -21.0843   -8.8684   19.8904 H   0  0  0  0  0  0
  -22.3645  -10.9623   19.6070 H   0  0  0  0  0  0
  -21.2010   -7.6180   23.9726 H   0  0  0  0  0  0
  -21.1469   -6.0560   25.9083 H   0  0  0  0  0  0
  -22.0578   -2.7628   23.2871 H   0  0  0  0  0  0
  -22.4125  -12.0037   22.4852 H   0  0  0  0  0  0
  -21.1085  -13.1309   22.2513 H   0  0  0  0  0  0
  -24.6985  -15.8574   20.5936 H   0  0  0  0  0  0
  -26.3105  -15.6271   20.1504 H   0  0  0  0  0  0
  -26.7101  -32.5464   23.1141 H   0  0  0  0  0  0
  -25.0009  -33.9747   25.0441 H   0  0  0  0  0  0
  -22.6907  -31.2960   21.4121 H   0  0  0  0  0  0
  -23.3734  -35.9691   23.3270 H   0  0  0  0  0  0
  -24.3590  -36.8993   22.2043 H   0  0  0  0  0  0
  -23.7396  -37.6528   23.6729 H   0  0  0  0  0  0
  -26.0571  -31.6095   20.6216 H   0  0  0  0  0  0
  -26.8276  -30.8728   21.9949 H   0  0  0  0  0  0
  -28.0857  -29.0557   21.2457 H   0  0  0  0  0  0
  -26.0808  -25.9728   19.0198 H   0  0  0  0  0  0
  -24.0045  -27.3170   18.9780 H   0  0  0  0  0  0
  -23.7106  -30.6176   19.4065 H   0  0  0  0  0  0
  -22.7521  -29.2323   19.8644 H   0  0  0  0  0  0
  -25.1310  -36.1891   25.0815 H   0  0  0  0  0  0
  -20.9854  -28.3252   24.1414 H   0  0  0  0  0  0
  -20.5699  -26.2224   23.3585 H   0  0  0  0  0  0
  -21.6647  -26.7444   22.1164 H   0  0  0  0  0  0
  -19.6955  -25.6235   21.1255 H   0  0  0  0  0  0
  -19.6773  -27.3129   20.6704 H   0  0  0  0  0  0
  -17.4198  -26.6565   21.3948 H   0  0  0  0  0  0
  -18.0296  -26.0098   22.8986 H   0  0  0  0  0  0
  -19.7933  -30.7224   24.2122 H   0  0  0  0  0  0
  -17.5065  -31.6255   24.5137 H   0  0  0  0  0  0
  -15.5354  -30.2990   23.7825 H   0  0  0  0  0  0
  -15.8597  -28.0964   22.6989 H   0  0  0  0  0  0
  -24.5866  -30.7033   25.7849 H   0  0  0  0  0  0
  -24.8900  -32.2806   26.4880 H   0  0  0  0  0  0
  -25.8022  -30.8878   27.0253 H   0  0  0  0  0  0
  -26.2876  -29.6651   24.1143 H   0  0  0  0  0  0
  -27.4072  -29.7210   25.4608 H   0  0  0  0  0  0
  -27.8729  -30.4203   23.9321 H   0  0  0  0  0  0
  -27.2616  -33.3594   26.2037 H   0  0  0  0  0  0
  -28.3851  -32.6778   25.0345 H   0  0  0  0  0  0
  -28.0653  -31.8415   26.5409 H   0  0  0  0  0  0
  -28.2516  -38.0150   24.7500 H   0  0  0  0  0  0
  -28.1161  -36.2626   24.6262 H   0  0  0  0  0  0
  -27.2264  -37.1452   25.8836 H   0  0  0  0  0  0
  -20.9284  -29.8845   21.7052 H   0  0  0  0  0  0
  -26.0135  -38.2786   24.1414 H   0  0  0  0  0  0
  -24.9895  -17.7249   23.5458 H   0  0  0  0  0  0
  -27.1948  -16.8369   23.0242 H   0  0  0  0  0  0
  -24.3215  -19.9494   22.7153 H   0  0  0  0  0  0
  -29.0929  -16.3017   23.9996 H   0  0  0  0  0  0
  -30.6709  -16.7085   24.6085 H   0  0  0  0  0  0
  -31.1032  -18.1585   22.6595 H   0  0  0  0  0  0
  -29.7307  -18.7233   23.5569 H   0  0  0  0  0  0
  -30.6510  -14.5282   23.3536 H   0  0  0  0  0  0
  -31.7924  -15.6921   22.7147 H   0  0  0  0  0  0
  -29.0748  -16.3957   19.9691 H   0  0  0  0  0  0
  -28.1495  -15.9199   21.3404 H   0  0  0  0  0  0
  -29.7894  -18.3707   20.8724 H   0  0  0  0  0  0
  -24.6748  -21.4792   20.6598 H   0  0  0  0  0  0
  -26.2238  -22.2708   20.5695 H   0  0  0  0  0  0
  -25.3112  -22.2832   22.0731 H   0  0  0  0  0  0
  -26.9089  -22.2009   25.8179 H   0  0  0  0  0  0
  -26.5449  -22.7454   24.1915 H   0  0  0  0  0  0
  -27.2910  -23.8551   25.3506 H   0  0  0  0  0  0
  -31.2264  -23.5066   24.5053 H   0  0  0  0  0  0
  -31.3448  -23.7943   22.7785 H   0  0  0  0  0  0
  -31.2189  -22.1469   23.4118 H   0  0  0  0  0  0
  -26.8883  -24.8424   22.9728 H   0  0  0  0  0  0
  -26.1035  -25.0515   21.4219 H   0  0  0  0  0  0
  -26.5003  -26.4302   22.4423 H   0  0  0  0  0  0
  -28.0062  -21.4016   19.8956 H   0  0  0  0  0  0
  -29.1915  -20.2076   20.0876 H   0  0  0  0  0  0
  -28.6741  -21.3419   24.2545 H   0  0  0  0  0  0
  -29.3258  -22.4082   25.4513 H   0  0  0  0  0  0
  -28.3765  -23.8803   20.0925 H   0  0  0  0  0  0
  -29.9084  -24.3215   20.7701 H   0  0  0  0  0  0
  -29.0774  -24.3018   23.7364 H   0  0  0  0  0  0
  -27.6707  -22.8142   22.2047 H   0  0  0  0  0  0
  -28.9148  -26.0244   22.1569 H   0  0  0  0  0  0
  -30.1837  -21.8514   21.1333 H   0  0  0  0  0  0
  -29.4583  -21.1220   22.3809 H   0  0  0  0  0  0
  1 25  1  0  0  0
  1 30  2  0  0  0
  1 92  1  0  0  0
  2  3  1  0  0  0
  2 25  1  0  0  0
  2 94  1  0  0  0
  2 95  1  0  0  0
  3  4  1  0  0  0
  3 96  1  0  0  0
  3 97  1  0  0  0
  4  5  1  0  0  0
  4 98  1  0  0  0
  4 99  1  0  0  0
  5  6  1  0  0  0
  5 26  1  0  0  0
  5100  1  0  0  0
  6 25  1  0  0  0
  6101  1  0  0  0
  6102  1  0  0  0
  7  8  2  0  0  0
  7 26  1  0  0  0
  7 29  1  0  0  0
  8  9  1  0  0  0
  8 22  1  0  0  0
  9 10  1  0  0  0
  9 27  2  0  0  0
 10 11  2  0  0  0
 10 15  1  0  0  0
 11 12  1  0  0  0
 11103  1  0  0  0
 12 13  2  0  0  0
 12104  1  0  0  0
 13 14  1  0  0  0
 13 31  1  0  0  0
 14 15  2  0  0  0
 14105  1  0  0  0
 15106  1  0  0  0
 16 17  2  0  0  0
 16 21  1  0  0  0
 16 31  1  0  0  0
 17 18  1  0  0  0
 17107  1  0  0  0
 18 19  2  0  0  0
 18108  1  0  0  0
 19 20  1  0  0  0
 19 24  1  0  0  0
 20 21  2  0  0  0
 20109  1  0  0  0
 21 23  1  0  0  0
 22 28  1  0  0  0
 22 32  2  0  0  0
 26 27  1  0  0  0
 28110  1  0  0  0
 28111  1  0  0  0
 29112  1  0  0  0
 29113  1  0  0  0
 33 34  1  0  0  0
 33 66  1  0  0  0
 33 70  2  0  0  0
 34 36  1  0  0  0
 34 59  1  0  0  0
 34114  1  0  0  0
 35 44  2  0  0  0
 35 45  1  0  0  0
 35 68  1  0  0  0
 36 56  1  0  0  0
 36115  1  0  0  0
 37 39  1  0  0  0
 37 47  1  0  0  0
 37 66  1  0  0  0
 37116  1  0  0  0
 38 43  2  0  0  0
 38 46  1  0  0  0
 38 47  1  0  0  0
 39 64  1  0  0  0
 39 67  2  0  0  0
 40 52  1  0  0  0
 40 53  2  0  0  0
 40 58  1  0  0  0
 41117  1  0  0  0
 41118  1  0  0  0
 41119  1  0  0  0
 41 48  1  0  0  0
 42 43  1  0  0  0
 42 66  1  0  0  0
 42120  1  0  0  0
 42121  1  0  0  0
 43 44  1  0  0  0
 44122  1  0  0  0
 45 46  2  0  0  0
 45123  1  0  0  0
 46124  1  0  0  0
 47125  1  0  0  0
 47126  1  0  0  0
 48 56  1  0  0  0
 48 65  1  0  0  0
 48127  1  0  0  0
 49 50  1  0  0  0
 49 53  1  0  0  0
 49 64  1  0  0  0
 49128  1  0  0  0
 50 51  1  0  0  0
 50129  1  0  0  0
 50130  1  0  0  0
 51 52  1  0  0  0
 51131  1  0  0  0
 51132  1  0  0  0
 52133  1  0  0  0
 52134  1  0  0  0
 53 54  1  0  0  0
 54 55  2  0  0  0
 54135  1  0  0  0
 55 57  1  0  0  0
 55136  1  0  0  0
 56 69  2  0  0  0
 57 58  2  0  0  0
 57137  1  0  0  0
 58138  1  0  0  0
 59 60  1  0  0  0
 59 61  1  0  0  0
 59 62  1  0  0  0
 60139  1  0  0  0
 60140  1  0  0  0
 60141  1  0  0  0
 61142  1  0  0  0
 61143  1  0  0  0
 61144  1  0  0  0
 62145  1  0  0  0
 62146  1  0  0  0
 62147  1  0  0  0
 63 65  1  0  0  0
 63148  1  0  0  0
 63149  1  0  0  0
 63150  1  0  0  0
 64151  1  0  0  0
 65152  1  0  0  0
 68 91  1  0  0  0
 71 72  2  0  0  0
 71 73  1  0  0  0
 71153  1  0  0  0
 72 74  1  0  0  0
 72154  1  0  0  0
 73 75  2  0  0  0
 73155  1  0  0  0
 74 76  2  0  0  0
 74 81  1  0  0  0
 75 76  1  0  0  0
 75 82  1  0  0  0
 76 86  1  0  0  0
 77 78  1  0  0  0
 77 79  1  0  0  0
 77156  1  0  0  0
 77157  1  0  0  0
 78 81  1  0  0  0
 78158  1  0  0  0
 78159  1  0  0  0
 79 92  1  0  0  0
 79160  1  0  0  0
 79161  1  0  0  0
 80 81  1  0  0  0
 80 92  1  0  0  0
 80162  1  0  0  0
 80163  1  0  0  0
 81164  1  0  0  0
 82165  1  0  0  0
 82166  1  0  0  0
 82167  1  0  0  0
 83 87  1  0  0  0
 83168  1  0  0  0
 83169  1  0  0  0
 83170  1  0  0  0
 84171  1  0  0  0
 84172  1  0  0  0
 84173  1  0  0  0
 84 89  1  0  0  0
 85174  1  0  0  0
 85175  1  0  0  0
 85176  1  0  0  0
 85 91  1  0  0  0
 86 93  1  0  0  0
 86177  1  0  0  0
 86178  1  0  0  0
 87 89  1  0  0  0
 87179  1  0  0  0
 87180  1  0  0  0
 88 91  1  0  0  0
 88181  1  0  0  0
 88182  1  0  0  0
 88 90  1  0  0  0
 89 90  1  0  0  0
 89183  1  0  0  0
 90 93  1  0  0  0
 90184  1  0  0  0
 91185  1  0  0  0
 93186  1  0  0  0
 93187  1  0  0  0
M  CHG  1  93   1
M  ISO  4   1 100  68 101  91 101  92 100
M  END
> <chiral flag>
0

> <version>
0

> <s_m_source_file>
/data/baiqing/PycharmProjects/Reinvent-master-3.2/result/LINK_invent/BTK/process_docking_weight1_custom_sum_contain_oxygen_bond_distance_aromatic_linkinvent_7_9_3/rearranged_h_0117.sdf

> <i_m_source_file_index>
92

> <r_mmod_Potential_Energy-OPLS-2005>
131.19758605957

> <r_mmod_Stretch_Energy-OPLS-2005>
67.4375839233398

> <r_mmod_Bend_Energy-OPLS-2005>
144.018966674805

> <r_mmod_Torsional_Energy-OPLS-2005>
418.688171386719

> <r_mmod_Improper_Torsional_Energy-OPLS-2005>
2.52504754066467

> <r_mmod_Van_der_Waal_Energy-OPLS-2005>
143.278991699219

> <r_mmod_Electrostatic_Energy-OPLS-2005>
-257.261108398438

> <r_mmod_Solvation_Energy-OPLS-2005>
-411.561126708984

> <b_mmod_Minimization_Converged-OPLS-2005>
0

> <r_mmod_RMS_Derivative-OPLS-2005>
6.56748628616333

$$$$
93
                    3D
 Structure written by MMmdl.
161170  0  0  1  0            999 V2000
  -30.5991  -14.7512   20.4755 C   0  0  0  0  0  0
  -30.4431  -12.4534   19.5001 C   0  0  0  0  0  0
  -29.5267  -12.5108   18.2569 C   0  0  0  0  0  0
  -28.0581  -12.3039   18.6681 C   0  0  0  0  0  0
  -27.6462  -13.2230   19.8508 C   0  0  2  0  0  0
  -28.6820  -13.1582   20.9989 C   0  0  0  0  0  0
  -25.2587  -13.8156   20.5801 C   0  0  0  0  0  0
  -24.1850  -13.0424   20.9195 C   0  0  0  0  0  0
  -24.6397  -11.6879   20.8678 C   0  0  0  0  0  0
  -23.9067  -10.4277   21.0319 C   0  0  0  0  0  0
  -24.3612   -9.4231   21.9128 C   0  0  0  0  0  0
  -23.6296   -8.2266   22.0719 C   0  0  0  0  0  0
  -22.4276   -8.0291   21.3525 C   0  0  0  0  0  0
  -21.9954   -9.0206   20.4533 C   0  0  0  0  0  0
  -22.7254  -10.2089   20.2946 C   0  0  0  0  0  0
  -21.6883   -6.0727   22.5281 C   0  0  0  0  0  0
  -21.4002   -6.5629   23.8217 C   0  0  0  0  0  0
  -21.3657   -5.6775   24.9194 C   0  0  0  0  0  0
  -21.6072   -4.3047   24.7248 C   0  0  0  0  0  0
  -21.8843   -3.8142   23.4367 C   0  0  0  0  0  0
  -21.9225   -4.6960   22.3421 C   0  0  0  0  0  0
  -22.7861  -13.5190   21.1846 C   0  0  0  0  0  0
  -22.1700   -4.2161   21.0992 F   0  0  0  0  0  0
  -21.5632   -3.4500   25.7753 F   0  0  0  0  0  0
  -29.9974  -13.5101   20.4446 N   0  0  0  0  0  0
  -26.2967  -12.9338   20.3267 N   0  0  0  0  0  0
  -25.9316  -11.6463   20.5634 N   0  0  0  0  0  0
  -22.0483  -12.8070   22.0282 N   0  0  0  0  0  0
  -25.4399  -15.1886   20.4431 N   0  0  0  0  0  0
  -31.7469  -14.8910   20.0464 O   0  0  0  0  0  0
  -21.6671   -6.8854   21.4233 O   0  0  0  0  0  0
  -22.3533  -14.5506   20.6697 O   0  0  0  0  0  0
  -24.6305  -31.8534   23.1968 C   0  0  0  0  0  0
  -25.9114  -32.4770   23.8331 C   0  0  1  0  0  0
  -27.2275  -27.2501   20.1553 C   0  0  0  0  0  0
  -25.5882  -33.8575   24.2250 N   0  0  0  0  0  0
  -23.4317  -30.4706   21.5376 C   0  0  2  0  0  0
  -24.8840  -28.9141   20.1145 C   0  0  0  0  0  0
  -22.7533  -29.4576   22.4903 C   0  0  0  0  0  0
  -18.0304  -28.1383   22.8478 C   0  0  0  0  0  0
  -24.1505  -36.7321   23.2642 C   0  0  0  0  0  0
  -25.9775  -30.7654   21.3780 C   0  0  0  0  0  0
  -26.0535  -29.3843   20.7254 C   0  0  0  0  0  0
  -27.2309  -28.5693   20.7259 C   0  0  0  0  0  0
  -26.0359  -26.8451   19.5144 C   0  0  0  0  0  0
  -24.8826  -27.6556   19.4917 C   0  0  0  0  0  0
  -23.6547  -29.8024   20.1548 C   0  0  0  0  0  0
  -25.4124  -36.3104   24.0337 C   0  0  1  0  0  0
  -20.5908  -28.3700   23.1267 C   0  0  2  0  0  0
  -20.6796  -26.9408   22.5405 C   0  0  0  0  0  0
  -19.5774  -26.6375   21.5221 C   0  0  0  0  0  0
  -18.1949  -26.7917   22.1622 C   0  0  0  0  0  0
  -19.1551  -28.8861   23.2871 C   0  0  0  0  0  0
  -18.9463  -30.1463   23.8887 C   0  0  0  0  0  0
  -17.6458  -30.6576   24.0552 C   0  0  0  0  0  0
  -25.9044  -34.9463   23.5106 C   0  0  0  0  0  0
  -16.5357  -29.9060   23.6332 C   0  0  0  0  0  0
  -16.7288  -28.6489   23.0341 C   0  0  0  0  0  0
  -26.4487  -31.6603   25.0722 C   0  0  0  0  0  0
  -25.3700  -31.3733   26.1431 C   0  0  0  0  0  0
  -27.0365  -30.3029   24.6230 C   0  0  0  0  0  0
  -27.6058  -32.4360   25.7455 C   0  0  0  0  0  0
  -27.5608  -37.1816   24.8460 C   0  0  0  0  0  0
  -21.4236  -29.3039   22.3661 N   0  0  0  0  0  0
  -26.4322  -37.3785   23.9394 N   0  0  0  0  0  0
  -24.6985  -31.0496   22.0939 N   0  0  0  0  0  0
  -23.4243  -28.8134   23.3010 O   0  0  0  0  0  0
  -28.3317  -26.3662   20.1747 O   0  0  0  0  0  0
  -26.5649  -34.8915   22.4696 O   0  0  0  0  0  0
  -23.5449  -32.1363   23.7238 O   0  0  0  0  0  0
  -28.1147  -21.6239   21.5250 C   0  0  0  0  0  0
  -29.7269  -21.1073   20.1211 C   0  0  0  0  0  0
  -28.9121  -22.1932   20.4819 C   0  0  0  0  0  0
  -28.4820  -20.3142   21.7775 C   0  0  0  0  0  0
  -26.9370  -18.3490   22.6222 C   0  0  0  0  0  0
  -26.6565  -19.5464   23.5053 C   0  0  0  0  0  0
  -28.0109  -19.3839   22.8572 C   0  0  0  0  0  0
  -30.2571  -18.5975   20.9508 C   0  0  0  0  0  0
  -29.7287  -17.2645   20.2031 C   0  0  0  0  0  0
  -28.1529  -24.9359   20.6403 C   0  0  0  0  0  0
  -28.8566  -23.6821   19.8722 C   0  0  2  0  0  0
  -29.4905  -19.9351   20.8979 N   0  0  0  0  0  0
  -29.8177  -15.8487   20.8030 N   0  0  0  0  0  0
  -28.2610  -23.5602   18.5317 N   0  3  0  0  0  0
  -31.4856  -12.5735   19.2001 H   0  0  0  0  0  0
  -30.3857  -11.4765   19.9827 H   0  0  0  0  0  0
  -29.8243  -11.7479   17.5352 H   0  0  0  0  0  0
  -29.6421  -13.4712   17.7515 H   0  0  0  0  0  0
  -27.9467  -11.2558   18.9586 H   0  0  0  0  0  0
  -27.3999  -12.4521   17.8120 H   0  0  0  0  0  0
  -27.6385  -14.2424   19.4599 H   0  0  0  0  0  0
  -28.7181  -12.1592   21.4379 H   0  0  0  0  0  0
  -28.3880  -13.8366   21.8013 H   0  0  0  0  0  0
  -25.2724   -9.5770   22.4722 H   0  0  0  0  0  0
  -24.0046   -7.4628   22.7366 H   0  0  0  0  0  0
  -21.0943   -8.8652   19.8764 H   0  0  0  0  0  0
  -22.3727  -10.9545   19.5954 H   0  0  0  0  0  0
  -21.1915   -7.6116   23.9706 H   0  0  0  0  0  0
  -21.1477   -6.0486   25.9104 H   0  0  0  0  0  0
  -22.0619   -2.7599   23.2844 H   0  0  0  0  0  0
  -22.4175  -11.9697   22.4570 H   0  0  0  0  0  0
  -21.0899  -13.0718   22.2118 H   0  0  0  0  0  0
  -24.6935  -15.8599   20.5977 H   0  0  0  0  0  0
  -26.3172  -15.6248   20.1894 H   0  0  0  0  0  0
  -26.7183  -32.5426   23.1078 H   0  0  0  0  0  0
  -24.9965  -33.9699   25.0350 H   0  0  0  0  0  0
  -22.7305  -31.2933   21.3875 H   0  0  0  0  0  0
  -23.3781  -35.9637   23.3267 H   0  0  0  0  0  0
  -24.3620  -36.8985   22.2068 H   0  0  0  0  0  0
  -23.7238  -37.6502   23.6690 H   0  0  0  0  0  0
  -26.1211  -31.5255   20.6084 H   0  0  0  0  0  0
  -26.8528  -30.8143   22.0140 H   0  0  0  0  0  0
  -28.1308  -28.9295   21.2052 H   0  0  0  0  0  0
  -25.9845  -25.8805   19.0318 H   0  0  0  0  0  0
  -23.9910  -27.2956   18.9994 H   0  0  0  0  0  0
  -23.7828  -30.5756   19.3947 H   0  0  0  0  0  0
  -22.7745  -29.2313   19.8546 H   0  0  0  0  0  0
  -25.1313  -36.1980   25.0839 H   0  0  0  0  0  0
  -21.0012  -28.3261   24.1391 H   0  0  0  0  0  0
  -20.5704  -26.2309   23.3611 H   0  0  0  0  0  0
  -21.6655  -26.7422   22.1195 H   0  0  0  0  0  0
  -19.6915  -25.6291   21.1254 H   0  0  0  0  0  0
  -19.6689  -27.3188   20.6754 H   0  0  0  0  0  0
  -17.4216  -26.6674   21.4022 H   0  0  0  0  0  0
  -18.0315  -26.0065   22.9026 H   0  0  0  0  0  0
  -19.7934  -30.7289   24.2246 H   0  0  0  0  0  0
  -17.4996  -31.6247   24.5162 H   0  0  0  0  0  0
  -15.5351  -30.2939   23.7660 H   0  0  0  0  0  0
  -15.8701  -28.0804   22.7040 H   0  0  0  0  0  0
  -24.5883  -30.7092   25.7741 H   0  0  0  0  0  0
  -24.8858  -32.2877   26.4862 H   0  0  0  0  0  0
  -25.7978  -30.8889   27.0214 H   0  0  0  0  0  0
  -26.2940  -29.6705   24.1354 H   0  0  0  0  0  0
  -27.4172  -29.7379   25.4753 H   0  0  0  0  0  0
  -27.8760  -30.4338   23.9402 H   0  0  0  0  0  0
  -27.2699  -33.3675   26.2017 H   0  0  0  0  0  0
  -28.3817  -32.6908   25.0230 H   0  0  0  0  0  0
  -28.0785  -31.8505   26.5343 H   0  0  0  0  0  0
  -28.2614  -38.0128   24.7526 H   0  0  0  0  0  0
  -28.1116  -36.2660   24.6260 H   0  0  0  0  0  0
  -27.2330  -37.1443   25.8864 H   0  0  0  0  0  0
  -20.9447  -29.8760   21.6852 H   0  0  0  0  0  0
  -26.0221  -38.2883   24.1340 H   0  0  0  0  0  0
  -27.3515  -22.1464   22.0846 H   0  0  0  0  0  0
  -30.5113  -21.0782   19.3751 H   0  0  0  0  0  0
  -26.4510  -18.3175   21.6484 H   0  0  0  0  0  0
  -27.0563  -17.3856   23.1157 H   0  0  0  0  0  0
  -26.6025  -19.3816   24.5822 H   0  0  0  0  0  0
  -25.9849  -20.3103   23.1196 H   0  0  0  0  0  0
  -28.8282  -19.1090   23.5224 H   0  0  0  0  0  0
  -31.2584  -18.8074   20.5735 H   0  0  0  0  0  0
  -30.4129  -18.3500   21.9988 H   0  0  0  0  0  0
  -30.1830  -17.2348   19.2116 H   0  0  0  0  0  0
  -28.6693  -17.4289   20.0083 H   0  0  0  0  0  0
  -28.5495  -24.9271   21.6552 H   0  0  0  0  0  0
  -27.0968  -24.7148   20.7715 H   0  0  0  0  0  0
  -29.8996  -23.9656   19.7316 H   0  0  0  0  0  0
  -28.9694  -15.5741   21.2773 H   0  0  0  0  0  0
  -27.2795  -23.3453   18.5850 H   0  0  0  0  0  0
  -28.7077  -22.8160   18.0275 H   0  0  0  0  0  0
  -28.3873  -24.4122   18.0144 H   0  0  0  0  0  0
  1 25  1  0  0  0
  1 30  2  0  0  0
  1 83  1  0  0  0
  2  3  1  0  0  0
  2 25  1  0  0  0
  2 85  1  0  0  0
  2 86  1  0  0  0
  3  4  1  0  0  0
  3 87  1  0  0  0
  3 88  1  0  0  0
  4  5  1  0  0  0
  4 89  1  0  0  0
  4 90  1  0  0  0
  5  6  1  0  0  0
  5 26  1  0  0  0
  5 91  1  0  0  0
  6 25  1  0  0  0
  6 92  1  0  0  0
  6 93  1  0  0  0
  7  8  2  0  0  0
  7 26  1  0  0  0
  7 29  1  0  0  0
  8  9  1  0  0  0
  8 22  1  0  0  0
  9 10  1  0  0  0
  9 27  2  0  0  0
 10 11  2  0  0  0
 10 15  1  0  0  0
 11 12  1  0  0  0
 11 94  1  0  0  0
 12 13  2  0  0  0
 12 95  1  0  0  0
 13 14  1  0  0  0
 13 31  1  0  0  0
 14 15  2  0  0  0
 14 96  1  0  0  0
 15 97  1  0  0  0
 16 17  2  0  0  0
 16 21  1  0  0  0
 16 31  1  0  0  0
 17 18  1  0  0  0
 17 98  1  0  0  0
 18 19  2  0  0  0
 18 99  1  0  0  0
 19 20  1  0  0  0
 19 24  1  0  0  0
 20 21  2  0  0  0
 20100  1  0  0  0
 21 23  1  0  0  0
 22 28  1  0  0  0
 22 32  2  0  0  0
 26 27  1  0  0  0
 28101  1  0  0  0
 28102  1  0  0  0
 29103  1  0  0  0
 29104  1  0  0  0
 33 34  1  0  0  0
 33 66  1  0  0  0
 33 70  2  0  0  0
 34 36  1  0  0  0
 34 59  1  0  0  0
 34105  1  0  0  0
 35 44  2  0  0  0
 35 45  1  0  0  0
 35 68  1  0  0  0
 36 56  1  0  0  0
 36106  1  0  0  0
 37 39  1  0  0  0
 37 47  1  0  0  0
 37 66  1  0  0  0
 37107  1  0  0  0
 38 43  2  0  0  0
 38 46  1  0  0  0
 38 47  1  0  0  0
 39 64  1  0  0  0
 39 67  2  0  0  0
 40 52  1  0  0  0
 40 53  2  0  0  0
 40 58  1  0  0  0
 41108  1  0  0  0
 41109  1  0  0  0
 41110  1  0  0  0
 41 48  1  0  0  0
 42 43  1  0  0  0
 42 66  1  0  0  0
 42111  1  0  0  0
 42112  1  0  0  0
 43 44  1  0  0  0
 44113  1  0  0  0
 45 46  2  0  0  0
 45114  1  0  0  0
 46115  1  0  0  0
 47116  1  0  0  0
 47117  1  0  0  0
 48 56  1  0  0  0
 48 65  1  0  0  0
 48118  1  0  0  0
 49 50  1  0  0  0
 49 53  1  0  0  0
 49 64  1  0  0  0
 49119  1  0  0  0
 50 51  1  0  0  0
 50120  1  0  0  0
 50121  1  0  0  0
 51 52  1  0  0  0
 51122  1  0  0  0
 51123  1  0  0  0
 52124  1  0  0  0
 52125  1  0  0  0
 53 54  1  0  0  0
 54 55  2  0  0  0
 54126  1  0  0  0
 55 57  1  0  0  0
 55127  1  0  0  0
 56 69  2  0  0  0
 57 58  2  0  0  0
 57128  1  0  0  0
 58129  1  0  0  0
 59 60  1  0  0  0
 59 61  1  0  0  0
 59 62  1  0  0  0
 60130  1  0  0  0
 60131  1  0  0  0
 60132  1  0  0  0
 61133  1  0  0  0
 61134  1  0  0  0
 61135  1  0  0  0
 62136  1  0  0  0
 62137  1  0  0  0
 62138  1  0  0  0
 63 65  1  0  0  0
 63139  1  0  0  0
 63140  1  0  0  0
 63141  1  0  0  0
 64142  1  0  0  0
 65143  1  0  0  0
 68 80  1  0  0  0
 71 73  1  0  0  0
 71 74  2  0  0  0
 71144  1  0  0  0
 72 73  2  0  0  0
 72 82  1  0  0  0
 72145  1  0  0  0
 73 81  1  0  0  0
 74 82  1  0  0  0
 74 77  1  0  0  0
 75 76  1  0  0  0
 75 77  1  0  0  0
 75146  1  0  0  0
 75147  1  0  0  0
 76 77  1  0  0  0
 76148  1  0  0  0
 76149  1  0  0  0
 77150  1  0  0  0
 78 79  1  0  0  0
 78 82  1  0  0  0
 78151  1  0  0  0
 78152  1  0  0  0
 79 83  1  0  0  0
 79153  1  0  0  0
 79154  1  0  0  0
 80 81  1  0  0  0
 80155  1  0  0  0
 80156  1  0  0  0
 81 84  1  0  0  0
 81157  1  0  0  0
 83158  1  0  0  0
 84159  1  0  0  0
 84160  1  0  0  0
 84161  1  0  0  0
M  CHG  1  84   1
M  ISO  4   1 100  68 101  80 101  83 100
M  END
> <chiral flag>
0

> <version>
0

> <s_m_source_file>
/data/baiqing/PycharmProjects/Reinvent-master-3.2/result/LINK_invent/BTK/process_docking_weight1_custom_sum_contain_oxygen_bond_distance_aromatic_linkinvent_7_9_3/rearranged_h_0117.sdf

> <i_m_source_file_index>
93

> <r_mmod_Potential_Energy-OPLS-2005>
-59.3481101989746

> <r_mmod_Stretch_Energy-OPLS-2005>
131.995147705078

> <r_mmod_Bend_Energy-OPLS-2005>
182.134246826172

> <r_mmod_Torsional_Energy-OPLS-2005>
274.530120849609

> <r_mmod_Improper_Torsional_Energy-OPLS-2005>
7.01852083206177

> <r_mmod_Van_der_Waal_Energy-OPLS-2005>
102.037719726562

> <r_mmod_Electrostatic_Energy-OPLS-2005>
-372.682891845703

> <r_mmod_Solvation_Energy-OPLS-2005>
-473.033874511719

> <b_mmod_Minimization_Converged-OPLS-2005>
0

> <r_mmod_RMS_Derivative-OPLS-2005>
4.66869211196899

$$$$
94
                    3D
 Structure written by MMmdl.
172180  0  0  1  0            999 V2000
  -30.2673  -15.1034   20.5518 C   0  0  0  0  0  0
  -30.3710  -12.7260   19.5650 C   0  0  0  0  0  0
  -29.5057  -12.5513   18.2967 C   0  0  0  0  0  0
  -28.0429  -12.2838   18.6919 C   0  0  0  0  0  0
  -27.5621  -13.2387   19.8175 C   0  0  2  0  0  0
  -28.5361  -13.3010   20.9943 C   0  0  0  0  0  0
  -25.1985  -13.8050   20.5511 C   0  0  0  0  0  0
  -24.1458  -13.0277   20.9250 C   0  0  0  0  0  0
  -24.6156  -11.6796   20.8798 C   0  0  0  0  0  0
  -23.8936  -10.4181   21.0462 C   0  0  0  0  0  0
  -24.3540   -9.4118   21.9225 C   0  0  0  0  0  0
  -23.6242   -8.2146   22.0759 C   0  0  0  0  0  0
  -22.4231   -8.0190   21.3540 C   0  0  0  0  0  0
  -21.9838   -9.0152   20.4651 C   0  0  0  0  0  0
  -22.7134  -10.2038   20.3083 C   0  0  0  0  0  0
  -21.6815   -6.0692   22.5293 C   0  0  0  0  0  0
  -21.3978   -6.5613   23.8221 C   0  0  0  0  0  0
  -21.3651   -5.6780   24.9192 C   0  0  0  0  0  0
  -21.6042   -4.3043   24.7253 C   0  0  0  0  0  0
  -21.8823   -3.8123   23.4380 C   0  0  0  0  0  0
  -21.9182   -4.6927   22.3425 C   0  0  0  0  0  0
  -22.7523  -13.5079   21.1951 C   0  0  0  0  0  0
  -22.1664   -4.2109   21.1006 F   0  0  0  0  0  0
  -21.5635   -3.4535   25.7775 F   0  0  0  0  0  0
  -29.7552  -13.8120   20.4142 N   0  0  0  0  0  0
  -26.2363  -12.9309   20.2948 N   0  0  0  0  0  0
  -25.9026  -11.6458   20.5640 N   0  0  0  0  0  0
  -22.0209  -12.8103   22.0548 N   0  0  0  0  0  0
  -25.3349  -15.1742   20.3742 N   0  0  0  0  0  0
  -31.5024  -15.0858   20.3472 O   0  0  0  0  0  0
  -21.6585   -6.8807   21.4244 O   0  0  0  0  0  0
  -22.3222  -14.5392   20.6786 O   0  0  0  0  0  0
  -24.7411  -32.0219   23.1798 C   0  0  0  0  0  0
  -26.0207  -32.5356   23.8600 C   0  0  1  0  0  0
  -26.1251  -27.0787   20.7852 C   0  0  0  0  0  0
  -25.7015  -33.9033   24.2721 N   0  0  0  0  0  0
  -23.5610  -30.8256   21.4260 C   0  0  2  0  0  0
  -24.8362  -29.1763   19.9449 C   0  0  0  0  0  0
  -22.9707  -29.9027   22.4426 C   0  0  0  0  0  0
  -18.5310  -27.4195   23.3261 C   0  0  0  0  0  0
  -24.1556  -36.7387   23.2565 C   0  0  0  0  0  0
  -26.0572  -30.8397   21.3819 C   0  0  0  0  0  0
  -25.9300  -29.4507   20.7708 C   0  0  0  0  0  0
  -26.6848  -28.3387   21.1788 C   0  0  0  0  0  0
  -25.7581  -26.9935   19.4522 C   0  0  0  0  0  0
  -24.8134  -27.9891   19.1781 C   0  0  0  0  0  0
  -23.7006  -30.1551   20.0187 C   0  0  0  0  0  0
  -25.4191  -36.3297   24.0302 C   0  0  1  0  0  0
  -21.3354  -28.5733   22.6099 C   0  0  2  0  0  0
  -21.7125  -27.3474   20.6147 C   0  0  0  0  0  0
  -20.1734  -25.6900   20.6141 C   0  0  0  0  0  0
  -18.7875  -25.8370   22.2576 C   0  0  0  0  0  0
  -19.6809  -28.5404   23.5350 C   0  0  0  0  0  0
  -19.2282  -29.8501   23.9471 C   0  0  0  0  0  0
  -17.8761  -30.2760   24.0205 C   0  0  0  0  0  0
  -25.9333  -34.9769   23.5123 C   0  0  0  0  0  0
  -16.8617  -29.3817   23.6560 C   0  0  0  0  0  0
  -17.1916  -28.0289   23.3178 C   0  0  0  0  0  0
  -26.4791  -31.6667   25.0898 C   0  0  0  0  0  0
  -25.3659  -31.3917   26.1268 C   0  0  0  0  0  0
  -27.0359  -30.2996   24.6290 C   0  0  0  0  0  0
  -27.6326  -32.4009   25.8076 C   0  0  0  0  0  0
  -27.5629  -37.1964   24.8456 C   0  0  0  0  0  0
  -21.6787  -29.8355   22.3307 N   0  0  0  0  0  0
  -26.4313  -37.4018   23.9446 N   0  0  0  0  0  0
  -24.8148  -31.2948   22.0243 N   0  0  0  0  0  0
  -23.6658  -29.3006   23.2919 O   0  0  0  0  0  0
  -25.1366  -26.2959   21.5343 O   0  0  0  0  0  0
  -26.5479  -34.9159   22.4443 O   0  0  0  0  0  0
  -23.6550  -32.3157   23.7130 O   0  0  0  0  0  0
  -21.8402  -24.5246   22.4957 C   0  0  0  0  0  0
  -26.3558  -18.9138   22.5382 C   0  0  0  0  0  0
  -26.9147  -19.6910   20.3496 C   0  0  0  0  0  0
  -27.6977  -17.9247   22.3322 C   0  0  0  0  0  0
  -27.3245  -18.1450   19.9421 C   0  0  0  0  0  0
  -25.7640  -19.9639   21.4376 C   0  0  2  0  0  0
  -28.0542  -17.1016   20.9674 C   0  0  1  0  0  0
  -30.7792  -18.5478   21.2114 C   0  0  0  0  0  0
  -25.1632  -21.6007   21.7580 C   0  0  0  0  0  0
  -30.3558  -17.5391   20.1307 C   0  0  0  0  0  0
  -23.5733  -22.2764   22.0693 C   0  0  0  0  0  0
  -23.5039  -26.5792   22.3248 C   0  0  0  0  0  0
  -21.4103  -26.2472   22.5303 C   0  0  1  0  0  0
  -23.0853  -23.8390   22.1363 N   0  0  0  0  0  0
  -29.5156  -16.4015   20.6246 N   0  0  0  0  0  0
  -19.7061  -27.7037   21.3544 N   0  3  0  0  0  0
  -20.9633  -23.7552   22.8890 O   0  0  0  0  0  0
  -31.3942  -12.9522   19.2628 H   0  0  0  0  0  0
  -30.4355  -11.7937   20.1272 H   0  0  0  0  0  0
  -29.8916  -11.7377   17.6818 H   0  0  0  0  0  0
  -29.5605  -13.4536   17.6861 H   0  0  0  0  0  0
  -27.9845  -11.2527   19.0422 H   0  0  0  0  0  0
  -27.3906  -12.3459   17.8195 H   0  0  0  0  0  0
  -27.5133  -14.2288   19.3625 H   0  0  0  0  0  0
  -28.6767  -12.3253   21.4611 H   0  0  0  0  0  0
  -28.1671  -13.9757   21.7689 H   0  0  0  0  0  0
  -25.2674   -9.5606   22.4813 H   0  0  0  0  0  0
  -23.9950   -7.4514   22.7455 H   0  0  0  0  0  0
  -21.0772   -8.8650   19.8951 H   0  0  0  0  0  0
  -22.3582  -10.9588   19.6208 H   0  0  0  0  0  0
  -21.1948   -7.6116   23.9716 H   0  0  0  0  0  0
  -21.1478   -6.0513   25.9096 H   0  0  0  0  0  0
  -22.0613   -2.7581   23.2902 H   0  0  0  0  0  0
  -22.3812  -11.9779   22.4981 H   0  0  0  0  0  0
  -21.0836  -13.1143   22.2757 H   0  0  0  0  0  0
  -24.5613  -15.8132   20.5179 H   0  0  0  0  0  0
  -26.1675  -15.6307   20.0303 H   0  0  0  0  0  0
  -26.8495  -32.5866   23.1544 H   0  0  0  0  0  0
  -25.1488  -34.0137   25.1095 H   0  0  0  0  0  0
  -22.9058  -31.6934   21.3040 H   0  0  0  0  0  0
  -23.3882  -35.9649   23.3205 H   0  0  0  0  0  0
  -24.3676  -36.9058   22.1987 H   0  0  0  0  0  0
  -23.7224  -37.6542   23.6606 H   0  0  0  0  0  0
  -26.3090  -31.5459   20.5903 H   0  0  0  0  0  0
  -26.9200  -30.8187   22.0385 H   0  0  0  0  0  0
  -27.2583  -28.4364   22.0892 H   0  0  0  0  0  0
  -25.5333  -26.0384   19.0005 H   0  0  0  0  0  0
  -24.0410  -27.8207   18.4384 H   0  0  0  0  0  0
  -23.9034  -30.9338   19.2819 H   0  0  0  0  0  0
  -22.7658  -29.7033   19.7012 H   0  0  0  0  0  0
  -25.1329  -36.2107   25.0779 H   0  0  0  0  0  0
  -21.8059  -28.2321   23.5434 H   0  0  0  0  0  0
  -22.6758  -27.0323   20.2258 H   0  0  0  0  0  0
  -21.4597  -27.9932   19.7685 H   0  0  0  0  0  0
  -20.5390  -24.6892   20.3810 H   0  0  0  0  0  0
  -19.5865  -25.8472   19.7032 H   0  0  0  0  0  0
  -17.8087  -25.5689   21.8571 H   0  0  0  0  0  0
  -18.9611  -25.0394   22.9748 H   0  0  0  0  0  0
  -19.9742  -30.6155   24.1069 H   0  0  0  0  0  0
  -17.6387  -31.2974   24.2914 H   0  0  0  0  0  0
  -15.8324  -29.7122   23.6360 H   0  0  0  0  0  0
  -16.3704  -27.4018   22.9993 H   0  0  0  0  0  0
  -24.5708  -30.7660   25.7206 H   0  0  0  0  0  0
  -24.9072  -32.3159   26.4778 H   0  0  0  0  0  0
  -25.7566  -30.8731   27.0027 H   0  0  0  0  0  0
  -26.2893  -29.7078   24.0985 H   0  0  0  0  0  0
  -27.3574  -29.6990   25.4811 H   0  0  0  0  0  0
  -27.9077  -30.4100   23.9838 H   0  0  0  0  0  0
  -27.3029  -33.3271   26.2786 H   0  0  0  0  0  0
  -28.4382  -32.6558   25.1184 H   0  0  0  0  0  0
  -28.0659  -31.7868   26.5979 H   0  0  0  0  0  0
  -28.2561  -38.0350   24.7658 H   0  0  0  0  0  0
  -28.1231  -36.2900   24.6100 H   0  0  0  0  0  0
  -27.2370  -37.1379   25.8858 H   0  0  0  0  0  0
  -21.1974  -30.3893   21.6356 H   0  0  0  0  0  0
  -26.0165  -38.3048   24.1579 H   0  0  0  0  0  0
  -26.5164  -19.4710   23.4628 H   0  0  0  0  0  0
  -25.5258  -18.2499   22.7835 H   0  0  0  0  0  0
  -26.6149  -20.2118   19.4388 H   0  0  0  0  0  0
  -27.8190  -20.2128   20.6698 H   0  0  0  0  0  0
  -27.6648  -17.1846   23.1327 H   0  0  0  0  0  0
  -28.5525  -18.5363   22.6055 H   0  0  0  0  0  0
  -27.8446  -18.1708   18.9884 H   0  0  0  0  0  0
  -26.3791  -17.6829   19.6608 H   0  0  0  0  0  0
  -24.8871  -19.4740   21.0143 H   0  0  0  0  0  0
  -27.4320  -16.2205   21.0173 H   0  0  0  0  0  0
  -30.0394  -19.3404   21.3249 H   0  0  0  0  0  0
  -31.7035  -19.0514   20.9293 H   0  0  0  0  0  0
  -30.9428  -18.0739   22.1783 H   0  0  0  0  0  0
  -25.4749  -22.1554   20.8724 H   0  0  0  0  0  0
  -25.8108  -22.0049   22.5370 H   0  0  0  0  0  0
  -31.2770  -17.2367   19.6340 H   0  0  0  0  0  0
  -29.8763  -18.0647   19.3101 H   0  0  0  0  0  0
  -23.2514  -21.8451   23.0178 H   0  0  0  0  0  0
  -22.9073  -21.8226   21.3337 H   0  0  0  0  0  0
  -23.8158  -26.6114   23.3688 H   0  0  0  0  0  0
  -23.6196  -27.5668   21.9704 H   0  0  0  0  0  0
  -21.1494  -26.2862   23.5911 H   0  0  0  0  0  0
  -23.8204  -24.4641   21.8288 H   0  0  0  0  0  0
  -19.8181  -27.6253   20.3591 H   0  0  0  0  0  0
  -18.7941  -27.3650   21.6285 H   0  0  0  0  0  0
  -19.7534  -28.6610   21.6643 H   0  0  0  0  0  0
  1 25  1  0  0  0
  1 30  2  0  0  0
  1 85  1  0  0  0
  2  3  1  0  0  0
  2 25  1  0  0  0
  2 88  1  0  0  0
  2 89  1  0  0  0
  3  4  1  0  0  0
  3 90  1  0  0  0
  3 91  1  0  0  0
  4  5  1  0  0  0
  4 92  1  0  0  0
  4 93  1  0  0  0
  5  6  1  0  0  0
  5 26  1  0  0  0
  5 94  1  0  0  0
  6 25  1  0  0  0
  6 95  1  0  0  0
  6 96  1  0  0  0
  7  8  2  0  0  0
  7 26  1  0  0  0
  7 29  1  0  0  0
  8  9  1  0  0  0
  8 22  1  0  0  0
  9 10  1  0  0  0
  9 27  2  0  0  0
 10 11  2  0  0  0
 10 15  1  0  0  0
 11 12  1  0  0  0
 11 97  1  0  0  0
 12 13  2  0  0  0
 12 98  1  0  0  0
 13 14  1  0  0  0
 13 31  1  0  0  0
 14 15  2  0  0  0
 14 99  1  0  0  0
 15100  1  0  0  0
 16 17  2  0  0  0
 16 21  1  0  0  0
 16 31  1  0  0  0
 17 18  1  0  0  0
 17101  1  0  0  0
 18 19  2  0  0  0
 18102  1  0  0  0
 19 20  1  0  0  0
 19 24  1  0  0  0
 20 21  2  0  0  0
 20103  1  0  0  0
 21 23  1  0  0  0
 22 28  1  0  0  0
 22 32  2  0  0  0
 26 27  1  0  0  0
 28104  1  0  0  0
 28105  1  0  0  0
 29106  1  0  0  0
 29107  1  0  0  0
 33 34  1  0  0  0
 33 66  1  0  0  0
 33 70  2  0  0  0
 34 36  1  0  0  0
 34 59  1  0  0  0
 34108  1  0  0  0
 35 44  2  0  0  0
 35 45  1  0  0  0
 35 68  1  0  0  0
 36 56  1  0  0  0
 36109  1  0  0  0
 37 39  1  0  0  0
 37 47  1  0  0  0
 37 66  1  0  0  0
 37110  1  0  0  0
 38 43  2  0  0  0
 38 46  1  0  0  0
 38 47  1  0  0  0
 39 64  1  0  0  0
 39 67  2  0  0  0
 40 52  1  0  0  0
 40 53  2  0  0  0
 40 58  1  0  0  0
 41111  1  0  0  0
 41112  1  0  0  0
 41113  1  0  0  0
 41 48  1  0  0  0
 42 43  1  0  0  0
 42 66  1  0  0  0
 42114  1  0  0  0
 42115  1  0  0  0
 43 44  1  0  0  0
 44116  1  0  0  0
 45 46  2  0  0  0
 45117  1  0  0  0
 46118  1  0  0  0
 47119  1  0  0  0
 47120  1  0  0  0
 48 56  1  0  0  0
 48 65  1  0  0  0
 48121  1  0  0  0
 49 50  1  0  0  0
 49 53  1  0  0  0
 49 64  1  0  0  0
 49122  1  0  0  0
 50 51  1  0  0  0
 50123  1  0  0  0
 50124  1  0  0  0
 51 52  1  0  0  0
 51125  1  0  0  0
 51126  1  0  0  0
 52127  1  0  0  0
 52128  1  0  0  0
 53 54  1  0  0  0
 54 55  2  0  0  0
 54129  1  0  0  0
 55 57  1  0  0  0
 55130  1  0  0  0
 56 69  2  0  0  0
 57 58  2  0  0  0
 57131  1  0  0  0
 58132  1  0  0  0
 59 60  1  0  0  0
 59 61  1  0  0  0
 59 62  1  0  0  0
 60133  1  0  0  0
 60134  1  0  0  0
 60135  1  0  0  0
 61136  1  0  0  0
 61137  1  0  0  0
 61138  1  0  0  0
 62139  1  0  0  0
 62140  1  0  0  0
 62141  1  0  0  0
 63 65  1  0  0  0
 63142  1  0  0  0
 63143  1  0  0  0
 63144  1  0  0  0
 64145  1  0  0  0
 65146  1  0  0  0
 68 82  1  0  0  0
 71 83  1  0  0  0
 71 84  1  0  0  0
 71 87  2  0  0  0
 72 74  1  0  0  0
 72 76  1  0  0  0
 72147  1  0  0  0
 72148  1  0  0  0
 73 75  1  0  0  0
 73 76  1  0  0  0
 73149  1  0  0  0
 73150  1  0  0  0
 74 77  1  0  0  0
 74151  1  0  0  0
 74152  1  0  0  0
 75 77  1  0  0  0
 75153  1  0  0  0
 75154  1  0  0  0
 76 79  1  0  0  0
 76155  1  0  0  0
 77 85  1  0  0  0
 77156  1  0  0  0
 78 80  1  0  0  0
 78157  1  0  0  0
 78158  1  0  0  0
 78159  1  0  0  0
 79 81  1  0  0  0
 79160  1  0  0  0
 79161  1  0  0  0
 80 85  1  0  0  0
 80162  1  0  0  0
 80163  1  0  0  0
 81 84  1  0  0  0
 81164  1  0  0  0
 81165  1  0  0  0
 82 83  1  0  0  0
 82166  1  0  0  0
 82167  1  0  0  0
 83 86  1  0  0  0
 83168  1  0  0  0
 84169  1  0  0  0
 86170  1  0  0  0
 86171  1  0  0  0
 86172  1  0  0  0
M  CHG  1  86   1
M  ISO  4   1 100  68 101  82 101  85 100
M  END
> <chiral flag>
0

> <version>
0

> <s_m_source_file>
/data/baiqing/PycharmProjects/Reinvent-master-3.2/result/LINK_invent/BTK/process_docking_weight1_custom_sum_contain_oxygen_bond_distance_aromatic_linkinvent_7_9_3/rearranged_h_0117.sdf

> <i_m_source_file_index>
94

> <r_mmod_Potential_Energy-OPLS-2005>
11663.173828125

> <r_mmod_Stretch_Energy-OPLS-2005>
5329.87255859375

> <r_mmod_Bend_Energy-OPLS-2005>
1017.81744384766

> <r_mmod_Torsional_Energy-OPLS-2005>
644.587463378906

> <r_mmod_Improper_Torsional_Energy-OPLS-2005>
48.7689743041992

> <r_mmod_Van_der_Waal_Energy-OPLS-2005>
2227.79052734375

> <r_mmod_Electrostatic_Energy-OPLS-2005>
-351.797027587891

> <r_mmod_Solvation_Energy-OPLS-2005>
-426.918609619141

> <b_mmod_Minimization_Converged-OPLS-2005>
0

> <r_mmod_RMS_Derivative-OPLS-2005>
4.62092971801758

$$$$
95
                    3D
 Structure written by MMmdl.
167175  0  0  1  0            999 V2000
  -29.5019  -13.5266   21.4447 C   0  0  0  0  0  0
  -30.8100  -12.7224   19.2906 C   0  0  0  0  0  0
  -30.0423  -12.8734   17.8654 C   0  0  0  0  0  0
  -28.4920  -13.1046   17.8889 C   0  0  0  0  0  0
  -28.2208  -13.5719   19.3002 C   0  0  2  0  0  0
  -28.8463  -12.1865   19.9394 C   0  0  0  0  0  0
  -25.8038  -14.5843   21.1787 C   0  0  0  0  0  0
  -24.4956  -13.5521   21.5580 C   0  0  0  0  0  0
  -24.5090  -12.1650   20.6268 C   0  0  0  0  0  0
  -23.7049  -10.7970   21.0457 C   0  0  0  0  0  0
  -24.1536   -9.7796   21.9857 C   0  0  0  0  0  0
  -23.5602   -8.4854   22.1147 C   0  0  0  0  0  0
  -22.4114   -8.1516   21.3604 C   0  0  0  0  0  0
  -21.9371   -9.1283   20.4638 C   0  0  0  0  0  0
  -22.5629  -10.3938   20.3193 C   0  0  0  0  0  0
  -21.7226   -6.1204   22.5151 C   0  0  0  0  0  0
  -21.4230   -6.5958   23.8105 C   0  0  0  0  0  0
  -21.3785   -5.7033   24.9051 C   0  0  0  0  0  0
  -21.6045   -4.3272   24.7069 C   0  0  0  0  0  0
  -21.8710   -3.8432   23.4136 C   0  0  0  0  0  0
  -21.9269   -4.7349   22.3254 C   0  0  0  0  0  0
  -22.9983  -13.8866   21.6370 C   0  0  0  0  0  0
  -22.1661   -4.2500   21.0838 F   0  0  0  0  0  0
  -21.5604   -3.4671   25.7545 F   0  0  0  0  0  0
  -29.9434  -12.6664   20.4988 N   0  0  0  0  0  0
  -26.9249  -14.0050   19.7583 N   0  0  0  0  0  0
  -26.3751  -12.5473   19.2030 N   0  0  0  0  0  0
  -22.2228  -13.0218   22.2954 N   0  0  0  0  0  0
  -25.9711  -15.8408   21.5553 N   0  0  0  0  0  0
  -30.3356  -14.5032   21.4473 O   0  0  0  0  0  0
  -21.7303   -6.9458   21.4091 O   0  0  0  0  0  0
  -22.4725  -14.7578   20.9457 O   0  0  0  0  0  0
  -24.7074  -31.7849   23.1453 C   0  0  0  0  0  0
  -25.9620  -32.4355   23.7982 C   0  0  1  0  0  0
  -26.7182  -26.4041   20.0854 C   0  0  0  0  0  0
  -25.6148  -33.8219   24.1828 N   0  0  0  0  0  0
  -23.5023  -30.4265   21.5210 C   0  0  2  0  0  0
  -24.8443  -28.7671   20.0466 C   0  0  0  0  0  0
  -22.7713  -29.4322   22.4632 C   0  0  0  0  0  0
  -18.0313  -28.1430   22.8416 C   0  0  0  0  0  0
  -24.1483  -36.7100   23.2648 C   0  0  0  0  0  0
  -26.0879  -30.3794   21.4488 C   0  0  0  0  0  0
  -26.0378  -28.9452   20.7486 C   0  0  0  0  0  0
  -26.9877  -27.7721   20.7513 C   0  0  0  0  0  0
  -25.6051  -26.5479   19.2667 C   0  0  0  0  0  0
  -24.6925  -27.6195   19.2685 C   0  0  0  0  0  0
  -23.7192  -29.7965   20.1237 C   0  0  0  0  0  0
  -25.4163  -36.2846   24.0252 C   0  0  1  0  0  0
  -20.5953  -28.3809   23.1062 C   0  0  2  0  0  0
  -20.6797  -26.9477   22.5349 C   0  0  0  0  0  0
  -19.5783  -26.6376   21.5166 C   0  0  0  0  0  0
  -18.1958  -26.7945   22.1573 C   0  0  0  0  0  0
  -19.1587  -28.8936   23.2729 C   0  0  0  0  0  0
  -18.9496  -30.1507   23.8808 C   0  0  0  0  0  0
  -17.6497  -30.6625   24.0539 C   0  0  0  0  0  0
  -25.9201  -34.9257   23.4878 C   0  0  0  0  0  0
  -16.5382  -29.9115   23.6354 C   0  0  0  0  0  0
  -16.7289  -28.6528   23.0371 C   0  0  0  0  0  0
  -26.4668  -31.6526   25.0740 C   0  0  0  0  0  0
  -25.3651  -31.3983   26.1299 C   0  0  0  0  0  0
  -27.0663  -30.2834   24.6914 C   0  0  0  0  0  0
  -27.6067  -32.4463   25.7569 C   0  0  0  0  0  0
  -27.5571  -37.1704   24.8461 C   0  0  0  0  0  0
  -21.4370  -29.3055   22.3376 N   0  0  0  0  0  0
  -26.4262  -37.3650   23.9419 N   0  0  0  0  0  0
  -24.8005  -30.9042   22.0874 N   0  0  0  0  0  0
  -23.4142  -28.7849   23.2938 O   0  0  0  0  0  0
  -27.2225  -24.9019   20.1123 O   0  0  0  0  0  0
  -26.5831  -34.8885   22.4497 O   0  0  0  0  0  0
  -23.6097  -32.1196   23.6271 O   0  0  0  0  0  0
  -24.2059  -12.7086   18.2725 C   0  0  0  0  0  0
  -25.7315  -10.3058   19.5093 C   0  0  0  0  0  0
  -24.6885  -11.0780   18.3897 C   0  0  0  0  0  0
  -24.7499  -13.9321   19.3084 C   0  0  0  0  0  0
  -26.5627  -12.4458   21.3165 C   0  0  0  0  0  0
  -25.3945  -10.2933   16.1255 C   0  0  0  0  0  0
  -22.9211  -10.5063   16.6137 C   0  0  0  0  0  0
  -23.7038  -16.2532   18.0269 C   0  0  0  0  0  0
  -26.3155  -21.2031   19.9608 C   0  0  0  0  0  0
  -25.5513  -17.7902   19.6101 C   0  0  0  0  0  0
  -26.5235  -23.2329   19.5903 C   0  0  0  0  0  0
  -24.3059  -10.1950   17.2088 C   0  0  0  0  0  0
  -24.9104  -15.9190   18.9093 C   0  0  1  0  0  0
  -26.5101  -10.8550   20.8473 N   0  0  0  0  0  0
  -28.0431  -13.2011   21.9809 N   0  0  0  0  0  0
  -25.7188  -19.6009   19.2097 N   0  3  0  0  0  0
  -31.5190  -13.5448   19.3975 H   0  0  0  0  0  0
  -31.4314  -11.8245   19.2677 H   0  0  0  0  0  0
  -30.2535  -11.9995   17.2454 H   0  0  0  0  0  0
  -30.4968  -13.7077   17.3259 H   0  0  0  0  0  0
  -27.9954  -12.1995   17.5273 H   0  0  0  0  0  0
  -28.2040  -13.8893   17.1864 H   0  0  0  0  0  0
  -28.8113  -14.4953   19.3179 H   0  0  0  0  0  0
  -28.9699  -11.3400   19.2524 H   0  0  0  0  0  0
  -28.6113  -11.4497   20.6905 H   0  0  0  0  0  0
  -25.0083   -9.9860   22.6121 H   0  0  0  0  0  0
  -23.9686   -7.7762   22.8203 H   0  0  0  0  0  0
  -21.0693   -8.9152   19.8567 H   0  0  0  0  0  0
  -22.1621  -11.0894   19.5975 H   0  0  0  0  0  0
  -21.2240   -7.6460   23.9663 H   0  0  0  0  0  0
  -21.1700   -6.0813   25.8964 H   0  0  0  0  0  0
  -22.0285   -2.7866   23.2547 H   0  0  0  0  0  0
  -22.6360  -12.2672   22.8249 H   0  0  0  0  0  0
  -21.2213  -13.1500   22.3302 H   0  0  0  0  0  0
  -25.4345  -16.2625   22.3052 H   0  0  0  0  0  0
  -26.8031  -16.3749   21.3327 H   0  0  0  0  0  0
  -26.7727  -32.4642   23.0688 H   0  0  0  0  0  0
  -25.0169  -33.9239   24.9891 H   0  0  0  0  0  0
  -22.8424  -31.2865   21.3744 H   0  0  0  0  0  0
  -23.3804  -35.9367   23.3210 H   0  0  0  0  0  0
  -24.3531  -36.8885   22.2082 H   0  0  0  0  0  0
  -23.7158  -37.6214   23.6800 H   0  0  0  0  0  0
  -26.3905  -31.0934   20.6809 H   0  0  0  0  0  0
  -26.9196  -30.3514   22.1386 H   0  0  0  0  0  0
  -27.8707  -27.8587   21.3658 H   0  0  0  0  0  0
  -25.3113  -25.7038   18.6605 H   0  0  0  0  0  0
  -23.8015  -27.5179   18.6590 H   0  0  0  0  0  0
  -23.9415  -30.5912   19.4120 H   0  0  0  0  0  0
  -22.7885  -29.3534   19.7653 H   0  0  0  0  0  0
  -25.1358  -36.1595   25.0737 H   0  0  0  0  0  0
  -21.0041  -28.3445   24.1177 H   0  0  0  0  0  0
  -20.5627  -26.2473   23.3630 H   0  0  0  0  0  0
  -21.6664  -26.7398   22.1197 H   0  0  0  0  0  0
  -19.6980  -25.6252   21.1300 H   0  0  0  0  0  0
  -19.6745  -27.3086   20.6615 H   0  0  0  0  0  0
  -17.4225  -26.6612   21.3990 H   0  0  0  0  0  0
  -18.0392  -26.0121   22.9005 H   0  0  0  0  0  0
  -19.7987  -30.7321   24.2148 H   0  0  0  0  0  0
  -17.5076  -31.6293   24.5164 H   0  0  0  0  0  0
  -15.5399  -30.3011   23.7773 H   0  0  0  0  0  0
  -15.8650  -28.0844   22.7177 H   0  0  0  0  0  0
  -24.5814  -30.7381   25.7561 H   0  0  0  0  0  0
  -24.8903  -32.3283   26.4448 H   0  0  0  0  0  0
  -25.7730  -30.9291   27.0262 H   0  0  0  0  0  0
  -26.3416  -29.6295   24.2062 H   0  0  0  0  0  0
  -27.4090  -29.7492   25.5784 H   0  0  0  0  0  0
  -27.9403  -30.3900   24.0492 H   0  0  0  0  0  0
  -27.2563  -33.3856   26.1872 H   0  0  0  0  0  0
  -28.4005  -32.6898   25.0490 H   0  0  0  0  0  0
  -28.0612  -31.8824   26.5731 H   0  0  0  0  0  0
  -28.2509  -38.0074   24.7595 H   0  0  0  0  0  0
  -28.1140  -36.2605   24.6170 H   0  0  0  0  0  0
  -27.2300  -37.1205   25.8863 H   0  0  0  0  0  0
  -20.9665  -29.8777   21.6514 H   0  0  0  0  0  0
  -26.0071  -38.2692   24.1446 H   0  0  0  0  0  0
  -23.6541  -13.0204   17.3974 H   0  0  0  0  0  0
  -25.9085   -9.2533   19.3424 H   0  0  0  0  0  0
  -26.3717   -9.9969   16.5133 H   0  0  0  0  0  0
  -25.4909  -11.3191   15.7571 H   0  0  0  0  0  0
  -25.1740   -9.6507   15.2729 H   0  0  0  0  0  0
  -22.1515  -10.5729   17.3813 H   0  0  0  0  0  0
  -22.6113   -9.7280   15.9111 H   0  0  0  0  0  0
  -22.9180  -11.4473   16.0623 H   0  0  0  0  0  0
  -23.6518  -15.5769   17.1731 H   0  0  0  0  0  0
  -23.7984  -17.2572   17.6101 H   0  0  0  0  0  0
  -22.7594  -16.1876   18.5677 H   0  0  0  0  0  0
  -25.6817  -21.2133   20.8462 H   0  0  0  0  0  0
  -27.2885  -20.9271   20.3680 H   0  0  0  0  0  0
  -26.6038  -17.5917   19.8131 H   0  0  0  0  0  0
  -25.0480  -17.8921   20.5681 H   0  0  0  0  0  0
  -25.4917  -23.5053   19.3652 H   0  0  0  0  0  0
  -27.0017  -23.1869   18.6108 H   0  0  0  0  0  0
  -24.2808   -9.1656   17.5680 H   0  0  0  0  0  0
  -25.7134  -15.8081   18.1782 H   0  0  0  0  0  0
  -27.8143  -13.8895   22.6821 H   0  0  0  0  0  0
  -26.2229  -19.5829   18.3397 H   0  0  0  0  0  0
  -24.7740  -19.8275   18.9391 H   0  0  0  0  0  0
  1 25  1  0  0  0
  1 30  2  0  0  0
  1 85  1  0  0  0
  2  3  1  0  0  0
  2 25  1  0  0  0
  2 87  1  0  0  0
  2 88  1  0  0  0
  3  4  1  0  0  0
  3 89  1  0  0  0
  3 90  1  0  0  0
  4  5  1  0  0  0
  4 91  1  0  0  0
  4 92  1  0  0  0
  5  6  1  0  0  0
  5 26  1  0  0  0
  5 93  1  0  0  0
  6 25  1  0  0  0
  6 94  1  0  0  0
  6 95  1  0  0  0
  7  8  2  0  0  0
  7 26  1  0  0  0
  7 29  1  0  0  0
  8  9  1  0  0  0
  8 22  1  0  0  0
  9 10  1  0  0  0
  9 27  2  0  0  0
 10 11  2  0  0  0
 10 15  1  0  0  0
 11 12  1  0  0  0
 11 96  1  0  0  0
 12 13  2  0  0  0
 12 97  1  0  0  0
 13 14  1  0  0  0
 13 31  1  0  0  0
 14 15  2  0  0  0
 14 98  1  0  0  0
 15 99  1  0  0  0
 16 17  2  0  0  0
 16 21  1  0  0  0
 16 31  1  0  0  0
 17 18  1  0  0  0
 17100  1  0  0  0
 18 19  2  0  0  0
 18101  1  0  0  0
 19 20  1  0  0  0
 19 24  1  0  0  0
 20 21  2  0  0  0
 20102  1  0  0  0
 21 23  1  0  0  0
 22 28  1  0  0  0
 22 32  2  0  0  0
 26 27  1  0  0  0
 28103  1  0  0  0
 28104  1  0  0  0
 29105  1  0  0  0
 29106  1  0  0  0
 33 34  1  0  0  0
 33 66  1  0  0  0
 33 70  2  0  0  0
 34 36  1  0  0  0
 34 59  1  0  0  0
 34107  1  0  0  0
 35 44  2  0  0  0
 35 45  1  0  0  0
 35 68  1  0  0  0
 36 56  1  0  0  0
 36108  1  0  0  0
 37 39  1  0  0  0
 37 47  1  0  0  0
 37 66  1  0  0  0
 37109  1  0  0  0
 38 43  2  0  0  0
 38 46  1  0  0  0
 38 47  1  0  0  0
 39 64  1  0  0  0
 39 67  2  0  0  0
 40 52  1  0  0  0
 40 53  2  0  0  0
 40 58  1  0  0  0
 41110  1  0  0  0
 41111  1  0  0  0
 41112  1  0  0  0
 41 48  1  0  0  0
 42 43  1  0  0  0
 42 66  1  0  0  0
 42113  1  0  0  0
 42114  1  0  0  0
 43 44  1  0  0  0
 44115  1  0  0  0
 45 46  2  0  0  0
 45116  1  0  0  0
 46117  1  0  0  0
 47118  1  0  0  0
 47119  1  0  0  0
 48 56  1  0  0  0
 48 65  1  0  0  0
 48120  1  0  0  0
 49 50  1  0  0  0
 49 53  1  0  0  0
 49 64  1  0  0  0
 49121  1  0  0  0
 50 51  1  0  0  0
 50122  1  0  0  0
 50123  1  0  0  0
 51 52  1  0  0  0
 51124  1  0  0  0
 51125  1  0  0  0
 52126  1  0  0  0
 52127  1  0  0  0
 53 54  1  0  0  0
 54 55  2  0  0  0
 54128  1  0  0  0
 55 57  1  0  0  0
 55129  1  0  0  0
 56 69  2  0  0  0
 57 58  2  0  0  0
 57130  1  0  0  0
 58131  1  0  0  0
 59 60  1  0  0  0
 59 61  1  0  0  0
 59 62  1  0  0  0
 60132  1  0  0  0
 60133  1  0  0  0
 60134  1  0  0  0
 61135  1  0  0  0
 61136  1  0  0  0
 61137  1  0  0  0
 62138  1  0  0  0
 62139  1  0  0  0
 62140  1  0  0  0
 63 65  1  0  0  0
 63141  1  0  0  0
 63142  1  0  0  0
 63143  1  0  0  0
 64144  1  0  0  0
 65145  1  0  0  0
 68 81  1  0  0  0
 71 73  2  0  0  0
 71 74  1  0  0  0
 71146  1  0  0  0
 72 73  1  0  0  0
 72 84  2  0  0  0
 72147  1  0  0  0
 73 82  1  0  0  0
 74 75  2  0  0  0
 74 83  1  0  0  0
 75 84  1  0  0  0
 75 85  1  0  0  0
 76148  1  0  0  0
 76149  1  0  0  0
 76150  1  0  0  0
 76 82  1  0  0  0
 77 82  1  0  0  0
 77151  1  0  0  0
 77152  1  0  0  0
 77153  1  0  0  0
 78154  1  0  0  0
 78155  1  0  0  0
 78156  1  0  0  0
 78 83  1  0  0  0
 79 81  1  0  0  0
 79 86  1  0  0  0
 79157  1  0  0  0
 79158  1  0  0  0
 80 83  1  0  0  0
 80 86  1  0  0  0
 80159  1  0  0  0
 80160  1  0  0  0
 81161  1  0  0  0
 81162  1  0  0  0
 82163  1  0  0  0
 83164  1  0  0  0
 85165  1  0  0  0
 86166  1  0  0  0
 86167  1  0  0  0
M  CHG  1  86   1
M  ISO  4   1 100  68 101  81 101  85 100
M  END
> <chiral flag>
0

> <version>
0

> <s_m_source_file>
/data/baiqing/PycharmProjects/Reinvent-master-3.2/result/LINK_invent/BTK/process_docking_weight1_custom_sum_contain_oxygen_bond_distance_aromatic_linkinvent_7_9_3/rearranged_h_0117.sdf

> <i_m_source_file_index>
95

> <r_mmod_Potential_Energy-OPLS-2005>
20656.74609375

> <r_mmod_Stretch_Energy-OPLS-2005>
11990.67578125

> <r_mmod_Bend_Energy-OPLS-2005>
1433.48071289062

> <r_mmod_Torsional_Energy-OPLS-2005>
499.884826660156

> <r_mmod_Improper_Torsional_Energy-OPLS-2005>
77.3871994018555

> <r_mmod_Van_der_Waal_Energy-OPLS-2005>
4404.70556640625

> <r_mmod_Electrostatic_Energy-OPLS-2005>
-389.604064941406

> <r_mmod_Solvation_Energy-OPLS-2005>
-468.902282714844

> <b_mmod_Minimization_Converged-OPLS-2005>
0

> <r_mmod_RMS_Derivative-OPLS-2005>
9.97018337249756

$$$$
