0
                    3D
 Structure written by MMmdl.
153161  0  0  1  0            999 V2000
  -30.5813  -14.9936   20.3935 C   0  0  0  0  0  0
  -30.4327  -12.6247   19.4862 C   0  0  0  0  0  0
  -29.5110  -12.5150   18.2521 C   0  0  0  0  0  0
  -28.0562  -12.2701   18.6905 C   0  0  0  0  0  0
  -27.6169  -13.2250   19.8274 C   0  0  2  0  0  0
  -28.6693  -13.3387   20.9537 C   0  0  0  0  0  0
  -25.2423  -13.8112   20.5698 C   0  0  0  0  0  0
  -24.1747  -13.0367   20.9255 C   0  0  0  0  0  0
  -24.6354  -11.6855   20.8799 C   0  0  0  0  0  0
  -23.9040  -10.4246   21.0439 C   0  0  0  0  0  0
  -24.3594   -9.4162   21.9211 C   0  0  0  0  0  0
  -23.6264   -8.2203   22.0764 C   0  0  0  0  0  0
  -22.4251   -8.0251   21.3545 C   0  0  0  0  0  0
  -21.9890   -9.0228   20.4649 C   0  0  0  0  0  0
  -22.7224  -10.2104   20.3072 C   0  0  0  0  0  0
  -21.6840   -6.0717   22.5277 C   0  0  0  0  0  0
  -21.4007   -6.5629   23.8207 C   0  0  0  0  0  0
  -21.3655   -5.6788   24.9172 C   0  0  0  0  0  0
  -21.6042   -4.3052   24.7228 C   0  0  0  0  0  0
  -21.8820   -3.8137   23.4355 C   0  0  0  0  0  0
  -21.9191   -4.6943   22.3405 C   0  0  0  0  0  0
  -22.7779  -13.5170   21.1887 C   0  0  0  0  0  0
  -22.1663   -4.2133   21.0982 F   0  0  0  0  0  0
  -21.5625   -3.4537   25.7745 F   0  0  0  0  0  0
  -29.9316  -13.7549   20.3243 N   0  0  0  0  0  0
  -26.2830  -12.9303   20.3271 N   0  0  0  0  0  0
  -25.9279  -11.6466   20.5808 N   0  0  0  0  0  0
  -22.0428  -12.8173   22.0447 N   0  0  0  0  0  0
  -25.4008  -15.1828   20.4015 N   0  0  0  0  0  0
  -31.8070  -14.9670   20.2362 O   0  0  0  0  0  0
  -21.6621   -6.8848   21.4234 O   0  0  0  0  0  0
  -22.3486  -14.5486   20.6728 O   0  0  0  0  0  0
  -24.6453  -31.8431   23.1872 C   0  0  0  0  0  0
  -25.9217  -32.4691   23.8263 C   0  0  1  0  0  0
  -27.2209  -27.1228   20.1538 C   0  0  0  0  0  0
  -25.5959  -33.8495   24.2181 N   0  0  0  0  0  0
  -23.4489  -30.4618   21.5337 C   0  0  2  0  0  0
  -24.8988  -28.8850   20.1132 C   0  0  0  0  0  0
  -22.7566  -29.4538   22.4858 C   0  0  0  0  0  0
  -18.0293  -28.1397   22.8478 C   0  0  0  0  0  0
  -24.1496  -36.7251   23.2641 C   0  0  0  0  0  0
  -26.0062  -30.7129   21.3870 C   0  0  0  0  0  0
  -26.0781  -29.3226   20.7292 C   0  0  0  0  0  0
  -27.2404  -28.4596   20.7290 C   0  0  0  0  0  0
  -26.0119  -26.7900   19.5027 C   0  0  0  0  0  0
  -24.8795  -27.6323   19.4839 C   0  0  0  0  0  0
  -23.6756  -29.7884   20.1544 C   0  0  0  0  0  0
  -25.4128  -36.3022   24.0315 C   0  0  1  0  0  0
  -20.5905  -28.3722   23.1219 C   0  0  2  0  0  0
  -20.6773  -26.9426   22.5377 C   0  0  0  0  0  0
  -19.5738  -26.6380   21.5199 C   0  0  0  0  0  0
  -18.1935  -26.7926   22.1642 C   0  0  0  0  0  0
  -19.1552  -28.8882   23.2828 C   0  0  0  0  0  0
  -18.9470  -30.1479   23.8852 C   0  0  0  0  0  0
  -17.6470  -30.6592   24.0554 C   0  0  0  0  0  0
  -25.9077  -34.9404   23.5058 C   0  0  0  0  0  0
  -16.5359  -29.9087   23.6348 C   0  0  0  0  0  0
  -16.7280  -28.6504   23.0367 C   0  0  0  0  0  0
  -26.4531  -31.6567   25.0711 C   0  0  0  0  0  0
  -25.3713  -31.3757   26.1403 C   0  0  0  0  0  0
  -27.0407  -30.2966   24.6301 C   0  0  0  0  0  0
  -27.6053  -32.4337   25.7494 C   0  0  0  0  0  0
  -27.5576  -37.1781   24.8466 C   0  0  0  0  0  0
  -21.4256  -29.3045   22.3594 N   0  0  0  0  0  0
  -26.4288  -37.3740   23.9409 N   0  0  0  0  0  0
  -24.7204  -31.0267   22.0918 N   0  0  0  0  0  0
  -23.4195  -28.8093   23.3024 O   0  0  0  0  0  0
  -28.2773  -26.1340   20.2106 O   0  0  0  0  0  0
  -26.5657  -34.8901   22.4632 O   0  0  0  0  0  0
  -23.5568  -32.1309   23.7089 O   0  0  0  0  0  0
  -28.3877  -18.1373   19.6800 C   0  0  0  0  0  0
  -28.5562  -16.5917   19.9659 C   0  0  0  0  0  0
  -30.4856  -17.7029   20.6121 C   0  0  0  0  0  0
  -29.3502  -18.8924   20.6019 C   0  0  1  0  0  0
  -29.0620  -23.2816   20.2703 C   0  0  0  0  0  0
  -28.6362  -21.6362   20.3783 C   0  0  0  0  0  0
  -27.9884  -24.5933   20.1998 C   0  0  0  0  0  0
  -29.9103  -16.2690   20.4627 N   0  0  0  0  0  0
  -29.6684  -20.4263   20.2916 N   0  3  0  0  0  0
  -31.4628  -12.7780   19.1598 H   0  0  0  0  0  0
  -30.4375  -11.6921   20.0534 H   0  0  0  0  0  0
  -29.8466  -11.7094   17.5974 H   0  0  0  0  0  0
  -29.5686  -13.4332   17.6652 H   0  0  0  0  0  0
  -27.9877  -11.2381   19.0363 H   0  0  0  0  0  0
  -27.3804  -12.3520   17.8390 H   0  0  0  0  0  0
  -27.5327  -14.1860   19.3389 H   0  0  0  0  0  0
  -28.7850  -12.3933   21.4861 H   0  0  0  0  0  0
  -28.3595  -14.0767   21.6948 H   0  0  0  0  0  0
  -25.2733   -9.5639   22.4792 H   0  0  0  0  0  0
  -23.9969   -7.4596   22.7486 H   0  0  0  0  0  0
  -21.0826   -8.8749   19.8954 H   0  0  0  0  0  0
  -22.3690  -10.9645   19.6184 H   0  0  0  0  0  0
  -21.2004   -7.6140   23.9703 H   0  0  0  0  0  0
  -21.1473   -6.0524   25.9072 H   0  0  0  0  0  0
  -22.0605   -2.7597   23.2863 H   0  0  0  0  0  0
  -22.4045  -11.9829   22.4826 H   0  0  0  0  0  0
  -21.1052  -13.1208   22.2656 H   0  0  0  0  0  0
  -24.6214  -15.8243   20.4987 H   0  0  0  0  0  0
  -26.2330  -15.6214   20.0323 H   0  0  0  0  0  0
  -26.7277  -32.5292   23.0983 H   0  0  0  0  0  0
  -25.0098  -33.9610   25.0321 H   0  0  0  0  0  0
  -22.7522  -31.2880   21.3780 H   0  0  0  0  0  0
  -23.3766  -35.9576   23.3292 H   0  0  0  0  0  0
  -24.3577  -36.8897   22.2056 H   0  0  0  0  0  0
  -23.7248  -37.6442   23.6687 H   0  0  0  0  0  0
  -26.1619  -31.4677   20.6146 H   0  0  0  0  0  0
  -26.8767  -30.7650   22.0290 H   0  0  0  0  0  0
  -28.1397  -28.7926   21.2276 H   0  0  0  0  0  0
  -25.9033  -25.8374   19.0102 H   0  0  0  0  0  0
  -23.9796  -27.2911   18.9904 H   0  0  0  0  0  0
  -23.8120  -30.5618   19.3976 H   0  0  0  0  0  0
  -22.7903  -29.2294   19.8447 H   0  0  0  0  0  0
  -25.1319  -36.1848   25.0808 H   0  0  0  0  0  0
  -20.9983  -28.3306   24.1342 H   0  0  0  0  0  0
  -20.5693  -26.2326   23.3595 H   0  0  0  0  0  0
  -21.6631  -26.7449   22.1146 H   0  0  0  0  0  0
  -19.6894  -25.6284   21.1250 H   0  0  0  0  0  0
  -19.6656  -27.3170   20.6710 H   0  0  0  0  0  0
  -17.4184  -26.6634   21.4078 H   0  0  0  0  0  0
  -18.0376  -26.0092   22.9068 H   0  0  0  0  0  0
  -19.7941  -30.7308   24.2202 H   0  0  0  0  0  0
  -17.5022  -31.6273   24.5158 H   0  0  0  0  0  0
  -15.5352  -30.2974   23.7695 H   0  0  0  0  0  0
  -15.8678  -28.0822   22.7106 H   0  0  0  0  0  0
  -24.5894  -30.7106   25.7718 H   0  0  0  0  0  0
  -24.8900  -32.2945   26.4765 H   0  0  0  0  0  0
  -25.7991  -30.8964   27.0218 H   0  0  0  0  0  0
  -26.3038  -29.6672   24.1304 H   0  0  0  0  0  0
  -27.4020  -29.7276   25.4880 H   0  0  0  0  0  0
  -27.8937  -30.4207   23.9626 H   0  0  0  0  0  0
  -27.2643  -33.3661   26.2005 H   0  0  0  0  0  0
  -28.3896  -32.6862   25.0347 H   0  0  0  0  0  0
  -28.0687  -31.8509   26.5466 H   0  0  0  0  0  0
  -28.2586  -38.0084   24.7512 H   0  0  0  0  0  0
  -28.1083  -36.2614   24.6300 H   0  0  0  0  0  0
  -27.2290  -37.1432   25.8867 H   0  0  0  0  0  0
  -20.9482  -29.8738   21.6751 H   0  0  0  0  0  0
  -26.0157  -38.2809   24.1413 H   0  0  0  0  0  0
  -27.3551  -18.4633   19.8101 H   0  0  0  0  0  0
  -28.6544  -18.3372   18.6414 H   0  0  0  0  0  0
  -28.3634  -16.0587   19.0365 H   0  0  0  0  0  0
  -27.8406  -16.2699   20.7210 H   0  0  0  0  0  0
  -31.0796  -17.7574   21.5243 H   0  0  0  0  0  0
  -31.1808  -17.8594   19.7864 H   0  0  0  0  0  0
  -28.9037  -18.8941   21.5972 H   0  0  0  0  0  0
  -29.7007  -23.3749   19.3922 H   0  0  0  0  0  0
  -29.7274  -23.4789   21.1113 H   0  0  0  0  0  0
  -27.8908  -21.4440   19.6060 H   0  0  0  0  0  0
  -28.1031  -21.5105   21.3203 H   0  0  0  0  0  0
  -27.2825  -24.4406   21.0171 H   0  0  0  0  0  0
  -27.4140  -24.4007   19.2962 H   0  0  0  0  0  0
  -30.0779  -20.4619   19.3722 H   0  0  0  0  0  0
  -30.4101  -20.6694   20.9279 H   0  0  0  0  0  0
  1 25  1  0  0  0
  1 30  2  0  0  0
  1 78  1  0  0  0
  2  3  1  0  0  0
  2 25  1  0  0  0
  2 80  1  0  0  0
  2 81  1  0  0  0
  3  4  1  0  0  0
  3 82  1  0  0  0
  3 83  1  0  0  0
  4  5  1  0  0  0
  4 84  1  0  0  0
  4 85  1  0  0  0
  5  6  1  0  0  0
  5 26  1  0  0  0
  5 86  1  0  0  0
  6 25  1  0  0  0
  6 87  1  0  0  0
  6 88  1  0  0  0
  7  8  2  0  0  0
  7 26  1  0  0  0
  7 29  1  0  0  0
  8  9  1  0  0  0
  8 22  1  0  0  0
  9 10  1  0  0  0
  9 27  2  0  0  0
 10 11  2  0  0  0
 10 15  1  0  0  0
 11 12  1  0  0  0
 11 89  1  0  0  0
 12 13  2  0  0  0
 12 90  1  0  0  0
 13 14  1  0  0  0
 13 31  1  0  0  0
 14 15  2  0  0  0
 14 91  1  0  0  0
 15 92  1  0  0  0
 16 17  2  0  0  0
 16 21  1  0  0  0
 16 31  1  0  0  0
 17 18  1  0  0  0
 17 93  1  0  0  0
 18 19  2  0  0  0
 18 94  1  0  0  0
 19 20  1  0  0  0
 19 24  1  0  0  0
 20 21  2  0  0  0
 20 95  1  0  0  0
 21 23  1  0  0  0
 22 28  1  0  0  0
 22 32  2  0  0  0
 26 27  1  0  0  0
 28 96  1  0  0  0
 28 97  1  0  0  0
 29 98  1  0  0  0
 29 99  1  0  0  0
 33 34  1  0  0  0
 33 66  1  0  0  0
 33 70  2  0  0  0
 34 36  1  0  0  0
 34 59  1  0  0  0
 34100  1  0  0  0
 35 44  2  0  0  0
 35 45  1  0  0  0
 35 68  1  0  0  0
 36 56  1  0  0  0
 36101  1  0  0  0
 37 39  1  0  0  0
 37 47  1  0  0  0
 37 66  1  0  0  0
 37102  1  0  0  0
 38 43  2  0  0  0
 38 46  1  0  0  0
 38 47  1  0  0  0
 39 64  1  0  0  0
 39 67  2  0  0  0
 40 52  1  0  0  0
 40 53  2  0  0  0
 40 58  1  0  0  0
 41103  1  0  0  0
 41104  1  0  0  0
 41105  1  0  0  0
 41 48  1  0  0  0
 42 43  1  0  0  0
 42 66  1  0  0  0
 42106  1  0  0  0
 42107  1  0  0  0
 43 44  1  0  0  0
 44108  1  0  0  0
 45 46  2  0  0  0
 45109  1  0  0  0
 46110  1  0  0  0
 47111  1  0  0  0
 47112  1  0  0  0
 48 56  1  0  0  0
 48 65  1  0  0  0
 48113  1  0  0  0
 49 50  1  0  0  0
 49 53  1  0  0  0
 49 64  1  0  0  0
 49114  1  0  0  0
 50 51  1  0  0  0
 50115  1  0  0  0
 50116  1  0  0  0
 51 52  1  0  0  0
 51117  1  0  0  0
 51118  1  0  0  0
 52119  1  0  0  0
 52120  1  0  0  0
 53 54  1  0  0  0
 54 55  2  0  0  0
 54121  1  0  0  0
 55 57  1  0  0  0
 55122  1  0  0  0
 56 69  2  0  0  0
 57 58  2  0  0  0
 57123  1  0  0  0
 58124  1  0  0  0
 59 60  1  0  0  0
 59 61  1  0  0  0
 59 62  1  0  0  0
 60125  1  0  0  0
 60126  1  0  0  0
 60127  1  0  0  0
 61128  1  0  0  0
 61129  1  0  0  0
 61130  1  0  0  0
 62131  1  0  0  0
 62132  1  0  0  0
 62133  1  0  0  0
 63 65  1  0  0  0
 63134  1  0  0  0
 63135  1  0  0  0
 63136  1  0  0  0
 64137  1  0  0  0
 65138  1  0  0  0
 68 77  1  0  0  0
 71 72  1  0  0  0
 71 74  1  0  0  0
 71139  1  0  0  0
 71140  1  0  0  0
 72 78  1  0  0  0
 72141  1  0  0  0
 72142  1  0  0  0
 73 74  1  0  0  0
 73 78  1  0  0  0
 73143  1  0  0  0
 73144  1  0  0  0
 74 79  1  0  0  0
 74145  1  0  0  0
 75 76  1  0  0  0
 75 77  1  0  0  0
 75146  1  0  0  0
 75147  1  0  0  0
 76 79  1  0  0  0
 76148  1  0  0  0
 76149  1  0  0  0
 77150  1  0  0  0
 77151  1  0  0  0
 79152  1  0  0  0
 79153  1  0  0  0
M  CHG  1  79   1
M  ISO  4   1 100  68 101  77 101  78 100
M  END
> <chiral flag>
0

> <version>
0

> <s_m_source_file>
/data/baiqing/PycharmProjects/Reinvent-master-3.2/result/LINK_invent/BTK/process_docking_weight1_custom_sum_contain_oxygen_bond_distance_aromatic_linkinvent_7_9_3/rearranged_h_0189.sdf

> <i_m_source_file_index>
1

> <r_mmod_Potential_Energy-OPLS-2005>
541.872192382812

> <r_mmod_Stretch_Energy-OPLS-2005>
269.435485839844

> <r_mmod_Bend_Energy-OPLS-2005>
304.060333251953

> <r_mmod_Torsional_Energy-OPLS-2005>
318.755554199219

> <r_mmod_Improper_Torsional_Energy-OPLS-2005>
4.60880088806152

> <r_mmod_Van_der_Waal_Energy-OPLS-2005>
111.653511047363

> <r_mmod_Electrostatic_Energy-OPLS-2005>
-203.608047485352

> <r_mmod_Solvation_Energy-OPLS-2005>
-481.170623779297

> <b_mmod_Minimization_Converged-OPLS-2005>
0

> <r_mmod_RMS_Derivative-OPLS-2005>
1.12562215328217

$$$$
1
                    3D
 Structure written by MMmdl.
165174  0  0  1  0            999 V2000
  -30.5145  -15.0364   20.3983 C   0  0  0  0  0  0
  -30.4350  -12.6451   19.5058 C   0  0  0  0  0  0
  -29.5225  -12.5428   18.2601 C   0  0  0  0  0  0
  -28.0564  -12.3163   18.6740 C   0  0  0  0  0  0
  -27.6217  -13.2561   19.8285 C   0  0  2  0  0  0
  -28.6615  -13.3220   20.9669 C   0  0  0  0  0  0
  -25.2428  -13.8222   20.5704 C   0  0  0  0  0  0
  -24.1760  -13.0436   20.9241 C   0  0  0  0  0  0
  -24.6383  -11.6924   20.8745 C   0  0  0  0  0  0
  -23.9071  -10.4292   21.0402 C   0  0  0  0  0  0
  -24.3629   -9.4209   21.9180 C   0  0  0  0  0  0
  -23.6304   -8.2243   22.0749 C   0  0  0  0  0  0
  -22.4280   -8.0282   21.3546 C   0  0  0  0  0  0
  -21.9923   -9.0249   20.4641 C   0  0  0  0  0  0
  -22.7248  -10.2127   20.3046 C   0  0  0  0  0  0
  -21.6857   -6.0742   22.5283 C   0  0  0  0  0  0
  -21.4016   -6.5644   23.8218 C   0  0  0  0  0  0
  -21.3655   -5.6790   24.9178 C   0  0  0  0  0  0
  -21.6045   -4.3054   24.7222 C   0  0  0  0  0  0
  -21.8817   -3.8149   23.4342 C   0  0  0  0  0  0
  -21.9194   -4.6971   22.3403 C   0  0  0  0  0  0
  -22.7780  -13.5203   21.1895 C   0  0  0  0  0  0
  -22.1662   -4.2156   21.0983 F   0  0  0  0  0  0
  -21.5631   -3.4538   25.7735 F   0  0  0  0  0  0
  -29.9265  -13.7616   20.3641 N   0  0  0  0  0  0
  -26.2843  -12.9466   20.3193 N   0  0  0  0  0  0
  -25.9316  -11.6587   20.5708 N   0  0  0  0  0  0
  -22.0431  -12.8180   22.0441 N   0  0  0  0  0  0
  -25.4068  -15.1953   20.4124 N   0  0  0  0  0  0
  -31.7280  -15.0534   20.1472 O   0  0  0  0  0  0
  -21.6640   -6.8883   21.4240 O   0  0  0  0  0  0
  -22.3461  -14.5504   20.6733 O   0  0  0  0  0  0
  -24.6505  -31.8378   23.1828 C   0  0  0  0  0  0
  -25.9242  -32.4663   23.8247 C   0  0  1  0  0  0
  -27.2130  -27.0729   20.1634 C   0  0  0  0  0  0
  -25.5970  -33.8469   24.2167 N   0  0  0  0  0  0
  -23.4564  -30.4562   21.5303 C   0  0  2  0  0  0
  -24.9047  -28.8712   20.1111 C   0  0  0  0  0  0
  -22.7602  -29.4522   22.4838 C   0  0  0  0  0  0
  -18.0306  -28.1404   22.8460 C   0  0  0  0  0  0
  -24.1488  -36.7234   23.2647 C   0  0  0  0  0  0
  -26.0167  -30.6932   21.3885 C   0  0  0  0  0  0
  -26.0852  -29.2978   20.7324 C   0  0  0  0  0  0
  -27.2387  -28.4168   20.7373 C   0  0  0  0  0  0
  -26.0043  -26.7628   19.5022 C   0  0  0  0  0  0
  -24.8806  -27.6194   19.4790 C   0  0  0  0  0  0
  -23.6854  -29.7829   20.1513 C   0  0  0  0  0  0
  -25.4125  -36.3007   24.0311 C   0  0  1  0  0  0
  -20.5923  -28.3729   23.1218 C   0  0  2  0  0  0
  -20.6795  -26.9427   22.5402 C   0  0  0  0  0  0
  -19.5770  -26.6382   21.5207 C   0  0  0  0  0  0
  -18.1951  -26.7940   22.1612 C   0  0  0  0  0  0
  -19.1566  -28.8884   23.2826 C   0  0  0  0  0  0
  -18.9481  -30.1480   23.8855 C   0  0  0  0  0  0
  -17.6479  -30.6592   24.0559 C   0  0  0  0  0  0
  -25.9081  -34.9389   23.5048 C   0  0  0  0  0  0
  -16.5367  -29.9084   23.6346 C   0  0  0  0  0  0
  -16.7289  -28.6507   23.0350 C   0  0  0  0  0  0
  -26.4545  -31.6545   25.0704 C   0  0  0  0  0  0
  -25.3721  -31.3733   26.1392 C   0  0  0  0  0  0
  -27.0434  -30.2945   24.6313 C   0  0  0  0  0  0
  -27.6067  -32.4319   25.7503 C   0  0  0  0  0  0
  -27.5565  -37.1783   24.8466 C   0  0  0  0  0  0
  -21.4286  -29.3051   22.3592 N   0  0  0  0  0  0
  -26.4277  -37.3733   23.9405 N   0  0  0  0  0  0
  -24.7287  -31.0192   22.0888 N   0  0  0  0  0  0
  -23.4222  -28.8072   23.3010 O   0  0  0  0  0  0
  -28.2513  -26.0514   20.2271 O   0  0  0  0  0  0
  -26.5666  -34.8897   22.4628 O   0  0  0  0  0  0
  -23.5612  -32.1268   23.7022 O   0  0  0  0  0  0
  -29.0394  -18.9196   20.5036 C   0  0  0  0  0  0
  -29.9945  -17.7761   20.3519 C   0  0  0  0  0  0
  -29.4028  -20.3504   20.2960 C   0  0  0  0  0  0
  -31.4927  -19.5008   19.8210 C   0  0  0  0  0  0
  -34.6113  -21.0507   18.2922 C   0  0  0  0  0  0
  -34.9604  -22.5430   18.2565 C   0  0  0  0  0  0
  -33.3584  -22.1611   19.9952 C   0  0  0  0  0  0
  -33.2257  -21.0661   18.9264 C   0  0  2  0  0  0
  -33.7390  -24.4883   19.2177 C   0  0  0  0  0  0
  -29.0170  -23.1422   20.3039 C   0  0  0  0  0  0
  -27.9574  -24.4926   20.1694 C   0  0  0  0  0  0
  -31.2300  -18.2064   19.9985 N   0  0  0  0  0  0
  -30.6800  -20.5495   19.9498 N   0  0  0  0  0  0
  -29.7328  -16.2467   20.5259 N   0  0  0  0  0  0
  -28.5952  -21.6121   20.3812 N   0  0  0  0  0  0
  -32.7854  -19.7698   19.4374 N   0  0  0  0  0  0
  -34.3174  -23.1468   19.4490 N   0  3  2  0  0  0
  -31.4669  -12.8047   19.1898 H   0  0  0  0  0  0
  -30.4406  -11.7039   20.0578 H   0  0  0  0  0  0
  -29.8590  -11.7361   17.6068 H   0  0  0  0  0  0
  -29.5964  -13.4610   17.6747 H   0  0  0  0  0  0
  -27.9581  -11.2766   18.9864 H   0  0  0  0  0  0
  -27.3946  -12.4383   17.8150 H   0  0  0  0  0  0
  -27.5706  -14.2496   19.3818 H   0  0  0  0  0  0
  -28.7698  -12.3527   21.4553 H   0  0  0  0  0  0
  -28.3421  -14.0252   21.7379 H   0  0  0  0  0  0
  -25.2777   -9.5690   22.4755 H   0  0  0  0  0  0
  -24.0021   -7.4630   22.7464 H   0  0  0  0  0  0
  -21.0862   -8.8759   19.8940 H   0  0  0  0  0  0
  -22.3707  -10.9664   19.6151 H   0  0  0  0  0  0
  -21.2003   -7.6151   23.9728 H   0  0  0  0  0  0
  -21.1481   -6.0519   25.9084 H   0  0  0  0  0  0
  -22.0598   -2.7613   23.2837 H   0  0  0  0  0  0
  -22.4065  -11.9847   22.4829 H   0  0  0  0  0  0
  -21.1033  -13.1177   22.2628 H   0  0  0  0  0  0
  -24.6289  -15.8381   20.5157 H   0  0  0  0  0  0
  -26.2318  -15.6348   20.0272 H   0  0  0  0  0  0
  -26.7310  -32.5256   23.0973 H   0  0  0  0  0  0
  -25.0108  -33.9587   25.0309 H   0  0  0  0  0  0
  -22.7614  -31.2830   21.3724 H   0  0  0  0  0  0
  -23.3755  -35.9560   23.3284 H   0  0  0  0  0  0
  -24.3583  -36.8898   22.2069 H   0  0  0  0  0  0
  -23.7233  -37.6420   23.6699 H   0  0  0  0  0  0
  -26.1773  -31.4409   20.6108 H   0  0  0  0  0  0
  -26.8867  -30.7491   22.0308 H   0  0  0  0  0  0
  -28.1366  -28.7398   21.2440 H   0  0  0  0  0  0
  -25.8900  -25.8083   19.0127 H   0  0  0  0  0  0
  -23.9813  -27.2867   18.9794 H   0  0  0  0  0  0
  -23.8273  -30.5566   19.3961 H   0  0  0  0  0  0
  -22.7979  -29.2302   19.8373 H   0  0  0  0  0  0
  -25.1319  -36.1829   25.0803 H   0  0  0  0  0  0
  -20.9999  -28.3316   24.1344 H   0  0  0  0  0  0
  -20.5689  -26.2341   23.3623 H   0  0  0  0  0  0
  -21.6661  -26.7435   22.1200 H   0  0  0  0  0  0
  -19.6934  -25.6287   21.1250 H   0  0  0  0  0  0
  -19.6711  -27.3178   20.6723 H   0  0  0  0  0  0
  -17.4224  -26.6664   21.4014 H   0  0  0  0  0  0
  -18.0348  -26.0103   22.9025 H   0  0  0  0  0  0
  -19.7960  -30.7301   24.2205 H   0  0  0  0  0  0
  -17.5035  -31.6268   24.5166 H   0  0  0  0  0  0
  -15.5369  -30.2971   23.7705 H   0  0  0  0  0  0
  -15.8686  -28.0823   22.7077 H   0  0  0  0  0  0
  -24.5920  -30.7062   25.7703 H   0  0  0  0  0  0
  -24.8890  -32.2911   26.4751 H   0  0  0  0  0  0
  -25.8008  -30.8950   27.0207 H   0  0  0  0  0  0
  -26.3069  -29.6650   24.1306 H   0  0  0  0  0  0
  -27.4027  -29.7265   25.4904 H   0  0  0  0  0  0
  -27.8979  -30.4186   23.9657 H   0  0  0  0  0  0
  -27.2661  -33.3660   26.1982 H   0  0  0  0  0  0
  -28.3936  -32.6811   25.0368 H   0  0  0  0  0  0
  -28.0657  -31.8496   26.5502 H   0  0  0  0  0  0
  -28.2569  -38.0095   24.7522 H   0  0  0  0  0  0
  -28.1074  -36.2621   24.6276 H   0  0  0  0  0  0
  -27.2286  -37.1416   25.8873 H   0  0  0  0  0  0
  -20.9500  -29.8757   21.6762 H   0  0  0  0  0  0
  -26.0127  -38.2793   24.1415 H   0  0  0  0  0  0
  -28.0179  -18.6944   20.7785 H   0  0  0  0  0  0
  -35.3234  -20.5162   18.9238 H   0  0  0  0  0  0
  -34.6235  -20.5919   17.3029 H   0  0  0  0  0  0
  -34.5543  -22.9863   17.3453 H   0  0  0  0  0  0
  -36.0373  -22.7145   18.2523 H   0  0  0  0  0  0
  -33.7849  -21.7536   20.9119 H   0  0  0  0  0  0
  -32.3990  -22.6090   20.2567 H   0  0  0  0  0  0
  -32.5080  -21.4010   18.1741 H   0  0  0  0  0  0
  -34.4896  -25.1711   18.8178 H   0  0  0  0  0  0
  -33.3687  -24.9109   20.1525 H   0  0  0  0  0  0
  -32.9064  -24.4438   18.5143 H   0  0  0  0  0  0
  -29.6187  -23.3139   21.1969 H   0  0  0  0  0  0
  -29.7264  -23.2154   19.4790 H   0  0  0  0  0  0
  -27.1879  -24.3388   20.9260 H   0  0  0  0  0  0
  -27.4507  -24.3305   19.2193 H   0  0  0  0  0  0
  -28.7704  -16.0393   20.7355 H   0  0  0  0  0  0
  -27.6256  -21.4661   20.6453 H   0  0  0  0  0  0
  -33.3678  -18.9572   19.2786 H   0  0  0  0  0  0
  -35.0336  -23.2578   20.1509 H   0  0  0  0  0  0
  1 25  1  0  0  0
  1 30  2  0  0  0
  1 84  1  0  0  0
  2  3  1  0  0  0
  2 25  1  0  0  0
  2 88  1  0  0  0
  2 89  1  0  0  0
  3  4  1  0  0  0
  3 90  1  0  0  0
  3 91  1  0  0  0
  4  5  1  0  0  0
  4 92  1  0  0  0
  4 93  1  0  0  0
  5  6  1  0  0  0
  5 26  1  0  0  0
  5 94  1  0  0  0
  6 25  1  0  0  0
  6 95  1  0  0  0
  6 96  1  0  0  0
  7  8  2  0  0  0
  7 26  1  0  0  0
  7 29  1  0  0  0
  8  9  1  0  0  0
  8 22  1  0  0  0
  9 10  1  0  0  0
  9 27  2  0  0  0
 10 11  2  0  0  0
 10 15  1  0  0  0
 11 12  1  0  0  0
 11 97  1  0  0  0
 12 13  2  0  0  0
 12 98  1  0  0  0
 13 14  1  0  0  0
 13 31  1  0  0  0
 14 15  2  0  0  0
 14 99  1  0  0  0
 15100  1  0  0  0
 16 17  2  0  0  0
 16 21  1  0  0  0
 16 31  1  0  0  0
 17 18  1  0  0  0
 17101  1  0  0  0
 18 19  2  0  0  0
 18102  1  0  0  0
 19 20  1  0  0  0
 19 24  1  0  0  0
 20 21  2  0  0  0
 20103  1  0  0  0
 21 23  1  0  0  0
 22 28  1  0  0  0
 22 32  2  0  0  0
 26 27  1  0  0  0
 28104  1  0  0  0
 28105  1  0  0  0
 29106  1  0  0  0
 29107  1  0  0  0
 33 34  1  0  0  0
 33 66  1  0  0  0
 33 70  2  0  0  0
 34 36  1  0  0  0
 34 59  1  0  0  0
 34108  1  0  0  0
 35 44  2  0  0  0
 35 45  1  0  0  0
 35 68  1  0  0  0
 36 56  1  0  0  0
 36109  1  0  0  0
 37 39  1  0  0  0
 37 47  1  0  0  0
 37 66  1  0  0  0
 37110  1  0  0  0
 38 43  2  0  0  0
 38 46  1  0  0  0
 38 47  1  0  0  0
 39 64  1  0  0  0
 39 67  2  0  0  0
 40 52  1  0  0  0
 40 53  2  0  0  0
 40 58  1  0  0  0
 41111  1  0  0  0
 41112  1  0  0  0
 41113  1  0  0  0
 41 48  1  0  0  0
 42 43  1  0  0  0
 42 66  1  0  0  0
 42114  1  0  0  0
 42115  1  0  0  0
 43 44  1  0  0  0
 44116  1  0  0  0
 45 46  2  0  0  0
 45117  1  0  0  0
 46118  1  0  0  0
 47119  1  0  0  0
 47120  1  0  0  0
 48 56  1  0  0  0
 48 65  1  0  0  0
 48121  1  0  0  0
 49 50  1  0  0  0
 49 53  1  0  0  0
 49 64  1  0  0  0
 49122  1  0  0  0
 50 51  1  0  0  0
 50123  1  0  0  0
 50124  1  0  0  0
 51 52  1  0  0  0
 51125  1  0  0  0
 51126  1  0  0  0
 52127  1  0  0  0
 52128  1  0  0  0
 53 54  1  0  0  0
 54 55  2  0  0  0
 54129  1  0  0  0
 55 57  1  0  0  0
 55130  1  0  0  0
 56 69  2  0  0  0
 57 58  2  0  0  0
 57131  1  0  0  0
 58132  1  0  0  0
 59 60  1  0  0  0
 59 61  1  0  0  0
 59 62  1  0  0  0
 60133  1  0  0  0
 60134  1  0  0  0
 60135  1  0  0  0
 61136  1  0  0  0
 61137  1  0  0  0
 61138  1  0  0  0
 62139  1  0  0  0
 62140  1  0  0  0
 62141  1  0  0  0
 63 65  1  0  0  0
 63142  1  0  0  0
 63143  1  0  0  0
 63144  1  0  0  0
 64145  1  0  0  0
 65146  1  0  0  0
 68 81  1  0  0  0
 71 72  2  0  0  0
 71 73  1  0  0  0
 71147  1  0  0  0
 72 82  1  0  0  0
 72 84  1  0  0  0
 73 83  2  0  0  0
 73 85  1  0  0  0
 74 82  2  0  0  0
 74 83  1  0  0  0
 74 86  1  0  0  0
 75 76  1  0  0  0
 75 78  1  0  0  0
 75148  1  0  0  0
 75149  1  0  0  0
 76 87  1  0  0  0
 76150  1  0  0  0
 76151  1  0  0  0
 77 78  1  0  0  0
 77 87  1  0  0  0
 77152  1  0  0  0
 77153  1  0  0  0
 78 86  1  0  0  0
 78154  1  0  0  0
 79155  1  0  0  0
 79156  1  0  0  0
 79157  1  0  0  0
 79 87  1  0  0  0
 80 81  1  0  0  0
 80 85  1  0  0  0
 80158  1  0  0  0
 80159  1  0  0  0
 81160  1  0  0  0
 81161  1  0  0  0
 84162  1  0  0  0
 85163  1  0  0  0
 86164  1  0  0  0
 87165  1  0  0  0
M  CHG  1  87   1
M  ISO  4   1 100  68 101  81 101  84 100
M  END
> <chiral flag>
0

> <version>
0

> <s_m_source_file>
/data/baiqing/PycharmProjects/Reinvent-master-3.2/result/LINK_invent/BTK/process_docking_weight1_custom_sum_contain_oxygen_bond_distance_aromatic_linkinvent_7_9_3/rearranged_h_0189.sdf

> <i_m_source_file_index>
2

> <r_mmod_Potential_Energy-OPLS-2005>
-34.4777793884277

> <r_mmod_Stretch_Energy-OPLS-2005>
312.385375976562

> <r_mmod_Bend_Energy-OPLS-2005>
328.717407226562

> <r_mmod_Torsional_Energy-OPLS-2005>
247.256286621094

> <r_mmod_Improper_Torsional_Energy-OPLS-2005>
4.86956357955933

> <r_mmod_Van_der_Waal_Energy-OPLS-2005>
140.373153686523

> <r_mmod_Electrostatic_Energy-OPLS-2005>
-834.311950683594

> <r_mmod_Solvation_Energy-OPLS-2005>
-487.154724121094

> <b_mmod_Minimization_Converged-OPLS-2005>
0

> <r_mmod_RMS_Derivative-OPLS-2005>
1.50530624389648

$$$$
2
                    3D
 Structure written by MMmdl.
158167  0  0  1  0            999 V2000
  -30.6134  -14.8035   20.4419 C   0  0  0  0  0  0
  -30.4242  -12.4950   19.4798 C   0  0  0  0  0  0
  -29.5070  -12.5091   18.2385 C   0  0  0  0  0  0
  -28.0354  -12.3277   18.6553 C   0  0  0  0  0  0
  -27.6323  -13.2433   19.8429 C   0  0  2  0  0  0
  -28.6770  -13.2269   20.9781 C   0  0  0  0  0  0
  -25.2476  -13.8220   20.5712 C   0  0  0  0  0  0
  -24.1780  -13.0446   20.9210 C   0  0  0  0  0  0
  -24.6391  -11.6931   20.8748 C   0  0  0  0  0  0
  -23.9074  -10.4297   21.0404 C   0  0  0  0  0  0
  -24.3625   -9.4213   21.9180 C   0  0  0  0  0  0
  -23.6303   -8.2247   22.0751 C   0  0  0  0  0  0
  -22.4283   -8.0279   21.3545 C   0  0  0  0  0  0
  -21.9920   -9.0249   20.4646 C   0  0  0  0  0  0
  -22.7245  -10.2129   20.3058 C   0  0  0  0  0  0
  -21.6860   -6.0736   22.5276 C   0  0  0  0  0  0
  -21.4018   -6.5643   23.8208 C   0  0  0  0  0  0
  -21.3660   -5.6797   24.9172 C   0  0  0  0  0  0
  -21.6049   -4.3059   24.7228 C   0  0  0  0  0  0
  -21.8821   -3.8149   23.4349 C   0  0  0  0  0  0
  -21.9197   -4.6964   22.3404 C   0  0  0  0  0  0
  -22.7803  -13.5210   21.1872 C   0  0  0  0  0  0
  -22.1661   -4.2150   21.0980 F   0  0  0  0  0  0
  -21.5631   -3.4543   25.7741 F   0  0  0  0  0  0
  -29.9661  -13.5842   20.3789 N   0  0  0  0  0  0
  -26.2898  -12.9447   20.3275 N   0  0  0  0  0  0
  -25.9325  -11.6581   20.5761 N   0  0  0  0  0  0
  -22.0462  -12.8187   22.0428 N   0  0  0  0  0  0
  -25.4183  -15.1947   20.4146 N   0  0  0  0  0  0
  -31.8161  -14.8434   20.1616 O   0  0  0  0  0  0
  -21.6650   -6.8875   21.4235 O   0  0  0  0  0  0
  -22.3480  -14.5510   20.6720 O   0  0  0  0  0  0
  -24.6347  -31.8504   23.1942 C   0  0  0  0  0  0
  -25.9159  -32.4724   23.8303 C   0  0  1  0  0  0
  -27.2155  -27.2106   20.1432 C   0  0  0  0  0  0
  -25.5940  -33.8531   24.2220 N   0  0  0  0  0  0
  -23.4336  -30.4709   21.5384 C   0  0  2  0  0  0
  -24.8806  -28.9057   20.1129 C   0  0  0  0  0  0
  -22.7519  -29.4575   22.4897 C   0  0  0  0  0  0
  -18.0291  -28.1390   22.8482 C   0  0  0  0  0  0
  -24.1485  -36.7268   23.2640 C   0  0  0  0  0  0
  -25.9824  -30.7458   21.3831 C   0  0  0  0  0  0
  -26.0517  -29.3613   20.7313 C   0  0  0  0  0  0
  -27.2191  -28.5256   20.7359 C   0  0  0  0  0  0
  -26.0271  -26.8401   19.4792 C   0  0  0  0  0  0
  -24.8751  -27.6545   19.4759 C   0  0  0  0  0  0
  -23.6549  -29.8006   20.1565 C   0  0  0  0  0  0
  -25.4116  -36.3047   24.0318 C   0  0  1  0  0  0
  -20.5896  -28.3701   23.1256 C   0  0  2  0  0  0
  -20.6776  -26.9413   22.5408 C   0  0  0  0  0  0
  -19.5755  -26.6382   21.5212 C   0  0  0  0  0  0
  -18.1930  -26.7935   22.1620 C   0  0  0  0  0  0
  -19.1546  -28.8866   23.2865 C   0  0  0  0  0  0
  -18.9468  -30.1466   23.8887 C   0  0  0  0  0  0
  -17.6467  -30.6592   24.0562 C   0  0  0  0  0  0
  -25.9065  -34.9424   23.5075 C   0  0  0  0  0  0
  -16.5358  -29.9087   23.6336 C   0  0  0  0  0  0
  -16.7277  -28.6504   23.0357 C   0  0  0  0  0  0
  -26.4518  -31.6573   25.0717 C   0  0  0  0  0  0
  -25.3726  -31.3744   26.1427 C   0  0  0  0  0  0
  -27.0377  -30.2977   24.6254 C   0  0  0  0  0  0
  -27.6054  -32.4333   25.7498 C   0  0  0  0  0  0
  -27.5579  -37.1779   24.8460 C   0  0  0  0  0  0
  -21.4221  -29.3037   22.3640 N   0  0  0  0  0  0
  -26.4279  -37.3758   23.9420 N   0  0  0  0  0  0
  -24.7028  -31.0429   22.0940 N   0  0  0  0  0  0
  -23.4195  -28.8120   23.3018 O   0  0  0  0  0  0
  -28.3262  -26.3201   20.1483 O   0  0  0  0  0  0
  -26.5644  -34.8911   22.4648 O   0  0  0  0  0  0
  -23.5489  -32.1348   23.7214 O   0  0  0  0  0  0
  -29.4538  -24.0281   20.0232 C   0  0  0  0  0  0
  -27.1801  -22.8281   20.7220 C   0  0  0  0  0  0
  -28.3300  -21.9803   20.5009 C   0  0  0  0  0  0
  -28.3046  -24.8702   20.2486 C   0  0  0  0  0  0
  -29.8564  -16.9211   19.3431 C   0  0  0  0  0  0
  -30.1916  -16.9620   21.6502 C   0  0  0  0  0  0
  -28.9963  -18.2720   19.4070 C   0  0  0  0  0  0
  -29.3276  -18.3020   21.7660 C   0  0  0  0  0  0
  -25.8386  -22.2359   21.1182 C   0  0  0  0  0  0
  -28.2094  -20.3701   20.7219 C   0  0  0  0  0  0
  -29.4795  -22.6381   20.1434 N   0  0  0  0  0  0
  -27.1675  -24.2066   20.6092 N   0  0  0  0  0  0
  -29.8892  -16.0113   20.5369 N   0  0  0  0  0  0
  -29.2502  -19.2129   20.5605 N   0  3  0  0  0  0
  -31.4649  -12.6154   19.1738 H   0  0  0  0  0  0
  -30.3728  -11.5311   19.9892 H   0  0  0  0  0  0
  -29.7978  -11.7221   17.5416 H   0  0  0  0  0  0
  -29.6254  -13.4526   17.7027 H   0  0  0  0  0  0
  -27.8999  -11.2811   18.9322 H   0  0  0  0  0  0
  -27.3768  -12.5019   17.8034 H   0  0  0  0  0  0
  -27.6110  -14.2565   19.4411 H   0  0  0  0  0  0
  -28.7279  -12.2469   21.4545 H   0  0  0  0  0  0
  -28.4059  -13.9408   21.7582 H   0  0  0  0  0  0
  -25.2769   -9.5693   22.4751 H   0  0  0  0  0  0
  -24.0018   -7.4643   22.7468 H   0  0  0  0  0  0
  -21.0856   -8.8764   19.8950 H   0  0  0  0  0  0
  -22.3699  -10.9664   19.6168 H   0  0  0  0  0  0
  -21.2005   -7.6151   23.9706 H   0  0  0  0  0  0
  -21.1479   -6.0530   25.9071 H   0  0  0  0  0  0
  -22.0601   -2.7612   23.2853 H   0  0  0  0  0  0
  -22.4106  -11.9856   22.4813 H   0  0  0  0  0  0
  -21.1071  -13.1183   22.2635 H   0  0  0  0  0  0
  -24.6531  -15.8510   20.5251 H   0  0  0  0  0  0
  -26.2759  -15.6301   20.1017 H   0  0  0  0  0  0
  -26.7222  -32.5353   23.1034 H   0  0  0  0  0  0
  -25.0080  -33.9664   25.0360 H   0  0  0  0  0  0
  -22.7328  -31.2947   21.3885 H   0  0  0  0  0  0
  -23.3758  -35.9586   23.3273 H   0  0  0  0  0  0
  -24.3574  -36.8930   22.2061 H   0  0  0  0  0  0
  -23.7229  -37.6450   23.6694 H   0  0  0  0  0  0
  -26.1288  -31.5009   20.6093 H   0  0  0  0  0  0
  -26.8572  -30.7962   22.0195 H   0  0  0  0  0  0
  -28.1184  -28.8730   21.2244 H   0  0  0  0  0  0
  -25.9735  -25.8869   18.9731 H   0  0  0  0  0  0
  -23.9813  -27.3041   18.9782 H   0  0  0  0  0  0
  -23.7848  -30.5744   19.3996 H   0  0  0  0  0  0
  -22.7715  -29.2379   19.8489 H   0  0  0  0  0  0
  -25.1298  -36.1877   25.0809 H   0  0  0  0  0  0
  -20.9987  -28.3286   24.1377 H   0  0  0  0  0  0
  -20.5675  -26.2312   23.3616 H   0  0  0  0  0  0
  -21.6644  -26.7431   22.1205 H   0  0  0  0  0  0
  -19.6914  -25.6290   21.1247 H   0  0  0  0  0  0
  -19.6692  -27.3186   20.6738 H   0  0  0  0  0  0
  -17.4200  -26.6682   21.4019 H   0  0  0  0  0  0
  -18.0328  -26.0079   22.9018 H   0  0  0  0  0  0
  -19.7943  -30.7285   24.2248 H   0  0  0  0  0  0
  -17.5019  -31.6269   24.5165 H   0  0  0  0  0  0
  -15.5355  -30.2985   23.7675 H   0  0  0  0  0  0
  -15.8677  -28.0823   22.7081 H   0  0  0  0  0  0
  -24.5901  -30.7094   25.7755 H   0  0  0  0  0  0
  -24.8921  -32.2924   26.4824 H   0  0  0  0  0  0
  -25.8027  -30.8940   27.0224 H   0  0  0  0  0  0
  -26.2980  -29.6706   24.1266 H   0  0  0  0  0  0
  -27.4018  -29.7266   25.4807 H   0  0  0  0  0  0
  -27.8875  -30.4230   23.9538 H   0  0  0  0  0  0
  -27.2643  -33.3637   26.2052 H   0  0  0  0  0  0
  -28.3878  -32.6892   25.0340 H   0  0  0  0  0  0
  -28.0711  -31.8481   26.5439 H   0  0  0  0  0  0
  -28.2562  -38.0109   24.7545 H   0  0  0  0  0  0
  -28.1108  -36.2640   24.6231 H   0  0  0  0  0  0
  -27.2304  -37.1365   25.8863 H   0  0  0  0  0  0
  -20.9418  -29.8746   21.6824 H   0  0  0  0  0  0
  -26.0147  -38.2817   24.1454 H   0  0  0  0  0  0
  -30.3911  -24.4867   19.7439 H   0  0  0  0  0  0
  -30.8842  -17.1860   19.0872 H   0  0  0  0  0  0
  -29.4981  -16.3362   18.4937 H   0  0  0  0  0  0
  -30.0940  -16.4143   22.5895 H   0  0  0  0  0  0
  -31.2467  -17.2360   21.5903 H   0  0  0  0  0  0
  -27.9449  -17.9813   19.4286 H   0  0  0  0  0  0
  -29.1281  -18.8275   18.4772 H   0  0  0  0  0  0
  -29.6920  -18.8844   22.6134 H   0  0  0  0  0  0
  -28.3104  -18.0061   22.0293 H   0  0  0  0  0  0
  -25.4801  -21.5460   20.3543 H   0  0  0  0  0  0
  -25.0797  -23.0096   21.2400 H   0  0  0  0  0  0
  -25.9162  -21.7008   22.0644 H   0  0  0  0  0  0
  -27.3307  -20.0668   20.1534 H   0  0  0  0  0  0
  -27.8769  -20.3076   21.7579 H   0  0  0  0  0  0
  -30.1531  -19.6452   20.4350 H   0  0  0  0  0  0
  1 25  1  0  0  0
  1 30  2  0  0  0
  1 83  1  0  0  0
  2  3  1  0  0  0
  2 25  1  0  0  0
  2 85  1  0  0  0
  2 86  1  0  0  0
  3  4  1  0  0  0
  3 87  1  0  0  0
  3 88  1  0  0  0
  4  5  1  0  0  0
  4 89  1  0  0  0
  4 90  1  0  0  0
  5  6  1  0  0  0
  5 26  1  0  0  0
  5 91  1  0  0  0
  6 25  1  0  0  0
  6 92  1  0  0  0
  6 93  1  0  0  0
  7  8  2  0  0  0
  7 26  1  0  0  0
  7 29  1  0  0  0
  8  9  1  0  0  0
  8 22  1  0  0  0
  9 10  1  0  0  0
  9 27  2  0  0  0
 10 11  2  0  0  0
 10 15  1  0  0  0
 11 12  1  0  0  0
 11 94  1  0  0  0
 12 13  2  0  0  0
 12 95  1  0  0  0
 13 14  1  0  0  0
 13 31  1  0  0  0
 14 15  2  0  0  0
 14 96  1  0  0  0
 15 97  1  0  0  0
 16 17  2  0  0  0
 16 21  1  0  0  0
 16 31  1  0  0  0
 17 18  1  0  0  0
 17 98  1  0  0  0
 18 19  2  0  0  0
 18 99  1  0  0  0
 19 20  1  0  0  0
 19 24  1  0  0  0
 20 21  2  0  0  0
 20100  1  0  0  0
 21 23  1  0  0  0
 22 28  1  0  0  0
 22 32  2  0  0  0
 26 27  1  0  0  0
 28101  1  0  0  0
 28102  1  0  0  0
 29103  1  0  0  0
 29104  1  0  0  0
 33 34  1  0  0  0
 33 66  1  0  0  0
 33 70  2  0  0  0
 34 36  1  0  0  0
 34 59  1  0  0  0
 34105  1  0  0  0
 35 44  2  0  0  0
 35 45  1  0  0  0
 35 68  1  0  0  0
 36 56  1  0  0  0
 36106  1  0  0  0
 37 39  1  0  0  0
 37 47  1  0  0  0
 37 66  1  0  0  0
 37107  1  0  0  0
 38 43  2  0  0  0
 38 46  1  0  0  0
 38 47  1  0  0  0
 39 64  1  0  0  0
 39 67  2  0  0  0
 40 52  1  0  0  0
 40 53  2  0  0  0
 40 58  1  0  0  0
 41108  1  0  0  0
 41109  1  0  0  0
 41110  1  0  0  0
 41 48  1  0  0  0
 42 43  1  0  0  0
 42 66  1  0  0  0
 42111  1  0  0  0
 42112  1  0  0  0
 43 44  1  0  0  0
 44113  1  0  0  0
 45 46  2  0  0  0
 45114  1  0  0  0
 46115  1  0  0  0
 47116  1  0  0  0
 47117  1  0  0  0
 48 56  1  0  0  0
 48 65  1  0  0  0
 48118  1  0  0  0
 49 50  1  0  0  0
 49 53  1  0  0  0
 49 64  1  0  0  0
 49119  1  0  0  0
 50 51  1  0  0  0
 50120  1  0  0  0
 50121  1  0  0  0
 51 52  1  0  0  0
 51122  1  0  0  0
 51123  1  0  0  0
 52124  1  0  0  0
 52125  1  0  0  0
 53 54  1  0  0  0
 54 55  2  0  0  0
 54126  1  0  0  0
 55 57  1  0  0  0
 55127  1  0  0  0
 56 69  2  0  0  0
 57 58  2  0  0  0
 57128  1  0  0  0
 58129  1  0  0  0
 59 60  1  0  0  0
 59 61  1  0  0  0
 59 62  1  0  0  0
 60130  1  0  0  0
 60131  1  0  0  0
 60132  1  0  0  0
 61133  1  0  0  0
 61134  1  0  0  0
 61135  1  0  0  0
 62136  1  0  0  0
 62137  1  0  0  0
 62138  1  0  0  0
 63 65  1  0  0  0
 63139  1  0  0  0
 63140  1  0  0  0
 63141  1  0  0  0
 64142  1  0  0  0
 65143  1  0  0  0
 68 74  1  0  0  0
 71 74  2  0  0  0
 71 81  1  0  0  0
 71144  1  0  0  0
 72 73  1  0  0  0
 72 79  1  0  0  0
 72 82  2  0  0  0
 73 80  1  0  0  0
 73 81  2  0  0  0
 74 82  1  0  0  0
 75 77  1  0  0  0
 75 83  1  0  0  0
 75145  1  0  0  0
 75146  1  0  0  0
 76 78  1  0  0  0
 76 83  1  0  0  0
 76147  1  0  0  0
 76148  1  0  0  0
 77 84  1  0  0  0
 77149  1  0  0  0
 77150  1  0  0  0
 78 84  1  0  0  0
 78151  1  0  0  0
 78152  1  0  0  0
 79153  1  0  0  0
 79154  1  0  0  0
 79155  1  0  0  0
 80156  1  0  0  0
 80157  1  0  0  0
 80 84  1  0  0  0
 84158  1  0  0  0
M  CHG  1  84   1
M  ISO  4   1 100  68 101  74 101  83 100
M  END
> <chiral flag>
0

> <version>
0

> <s_m_source_file>
/data/baiqing/PycharmProjects/Reinvent-master-3.2/result/LINK_invent/BTK/process_docking_weight1_custom_sum_contain_oxygen_bond_distance_aromatic_linkinvent_7_9_3/rearranged_h_0189.sdf

> <i_m_source_file_index>
3

> <r_mmod_Potential_Energy-OPLS-2005>
417.89599609375

> <r_mmod_Stretch_Energy-OPLS-2005>
152.221664428711

> <r_mmod_Bend_Energy-OPLS-2005>
244.725311279297

> <r_mmod_Torsional_Energy-OPLS-2005>
380.077484130859

> <r_mmod_Improper_Torsional_Energy-OPLS-2005>
11.942099571228

> <r_mmod_Van_der_Waal_Energy-OPLS-2005>
146.02880859375

> <r_mmod_Electrostatic_Energy-OPLS-2005>
-168.405120849609

> <r_mmod_Solvation_Energy-OPLS-2005>
-460.797882080078

> <b_mmod_Minimization_Converged-OPLS-2005>
0

> <r_mmod_RMS_Derivative-OPLS-2005>
0.851537048816681

$$$$
3
                    3D
 Structure written by MMmdl.
162172  0  0  1  0            999 V2000
  -30.6249  -14.6946   20.4717 C   0  0  0  0  0  0
  -30.4300  -12.4210   19.4665 C   0  0  0  0  0  0
  -29.5062  -12.4982   18.2319 C   0  0  0  0  0  0
  -28.0301  -12.3374   18.6429 C   0  0  0  0  0  0
  -27.6450  -13.2257   19.8567 C   0  0  2  0  0  0
  -28.6900  -13.1338   20.9901 C   0  0  0  0  0  0
  -25.2538  -13.8180   20.5705 C   0  0  0  0  0  0
  -24.1809  -13.0441   20.9188 C   0  0  0  0  0  0
  -24.6376  -11.6909   20.8703 C   0  0  0  0  0  0
  -23.9038  -10.4293   21.0371 C   0  0  0  0  0  0
  -24.3594   -9.4221   21.9158 C   0  0  0  0  0  0
  -23.6284   -8.2246   22.0743 C   0  0  0  0  0  0
  -22.4266   -8.0261   21.3532 C   0  0  0  0  0  0
  -21.9883   -9.0230   20.4634 C   0  0  0  0  0  0
  -22.7202  -10.2124   20.3037 C   0  0  0  0  0  0
  -21.6862   -6.0710   22.5267 C   0  0  0  0  0  0
  -21.4018   -6.5626   23.8193 C   0  0  0  0  0  0
  -21.3662   -5.6791   24.9162 C   0  0  0  0  0  0
  -21.6043   -4.3049   24.7224 C   0  0  0  0  0  0
  -21.8824   -3.8133   23.4348 C   0  0  0  0  0  0
  -21.9201   -4.6936   22.3403 C   0  0  0  0  0  0
  -22.7840  -13.5225   21.1864 C   0  0  0  0  0  0
  -22.1672   -4.2114   21.0981 F   0  0  0  0  0  0
  -21.5625   -3.4545   25.7744 F   0  0  0  0  0  0
  -29.9955  -13.4741   20.4116 N   0  0  0  0  0  0
  -26.2955  -12.9373   20.3313 N   0  0  0  0  0  0
  -25.9306  -11.6516   20.5735 N   0  0  0  0  0  0
  -22.0515  -12.8187   22.0422 N   0  0  0  0  0  0
  -25.4253  -15.1896   20.4127 N   0  0  0  0  0  0
  -31.8060  -14.8033   20.1283 O   0  0  0  0  0  0
  -21.6652   -6.8843   21.4223 O   0  0  0  0  0  0
  -22.3511  -14.5532   20.6720 O   0  0  0  0  0  0
  -24.6288  -31.8562   23.1989 C   0  0  0  0  0  0
  -25.9124  -32.4761   23.8344 C   0  0  1  0  0  0
  -27.2258  -27.2900   20.1129 C   0  0  0  0  0  0
  -25.5935  -33.8567   24.2267 N   0  0  0  0  0  0
  -23.4238  -30.4803   21.5389 C   0  0  2  0  0  0
  -24.8705  -28.9279   20.1053 C   0  0  0  0  0  0
  -22.7488  -29.4614   22.4900 C   0  0  0  0  0  0
  -18.0284  -28.1382   22.8497 C   0  0  0  0  0  0
  -24.1462  -36.7245   23.2658 C   0  0  0  0  0  0
  -25.9672  -30.7750   21.3755 C   0  0  0  0  0  0
  -26.0371  -29.3998   20.7175 C   0  0  0  0  0  0
  -27.2122  -28.5893   20.7150 C   0  0  0  0  0  0
  -26.0323  -26.8669   19.4873 C   0  0  0  0  0  0
  -24.8719  -27.6685   19.4818 C   0  0  0  0  0  0
  -23.6409  -29.8135   20.1542 C   0  0  0  0  0  0
  -25.4093  -36.3069   24.0348 C   0  0  1  0  0  0
  -20.5896  -28.3692   23.1270 C   0  0  2  0  0  0
  -20.6761  -26.9412   22.5407 C   0  0  0  0  0  0
  -19.5736  -26.6368   21.5214 C   0  0  0  0  0  0
  -18.1919  -26.7925   22.1625 C   0  0  0  0  0  0
  -19.1544  -28.8852   23.2887 C   0  0  0  0  0  0
  -18.9481  -30.1454   23.8911 C   0  0  0  0  0  0
  -17.6489  -30.6597   24.0573 C   0  0  0  0  0  0
  -25.9047  -34.9448   23.5103 C   0  0  0  0  0  0
  -16.5373  -29.9099   23.6347 C   0  0  0  0  0  0
  -16.7273  -28.6510   23.0378 C   0  0  0  0  0  0
  -26.4499  -31.6604   25.0745 C   0  0  0  0  0  0
  -25.3721  -31.3738   26.1469 C   0  0  0  0  0  0
  -27.0388  -30.3045   24.6225 C   0  0  0  0  0  0
  -27.6058  -32.4357   25.7497 C   0  0  0  0  0  0
  -27.5553  -37.1779   24.8495 C   0  0  0  0  0  0
  -21.4199  -29.3043   22.3657 N   0  0  0  0  0  0
  -26.4263  -37.3771   23.9442 N   0  0  0  0  0  0
  -24.6913  -31.0563   22.0935 N   0  0  0  0  0  0
  -23.4200  -28.8161   23.2994 O   0  0  0  0  0  0
  -28.3539  -26.4540   20.1980 O   0  0  0  0  0  0
  -26.5627  -34.8931   22.4676 O   0  0  0  0  0  0
  -23.5440  -32.1377   23.7294 O   0  0  0  0  0  0
  -29.1851  -22.5856   19.6437 C   0  0  0  0  0  0
  -28.9270  -21.3072   20.2688 C   0  0  0  0  0  0
  -28.4243  -23.7454   20.0657 C   0  0  0  0  0  0
  -27.2888  -22.3536   21.5111 C   0  0  0  0  0  0
  -30.0320  -23.3538   17.2496 C   0  0  0  0  0  0
  -30.3061  -21.8773   17.3470 C   0  0  0  0  0  0
  -30.0033  -18.0932   21.8439 C   0  0  0  0  0  0
  -30.2722  -22.7205   18.6052 C   0  0  0  0  0  0
  -29.3247  -18.5477   20.5793 C   0  0  2  0  0  0
  -30.2669  -17.2508   20.6138 C   0  0  2  0  0  0
  -26.1723  -22.2115   22.5250 C   0  0  0  0  0  0
  -29.7233  -19.9632   19.9649 C   0  0  0  0  0  0
  -28.5296  -25.1968   19.4169 C   0  0  0  0  0  0
  -27.9616  -21.2435   21.2052 N   0  0  0  0  0  0
  -27.4749  -23.5733   21.0074 N   0  0  0  0  0  0
  -29.8610  -15.8168   20.7265 N   0  0  0  0  0  0
  -31.4719  -12.5378   19.1627 H   0  0  0  0  0  0
  -30.3649  -11.4377   19.9363 H   0  0  0  0  0  0
  -29.7771  -11.7276   17.5089 H   0  0  0  0  0  0
  -29.6448  -13.4555   17.7266 H   0  0  0  0  0  0
  -27.8669  -11.2864   18.8886 H   0  0  0  0  0  0
  -27.3778  -12.5543   17.7961 H   0  0  0  0  0  0
  -27.6477  -14.2527   19.4923 H   0  0  0  0  0  0
  -28.7170  -12.1284   21.4134 H   0  0  0  0  0  0
  -28.4323  -13.8026   21.8131 H   0  0  0  0  0  0
  -25.2731   -9.5714   22.4738 H   0  0  0  0  0  0
  -23.9992   -7.4653   22.7470 H   0  0  0  0  0  0
  -21.0811   -8.8727   19.8952 H   0  0  0  0  0  0
  -22.3619  -10.9650   19.6149 H   0  0  0  0  0  0
  -21.2002   -7.6133   23.9674 H   0  0  0  0  0  0
  -21.1483   -6.0529   25.9061 H   0  0  0  0  0  0
  -22.0596   -2.7586   23.2870 H   0  0  0  0  0  0
  -22.4183  -11.9846   22.4765 H   0  0  0  0  0  0
  -21.1136  -13.1172   22.2674 H   0  0  0  0  0  0
  -24.6547  -15.8418   20.5147 H   0  0  0  0  0  0
  -26.2668  -15.6278   20.0636 H   0  0  0  0  0  0
  -26.7197  -32.5412   23.1090 H   0  0  0  0  0  0
  -25.0151  -33.9721   25.0463 H   0  0  0  0  0  0
  -22.7209  -31.3042   21.3930 H   0  0  0  0  0  0
  -23.3751  -35.9553   23.3333 H   0  0  0  0  0  0
  -24.3549  -36.8836   22.2071 H   0  0  0  0  0  0
  -23.7174  -37.6433   23.6662 H   0  0  0  0  0  0
  -26.1134  -31.5343   20.6055 H   0  0  0  0  0  0
  -26.8415  -30.8182   22.0128 H   0  0  0  0  0  0
  -28.1055  -28.9467   21.2075 H   0  0  0  0  0  0
  -25.9587  -25.8913   19.0297 H   0  0  0  0  0  0
  -23.9741  -27.2988   19.0044 H   0  0  0  0  0  0
  -23.7690  -30.5910   19.4006 H   0  0  0  0  0  0
  -22.7584  -29.2508   19.8450 H   0  0  0  0  0  0
  -25.1257  -36.1912   25.0836 H   0  0  0  0  0  0
  -21.0020  -28.3254   24.1379 H   0  0  0  0  0  0
  -20.5645  -26.2314   23.3612 H   0  0  0  0  0  0
  -21.6622  -26.7397   22.1223 H   0  0  0  0  0  0
  -19.6905  -25.6269   21.1260 H   0  0  0  0  0  0
  -19.6679  -27.3177   20.6743 H   0  0  0  0  0  0
  -17.4186  -26.6717   21.4016 H   0  0  0  0  0  0
  -18.0304  -26.0042   22.8996 H   0  0  0  0  0  0
  -19.7964  -30.7266   24.2281 H   0  0  0  0  0  0
  -17.5050  -31.6294   24.5152 H   0  0  0  0  0  0
  -15.5384  -30.3028   23.7649 H   0  0  0  0  0  0
  -15.8660  -28.0829   22.7111 H   0  0  0  0  0  0
  -24.5981  -30.6973   25.7821 H   0  0  0  0  0  0
  -24.8818  -32.2892   26.4801 H   0  0  0  0  0  0
  -25.8061  -30.9036   27.0307 H   0  0  0  0  0  0
  -26.2998  -29.6762   24.1250 H   0  0  0  0  0  0
  -27.4118  -29.7334   25.4737 H   0  0  0  0  0  0
  -27.8826  -30.4366   23.9451 H   0  0  0  0  0  0
  -27.2700  -33.3711   26.1980 H   0  0  0  0  0  0
  -28.3896  -32.6820   25.0322 H   0  0  0  0  0  0
  -28.0694  -31.8546   26.5478 H   0  0  0  0  0  0
  -28.2593  -38.0056   24.7515 H   0  0  0  0  0  0
  -28.1010  -36.2585   24.6318 H   0  0  0  0  0  0
  -27.2291  -37.1418   25.8910 H   0  0  0  0  0  0
  -20.9385  -29.8788   21.6881 H   0  0  0  0  0  0
  -26.0135  -38.2837   24.1463 H   0  0  0  0  0  0
  -29.0197  -23.6385   16.9703 H   0  0  0  0  0  0
  -30.8219  -23.9735   16.8283 H   0  0  0  0  0  0
  -31.2774  -21.5292   16.9995 H   0  0  0  0  0  0
  -29.4667  -21.2244   17.1153 H   0  0  0  0  0  0
  -29.3589  -17.6859   22.6208 H   0  0  0  0  0  0
  -30.8357  -18.6898   22.2167 H   0  0  0  0  0  0
  -31.2248  -22.9366   19.0852 H   0  0  0  0  0  0
  -28.2611  -18.3338   20.4869 H   0  0  0  0  0  0
  -31.2319  -17.4049   20.1327 H   0  0  0  0  0  0
  -25.8357  -21.1773   22.6073 H   0  0  0  0  0  0
  -25.3116  -22.8130   22.2329 H   0  0  0  0  0  0
  -26.5037  -22.5435   23.5086 H   0  0  0  0  0  0
  -30.7730  -20.1491   20.1945 H   0  0  0  0  0  0
  -29.6893  -19.8181   18.8876 H   0  0  0  0  0  0
  -27.9253  -25.2117   18.5113 H   0  0  0  0  0  0
  -29.5493  -25.2879   19.0497 H   0  0  0  0  0  0
  -28.8974  -15.6396   20.9661 H   0  0  0  0  0  0
  1 25  1  0  0  0
  1 30  2  0  0  0
  1 86  1  0  0  0
  2  3  1  0  0  0
  2 25  1  0  0  0
  2 87  1  0  0  0
  2 88  1  0  0  0
  3  4  1  0  0  0
  3 89  1  0  0  0
  3 90  1  0  0  0
  4  5  1  0  0  0
  4 91  1  0  0  0
  4 92  1  0  0  0
  5  6  1  0  0  0
  5 26  1  0  0  0
  5 93  1  0  0  0
  6 25  1  0  0  0
  6 94  1  0  0  0
  6 95  1  0  0  0
  7  8  2  0  0  0
  7 26  1  0  0  0
  7 29  1  0  0  0
  8  9  1  0  0  0
  8 22  1  0  0  0
  9 10  1  0  0  0
  9 27  2  0  0  0
 10 11  2  0  0  0
 10 15  1  0  0  0
 11 12  1  0  0  0
 11 96  1  0  0  0
 12 13  2  0  0  0
 12 97  1  0  0  0
 13 14  1  0  0  0
 13 31  1  0  0  0
 14 15  2  0  0  0
 14 98  1  0  0  0
 15 99  1  0  0  0
 16 17  2  0  0  0
 16 21  1  0  0  0
 16 31  1  0  0  0
 17 18  1  0  0  0
 17100  1  0  0  0
 18 19  2  0  0  0
 18101  1  0  0  0
 19 20  1  0  0  0
 19 24  1  0  0  0
 20 21  2  0  0  0
 20102  1  0  0  0
 21 23  1  0  0  0
 22 28  1  0  0  0
 22 32  2  0  0  0
 26 27  1  0  0  0
 28103  1  0  0  0
 28104  1  0  0  0
 29105  1  0  0  0
 29106  1  0  0  0
 33 34  1  0  0  0
 33 66  1  0  0  0
 33 70  2  0  0  0
 34 36  1  0  0  0
 34 59  1  0  0  0
 34107  1  0  0  0
 35 44  2  0  0  0
 35 45  1  0  0  0
 35 68  1  0  0  0
 36 56  1  0  0  0
 36108  1  0  0  0
 37 39  1  0  0  0
 37 47  1  0  0  0
 37 66  1  0  0  0
 37109  1  0  0  0
 38 43  2  0  0  0
 38 46  1  0  0  0
 38 47  1  0  0  0
 39 64  1  0  0  0
 39 67  2  0  0  0
 40 52  1  0  0  0
 40 53  2  0  0  0
 40 58  1  0  0  0
 41110  1  0  0  0
 41111  1  0  0  0
 41112  1  0  0  0
 41 48  1  0  0  0
 42 43  1  0  0  0
 42 66  1  0  0  0
 42113  1  0  0  0
 42114  1  0  0  0
 43 44  1  0  0  0
 44115  1  0  0  0
 45 46  2  0  0  0
 45116  1  0  0  0
 46117  1  0  0  0
 47118  1  0  0  0
 47119  1  0  0  0
 48 56  1  0  0  0
 48 65  1  0  0  0
 48120  1  0  0  0
 49 50  1  0  0  0
 49 53  1  0  0  0
 49 64  1  0  0  0
 49121  1  0  0  0
 50 51  1  0  0  0
 50122  1  0  0  0
 50123  1  0  0  0
 51 52  1  0  0  0
 51124  1  0  0  0
 51125  1  0  0  0
 52126  1  0  0  0
 52127  1  0  0  0
 53 54  1  0  0  0
 54 55  2  0  0  0
 54128  1  0  0  0
 55 57  1  0  0  0
 55129  1  0  0  0
 56 69  2  0  0  0
 57 58  2  0  0  0
 57130  1  0  0  0
 58131  1  0  0  0
 59 60  1  0  0  0
 59 61  1  0  0  0
 59 62  1  0  0  0
 60132  1  0  0  0
 60133  1  0  0  0
 60134  1  0  0  0
 61135  1  0  0  0
 61136  1  0  0  0
 61137  1  0  0  0
 62138  1  0  0  0
 62139  1  0  0  0
 62140  1  0  0  0
 63 65  1  0  0  0
 63141  1  0  0  0
 63142  1  0  0  0
 63143  1  0  0  0
 64144  1  0  0  0
 65145  1  0  0  0
 68 83  1  0  0  0
 71 72  2  0  0  0
 71 73  1  0  0  0
 71 78  1  0  0  0
 72 82  1  0  0  0
 72 84  1  0  0  0
 73 83  1  0  0  0
 73 85  2  0  0  0
 74 81  1  0  0  0
 74 84  2  0  0  0
 74 85  1  0  0  0
 75 76  1  0  0  0
 75 78  1  0  0  0
 75146  1  0  0  0
 75147  1  0  0  0
 76 78  1  0  0  0
 76148  1  0  0  0
 76149  1  0  0  0
 77 79  1  0  0  0
 77 80  1  0  0  0
 77150  1  0  0  0
 77151  1  0  0  0
 78152  1  0  0  0
 79 80  1  0  0  0
 79 82  1  0  0  0
 79153  1  0  0  0
 80 86  1  0  0  0
 80154  1  0  0  0
 81155  1  0  0  0
 81156  1  0  0  0
 81157  1  0  0  0
 82158  1  0  0  0
 82159  1  0  0  0
 83160  1  0  0  0
 83161  1  0  0  0
 86162  1  0  0  0
M  ISO  4   1 100  68 101  83 101  86 100
M  END
> <chiral flag>
0

> <version>
0

> <s_m_source_file>
/data/baiqing/PycharmProjects/Reinvent-master-3.2/result/LINK_invent/BTK/process_docking_weight1_custom_sum_contain_oxygen_bond_distance_aromatic_linkinvent_7_9_3/rearranged_h_0189.sdf

> <i_m_source_file_index>
4

> <r_mmod_Potential_Energy-OPLS-2005>
-164.001235961914

> <r_mmod_Stretch_Energy-OPLS-2005>
106.710784912109

> <r_mmod_Bend_Energy-OPLS-2005>
164.208068847656

> <r_mmod_Torsional_Energy-OPLS-2005>
299.644989013672

> <r_mmod_Improper_Torsional_Energy-OPLS-2005>
4.7991156578064

> <r_mmod_Van_der_Waal_Energy-OPLS-2005>
140.445297241211

> <r_mmod_Electrostatic_Energy-OPLS-2005>
-709.419799804688

> <r_mmod_Solvation_Energy-OPLS-2005>
-235.810592651367

> <b_mmod_Minimization_Converged-OPLS-2005>
0

> <r_mmod_RMS_Derivative-OPLS-2005>
2.09080290794373

$$$$
4
                    3D
 Structure written by MMmdl.
158167  0  0  1  0            999 V2000
  -30.5950  -14.8136   20.3876 C   0  0  0  0  0  0
  -30.4435  -12.4817   19.4767 C   0  0  0  0  0  0
  -29.5170  -12.4452   18.2406 C   0  0  0  0  0  0
  -28.0403  -12.2957   18.6606 C   0  0  0  0  0  0
  -27.6372  -13.2277   19.8353 C   0  0  2  0  0  0
  -28.6891  -13.2303   20.9636 C   0  0  0  0  0  0
  -25.2520  -13.8177   20.5732 C   0  0  0  0  0  0
  -24.1802  -13.0430   20.9224 C   0  0  0  0  0  0
  -24.6392  -11.6907   20.8767 C   0  0  0  0  0  0
  -23.9076  -10.4285   21.0411 C   0  0  0  0  0  0
  -24.3630   -9.4195   21.9182 C   0  0  0  0  0  0
  -23.6304   -8.2233   22.0751 C   0  0  0  0  0  0
  -22.4287   -8.0280   21.3542 C   0  0  0  0  0  0
  -21.9920   -9.0256   20.4645 C   0  0  0  0  0  0
  -22.7250  -10.2134   20.3054 C   0  0  0  0  0  0
  -21.6848   -6.0738   22.5279 C   0  0  0  0  0  0
  -21.4014   -6.5636   23.8215 C   0  0  0  0  0  0
  -21.3671   -5.6786   24.9176 C   0  0  0  0  0  0
  -21.6048   -4.3048   24.7220 C   0  0  0  0  0  0
  -21.8817   -3.8144   23.4338 C   0  0  0  0  0  0
  -21.9189   -4.6965   22.3398 C   0  0  0  0  0  0
  -22.7824  -13.5223   21.1873 C   0  0  0  0  0  0
  -22.1655   -4.2153   21.0973 F   0  0  0  0  0  0
  -21.5636   -3.4528   25.7732 F   0  0  0  0  0  0
  -29.9747  -13.5814   20.3509 N   0  0  0  0  0  0
  -26.2936  -12.9376   20.3279 N   0  0  0  0  0  0
  -25.9322  -11.6529   20.5771 N   0  0  0  0  0  0
  -22.0465  -12.8216   22.0428 N   0  0  0  0  0  0
  -25.4224  -15.1894   20.4182 N   0  0  0  0  0  0
  -31.8190  -14.8705   20.2393 O   0  0  0  0  0  0
  -21.6641   -6.8886   21.4244 O   0  0  0  0  0  0
  -22.3509  -14.5530   20.6718 O   0  0  0  0  0  0
  -24.6327  -31.8533   23.1952 C   0  0  0  0  0  0
  -25.9141  -32.4745   23.8314 C   0  0  1  0  0  0
  -27.2315  -27.2472   20.1173 C   0  0  0  0  0  0
  -25.5922  -33.8547   24.2239 N   0  0  0  0  0  0
  -23.4305  -30.4748   21.5402 C   0  0  2  0  0  0
  -24.8786  -28.9193   20.1083 C   0  0  0  0  0  0
  -22.7510  -29.4587   22.4909 C   0  0  0  0  0  0
  -18.0293  -28.1382   22.8484 C   0  0  0  0  0  0
  -24.1489  -36.7271   23.2644 C   0  0  0  0  0  0
  -25.9783  -30.7615   21.3773 C   0  0  0  0  0  0
  -26.0522  -29.3844   20.7141 C   0  0  0  0  0  0
  -27.2267  -28.5621   20.7068 C   0  0  0  0  0  0
  -26.0206  -26.8456   19.5059 C   0  0  0  0  0  0
  -24.8692  -27.6579   19.4952 C   0  0  0  0  0  0
  -23.6490  -29.8072   20.1575 C   0  0  0  0  0  0
  -25.4116  -36.3062   24.0328 C   0  0  1  0  0  0
  -20.5899  -28.3700   23.1268 C   0  0  2  0  0  0
  -20.6780  -26.9414   22.5413 C   0  0  0  0  0  0
  -19.5755  -26.6380   21.5213 C   0  0  0  0  0  0
  -18.1933  -26.7921   22.1626 C   0  0  0  0  0  0
  -19.1546  -28.8854   23.2872 C   0  0  0  0  0  0
  -18.9467  -30.1450   23.8897 C   0  0  0  0  0  0
  -17.6467  -30.6588   24.0556 C   0  0  0  0  0  0
  -25.9058  -34.9434   23.5090 C   0  0  0  0  0  0
  -16.5358  -29.9085   23.6329 C   0  0  0  0  0  0
  -16.7277  -28.6498   23.0355 C   0  0  0  0  0  0
  -26.4503  -31.6577   25.0714 C   0  0  0  0  0  0
  -25.3726  -31.3727   26.1436 C   0  0  0  0  0  0
  -27.0371  -30.2994   24.6218 C   0  0  0  0  0  0
  -27.6055  -32.4331   25.7485 C   0  0  0  0  0  0
  -27.5572  -37.1789   24.8466 C   0  0  0  0  0  0
  -21.4215  -29.3047   22.3652 N   0  0  0  0  0  0
  -26.4285  -37.3763   23.9408 N   0  0  0  0  0  0
  -24.7000  -31.0482   22.0939 N   0  0  0  0  0  0
  -23.4197  -28.8135   23.3022 O   0  0  0  0  0  0
  -28.3322  -26.3497   20.2105 O   0  0  0  0  0  0
  -26.5647  -34.8915   22.4668 O   0  0  0  0  0  0
  -23.5475  -32.1361   23.7242 O   0  0  0  0  0  0
  -28.1480  -24.8589   18.2576 C   0  0  0  0  0  0
  -28.6781  -22.5924   18.3547 C   0  0  0  0  0  0
  -28.9558  -22.6590   19.7507 C   0  0  0  0  0  0
  -28.3806  -25.0317   19.6409 C   0  0  0  0  0  0
  -28.4884  -17.0616   18.9380 C   0  0  0  0  0  0
  -29.7309  -16.2761   18.5224 C   0  0  0  0  0  0
  -29.1701  -17.2563   20.2929 C   0  0  2  0  0  0
  -28.8650  -21.3252   17.5365 C   0  0  0  0  0  0
  -29.6139  -21.3863   20.4958 C   0  0  0  0  0  0
  -29.9399  -18.6858   20.4255 C   0  0  0  0  0  0
  -28.2711  -23.6646   17.6312 N   0  0  0  0  0  0
  -28.8093  -23.9132   20.3772 N   0  0  0  0  0  0
  -29.8377  -15.9003   19.9319 N   0  0  0  0  0  0
  -29.0474  -19.9555   20.3384 N   0  3  0  0  0  0
  -31.4793  -12.6224   19.1630 H   0  0  0  0  0  0
  -30.4152  -11.5325   20.0143 H   0  0  0  0  0  0
  -29.8018  -11.6198   17.5861 H   0  0  0  0  0  0
  -29.6477  -13.3440   17.6431 H   0  0  0  0  0  0
  -27.8959  -11.2553   18.9543 H   0  0  0  0  0  0
  -27.3849  -12.4619   17.8050 H   0  0  0  0  0  0
  -27.6101  -14.2302   19.4144 H   0  0  0  0  0  0
  -28.7433  -12.2591   21.4568 H   0  0  0  0  0  0
  -28.4239  -13.9599   21.7305 H   0  0  0  0  0  0
  -25.2772   -9.5665   22.4763 H   0  0  0  0  0  0
  -24.0004   -7.4618   22.7466 H   0  0  0  0  0  0
  -21.0850   -8.8787   19.8949 H   0  0  0  0  0  0
  -22.3715  -10.9681   19.6166 H   0  0  0  0  0  0
  -21.2003   -7.6143   23.9721 H   0  0  0  0  0  0
  -21.1501   -6.0511   25.9082 H   0  0  0  0  0  0
  -22.0588   -2.7607   23.2830 H   0  0  0  0  0  0
  -22.4076  -11.9880   22.4826 H   0  0  0  0  0  0
  -21.1087  -13.1245   22.2644 H   0  0  0  0  0  0
  -24.6604  -15.8478   20.5353 H   0  0  0  0  0  0
  -26.2849  -15.6256   20.1217 H   0  0  0  0  0  0
  -26.7203  -32.5386   23.1051 H   0  0  0  0  0  0
  -25.0025  -33.9675   25.0356 H   0  0  0  0  0  0
  -22.7273  -31.2972   21.3935 H   0  0  0  0  0  0
  -23.3758  -35.9597   23.3310 H   0  0  0  0  0  0
  -24.3579  -36.8895   22.2057 H   0  0  0  0  0  0
  -23.7239  -37.6467   23.6677 H   0  0  0  0  0  0
  -26.1227  -31.5251   20.6120 H   0  0  0  0  0  0
  -26.8518  -30.8061   22.0160 H   0  0  0  0  0  0
  -28.1229  -28.9146   21.1974 H   0  0  0  0  0  0
  -25.9183  -25.8672   19.0630 H   0  0  0  0  0  0
  -23.9648  -27.2881   19.0316 H   0  0  0  0  0  0
  -23.7713  -30.5830   19.4010 H   0  0  0  0  0  0
  -22.7667  -29.2412   19.8540 H   0  0  0  0  0  0
  -25.1302  -36.1903   25.0824 H   0  0  0  0  0  0
  -20.9985  -28.3281   24.1389 H   0  0  0  0  0  0
  -20.5678  -26.2307   23.3619 H   0  0  0  0  0  0
  -21.6648  -26.7435   22.1208 H   0  0  0  0  0  0
  -19.6921  -25.6291   21.1241 H   0  0  0  0  0  0
  -19.6688  -27.3194   20.6743 H   0  0  0  0  0  0
  -17.4202  -26.6662   21.4030 H   0  0  0  0  0  0
  -18.0337  -26.0064   22.9027 H   0  0  0  0  0  0
  -19.7943  -30.7255   24.2273 H   0  0  0  0  0  0
  -17.5029  -31.6269   24.5149 H   0  0  0  0  0  0
  -15.5362  -30.2991   23.7644 H   0  0  0  0  0  0
  -15.8676  -28.0812   22.7085 H   0  0  0  0  0  0
  -24.5873  -30.7116   25.7749 H   0  0  0  0  0  0
  -24.8949  -32.2901   26.4891 H   0  0  0  0  0  0
  -25.8035  -30.8860   27.0196 H   0  0  0  0  0  0
  -26.2967  -29.6726   24.1228 H   0  0  0  0  0  0
  -27.4036  -29.7276   25.4755 H   0  0  0  0  0  0
  -27.8855  -30.4277   23.9490 H   0  0  0  0  0  0
  -27.2651  -33.3630   26.2058 H   0  0  0  0  0  0
  -28.3858  -32.6894   25.0307 H   0  0  0  0  0  0
  -28.0734  -31.8459   26.5397 H   0  0  0  0  0  0
  -28.2594  -38.0080   24.7510 H   0  0  0  0  0  0
  -28.1063  -36.2611   24.6301 H   0  0  0  0  0  0
  -27.2288  -37.1451   25.8868 H   0  0  0  0  0  0
  -20.9397  -29.8760   21.6852 H   0  0  0  0  0  0
  -26.0162  -38.2837   24.1414 H   0  0  0  0  0  0
  -27.8772  -25.6995   17.6356 H   0  0  0  0  0  0
  -27.5843  -16.4542   18.9814 H   0  0  0  0  0  0
  -28.3200  -17.9639   18.3513 H   0  0  0  0  0  0
  -30.5588  -16.8880   18.1580 H   0  0  0  0  0  0
  -29.5058  -15.4717   17.8265 H   0  0  0  0  0  0
  -28.4401  -17.1325   21.0948 H   0  0  0  0  0  0
  -28.0941  -20.5928   17.7757 H   0  0  0  0  0  0
  -29.8470  -20.8831   17.7068 H   0  0  0  0  0  0
  -28.7931  -21.5305   16.4676 H   0  0  0  0  0  0
  -29.6625  -21.6084   21.5623 H   0  0  0  0  0  0
  -30.6518  -21.3573   20.1636 H   0  0  0  0  0  0
  -30.7069  -18.7734   19.6545 H   0  0  0  0  0  0
  -30.4810  -18.7201   21.3713 H   0  0  0  0  0  0
  -28.5913  -19.9325   19.4434 H   0  0  0  0  0  0
  -28.3182  -19.8661   21.0275 H   0  0  0  0  0  0
  1 25  1  0  0  0
  1 30  2  0  0  0
  1 83  1  0  0  0
  2  3  1  0  0  0
  2 25  1  0  0  0
  2 85  1  0  0  0
  2 86  1  0  0  0
  3  4  1  0  0  0
  3 87  1  0  0  0
  3 88  1  0  0  0
  4  5  1  0  0  0
  4 89  1  0  0  0
  4 90  1  0  0  0
  5  6  1  0  0  0
  5 26  1  0  0  0
  5 91  1  0  0  0
  6 25  1  0  0  0
  6 92  1  0  0  0
  6 93  1  0  0  0
  7  8  2  0  0  0
  7 26  1  0  0  0
  7 29  1  0  0  0
  8  9  1  0  0  0
  8 22  1  0  0  0
  9 10  1  0  0  0
  9 27  2  0  0  0
 10 11  2  0  0  0
 10 15  1  0  0  0
 11 12  1  0  0  0
 11 94  1  0  0  0
 12 13  2  0  0  0
 12 95  1  0  0  0
 13 14  1  0  0  0
 13 31  1  0  0  0
 14 15  2  0  0  0
 14 96  1  0  0  0
 15 97  1  0  0  0
 16 17  2  0  0  0
 16 21  1  0  0  0
 16 31  1  0  0  0
 17 18  1  0  0  0
 17 98  1  0  0  0
 18 19  2  0  0  0
 18 99  1  0  0  0
 19 20  1  0  0  0
 19 24  1  0  0  0
 20 21  2  0  0  0
 20100  1  0  0  0
 21 23  1  0  0  0
 22 28  1  0  0  0
 22 32  2  0  0  0
 26 27  1  0  0  0
 28101  1  0  0  0
 28102  1  0  0  0
 29103  1  0  0  0
 29104  1  0  0  0
 33 34  1  0  0  0
 33 66  1  0  0  0
 33 70  2  0  0  0
 34 36  1  0  0  0
 34 59  1  0  0  0
 34105  1  0  0  0
 35 44  2  0  0  0
 35 45  1  0  0  0
 35 68  1  0  0  0
 36 56  1  0  0  0
 36106  1  0  0  0
 37 39  1  0  0  0
 37 47  1  0  0  0
 37 66  1  0  0  0
 37107  1  0  0  0
 38 43  2  0  0  0
 38 46  1  0  0  0
 38 47  1  0  0  0
 39 64  1  0  0  0
 39 67  2  0  0  0
 40 52  1  0  0  0
 40 53  2  0  0  0
 40 58  1  0  0  0
 41108  1  0  0  0
 41109  1  0  0  0
 41110  1  0  0  0
 41 48  1  0  0  0
 42 43  1  0  0  0
 42 66  1  0  0  0
 42111  1  0  0  0
 42112  1  0  0  0
 43 44  1  0  0  0
 44113  1  0  0  0
 45 46  2  0  0  0
 45114  1  0  0  0
 46115  1  0  0  0
 47116  1  0  0  0
 47117  1  0  0  0
 48 56  1  0  0  0
 48 65  1  0  0  0
 48118  1  0  0  0
 49 50  1  0  0  0
 49 53  1  0  0  0
 49 64  1  0  0  0
 49119  1  0  0  0
 50 51  1  0  0  0
 50120  1  0  0  0
 50121  1  0  0  0
 51 52  1  0  0  0
 51122  1  0  0  0
 51123  1  0  0  0
 52124  1  0  0  0
 52125  1  0  0  0
 53 54  1  0  0  0
 54 55  2  0  0  0
 54126  1  0  0  0
 55 57  1  0  0  0
 55127  1  0  0  0
 56 69  2  0  0  0
 57 58  2  0  0  0
 57128  1  0  0  0
 58129  1  0  0  0
 59 60  1  0  0  0
 59 61  1  0  0  0
 59 62  1  0  0  0
 60130  1  0  0  0
 60131  1  0  0  0
 60132  1  0  0  0
 61133  1  0  0  0
 61134  1  0  0  0
 61135  1  0  0  0
 62136  1  0  0  0
 62137  1  0  0  0
 62138  1  0  0  0
 63 65  1  0  0  0
 63139  1  0  0  0
 63140  1  0  0  0
 63141  1  0  0  0
 64142  1  0  0  0
 65143  1  0  0  0
 68 74  1  0  0  0
 71 74  2  0  0  0
 71 81  1  0  0  0
 71144  1  0  0  0
 72 73  1  0  0  0
 72 78  1  0  0  0
 72 81  2  0  0  0
 73 79  1  0  0  0
 73 82  2  0  0  0
 74 82  1  0  0  0
 75 76  1  0  0  0
 75 77  1  0  0  0
 75145  1  0  0  0
 75146  1  0  0  0
 76 83  1  0  0  0
 76147  1  0  0  0
 76148  1  0  0  0
 77 80  1  0  0  0
 77 83  1  0  0  0
 77149  1  0  0  0
 78150  1  0  0  0
 78151  1  0  0  0
 78152  1  0  0  0
 79 84  1  0  0  0
 79153  1  0  0  0
 79154  1  0  0  0
 80 84  1  0  0  0
 80155  1  0  0  0
 80156  1  0  0  0
 84157  1  0  0  0
 84158  1  0  0  0
M  CHG  1  84   1
M  ISO  4   1 100  68 101  74 101  83 100
M  END
> <chiral flag>
0

> <version>
0

> <s_m_source_file>
/data/baiqing/PycharmProjects/Reinvent-master-3.2/result/LINK_invent/BTK/process_docking_weight1_custom_sum_contain_oxygen_bond_distance_aromatic_linkinvent_7_9_3/rearranged_h_0189.sdf

> <i_m_source_file_index>
5

> <r_mmod_Potential_Energy-OPLS-2005>
267.925384521484

> <r_mmod_Stretch_Energy-OPLS-2005>
150.156784057617

> <r_mmod_Bend_Energy-OPLS-2005>
227.950256347656

> <r_mmod_Torsional_Energy-OPLS-2005>
329.433685302734

> <r_mmod_Improper_Torsional_Energy-OPLS-2005>
26.6803855895996

> <r_mmod_Van_der_Waal_Energy-OPLS-2005>
132.060409545898

> <r_mmod_Electrostatic_Energy-OPLS-2005>
-203.294189453125

> <r_mmod_Solvation_Energy-OPLS-2005>
-509.884948730469

> <b_mmod_Minimization_Converged-OPLS-2005>
0

> <r_mmod_RMS_Derivative-OPLS-2005>
1.64732158184052

$$$$
5
                    3D
 Structure written by MMmdl.
151160  0  0  1  0            999 V2000
  -29.9768  -16.3808   20.4822 C   0  0  0  0  0  0
  -30.3751  -13.6175   19.6175 C   0  0  0  0  0  0
  -29.5982  -12.9071   18.4278 C   0  0  0  0  0  0
  -28.2297  -12.3526   18.8421 C   0  0  0  0  0  0
  -27.5960  -13.3623   19.7980 C   0  0  2  0  0  0
  -28.5445  -13.8653   20.9182 C   0  0  0  0  0  0
  -25.2291  -13.8307   20.5686 C   0  0  0  0  0  0
  -24.1734  -13.0408   20.9169 C   0  0  0  0  0  0
  -24.6509  -11.6947   20.8627 C   0  0  0  0  0  0
  -23.9204  -10.4290   21.0317 C   0  0  0  0  0  0
  -24.3717   -9.4220   21.9135 C   0  0  0  0  0  0
  -23.6344   -8.2278   22.0758 C   0  0  0  0  0  0
  -22.4312   -8.0319   21.3567 C   0  0  0  0  0  0
  -21.9970   -9.0283   20.4644 C   0  0  0  0  0  0
  -22.7337  -10.2138   20.3002 C   0  0  0  0  0  0
  -21.6874   -6.0754   22.5290 C   0  0  0  0  0  0
  -21.4027   -6.5651   23.8221 C   0  0  0  0  0  0
  -21.3671   -5.6799   24.9182 C   0  0  0  0  0  0
  -21.6049   -4.3061   24.7229 C   0  0  0  0  0  0
  -21.8810   -3.8156   23.4348 C   0  0  0  0  0  0
  -21.9198   -4.6977   22.3405 C   0  0  0  0  0  0
  -22.7746  -13.5120   21.1876 C   0  0  0  0  0  0
  -22.1659   -4.2168   21.0980 F   0  0  0  0  0  0
  -21.5632   -3.4542   25.7739 F   0  0  0  0  0  0
  -29.6406  -14.8113   20.3900 N   0  0  0  0  0  0
  -26.2791  -12.9726   20.3014 N   0  0  0  0  0  0
  -25.9475  -11.6756   20.5465 N   0  0  0  0  0  0
  -22.0484  -12.8077   22.0465 N   0  0  0  0  0  0
  -25.3837  -15.2071   20.4290 N   0  0  0  0  0  0
  -31.0606  -16.2334   19.8139 O   0  0  0  0  0  0
  -21.6666   -6.8920   21.4265 O   0  0  0  0  0  0
  -22.3382  -14.5418   20.6752 O   0  0  0  0  0  0
  -24.7250  -31.7478   23.1136 C   0  0  0  0  0  0
  -25.9598  -32.4232   23.7868 C   0  0  1  0  0  0
  -27.2549  -26.2337   20.2741 C   0  0  0  0  0  0
  -25.5994  -33.8084   24.1708 N   0  0  0  0  0  0
  -23.5742  -30.3215   21.4846 C   0  0  2  0  0  0
  -25.0372  -28.5628   20.1438 C   0  0  0  0  0  0
  -22.7958  -29.4013   22.4671 C   0  0  0  0  0  0
  -18.0362  -28.1434   22.8447 C   0  0  0  0  0  0
  -24.1514  -36.7042   23.2666 C   0  0  0  0  0  0
  -26.1720  -30.3258   21.4510 C   0  0  0  0  0  0
  -26.2354  -28.8353   20.8139 C   0  0  0  0  0  0
  -27.3050  -27.7175   20.8285 C   0  0  0  0  0  0
  -26.0147  -26.2902   19.5436 C   0  0  0  0  0  0
  -24.9939  -27.3191   19.4830 C   0  0  0  0  0  0
  -23.8512  -29.5696   20.1446 C   0  0  0  0  0  0
  -25.4176  -36.2763   24.0261 C   0  0  1  0  0  0
  -20.6015  -28.3804   23.1104 C   0  0  2  0  0  0
  -20.6821  -26.9427   22.5436 C   0  0  0  0  0  0
  -19.5804  -26.6348   21.5247 C   0  0  0  0  0  0
  -18.1978  -26.7958   22.1619 C   0  0  0  0  0  0
  -19.1634  -28.8957   23.2739 C   0  0  0  0  0  0
  -18.9530  -30.1537   23.8780 C   0  0  0  0  0  0
  -17.6511  -30.6617   24.0528 C   0  0  0  0  0  0
  -25.9172  -34.9158   23.4862 C   0  0  0  0  0  0
  -16.5401  -29.9076   23.6367 C   0  0  0  0  0  0
  -16.7337  -28.6502   23.0390 C   0  0  0  0  0  0
  -26.4620  -31.6447   25.0672 C   0  0  0  0  0  0
  -25.3571  -31.3877   26.1209 C   0  0  0  0  0  0
  -27.0599  -30.2731   24.6892 C   0  0  0  0  0  0
  -27.6008  -32.4409   25.7476 C   0  0  0  0  0  0
  -27.5571  -37.1661   24.8461 C   0  0  0  0  0  0
  -21.4569  -29.2957   22.3380 N   0  0  0  0  0  0
  -26.4273  -37.3566   23.9408 N   0  0  0  0  0  0
  -24.8534  -30.8419   22.0688 N   0  0  0  0  0  0
  -23.4162  -28.7703   23.3256 O   0  0  0  0  0  0
  -28.1983  -24.8261   20.2592 O   0  0  0  0  0  0
  -26.5887  -34.8811   22.4527 O   0  0  0  0  0  0
  -23.6169  -32.0791   23.5762 O   0  0  0  0  0  0
  -30.8377  -16.6149   22.5895 C   0  0  0  0  0  0
  -28.8500  -16.2402   22.5003 C   0  0  0  0  0  0
  -31.1729  -18.1309   21.4901 C   0  0  0  0  0  0
  -29.9760  -19.8151   22.5946 C   0  0  0  0  0  0
  -30.2788  -18.5813   23.8633 C   0  0  0  0  0  0
  -31.2434  -19.0510   22.7275 C   0  0  0  0  0  0
  -28.9521  -20.7559   19.9766 C   0  0  0  0  0  0
  -28.2683  -22.8265   20.4924 C   0  0  0  0  0  0
  -28.0473  -17.4953   21.1225 N   0  0  0  0  0  0
  -29.4471  -18.8100   20.4475 N   0  0  0  0  0  0
  -29.4436  -18.3258   22.5719 N   0  0  0  0  0  0
  -31.3087  -13.9789   19.1915 H   0  0  0  0  0  0
  -30.7187  -12.8685   20.3324 H   0  0  0  0  0  0
  -30.2115  -12.1098   18.0035 H   0  0  0  0  0  0
  -29.4536  -13.6354   17.6260 H   0  0  0  0  0  0
  -28.3670  -11.3976   19.3524 H   0  0  0  0  0  0
  -27.5967  -12.1620   17.9744 H   0  0  0  0  0  0
  -27.4046  -14.2303   19.1653 H   0  0  0  0  0  0
  -28.9287  -13.0484   21.5312 H   0  0  0  0  0  0
  -27.8348  -14.3570   21.5617 H   0  0  0  0  0  0
  -25.2890   -9.5686   22.4675 H   0  0  0  0  0  0
  -24.0056   -7.4680   22.7489 H   0  0  0  0  0  0
  -21.0902   -8.8790   19.8952 H   0  0  0  0  0  0
  -22.3802  -10.9650   19.6070 H   0  0  0  0  0  0
  -21.2012   -7.6158   23.9734 H   0  0  0  0  0  0
  -21.1503   -6.0527   25.9092 H   0  0  0  0  0  0
  -22.0574   -2.7618   23.2839 H   0  0  0  0  0  0
  -22.4186  -11.9752   22.4795 H   0  0  0  0  0  0
  -21.1107  -13.1051   22.2742 H   0  0  0  0  0  0
  -24.6218  -15.8552   20.5916 H   0  0  0  0  0  0
  -26.2536  -15.6789   20.2077 H   0  0  0  0  0  0
  -26.7751  -32.4596   23.0634 H   0  0  0  0  0  0
  -24.9962  -33.9088   24.9744 H   0  0  0  0  0  0
  -22.9266  -31.1687   21.2535 H   0  0  0  0  0  0
  -23.3829  -35.9320   23.3220 H   0  0  0  0  0  0
  -24.3580  -36.8834   22.2109 H   0  0  0  0  0  0
  -23.7216  -37.6141   23.6850 H   0  0  0  0  0  0
  -26.4120  -31.0172   20.6424 H   0  0  0  0  0  0
  -27.0098  -30.4179   22.1289 H   0  0  0  0  0  0
  -28.2009  -27.9625   21.3799 H   0  0  0  0  0  0
  -25.7747  -25.3895   18.9981 H   0  0  0  0  0  0
  -24.1053  -27.0893   18.9103 H   0  0  0  0  0  0
  -24.0533  -30.3066   19.3679 H   0  0  0  0  0  0
  -22.9509  -29.0465   19.8188 H   0  0  0  0  0  0
  -25.1407  -36.1475   25.0756 H   0  0  0  0  0  0
  -21.0068  -28.3456   24.1243 H   0  0  0  0  0  0
  -20.5687  -26.2426   23.3726 H   0  0  0  0  0  0
  -21.6677  -26.7327   22.1249 H   0  0  0  0  0  0
  -19.6958  -25.6232   21.1344 H   0  0  0  0  0  0
  -19.6777  -27.3109   20.6746 H   0  0  0  0  0  0
  -17.4266  -26.6732   21.3995 H   0  0  0  0  0  0
  -18.0309  -26.0111   22.9017 H   0  0  0  0  0  0
  -19.8003  -30.7388   24.2100 H   0  0  0  0  0  0
  -17.5054  -31.6288   24.5141 H   0  0  0  0  0  0
  -15.5392  -30.2932   23.7762 H   0  0  0  0  0  0
  -15.8744  -28.0764   22.7192 H   0  0  0  0  0  0
  -24.5846  -30.7141   25.7473 H   0  0  0  0  0  0
  -24.8663  -32.3128   26.4247 H   0  0  0  0  0  0
  -25.7653  -30.9279   27.0226 H   0  0  0  0  0  0
  -26.3376  -29.6222   24.1972 H   0  0  0  0  0  0
  -27.3904  -29.7357   25.5786 H   0  0  0  0  0  0
  -27.9404  -30.3720   24.0556 H   0  0  0  0  0  0
  -27.2525  -33.3855   26.1659 H   0  0  0  0  0  0
  -28.3967  -32.6742   25.0395 H   0  0  0  0  0  0
  -28.0517  -31.8817   26.5682 H   0  0  0  0  0  0
  -28.2503  -38.0029   24.7542 H   0  0  0  0  0  0
  -28.1146  -36.2542   24.6249 H   0  0  0  0  0  0
  -27.2291  -37.1239   25.8861 H   0  0  0  0  0  0
  -21.0010  -29.8475   21.6241 H   0  0  0  0  0  0
  -26.0064  -38.2595   24.1434 H   0  0  0  0  0  0
  -31.5454  -16.1581   23.2704 H   0  0  0  0  0  0
  -28.2505  -15.5810   23.1094 H   0  0  0  0  0  0
  -29.5769  -20.5665   23.3009 H   0  0  0  0  0  0
  -30.3145  -20.4396   21.7786 H   0  0  0  0  0  0
  -30.6193  -17.7621   24.5035 H   0  0  0  0  0  0
  -29.8974  -19.2344   24.6713 H   0  0  0  0  0  0
  -32.1551  -19.6010   22.9581 H   0  0  0  0  0  0
  -29.8800  -21.0406   19.4838 H   0  0  0  0  0  0
  -28.2839  -20.5693   19.1359 H   0  0  0  0  0  0
  -28.6347  -22.8501   21.5194 H   0  0  0  0  0  0
  -27.2008  -22.6465   20.6206 H   0  0  0  0  0  0
  1 25  1  0  0  0
  1 30  2  0  0  0
  1 81  1  0  0  0
  2  3  1  0  0  0
  2 25  1  0  0  0
  2 82  1  0  0  0
  2 83  1  0  0  0
  3  4  1  0  0  0
  3 84  1  0  0  0
  3 85  1  0  0  0
  4  5  1  0  0  0
  4 86  1  0  0  0
  4 87  1  0  0  0
  5  6  1  0  0  0
  5 26  1  0  0  0
  5 88  1  0  0  0
  6 25  1  0  0  0
  6 89  1  0  0  0
  6 90  1  0  0  0
  7  8  2  0  0  0
  7 26  1  0  0  0
  7 29  1  0  0  0
  8  9  1  0  0  0
  8 22  1  0  0  0
  9 10  1  0  0  0
  9 27  2  0  0  0
 10 11  2  0  0  0
 10 15  1  0  0  0
 11 12  1  0  0  0
 11 91  1  0  0  0
 12 13  2  0  0  0
 12 92  1  0  0  0
 13 14  1  0  0  0
 13 31  1  0  0  0
 14 15  2  0  0  0
 14 93  1  0  0  0
 15 94  1  0  0  0
 16 17  2  0  0  0
 16 21  1  0  0  0
 16 31  1  0  0  0
 17 18  1  0  0  0
 17 95  1  0  0  0
 18 19  2  0  0  0
 18 96  1  0  0  0
 19 20  1  0  0  0
 19 24  1  0  0  0
 20 21  2  0  0  0
 20 97  1  0  0  0
 21 23  1  0  0  0
 22 28  1  0  0  0
 22 32  2  0  0  0
 26 27  1  0  0  0
 28 98  1  0  0  0
 28 99  1  0  0  0
 29100  1  0  0  0
 29101  1  0  0  0
 33 34  1  0  0  0
 33 66  1  0  0  0
 33 70  2  0  0  0
 34 36  1  0  0  0
 34 59  1  0  0  0
 34102  1  0  0  0
 35 44  2  0  0  0
 35 45  1  0  0  0
 35 68  1  0  0  0
 36 56  1  0  0  0
 36103  1  0  0  0
 37 39  1  0  0  0
 37 47  1  0  0  0
 37 66  1  0  0  0
 37104  1  0  0  0
 38 43  2  0  0  0
 38 46  1  0  0  0
 38 47  1  0  0  0
 39 64  1  0  0  0
 39 67  2  0  0  0
 40 52  1  0  0  0
 40 53  2  0  0  0
 40 58  1  0  0  0
 41105  1  0  0  0
 41106  1  0  0  0
 41107  1  0  0  0
 41 48  1  0  0  0
 42 43  1  0  0  0
 42 66  1  0  0  0
 42108  1  0  0  0
 42109  1  0  0  0
 43 44  1  0  0  0
 44110  1  0  0  0
 45 46  2  0  0  0
 45111  1  0  0  0
 46112  1  0  0  0
 47113  1  0  0  0
 47114  1  0  0  0
 48 56  1  0  0  0
 48 65  1  0  0  0
 48115  1  0  0  0
 49 50  1  0  0  0
 49 53  1  0  0  0
 49 64  1  0  0  0
 49116  1  0  0  0
 50 51  1  0  0  0
 50117  1  0  0  0
 50118  1  0  0  0
 51 52  1  0  0  0
 51119  1  0  0  0
 51120  1  0  0  0
 52121  1  0  0  0
 52122  1  0  0  0
 53 54  1  0  0  0
 54 55  2  0  0  0
 54123  1  0  0  0
 55 57  1  0  0  0
 55124  1  0  0  0
 56 69  2  0  0  0
 57 58  2  0  0  0
 57125  1  0  0  0
 58126  1  0  0  0
 59 60  1  0  0  0
 59 61  1  0  0  0
 59 62  1  0  0  0
 60127  1  0  0  0
 60128  1  0  0  0
 60129  1  0  0  0
 61130  1  0  0  0
 61131  1  0  0  0
 61132  1  0  0  0
 62133  1  0  0  0
 62134  1  0  0  0
 62135  1  0  0  0
 63 65  1  0  0  0
 63136  1  0  0  0
 63137  1  0  0  0
 63138  1  0  0  0
 64139  1  0  0  0
 65140  1  0  0  0
 68 78  1  0  0  0
 71 72  1  0  0  0
 71 73  2  0  0  0
 71141  1  0  0  0
 72 79  2  0  0  0
 72142  1  0  0  0
 73 80  1  0  0  0
 73 76  1  0  0  0
 74 76  1  0  0  0
 74 81  1  0  0  0
 74143  1  0  0  0
 74144  1  0  0  0
 75 76  1  0  0  0
 75 81  1  0  0  0
 75145  1  0  0  0
 75146  1  0  0  0
 76147  1  0  0  0
 77 78  1  0  0  0
 77 80  1  0  0  0
 77148  1  0  0  0
 77149  1  0  0  0
 78150  1  0  0  0
 78151  1  0  0  0
 79 80  1  0  0  0
M  ISO  4   1 100  68 101  78 101  81 100
M  END
> <chiral flag>
0

> <version>
0

> <s_m_source_file>
/data/baiqing/PycharmProjects/Reinvent-master-3.2/result/LINK_invent/BTK/process_docking_weight1_custom_sum_contain_oxygen_bond_distance_aromatic_linkinvent_7_9_3/rearranged_h_0189.sdf

> <i_m_source_file_index>
6

> <r_mmod_Potential_Energy-OPLS-2005>
18107.533203125

> <r_mmod_Stretch_Energy-OPLS-2005>
11282.208984375

> <r_mmod_Bend_Energy-OPLS-2005>
1269.24865722656

> <r_mmod_Torsional_Energy-OPLS-2005>
417.617797851562

> <r_mmod_Improper_Torsional_Energy-OPLS-2005>
89.7120971679688

> <r_mmod_Van_der_Waal_Energy-OPLS-2005>
3377.58813476562

> <r_mmod_Electrostatic_Energy-OPLS-2005>
-341.007904052734

> <r_mmod_Solvation_Energy-OPLS-2005>
-225.737945556641

> <b_mmod_Minimization_Converged-OPLS-2005>
0

> <r_mmod_RMS_Derivative-OPLS-2005>
3.82308530807495

$$$$
6
                    3D
 Structure written by MMmdl.
159168  0  0  1  0            999 V2000
  -30.4893  -15.1468   20.3782 C   0  0  0  0  0  0
  -30.4303  -12.7211   19.5276 C   0  0  0  0  0  0
  -29.5319  -12.5483   18.2805 C   0  0  0  0  0  0
  -28.0724  -12.3014   18.6982 C   0  0  0  0  0  0
  -27.6143  -13.2659   19.8224 C   0  0  2  0  0  0
  -28.6435  -13.4044   20.9619 C   0  0  0  0  0  0
  -25.2420  -13.8249   20.5728 C   0  0  0  0  0  0
  -24.1750  -13.0454   20.9222 C   0  0  0  0  0  0
  -24.6382  -11.6944   20.8730 C   0  0  0  0  0  0
  -23.9070  -10.4312   21.0398 C   0  0  0  0  0  0
  -24.3629   -9.4224   21.9174 C   0  0  0  0  0  0
  -23.6310   -8.2253   22.0745 C   0  0  0  0  0  0
  -22.4286   -8.0293   21.3541 C   0  0  0  0  0  0
  -21.9914   -9.0264   20.4639 C   0  0  0  0  0  0
  -22.7238  -10.2145   20.3051 C   0  0  0  0  0  0
  -21.6870   -6.0751   22.5280 C   0  0  0  0  0  0
  -21.4023   -6.5639   23.8213 C   0  0  0  0  0  0
  -21.3657   -5.6783   24.9168 C   0  0  0  0  0  0
  -21.6046   -4.3049   24.7207 C   0  0  0  0  0  0
  -21.8823   -3.8147   23.4330 C   0  0  0  0  0  0
  -21.9192   -4.6974   22.3398 C   0  0  0  0  0  0
  -22.7768  -13.5226   21.1884 C   0  0  0  0  0  0
  -22.1665   -4.2160   21.0968 F   0  0  0  0  0  0
  -21.5621   -3.4529   25.7718 F   0  0  0  0  0  0
  -29.8960  -13.8645   20.3457 N   0  0  0  0  0  0
  -26.2822  -12.9497   20.3187 N   0  0  0  0  0  0
  -25.9315  -11.6613   20.5691 N   0  0  0  0  0  0
  -22.0414  -12.8228   22.0438 N   0  0  0  0  0  0
  -25.4111  -15.1978   20.4192 N   0  0  0  0  0  0
  -31.7061  -15.1389   20.1458 O   0  0  0  0  0  0
  -21.6650   -6.8897   21.4245 O   0  0  0  0  0  0
  -22.3448  -14.5530   20.6716 O   0  0  0  0  0  0
  -24.6591  -31.8289   23.1753 C   0  0  0  0  0  0
  -25.9299  -32.4624   23.8188 C   0  0  1  0  0  0
  -27.2134  -26.9905   20.1776 C   0  0  0  0  0  0
  -25.5982  -33.8430   24.2126 N   0  0  0  0  0  0
  -23.4702  -30.4448   21.5238 C   0  0  2  0  0  0
  -24.9201  -28.8399   20.1179 C   0  0  0  0  0  0
  -22.7646  -29.4488   22.4803 C   0  0  0  0  0  0
  -18.0329  -28.1417   22.8479 C   0  0  0  0  0  0
  -24.1488  -36.7221   23.2640 C   0  0  0  0  0  0
  -26.0356  -30.6565   21.3971 C   0  0  0  0  0  0
  -26.1039  -29.2512   20.7430 C   0  0  0  0  0  0
  -27.2519  -28.3478   20.7471 C   0  0  0  0  0  0
  -26.0021  -26.7157   19.5065 C   0  0  0  0  0  0
  -24.8901  -27.5910   19.4803 C   0  0  0  0  0  0
  -23.7052  -29.7619   20.1501 C   0  0  0  0  0  0
  -25.4127  -36.2999   24.0320 C   0  0  1  0  0  0
  -20.5946  -28.3759   23.1196 C   0  0  2  0  0  0
  -20.6819  -26.9447   22.5394 C   0  0  0  0  0  0
  -19.5786  -26.6389   21.5216 C   0  0  0  0  0  0
  -18.1966  -26.7958   22.1622 C   0  0  0  0  0  0
  -19.1584  -28.8908   23.2831 C   0  0  0  0  0  0
  -18.9493  -30.1502   23.8868 C   0  0  0  0  0  0
  -17.6483  -30.6609   24.0554 C   0  0  0  0  0  0
  -25.9083  -34.9368   23.5039 C   0  0  0  0  0  0
  -16.5377  -29.9093   23.6343 C   0  0  0  0  0  0
  -16.7306  -28.6507   23.0370 C   0  0  0  0  0  0
  -26.4567  -31.6543   25.0688 C   0  0  0  0  0  0
  -25.3699  -31.3785   26.1350 C   0  0  0  0  0  0
  -27.0466  -30.2920   24.6384 C   0  0  0  0  0  0
  -27.6069  -32.4340   25.7484 C   0  0  0  0  0  0
  -27.5587  -37.1762   24.8466 C   0  0  0  0  0  0
  -21.4318  -29.3056   22.3551 N   0  0  0  0  0  0
  -26.4284  -37.3728   23.9425 N   0  0  0  0  0  0
  -24.7421  -31.0015   22.0860 N   0  0  0  0  0  0
  -23.4213  -28.8054   23.3024 O   0  0  0  0  0  0
  -28.2328  -25.9235   20.1895 O   0  0  0  0  0  0
  -26.5657  -34.8894   22.4616 O   0  0  0  0  0  0
  -23.5679  -32.1213   23.6903 O   0  0  0  0  0  0
  -30.0690  -20.7186   18.7859 C   0  0  0  0  0  0
  -29.3213  -20.4080   19.9467 C   0  0  0  0  0  0
  -30.0843  -22.0533   18.2883 C   0  0  0  0  0  0
  -28.7687  -22.9299   19.9950 C   0  0  0  0  0  0
  -29.2004  -17.3917   19.5038 C   0  0  0  0  0  0
  -30.3774  -17.7536   21.0757 C   0  0  0  0  0  0
  -29.2822  -18.7388   20.4089 C   0  0  0  0  0  0
  -32.0403  -23.1991   17.0921 C   0  0  0  0  0  0
  -32.1335  -19.6917   18.3551 C   0  0  0  0  0  0
  -30.7405  -22.3908   16.9538 C   0  0  0  0  0  0
  -27.9392  -24.3527   20.4842 C   0  0  0  0  0  0
  -28.6739  -21.5868   20.5127 N   0  0  0  0  0  0
  -29.4780  -23.1041   18.8876 N   0  0  0  0  0  0
  -29.7827  -16.4249   20.5525 N   0  0  0  0  0  0
  -30.7295  -19.7145   18.1255 O   0  0  0  0  0  0
  -31.4579  -12.8932   19.2063 H   0  0  0  0  0  0
  -30.4580  -11.8023   20.1163 H   0  0  0  0  0  0
  -29.8938  -11.7218   17.6656 H   0  0  0  0  0  0
  -29.5885  -13.4425   17.6594 H   0  0  0  0  0  0
  -28.0039  -11.2721   19.0507 H   0  0  0  0  0  0
  -27.4112  -12.3717   17.8350 H   0  0  0  0  0  0
  -27.5454  -14.2432   19.3425 H   0  0  0  0  0  0
  -28.7722  -12.4652   21.5019 H   0  0  0  0  0  0
  -28.2977  -14.1425   21.6881 H   0  0  0  0  0  0
  -25.2770   -9.5717   22.4748 H   0  0  0  0  0  0
  -24.0023   -7.4653   22.7465 H   0  0  0  0  0  0
  -21.0848   -8.8794   19.8944 H   0  0  0  0  0  0
  -22.3704  -10.9690   19.6162 H   0  0  0  0  0  0
  -21.2035   -7.6145   23.9730 H   0  0  0  0  0  0
  -21.1467   -6.0503   25.9078 H   0  0  0  0  0  0
  -22.0604   -2.7613   23.2817 H   0  0  0  0  0  0
  -22.4018  -11.9905   22.4870 H   0  0  0  0  0  0
  -21.1017  -13.1249   22.2617 H   0  0  0  0  0  0
  -24.6501  -15.8560   20.5469 H   0  0  0  0  0  0
  -26.2756  -15.6367   20.1284 H   0  0  0  0  0  0
  -26.7361  -32.5195   23.0896 H   0  0  0  0  0  0
  -25.0149  -33.9495   25.0296 H   0  0  0  0  0  0
  -22.7826  -31.2763   21.3577 H   0  0  0  0  0  0
  -23.3773  -35.9524   23.3257 H   0  0  0  0  0  0
  -24.3572  -36.8894   22.2057 H   0  0  0  0  0  0
  -23.7198  -37.6390   23.6700 H   0  0  0  0  0  0
  -26.2088  -31.4019   20.6201 H   0  0  0  0  0  0
  -26.8986  -30.7121   22.0491 H   0  0  0  0  0  0
  -28.1550  -28.6617   21.2511 H   0  0  0  0  0  0
  -25.8897  -25.7664   19.0019 H   0  0  0  0  0  0
  -23.9917  -27.2753   18.9691 H   0  0  0  0  0  0
  -23.8568  -30.5281   19.3884 H   0  0  0  0  0  0
  -22.8169  -29.2107   19.8360 H   0  0  0  0  0  0
  -25.1314  -36.1809   25.0811 H   0  0  0  0  0  0
  -21.0040  -28.3365   24.1314 H   0  0  0  0  0  0
  -20.5735  -26.2364   23.3621 H   0  0  0  0  0  0
  -21.6681  -26.7459   22.1172 H   0  0  0  0  0  0
  -19.6939  -25.6285   21.1277 H   0  0  0  0  0  0
  -19.6730  -27.3168   20.6719 H   0  0  0  0  0  0
  -17.4237  -26.6700   21.4022 H   0  0  0  0  0  0
  -18.0370  -26.0113   22.9029 H   0  0  0  0  0  0
  -19.7965  -30.7338   24.2216 H   0  0  0  0  0  0
  -17.5029  -31.6282   24.5164 H   0  0  0  0  0  0
  -15.5372  -30.2975   23.7701 H   0  0  0  0  0  0
  -15.8706  -28.0805   22.7114 H   0  0  0  0  0  0
  -24.5870  -30.7162   25.7638 H   0  0  0  0  0  0
  -24.8900  -32.2988   26.4686 H   0  0  0  0  0  0
  -25.7915  -30.8975   27.0187 H   0  0  0  0  0  0
  -26.3124  -29.6596   24.1380 H   0  0  0  0  0  0
  -27.4019  -29.7288   25.5025 H   0  0  0  0  0  0
  -27.9058  -30.4133   23.9783 H   0  0  0  0  0  0
  -27.2652  -33.3689   26.1951 H   0  0  0  0  0  0
  -28.3933  -32.6830   25.0338 H   0  0  0  0  0  0
  -28.0687  -31.8532   26.5485 H   0  0  0  0  0  0
  -28.2572  -38.0096   24.7569 H   0  0  0  0  0  0
  -28.1124  -36.2625   24.6233 H   0  0  0  0  0  0
  -27.2310  -37.1336   25.8869 H   0  0  0  0  0  0
  -20.9572  -29.8701   21.6644 H   0  0  0  0  0  0
  -26.0148  -38.2796   24.1436 H   0  0  0  0  0  0
  -29.8176  -17.4460   18.6049 H   0  0  0  0  0  0
  -28.1777  -17.1601   19.2061 H   0  0  0  0  0  0
  -31.3837  -17.9374   20.6964 H   0  0  0  0  0  0
  -30.3966  -17.8357   22.1631 H   0  0  0  0  0  0
  -28.4160  -18.7070   21.0698 H   0  0  0  0  0  0
  -32.7625  -22.6989   17.7377 H   0  0  0  0  0  0
  -31.8429  -24.1863   17.5105 H   0  0  0  0  0  0
  -32.5042  -23.3415   16.1162 H   0  0  0  0  0  0
  -32.6584  -20.3668   17.6800 H   0  0  0  0  0  0
  -32.5120  -18.6849   18.1754 H   0  0  0  0  0  0
  -32.3853  -19.9561   19.3839 H   0  0  0  0  0  0
  -30.0281  -22.9558   16.3512 H   0  0  0  0  0  0
  -30.9272  -21.4804   16.3860 H   0  0  0  0  0  0
  -27.9231  -24.2893   21.5718 H   0  0  0  0  0  0
  -26.9038  -24.1711   20.2013 H   0  0  0  0  0  0
  1 25  1  0  0  0
  1 30  2  0  0  0
  1 84  1  0  0  0
  2  3  1  0  0  0
  2 25  1  0  0  0
  2 86  1  0  0  0
  2 87  1  0  0  0
  3  4  1  0  0  0
  3 88  1  0  0  0
  3 89  1  0  0  0
  4  5  1  0  0  0
  4 90  1  0  0  0
  4 91  1  0  0  0
  5  6  1  0  0  0
  5 26  1  0  0  0
  5 92  1  0  0  0
  6 25  1  0  0  0
  6 93  1  0  0  0
  6 94  1  0  0  0
  7  8  2  0  0  0
  7 26  1  0  0  0
  7 29  1  0  0  0
  8  9  1  0  0  0
  8 22  1  0  0  0
  9 10  1  0  0  0
  9 27  2  0  0  0
 10 11  2  0  0  0
 10 15  1  0  0  0
 11 12  1  0  0  0
 11 95  1  0  0  0
 12 13  2  0  0  0
 12 96  1  0  0  0
 13 14  1  0  0  0
 13 31  1  0  0  0
 14 15  2  0  0  0
 14 97  1  0  0  0
 15 98  1  0  0  0
 16 17  2  0  0  0
 16 21  1  0  0  0
 16 31  1  0  0  0
 17 18  1  0  0  0
 17 99  1  0  0  0
 18 19  2  0  0  0
 18100  1  0  0  0
 19 20  1  0  0  0
 19 24  1  0  0  0
 20 21  2  0  0  0
 20101  1  0  0  0
 21 23  1  0  0  0
 22 28  1  0  0  0
 22 32  2  0  0  0
 26 27  1  0  0  0
 28102  1  0  0  0
 28103  1  0  0  0
 29104  1  0  0  0
 29105  1  0  0  0
 33 34  1  0  0  0
 33 66  1  0  0  0
 33 70  2  0  0  0
 34 36  1  0  0  0
 34 59  1  0  0  0
 34106  1  0  0  0
 35 44  2  0  0  0
 35 45  1  0  0  0
 35 68  1  0  0  0
 36 56  1  0  0  0
 36107  1  0  0  0
 37 39  1  0  0  0
 37 47  1  0  0  0
 37 66  1  0  0  0
 37108  1  0  0  0
 38 43  2  0  0  0
 38 46  1  0  0  0
 38 47  1  0  0  0
 39 64  1  0  0  0
 39 67  2  0  0  0
 40 52  1  0  0  0
 40 53  2  0  0  0
 40 58  1  0  0  0
 41109  1  0  0  0
 41110  1  0  0  0
 41111  1  0  0  0
 41 48  1  0  0  0
 42 43  1  0  0  0
 42 66  1  0  0  0
 42112  1  0  0  0
 42113  1  0  0  0
 43 44  1  0  0  0
 44114  1  0  0  0
 45 46  2  0  0  0
 45115  1  0  0  0
 46116  1  0  0  0
 47117  1  0  0  0
 47118  1  0  0  0
 48 56  1  0  0  0
 48 65  1  0  0  0
 48119  1  0  0  0
 49 50  1  0  0  0
 49 53  1  0  0  0
 49 64  1  0  0  0
 49120  1  0  0  0
 50 51  1  0  0  0
 50121  1  0  0  0
 50122  1  0  0  0
 51 52  1  0  0  0
 51123  1  0  0  0
 51124  1  0  0  0
 52125  1  0  0  0
 52126  1  0  0  0
 53 54  1  0  0  0
 54 55  2  0  0  0
 54127  1  0  0  0
 55 57  1  0  0  0
 55128  1  0  0  0
 56 69  2  0  0  0
 57 58  2  0  0  0
 57129  1  0  0  0
 58130  1  0  0  0
 59 60  1  0  0  0
 59 61  1  0  0  0
 59 62  1  0  0  0
 60131  1  0  0  0
 60132  1  0  0  0
 60133  1  0  0  0
 61134  1  0  0  0
 61135  1  0  0  0
 61136  1  0  0  0
 62137  1  0  0  0
 62138  1  0  0  0
 62139  1  0  0  0
 63 65  1  0  0  0
 63140  1  0  0  0
 63141  1  0  0  0
 63142  1  0  0  0
 64143  1  0  0  0
 65144  1  0  0  0
 68 81  1  0  0  0
 71 72  2  0  0  0
 71 73  1  0  0  0
 71 85  1  0  0  0
 72 82  1  0  0  0
 72 77  1  0  0  0
 73 80  1  0  0  0
 73 83  2  0  0  0
 74 81  1  0  0  0
 74 82  2  0  0  0
 74 83  1  0  0  0
 75 77  1  0  0  0
 75 84  1  0  0  0
 75145  1  0  0  0
 75146  1  0  0  0
 76 77  1  0  0  0
 76 84  1  0  0  0
 76147  1  0  0  0
 76148  1  0  0  0
 77149  1  0  0  0
 78 80  1  0  0  0
 78150  1  0  0  0
 78151  1  0  0  0
 78152  1  0  0  0
 79 85  1  0  0  0
 79153  1  0  0  0
 79154  1  0  0  0
 79155  1  0  0  0
 80156  1  0  0  0
 80157  1  0  0  0
 81158  1  0  0  0
 81159  1  0  0  0
M  ISO  4   1 100  68 101  81 101  84 100
M  END
> <chiral flag>
0

> <version>
0

> <s_m_source_file>
/data/baiqing/PycharmProjects/Reinvent-master-3.2/result/LINK_invent/BTK/process_docking_weight1_custom_sum_contain_oxygen_bond_distance_aromatic_linkinvent_7_9_3/rearranged_h_0189.sdf

> <i_m_source_file_index>
7

> <r_mmod_Potential_Energy-OPLS-2005>
730.438659667969

> <r_mmod_Stretch_Energy-OPLS-2005>
420.269714355469

> <r_mmod_Bend_Energy-OPLS-2005>
367.052795410156

> <r_mmod_Torsional_Energy-OPLS-2005>
301.627655029297

> <r_mmod_Improper_Torsional_Energy-OPLS-2005>
9.94604873657227

> <r_mmod_Van_der_Waal_Energy-OPLS-2005>
126.067558288574

> <r_mmod_Electrostatic_Energy-OPLS-2005>
-609.256896972656

> <r_mmod_Solvation_Energy-OPLS-2005>
-236.11328125

> <b_mmod_Minimization_Converged-OPLS-2005>
0

> <r_mmod_RMS_Derivative-OPLS-2005>
2.49490880966187

$$$$
7
                    3D
 Structure written by MMmdl.
163172  0  0  1  0            999 V2000
  -30.6995  -14.4525   20.5860 C   0  0  0  0  0  0
  -30.4258  -12.2986   19.4096 C   0  0  0  0  0  0
  -29.4917  -12.5088   18.1991 C   0  0  0  0  0  0
  -28.0127  -12.3705   18.6127 C   0  0  0  0  0  0
  -27.6640  -13.2001   19.8773 C   0  0  2  0  0  0
  -28.7063  -12.9533   20.9918 C   0  0  0  0  0  0
  -25.2603  -13.8150   20.5676 C   0  0  0  0  0  0
  -24.1845  -13.0435   20.9159 C   0  0  0  0  0  0
  -24.6391  -11.6899   20.8730 C   0  0  0  0  0  0
  -23.9058  -10.4290   21.0406 C   0  0  0  0  0  0
  -24.3611   -9.4208   21.9183 C   0  0  0  0  0  0
  -23.6287   -8.2246   22.0758 C   0  0  0  0  0  0
  -22.4271   -8.0282   21.3546 C   0  0  0  0  0  0
  -21.9906   -9.0254   20.4648 C   0  0  0  0  0  0
  -22.7235  -10.2133   20.3053 C   0  0  0  0  0  0
  -21.6849   -6.0736   22.5280 C   0  0  0  0  0  0
  -21.4011   -6.5641   23.8213 C   0  0  0  0  0  0
  -21.3658   -5.6793   24.9178 C   0  0  0  0  0  0
  -21.6046   -4.3057   24.7229 C   0  0  0  0  0  0
  -21.8818   -3.8147   23.4350 C   0  0  0  0  0  0
  -21.9192   -4.6962   22.3406 C   0  0  0  0  0  0
  -22.7871  -13.5241   21.1828 C   0  0  0  0  0  0
  -22.1660   -4.2151   21.0981 F   0  0  0  0  0  0
  -21.5630   -3.4539   25.7742 F   0  0  0  0  0  0
  -30.0404  -13.2681   20.4467 N   0  0  0  0  0  0
  -26.3036  -12.9307   20.3373 N   0  0  0  0  0  0
  -25.9316  -11.6472   20.5758 N   0  0  0  0  0  0
  -22.0502  -12.8236   22.0380 N   0  0  0  0  0  0
  -25.4345  -15.1869   20.4115 N   0  0  0  0  0  0
  -31.8199  -14.6385   20.0953 O   0  0  0  0  0  0
  -21.6634   -6.8880   21.4243 O   0  0  0  0  0  0
  -22.3566  -14.5559   20.6689 O   0  0  0  0  0  0
  -24.6134  -31.8685   23.2106 C   0  0  0  0  0  0
  -25.9030  -32.4831   23.8397 C   0  0  1  0  0  0
  -27.2398  -27.4519   20.0961 C   0  0  0  0  0  0
  -25.5903  -33.8626   24.2342 N   0  0  0  0  0  0
  -23.4014  -30.4892   21.5511 C   0  0  2  0  0  0
  -24.8514  -28.9567   20.1163 C   0  0  0  0  0  0
  -22.7417  -29.4637   22.5004 C   0  0  0  0  0  0
  -18.0272  -28.1366   22.8480 C   0  0  0  0  0  0
  -24.1488  -36.7311   23.2637 C   0  0  0  0  0  0
  -25.9280  -30.8406   21.3601 C   0  0  0  0  0  0
  -26.0101  -29.4750   20.7091 C   0  0  0  0  0  0
  -27.2110  -28.7306   20.6941 C   0  0  0  0  0  0
  -26.0687  -26.9434   19.4964 C   0  0  0  0  0  0
  -24.8745  -27.6891   19.5069 C   0  0  0  0  0  0
  -23.6113  -29.8206   20.1654 C   0  0  0  0  0  0
  -25.4109  -36.3116   24.0344 C   0  0  1  0  0  0
  -20.5863  -28.3641   23.1324 C   0  0  2  0  0  0
  -20.6767  -26.9381   22.5411 C   0  0  0  0  0  0
  -19.5749  -26.6375   21.5203 C   0  0  0  0  0  0
  -18.1922  -26.7911   22.1610 C   0  0  0  0  0  0
  -19.1522  -28.8822   23.2893 C   0  0  0  0  0  0
  -18.9454  -30.1430   23.8902 C   0  0  0  0  0  0
  -17.6457  -30.6573   24.0554 C   0  0  0  0  0  0
  -25.9033  -34.9476   23.5133 C   0  0  0  0  0  0
  -16.5347  -29.9076   23.6319 C   0  0  0  0  0  0
  -16.7263  -28.6495   23.0333 C   0  0  0  0  0  0
  -26.4470  -31.6598   25.0709 C   0  0  0  0  0  0
  -25.3741  -31.3687   26.1459 C   0  0  0  0  0  0
  -27.0304  -30.3058   24.6039 C   0  0  0  0  0  0
  -27.6050  -32.4302   25.7478 C   0  0  0  0  0  0
  -27.5583  -37.1812   24.8468 C   0  0  0  0  0  0
  -21.4148  -29.3013   22.3751 N   0  0  0  0  0  0
  -26.4300  -37.3795   23.9405 N   0  0  0  0  0  0
  -24.6655  -31.0794   22.0999 N   0  0  0  0  0  0
  -23.4197  -28.8177   23.3037 O   0  0  0  0  0  0
  -28.3929  -26.7034   20.0889 O   0  0  0  0  0  0
  -26.5582  -34.8922   22.4687 O   0  0  0  0  0  0
  -23.5328  -32.1426   23.7504 O   0  0  0  0  0  0
  -28.9507  -18.7514   21.5306 C   0  0  0  0  0  0
  -30.1240  -19.5016   21.3270 C   0  0  0  0  0  0
  -31.2801  -18.7392   21.0780 C   0  0  0  0  0  0
  -30.0750  -16.7812   21.2227 C   0  0  0  0  0  0
  -29.7487  -21.6193   22.7851 C   0  0  0  0  0  0
  -29.4575  -23.0859   22.4498 C   0  0  0  0  0  0
  -29.1482  -21.7852   20.4592 C   0  0  0  0  0  0
  -30.1080  -21.0416   21.4164 C   0  0  2  0  0  0
  -33.7437  -18.5405   20.9575 C   0  0  0  0  0  0
  -28.9765  -24.3049   20.2986 C   0  0  0  0  0  0
  -28.3508  -25.5596   20.9547 C   0  0  0  0  0  0
  -28.9331  -17.4047   21.4843 N   0  0  0  0  0  0
  -31.2404  -17.3956   21.0282 N   0  0  0  0  0  0
  -32.5267  -19.3405   20.8690 N   0  0  0  0  0  0
  -29.9765  -15.4109   21.2004 N   0  0  0  0  0  0
  -28.7954  -23.0715   21.1224 N   0  3  2  0  0  0
  -31.4689  -12.4007   19.1042 H   0  0  0  0  0  0
  -30.3303  -11.2820   19.7942 H   0  0  0  0  0  0
  -29.7271  -11.7900   17.4129 H   0  0  0  0  0  0
  -29.6608  -13.4968   17.7685 H   0  0  0  0  0  0
  -27.8185  -11.3133   18.7985 H   0  0  0  0  0  0
  -27.3627  -12.6554   17.7849 H   0  0  0  0  0  0
  -27.7147  -14.2511   19.5928 H   0  0  0  0  0  0
  -28.6815  -11.9070   21.3005 H   0  0  0  0  0  0
  -28.4636  -13.5194   21.8922 H   0  0  0  0  0  0
  -25.2759   -9.5686   22.4754 H   0  0  0  0  0  0
  -23.9998   -7.4639   22.7480 H   0  0  0  0  0  0
  -21.0838   -8.8775   19.8951 H   0  0  0  0  0  0
  -22.3699  -10.9671   19.6159 H   0  0  0  0  0  0
  -21.1999   -7.6147   23.9720 H   0  0  0  0  0  0
  -21.1480   -6.0522   25.9081 H   0  0  0  0  0  0
  -22.0596   -2.7610   23.2852 H   0  0  0  0  0  0
  -22.4103  -11.9888   22.4762 H   0  0  0  0  0  0
  -21.1120  -13.1270   22.2574 H   0  0  0  0  0  0
  -24.6720  -15.8444   20.5329 H   0  0  0  0  0  0
  -26.2984  -15.6332   20.1283 H   0  0  0  0  0  0
  -26.7103  -32.5564   23.1167 H   0  0  0  0  0  0
  -25.0096  -33.9795   25.0516 H   0  0  0  0  0  0
  -22.6877  -31.3041   21.4123 H   0  0  0  0  0  0
  -23.3755  -35.9639   23.3317 H   0  0  0  0  0  0
  -24.3589  -36.8906   22.2048 H   0  0  0  0  0  0
  -23.7234  -37.6520   23.6640 H   0  0  0  0  0  0
  -26.0314  -31.6066   20.5904 H   0  0  0  0  0  0
  -26.8186  -30.9005   21.9734 H   0  0  0  0  0  0
  -28.1091  -29.1271   21.1475 H   0  0  0  0  0  0
  -26.0801  -25.9721   19.0215 H   0  0  0  0  0  0
  -23.9850  -27.2845   19.0433 H   0  0  0  0  0  0
  -23.7187  -30.5954   19.4051 H   0  0  0  0  0  0
  -22.7377  -29.2375   19.8692 H   0  0  0  0  0  0
  -25.1280  -36.1992   25.0840 H   0  0  0  0  0  0
  -20.9937  -28.3200   24.1453 H   0  0  0  0  0  0
  -20.5676  -26.2242   23.3587 H   0  0  0  0  0  0
  -21.6640  -26.7430   22.1207 H   0  0  0  0  0  0
  -19.6909  -25.6291   21.1219 H   0  0  0  0  0  0
  -19.6699  -27.3198   20.6741 H   0  0  0  0  0  0
  -17.4193  -26.6651   21.4012 H   0  0  0  0  0  0
  -18.0326  -26.0049   22.9002 H   0  0  0  0  0  0
  -19.7930  -30.7227   24.2294 H   0  0  0  0  0  0
  -17.5015  -31.6260   24.5143 H   0  0  0  0  0  0
  -15.5350  -30.2972   23.7648 H   0  0  0  0  0  0
  -15.8662  -28.0821   22.7036 H   0  0  0  0  0  0
  -24.5914  -30.7040   25.7793 H   0  0  0  0  0  0
  -24.8929  -32.2836   26.4922 H   0  0  0  0  0  0
  -25.8087  -30.8844   27.0210 H   0  0  0  0  0  0
  -26.2836  -29.6821   24.1113 H   0  0  0  0  0  0
  -27.4150  -29.7280   25.4454 H   0  0  0  0  0  0
  -27.8634  -30.4429   23.9136 H   0  0  0  0  0  0
  -27.2688  -33.3597   26.2081 H   0  0  0  0  0  0
  -28.3850  -32.6862   25.0299 H   0  0  0  0  0  0
  -28.0724  -31.8402   26.5370 H   0  0  0  0  0  0
  -28.2602  -38.0105   24.7517 H   0  0  0  0  0  0
  -28.1076  -36.2637   24.6303 H   0  0  0  0  0  0
  -27.2297  -37.1477   25.8870 H   0  0  0  0  0  0
  -20.9310  -29.8759   21.6994 H   0  0  0  0  0  0
  -26.0194  -38.2877   24.1402 H   0  0  0  0  0  0
  -28.0089  -19.2359   21.7432 H   0  0  0  0  0  0
  -28.8484  -21.1527   23.1876 H   0  0  0  0  0  0
  -30.5445  -21.5058   23.5219 H   0  0  0  0  0  0
  -30.3989  -23.6361   22.3927 H   0  0  0  0  0  0
  -28.8407  -23.5690   23.2087 H   0  0  0  0  0  0
  -28.2196  -21.2334   20.3135 H   0  0  0  0  0  0
  -29.5980  -21.9239   19.4744 H   0  0  0  0  0  0
  -31.1051  -21.4157   21.1841 H   0  0  0  0  0  0
  -34.6265  -19.1754   20.8827 H   0  0  0  0  0  0
  -33.7880  -17.8044   20.1531 H   0  0  0  0  0  0
  -33.7904  -18.0089   21.9094 H   0  0  0  0  0  0
  -30.0354  -24.4706   20.0963 H   0  0  0  0  0  0
  -28.4955  -24.1470   19.3327 H   0  0  0  0  0  0
  -28.8949  -25.8160   21.8642 H   0  0  0  0  0  0
  -27.3310  -25.3293   21.2700 H   0  0  0  0  0  0
  -32.6057  -20.3414   21.0102 H   0  0  0  0  0  0
  -29.0937  -15.0740   21.5423 H   0  0  0  0  0  0
  -27.8050  -22.9902   21.3072 H   0  0  0  0  0  0
  1 25  1  0  0  0
  1 30  2  0  0  0
  1 85  1  0  0  0
  2  3  1  0  0  0
  2 25  1  0  0  0
  2 87  1  0  0  0
  2 88  1  0  0  0
  3  4  1  0  0  0
  3 89  1  0  0  0
  3 90  1  0  0  0
  4  5  1  0  0  0
  4 91  1  0  0  0
  4 92  1  0  0  0
  5  6  1  0  0  0
  5 26  1  0  0  0
  5 93  1  0  0  0
  6 25  1  0  0  0
  6 94  1  0  0  0
  6 95  1  0  0  0
  7  8  2  0  0  0
  7 26  1  0  0  0
  7 29  1  0  0  0
  8  9  1  0  0  0
  8 22  1  0  0  0
  9 10  1  0  0  0
  9 27  2  0  0  0
 10 11  2  0  0  0
 10 15  1  0  0  0
 11 12  1  0  0  0
 11 96  1  0  0  0
 12 13  2  0  0  0
 12 97  1  0  0  0
 13 14  1  0  0  0
 13 31  1  0  0  0
 14 15  2  0  0  0
 14 98  1  0  0  0
 15 99  1  0  0  0
 16 17  2  0  0  0
 16 21  1  0  0  0
 16 31  1  0  0  0
 17 18  1  0  0  0
 17100  1  0  0  0
 18 19  2  0  0  0
 18101  1  0  0  0
 19 20  1  0  0  0
 19 24  1  0  0  0
 20 21  2  0  0  0
 20102  1  0  0  0
 21 23  1  0  0  0
 22 28  1  0  0  0
 22 32  2  0  0  0
 26 27  1  0  0  0
 28103  1  0  0  0
 28104  1  0  0  0
 29105  1  0  0  0
 29106  1  0  0  0
 33 34  1  0  0  0
 33 66  1  0  0  0
 33 70  2  0  0  0
 34 36  1  0  0  0
 34 59  1  0  0  0
 34107  1  0  0  0
 35 44  2  0  0  0
 35 45  1  0  0  0
 35 68  1  0  0  0
 36 56  1  0  0  0
 36108  1  0  0  0
 37 39  1  0  0  0
 37 47  1  0  0  0
 37 66  1  0  0  0
 37109  1  0  0  0
 38 43  2  0  0  0
 38 46  1  0  0  0
 38 47  1  0  0  0
 39 64  1  0  0  0
 39 67  2  0  0  0
 40 52  1  0  0  0
 40 53  2  0  0  0
 40 58  1  0  0  0
 41110  1  0  0  0
 41111  1  0  0  0
 41112  1  0  0  0
 41 48  1  0  0  0
 42 43  1  0  0  0
 42 66  1  0  0  0
 42113  1  0  0  0
 42114  1  0  0  0
 43 44  1  0  0  0
 44115  1  0  0  0
 45 46  2  0  0  0
 45116  1  0  0  0
 46117  1  0  0  0
 47118  1  0  0  0
 47119  1  0  0  0
 48 56  1  0  0  0
 48 65  1  0  0  0
 48120  1  0  0  0
 49 50  1  0  0  0
 49 53  1  0  0  0
 49 64  1  0  0  0
 49121  1  0  0  0
 50 51  1  0  0  0
 50122  1  0  0  0
 50123  1  0  0  0
 51 52  1  0  0  0
 51124  1  0  0  0
 51125  1  0  0  0
 52126  1  0  0  0
 52127  1  0  0  0
 53 54  1  0  0  0
 54 55  2  0  0  0
 54128  1  0  0  0
 55 57  1  0  0  0
 55129  1  0  0  0
 56 69  2  0  0  0
 57 58  2  0  0  0
 57130  1  0  0  0
 58131  1  0  0  0
 59 60  1  0  0  0
 59 61  1  0  0  0
 59 62  1  0  0  0
 60132  1  0  0  0
 60133  1  0  0  0
 60134  1  0  0  0
 61135  1  0  0  0
 61136  1  0  0  0
 61137  1  0  0  0
 62138  1  0  0  0
 62139  1  0  0  0
 62140  1  0  0  0
 63 65  1  0  0  0
 63141  1  0  0  0
 63142  1  0  0  0
 63143  1  0  0  0
 64144  1  0  0  0
 65145  1  0  0  0
 68 81  1  0  0  0
 71 72  2  0  0  0
 71 82  1  0  0  0
 71146  1  0  0  0
 72 73  1  0  0  0
 72 78  1  0  0  0
 73 83  2  0  0  0
 73 84  1  0  0  0
 74 82  2  0  0  0
 74 83  1  0  0  0
 74 85  1  0  0  0
 75 76  1  0  0  0
 75 78  1  0  0  0
 75147  1  0  0  0
 75148  1  0  0  0
 76 86  1  0  0  0
 76149  1  0  0  0
 76150  1  0  0  0
 77 78  1  0  0  0
 77 86  1  0  0  0
 77151  1  0  0  0
 77152  1  0  0  0
 78153  1  0  0  0
 79 84  1  0  0  0
 79154  1  0  0  0
 79155  1  0  0  0
 79156  1  0  0  0
 80 81  1  0  0  0
 80157  1  0  0  0
 80158  1  0  0  0
 80 86  1  0  0  0
 81159  1  0  0  0
 81160  1  0  0  0
 84161  1  0  0  0
 85162  1  0  0  0
 86163  1  0  0  0
M  CHG  1  86   1
M  ISO  4   1 100  68 101  81 101  85 100
M  END
> <chiral flag>
0

> <version>
0

> <s_m_source_file>
/data/baiqing/PycharmProjects/Reinvent-master-3.2/result/LINK_invent/BTK/process_docking_weight1_custom_sum_contain_oxygen_bond_distance_aromatic_linkinvent_7_9_3/rearranged_h_0189.sdf

> <i_m_source_file_index>
8

> <r_mmod_Potential_Energy-OPLS-2005>
-534.310974121094

> <r_mmod_Stretch_Energy-OPLS-2005>
35.8426895141602

> <r_mmod_Bend_Energy-OPLS-2005>
140.803237915039

> <r_mmod_Torsional_Energy-OPLS-2005>
281.418975830078

> <r_mmod_Improper_Torsional_Energy-OPLS-2005>
4.50141572952271

> <r_mmod_Van_der_Waal_Energy-OPLS-2005>
162.703628540039

> <r_mmod_Electrostatic_Energy-OPLS-2005>
-686.419067382812

> <r_mmod_Solvation_Energy-OPLS-2005>
-483.250244140625

> <b_mmod_Minimization_Converged-OPLS-2005>
0

> <r_mmod_RMS_Derivative-OPLS-2005>
0.989124655723572

$$$$
8
                    3D
 Structure written by MMmdl.
166175  0  0  1  0            999 V2000
  -30.6971  -14.5214   20.3879 C   0  0  0  0  0  0
  -30.4133  -12.3025   19.4168 C   0  0  0  0  0  0
  -29.4795  -12.4393   18.1965 C   0  0  0  0  0  0
  -28.0073  -12.2900   18.6228 C   0  0  0  0  0  0
  -27.6412  -13.1843   19.8338 C   0  0  2  0  0  0
  -28.6985  -13.1064   20.9624 C   0  0  0  0  0  0
  -25.2561  -13.8089   20.5643 C   0  0  0  0  0  0
  -24.1818  -13.0402   20.9224 C   0  0  0  0  0  0
  -24.6367  -11.6871   20.8772 C   0  0  0  0  0  0
  -23.9050  -10.4275   21.0440 C   0  0  0  0  0  0
  -24.3634   -9.4193   21.9201 C   0  0  0  0  0  0
  -23.6313   -8.2226   22.0768 C   0  0  0  0  0  0
  -22.4284   -8.0290   21.3562 C   0  0  0  0  0  0
  -21.9923   -9.0250   20.4646 C   0  0  0  0  0  0
  -22.7250  -10.2120   20.3060 C   0  0  0  0  0  0
  -21.6834   -6.0757   22.5308 C   0  0  0  0  0  0
  -21.3985   -6.5664   23.8237 C   0  0  0  0  0  0
  -21.3645   -5.6819   24.9200 C   0  0  0  0  0  0
  -21.6041   -4.3077   24.7241 C   0  0  0  0  0  0
  -21.8811   -3.8177   23.4360 C   0  0  0  0  0  0
  -21.9189   -4.6992   22.3424 C   0  0  0  0  0  0
  -22.7864  -13.5234   21.1897 C   0  0  0  0  0  0
  -22.1663   -4.2191   21.0997 F   0  0  0  0  0  0
  -21.5617   -3.4566   25.7742 F   0  0  0  0  0  0
  -30.0209  -13.3443   20.3724 N   0  0  0  0  0  0
  -26.2940  -12.9205   20.3241 N   0  0  0  0  0  0
  -25.9264  -11.6413   20.5754 N   0  0  0  0  0  0
  -22.0507  -12.8210   22.0448 N   0  0  0  0  0  0
  -25.4271  -15.1784   20.3925 N   0  0  0  0  0  0
  -31.9251  -14.5718   20.3349 O   0  0  0  0  0  0
  -21.6636   -6.8895   21.4258 O   0  0  0  0  0  0
  -22.3567  -14.5562   20.6760 O   0  0  0  0  0  0
  -24.6078  -31.8745   23.2088 C   0  0  0  0  0  0
  -25.8992  -32.4856   23.8381 C   0  0  1  0  0  0
  -27.2413  -27.4752   20.0820 C   0  0  0  0  0  0
  -25.5924  -33.8649   24.2326 N   0  0  0  0  0  0
  -23.3928  -30.4974   21.5460 C   0  0  2  0  0  0
  -24.8417  -28.9627   20.1188 C   0  0  0  0  0  0
  -22.7360  -29.4693   22.4954 C   0  0  0  0  0  0
  -18.0280  -28.1371   22.8502 C   0  0  0  0  0  0
  -24.1488  -36.7269   23.2636 C   0  0  0  0  0  0
  -25.9207  -30.8459   21.3608 C   0  0  0  0  0  0
  -25.9951  -29.4819   20.7136 C   0  0  0  0  0  0
  -27.1936  -28.7428   20.6965 C   0  0  0  0  0  0
  -26.0610  -26.9472   19.5065 C   0  0  0  0  0  0
  -24.8654  -27.6917   19.5219 C   0  0  0  0  0  0
  -23.6030  -29.8265   20.1628 C   0  0  0  0  0  0
  -25.4121  -36.3108   24.0326 C   0  0  1  0  0  0
  -20.5860  -28.3665   23.1312 C   0  0  2  0  0  0
  -20.6771  -26.9404   22.5406 C   0  0  0  0  0  0
  -19.5749  -26.6385   21.5205 C   0  0  0  0  0  0
  -18.1926  -26.7919   22.1617 C   0  0  0  0  0  0
  -19.1524  -28.8818   23.2932 C   0  0  0  0  0  0
  -18.9480  -30.1419   23.8952 C   0  0  0  0  0  0
  -17.6489  -30.6599   24.0573 C   0  0  0  0  0  0
  -25.9046  -34.9485   23.5108 C   0  0  0  0  0  0
  -16.5380  -29.9098   23.6346 C   0  0  0  0  0  0
  -16.7267  -28.6507   23.0375 C   0  0  0  0  0  0
  -26.4447  -31.6621   25.0695 C   0  0  0  0  0  0
  -25.3721  -31.3742   26.1448 C   0  0  0  0  0  0
  -27.0286  -30.3081   24.6027 C   0  0  0  0  0  0
  -27.6037  -32.4341   25.7462 C   0  0  0  0  0  0
  -27.5575  -37.1790   24.8484 C   0  0  0  0  0  0
  -21.4090  -29.3054   22.3708 N   0  0  0  0  0  0
  -26.4305  -37.3795   23.9402 N   0  0  0  0  0  0
  -24.6569  -31.0877   22.0959 N   0  0  0  0  0  0
  -23.4150  -28.8236   23.2970 O   0  0  0  0  0  0
  -28.4665  -26.8461   20.0643 O   0  0  0  0  0  0
  -26.5592  -34.8940   22.4655 O   0  0  0  0  0  0
  -23.5281  -32.1484   23.7508 O   0  0  0  0  0  0
  -29.1694  -16.5651   18.2035 C   0  0  0  0  0  0
  -28.4790  -21.0187   19.0610 C   0  0  0  0  0  0
  -28.7103  -20.9231   21.5993 C   0  0  0  0  0  0
  -30.5922  -16.0420   18.3771 C   0  0  0  0  0  0
  -27.8898  -22.3989   19.4336 C   0  0  0  0  0  0
  -29.1701  -22.3940   21.5895 C   0  0  0  0  0  0
  -29.0184  -20.2073   20.2720 C   0  0  1  0  0  0
  -29.0543  -16.4883   19.7335 C   0  0  2  0  0  0
  -29.4722  -17.7210   20.5505 C   0  0  0  0  0  0
  -28.2588  -24.5199   20.6803 C   0  0  0  0  0  0
  -28.5927  -25.5240   19.5656 C   0  0  0  0  0  0
  -30.0765  -15.4324   19.6059 N   0  0  0  0  0  0
  -28.7671  -23.1561   20.3691 N   0  3  2  0  0  0
  -28.5014  -18.8121   20.2736 N   0  3  0  0  0  0
  -31.4511  -12.4068   19.0973 H   0  0  0  0  0  0
  -30.3279  -11.3132   19.8671 H   0  0  0  0  0  0
  -29.7295  -11.6919   17.4426 H   0  0  0  0  0  0
  -29.6202  -13.4055   17.7130 H   0  0  0  0  0  0
  -27.8365  -11.2391   18.8649 H   0  0  0  0  0  0
  -27.3505  -12.5160   17.7816 H   0  0  0  0  0  0
  -27.6307  -14.1849   19.4252 H   0  0  0  0  0  0
  -28.6812  -12.1285   21.4429 H   0  0  0  0  0  0
  -28.4811  -13.8423   21.7397 H   0  0  0  0  0  0
  -25.2762   -9.5673   22.4802 H   0  0  0  0  0  0
  -24.0027   -7.4601   22.7475 H   0  0  0  0  0  0
  -21.0865   -8.8768   19.8941 H   0  0  0  0  0  0
  -22.3724  -10.9679   19.6195 H   0  0  0  0  0  0
  -21.1972   -7.6174   23.9756 H   0  0  0  0  0  0
  -21.1455   -6.0544   25.9103 H   0  0  0  0  0  0
  -22.0595   -2.7654   23.2847 H   0  0  0  0  0  0
  -22.4107  -11.9838   22.4761 H   0  0  0  0  0  0
  -21.1129  -13.1218   22.2674 H   0  0  0  0  0  0
  -24.6418  -15.8179   20.4460 H   0  0  0  0  0  0
  -26.2531  -15.5903   19.9833 H   0  0  0  0  0  0
  -26.7058  -32.5590   23.1139 H   0  0  0  0  0  0
  -25.0204  -33.9845   25.0554 H   0  0  0  0  0  0
  -22.6811  -31.3161   21.4042 H   0  0  0  0  0  0
  -23.3789  -35.9579   23.3347 H   0  0  0  0  0  0
  -24.3587  -36.8832   22.2054 H   0  0  0  0  0  0
  -23.7211  -37.6465   23.6626 H   0  0  0  0  0  0
  -26.0358  -31.6098   20.5905 H   0  0  0  0  0  0
  -26.8062  -30.8949   21.9826 H   0  0  0  0  0  0
  -28.0889  -29.1507   21.1453 H   0  0  0  0  0  0
  -26.0300  -25.9792   19.0305 H   0  0  0  0  0  0
  -23.9746  -27.2776   19.0730 H   0  0  0  0  0  0
  -23.7094  -30.6025   19.4030 H   0  0  0  0  0  0
  -22.7298  -29.2429   19.8642 H   0  0  0  0  0  0
  -25.1289  -36.1988   25.0825 H   0  0  0  0  0  0
  -21.0000  -28.3234   24.1407 H   0  0  0  0  0  0
  -20.5708  -26.2251   23.3573 H   0  0  0  0  0  0
  -21.6637  -26.7462   22.1173 H   0  0  0  0  0  0
  -19.6939  -25.6300   21.1212 H   0  0  0  0  0  0
  -19.6709  -27.3223   20.6757 H   0  0  0  0  0  0
  -17.4199  -26.6708   21.4013 H   0  0  0  0  0  0
  -18.0345  -26.0017   22.8973 H   0  0  0  0  0  0
  -19.7980  -30.7220   24.2323 H   0  0  0  0  0  0
  -17.5080  -31.6294   24.5168 H   0  0  0  0  0  0
  -15.5398  -30.3057   23.7624 H   0  0  0  0  0  0
  -15.8657  -28.0856   22.7070 H   0  0  0  0  0  0
  -24.5937  -30.7024   25.7789 H   0  0  0  0  0  0
  -24.8855  -32.2911   26.4810 H   0  0  0  0  0  0
  -25.8075  -30.9004   27.0255 H   0  0  0  0  0  0
  -26.2848  -29.6917   24.0971 H   0  0  0  0  0  0
  -27.3994  -29.7232   25.4452 H   0  0  0  0  0  0
  -27.8683  -30.4431   23.9206 H   0  0  0  0  0  0
  -27.2671  -33.3676   26.1985 H   0  0  0  0  0  0
  -28.3866  -32.6856   25.0291 H   0  0  0  0  0  0
  -28.0663  -31.8493   26.5426 H   0  0  0  0  0  0
  -28.2597  -38.0078   24.7522 H   0  0  0  0  0  0
  -28.1059  -36.2607   24.6331 H   0  0  0  0  0  0
  -27.2278  -37.1433   25.8884 H   0  0  0  0  0  0
  -20.9199  -29.8806   21.6986 H   0  0  0  0  0  0
  -26.0203  -38.2869   24.1457 H   0  0  0  0  0  0
  -28.5194  -15.8579   17.6827 H   0  0  0  0  0  0
  -29.1048  -17.5607   17.7631 H   0  0  0  0  0  0
  -29.2920  -21.1654   18.3473 H   0  0  0  0  0  0
  -27.7234  -20.4590   18.5062 H   0  0  0  0  0  0
  -27.6422  -20.8819   21.8148 H   0  0  0  0  0  0
  -29.2093  -20.4095   22.4213 H   0  0  0  0  0  0
  -31.3496  -16.8112   18.5398 H   0  0  0  0  0  0
  -30.9097  -15.3370   17.6085 H   0  0  0  0  0  0
  -26.9031  -22.2717   19.8791 H   0  0  0  0  0  0
  -27.7304  -22.9780   18.5223 H   0  0  0  0  0  0
  -30.2558  -22.4411   21.6617 H   0  0  0  0  0  0
  -28.7937  -22.8723   22.4947 H   0  0  0  0  0  0
  -30.1058  -20.1800   20.1620 H   0  0  0  0  0  0
  -28.0795  -16.1231   20.0416 H   0  0  0  0  0  0
  -30.4831  -18.0332   20.2952 H   0  0  0  0  0  0
  -29.4801  -17.5018   21.6179 H   0  0  0  0  0  0
  -27.1891  -24.4997   20.8997 H   0  0  0  0  0  0
  -28.7471  -24.8842   21.5862 H   0  0  0  0  0  0
  -28.0285  -25.3528   18.6487 H   0  0  0  0  0  0
  -29.6401  -25.4158   19.2825 H   0  0  0  0  0  0
  -29.6349  -23.3133   19.8750 H   0  0  0  0  0  0
  -28.1565  -18.6318   19.3440 H   0  0  0  0  0  0
  -27.7108  -18.7307   20.8955 H   0  0  0  0  0  0
  1 25  1  0  0  0
  1 30  2  0  0  0
  1 82  1  0  0  0
  2  3  1  0  0  0
  2 25  1  0  0  0
  2 85  1  0  0  0
  2 86  1  0  0  0
  3  4  1  0  0  0
  3 87  1  0  0  0
  3 88  1  0  0  0
  4  5  1  0  0  0
  4 89  1  0  0  0
  4 90  1  0  0  0
  5  6  1  0  0  0
  5 26  1  0  0  0
  5 91  1  0  0  0
  6 25  1  0  0  0
  6 92  1  0  0  0
  6 93  1  0  0  0
  7  8  2  0  0  0
  7 26  1  0  0  0
  7 29  1  0  0  0
  8  9  1  0  0  0
  8 22  1  0  0  0
  9 10  1  0  0  0
  9 27  2  0  0  0
 10 11  2  0  0  0
 10 15  1  0  0  0
 11 12  1  0  0  0
 11 94  1  0  0  0
 12 13  2  0  0  0
 12 95  1  0  0  0
 13 14  1  0  0  0
 13 31  1  0  0  0
 14 15  2  0  0  0
 14 96  1  0  0  0
 15 97  1  0  0  0
 16 17  2  0  0  0
 16 21  1  0  0  0
 16 31  1  0  0  0
 17 18  1  0  0  0
 17 98  1  0  0  0
 18 19  2  0  0  0
 18 99  1  0  0  0
 19 20  1  0  0  0
 19 24  1  0  0  0
 20 21  2  0  0  0
 20100  1  0  0  0
 21 23  1  0  0  0
 22 28  1  0  0  0
 22 32  2  0  0  0
 26 27  1  0  0  0
 28101  1  0  0  0
 28102  1  0  0  0
 29103  1  0  0  0
 29104  1  0  0  0
 33 34  1  0  0  0
 33 66  1  0  0  0
 33 70  2  0  0  0
 34 36  1  0  0  0
 34 59  1  0  0  0
 34105  1  0  0  0
 35 44  2  0  0  0
 35 45  1  0  0  0
 35 68  1  0  0  0
 36 56  1  0  0  0
 36106  1  0  0  0
 37 39  1  0  0  0
 37 47  1  0  0  0
 37 66  1  0  0  0
 37107  1  0  0  0
 38 43  2  0  0  0
 38 46  1  0  0  0
 38 47  1  0  0  0
 39 64  1  0  0  0
 39 67  2  0  0  0
 40 52  1  0  0  0
 40 53  2  0  0  0
 40 58  1  0  0  0
 41108  1  0  0  0
 41109  1  0  0  0
 41110  1  0  0  0
 41 48  1  0  0  0
 42 43  1  0  0  0
 42 66  1  0  0  0
 42111  1  0  0  0
 42112  1  0  0  0
 43 44  1  0  0  0
 44113  1  0  0  0
 45 46  2  0  0  0
 45114  1  0  0  0
 46115  1  0  0  0
 47116  1  0  0  0
 47117  1  0  0  0
 48 56  1  0  0  0
 48 65  1  0  0  0
 48118  1  0  0  0
 49 50  1  0  0  0
 49 53  1  0  0  0
 49 64  1  0  0  0
 49119  1  0  0  0
 50 51  1  0  0  0
 50120  1  0  0  0
 50121  1  0  0  0
 51 52  1  0  0  0
 51122  1  0  0  0
 51123  1  0  0  0
 52124  1  0  0  0
 52125  1  0  0  0
 53 54  1  0  0  0
 54 55  2  0  0  0
 54126  1  0  0  0
 55 57  1  0  0  0
 55127  1  0  0  0
 56 69  2  0  0  0
 57 58  2  0  0  0
 57128  1  0  0  0
 58129  1  0  0  0
 59 60  1  0  0  0
 59 61  1  0  0  0
 59 62  1  0  0  0
 60130  1  0  0  0
 60131  1  0  0  0
 60132  1  0  0  0
 61133  1  0  0  0
 61134  1  0  0  0
 61135  1  0  0  0
 62136  1  0  0  0
 62137  1  0  0  0
 62138  1  0  0  0
 63 65  1  0  0  0
 63139  1  0  0  0
 63140  1  0  0  0
 63141  1  0  0  0
 64142  1  0  0  0
 65143  1  0  0  0
 68 81  1  0  0  0
 71 74  1  0  0  0
 71 78  1  0  0  0
 71144  1  0  0  0
 71145  1  0  0  0
 72 75  1  0  0  0
 72 77  1  0  0  0
 72146  1  0  0  0
 72147  1  0  0  0
 73 76  1  0  0  0
 73 77  1  0  0  0
 73148  1  0  0  0
 73149  1  0  0  0
 74 82  1  0  0  0
 74150  1  0  0  0
 74151  1  0  0  0
 75 83  1  0  0  0
 75152  1  0  0  0
 75153  1  0  0  0
 76 83  1  0  0  0
 76154  1  0  0  0
 76155  1  0  0  0
 77 84  1  0  0  0
 77156  1  0  0  0
 78 79  1  0  0  0
 78 82  1  0  0  0
 78157  1  0  0  0
 79 84  1  0  0  0
 79158  1  0  0  0
 79159  1  0  0  0
 80 81  1  0  0  0
 80160  1  0  0  0
 80161  1  0  0  0
 80 83  1  0  0  0
 81162  1  0  0  0
 81163  1  0  0  0
 83164  1  0  0  0
 84165  1  0  0  0
 84166  1  0  0  0
M  CHG  2  83   1  84   1
M  ISO  4   1 100  68 101  81 101  82 100
M  END
> <chiral flag>
0

> <version>
0

> <s_m_source_file>
/data/baiqing/PycharmProjects/Reinvent-master-3.2/result/LINK_invent/BTK/process_docking_weight1_custom_sum_contain_oxygen_bond_distance_aromatic_linkinvent_7_9_3/rearranged_h_0189.sdf

> <i_m_source_file_index>
9

> <r_mmod_Potential_Energy-OPLS-2005>
-50.8997764587402

> <r_mmod_Stretch_Energy-OPLS-2005>
34.3509521484375

> <r_mmod_Bend_Energy-OPLS-2005>
144.65397644043

> <r_mmod_Torsional_Energy-OPLS-2005>
370.973968505859

> <r_mmod_Improper_Torsional_Energy-OPLS-2005>
37.6697807312012

> <r_mmod_Van_der_Waal_Energy-OPLS-2005>
138.3486328125

> <r_mmod_Electrostatic_Energy-OPLS-2005>
172.189575195312

> <r_mmod_Solvation_Energy-OPLS-2005>
-986.736511230469

> <b_mmod_Minimization_Converged-OPLS-2005>
0

> <r_mmod_RMS_Derivative-OPLS-2005>
4.09163570404053

$$$$
9
                    3D
 Structure written by MMmdl.
145153  0  0  1  0            999 V2000
  -30.2937  -15.6525   20.3364 C   0  0  0  0  0  0
  -30.4283  -13.0866   19.5597 C   0  0  0  0  0  0
  -29.5594  -12.6663   18.3376 C   0  0  0  0  0  0
  -28.1332  -12.3021   18.7751 C   0  0  0  0  0  0
  -27.6006  -13.3090   19.8183 C   0  0  2  0  0  0
  -28.6106  -13.6479   20.9426 C   0  0  0  0  0  0
  -25.2333  -13.8283   20.5757 C   0  0  0  0  0  0
  -24.1730  -13.0435   20.9274 C   0  0  0  0  0  0
  -24.6434  -11.6947   20.8765 C   0  0  0  0  0  0
  -23.9129  -10.4300   21.0403 C   0  0  0  0  0  0
  -24.3659   -9.4212   21.9185 C   0  0  0  0  0  0
  -23.6316   -8.2254   22.0762 C   0  0  0  0  0  0
  -22.4297   -8.0297   21.3552 C   0  0  0  0  0  0
  -21.9945   -9.0275   20.4651 C   0  0  0  0  0  0
  -22.7293  -10.2141   20.3057 C   0  0  0  0  0  0
  -21.6861   -6.0751   22.5279 C   0  0  0  0  0  0
  -21.4023   -6.5652   23.8216 C   0  0  0  0  0  0
  -21.3658   -5.6800   24.9173 C   0  0  0  0  0  0
  -21.6036   -4.3063   24.7222 C   0  0  0  0  0  0
  -21.8819   -3.8157   23.4347 C   0  0  0  0  0  0
  -21.9196   -4.6976   22.3402 C   0  0  0  0  0  0
  -22.7743  -13.5176   21.1902 C   0  0  0  0  0  0
  -22.1661   -4.2161   21.0979 F   0  0  0  0  0  0
  -21.5619   -3.4544   25.7733 F   0  0  0  0  0  0
  -29.7921  -14.2719   20.3002 N   0  0  0  0  0  0
  -26.2796  -12.9620   20.3236 N   0  0  0  0  0  0
  -25.9385  -11.6688   20.5712 N   0  0  0  0  0  0
  -22.0398  -12.8159   22.0447 N   0  0  0  0  0  0
  -25.3888  -15.2020   20.4119 N   0  0  0  0  0  0
  -31.5250  -15.5948   20.1335 O   0  0  0  0  0  0
  -21.6652   -6.8899   21.4249 O   0  0  0  0  0  0
  -22.3426  -14.5477   20.6733 O   0  0  0  0  0  0
  -24.6858  -31.7969   23.1464 C   0  0  0  0  0  0
  -25.9433  -32.4452   23.8016 C   0  0  1  0  0  0
  -27.2313  -26.6762   20.2238 C   0  0  0  0  0  0
  -25.6009  -33.8271   24.1934 N   0  0  0  0  0  0
  -23.5131  -30.3980   21.5008 C   0  0  2  0  0  0
  -24.9724  -28.7317   20.1177 C   0  0  0  0  0  0
  -22.7774  -29.4308   22.4690 C   0  0  0  0  0  0
  -18.0356  -28.1432   22.8473 C   0  0  0  0  0  0
  -24.1491  -36.7134   23.2640 C   0  0  0  0  0  0
  -26.0942  -30.5249   21.4111 C   0  0  0  0  0  0
  -26.1615  -29.0844   20.7672 C   0  0  0  0  0  0
  -27.2724  -28.0850   20.7886 C   0  0  0  0  0  0
  -26.0115  -26.5438   19.5097 C   0  0  0  0  0  0
  -24.9389  -27.4876   19.4647 C   0  0  0  0  0  0
  -23.7679  -29.6885   20.1387 C   0  0  0  0  0  0
  -25.4143  -36.2876   24.0277 C   0  0  1  0  0  0
  -20.5991  -28.3790   23.1150 C   0  0  2  0  0  0
  -20.6824  -26.9453   22.5407 C   0  0  0  0  0  0
  -19.5799  -26.6397   21.5221 C   0  0  0  0  0  0
  -18.1982  -26.7971   22.1623 C   0  0  0  0  0  0
  -19.1623  -28.8939   23.2799 C   0  0  0  0  0  0
  -18.9528  -30.1521   23.8845 C   0  0  0  0  0  0
  -17.6516  -30.6622   24.0561 C   0  0  0  0  0  0
  -25.9131  -34.9273   23.4945 C   0  0  0  0  0  0
  -16.5401  -29.9105   23.6351 C   0  0  0  0  0  0
  -16.7334  -28.6520   23.0379 C   0  0  0  0  0  0
  -26.4617  -31.6461   25.0618 C   0  0  0  0  0  0
  -25.3687  -31.3794   26.1234 C   0  0  0  0  0  0
  -27.0524  -30.2792   24.6491 C   0  0  0  0  0  0
  -27.6085  -32.4296   25.7438 C   0  0  0  0  0  0
  -27.5576  -37.1715   24.8467 C   0  0  0  0  0  0
  -21.4418  -29.3035   22.3451 N   0  0  0  0  0  0
  -26.4264  -37.3651   23.9431 N   0  0  0  0  0  0
  -24.7883  -30.9396   22.0724 N   0  0  0  0  0  0
  -23.4222  -28.7908   23.3029 O   0  0  0  0  0  0
  -28.1760  -25.4353   20.3317 O   0  0  0  0  0  0
  -26.5762  -34.8862   22.4559 O   0  0  0  0  0  0
  -23.5881  -32.1049   23.6420 O   0  0  0  0  0  0
  -29.7098  -21.1371   19.7098 C   0  0  0  0  0  0
  -28.6148  -21.9642   20.3189 C   0  0  0  0  0  0
  -27.9699  -20.7970   20.9878 C   0  0  0  0  0  0
  -29.3437  -18.6554   20.4144 C   0  0  0  0  0  0
  -26.7034  -21.0718   21.7725 C   0  0  0  0  0  0
  -27.9271  -23.7081   20.0473 C   0  0  0  0  0  0
  -30.0353  -19.6923   19.7589 N   0  0  0  0  0  0
  -28.2985  -19.3697   21.0137 N   0  0  0  0  0  0
  -29.4887  -16.9900   20.4571 N   0  0  0  0  0  0
  -31.4268  -13.3425   19.2025 H   0  0  0  0  0  0
  -30.5793  -12.2405   20.2323 H   0  0  0  0  0  0
  -30.0190  -11.8283   17.8110 H   0  0  0  0  0  0
  -29.5211  -13.4932   17.6270 H   0  0  0  0  0  0
  -28.1639  -11.3051   19.2160 H   0  0  0  0  0  0
  -27.4674  -12.2393   17.9135 H   0  0  0  0  0  0
  -27.4636  -14.2289   19.2478 H   0  0  0  0  0  0
  -28.8682  -12.7719   21.5390 H   0  0  0  0  0  0
  -28.1680  -14.3663   21.6345 H   0  0  0  0  0  0
  -25.2800   -9.5683   22.4772 H   0  0  0  0  0  0
  -24.0014   -7.4653   22.7499 H   0  0  0  0  0  0
  -21.0872   -8.8816   19.8963 H   0  0  0  0  0  0
  -22.3761  -10.9690   19.6173 H   0  0  0  0  0  0
  -21.2023   -7.6159   23.9722 H   0  0  0  0  0  0
  -21.1472   -6.0527   25.9074 H   0  0  0  0  0  0
  -22.0595   -2.7622   23.2839 H   0  0  0  0  0  0
  -22.4023  -11.9819   22.4832 H   0  0  0  0  0  0
  -21.1013  -13.1183   22.2663 H   0  0  0  0  0  0
  -24.5974  -15.8334   20.4811 H   0  0  0  0  0  0
  -26.2062  -15.6387   20.0086 H   0  0  0  0  0  0
  -26.7505  -32.4932   23.0718 H   0  0  0  0  0  0
  -25.0093  -33.9295   25.0048 H   0  0  0  0  0  0
  -22.8394  -31.2355   21.3070 H   0  0  0  0  0  0
  -23.3780  -35.9434   23.3227 H   0  0  0  0  0  0
  -24.3576  -36.8864   22.2071 H   0  0  0  0  0  0
  -23.7220  -37.6284   23.6753 H   0  0  0  0  0  0
  -26.2920  -31.2456   20.6151 H   0  0  0  0  0  0
  -26.9480  -30.6029   22.0721 H   0  0  0  0  0  0
  -28.1630  -28.3612   21.3346 H   0  0  0  0  0  0
  -25.8409  -25.6011   19.0094 H   0  0  0  0  0  0
  -24.0418  -27.2093   18.9282 H   0  0  0  0  0  0
  -23.9382  -30.4445   19.3707 H   0  0  0  0  0  0
  -22.8725  -29.1510   19.8192 H   0  0  0  0  0  0
  -25.1344  -36.1622   25.0764 H   0  0  0  0  0  0
  -21.0099  -28.3419   24.1265 H   0  0  0  0  0  0
  -20.5711  -26.2404   23.3659 H   0  0  0  0  0  0
  -21.6681  -26.7406   22.1207 H   0  0  0  0  0  0
  -19.6950  -25.6294   21.1276 H   0  0  0  0  0  0
  -19.6745  -27.3190   20.6738 H   0  0  0  0  0  0
  -17.4251  -26.6730   21.4025 H   0  0  0  0  0  0
  -18.0364  -26.0136   22.9040 H   0  0  0  0  0  0
  -19.7994  -30.7365   24.2183 H   0  0  0  0  0  0
  -17.5059  -31.6289   24.5180 H   0  0  0  0  0  0
  -15.5398  -30.2992   23.7709 H   0  0  0  0  0  0
  -15.8732  -28.0816   22.7131 H   0  0  0  0  0  0
  -24.5926  -30.7071   25.7560 H   0  0  0  0  0  0
  -24.8807  -32.3007   26.4405 H   0  0  0  0  0  0
  -25.7872  -30.9151   27.0164 H   0  0  0  0  0  0
  -26.3225  -29.6435   24.1466 H   0  0  0  0  0  0
  -27.3947  -29.7198   25.5204 H   0  0  0  0  0  0
  -27.9207  -30.3915   24.0003 H   0  0  0  0  0  0
  -27.2666  -33.3703   26.1758 H   0  0  0  0  0  0
  -28.4033  -32.6671   25.0354 H   0  0  0  0  0  0
  -28.0572  -31.8560   26.5554 H   0  0  0  0  0  0
  -28.2523  -38.0082   24.7573 H   0  0  0  0  0  0
  -28.1138  -36.2604   24.6204 H   0  0  0  0  0  0
  -27.2294  -37.1239   25.8867 H   0  0  0  0  0  0
  -20.9709  -29.8655   21.6490 H   0  0  0  0  0  0
  -26.0074  -38.2680   24.1497 H   0  0  0  0  0  0
  -30.3886  -21.6723   19.0625 H   0  0  0  0  0  0
  -26.6789  -22.0932   22.1497 H   0  0  0  0  0  0
  -26.6253  -20.4087   22.6352 H   0  0  0  0  0  0
  -25.8269  -20.9140   21.1449 H   0  0  0  0  0  0
  -26.8997  -23.5936   20.3928 H   0  0  0  0  0  0
  -27.8213  -23.7060   18.9628 H   0  0  0  0  0  0
  -28.5696  -16.6577   20.6981 H   0  0  0  0  0  0
  1 25  1  0  0  0
  1 30  2  0  0  0
  1 79  1  0  0  0
  2  3  1  0  0  0
  2 25  1  0  0  0
  2 80  1  0  0  0
  2 81  1  0  0  0
  3  4  1  0  0  0
  3 82  1  0  0  0
  3 83  1  0  0  0
  4  5  1  0  0  0
  4 84  1  0  0  0
  4 85  1  0  0  0
  5  6  1  0  0  0
  5 26  1  0  0  0
  5 86  1  0  0  0
  6 25  1  0  0  0
  6 87  1  0  0  0
  6 88  1  0  0  0
  7  8  2  0  0  0
  7 26  1  0  0  0
  7 29  1  0  0  0
  8  9  1  0  0  0
  8 22  1  0  0  0
  9 10  1  0  0  0
  9 27  2  0  0  0
 10 11  2  0  0  0
 10 15  1  0  0  0
 11 12  1  0  0  0
 11 89  1  0  0  0
 12 13  2  0  0  0
 12 90  1  0  0  0
 13 14  1  0  0  0
 13 31  1  0  0  0
 14 15  2  0  0  0
 14 91  1  0  0  0
 15 92  1  0  0  0
 16 17  2  0  0  0
 16 21  1  0  0  0
 16 31  1  0  0  0
 17 18  1  0  0  0
 17 93  1  0  0  0
 18 19  2  0  0  0
 18 94  1  0  0  0
 19 20  1  0  0  0
 19 24  1  0  0  0
 20 21  2  0  0  0
 20 95  1  0  0  0
 21 23  1  0  0  0
 22 28  1  0  0  0
 22 32  2  0  0  0
 26 27  1  0  0  0
 28 96  1  0  0  0
 28 97  1  0  0  0
 29 98  1  0  0  0
 29 99  1  0  0  0
 33 34  1  0  0  0
 33 66  1  0  0  0
 33 70  2  0  0  0
 34 36  1  0  0  0
 34 59  1  0  0  0
 34100  1  0  0  0
 35 44  2  0  0  0
 35 45  1  0  0  0
 35 68  1  0  0  0
 36 56  1  0  0  0
 36101  1  0  0  0
 37 39  1  0  0  0
 37 47  1  0  0  0
 37 66  1  0  0  0
 37102  1  0  0  0
 38 43  2  0  0  0
 38 46  1  0  0  0
 38 47  1  0  0  0
 39 64  1  0  0  0
 39 67  2  0  0  0
 40 52  1  0  0  0
 40 53  2  0  0  0
 40 58  1  0  0  0
 41103  1  0  0  0
 41104  1  0  0  0
 41105  1  0  0  0
 41 48  1  0  0  0
 42 43  1  0  0  0
 42 66  1  0  0  0
 42106  1  0  0  0
 42107  1  0  0  0
 43 44  1  0  0  0
 44108  1  0  0  0
 45 46  2  0  0  0
 45109  1  0  0  0
 46110  1  0  0  0
 47111  1  0  0  0
 47112  1  0  0  0
 48 56  1  0  0  0
 48 65  1  0  0  0
 48113  1  0  0  0
 49 50  1  0  0  0
 49 53  1  0  0  0
 49 64  1  0  0  0
 49114  1  0  0  0
 50 51  1  0  0  0
 50115  1  0  0  0
 50116  1  0  0  0
 51 52  1  0  0  0
 51117  1  0  0  0
 51118  1  0  0  0
 52119  1  0  0  0
 52120  1  0  0  0
 53 54  1  0  0  0
 54 55  2  0  0  0
 54121  1  0  0  0
 55 57  1  0  0  0
 55122  1  0  0  0
 56 69  2  0  0  0
 57 58  2  0  0  0
 57123  1  0  0  0
 58124  1  0  0  0
 59 60  1  0  0  0
 59 61  1  0  0  0
 59 62  1  0  0  0
 60125  1  0  0  0
 60126  1  0  0  0
 60127  1  0  0  0
 61128  1  0  0  0
 61129  1  0  0  0
 61130  1  0  0  0
 62131  1  0  0  0
 62132  1  0  0  0
 62133  1  0  0  0
 63 65  1  0  0  0
 63134  1  0  0  0
 63135  1  0  0  0
 63136  1  0  0  0
 64137  1  0  0  0
 65138  1  0  0  0
 68 76  1  0  0  0
 71 72  2  0  0  0
 71 77  1  0  0  0
 71139  1  0  0  0
 72 73  1  0  0  0
 72 76  1  0  0  0
 73 75  1  0  0  0
 73 78  2  0  0  0
 74 77  2  0  0  0
 74 78  1  0  0  0
 74 79  1  0  0  0
 75140  1  0  0  0
 75141  1  0  0  0
 75142  1  0  0  0
 76143  1  0  0  0
 76144  1  0  0  0
 79145  1  0  0  0
M  ISO  4   1 100  68 101  76 101  79 100
M  END
> <chiral flag>
0

> <version>
0

> <s_m_source_file>
/data/baiqing/PycharmProjects/Reinvent-master-3.2/result/LINK_invent/BTK/process_docking_weight1_custom_sum_contain_oxygen_bond_distance_aromatic_linkinvent_7_9_3/rearranged_h_0189.sdf

> <i_m_source_file_index>
10

> <r_mmod_Potential_Energy-OPLS-2005>
2034.02172851562

> <r_mmod_Stretch_Energy-OPLS-2005>
984.601379394531

> <r_mmod_Bend_Energy-OPLS-2005>
725.773986816406

> <r_mmod_Torsional_Energy-OPLS-2005>
224.391571044922

> <r_mmod_Improper_Torsional_Energy-OPLS-2005>
7.34103679656982

> <r_mmod_Van_der_Waal_Energy-OPLS-2005>
139.195251464844

> <r_mmod_Electrostatic_Energy-OPLS-2005>
-742.98828125

> <r_mmod_Solvation_Energy-OPLS-2005>
-245.954650878906

> <b_mmod_Minimization_Converged-OPLS-2005>
0

> <r_mmod_RMS_Derivative-OPLS-2005>
2.06606411933899

$$$$
10
                    3D
 Structure written by MMmdl.
157166  0  0  1  0            999 V2000
  -30.6715  -14.5575   20.5360 C   0  0  0  0  0  0
  -30.4254  -12.3551   19.4270 C   0  0  0  0  0  0
  -29.5087  -12.5469   18.2002 C   0  0  0  0  0  0
  -28.0252  -12.4028   18.6027 C   0  0  0  0  0  0
  -27.6583  -13.2228   19.8694 C   0  0  2  0  0  0
  -28.7033  -13.0256   20.9913 C   0  0  0  0  0  0
  -25.2530  -13.8174   20.5659 C   0  0  0  0  0  0
  -24.1802  -13.0459   20.9164 C   0  0  0  0  0  0
  -24.6352  -11.6925   20.8681 C   0  0  0  0  0  0
  -23.9025  -10.4300   21.0355 C   0  0  0  0  0  0
  -24.3587   -9.4232   21.9138 C   0  0  0  0  0  0
  -23.6301   -8.2242   22.0731 C   0  0  0  0  0  0
  -22.4296   -8.0252   21.3532 C   0  0  0  0  0  0
  -21.9898   -9.0206   20.4636 C   0  0  0  0  0  0
  -22.7196  -10.2100   20.3019 C   0  0  0  0  0  0
  -21.6849   -6.0711   22.5273 C   0  0  0  0  0  0
  -21.4000   -6.5627   23.8206 C   0  0  0  0  0  0
  -21.3663   -5.6790   24.9186 C   0  0  0  0  0  0
  -21.6053   -4.3041   24.7220 C   0  0  0  0  0  0
  -21.8823   -3.8112   23.4340 C   0  0  0  0  0  0
  -21.9187   -4.6932   22.3397 C   0  0  0  0  0  0
  -22.7829  -13.5221   21.1866 C   0  0  0  0  0  0
  -22.1658   -4.2121   21.0975 F   0  0  0  0  0  0
  -21.5670   -3.4543   25.7732 F   0  0  0  0  0  0
  -30.0211  -13.3553   20.4313 N   0  0  0  0  0  0
  -26.2988  -12.9361   20.3302 N   0  0  0  0  0  0
  -25.9296  -11.6523   20.5666 N   0  0  0  0  0  0
  -22.0440  -12.8270   22.0408 N   0  0  0  0  0  0
  -25.4276  -15.1896   20.4113 N   0  0  0  0  0  0
  -31.8106  -14.7156   20.0918 O   0  0  0  0  0  0
  -21.6657   -6.8859   21.4237 O   0  0  0  0  0  0
  -22.3541  -14.5538   20.6695 O   0  0  0  0  0  0
  -24.6148  -31.8615   23.2036 C   0  0  0  0  0  0
  -25.9035  -32.4777   23.8331 C   0  0  1  0  0  0
  -27.2326  -27.3680   20.1074 C   0  0  0  0  0  0
  -25.5882  -33.8576   24.2269 N   0  0  0  0  0  0
  -23.4044  -30.4823   21.5478 C   0  0  2  0  0  0
  -24.8527  -28.9426   20.1052 C   0  0  0  0  0  0
  -22.7418  -29.4604   22.5005 C   0  0  0  0  0  0
  -18.0254  -28.1351   22.8463 C   0  0  0  0  0  0
  -24.1488  -36.7319   23.2641 C   0  0  0  0  0  0
  -25.9361  -30.8076   21.3631 C   0  0  0  0  0  0
  -26.0125  -29.4362   20.7132 C   0  0  0  0  0  0
  -27.1964  -28.6532   20.7190 C   0  0  0  0  0  0
  -26.0444  -26.9066   19.4934 C   0  0  0  0  0  0
  -24.8681  -27.6818   19.4878 C   0  0  0  0  0  0
  -23.6120  -29.8081   20.1632 C   0  0  0  0  0  0
  -25.4104  -36.3089   24.0322 C   0  0  1  0  0  0
  -20.5855  -28.3624   23.1330 C   0  0  2  0  0  0
  -20.6739  -26.9362   22.5421 C   0  0  0  0  0  0
  -19.5734  -26.6340   21.5212 C   0  0  0  0  0  0
  -18.1917  -26.7898   22.1604 C   0  0  0  0  0  0
  -19.1507  -28.8807   23.2878 C   0  0  0  0  0  0
  -18.9445  -30.1432   23.8862 C   0  0  0  0  0  0
  -17.6438  -30.6561   24.0558 C   0  0  0  0  0  0
  -25.9027  -34.9458   23.5096 C   0  0  0  0  0  0
  -16.5337  -29.9050   23.6329 C   0  0  0  0  0  0
  -16.7244  -28.6477   23.0328 C   0  0  0  0  0  0
  -26.4442  -31.6549   25.0675 C   0  0  0  0  0  0
  -25.3708  -31.3658   26.1427 C   0  0  0  0  0  0
  -27.0248  -30.2982   24.6045 C   0  0  0  0  0  0
  -27.6026  -32.4242   25.7460 C   0  0  0  0  0  0
  -27.5575  -37.1811   24.8449 C   0  0  0  0  0  0
  -21.4149  -29.2987   22.3747 N   0  0  0  0  0  0
  -26.4284  -37.3781   23.9405 N   0  0  0  0  0  0
  -24.6720  -31.0679   22.0963 N   0  0  0  0  0  0
  -23.4190  -28.8164   23.3057 O   0  0  0  0  0  0
  -28.3987  -26.6047   20.1836 O   0  0  0  0  0  0
  -26.5632  -34.8921   22.4679 O   0  0  0  0  0  0
  -23.5360  -32.1401   23.7429 O   0  0  0  0  0  0
  -27.9808  -22.4601   21.0827 C   0  0  0  0  0  0
  -29.6441  -23.1754   19.8595 C   0  0  0  0  0  0
  -29.2351  -22.0324   20.5223 C   0  0  0  0  0  0
  -29.4261  -17.5940   22.2600 C   0  0  0  0  0  0
  -29.8924  -16.1224   22.2830 C   0  0  0  0  0  0
  -29.7313  -16.8543   20.0318 C   0  0  0  0  0  0
  -29.9100  -18.1307   20.9160 C   0  0  1  0  0  0
  -30.0045  -20.6864   20.6655 C   0  0  0  0  0  0
  -28.6137  -25.4956   19.3070 C   0  0  0  0  0  0
  -27.6465  -23.7098   20.7454 N   0  0  0  0  0  0
  -28.6753  -24.1720   19.9877 N   0  0  0  0  0  0
  -29.9156  -15.6457   20.8916 N   0  0  0  0  0  0
  -29.2301  -19.4092   20.4685 N   0  3  0  0  0  0
  -31.4706  -12.4527   19.1314 H   0  0  0  0  0  0
  -30.3237  -11.3422   19.8260 H   0  0  0  0  0  0
  -29.7693  -11.8332   17.4165 H   0  0  0  0  0  0
  -29.6766  -13.5435   17.7768 H   0  0  0  0  0  0
  -27.8271  -11.3476   18.7742 H   0  0  0  0  0  0
  -27.3836  -12.7010   17.7696 H   0  0  0  0  0  0
  -27.6951  -14.2748   19.5834 H   0  0  0  0  0  0
  -28.6986  -11.9925   21.3435 H   0  0  0  0  0  0
  -28.4583  -13.6406   21.8570 H   0  0  0  0  0  0
  -25.2715   -9.5784   22.4714 H   0  0  0  0  0  0
  -24.0048   -7.4653   22.7456 H   0  0  0  0  0  0
  -21.0835   -8.8674   19.8942 H   0  0  0  0  0  0
  -22.3611  -10.9609   19.6115 H   0  0  0  0  0  0
  -21.1960   -7.6129   23.9729 H   0  0  0  0  0  0
  -21.1508   -6.0494   25.9106 H   0  0  0  0  0  0
  -22.0596   -2.7567   23.2828 H   0  0  0  0  0  0
  -22.4008  -11.9933   22.4872 H   0  0  0  0  0  0
  -21.0999  -13.1279   22.2467 H   0  0  0  0  0  0
  -24.6749  -15.8536   20.5396 H   0  0  0  0  0  0
  -26.2956  -15.6254   20.1276 H   0  0  0  0  0  0
  -26.7101  -32.5442   23.1090 H   0  0  0  0  0  0
  -24.9995  -33.9727   25.0394 H   0  0  0  0  0  0
  -22.6904  -31.2986   21.4048 H   0  0  0  0  0  0
  -23.3743  -35.9651   23.3282 H   0  0  0  0  0  0
  -24.3589  -36.8966   22.2052 H   0  0  0  0  0  0
  -23.7252  -37.6516   23.6678 H   0  0  0  0  0  0
  -26.0435  -31.5665   20.5882 H   0  0  0  0  0  0
  -26.8243  -30.8672   21.9802 H   0  0  0  0  0  0
  -28.0827  -29.0232   21.2148 H   0  0  0  0  0  0
  -25.9802  -25.9310   19.0372 H   0  0  0  0  0  0
  -23.9788  -27.2973   19.0100 H   0  0  0  0  0  0
  -23.7025  -30.5752   19.3935 H   0  0  0  0  0  0
  -22.7375  -29.2183   19.8791 H   0  0  0  0  0  0
  -25.1302  -36.1921   25.0823 H   0  0  0  0  0  0
  -20.9911  -28.3153   24.1476 H   0  0  0  0  0  0
  -20.5617  -26.2240   23.3607 H   0  0  0  0  0  0
  -21.6604  -26.7391   22.1225 H   0  0  0  0  0  0
  -19.6891  -25.6250   21.1251 H   0  0  0  0  0  0
  -19.6708  -27.3147   20.6745 H   0  0  0  0  0  0
  -17.4216  -26.6654   21.3996 H   0  0  0  0  0  0
  -18.0296  -26.0019   22.8966 H   0  0  0  0  0  0
  -19.7937  -30.7245   24.2189 H   0  0  0  0  0  0
  -17.5016  -31.6257   24.5115 H   0  0  0  0  0  0
  -15.5333  -30.2932   23.7687 H   0  0  0  0  0  0
  -15.8646  -28.0788   22.7040 H   0  0  0  0  0  0
  -24.5910  -30.6960   25.7774 H   0  0  0  0  0  0
  -24.8866  -32.2806   26.4856 H   0  0  0  0  0  0
  -25.8071  -30.8855   27.0199 H   0  0  0  0  0  0
  -26.2759  -29.6760   24.1130 H   0  0  0  0  0  0
  -27.4033  -29.7193   25.4479 H   0  0  0  0  0  0
  -27.8592  -30.4280   23.9158 H   0  0  0  0  0  0
  -27.2666  -33.3574   26.1989 H   0  0  0  0  0  0
  -28.3886  -32.6715   25.0316 H   0  0  0  0  0  0
  -28.0604  -31.8356   26.5422 H   0  0  0  0  0  0
  -28.2569  -38.0129   24.7527 H   0  0  0  0  0  0
  -28.1096  -36.2675   24.6238 H   0  0  0  0  0  0
  -27.2312  -37.1401   25.8852 H   0  0  0  0  0  0
  -20.9313  -29.8759   21.7016 H   0  0  0  0  0  0
  -26.0167  -38.2843   24.1413 H   0  0  0  0  0  0
  -27.2870  -21.9044   21.7117 H   0  0  0  0  0  0
  -30.5495  -23.3489   19.2838 H   0  0  0  0  0  0
  -29.8041  -18.1669   23.1060 H   0  0  0  0  0  0
  -28.3353  -17.6211   22.3053 H   0  0  0  0  0  0
  -29.2329  -15.5123   22.9034 H   0  0  0  0  0  0
  -30.8962  -16.0621   22.7164 H   0  0  0  0  0  0
  -30.4209  -16.8628   19.1833 H   0  0  0  0  0  0
  -28.7245  -16.8061   19.6185 H   0  0  0  0  0  0
  -30.9839  -18.3220   20.9826 H   0  0  0  0  0  0
  -30.5094  -20.6588   21.6358 H   0  0  0  0  0  0
  -30.8278  -20.6617   19.9470 H   0  0  0  0  0  0
  -27.9224  -25.4297   18.4693 H   0  0  0  0  0  0
  -29.5943  -25.6627   18.8615 H   0  0  0  0  0  0
  -28.3624  -19.4779   20.9774 H   0  0  0  0  0  0
  -28.9992  -19.3345   19.4896 H   0  0  0  0  0  0
  1 25  1  0  0  0
  1 30  2  0  0  0
  1 82  1  0  0  0
  2  3  1  0  0  0
  2 25  1  0  0  0
  2 84  1  0  0  0
  2 85  1  0  0  0
  3  4  1  0  0  0
  3 86  1  0  0  0
  3 87  1  0  0  0
  4  5  1  0  0  0
  4 88  1  0  0  0
  4 89  1  0  0  0
  5  6  1  0  0  0
  5 26  1  0  0  0
  5 90  1  0  0  0
  6 25  1  0  0  0
  6 91  1  0  0  0
  6 92  1  0  0  0
  7  8  2  0  0  0
  7 26  1  0  0  0
  7 29  1  0  0  0
  8  9  1  0  0  0
  8 22  1  0  0  0
  9 10  1  0  0  0
  9 27  2  0  0  0
 10 11  2  0  0  0
 10 15  1  0  0  0
 11 12  1  0  0  0
 11 93  1  0  0  0
 12 13  2  0  0  0
 12 94  1  0  0  0
 13 14  1  0  0  0
 13 31  1  0  0  0
 14 15  2  0  0  0
 14 95  1  0  0  0
 15 96  1  0  0  0
 16 17  2  0  0  0
 16 21  1  0  0  0
 16 31  1  0  0  0
 17 18  1  0  0  0
 17 97  1  0  0  0
 18 19  2  0  0  0
 18 98  1  0  0  0
 19 20  1  0  0  0
 19 24  1  0  0  0
 20 21  2  0  0  0
 20 99  1  0  0  0
 21 23  1  0  0  0
 22 28  1  0  0  0
 22 32  2  0  0  0
 26 27  1  0  0  0
 28100  1  0  0  0
 28101  1  0  0  0
 29102  1  0  0  0
 29103  1  0  0  0
 33 34  1  0  0  0
 33 66  1  0  0  0
 33 70  2  0  0  0
 34 36  1  0  0  0
 34 59  1  0  0  0
 34104  1  0  0  0
 35 44  2  0  0  0
 35 45  1  0  0  0
 35 68  1  0  0  0
 36 56  1  0  0  0
 36105  1  0  0  0
 37 39  1  0  0  0
 37 47  1  0  0  0
 37 66  1  0  0  0
 37106  1  0  0  0
 38 43  2  0  0  0
 38 46  1  0  0  0
 38 47  1  0  0  0
 39 64  1  0  0  0
 39 67  2  0  0  0
 40 52  1  0  0  0
 40 53  2  0  0  0
 40 58  1  0  0  0
 41107  1  0  0  0
 41108  1  0  0  0
 41109  1  0  0  0
 41 48  1  0  0  0
 42 43  1  0  0  0
 42 66  1  0  0  0
 42110  1  0  0  0
 42111  1  0  0  0
 43 44  1  0  0  0
 44112  1  0  0  0
 45 46  2  0  0  0
 45113  1  0  0  0
 46114  1  0  0  0
 47115  1  0  0  0
 47116  1  0  0  0
 48 56  1  0  0  0
 48 65  1  0  0  0
 48117  1  0  0  0
 49 50  1  0  0  0
 49 53  1  0  0  0
 49 64  1  0  0  0
 49118  1  0  0  0
 50 51  1  0  0  0
 50119  1  0  0  0
 50120  1  0  0  0
 51 52  1  0  0  0
 51121  1  0  0  0
 51122  1  0  0  0
 52123  1  0  0  0
 52124  1  0  0  0
 53 54  1  0  0  0
 54 55  2  0  0  0
 54125  1  0  0  0
 55 57  1  0  0  0
 55126  1  0  0  0
 56 69  2  0  0  0
 57 58  2  0  0  0
 57127  1  0  0  0
 58128  1  0  0  0
 59 60  1  0  0  0
 59 61  1  0  0  0
 59 62  1  0  0  0
 60129  1  0  0  0
 60130  1  0  0  0
 60131  1  0  0  0
 61132  1  0  0  0
 61133  1  0  0  0
 61134  1  0  0  0
 62135  1  0  0  0
 62136  1  0  0  0
 62137  1  0  0  0
 63 65  1  0  0  0
 63138  1  0  0  0
 63139  1  0  0  0
 63140  1  0  0  0
 64141  1  0  0  0
 65142  1  0  0  0
 68 79  1  0  0  0
 71 73  1  0  0  0
 71 80  2  0  0  0
 71143  1  0  0  0
 72 73  2  0  0  0
 72 81  1  0  0  0
 72144  1  0  0  0
 73 78  1  0  0  0
 74 75  1  0  0  0
 74 77  1  0  0  0
 74145  1  0  0  0
 74146  1  0  0  0
 75 82  1  0  0  0
 75147  1  0  0  0
 75148  1  0  0  0
 76 77  1  0  0  0
 76 82  1  0  0  0
 76149  1  0  0  0
 76150  1  0  0  0
 77 83  1  0  0  0
 77151  1  0  0  0
 78 83  1  0  0  0
 78152  1  0  0  0
 78153  1  0  0  0
 79 81  1  0  0  0
 79154  1  0  0  0
 79155  1  0  0  0
 80 81  1  0  0  0
 83156  1  0  0  0
 83157  1  0  0  0
M  CHG  1  83   1
M  ISO  4   1 100  68 101  79 101  82 100
M  END
> <chiral flag>
0

> <version>
0

> <s_m_source_file>
/data/baiqing/PycharmProjects/Reinvent-master-3.2/result/LINK_invent/BTK/process_docking_weight1_custom_sum_contain_oxygen_bond_distance_aromatic_linkinvent_7_9_3/rearranged_h_0189.sdf

> <i_m_source_file_index>
11

> <r_mmod_Potential_Energy-OPLS-2005>
-7.34665727615356

> <r_mmod_Stretch_Energy-OPLS-2005>
60.4106903076172

> <r_mmod_Bend_Energy-OPLS-2005>
149.221878051758

> <r_mmod_Torsional_Energy-OPLS-2005>
338.258575439453

> <r_mmod_Improper_Torsional_Energy-OPLS-2005>
10.1685276031494

> <r_mmod_Van_der_Waal_Energy-OPLS-2005>
114.464897155762

> <r_mmod_Electrostatic_Energy-OPLS-2005>
-204.976547241211

> <r_mmod_Solvation_Energy-OPLS-2005>
-501.465698242188

> <b_mmod_Minimization_Converged-OPLS-2005>
0

> <r_mmod_RMS_Derivative-OPLS-2005>
6.86529064178467

$$$$
11
                    3D
 Structure written by MMmdl.
162172  0  0  1  0            999 V2000
  -30.6149  -14.8549   20.4369 C   0  0  0  0  0  0
  -30.4357  -12.5378   19.4746 C   0  0  0  0  0  0
  -29.5228  -12.5239   18.2285 C   0  0  0  0  0  0
  -28.0516  -12.3014   18.6423 C   0  0  0  0  0  0
  -27.6359  -13.2181   19.8251 C   0  0  2  0  0  0
  -28.6838  -13.2138   20.9622 C   0  0  0  0  0  0
  -25.2476  -13.8093   20.5675 C   0  0  0  0  0  0
  -24.1774  -13.0388   20.9224 C   0  0  0  0  0  0
  -24.6333  -11.6847   20.8684 C   0  0  0  0  0  0
  -23.8993  -10.4246   21.0390 C   0  0  0  0  0  0
  -24.3570   -9.4209   21.9173 C   0  0  0  0  0  0
  -23.6284   -8.2238   22.0725 C   0  0  0  0  0  0
  -22.4279   -8.0268   21.3531 C   0  0  0  0  0  0
  -21.9897   -9.0230   20.4648 C   0  0  0  0  0  0
  -22.7177  -10.2112   20.3051 C   0  0  0  0  0  0
  -21.6844   -6.0741   22.5275 C   0  0  0  0  0  0
  -21.4006   -6.5636   23.8219 C   0  0  0  0  0  0
  -21.3657   -5.6769   24.9168 C   0  0  0  0  0  0
  -21.6059   -4.3046   24.7209 C   0  0  0  0  0  0
  -21.8820   -3.8144   23.4322 C   0  0  0  0  0  0
  -21.9188   -4.6970   22.3376 C   0  0  0  0  0  0
  -22.7811  -13.5230   21.1884 C   0  0  0  0  0  0
  -22.1667   -4.2138   21.0960 F   0  0  0  0  0  0
  -21.5644   -3.4531   25.7730 F   0  0  0  0  0  0
  -29.9627  -13.6318   20.3652 N   0  0  0  0  0  0
  -26.2901  -12.9287   20.3154 N   0  0  0  0  0  0
  -25.9266  -11.6450   20.5637 N   0  0  0  0  0  0
  -22.0387  -12.8275   22.0426 N   0  0  0  0  0  0
  -25.4157  -15.1790   20.4143 N   0  0  0  0  0  0
  -31.8217  -14.8683   20.1610 O   0  0  0  0  0  0
  -21.6642   -6.8879   21.4246 O   0  0  0  0  0  0
  -22.3553  -14.5547   20.6709 O   0  0  0  0  0  0
  -24.6319  -31.8530   23.1901 C   0  0  0  0  0  0
  -25.9113  -32.4758   23.8286 C   0  0  1  0  0  0
  -27.2466  -27.2438   20.1469 C   0  0  0  0  0  0
  -25.5909  -33.8542   24.2189 N   0  0  0  0  0  0
  -23.4315  -30.4693   21.5313 C   0  0  2  0  0  0
  -24.8855  -28.9052   20.1011 C   0  0  0  0  0  0
  -22.7472  -29.4597   22.4844 C   0  0  0  0  0  0
  -18.0280  -28.1391   22.8474 C   0  0  0  0  0  0
  -24.1496  -36.7297   23.2646 C   0  0  0  0  0  0
  -25.9734  -30.7614   21.3707 C   0  0  0  0  0  0
  -26.0521  -29.3789   20.7148 C   0  0  0  0  0  0
  -27.2238  -28.5589   20.7320 C   0  0  0  0  0  0
  -26.0615  -26.8367   19.4939 C   0  0  0  0  0  0
  -24.8986  -27.6396   19.4786 C   0  0  0  0  0  0
  -23.6540  -29.7917   20.1510 C   0  0  0  0  0  0
  -25.4116  -36.3049   24.0326 C   0  0  1  0  0  0
  -20.5884  -28.3721   23.1250 C   0  0  2  0  0  0
  -20.6792  -26.9434   22.5415 C   0  0  0  0  0  0
  -19.5770  -26.6388   21.5218 C   0  0  0  0  0  0
  -18.1944  -26.7948   22.1624 C   0  0  0  0  0  0
  -19.1527  -28.8860   23.2890 C   0  0  0  0  0  0
  -18.9483  -30.1462   23.8912 C   0  0  0  0  0  0
  -17.6492  -30.6610   24.0569 C   0  0  0  0  0  0
  -25.9073  -34.9424   23.5065 C   0  0  0  0  0  0
  -16.5366  -29.9126   23.6328 C   0  0  0  0  0  0
  -16.7275  -28.6530   23.0356 C   0  0  0  0  0  0
  -26.4425  -31.6610   25.0718 C   0  0  0  0  0  0
  -25.3637  -31.3782   26.1431 C   0  0  0  0  0  0
  -27.0266  -30.3026   24.6243 C   0  0  0  0  0  0
  -27.5974  -32.4325   25.7495 C   0  0  0  0  0  0
  -27.5573  -37.1799   24.8435 C   0  0  0  0  0  0
  -21.4176  -29.3070   22.3615 N   0  0  0  0  0  0
  -26.4277  -37.3788   23.9418 N   0  0  0  0  0  0
  -24.6980  -31.0447   22.0881 N   0  0  0  0  0  0
  -23.4143  -28.8172   23.2995 O   0  0  0  0  0  0
  -28.3461  -26.3635   20.3388 O   0  0  0  0  0  0
  -26.5663  -34.8930   22.4644 O   0  0  0  0  0  0
  -23.5469  -32.1324   23.7210 O   0  0  0  0  0  0
  -29.4563  -22.8468   18.5096 C   0  0  0  0  0  0
  -29.3693  -24.0924   17.8573 C   0  0  0  0  0  0
  -29.0307  -22.7553   19.8485 C   0  0  0  0  0  0
  -28.5050  -25.1135   19.7222 C   0  0  0  0  0  0
  -31.2077  -23.9133   15.9710 C   0  0  0  0  0  0
  -30.8830  -25.3725   16.1612 C   0  0  0  0  0  0
  -28.3432  -17.9964   20.9513 C   0  0  0  0  0  0
  -28.6035  -16.4546   21.0170 C   0  0  0  0  0  0
  -30.4617  -17.4520   19.9942 C   0  0  0  0  0  0
  -29.8283  -24.3202   16.4485 C   0  0  0  0  0  0
  -29.6688  -18.6923   20.6441 C   0  0  1  0  0  0
  -29.0898  -21.3476   20.6292 C   0  0  0  0  0  0
  -28.8826  -25.1933   18.4602 N   0  0  0  0  0  0
  -28.5921  -23.9436   20.4459 N   0  0  0  0  0  0
  -29.9315  -16.1041   20.4702 N   0  0  0  0  0  0
  -29.5757  -20.0640   19.9109 N   0  3  0  0  0  0
  -31.4756  -12.6709   19.1723 H   0  0  0  0  0  0
  -30.3992  -11.5799   19.9894 H   0  0  0  0  0  0
  -29.8446  -11.7508   17.5296 H   0  0  0  0  0  0
  -29.6076  -13.4763   17.6944 H   0  0  0  0  0  0
  -27.9385  -11.2565   18.9265 H   0  0  0  0  0  0
  -27.3936  -12.4649   17.7883 H   0  0  0  0  0  0
  -27.6062  -14.2060   19.3736 H   0  0  0  0  0  0
  -28.7685  -12.2177   21.4013 H   0  0  0  0  0  0
  -28.3880  -13.8734   21.7771 H   0  0  0  0  0  0
  -25.2717   -9.5765   22.4738 H   0  0  0  0  0  0
  -24.0022   -7.4666   22.7449 H   0  0  0  0  0  0
  -21.0851   -8.8774   19.8978 H   0  0  0  0  0  0
  -22.3651  -10.9662   19.6171 H   0  0  0  0  0  0
  -21.1985   -7.6142   23.9718 H   0  0  0  0  0  0
  -21.1493   -6.0490   25.9069 H   0  0  0  0  0  0
  -22.0605   -2.7614   23.2803 H   0  0  0  0  0  0
  -22.3963  -11.9960   22.4903 H   0  0  0  0  0  0
  -21.0986  -13.1375   22.2491 H   0  0  0  0  0  0
  -24.6750  -15.8452   20.5889 H   0  0  0  0  0  0
  -26.2788  -15.6144   20.1149 H   0  0  0  0  0  0
  -26.7196  -32.5379   23.1054 H   0  0  0  0  0  0
  -24.9940  -33.9680   25.0248 H   0  0  0  0  0  0
  -22.7327  -31.2940   21.3794 H   0  0  0  0  0  0
  -23.3767  -35.9626   23.3273 H   0  0  0  0  0  0
  -24.3599  -36.8971   22.2071 H   0  0  0  0  0  0
  -23.7273  -37.6499   23.6701 H   0  0  0  0  0  0
  -26.1102  -31.5234   20.6029 H   0  0  0  0  0  0
  -26.8539  -30.8118   22.0021 H   0  0  0  0  0  0
  -28.1071  -28.9115   21.2506 H   0  0  0  0  0  0
  -26.0048  -25.8578   19.0380 H   0  0  0  0  0  0
  -24.0028  -27.2670   18.9994 H   0  0  0  0  0  0
  -23.7734  -30.5628   19.3894 H   0  0  0  0  0  0
  -22.7740  -29.2224   19.8494 H   0  0  0  0  0  0
  -25.1324  -36.1866   25.0836 H   0  0  0  0  0  0
  -20.9993  -28.3337   24.1366 H   0  0  0  0  0  0
  -20.5687  -26.2345   23.3624 H   0  0  0  0  0  0
  -21.6679  -26.7488   22.1225 H   0  0  0  0  0  0
  -19.6968  -25.6290   21.1282 H   0  0  0  0  0  0
  -19.6735  -27.3161   20.6710 H   0  0  0  0  0  0
  -17.4238  -26.6663   21.4017 H   0  0  0  0  0  0
  -18.0369  -26.0071   22.8988 H   0  0  0  0  0  0
  -19.7960  -30.7268   24.2278 H   0  0  0  0  0  0
  -17.5062  -31.6283   24.5194 H   0  0  0  0  0  0
  -15.5370  -30.3079   23.7634 H   0  0  0  0  0  0
  -15.8652  -28.0888   22.7064 H   0  0  0  0  0  0
  -24.5759  -30.7206   25.7741 H   0  0  0  0  0  0
  -24.8891  -32.2961   26.4889 H   0  0  0  0  0  0
  -25.7932  -30.8893   27.0188 H   0  0  0  0  0  0
  -26.2866  -29.6781   24.1232 H   0  0  0  0  0  0
  -27.3867  -29.7293   25.4800 H   0  0  0  0  0  0
  -27.8760  -30.4295   23.9541 H   0  0  0  0  0  0
  -27.2579  -33.3591   26.2114 H   0  0  0  0  0  0
  -28.3745  -32.6930   25.0315 H   0  0  0  0  0  0
  -28.0665  -31.8432   26.5380 H   0  0  0  0  0  0
  -28.2550  -38.0138   24.7541 H   0  0  0  0  0  0
  -28.1092  -36.2663   24.6144 H   0  0  0  0  0  0
  -27.2291  -37.1331   25.8839 H   0  0  0  0  0  0
  -20.9315  -29.8743   21.6784 H   0  0  0  0  0  0
  -26.0107  -38.2858   24.1438 H   0  0  0  0  0  0
  -29.8632  -22.0064   17.9640 H   0  0  0  0  0  0
  -31.9128  -23.4859   16.6789 H   0  0  0  0  0  0
  -31.3071  -23.5771   14.9434 H   0  0  0  0  0  0
  -30.7600  -25.9796   15.2682 H   0  0  0  0  0  0
  -31.3495  -25.8699   17.0082 H   0  0  0  0  0  0
  -27.9203  -18.3598   21.8908 H   0  0  0  0  0  0
  -27.6107  -18.2143   20.1743 H   0  0  0  0  0  0
  -27.8427  -15.9901   20.4027 H   0  0  0  0  0  0
  -28.4851  -16.0938   22.0392 H   0  0  0  0  0  0
  -31.5300  -17.5363   20.2072 H   0  0  0  0  0  0
  -30.3610  -17.4720   18.9076 H   0  0  0  0  0  0
  -28.9974  -24.2211   15.7502 H   0  0  0  0  0  0
  -30.1576  -18.8957   21.5986 H   0  0  0  0  0  0
  -28.0907  -21.1515   21.0270 H   0  0  0  0  0  0
  -29.7338  -21.4917   21.4953 H   0  0  0  0  0  0
  -28.9998  -19.9587   19.0914 H   0  0  0  0  0  0
  -30.5029  -20.2852   19.5830 H   0  0  0  0  0  0
  1 25  1  0  0  0
  1 30  2  0  0  0
  1 85  1  0  0  0
  2  3  1  0  0  0
  2 25  1  0  0  0
  2 87  1  0  0  0
  2 88  1  0  0  0
  3  4  1  0  0  0
  3 89  1  0  0  0
  3 90  1  0  0  0
  4  5  1  0  0  0
  4 91  1  0  0  0
  4 92  1  0  0  0
  5  6  1  0  0  0
  5 26  1  0  0  0
  5 93  1  0  0  0
  6 25  1  0  0  0
  6 94  1  0  0  0
  6 95  1  0  0  0
  7  8  2  0  0  0
  7 26  1  0  0  0
  7 29  1  0  0  0
  8  9  1  0  0  0
  8 22  1  0  0  0
  9 10  1  0  0  0
  9 27  2  0  0  0
 10 11  2  0  0  0
 10 15  1  0  0  0
 11 12  1  0  0  0
 11 96  1  0  0  0
 12 13  2  0  0  0
 12 97  1  0  0  0
 13 14  1  0  0  0
 13 31  1  0  0  0
 14 15  2  0  0  0
 14 98  1  0  0  0
 15 99  1  0  0  0
 16 17  2  0  0  0
 16 21  1  0  0  0
 16 31  1  0  0  0
 17 18  1  0  0  0
 17100  1  0  0  0
 18 19  2  0  0  0
 18101  1  0  0  0
 19 20  1  0  0  0
 19 24  1  0  0  0
 20 21  2  0  0  0
 20102  1  0  0  0
 21 23  1  0  0  0
 22 28  1  0  0  0
 22 32  2  0  0  0
 26 27  1  0  0  0
 28103  1  0  0  0
 28104  1  0  0  0
 29105  1  0  0  0
 29106  1  0  0  0
 33 34  1  0  0  0
 33 66  1  0  0  0
 33 70  2  0  0  0
 34 36  1  0  0  0
 34 59  1  0  0  0
 34107  1  0  0  0
 35 44  2  0  0  0
 35 45  1  0  0  0
 35 68  1  0  0  0
 36 56  1  0  0  0
 36108  1  0  0  0
 37 39  1  0  0  0
 37 47  1  0  0  0
 37 66  1  0  0  0
 37109  1  0  0  0
 38 43  2  0  0  0
 38 46  1  0  0  0
 38 47  1  0  0  0
 39 64  1  0  0  0
 39 67  2  0  0  0
 40 52  1  0  0  0
 40 53  2  0  0  0
 40 58  1  0  0  0
 41110  1  0  0  0
 41111  1  0  0  0
 41112  1  0  0  0
 41 48  1  0  0  0
 42 43  1  0  0  0
 42 66  1  0  0  0
 42113  1  0  0  0
 42114  1  0  0  0
 43 44  1  0  0  0
 44115  1  0  0  0
 45 46  2  0  0  0
 45116  1  0  0  0
 46117  1  0  0  0
 47118  1  0  0  0
 47119  1  0  0  0
 48 56  1  0  0  0
 48 65  1  0  0  0
 48120  1  0  0  0
 49 50  1  0  0  0
 49 53  1  0  0  0
 49 64  1  0  0  0
 49121  1  0  0  0
 50 51  1  0  0  0
 50122  1  0  0  0
 50123  1  0  0  0
 51 52  1  0  0  0
 51124  1  0  0  0
 51125  1  0  0  0
 52126  1  0  0  0
 52127  1  0  0  0
 53 54  1  0  0  0
 54 55  2  0  0  0
 54128  1  0  0  0
 55 57  1  0  0  0
 55129  1  0  0  0
 56 69  2  0  0  0
 57 58  2  0  0  0
 57130  1  0  0  0
 58131  1  0  0  0
 59 60  1  0  0  0
 59 61  1  0  0  0
 59 62  1  0  0  0
 60132  1  0  0  0
 60133  1  0  0  0
 60134  1  0  0  0
 61135  1  0  0  0
 61136  1  0  0  0
 61137  1  0  0  0
 62138  1  0  0  0
 62139  1  0  0  0
 62140  1  0  0  0
 63 65  1  0  0  0
 63141  1  0  0  0
 63142  1  0  0  0
 63143  1  0  0  0
 64144  1  0  0  0
 65145  1  0  0  0
 68 74  1  0  0  0
 71 72  2  0  0  0
 71 73  1  0  0  0
 71146  1  0  0  0
 72 83  1  0  0  0
 72 80  1  0  0  0
 73 82  1  0  0  0
 73 84  2  0  0  0
 74 83  2  0  0  0
 74 84  1  0  0  0
 75 76  1  0  0  0
 75 80  1  0  0  0
 75147  1  0  0  0
 75148  1  0  0  0
 76 80  1  0  0  0
 76149  1  0  0  0
 76150  1  0  0  0
 77 78  1  0  0  0
 77 81  1  0  0  0
 77151  1  0  0  0
 77152  1  0  0  0
 78 85  1  0  0  0
 78153  1  0  0  0
 78154  1  0  0  0
 79 81  1  0  0  0
 79 85  1  0  0  0
 79155  1  0  0  0
 79156  1  0  0  0
 80157  1  0  0  0
 81 86  1  0  0  0
 81158  1  0  0  0
 82 86  1  0  0  0
 82159  1  0  0  0
 82160  1  0  0  0
 86161  1  0  0  0
 86162  1  0  0  0
M  CHG  1  86   1
M  ISO  4   1 100  68 101  74 101  85 100
M  END
> <chiral flag>
0

> <version>
0

> <s_m_source_file>
/data/baiqing/PycharmProjects/Reinvent-master-3.2/result/LINK_invent/BTK/process_docking_weight1_custom_sum_contain_oxygen_bond_distance_aromatic_linkinvent_7_9_3/rearranged_h_0189.sdf

> <i_m_source_file_index>
12

> <r_mmod_Potential_Energy-OPLS-2005>
-243.309600830078

> <r_mmod_Stretch_Energy-OPLS-2005>
139.995147705078

> <r_mmod_Bend_Energy-OPLS-2005>
228.51318359375

> <r_mmod_Torsional_Energy-OPLS-2005>
366.465576171875

> <r_mmod_Improper_Torsional_Energy-OPLS-2005>
11.7833890914917

> <r_mmod_Van_der_Waal_Energy-OPLS-2005>
135.365020751953

> <r_mmod_Electrostatic_Energy-OPLS-2005>
-731.087707519531

> <r_mmod_Solvation_Energy-OPLS-2005>
-519.525024414062

> <b_mmod_Minimization_Converged-OPLS-2005>
0

> <r_mmod_RMS_Derivative-OPLS-2005>
7.30547571182251

$$$$
12
                    3D
 Structure written by MMmdl.
170179  0  0  1  0            999 V2000
  -30.7456  -14.4199   20.6114 C   0  0  0  0  0  0
  -30.4153  -12.2913   19.4173 C   0  0  0  0  0  0
  -29.4920  -12.5134   18.2032 C   0  0  0  0  0  0
  -28.0132  -12.3799   18.6135 C   0  0  0  0  0  0
  -27.6651  -13.2097   19.8785 C   0  0  2  0  0  0
  -28.7051  -12.9820   21.0002 C   0  0  0  0  0  0
  -25.2597  -13.8171   20.5680 C   0  0  0  0  0  0
  -24.1847  -13.0449   20.9173 C   0  0  0  0  0  0
  -24.6399  -11.6917   20.8724 C   0  0  0  0  0  0
  -23.9062  -10.4302   21.0401 C   0  0  0  0  0  0
  -24.3614   -9.4219   21.9181 C   0  0  0  0  0  0
  -23.6289   -8.2253   22.0754 C   0  0  0  0  0  0
  -22.4272   -8.0290   21.3550 C   0  0  0  0  0  0
  -21.9909   -9.0268   20.4651 C   0  0  0  0  0  0
  -22.7235  -10.2144   20.3054 C   0  0  0  0  0  0
  -21.6858   -6.0738   22.5285 C   0  0  0  0  0  0
  -21.4020   -6.5642   23.8217 C   0  0  0  0  0  0
  -21.3655   -5.6790   24.9178 C   0  0  0  0  0  0
  -21.6039   -4.3052   24.7228 C   0  0  0  0  0  0
  -21.8817   -3.8150   23.4349 C   0  0  0  0  0  0
  -21.9198   -4.6968   22.3409 C   0  0  0  0  0  0
  -22.7867  -13.5256   21.1825 C   0  0  0  0  0  0
  -22.1664   -4.2154   21.0985 F   0  0  0  0  0  0
  -21.5622   -3.4535   25.7738 F   0  0  0  0  0  0
  -30.0423  -13.2683   20.4519 N   0  0  0  0  0  0
  -26.3042  -12.9348   20.3376 N   0  0  0  0  0  0
  -25.9330  -11.6505   20.5754 N   0  0  0  0  0  0
  -22.0491  -12.8266   22.0378 N   0  0  0  0  0  0
  -25.4317  -15.1888   20.4084 N   0  0  0  0  0  0
  -31.8361  -14.6231   20.0711 O   0  0  0  0  0  0
  -21.6637   -6.8888   21.4248 O   0  0  0  0  0  0
  -22.3565  -14.5568   20.6670 O   0  0  0  0  0  0
  -24.6151  -31.8694   23.2125 C   0  0  0  0  0  0
  -25.9052  -32.4827   23.8410 C   0  0  1  0  0  0
  -27.2301  -27.4377   20.0851 C   0  0  0  0  0  0
  -25.5912  -33.8628   24.2344 N   0  0  0  0  0  0
  -23.4012  -30.4959   21.5535 C   0  0  2  0  0  0
  -24.8441  -28.9669   20.1145 C   0  0  0  0  0  0
  -22.7410  -29.4671   22.5000 C   0  0  0  0  0  0
  -18.0271  -28.1376   22.8490 C   0  0  0  0  0  0
  -24.1485  -36.7312   23.2637 C   0  0  0  0  0  0
  -25.9313  -30.8362   21.3648 C   0  0  0  0  0  0
  -26.0068  -29.4726   20.7085 C   0  0  0  0  0  0
  -27.2020  -28.7165   20.6889 C   0  0  0  0  0  0
  -26.0415  -26.9495   19.4890 C   0  0  0  0  0  0
  -24.8565  -27.7041   19.5032 C   0  0  0  0  0  0
  -23.6072  -29.8332   20.1664 C   0  0  0  0  0  0
  -25.4104  -36.3114   24.0340 C   0  0  1  0  0  0
  -20.5860  -28.3661   23.1320 C   0  0  2  0  0  0
  -20.6761  -26.9400   22.5416 C   0  0  0  0  0  0
  -19.5742  -26.6385   21.5209 C   0  0  0  0  0  0
  -18.1919  -26.7925   22.1617 C   0  0  0  0  0  0
  -19.1520  -28.8835   23.2901 C   0  0  0  0  0  0
  -18.9450  -30.1441   23.8909 C   0  0  0  0  0  0
  -17.6452  -30.6585   24.0563 C   0  0  0  0  0  0
  -25.9032  -34.9476   23.5133 C   0  0  0  0  0  0
  -16.5342  -29.9088   23.6326 C   0  0  0  0  0  0
  -16.7261  -28.6502   23.0348 C   0  0  0  0  0  0
  -26.4477  -31.6601   25.0735 C   0  0  0  0  0  0
  -25.3745  -31.3708   26.1486 C   0  0  0  0  0  0
  -27.0309  -30.3046   24.6105 C   0  0  0  0  0  0
  -27.6055  -32.4316   25.7493 C   0  0  0  0  0  0
  -27.5578  -37.1814   24.8462 C   0  0  0  0  0  0
  -21.4138  -29.3036   22.3735 N   0  0  0  0  0  0
  -26.4291  -37.3793   23.9407 N   0  0  0  0  0  0
  -24.6676  -31.0810   22.1018 N   0  0  0  0  0  0
  -23.4189  -28.8203   23.3027 O   0  0  0  0  0  0
  -28.4050  -26.7069   20.0977 O   0  0  0  0  0  0
  -26.5582  -34.8922   22.4690 O   0  0  0  0  0  0
  -23.5345  -32.1442   23.7524 O   0  0  0  0  0  0
  -31.6367  -22.5216   18.9287 C   0  0  0  0  0  0
  -32.0398  -21.0576   19.1036 C   0  0  0  0  0  0
  -29.4565  -18.5888   25.1708 C   0  0  0  0  0  0
  -28.9020  -19.1290   23.8510 C   0  0  0  0  0  0
  -29.9796  -17.4279   24.3236 C   0  0  0  0  0  0
  -30.6059  -22.3187   20.0514 C   0  0  2  0  0  0
  -30.6365  -20.8122   19.6799 C   0  0  2  0  0  0
  -29.5926  -24.5307   20.1710 C   0  0  0  0  0  0
  -30.7110  -16.7346   21.4987 C   0  0  0  0  0  0
  -29.4737  -18.9344   20.8713 C   0  0  0  0  0  0
  -28.2868  -25.2948   19.8816 C   0  0  0  0  0  0
  -29.6482  -17.7942   21.9177 C   0  0  2  0  0  0
  -29.9944  -18.3871   23.2177 N   0  0  0  0  0  0
  -30.1504  -15.3872   21.3259 N   0  0  0  0  0  0
  -29.3565  -23.0903   20.0307 N   0  0  0  0  0  0
  -30.6380  -19.8524   20.8130 N   0  3  0  0  0  0
  -31.4614  -12.3745   19.1170 H   0  0  0  0  0  0
  -30.3007  -11.2777   19.8048 H   0  0  0  0  0  0
  -29.7277  -11.7980   17.4144 H   0  0  0  0  0  0
  -29.6692  -13.5032   17.7795 H   0  0  0  0  0  0
  -27.8132  -11.3238   18.7963 H   0  0  0  0  0  0
  -27.3672  -12.6717   17.7848 H   0  0  0  0  0  0
  -27.7140  -14.2601   19.5903 H   0  0  0  0  0  0
  -28.6704  -11.9473   21.3443 H   0  0  0  0  0  0
  -28.4659  -13.5854   21.8761 H   0  0  0  0  0  0
  -25.2763   -9.5696   22.4748 H   0  0  0  0  0  0
  -24.0007   -7.4648   22.7470 H   0  0  0  0  0  0
  -21.0843   -8.8790   19.8959 H   0  0  0  0  0  0
  -22.3702  -10.9683   19.6155 H   0  0  0  0  0  0
  -21.2012   -7.6147   23.9725 H   0  0  0  0  0  0
  -21.1471   -6.0515   25.9078 H   0  0  0  0  0  0
  -22.0597   -2.7614   23.2845 H   0  0  0  0  0  0
  -22.4082  -11.9932   22.4791 H   0  0  0  0  0  0
  -21.1100  -13.1301   22.2541 H   0  0  0  0  0  0
  -24.6629  -15.8428   20.5077 H   0  0  0  0  0  0
  -26.2812  -15.6257   20.0741 H   0  0  0  0  0  0
  -26.7126  -32.5537   23.1176 H   0  0  0  0  0  0
  -25.0087  -33.9789   25.0506 H   0  0  0  0  0  0
  -22.6894  -31.3131   21.4185 H   0  0  0  0  0  0
  -23.3741  -35.9652   23.3316 H   0  0  0  0  0  0
  -24.3582  -36.8908   22.2050 H   0  0  0  0  0  0
  -23.7242  -37.6526   23.6635 H   0  0  0  0  0  0
  -26.0461  -31.6051   20.5992 H   0  0  0  0  0  0
  -26.8185  -30.8851   21.9842 H   0  0  0  0  0  0
  -28.0995  -29.1061   21.1488 H   0  0  0  0  0  0
  -26.0002  -25.9874   19.0014 H   0  0  0  0  0  0
  -23.9625  -27.3087   19.0406 H   0  0  0  0  0  0
  -23.7141  -30.6100   19.4082 H   0  0  0  0  0  0
  -22.7301  -29.2544   19.8712 H   0  0  0  0  0  0
  -25.1278  -36.1983   25.0833 H   0  0  0  0  0  0
  -20.9950  -28.3224   24.1441 H   0  0  0  0  0  0
  -20.5668  -26.2267   23.3599 H   0  0  0  0  0  0
  -21.6634  -26.7453   22.1209 H   0  0  0  0  0  0
  -19.6905  -25.6300   21.1226 H   0  0  0  0  0  0
  -19.6682  -27.3204   20.6746 H   0  0  0  0  0  0
  -17.4194  -26.6685   21.4012 H   0  0  0  0  0  0
  -18.0313  -26.0062   22.9008 H   0  0  0  0  0  0
  -19.7927  -30.7250   24.2288 H   0  0  0  0  0  0
  -17.5012  -31.6269   24.5162 H   0  0  0  0  0  0
  -15.5341  -30.2992   23.7646 H   0  0  0  0  0  0
  -15.8662  -28.0825   22.7054 H   0  0  0  0  0  0
  -24.5910  -30.7063   25.7828 H   0  0  0  0  0  0
  -24.8946  -32.2864   26.4949 H   0  0  0  0  0  0
  -25.8101  -30.8868   27.0234 H   0  0  0  0  0  0
  -26.2857  -29.6810   24.1152 H   0  0  0  0  0  0
  -27.4082  -29.7279   25.4559 H   0  0  0  0  0  0
  -27.8689  -30.4374   23.9256 H   0  0  0  0  0  0
  -27.2680  -33.3609   26.2093 H   0  0  0  0  0  0
  -28.3850  -32.6885   25.0309 H   0  0  0  0  0  0
  -28.0736  -31.8427   26.5388 H   0  0  0  0  0  0
  -28.2601  -38.0105   24.7505 H   0  0  0  0  0  0
  -28.1064  -36.2636   24.6285 H   0  0  0  0  0  0
  -27.2299  -37.1475   25.8867 H   0  0  0  0  0  0
  -20.9292  -29.8771   21.6973 H   0  0  0  0  0  0
  -26.0180  -38.2875   24.1396 H   0  0  0  0  0  0
  -31.1795  -22.7190   17.9569 H   0  0  0  0  0  0
  -32.4264  -23.2403   19.1523 H   0  0  0  0  0  0
  -32.8500  -20.9403   19.8262 H   0  0  0  0  0  0
  -32.2530  -20.5329   18.1710 H   0  0  0  0  0  0
  -28.7007  -18.3157   25.9079 H   0  0  0  0  0  0
  -30.2476  -19.2070   25.6010 H   0  0  0  0  0  0
  -28.9936  -20.2058   23.6973 H   0  0  0  0  0  0
  -27.9235  -18.7240   23.5827 H   0  0  0  0  0  0
  -29.2498  -16.6302   24.1621 H   0  0  0  0  0  0
  -30.9820  -17.0685   24.5651 H   0  0  0  0  0  0
  -31.0857  -22.4868   21.0192 H   0  0  0  0  0  0
  -29.9265  -20.5572   18.8894 H   0  0  0  0  0  0
  -29.9494  -24.7521   21.1783 H   0  0  0  0  0  0
  -30.3628  -24.8653   19.4745 H   0  0  0  0  0  0
  -31.5341  -16.6755   22.2126 H   0  0  0  0  0  0
  -31.1759  -17.0399   20.5596 H   0  0  0  0  0  0
  -28.5785  -19.5165   21.0910 H   0  0  0  0  0  0
  -29.3070  -18.4907   19.8888 H   0  0  0  0  0  0
  -27.4969  -24.8959   20.5216 H   0  0  0  0  0  0
  -28.0025  -25.1075   18.8448 H   0  0  0  0  0  0
  -28.6833  -17.2907   22.0074 H   0  0  0  0  0  0
  -29.2618  -15.1718   21.7535 H   0  0  0  0  0  0
  -28.7254  -22.7862   20.7686 H   0  0  0  0  0  0
  -30.6977  -20.3399   21.6923 H   0  0  0  0  0  0
  -31.4670  -19.2877   20.7419 H   0  0  0  0  0  0
  1 25  1  0  0  0
  1 30  2  0  0  0
  1 84  1  0  0  0
  2  3  1  0  0  0
  2 25  1  0  0  0
  2 87  1  0  0  0
  2 88  1  0  0  0
  3  4  1  0  0  0
  3 89  1  0  0  0
  3 90  1  0  0  0
  4  5  1  0  0  0
  4 91  1  0  0  0
  4 92  1  0  0  0
  5  6  1  0  0  0
  5 26  1  0  0  0
  5 93  1  0  0  0
  6 25  1  0  0  0
  6 94  1  0  0  0
  6 95  1  0  0  0
  7  8  2  0  0  0
  7 26  1  0  0  0
  7 29  1  0  0  0
  8  9  1  0  0  0
  8 22  1  0  0  0
  9 10  1  0  0  0
  9 27  2  0  0  0
 10 11  2  0  0  0
 10 15  1  0  0  0
 11 12  1  0  0  0
 11 96  1  0  0  0
 12 13  2  0  0  0
 12 97  1  0  0  0
 13 14  1  0  0  0
 13 31  1  0  0  0
 14 15  2  0  0  0
 14 98  1  0  0  0
 15 99  1  0  0  0
 16 17  2  0  0  0
 16 21  1  0  0  0
 16 31  1  0  0  0
 17 18  1  0  0  0
 17100  1  0  0  0
 18 19  2  0  0  0
 18101  1  0  0  0
 19 20  1  0  0  0
 19 24  1  0  0  0
 20 21  2  0  0  0
 20102  1  0  0  0
 21 23  1  0  0  0
 22 28  1  0  0  0
 22 32  2  0  0  0
 26 27  1  0  0  0
 28103  1  0  0  0
 28104  1  0  0  0
 29105  1  0  0  0
 29106  1  0  0  0
 33 34  1  0  0  0
 33 66  1  0  0  0
 33 70  2  0  0  0
 34 36  1  0  0  0
 34 59  1  0  0  0
 34107  1  0  0  0
 35 44  2  0  0  0
 35 45  1  0  0  0
 35 68  1  0  0  0
 36 56  1  0  0  0
 36108  1  0  0  0
 37 39  1  0  0  0
 37 47  1  0  0  0
 37 66  1  0  0  0
 37109  1  0  0  0
 38 43  2  0  0  0
 38 46  1  0  0  0
 38 47  1  0  0  0
 39 64  1  0  0  0
 39 67  2  0  0  0
 40 52  1  0  0  0
 40 53  2  0  0  0
 40 58  1  0  0  0
 41110  1  0  0  0
 41111  1  0  0  0
 41112  1  0  0  0
 41 48  1  0  0  0
 42 43  1  0  0  0
 42 66  1  0  0  0
 42113  1  0  0  0
 42114  1  0  0  0
 43 44  1  0  0  0
 44115  1  0  0  0
 45 46  2  0  0  0
 45116  1  0  0  0
 46117  1  0  0  0
 47118  1  0  0  0
 47119  1  0  0  0
 48 56  1  0  0  0
 48 65  1  0  0  0
 48120  1  0  0  0
 49 50  1  0  0  0
 49 53  1  0  0  0
 49 64  1  0  0  0
 49121  1  0  0  0
 50 51  1  0  0  0
 50122  1  0  0  0
 50123  1  0  0  0
 51 52  1  0  0  0
 51124  1  0  0  0
 51125  1  0  0  0
 52126  1  0  0  0
 52127  1  0  0  0
 53 54  1  0  0  0
 54 55  2  0  0  0
 54128  1  0  0  0
 55 57  1  0  0  0
 55129  1  0  0  0
 56 69  2  0  0  0
 57 58  2  0  0  0
 57130  1  0  0  0
 58131  1  0  0  0
 59 60  1  0  0  0
 59 61  1  0  0  0
 59 62  1  0  0  0
 60132  1  0  0  0
 60133  1  0  0  0
 60134  1  0  0  0
 61135  1  0  0  0
 61136  1  0  0  0
 61137  1  0  0  0
 62138  1  0  0  0
 62139  1  0  0  0
 62140  1  0  0  0
 63 65  1  0  0  0
 63141  1  0  0  0
 63142  1  0  0  0
 63143  1  0  0  0
 64144  1  0  0  0
 65145  1  0  0  0
 68 81  1  0  0  0
 71 72  1  0  0  0
 71 76  1  0  0  0
 71146  1  0  0  0
 71147  1  0  0  0
 72 77  1  0  0  0
 72148  1  0  0  0
 72149  1  0  0  0
 73 74  1  0  0  0
 73 75  1  0  0  0
 73150  1  0  0  0
 73151  1  0  0  0
 74 83  1  0  0  0
 74152  1  0  0  0
 74153  1  0  0  0
 75 83  1  0  0  0
 75154  1  0  0  0
 75155  1  0  0  0
 76 77  1  0  0  0
 76 85  1  0  0  0
 76156  1  0  0  0
 77 86  1  0  0  0
 77157  1  0  0  0
 78 81  1  0  0  0
 78 85  1  0  0  0
 78158  1  0  0  0
 78159  1  0  0  0
 79 84  1  0  0  0
 79160  1  0  0  0
 79161  1  0  0  0
 79 82  1  0  0  0
 80 82  1  0  0  0
 80 86  1  0  0  0
 80162  1  0  0  0
 80163  1  0  0  0
 81164  1  0  0  0
 81165  1  0  0  0
 82 83  1  0  0  0
 82166  1  0  0  0
 84167  1  0  0  0
 85168  1  0  0  0
 86169  1  0  0  0
 86170  1  0  0  0
M  CHG  1  86   1
M  ISO  4   1 100  68 101  81 101  84 100
M  END
> <chiral flag>
0

> <version>
0

> <s_m_source_file>
/data/baiqing/PycharmProjects/Reinvent-master-3.2/result/LINK_invent/BTK/process_docking_weight1_custom_sum_contain_oxygen_bond_distance_aromatic_linkinvent_7_9_3/rearranged_h_0189.sdf

> <i_m_source_file_index>
13

> <r_mmod_Potential_Energy-OPLS-2005>
-196.292816162109

> <r_mmod_Stretch_Energy-OPLS-2005>
36.9722366333008

> <r_mmod_Bend_Energy-OPLS-2005>
135.45671081543

> <r_mmod_Torsional_Energy-OPLS-2005>
266.725250244141

> <r_mmod_Improper_Torsional_Energy-OPLS-2005>
2.34742093086243

> <r_mmod_Van_der_Waal_Energy-OPLS-2005>
147.168273925781

> <r_mmod_Electrostatic_Energy-OPLS-2005>
-328.188690185547

> <r_mmod_Solvation_Energy-OPLS-2005>
-466.824310302734

> <b_mmod_Minimization_Converged-OPLS-2005>
0

> <r_mmod_RMS_Derivative-OPLS-2005>
1.14608025550842

$$$$
13
                    3D
 Structure written by MMmdl.
163172  0  0  1  0            999 V2000
  -30.6203  -14.7919   20.4613 C   0  0  0  0  0  0
  -30.4331  -12.4924   19.4755 C   0  0  0  0  0  0
  -29.5101  -12.5151   18.2384 C   0  0  0  0  0  0
  -28.0408  -12.3284   18.6590 C   0  0  0  0  0  0
  -27.6392  -13.2406   19.8486 C   0  0  2  0  0  0
  -28.6855  -13.2073   20.9830 C   0  0  0  0  0  0
  -25.2489  -13.8210   20.5705 C   0  0  0  0  0  0
  -24.1795  -13.0446   20.9218 C   0  0  0  0  0  0
  -24.6409  -11.6928   20.8763 C   0  0  0  0  0  0
  -23.9091  -10.4297   21.0411 C   0  0  0  0  0  0
  -24.3642   -9.4202   21.9185 C   0  0  0  0  0  0
  -23.6314   -8.2238   22.0753 C   0  0  0  0  0  0
  -22.4291   -8.0281   21.3546 C   0  0  0  0  0  0
  -21.9929   -9.0260   20.4650 C   0  0  0  0  0  0
  -22.7267  -10.2136   20.3062 C   0  0  0  0  0  0
  -21.6857   -6.0737   22.5281 C   0  0  0  0  0  0
  -21.4008   -6.5641   23.8210 C   0  0  0  0  0  0
  -21.3655   -5.6790   24.9169 C   0  0  0  0  0  0
  -21.6047   -4.3051   24.7223 C   0  0  0  0  0  0
  -21.8823   -3.8145   23.4340 C   0  0  0  0  0  0
  -21.9199   -4.6964   22.3401 C   0  0  0  0  0  0
  -22.7811  -13.5218   21.1879 C   0  0  0  0  0  0
  -22.1673   -4.2152   21.0979 F   0  0  0  0  0  0
  -21.5631   -3.4532   25.7729 F   0  0  0  0  0  0
  -29.9798  -13.5681   20.3932 N   0  0  0  0  0  0
  -26.2930  -12.9442   20.3294 N   0  0  0  0  0  0
  -25.9341  -11.6579   20.5764 N   0  0  0  0  0  0
  -22.0461  -12.8194   22.0429 N   0  0  0  0  0  0
  -25.4130  -15.1933   20.4086 N   0  0  0  0  0  0
  -31.8100  -14.8565   20.1374 O   0  0  0  0  0  0
  -21.6655   -6.8884   21.4242 O   0  0  0  0  0  0
  -22.3493  -14.5516   20.6717 O   0  0  0  0  0  0
  -24.6351  -31.8515   23.1958 C   0  0  0  0  0  0
  -25.9171  -32.4744   23.8302 C   0  0  1  0  0  0
  -27.2088  -27.2204   20.1442 C   0  0  0  0  0  0
  -25.5962  -33.8545   24.2239 N   0  0  0  0  0  0
  -23.4326  -30.4747   21.5395 C   0  0  2  0  0  0
  -24.8802  -28.9167   20.1092 C   0  0  0  0  0  0
  -22.7514  -29.4584   22.4887 C   0  0  0  0  0  0
  -18.0296  -28.1412   22.8476 C   0  0  0  0  0  0
  -24.1481  -36.7247   23.2636 C   0  0  0  0  0  0
  -25.9820  -30.7546   21.3795 C   0  0  0  0  0  0
  -26.0542  -29.3728   20.7227 C   0  0  0  0  0  0
  -27.2248  -28.5396   20.7247 C   0  0  0  0  0  0
  -26.0178  -26.8500   19.4841 C   0  0  0  0  0  0
  -24.8700  -27.6664   19.4735 C   0  0  0  0  0  0
  -23.6536  -29.8090   20.1557 C   0  0  0  0  0  0
  -25.4114  -36.3055   24.0328 C   0  0  1  0  0  0
  -20.5900  -28.3717   23.1278 C   0  0  2  0  0  0
  -20.6772  -26.9422   22.5445 C   0  0  0  0  0  0
  -19.5781  -26.6407   21.5217 C   0  0  0  0  0  0
  -18.1941  -26.7978   22.1579 C   0  0  0  0  0  0
  -19.1549  -28.8874   23.2879 C   0  0  0  0  0  0
  -18.9460  -30.1466   23.8910 C   0  0  0  0  0  0
  -17.6464  -30.6601   24.0572 C   0  0  0  0  0  0
  -25.9065  -34.9434   23.5085 C   0  0  0  0  0  0
  -16.5357  -29.9100   23.6346 C   0  0  0  0  0  0
  -16.7281  -28.6526   23.0356 C   0  0  0  0  0  0
  -26.4520  -31.6577   25.0693 C   0  0  0  0  0  0
  -25.3733  -31.3773   26.1413 C   0  0  0  0  0  0
  -27.0338  -30.2973   24.6201 C   0  0  0  0  0  0
  -27.6084  -32.4308   25.7465 C   0  0  0  0  0  0
  -27.5589  -37.1774   24.8449 C   0  0  0  0  0  0
  -21.4219  -29.3042   22.3635 N   0  0  0  0  0  0
  -26.4276  -37.3768   23.9426 N   0  0  0  0  0  0
  -24.7030  -31.0462   22.0950 N   0  0  0  0  0  0
  -23.4206  -28.8130   23.2998 O   0  0  0  0  0  0
  -28.2758  -26.2805   20.1810 O   0  0  0  0  0  0
  -26.5614  -34.8917   22.4640 O   0  0  0  0  0  0
  -23.5503  -32.1346   23.7256 O   0  0  0  0  0  0
  -29.0753  -16.8656   19.9898 C   0  0  0  0  0  0
  -30.4991  -17.1727   21.4833 C   0  0  0  0  0  0
  -30.4202  -21.6431   20.2541 C   0  0  0  0  0  0
  -28.1171  -22.0286   20.4999 C   0  0  0  0  0  0
  -29.8010  -18.1734   20.4964 C   0  0  0  0  0  0
  -30.1469  -23.1589   20.5766 C   0  0  2  0  0  0
  -28.7142  -23.4673   20.0909 C   0  0  2  0  0  0
  -31.2213  -24.1038   20.0187 C   0  0  0  0  0  0
  -27.6560  -19.2269   21.5326 C   0  0  0  0  0  0
  -27.9859  -24.8488   20.6206 C   0  0  0  0  0  0
  -29.0816  -19.5539   21.0478 C   0  0  2  0  0  0
  -29.9256  -15.9554   20.8252 N   0  0  0  0  0  0
  -29.1281  -20.9004   20.2435 N   0  3  2  0  0  0
  -31.4717  -12.6202   19.1658 H   0  0  0  0  0  0
  -30.3898  -11.5219   19.9722 H   0  0  0  0  0  0
  -29.7993  -11.7332   17.5341 H   0  0  0  0  0  0
  -29.6241  -13.4628   17.7102 H   0  0  0  0  0  0
  -27.9123  -11.2821   18.9394 H   0  0  0  0  0  0
  -27.3774  -12.4993   17.8108 H   0  0  0  0  0  0
  -27.6243  -14.2564   19.4532 H   0  0  0  0  0  0
  -28.7335  -12.2204   21.4456 H   0  0  0  0  0  0
  -28.4140  -13.9070   21.7744 H   0  0  0  0  0  0
  -25.2792   -9.5681   22.4748 H   0  0  0  0  0  0
  -24.0033   -7.4627   22.7461 H   0  0  0  0  0  0
  -21.0861   -8.8784   19.8951 H   0  0  0  0  0  0
  -22.3731  -10.9679   19.6168 H   0  0  0  0  0  0
  -21.1994   -7.6153   23.9715 H   0  0  0  0  0  0
  -21.1474   -6.0517   25.9075 H   0  0  0  0  0  0
  -22.0605   -2.7610   23.2827 H   0  0  0  0  0  0
  -22.4088  -11.9851   22.4806 H   0  0  0  0  0  0
  -21.1066  -13.1195   22.2619 H   0  0  0  0  0  0
  -24.6402  -15.8423   20.5112 H   0  0  0  0  0  0
  -26.2599  -15.6324   20.0738 H   0  0  0  0  0  0
  -26.7222  -32.5378   23.1029 H   0  0  0  0  0  0
  -25.0155  -33.9679   25.0418 H   0  0  0  0  0  0
  -22.7314  -31.2982   21.3919 H   0  0  0  0  0  0
  -23.3769  -35.9551   23.3284 H   0  0  0  0  0  0
  -24.3568  -36.8876   22.2050 H   0  0  0  0  0  0
  -23.7199  -37.6430   23.6662 H   0  0  0  0  0  0
  -26.1206  -31.5144   20.6089 H   0  0  0  0  0  0
  -26.8609  -30.8064   22.0106 H   0  0  0  0  0  0
  -28.1233  -28.8846   21.2167 H   0  0  0  0  0  0
  -25.9562  -25.8967   18.9785 H   0  0  0  0  0  0
  -23.9756  -27.3183   18.9742 H   0  0  0  0  0  0
  -23.7799  -30.5863   19.4006 H   0  0  0  0  0  0
  -22.7708  -29.2448   19.8490 H   0  0  0  0  0  0
  -25.1301  -36.1878   25.0819 H   0  0  0  0  0  0
  -20.9995  -28.3303   24.1400 H   0  0  0  0  0  0
  -20.5622  -26.2330   23.3653 H   0  0  0  0  0  0
  -21.6649  -26.7416   22.1279 H   0  0  0  0  0  0
  -19.6941  -25.6321   21.1246 H   0  0  0  0  0  0
  -19.6774  -27.3210   20.6749 H   0  0  0  0  0  0
  -17.4250  -26.6780   21.3932 H   0  0  0  0  0  0
  -18.0271  -26.0097   22.8934 H   0  0  0  0  0  0
  -19.7933  -30.7269   24.2292 H   0  0  0  0  0  0
  -17.5022  -31.6275   24.5189 H   0  0  0  0  0  0
  -15.5357  -30.3001   23.7681 H   0  0  0  0  0  0
  -15.8684  -28.0852   22.7069 H   0  0  0  0  0  0
  -24.6058  -30.6903   25.7828 H   0  0  0  0  0  0
  -24.8730  -32.2930   26.4570 H   0  0  0  0  0  0
  -25.8079  -30.9249   27.0336 H   0  0  0  0  0  0
  -26.2906  -29.6732   24.1218 H   0  0  0  0  0  0
  -27.3980  -29.7230   25.4728 H   0  0  0  0  0  0
  -27.8816  -30.4207   23.9456 H   0  0  0  0  0  0
  -27.2725  -33.3658   26.1957 H   0  0  0  0  0  0
  -28.3947  -32.6772   25.0319 H   0  0  0  0  0  0
  -28.0681  -31.8463   26.5443 H   0  0  0  0  0  0
  -28.2594  -38.0080   24.7506 H   0  0  0  0  0  0
  -28.1087  -36.2617   24.6230 H   0  0  0  0  0  0
  -27.2329  -37.1378   25.8854 H   0  0  0  0  0  0
  -20.9399  -29.8738   21.6818 H   0  0  0  0  0  0
  -26.0145  -38.2828   24.1473 H   0  0  0  0  0  0
  -29.1834  -16.7101   18.9145 H   0  0  0  0  0  0
  -28.0214  -16.8169   20.2608 H   0  0  0  0  0  0
  -30.1637  -17.2937   22.5141 H   0  0  0  0  0  0
  -31.5885  -17.2365   21.4462 H   0  0  0  0  0  0
  -31.1382  -21.2168   20.9568 H   0  0  0  0  0  0
  -30.8570  -21.5417   19.2595 H   0  0  0  0  0  0
  -27.1815  -21.8248   19.9788 H   0  0  0  0  0  0
  -27.8825  -22.0590   21.5643 H   0  0  0  0  0  0
  -30.5534  -18.4401   19.7527 H   0  0  0  0  0  0
  -30.1490  -23.2615   21.6633 H   0  0  0  0  0  0
  -28.7168  -23.5102   19.0010 H   0  0  0  0  0  0
  -31.2570  -24.0756   18.9302 H   0  0  0  0  0  0
  -32.2092  -23.8309   20.3919 H   0  0  0  0  0  0
  -31.0314  -25.1351   20.3187 H   0  0  0  0  0  0
  -27.6588  -18.3292   22.1518 H   0  0  0  0  0  0
  -26.9749  -19.0531   20.7006 H   0  0  0  0  0  0
  -27.2367  -20.0140   22.1577 H   0  0  0  0  0  0
  -28.1143  -24.8662   21.7032 H   0  0  0  0  0  0
  -26.9193  -24.6647   20.5052 H   0  0  0  0  0  0
  -29.6123  -19.8072   21.9666 H   0  0  0  0  0  0
  -28.9778  -20.6409   19.2794 H   0  0  0  0  0  0
  1 25  1  0  0  0
  1 30  2  0  0  0
  1 82  1  0  0  0
  2  3  1  0  0  0
  2 25  1  0  0  0
  2 84  1  0  0  0
  2 85  1  0  0  0
  3  4  1  0  0  0
  3 86  1  0  0  0
  3 87  1  0  0  0
  4  5  1  0  0  0
  4 88  1  0  0  0
  4 89  1  0  0  0
  5  6  1  0  0  0
  5 26  1  0  0  0
  5 90  1  0  0  0
  6 25  1  0  0  0
  6 91  1  0  0  0
  6 92  1  0  0  0
  7  8  2  0  0  0
  7 26  1  0  0  0
  7 29  1  0  0  0
  8  9  1  0  0  0
  8 22  1  0  0  0
  9 10  1  0  0  0
  9 27  2  0  0  0
 10 11  2  0  0  0
 10 15  1  0  0  0
 11 12  1  0  0  0
 11 93  1  0  0  0
 12 13  2  0  0  0
 12 94  1  0  0  0
 13 14  1  0  0  0
 13 31  1  0  0  0
 14 15  2  0  0  0
 14 95  1  0  0  0
 15 96  1  0  0  0
 16 17  2  0  0  0
 16 21  1  0  0  0
 16 31  1  0  0  0
 17 18  1  0  0  0
 17 97  1  0  0  0
 18 19  2  0  0  0
 18 98  1  0  0  0
 19 20  1  0  0  0
 19 24  1  0  0  0
 20 21  2  0  0  0
 20 99  1  0  0  0
 21 23  1  0  0  0
 22 28  1  0  0  0
 22 32  2  0  0  0
 26 27  1  0  0  0
 28100  1  0  0  0
 28101  1  0  0  0
 29102  1  0  0  0
 29103  1  0  0  0
 33 34  1  0  0  0
 33 66  1  0  0  0
 33 70  2  0  0  0
 34 36  1  0  0  0
 34 59  1  0  0  0
 34104  1  0  0  0
 35 44  2  0  0  0
 35 45  1  0  0  0
 35 68  1  0  0  0
 36 56  1  0  0  0
 36105  1  0  0  0
 37 39  1  0  0  0
 37 47  1  0  0  0
 37 66  1  0  0  0
 37106  1  0  0  0
 38 43  2  0  0  0
 38 46  1  0  0  0
 38 47  1  0  0  0
 39 64  1  0  0  0
 39 67  2  0  0  0
 40 52  1  0  0  0
 40 53  2  0  0  0
 40 58  1  0  0  0
 41107  1  0  0  0
 41108  1  0  0  0
 41109  1  0  0  0
 41 48  1  0  0  0
 42 43  1  0  0  0
 42 66  1  0  0  0
 42110  1  0  0  0
 42111  1  0  0  0
 43 44  1  0  0  0
 44112  1  0  0  0
 45 46  2  0  0  0
 45113  1  0  0  0
 46114  1  0  0  0
 47115  1  0  0  0
 47116  1  0  0  0
 48 56  1  0  0  0
 48 65  1  0  0  0
 48117  1  0  0  0
 49 50  1  0  0  0
 49 53  1  0  0  0
 49 64  1  0  0  0
 49118  1  0  0  0
 50 51  1  0  0  0
 50119  1  0  0  0
 50120  1  0  0  0
 51 52  1  0  0  0
 51121  1  0  0  0
 51122  1  0  0  0
 52123  1  0  0  0
 52124  1  0  0  0
 53 54  1  0  0  0
 54 55  2  0  0  0
 54125  1  0  0  0
 55 57  1  0  0  0
 55126  1  0  0  0
 56 69  2  0  0  0
 57 58  2  0  0  0
 57127  1  0  0  0
 58128  1  0  0  0
 59 60  1  0  0  0
 59 61  1  0  0  0
 59 62  1  0  0  0
 60129  1  0  0  0
 60130  1  0  0  0
 60131  1  0  0  0
 61132  1  0  0  0
 61133  1  0  0  0
 61134  1  0  0  0
 62135  1  0  0  0
 62136  1  0  0  0
 62137  1  0  0  0
 63 65  1  0  0  0
 63138  1  0  0  0
 63139  1  0  0  0
 63140  1  0  0  0
 64141  1  0  0  0
 65142  1  0  0  0
 68 80  1  0  0  0
 71 82  1  0  0  0
 71143  1  0  0  0
 71144  1  0  0  0
 71 75  1  0  0  0
 72 75  1  0  0  0
 72 82  1  0  0  0
 72145  1  0  0  0
 72146  1  0  0  0
 73 76  1  0  0  0
 73147  1  0  0  0
 73148  1  0  0  0
 73 83  1  0  0  0
 74 77  1  0  0  0
 74 83  1  0  0  0
 74149  1  0  0  0
 74150  1  0  0  0
 75 81  1  0  0  0
 75151  1  0  0  0
 76 77  1  0  0  0
 76 78  1  0  0  0
 76152  1  0  0  0
 77 80  1  0  0  0
 77153  1  0  0  0
 78154  1  0  0  0
 78155  1  0  0  0
 78156  1  0  0  0
 79157  1  0  0  0
 79158  1  0  0  0
 79159  1  0  0  0
 79 81  1  0  0  0
 80160  1  0  0  0
 80161  1  0  0  0
 81 83  1  0  0  0
 81162  1  0  0  0
 83163  1  0  0  0
M  CHG  1  83   1
M  ISO  4   1 100  68 101  80 101  82 100
M  END
> <chiral flag>
0

> <version>
0

> <s_m_source_file>
/data/baiqing/PycharmProjects/Reinvent-master-3.2/result/LINK_invent/BTK/process_docking_weight1_custom_sum_contain_oxygen_bond_distance_aromatic_linkinvent_7_9_3/rearranged_h_0189.sdf

> <i_m_source_file_index>
14

> <r_mmod_Potential_Energy-OPLS-2005>
376.055999755859

> <r_mmod_Stretch_Energy-OPLS-2005>
153.810638427734

> <r_mmod_Bend_Energy-OPLS-2005>
241.135238647461

> <r_mmod_Torsional_Energy-OPLS-2005>
378.413757324219

> <r_mmod_Improper_Torsional_Energy-OPLS-2005>
7.50255823135376

> <r_mmod_Van_der_Waal_Energy-OPLS-2005>
109.205955505371

> <r_mmod_Electrostatic_Energy-OPLS-2005>
-177.940826416016

> <r_mmod_Solvation_Energy-OPLS-2005>
-446.601837158203

> <b_mmod_Minimization_Converged-OPLS-2005>
0

> <r_mmod_RMS_Derivative-OPLS-2005>
1.80698776245117

$$$$
14
                    3D
 Structure written by MMmdl.
162171  0  0  1  0            999 V2000
  -30.6769  -14.4417   20.6028 C   0  0  0  0  0  0
  -30.4109  -12.2966   19.4038 C   0  0  0  0  0  0
  -29.4879  -12.5384   18.1922 C   0  0  0  0  0  0
  -28.0030  -12.4166   18.5920 C   0  0  0  0  0  0
  -27.6605  -13.2077   19.8866 C   0  0  2  0  0  0
  -28.6974  -12.9309   20.9972 C   0  0  0  0  0  0
  -25.2592  -13.8144   20.5654 C   0  0  0  0  0  0
  -24.1834  -13.0430   20.9130 C   0  0  0  0  0  0
  -24.6389  -11.6888   20.8733 C   0  0  0  0  0  0
  -23.9045  -10.4300   21.0386 C   0  0  0  0  0  0
  -24.3627   -9.4199   21.9142 C   0  0  0  0  0  0
  -23.6314   -8.2232   22.0729 C   0  0  0  0  0  0
  -22.4295   -8.0265   21.3520 C   0  0  0  0  0  0
  -21.9910   -9.0241   20.4631 C   0  0  0  0  0  0
  -22.7227  -10.2126   20.3027 C   0  0  0  0  0  0
  -21.6874   -6.0733   22.5276 C   0  0  0  0  0  0
  -21.4032   -6.5635   23.8204 C   0  0  0  0  0  0
  -21.3672   -5.6776   24.9170 C   0  0  0  0  0  0
  -21.6056   -4.3040   24.7202 C   0  0  0  0  0  0
  -21.8824   -3.8142   23.4322 C   0  0  0  0  0  0
  -21.9199   -4.6967   22.3387 C   0  0  0  0  0  0
  -22.7879  -13.5228   21.1781 C   0  0  0  0  0  0
  -22.1646   -4.2136   21.0966 F   0  0  0  0  0  0
  -21.5641   -3.4518   25.7706 F   0  0  0  0  0  0
  -30.0254  -13.2549   20.4529 N   0  0  0  0  0  0
  -26.3019  -12.9320   20.3407 N   0  0  0  0  0  0
  -25.9318  -11.6476   20.5797 N   0  0  0  0  0  0
  -22.0519  -12.8256   22.0374 N   0  0  0  0  0  0
  -25.4271  -15.1860   20.4075 N   0  0  0  0  0  0
  -31.7874  -14.6364   20.0973 O   0  0  0  0  0  0
  -21.6653   -6.8868   21.4226 O   0  0  0  0  0  0
  -22.3574  -14.5543   20.6624 O   0  0  0  0  0  0
  -24.6166  -31.8683   23.2125 C   0  0  0  0  0  0
  -25.9086  -32.4833   23.8385 C   0  0  1  0  0  0
  -27.2007  -27.4142   20.0985 C   0  0  0  0  0  0
  -25.5950  -33.8653   24.2297 N   0  0  0  0  0  0
  -23.3968  -30.5001   21.5540 C   0  0  2  0  0  0
  -24.8302  -28.9659   20.1137 C   0  0  0  0  0  0
  -22.7385  -29.4709   22.4997 C   0  0  0  0  0  0
  -18.0268  -28.1393   22.8492 C   0  0  0  0  0  0
  -24.1481  -36.7336   23.2639 C   0  0  0  0  0  0
  -25.9285  -30.8301   21.3641 C   0  0  0  0  0  0
  -25.9939  -29.4656   20.7068 C   0  0  0  0  0  0
  -27.1826  -28.7001   20.6924 C   0  0  0  0  0  0
  -26.0102  -26.9307   19.5039 C   0  0  0  0  0  0
  -24.8324  -27.6992   19.5087 C   0  0  0  0  0  0
  -23.5968  -29.8406   20.1645 C   0  0  0  0  0  0
  -25.4118  -36.3141   24.0322 C   0  0  1  0  0  0
  -20.5857  -28.3709   23.1310 C   0  0  2  0  0  0
  -20.6780  -26.9449   22.5428 C   0  0  0  0  0  0
  -19.5765  -26.6397   21.5227 C   0  0  0  0  0  0
  -18.1930  -26.7933   22.1609 C   0  0  0  0  0  0
  -19.1519  -28.8860   23.2883 C   0  0  0  0  0  0
  -18.9455  -30.1455   23.8908 C   0  0  0  0  0  0
  -17.6467  -30.6597   24.0577 C   0  0  0  0  0  0
  -25.9051  -34.9511   23.5096 C   0  0  0  0  0  0
  -16.5353  -29.9102   23.6354 C   0  0  0  0  0  0
  -16.7258  -28.6528   23.0365 C   0  0  0  0  0  0
  -26.4524  -31.6666   25.0746 C   0  0  0  0  0  0
  -25.3801  -31.3808   26.1504 C   0  0  0  0  0  0
  -27.0375  -30.3090   24.6204 C   0  0  0  0  0  0
  -27.6050  -32.4461   25.7511 C   0  0  0  0  0  0
  -27.5592  -37.1824   24.8452 C   0  0  0  0  0  0
  -21.4131  -29.3063   22.3708 N   0  0  0  0  0  0
  -26.4307  -37.3842   23.9398 N   0  0  0  0  0  0
  -24.6662  -31.0789   22.1015 N   0  0  0  0  0  0
  -23.4161  -28.8248   23.3038 O   0  0  0  0  0  0
  -28.3709  -26.6842   20.1337 O   0  0  0  0  0  0
  -26.5607  -34.8950   22.4660 O   0  0  0  0  0  0
  -23.5370  -32.1453   23.7539 O   0  0  0  0  0  0
  -31.8077  -18.6518   21.4935 C   0  0  0  0  0  0
  -30.7272  -19.5405   21.5149 C   0  0  0  0  0  0
  -31.5412  -17.2772   21.4184 C   0  0  0  0  0  0
  -29.4263  -19.0209   21.4920 C   0  0  0  0  0  0
  -30.2118  -16.8075   21.3177 C   0  0  0  0  0  0
  -28.3180  -20.9440   22.8071 C   0  0  0  0  0  0
  -27.3191  -19.8236   22.7976 C   0  0  0  0  0  0
  -28.2662  -19.9773   21.6220 C   0  0  0  0  0  0
  -27.7510  -20.4187   20.2445 C   0  0  0  0  0  0
  -27.0839  -21.8166   20.1751 C   0  0  0  0  0  0
  -27.7132  -24.2579   20.4783 C   0  0  0  0  0  0
  -28.4039  -25.3453   19.6103 C   0  0  0  0  0  0
  -29.1747  -17.6886   21.3714 N   0  0  0  0  0  0
  -29.9602  -15.4059   21.2300 N   0  0  0  0  0  0
  -28.0948  -22.8944   20.0159 N   0  3  0  0  0  0
  -31.4590  -12.3823   19.1088 H   0  0  0  0  0  0
  -30.2942  -11.2723   19.7615 H   0  0  0  0  0  0
  -29.7223  -11.8365   17.3904 H   0  0  0  0  0  0
  -29.6751  -13.5357   17.7889 H   0  0  0  0  0  0
  -27.7827  -11.3579   18.7311 H   0  0  0  0  0  0
  -27.3673  -12.7535   17.7718 H   0  0  0  0  0  0
  -27.7116  -14.2691   19.6459 H   0  0  0  0  0  0
  -28.6691  -11.8770   21.2831 H   0  0  0  0  0  0
  -28.4623  -13.4803   21.9102 H   0  0  0  0  0  0
  -25.2772   -9.5718   22.4699 H   0  0  0  0  0  0
  -24.0030   -7.4668   22.7478 H   0  0  0  0  0  0
  -21.0819   -8.8785   19.8985 H   0  0  0  0  0  0
  -22.3655  -10.9683   19.6171 H   0  0  0  0  0  0
  -21.2014   -7.6140   23.9719 H   0  0  0  0  0  0
  -21.1503   -6.0492   25.9077 H   0  0  0  0  0  0
  -22.0596   -2.7603   23.2819 H   0  0  0  0  0  0
  -22.4113  -11.9948   22.4838 H   0  0  0  0  0  0
  -21.1175  -13.1357   22.2532 H   0  0  0  0  0  0
  -24.6682  -15.8469   20.5340 H   0  0  0  0  0  0
  -26.2919  -15.6356   20.1324 H   0  0  0  0  0  0
  -26.7140  -32.5473   23.1109 H   0  0  0  0  0  0
  -25.0187  -33.9832   25.0498 H   0  0  0  0  0  0
  -22.6840  -31.3175   21.4256 H   0  0  0  0  0  0
  -23.3761  -35.9642   23.3316 H   0  0  0  0  0  0
  -24.3553  -36.8962   22.2046 H   0  0  0  0  0  0
  -23.7212  -37.6532   23.6661 H   0  0  0  0  0  0
  -26.0557  -31.6016   20.6036 H   0  0  0  0  0  0
  -26.8102  -30.8675   21.9929 H   0  0  0  0  0  0
  -28.0813  -29.0947   21.1447 H   0  0  0  0  0  0
  -25.9494  -25.9605   19.0362 H   0  0  0  0  0  0
  -23.9311  -27.3059   19.0573 H   0  0  0  0  0  0
  -23.7062  -30.6225   19.4118 H   0  0  0  0  0  0
  -22.7134  -29.2696   19.8696 H   0  0  0  0  0  0
  -25.1300  -36.2004   25.0818 H   0  0  0  0  0  0
  -20.9936  -28.3285   24.1434 H   0  0  0  0  0  0
  -20.5749  -26.2330   23.3623 H   0  0  0  0  0  0
  -21.6633  -26.7529   22.1183 H   0  0  0  0  0  0
  -19.6953  -25.6301   21.1275 H   0  0  0  0  0  0
  -19.6697  -27.3186   20.6731 H   0  0  0  0  0  0
  -17.4223  -26.6727   21.3963 H   0  0  0  0  0  0
  -18.0270  -26.0029   22.8960 H   0  0  0  0  0  0
  -19.7940  -30.7253   24.2269 H   0  0  0  0  0  0
  -17.5042  -31.6265   24.5188 H   0  0  0  0  0  0
  -15.5363  -30.3028   23.7683 H   0  0  0  0  0  0
  -15.8641  -28.0843   22.7104 H   0  0  0  0  0  0
  -24.5855  -30.7309   25.7842 H   0  0  0  0  0  0
  -24.9161  -32.3002   26.5074 H   0  0  0  0  0  0
  -25.8140  -30.8856   27.0196 H   0  0  0  0  0  0
  -26.2926  -29.6794   24.1320 H   0  0  0  0  0  0
  -27.4167  -29.7411   25.4714 H   0  0  0  0  0  0
  -27.8768  -30.4390   23.9367 H   0  0  0  0  0  0
  -27.2570  -33.3681   26.2177 H   0  0  0  0  0  0
  -28.3785  -32.7202   25.0334 H   0  0  0  0  0  0
  -28.0828  -31.8604   26.5360 H   0  0  0  0  0  0
  -28.2638  -38.0106   24.7514 H   0  0  0  0  0  0
  -28.1074  -36.2650   24.6259 H   0  0  0  0  0  0
  -27.2315  -37.1437   25.8860 H   0  0  0  0  0  0
  -20.9311  -29.8754   21.6893 H   0  0  0  0  0  0
  -26.0197  -38.2933   24.1388 H   0  0  0  0  0  0
  -32.8205  -19.0169   21.5499 H   0  0  0  0  0  0
  -30.8956  -20.6067   21.5824 H   0  0  0  0  0  0
  -32.3758  -16.5910   21.4421 H   0  0  0  0  0  0
  -29.1490  -20.8492   23.5028 H   0  0  0  0  0  0
  -27.9172  -21.9498   22.7177 H   0  0  0  0  0  0
  -26.2752  -20.0972   22.6619 H   0  0  0  0  0  0
  -27.5015  -19.0078   23.4916 H   0  0  0  0  0  0
  -27.0591  -19.6498   19.9009 H   0  0  0  0  0  0
  -28.5780  -20.4074   19.5315 H   0  0  0  0  0  0
  -26.4279  -21.9890   21.0300 H   0  0  0  0  0  0
  -26.4306  -21.8558   19.3035 H   0  0  0  0  0  0
  -26.6274  -24.3702   20.4840 H   0  0  0  0  0  0
  -28.0320  -24.3576   21.5169 H   0  0  0  0  0  0
  -28.0205  -25.3203   18.5886 H   0  0  0  0  0  0
  -29.4619  -25.0893   19.5316 H   0  0  0  0  0  0
  -29.0407  -15.1153   21.5225 H   0  0  0  0  0  0
  -28.3207  -22.9379   19.0320 H   0  0  0  0  0  0
  -28.9382  -22.6248   20.4956 H   0  0  0  0  0  0
  1 25  1  0  0  0
  1 30  2  0  0  0
  1 84  1  0  0  0
  2  3  1  0  0  0
  2 25  1  0  0  0
  2 86  1  0  0  0
  2 87  1  0  0  0
  3  4  1  0  0  0
  3 88  1  0  0  0
  3 89  1  0  0  0
  4  5  1  0  0  0
  4 90  1  0  0  0
  4 91  1  0  0  0
  5  6  1  0  0  0
  5 26  1  0  0  0
  5 92  1  0  0  0
  6 25  1  0  0  0
  6 93  1  0  0  0
  6 94  1  0  0  0
  7  8  2  0  0  0
  7 26  1  0  0  0
  7 29  1  0  0  0
  8  9  1  0  0  0
  8 22  1  0  0  0
  9 10  1  0  0  0
  9 27  2  0  0  0
 10 11  2  0  0  0
 10 15  1  0  0  0
 11 12  1  0  0  0
 11 95  1  0  0  0
 12 13  2  0  0  0
 12 96  1  0  0  0
 13 14  1  0  0  0
 13 31  1  0  0  0
 14 15  2  0  0  0
 14 97  1  0  0  0
 15 98  1  0  0  0
 16 17  2  0  0  0
 16 21  1  0  0  0
 16 31  1  0  0  0
 17 18  1  0  0  0
 17 99  1  0  0  0
 18 19  2  0  0  0
 18100  1  0  0  0
 19 20  1  0  0  0
 19 24  1  0  0  0
 20 21  2  0  0  0
 20101  1  0  0  0
 21 23  1  0  0  0
 22 28  1  0  0  0
 22 32  2  0  0  0
 26 27  1  0  0  0
 28102  1  0  0  0
 28103  1  0  0  0
 29104  1  0  0  0
 29105  1  0  0  0
 33 34  1  0  0  0
 33 66  1  0  0  0
 33 70  2  0  0  0
 34 36  1  0  0  0
 34 59  1  0  0  0
 34106  1  0  0  0
 35 44  2  0  0  0
 35 45  1  0  0  0
 35 68  1  0  0  0
 36 56  1  0  0  0
 36107  1  0  0  0
 37 39  1  0  0  0
 37 47  1  0  0  0
 37 66  1  0  0  0
 37108  1  0  0  0
 38 43  2  0  0  0
 38 46  1  0  0  0
 38 47  1  0  0  0
 39 64  1  0  0  0
 39 67  2  0  0  0
 40 52  1  0  0  0
 40 53  2  0  0  0
 40 58  1  0  0  0
 41109  1  0  0  0
 41110  1  0  0  0
 41111  1  0  0  0
 41 48  1  0  0  0
 42 43  1  0  0  0
 42 66  1  0  0  0
 42112  1  0  0  0
 42113  1  0  0  0
 43 44  1  0  0  0
 44114  1  0  0  0
 45 46  2  0  0  0
 45115  1  0  0  0
 46116  1  0  0  0
 47117  1  0  0  0
 47118  1  0  0  0
 48 56  1  0  0  0
 48 65  1  0  0  0
 48119  1  0  0  0
 49 50  1  0  0  0
 49 53  1  0  0  0
 49 64  1  0  0  0
 49120  1  0  0  0
 50 51  1  0  0  0
 50121  1  0  0  0
 50122  1  0  0  0
 51 52  1  0  0  0
 51123  1  0  0  0
 51124  1  0  0  0
 52125  1  0  0  0
 52126  1  0  0  0
 53 54  1  0  0  0
 54 55  2  0  0  0
 54127  1  0  0  0
 55 57  1  0  0  0
 55128  1  0  0  0
 56 69  2  0  0  0
 57 58  2  0  0  0
 57129  1  0  0  0
 58130  1  0  0  0
 59 60  1  0  0  0
 59 61  1  0  0  0
 59 62  1  0  0  0
 60131  1  0  0  0
 60132  1  0  0  0
 60133  1  0  0  0
 61134  1  0  0  0
 61135  1  0  0  0
 61136  1  0  0  0
 62137  1  0  0  0
 62138  1  0  0  0
 62139  1  0  0  0
 63 65  1  0  0  0
 63140  1  0  0  0
 63141  1  0  0  0
 63142  1  0  0  0
 64143  1  0  0  0
 65144  1  0  0  0
 68 82  1  0  0  0
 71 72  2  0  0  0
 71 73  1  0  0  0
 71145  1  0  0  0
 72 74  1  0  0  0
 72146  1  0  0  0
 73 75  2  0  0  0
 73147  1  0  0  0
 74 78  1  0  0  0
 74 83  2  0  0  0
 75 83  1  0  0  0
 75 84  1  0  0  0
 76 77  1  0  0  0
 76 78  1  0  0  0
 76148  1  0  0  0
 76149  1  0  0  0
 77 78  1  0  0  0
 77150  1  0  0  0
 77151  1  0  0  0
 78 79  1  0  0  0
 79 80  1  0  0  0
 79152  1  0  0  0
 79153  1  0  0  0
 80 85  1  0  0  0
 80154  1  0  0  0
 80155  1  0  0  0
 81 82  1  0  0  0
 81 85  1  0  0  0
 81156  1  0  0  0
 81157  1  0  0  0
 82158  1  0  0  0
 82159  1  0  0  0
 84160  1  0  0  0
 85161  1  0  0  0
 85162  1  0  0  0
M  CHG  1  85   1
M  ISO  4   1 100  68 101  82 101  84 100
M  END
> <chiral flag>
0

> <version>
0

> <s_m_source_file>
/data/baiqing/PycharmProjects/Reinvent-master-3.2/result/LINK_invent/BTK/process_docking_weight1_custom_sum_contain_oxygen_bond_distance_aromatic_linkinvent_7_9_3/rearranged_h_0189.sdf

> <i_m_source_file_index>
15

> <r_mmod_Potential_Energy-OPLS-2005>
-320.28076171875

> <r_mmod_Stretch_Energy-OPLS-2005>
38.9848442077637

> <r_mmod_Bend_Energy-OPLS-2005>
109.95011138916

> <r_mmod_Torsional_Energy-OPLS-2005>
251.961456298828

> <r_mmod_Improper_Torsional_Energy-OPLS-2005>
3.40965890884399

> <r_mmod_Van_der_Waal_Energy-OPLS-2005>
160.447967529297

> <r_mmod_Electrostatic_Energy-OPLS-2005>
-435.235168457031

> <r_mmod_Solvation_Energy-OPLS-2005>
-463.37353515625

> <b_mmod_Minimization_Converged-OPLS-2005>
0

> <r_mmod_RMS_Derivative-OPLS-2005>
5.44485092163086

$$$$
15
                    3D
 Structure written by MMmdl.
159168  0  0  1  0            999 V2000
  -30.6899  -14.6340   20.4721 C   0  0  0  0  0  0
  -30.4174  -12.3880   19.4581 C   0  0  0  0  0  0
  -29.5008  -12.4921   18.2226 C   0  0  0  0  0  0
  -28.0252  -12.3408   18.6383 C   0  0  0  0  0  0
  -27.6450  -13.2321   19.8521 C   0  0  2  0  0  0
  -28.6926  -13.1497   20.9836 C   0  0  0  0  0  0
  -25.2533  -13.8208   20.5715 C   0  0  0  0  0  0
  -24.1812  -13.0448   20.9195 C   0  0  0  0  0  0
  -24.6399  -11.6925   20.8735 C   0  0  0  0  0  0
  -23.9074  -10.4299   21.0397 C   0  0  0  0  0  0
  -24.3622   -9.4213   21.9174 C   0  0  0  0  0  0
  -23.6298   -8.2248   22.0747 C   0  0  0  0  0  0
  -22.4279   -8.0285   21.3542 C   0  0  0  0  0  0
  -21.9914   -9.0261   20.4646 C   0  0  0  0  0  0
  -22.7243  -10.2140   20.3051 C   0  0  0  0  0  0
  -21.6859   -6.0736   22.5276 C   0  0  0  0  0  0
  -21.4020   -6.5634   23.8212 C   0  0  0  0  0  0
  -21.3660   -5.6787   24.9174 C   0  0  0  0  0  0
  -21.6044   -4.3051   24.7222 C   0  0  0  0  0  0
  -21.8819   -3.8146   23.4342 C   0  0  0  0  0  0
  -21.9195   -4.6963   22.3399 C   0  0  0  0  0  0
  -22.7834  -13.5228   21.1855 C   0  0  0  0  0  0
  -22.1664   -4.2150   21.0976 F   0  0  0  0  0  0
  -21.5626   -3.4533   25.7735 F   0  0  0  0  0  0
  -30.0019  -13.4518   20.3945 N   0  0  0  0  0  0
  -26.2967  -12.9418   20.3313 N   0  0  0  0  0  0
  -25.9337  -11.6556   20.5761 N   0  0  0  0  0  0
  -22.0479  -12.8224   22.0415 N   0  0  0  0  0  0
  -25.4248  -15.1932   20.4166 N   0  0  0  0  0  0
  -31.8878  -14.6790   20.1753 O   0  0  0  0  0  0
  -21.6641   -6.8884   21.4240 O   0  0  0  0  0  0
  -22.3515  -14.5529   20.6697 O   0  0  0  0  0  0
  -24.6277  -31.8616   23.2064 C   0  0  0  0  0  0
  -25.9128  -32.4783   23.8380 C   0  0  1  0  0  0
  -27.2090  -27.3121   20.1072 C   0  0  0  0  0  0
  -25.5944  -33.8587   24.2297 N   0  0  0  0  0  0
  -23.4199  -30.4908   21.5495 C   0  0  2  0  0  0
  -24.8626  -28.9557   20.1093 C   0  0  0  0  0  0
  -22.7485  -29.4640   22.4933 C   0  0  0  0  0  0
  -18.0290  -28.1389   22.8484 C   0  0  0  0  0  0
  -24.1489  -36.7291   23.2632 C   0  0  0  0  0  0
  -25.9655  -30.7892   21.3823 C   0  0  0  0  0  0
  -26.0358  -29.4202   20.7171 C   0  0  0  0  0  0
  -27.2130  -28.6104   20.7092 C   0  0  0  0  0  0
  -26.0088  -26.9172   19.4640 C   0  0  0  0  0  0
  -24.8517  -27.7094   19.4748 C   0  0  0  0  0  0
  -23.6337  -29.8372   20.1617 C   0  0  0  0  0  0
  -25.4111  -36.3083   24.0327 C   0  0  1  0  0  0
  -20.5893  -28.3694   23.1276 C   0  0  2  0  0  0
  -20.6780  -26.9414   22.5408 C   0  0  0  0  0  0
  -19.5754  -26.6385   21.5211 C   0  0  0  0  0  0
  -18.1934  -26.7932   22.1623 C   0  0  0  0  0  0
  -19.1545  -28.8859   23.2874 C   0  0  0  0  0  0
  -18.9465  -30.1463   23.8887 C   0  0  0  0  0  0
  -17.6464  -30.6587   24.0565 C   0  0  0  0  0  0
  -25.9056  -34.9454   23.5107 C   0  0  0  0  0  0
  -16.5355  -29.9086   23.6332 C   0  0  0  0  0  0
  -16.7278  -28.6506   23.0345 C   0  0  0  0  0  0
  -26.4501  -31.6595   25.0754 C   0  0  0  0  0  0
  -25.3728  -31.3758   26.1481 C   0  0  0  0  0  0
  -27.0336  -30.3004   24.6238 C   0  0  0  0  0  0
  -27.6063  -32.4332   25.7517 C   0  0  0  0  0  0
  -27.5591  -37.1783   24.8448 C   0  0  0  0  0  0
  -21.4199  -29.3049   22.3671 N   0  0  0  0  0  0
  -26.4282  -37.3785   23.9423 N   0  0  0  0  0  0
  -24.6898  -31.0634   22.1018 N   0  0  0  0  0  0
  -23.4213  -28.8161   23.2994 O   0  0  0  0  0  0
  -28.2995  -26.4226   20.1723 O   0  0  0  0  0  0
  -26.5616  -34.8918   22.4669 O   0  0  0  0  0  0
  -23.5438  -32.1417   23.7389 O   0  0  0  0  0  0
  -31.0439  -23.0571   20.5673 C   0  0  0  0  0  0
  -28.9712  -23.8188   20.2819 C   0  0  0  0  0  0
  -29.3840  -21.5864   20.4635 C   0  0  0  0  0  0
  -29.0445  -17.9491   19.4194 C   0  0  0  0  0  0
  -29.6972  -18.1530   21.7486 C   0  0  0  0  0  0
  -29.8040  -16.5809   19.3284 C   0  0  0  0  0  0
  -30.4481  -16.7733   21.6502 C   0  0  0  0  0  0
  -29.6613  -18.9568   20.4225 C   0  0  0  0  0  0
  -32.5259  -23.3312   20.7114 C   0  0  0  0  0  0
  -27.9658  -24.9841   19.9797 C   0  0  0  0  0  0
  -30.2590  -24.1228   20.4146 N   0  0  0  0  0  0
  -30.6841  -21.7731   20.5937 N   0  0  0  0  0  0
  -28.4761  -22.5566   20.3074 N   0  0  0  0  0  0
  -29.9897  -15.8215   20.5978 N   0  0  0  0  0  0
  -28.9138  -20.2560   20.4897 N   0  0  0  0  0  0
  -31.4634  -12.4729   19.1587 H   0  0  0  0  0  0
  -30.3209  -11.4090   19.9299 H   0  0  0  0  0  0
  -29.7635  -11.7265   17.4912 H   0  0  0  0  0  0
  -29.6506  -13.4531   17.7277 H   0  0  0  0  0  0
  -27.8641  -11.2913   18.8872 H   0  0  0  0  0  0
  -27.3704  -12.5559   17.7925 H   0  0  0  0  0  0
  -27.6458  -14.2585   19.4850 H   0  0  0  0  0  0
  -28.7006  -12.1586   21.4390 H   0  0  0  0  0  0
  -28.4530  -13.8566   21.7796 H   0  0  0  0  0  0
  -25.2771   -9.5691   22.4742 H   0  0  0  0  0  0
  -24.0012   -7.4639   22.7464 H   0  0  0  0  0  0
  -21.0845   -8.8783   19.8956 H   0  0  0  0  0  0
  -22.3702  -10.9677   19.6159 H   0  0  0  0  0  0
  -21.2016   -7.6140   23.9715 H   0  0  0  0  0  0
  -21.1481   -6.0515   25.9077 H   0  0  0  0  0  0
  -22.0596   -2.7610   23.2836 H   0  0  0  0  0  0
  -22.4102  -11.9897   22.4820 H   0  0  0  0  0  0
  -21.1094  -13.1253   22.2609 H   0  0  0  0  0  0
  -24.6647  -15.8532   20.5399 H   0  0  0  0  0  0
  -26.2921  -15.6340   20.1367 H   0  0  0  0  0  0
  -26.7195  -32.5443   23.1124 H   0  0  0  0  0  0
  -25.0097  -33.9736   25.0444 H   0  0  0  0  0  0
  -22.7132  -31.3122   21.4127 H   0  0  0  0  0  0
  -23.3761  -35.9610   23.3268 H   0  0  0  0  0  0
  -24.3593  -36.8940   22.2053 H   0  0  0  0  0  0
  -23.7226  -37.6479   23.6670 H   0  0  0  0  0  0
  -26.1071  -31.5572   20.6207 H   0  0  0  0  0  0
  -26.8424  -30.8277   22.0170 H   0  0  0  0  0  0
  -28.1087  -28.9596   21.2034 H   0  0  0  0  0  0
  -25.9097  -25.9741   18.9503 H   0  0  0  0  0  0
  -23.9538  -27.3501   18.9911 H   0  0  0  0  0  0
  -23.7561  -30.6188   19.4107 H   0  0  0  0  0  0
  -22.7519  -29.2717   19.8548 H   0  0  0  0  0  0
  -25.1281  -36.1929   25.0817 H   0  0  0  0  0  0
  -20.9990  -28.3270   24.1395 H   0  0  0  0  0  0
  -20.5685  -26.2302   23.3609 H   0  0  0  0  0  0
  -21.6648  -26.7446   22.1198 H   0  0  0  0  0  0
  -19.6913  -25.6296   21.1243 H   0  0  0  0  0  0
  -19.6690  -27.3192   20.6737 H   0  0  0  0  0  0
  -17.4204  -26.6683   21.4024 H   0  0  0  0  0  0
  -18.0329  -26.0079   22.9025 H   0  0  0  0  0  0
  -19.7942  -30.7287   24.2245 H   0  0  0  0  0  0
  -17.5017  -31.6264   24.5174 H   0  0  0  0  0  0
  -15.5354  -30.2980   23.7664 H   0  0  0  0  0  0
  -15.8680  -28.0827   22.7052 H   0  0  0  0  0  0
  -24.5894  -30.7112   25.7820 H   0  0  0  0  0  0
  -24.8929  -32.2937   26.4887 H   0  0  0  0  0  0
  -25.8046  -30.8952   27.0268 H   0  0  0  0  0  0
  -26.2920  -29.6765   24.1236 H   0  0  0  0  0  0
  -27.3976  -29.7260   25.4767 H   0  0  0  0  0  0
  -27.8821  -30.4263   23.9508 H   0  0  0  0  0  0
  -27.2668  -33.3623   26.2108 H   0  0  0  0  0  0
  -28.3859  -32.6914   25.0337 H   0  0  0  0  0  0
  -28.0748  -31.8457   26.5421 H   0  0  0  0  0  0
  -28.2554  -38.0134   24.7575 H   0  0  0  0  0  0
  -28.1142  -36.2671   24.6161 H   0  0  0  0  0  0
  -27.2331  -37.1303   25.8853 H   0  0  0  0  0  0
  -20.9376  -29.8784   21.6894 H   0  0  0  0  0  0
  -26.0160  -38.2846   24.1477 H   0  0  0  0  0  0
  -28.0038  -17.7550   19.6843 H   0  0  0  0  0  0
  -29.0184  -18.4001   18.4263 H   0  0  0  0  0  0
  -30.1727  -18.7573   22.5222 H   0  0  0  0  0  0
  -28.6785  -17.9736   22.0969 H   0  0  0  0  0  0
  -30.7856  -16.7697   18.8879 H   0  0  0  0  0  0
  -29.2810  -15.9422   18.6142 H   0  0  0  0  0  0
  -30.3839  -16.2706   22.6166 H   0  0  0  0  0  0
  -31.5098  -16.9773   21.4941 H   0  0  0  0  0  0
  -30.6856  -19.1715   20.1137 H   0  0  0  0  0  0
  -32.7346  -24.3992   20.7852 H   0  0  0  0  0  0
  -33.0677  -22.9413   19.8499 H   0  0  0  0  0  0
  -32.9175  -22.8512   21.6080 H   0  0  0  0  0  0
  -27.0748  -24.7561   20.5676 H   0  0  0  0  0  0
  -27.7043  -24.8424   18.9309 H   0  0  0  0  0  0
  -27.9082  -20.1867   20.3969 H   0  0  0  0  0  0
  1 25  1  0  0  0
  1 30  2  0  0  0
  1 84  1  0  0  0
  2  3  1  0  0  0
  2 25  1  0  0  0
  2 86  1  0  0  0
  2 87  1  0  0  0
  3  4  1  0  0  0
  3 88  1  0  0  0
  3 89  1  0  0  0
  4  5  1  0  0  0
  4 90  1  0  0  0
  4 91  1  0  0  0
  5  6  1  0  0  0
  5 26  1  0  0  0
  5 92  1  0  0  0
  6 25  1  0  0  0
  6 93  1  0  0  0
  6 94  1  0  0  0
  7  8  2  0  0  0
  7 26  1  0  0  0
  7 29  1  0  0  0
  8  9  1  0  0  0
  8 22  1  0  0  0
  9 10  1  0  0  0
  9 27  2  0  0  0
 10 11  2  0  0  0
 10 15  1  0  0  0
 11 12  1  0  0  0
 11 95  1  0  0  0
 12 13  2  0  0  0
 12 96  1  0  0  0
 13 14  1  0  0  0
 13 31  1  0  0  0
 14 15  2  0  0  0
 14 97  1  0  0  0
 15 98  1  0  0  0
 16 17  2  0  0  0
 16 21  1  0  0  0
 16 31  1  0  0  0
 17 18  1  0  0  0
 17 99  1  0  0  0
 18 19  2  0  0  0
 18100  1  0  0  0
 19 20  1  0  0  0
 19 24  1  0  0  0
 20 21  2  0  0  0
 20101  1  0  0  0
 21 23  1  0  0  0
 22 28  1  0  0  0
 22 32  2  0  0  0
 26 27  1  0  0  0
 28102  1  0  0  0
 28103  1  0  0  0
 29104  1  0  0  0
 29105  1  0  0  0
 33 34  1  0  0  0
 33 66  1  0  0  0
 33 70  2  0  0  0
 34 36  1  0  0  0
 34 59  1  0  0  0
 34106  1  0  0  0
 35 44  2  0  0  0
 35 45  1  0  0  0
 35 68  1  0  0  0
 36 56  1  0  0  0
 36107  1  0  0  0
 37 39  1  0  0  0
 37 47  1  0  0  0
 37 66  1  0  0  0
 37108  1  0  0  0
 38 43  2  0  0  0
 38 46  1  0  0  0
 38 47  1  0  0  0
 39 64  1  0  0  0
 39 67  2  0  0  0
 40 52  1  0  0  0
 40 53  2  0  0  0
 40 58  1  0  0  0
 41109  1  0  0  0
 41110  1  0  0  0
 41111  1  0  0  0
 41 48  1  0  0  0
 42 43  1  0  0  0
 42 66  1  0  0  0
 42112  1  0  0  0
 42113  1  0  0  0
 43 44  1  0  0  0
 44114  1  0  0  0
 45 46  2  0  0  0
 45115  1  0  0  0
 46116  1  0  0  0
 47117  1  0  0  0
 47118  1  0  0  0
 48 56  1  0  0  0
 48 65  1  0  0  0
 48119  1  0  0  0
 49 50  1  0  0  0
 49 53  1  0  0  0
 49 64  1  0  0  0
 49120  1  0  0  0
 50 51  1  0  0  0
 50121  1  0  0  0
 50122  1  0  0  0
 51 52  1  0  0  0
 51123  1  0  0  0
 51124  1  0  0  0
 52125  1  0  0  0
 52126  1  0  0  0
 53 54  1  0  0  0
 54 55  2  0  0  0
 54127  1  0  0  0
 55 57  1  0  0  0
 55128  1  0  0  0
 56 69  2  0  0  0
 57 58  2  0  0  0
 57129  1  0  0  0
 58130  1  0  0  0
 59 60  1  0  0  0
 59 61  1  0  0  0
 59 62  1  0  0  0
 60131  1  0  0  0
 60132  1  0  0  0
 60133  1  0  0  0
 61134  1  0  0  0
 61135  1  0  0  0
 61136  1  0  0  0
 62137  1  0  0  0
 62138  1  0  0  0
 62139  1  0  0  0
 63 65  1  0  0  0
 63140  1  0  0  0
 63141  1  0  0  0
 63142  1  0  0  0
 64143  1  0  0  0
 65144  1  0  0  0
 68 80  1  0  0  0
 71 79  1  0  0  0
 71 81  2  0  0  0
 71 82  1  0  0  0
 72 80  1  0  0  0
 72 81  1  0  0  0
 72 83  2  0  0  0
 73 82  2  0  0  0
 73 83  1  0  0  0
 73 85  1  0  0  0
 74 76  1  0  0  0
 74 78  1  0  0  0
 74145  1  0  0  0
 74146  1  0  0  0
 75 77  1  0  0  0
 75 78  1  0  0  0
 75147  1  0  0  0
 75148  1  0  0  0
 76 84  1  0  0  0
 76149  1  0  0  0
 76150  1  0  0  0
 77 84  1  0  0  0
 77151  1  0  0  0
 77152  1  0  0  0
 78 85  1  0  0  0
 78153  1  0  0  0
 79154  1  0  0  0
 79155  1  0  0  0
 79156  1  0  0  0
 80157  1  0  0  0
 80158  1  0  0  0
 85159  1  0  0  0
M  ISO  4   1 100  68 101  80 101  84 100
M  END
> <chiral flag>
0

> <version>
0

> <s_m_source_file>
/data/baiqing/PycharmProjects/Reinvent-master-3.2/result/LINK_invent/BTK/process_docking_weight1_custom_sum_contain_oxygen_bond_distance_aromatic_linkinvent_7_9_3/rearranged_h_0189.sdf

> <i_m_source_file_index>
16

> <r_mmod_Potential_Energy-OPLS-2005>
-467.391723632812

> <r_mmod_Stretch_Energy-OPLS-2005>
75.6690063476562

> <r_mmod_Bend_Energy-OPLS-2005>
158.303955078125

> <r_mmod_Torsional_Energy-OPLS-2005>
312.409759521484

> <r_mmod_Improper_Torsional_Energy-OPLS-2005>
12.0642433166504

> <r_mmod_Van_der_Waal_Energy-OPLS-2005>
172.486831665039

> <r_mmod_Electrostatic_Energy-OPLS-2005>
-1026.41003417969

> <r_mmod_Solvation_Energy-OPLS-2005>
-229.942138671875

> <b_mmod_Minimization_Converged-OPLS-2005>
0

> <r_mmod_RMS_Derivative-OPLS-2005>
0.697551548480988

$$$$
16
                    3D
 Structure written by MMmdl.
157166  0  0  1  0            999 V2000
  -30.6270  -14.8429   20.4451 C   0  0  0  0  0  0
  -30.4339  -12.5309   19.4648 C   0  0  0  0  0  0
  -29.5013  -12.4988   18.2346 C   0  0  0  0  0  0
  -28.0407  -12.2732   18.6690 C   0  0  0  0  0  0
  -27.6260  -13.2025   19.8353 C   0  0  2  0  0  0
  -28.6857  -13.2208   20.9644 C   0  0  0  0  0  0
  -25.2437  -13.8079   20.5657 C   0  0  0  0  0  0
  -24.1747  -13.0360   20.9237 C   0  0  0  0  0  0
  -24.6334  -11.6845   20.8799 C   0  0  0  0  0  0
  -23.9016  -10.4247   21.0440 C   0  0  0  0  0  0
  -24.3584   -9.4171   21.9207 C   0  0  0  0  0  0
  -23.6261   -8.2211   22.0761 C   0  0  0  0  0  0
  -22.4247   -8.0256   21.3545 C   0  0  0  0  0  0
  -21.9881   -9.0229   20.4649 C   0  0  0  0  0  0
  -22.7203  -10.2105   20.3070 C   0  0  0  0  0  0
  -21.6835   -6.0726   22.5282 C   0  0  0  0  0  0
  -21.4007   -6.5638   23.8216 C   0  0  0  0  0  0
  -21.3650   -5.6791   24.9175 C   0  0  0  0  0  0
  -21.6042   -4.3056   24.7227 C   0  0  0  0  0  0
  -21.8821   -3.8145   23.4349 C   0  0  0  0  0  0
  -21.9190   -4.6958   22.3404 C   0  0  0  0  0  0
  -22.7784  -13.5179   21.1874 C   0  0  0  0  0  0
  -22.1661   -4.2151   21.0978 F   0  0  0  0  0  0
  -21.5617   -3.4537   25.7738 F   0  0  0  0  0  0
  -29.9618  -13.6246   20.3550 N   0  0  0  0  0  0
  -26.2854  -12.9238   20.3276 N   0  0  0  0  0  0
  -25.9256  -11.6422   20.5823 N   0  0  0  0  0  0
  -22.0422  -12.8199   22.0439 N   0  0  0  0  0  0
  -25.3982  -15.1796   20.3943 N   0  0  0  0  0  0
  -31.8429  -14.8464   20.2288 O   0  0  0  0  0  0
  -21.6612   -6.8860   21.4241 O   0  0  0  0  0  0
  -22.3490  -14.5491   20.6707 O   0  0  0  0  0  0
  -24.6331  -31.8525   23.1963 C   0  0  0  0  0  0
  -25.9147  -32.4738   23.8318 C   0  0  1  0  0  0
  -27.2284  -27.2448   20.1468 C   0  0  0  0  0  0
  -25.5930  -33.8540   24.2240 N   0  0  0  0  0  0
  -23.4322  -30.4725   21.5398 C   0  0  2  0  0  0
  -24.8826  -28.9113   20.1167 C   0  0  0  0  0  0
  -22.7512  -29.4593   22.4916 C   0  0  0  0  0  0
  -18.0289  -28.1395   22.8478 C   0  0  0  0  0  0
  -24.1484  -36.7273   23.2643 C   0  0  0  0  0  0
  -25.9789  -30.7620   21.3774 C   0  0  0  0  0  0
  -26.0550  -29.3808   20.7241 C   0  0  0  0  0  0
  -27.2327  -28.5625   20.7223 C   0  0  0  0  0  0
  -26.0346  -26.8452   19.5085 C   0  0  0  0  0  0
  -24.8782  -27.6510   19.4976 C   0  0  0  0  0  0
  -23.6527  -29.7997   20.1592 C   0  0  0  0  0  0
  -25.4114  -36.3059   24.0323 C   0  0  1  0  0  0
  -20.5892  -28.3712   23.1258 C   0  0  2  0  0  0
  -20.6774  -26.9425   22.5404 C   0  0  0  0  0  0
  -19.5750  -26.6389   21.5207 C   0  0  0  0  0  0
  -18.1933  -26.7934   22.1623 C   0  0  0  0  0  0
  -19.1543  -28.8870   23.2862 C   0  0  0  0  0  0
  -18.9466  -30.1469   23.8884 C   0  0  0  0  0  0
  -17.6463  -30.6594   24.0563 C   0  0  0  0  0  0
  -25.9058  -34.9430   23.5089 C   0  0  0  0  0  0
  -16.5355  -29.9088   23.6334 C   0  0  0  0  0  0
  -16.7275  -28.6506   23.0356 C   0  0  0  0  0  0
  -26.4507  -31.6578   25.0723 C   0  0  0  0  0  0
  -25.3723  -31.3738   26.1442 C   0  0  0  0  0  0
  -27.0364  -30.2990   24.6236 C   0  0  0  0  0  0
  -27.6054  -32.4329   25.7502 C   0  0  0  0  0  0
  -27.5571  -37.1794   24.8472 C   0  0  0  0  0  0
  -21.4217  -29.3048   22.3645 N   0  0  0  0  0  0
  -26.4287  -37.3760   23.9408 N   0  0  0  0  0  0
  -24.7006  -31.0473   22.0945 N   0  0  0  0  0  0
  -23.4189  -28.8141   23.3038 O   0  0  0  0  0  0
  -28.3188  -26.3398   20.1566 O   0  0  0  0  0  0
  -26.5638  -34.8912   22.4664 O   0  0  0  0  0  0
  -23.5473  -32.1358   23.7240 O   0  0  0  0  0  0
  -29.2412  -23.6782   18.7243 C   0  0  0  0  0  0
  -29.7413  -22.4949   18.1564 C   0  0  0  0  0  0
  -28.7958  -23.6413   20.0516 C   0  0  0  0  0  0
  -29.3914  -21.3055   20.0941 C   0  0  0  0  0  0
  -28.2628  -17.8878   20.4232 C   0  0  0  0  0  0
  -28.5566  -16.3746   20.2661 C   0  0  0  0  0  0
  -30.5590  -17.4780   20.7558 C   0  0  0  0  0  0
  -29.5769  -18.6256   20.1998 C   0  0  2  0  0  0
  -30.2386  -22.4709   16.7264 C   0  0  0  0  0  0
  -28.1002  -24.9383   20.6913 C   0  0  0  0  0  0
  -29.7991  -21.3271   18.8349 N   0  0  0  0  0  0
  -28.8996  -22.4169   20.7243 N   0  0  0  0  0  0
  -29.9564  -16.0821   20.6008 N   0  0  0  0  0  0
  -29.5498  -20.0443   20.7711 N   0  0  0  0  0  0
  -31.4654  -12.6760   19.1397 H   0  0  0  0  0  0
  -30.4199  -11.5735   19.9878 H   0  0  0  0  0  0
  -29.8113  -11.7127   17.5448 H   0  0  0  0  0  0
  -29.5826  -13.4378   17.6849 H   0  0  0  0  0  0
  -27.9440  -11.2319   18.9784 H   0  0  0  0  0  0
  -27.3669  -12.4038   17.8210 H   0  0  0  0  0  0
  -27.5694  -14.1766   19.3693 H   0  0  0  0  0  0
  -28.7730  -12.2352   21.4240 H   0  0  0  0  0  0
  -28.4071  -13.8961   21.7729 H   0  0  0  0  0  0
  -25.2724   -9.5652   22.4786 H   0  0  0  0  0  0
  -23.9969   -7.4600   22.7477 H   0  0  0  0  0  0
  -21.0814   -8.8748   19.8950 H   0  0  0  0  0  0
  -22.3665  -10.9652   19.6188 H   0  0  0  0  0  0
  -21.2003   -7.6148   23.9718 H   0  0  0  0  0  0
  -21.1461   -6.0519   25.9076 H   0  0  0  0  0  0
  -22.0605   -2.7608   23.2846 H   0  0  0  0  0  0
  -22.4028  -11.9871   22.4857 H   0  0  0  0  0  0
  -21.1047  -13.1259   22.2631 H   0  0  0  0  0  0
  -24.6224  -15.8224   20.5071 H   0  0  0  0  0  0
  -26.2371  -15.6284   20.0522 H   0  0  0  0  0  0
  -26.7218  -32.5391   23.1065 H   0  0  0  0  0  0
  -25.0060  -33.9674   25.0372 H   0  0  0  0  0  0
  -22.7305  -31.2954   21.3889 H   0  0  0  0  0  0
  -23.3741  -35.9612   23.3316 H   0  0  0  0  0  0
  -24.3569  -36.8888   22.2056 H   0  0  0  0  0  0
  -23.7244  -37.6477   23.6664 H   0  0  0  0  0  0
  -26.1165  -31.5186   20.6037 H   0  0  0  0  0  0
  -26.8557  -30.8156   22.0112 H   0  0  0  0  0  0
  -28.1330  -28.9214   21.2019 H   0  0  0  0  0  0
  -25.9859  -25.8812   19.0225 H   0  0  0  0  0  0
  -23.9815  -27.2856   19.0163 H   0  0  0  0  0  0
  -23.7782  -30.5723   19.3997 H   0  0  0  0  0  0
  -22.7719  -29.2309   19.8555 H   0  0  0  0  0  0
  -25.1296  -36.1904   25.0813 H   0  0  0  0  0  0
  -20.9979  -28.3293   24.1381 H   0  0  0  0  0  0
  -20.5662  -26.2325   23.3615 H   0  0  0  0  0  0
  -21.6644  -26.7441   22.1208 H   0  0  0  0  0  0
  -19.6912  -25.6295   21.1246 H   0  0  0  0  0  0
  -19.6684  -27.3191   20.6729 H   0  0  0  0  0  0
  -17.4197  -26.6673   21.4034 H   0  0  0  0  0  0
  -18.0345  -26.0083   22.9027 H   0  0  0  0  0  0
  -19.7944  -30.7287   24.2247 H   0  0  0  0  0  0
  -17.5021  -31.6273   24.5170 H   0  0  0  0  0  0
  -15.5354  -30.2988   23.7675 H   0  0  0  0  0  0
  -15.8676  -28.0824   22.7081 H   0  0  0  0  0  0
  -24.5899  -30.7088   25.7770 H   0  0  0  0  0  0
  -24.8915  -32.2911   26.4848 H   0  0  0  0  0  0
  -25.8030  -30.8927   27.0233 H   0  0  0  0  0  0
  -26.2964  -29.6729   24.1239 H   0  0  0  0  0  0
  -27.4009  -29.7265   25.4776 H   0  0  0  0  0  0
  -27.8850  -30.4252   23.9512 H   0  0  0  0  0  0
  -27.2652  -33.3634   26.2063 H   0  0  0  0  0  0
  -28.3873  -32.6886   25.0338 H   0  0  0  0  0  0
  -28.0717  -31.8470   26.5435 H   0  0  0  0  0  0
  -28.2604  -38.0077   24.7491 H   0  0  0  0  0  0
  -28.1049  -36.2603   24.6329 H   0  0  0  0  0  0
  -27.2286  -37.1485   25.8877 H   0  0  0  0  0  0
  -20.9416  -29.8751   21.6824 H   0  0  0  0  0  0
  -26.0160  -38.2833   24.1401 H   0  0  0  0  0  0
  -29.1782  -24.5966   18.1537 H   0  0  0  0  0  0
  -27.9072  -18.0702   21.4386 H   0  0  0  0  0  0
  -27.4767  -18.2268   19.7466 H   0  0  0  0  0  0
  -27.8793  -15.8227   20.9096 H   0  0  0  0  0  0
  -28.3931  -16.1037   19.2234 H   0  0  0  0  0  0
  -30.7362  -17.6313   21.8212 H   0  0  0  0  0  0
  -31.5331  -17.5353   20.2682 H   0  0  0  0  0  0
  -29.7395  -18.7007   19.1236 H   0  0  0  0  0  0
  -31.0412  -21.7443   16.6021 H   0  0  0  0  0  0
  -30.6250  -23.4468   16.4328 H   0  0  0  0  0  0
  -29.4289  -22.2079   16.0466 H   0  0  0  0  0  0
  -28.4113  -24.9720   21.7353 H   0  0  0  0  0  0
  -27.0336  -24.7178   20.7340 H   0  0  0  0  0  0
  -29.3031  -20.0929   21.7521 H   0  0  0  0  0  0
  1 25  1  0  0  0
  1 30  2  0  0  0
  1 83  1  0  0  0
  2  3  1  0  0  0
  2 25  1  0  0  0
  2 85  1  0  0  0
  2 86  1  0  0  0
  3  4  1  0  0  0
  3 87  1  0  0  0
  3 88  1  0  0  0
  4  5  1  0  0  0
  4 89  1  0  0  0
  4 90  1  0  0  0
  5  6  1  0  0  0
  5 26  1  0  0  0
  5 91  1  0  0  0
  6 25  1  0  0  0
  6 92  1  0  0  0
  6 93  1  0  0  0
  7  8  2  0  0  0
  7 26  1  0  0  0
  7 29  1  0  0  0
  8  9  1  0  0  0
  8 22  1  0  0  0
  9 10  1  0  0  0
  9 27  2  0  0  0
 10 11  2  0  0  0
 10 15  1  0  0  0
 11 12  1  0  0  0
 11 94  1  0  0  0
 12 13  2  0  0  0
 12 95  1  0  0  0
 13 14  1  0  0  0
 13 31  1  0  0  0
 14 15  2  0  0  0
 14 96  1  0  0  0
 15 97  1  0  0  0
 16 17  2  0  0  0
 16 21  1  0  0  0
 16 31  1  0  0  0
 17 18  1  0  0  0
 17 98  1  0  0  0
 18 19  2  0  0  0
 18 99  1  0  0  0
 19 20  1  0  0  0
 19 24  1  0  0  0
 20 21  2  0  0  0
 20100  1  0  0  0
 21 23  1  0  0  0
 22 28  1  0  0  0
 22 32  2  0  0  0
 26 27  1  0  0  0
 28101  1  0  0  0
 28102  1  0  0  0
 29103  1  0  0  0
 29104  1  0  0  0
 33 34  1  0  0  0
 33 66  1  0  0  0
 33 70  2  0  0  0
 34 36  1  0  0  0
 34 59  1  0  0  0
 34105  1  0  0  0
 35 44  2  0  0  0
 35 45  1  0  0  0
 35 68  1  0  0  0
 36 56  1  0  0  0
 36106  1  0  0  0
 37 39  1  0  0  0
 37 47  1  0  0  0
 37 66  1  0  0  0
 37107  1  0  0  0
 38 43  2  0  0  0
 38 46  1  0  0  0
 38 47  1  0  0  0
 39 64  1  0  0  0
 39 67  2  0  0  0
 40 52  1  0  0  0
 40 53  2  0  0  0
 40 58  1  0  0  0
 41108  1  0  0  0
 41109  1  0  0  0
 41110  1  0  0  0
 41 48  1  0  0  0
 42 43  1  0  0  0
 42 66  1  0  0  0
 42111  1  0  0  0
 42112  1  0  0  0
 43 44  1  0  0  0
 44113  1  0  0  0
 45 46  2  0  0  0
 45114  1  0  0  0
 46115  1  0  0  0
 47116  1  0  0  0
 47117  1  0  0  0
 48 56  1  0  0  0
 48 65  1  0  0  0
 48118  1  0  0  0
 49 50  1  0  0  0
 49 53  1  0  0  0
 49 64  1  0  0  0
 49119  1  0  0  0
 50 51  1  0  0  0
 50120  1  0  0  0
 50121  1  0  0  0
 51 52  1  0  0  0
 51122  1  0  0  0
 51123  1  0  0  0
 52124  1  0  0  0
 52125  1  0  0  0
 53 54  1  0  0  0
 54 55  2  0  0  0
 54126  1  0  0  0
 55 57  1  0  0  0
 55127  1  0  0  0
 56 69  2  0  0  0
 57 58  2  0  0  0
 57128  1  0  0  0
 58129  1  0  0  0
 59 60  1  0  0  0
 59 61  1  0  0  0
 59 62  1  0  0  0
 60130  1  0  0  0
 60131  1  0  0  0
 60132  1  0  0  0
 61133  1  0  0  0
 61134  1  0  0  0
 61135  1  0  0  0
 62136  1  0  0  0
 62137  1  0  0  0
 62138  1  0  0  0
 63 65  1  0  0  0
 63139  1  0  0  0
 63140  1  0  0  0
 63141  1  0  0  0
 64142  1  0  0  0
 65143  1  0  0  0
 68 80  1  0  0  0
 71 72  2  0  0  0
 71 73  1  0  0  0
 71144  1  0  0  0
 72 79  1  0  0  0
 72 81  1  0  0  0
 73 80  1  0  0  0
 73 82  2  0  0  0
 74 81  2  0  0  0
 74 82  1  0  0  0
 74 84  1  0  0  0
 75 76  1  0  0  0
 75 78  1  0  0  0
 75145  1  0  0  0
 75146  1  0  0  0
 76 83  1  0  0  0
 76147  1  0  0  0
 76148  1  0  0  0
 77 78  1  0  0  0
 77 83  1  0  0  0
 77149  1  0  0  0
 77150  1  0  0  0
 78 84  1  0  0  0
 78151  1  0  0  0
 79152  1  0  0  0
 79153  1  0  0  0
 79154  1  0  0  0
 80155  1  0  0  0
 80156  1  0  0  0
 84157  1  0  0  0
M  ISO  4   1 100  68 101  80 101  83 100
M  END
> <chiral flag>
0

> <version>
0

> <s_m_source_file>
/data/baiqing/PycharmProjects/Reinvent-master-3.2/result/LINK_invent/BTK/process_docking_weight1_custom_sum_contain_oxygen_bond_distance_aromatic_linkinvent_7_9_3/rearranged_h_0189.sdf

> <i_m_source_file_index>
17

> <r_mmod_Potential_Energy-OPLS-2005>
-129.391952514648

> <r_mmod_Stretch_Energy-OPLS-2005>
135.448822021484

> <r_mmod_Bend_Energy-OPLS-2005>
215.566604614258

> <r_mmod_Torsional_Energy-OPLS-2005>
327.542816162109

> <r_mmod_Improper_Torsional_Energy-OPLS-2005>
5.68355751037598

> <r_mmod_Van_der_Waal_Energy-OPLS-2005>
143.240615844727

> <r_mmod_Electrostatic_Energy-OPLS-2005>
-830.935607910156

> <r_mmod_Solvation_Energy-OPLS-2005>
-243.473846435547

> <b_mmod_Minimization_Converged-OPLS-2005>
0

> <r_mmod_RMS_Derivative-OPLS-2005>
0.971842646598816

$$$$
17
                    3D
 Structure written by MMmdl.
177188  0  0  1  0            999 V2000
  -30.7673  -14.4421   20.2237 C   0  0  0  0  0  0
  -30.3941  -12.1976   19.4146 C   0  0  0  0  0  0
  -29.4565  -12.2994   18.1904 C   0  0  0  0  0  0
  -27.9875  -12.2557   18.6406 C   0  0  0  0  0  0
  -27.6546  -13.2003   19.8291 C   0  0  2  0  0  0
  -28.7305  -13.1337   20.9403 C   0  0  0  0  0  0
  -25.2628  -13.8176   20.5726 C   0  0  0  0  0  0
  -24.1866  -13.0463   20.9214 C   0  0  0  0  0  0
  -24.6402  -11.6928   20.8796 C   0  0  0  0  0  0
  -23.9071  -10.4300   21.0425 C   0  0  0  0  0  0
  -24.3631   -9.4209   21.9181 C   0  0  0  0  0  0
  -23.6316   -8.2240   22.0742 C   0  0  0  0  0  0
  -22.4295   -8.0274   21.3542 C   0  0  0  0  0  0
  -21.9931   -9.0255   20.4652 C   0  0  0  0  0  0
  -22.7251  -10.2144   20.3069 C   0  0  0  0  0  0
  -21.6875   -6.0719   22.5272 C   0  0  0  0  0  0
  -21.4015   -6.5624   23.8200 C   0  0  0  0  0  0
  -21.3656   -5.6777   24.9165 C   0  0  0  0  0  0
  -21.6044   -4.3038   24.7215 C   0  0  0  0  0  0
  -21.8823   -3.8131   23.4336 C   0  0  0  0  0  0
  -21.9204   -4.6947   22.3391 C   0  0  0  0  0  0
  -22.7878  -13.5256   21.1831 C   0  0  0  0  0  0
  -22.1663   -4.2127   21.0970 F   0  0  0  0  0  0
  -21.5646   -3.4519   25.7726 F   0  0  0  0  0  0
  -30.0501  -13.2983   20.3133 N   0  0  0  0  0  0
  -26.3060  -12.9349   20.3362 N   0  0  0  0  0  0
  -25.9333  -11.6524   20.5874 N   0  0  0  0  0  0
  -22.0495  -12.8276   22.0391 N   0  0  0  0  0  0
  -25.4362  -15.1884   20.4149 N   0  0  0  0  0  0
  -31.9302  -14.5427   20.5970 O   0  0  0  0  0  0
  -21.6661   -6.8867   21.4236 O   0  0  0  0  0  0
  -22.3575  -14.5536   20.6624 O   0  0  0  0  0  0
  -24.6099  -31.8724   23.2181 C   0  0  0  0  0  0
  -25.9009  -32.4841   23.8453 C   0  0  1  0  0  0
  -27.2310  -27.4737   20.0867 C   0  0  0  0  0  0
  -25.5880  -33.8646   24.2374 N   0  0  0  0  0  0
  -23.3947  -30.4998   21.5570 C   0  0  2  0  0  0
  -24.8359  -28.9747   20.1164 C   0  0  0  0  0  0
  -22.7375  -29.4683   22.5021 C   0  0  0  0  0  0
  -18.0266  -28.1381   22.8486 C   0  0  0  0  0  0
  -24.1473  -36.7339   23.2647 C   0  0  0  0  0  0
  -25.9208  -30.8438   21.3703 C   0  0  0  0  0  0
  -25.9915  -29.4818   20.7196 C   0  0  0  0  0  0
  -27.1847  -28.7326   20.7153 C   0  0  0  0  0  0
  -26.0529  -26.9773   19.4734 C   0  0  0  0  0  0
  -24.8583  -27.7170   19.4943 C   0  0  0  0  0  0
  -23.5987  -29.8372   20.1691 C   0  0  0  0  0  0
  -25.4090  -36.3138   24.0354 C   0  0  1  0  0  0
  -20.5855  -28.3655   23.1345 C   0  0  2  0  0  0
  -20.6735  -26.9407   22.5420 C   0  0  0  0  0  0
  -19.5732  -26.6409   21.5199 C   0  0  0  0  0  0
  -18.1911  -26.7949   22.1594 C   0  0  0  0  0  0
  -19.1514  -28.8838   23.2915 C   0  0  0  0  0  0
  -18.9445  -30.1430   23.8936 C   0  0  0  0  0  0
  -17.6445  -30.6585   24.0558 C   0  0  0  0  0  0
  -25.9008  -34.9491   23.5163 C   0  0  0  0  0  0
  -16.5340  -29.9074   23.6322 C   0  0  0  0  0  0
  -16.7252  -28.6490   23.0362 C   0  0  0  0  0  0
  -26.4500  -31.6631   25.0771 C   0  0  0  0  0  0
  -25.3792  -31.3682   26.1537 C   0  0  0  0  0  0
  -27.0362  -30.3095   24.6139 C   0  0  0  0  0  0
  -27.6083  -32.4376   25.7485 C   0  0  0  0  0  0
  -27.5587  -37.1823   24.8456 C   0  0  0  0  0  0
  -21.4120  -29.3026   22.3756 N   0  0  0  0  0  0
  -26.4288  -37.3808   23.9407 N   0  0  0  0  0  0
  -24.6594  -31.0867   22.1060 N   0  0  0  0  0  0
  -23.4161  -28.8225   23.3053 O   0  0  0  0  0  0
  -28.4332  -26.7967   20.1176 O   0  0  0  0  0  0
  -26.5583  -34.8943   22.4726 O   0  0  0  0  0  0
  -23.5303  -32.1469   23.7602 O   0  0  0  0  0  0
  -29.8790  -24.6595   17.5135 C   0  0  0  0  0  0
  -29.7196  -25.7955   18.3313 C   0  0  0  0  0  0
  -29.0051  -23.5723   17.7049 C   0  0  0  0  0  0
  -28.6848  -25.7373   19.2894 C   0  0  0  0  0  0
  -32.3340  -16.2298   18.0307 C   0  0  0  0  0  0
  -32.0964  -26.8537   18.0433 C   0  0  0  0  0  0
  -31.5006  -27.4925   19.2743 C   0  0  0  0  0  0
  -31.4534  -17.3136   18.6248 C   0  0  0  0  0  0
  -31.4064  -15.0249   17.9772 C   0  0  0  0  0  0
  -29.0488  -20.6524   18.5782 C   0  0  0  0  0  0
  -28.7155  -20.0813   16.2427 C   0  0  0  0  0  0
  -28.4737  -19.2841   18.9864 C   0  0  0  0  0  0
  -28.1862  -18.6922   16.6560 C   0  0  0  0  0  0
  -30.5967  -27.0010   18.1660 C   0  0  0  0  0  0
  -30.1675  -16.5983   19.1378 C   0  0  1  0  0  0
  -29.1258  -22.3362   16.8199 C   0  0  0  0  0  0
  -28.9041  -16.8984   18.2798 C   0  0  0  0  0  0
  -28.0413  -23.5827   18.6602 N   0  0  0  0  0  0
  -27.9230  -24.6288   19.4754 N   0  0  0  0  0  0
  -30.4566  -15.1559   19.1072 N   0  0  0  0  0  0
  -28.4804  -21.0939   17.2878 N   0  0  0  0  0  0
  -28.8460  -18.3327   17.9266 N   0  3  0  0  0  0
  -31.4441  -12.2213   19.1141 H   0  0  0  0  0  0
  -30.2491  -11.2461   19.9287 H   0  0  0  0  0  0
  -29.6542  -11.4641   17.5155 H   0  0  0  0  0  0
  -29.6179  -13.1911   17.5932 H   0  0  0  0  0  0
  -27.7938  -11.2237   18.9328 H   0  0  0  0  0  0
  -27.3205  -12.4527   17.8006 H   0  0  0  0  0  0
  -27.6579  -14.2123   19.4239 H   0  0  0  0  0  0
  -28.6872  -12.1814   21.4713 H   0  0  0  0  0  0
  -28.5573  -13.9166   21.6810 H   0  0  0  0  0  0
  -25.2764   -9.5695   22.4772 H   0  0  0  0  0  0
  -24.0016   -7.4637   22.7481 H   0  0  0  0  0  0
  -21.0832   -8.8805   19.8981 H   0  0  0  0  0  0
  -22.3690  -10.9703   19.6206 H   0  0  0  0  0  0
  -21.1993   -7.6130   23.9693 H   0  0  0  0  0  0
  -21.1484   -6.0508   25.9075 H   0  0  0  0  0  0
  -22.0608   -2.7593   23.2843 H   0  0  0  0  0  0
  -22.4069  -11.9946   22.4810 H   0  0  0  0  0  0
  -21.1099  -13.1325   22.2482 H   0  0  0  0  0  0
  -24.6767  -15.8447   20.5567 H   0  0  0  0  0  0
  -26.3083  -15.6405   20.1794 H   0  0  0  0  0  0
  -26.7072  -32.5569   23.1208 H   0  0  0  0  0  0
  -24.9992  -33.9804   25.0505 H   0  0  0  0  0  0
  -22.6805  -31.3157   21.4261 H   0  0  0  0  0  0
  -23.3737  -35.9671   23.3288 H   0  0  0  0  0  0
  -24.3567  -36.8965   22.2065 H   0  0  0  0  0  0
  -23.7217  -37.6542   23.6658 H   0  0  0  0  0  0
  -26.0386  -31.6110   20.6052 H   0  0  0  0  0  0
  -26.8090  -30.8900   21.9869 H   0  0  0  0  0  0
  -28.0730  -29.1227   21.1918 H   0  0  0  0  0  0
  -26.0197  -26.0286   18.9635 H   0  0  0  0  0  0
  -23.9709  -27.3207   19.0184 H   0  0  0  0  0  0
  -23.7012  -30.6143   19.4118 H   0  0  0  0  0  0
  -22.7246  -29.2542   19.8738 H   0  0  0  0  0  0
  -25.1274  -36.2021   25.0852 H   0  0  0  0  0  0
  -20.9943  -28.3219   24.1473 H   0  0  0  0  0  0
  -20.5633  -26.2273   23.3600 H   0  0  0  0  0  0
  -21.6607  -26.7453   22.1236 H   0  0  0  0  0  0
  -19.6867  -25.6331   21.1211 H   0  0  0  0  0  0
  -19.6693  -27.3228   20.6747 H   0  0  0  0  0  0
  -17.4193  -26.6737   21.3970 H   0  0  0  0  0  0
  -18.0284  -26.0085   22.8979 H   0  0  0  0  0  0
  -19.7923  -30.7210   24.2356 H   0  0  0  0  0  0
  -17.5009  -31.6270   24.5151 H   0  0  0  0  0  0
  -15.5338  -30.2964   23.7660 H   0  0  0  0  0  0
  -15.8657  -28.0791   22.7090 H   0  0  0  0  0  0
  -24.5925  -30.7088   25.7864 H   0  0  0  0  0  0
  -24.9037  -32.2806   26.5134 H   0  0  0  0  0  0
  -25.8182  -30.8732   27.0208 H   0  0  0  0  0  0
  -26.2891  -29.6779   24.1307 H   0  0  0  0  0  0
  -27.4285  -29.7424   25.4606 H   0  0  0  0  0  0
  -27.8670  -30.4482   23.9203 H   0  0  0  0  0  0
  -27.2709  -33.3651   26.2127 H   0  0  0  0  0  0
  -28.3806  -32.6983   25.0231 H   0  0  0  0  0  0
  -28.0858  -31.8471   26.5321 H   0  0  0  0  0  0
  -28.2613  -38.0120   24.7500 H   0  0  0  0  0  0
  -28.1072  -36.2648   24.6259 H   0  0  0  0  0  0
  -27.2306  -37.1454   25.8863 H   0  0  0  0  0  0
  -20.9279  -29.8747   21.6989 H   0  0  0  0  0  0
  -26.0193  -38.2895   24.1396 H   0  0  0  0  0  0
  -30.6441  -24.6249   16.7520 H   0  0  0  0  0  0
  -33.1839  -16.0277   18.6879 H   0  0  0  0  0  0
  -32.7323  -16.4890   17.0494 H   0  0  0  0  0  0
  -32.5265  -25.8613   18.1617 H   0  0  0  0  0  0
  -32.6163  -27.5102   17.3494 H   0  0  0  0  0  0
  -31.6418  -28.5667   19.3802 H   0  0  0  0  0  0
  -31.5294  -26.9237   20.2021 H   0  0  0  0  0  0
  -31.2913  -18.0781   17.8675 H   0  0  0  0  0  0
  -31.9750  -17.8078   19.4459 H   0  0  0  0  0  0
  -31.9841  -14.0989   17.9829 H   0  0  0  0  0  0
  -30.8536  -15.0313   17.0368 H   0  0  0  0  0  0
  -30.1396  -20.6081   18.5284 H   0  0  0  0  0  0
  -28.8104  -21.3577   19.3745 H   0  0  0  0  0  0
  -28.2384  -20.3916   15.3108 H   0  0  0  0  0  0
  -29.7836  -20.0081   16.0252 H   0  0  0  0  0  0
  -27.3905  -19.3232   19.1126 H   0  0  0  0  0  0
  -28.8970  -18.9877   19.9463 H   0  0  0  0  0  0
  -28.4369  -17.9748   15.8727 H   0  0  0  0  0  0
  -27.1008  -18.6880   16.7620 H   0  0  0  0  0  0
  -30.1104  -27.7532   17.5485 H   0  0  0  0  0  0
  -29.9754  -16.9200   20.1634 H   0  0  0  0  0  0
  -30.1905  -22.1628   16.6449 H   0  0  0  0  0  0
  -28.7015  -22.6112   15.8531 H   0  0  0  0  0  0
  -27.9859  -16.5900   18.7817 H   0  0  0  0  0  0
  -28.9517  -16.3196   17.3566 H   0  0  0  0  0  0
  -29.8133  -18.5462   17.7445 H   0  0  0  0  0  0
  1 25  1  0  0  0
  1 30  2  0  0  0
  1 90  1  0  0  0
  2  3  1  0  0  0
  2 25  1  0  0  0
  2 93  1  0  0  0
  2 94  1  0  0  0
  3  4  1  0  0  0
  3 95  1  0  0  0
  3 96  1  0  0  0
  4  5  1  0  0  0
  4 97  1  0  0  0
  4 98  1  0  0  0
  5  6  1  0  0  0
  5 26  1  0  0  0
  5 99  1  0  0  0
  6 25  1  0  0  0
  6100  1  0  0  0
  6101  1  0  0  0
  7  8  2  0  0  0
  7 26  1  0  0  0
  7 29  1  0  0  0
  8  9  1  0  0  0
  8 22  1  0  0  0
  9 10  1  0  0  0
  9 27  2  0  0  0
 10 11  2  0  0  0
 10 15  1  0  0  0
 11 12  1  0  0  0
 11102  1  0  0  0
 12 13  2  0  0  0
 12103  1  0  0  0
 13 14  1  0  0  0
 13 31  1  0  0  0
 14 15  2  0  0  0
 14104  1  0  0  0
 15105  1  0  0  0
 16 17  2  0  0  0
 16 21  1  0  0  0
 16 31  1  0  0  0
 17 18  1  0  0  0
 17106  1  0  0  0
 18 19  2  0  0  0
 18107  1  0  0  0
 19 20  1  0  0  0
 19 24  1  0  0  0
 20 21  2  0  0  0
 20108  1  0  0  0
 21 23  1  0  0  0
 22 28  1  0  0  0
 22 32  2  0  0  0
 26 27  1  0  0  0
 28109  1  0  0  0
 28110  1  0  0  0
 29111  1  0  0  0
 29112  1  0  0  0
 33 34  1  0  0  0
 33 66  1  0  0  0
 33 70  2  0  0  0
 34 36  1  0  0  0
 34 59  1  0  0  0
 34113  1  0  0  0
 35 44  2  0  0  0
 35 45  1  0  0  0
 35 68  1  0  0  0
 36 56  1  0  0  0
 36114  1  0  0  0
 37 39  1  0  0  0
 37 47  1  0  0  0
 37 66  1  0  0  0
 37115  1  0  0  0
 38 43  2  0  0  0
 38 46  1  0  0  0
 38 47  1  0  0  0
 39 64  1  0  0  0
 39 67  2  0  0  0
 40 52  1  0  0  0
 40 53  2  0  0  0
 40 58  1  0  0  0
 41116  1  0  0  0
 41117  1  0  0  0
 41118  1  0  0  0
 41 48  1  0  0  0
 42 43  1  0  0  0
 42 66  1  0  0  0
 42119  1  0  0  0
 42120  1  0  0  0
 43 44  1  0  0  0
 44121  1  0  0  0
 45 46  2  0  0  0
 45122  1  0  0  0
 46123  1  0  0  0
 47124  1  0  0  0
 47125  1  0  0  0
 48 56  1  0  0  0
 48 65  1  0  0  0
 48126  1  0  0  0
 49 50  1  0  0  0
 49 53  1  0  0  0
 49 64  1  0  0  0
 49127  1  0  0  0
 50 51  1  0  0  0
 50128  1  0  0  0
 50129  1  0  0  0
 51 52  1  0  0  0
 51130  1  0  0  0
 51131  1  0  0  0
 52132  1  0  0  0
 52133  1  0  0  0
 53 54  1  0  0  0
 54 55  2  0  0  0
 54134  1  0  0  0
 55 57  1  0  0  0
 55135  1  0  0  0
 56 69  2  0  0  0
 57 58  2  0  0  0
 57136  1  0  0  0
 58137  1  0  0  0
 59 60  1  0  0  0
 59 61  1  0  0  0
 59 62  1  0  0  0
 60138  1  0  0  0
 60139  1  0  0  0
 60140  1  0  0  0
 61141  1  0  0  0
 61142  1  0  0  0
 61143  1  0  0  0
 62144  1  0  0  0
 62145  1  0  0  0
 62146  1  0  0  0
 63 65  1  0  0  0
 63147  1  0  0  0
 63148  1  0  0  0
 63149  1  0  0  0
 64150  1  0  0  0
 65151  1  0  0  0
 68 74  1  0  0  0
 71 72  2  0  0  0
 71 73  1  0  0  0
 71152  1  0  0  0
 72 74  1  0  0  0
 72 84  1  0  0  0
 73 86  1  0  0  0
 73 88  2  0  0  0
 74 89  2  0  0  0
 75 78  1  0  0  0
 75 79  1  0  0  0
 75153  1  0  0  0
 75154  1  0  0  0
 76 77  1  0  0  0
 76 84  1  0  0  0
 76155  1  0  0  0
 76156  1  0  0  0
 77 84  1  0  0  0
 77157  1  0  0  0
 77158  1  0  0  0
 78 85  1  0  0  0
 78159  1  0  0  0
 78160  1  0  0  0
 79 90  1  0  0  0
 79161  1  0  0  0
 79162  1  0  0  0
 80 82  1  0  0  0
 80 91  1  0  0  0
 80163  1  0  0  0
 80164  1  0  0  0
 81 83  1  0  0  0
 81 91  1  0  0  0
 81165  1  0  0  0
 81166  1  0  0  0
 82 92  1  0  0  0
 82167  1  0  0  0
 82168  1  0  0  0
 83 92  1  0  0  0
 83169  1  0  0  0
 83170  1  0  0  0
 84171  1  0  0  0
 85 87  1  0  0  0
 85 90  1  0  0  0
 85172  1  0  0  0
 86 91  1  0  0  0
 86173  1  0  0  0
 86174  1  0  0  0
 87175  1  0  0  0
 87176  1  0  0  0
 87 92  1  0  0  0
 88 89  1  0  0  0
 92177  1  0  0  0
M  CHG  1  92   1
M  ISO  4   1 100  68 101  74 101  90 100
M  END
> <chiral flag>
0

> <version>
0

> <s_m_source_file>
/data/baiqing/PycharmProjects/Reinvent-master-3.2/result/LINK_invent/BTK/process_docking_weight1_custom_sum_contain_oxygen_bond_distance_aromatic_linkinvent_7_9_3/rearranged_h_0189.sdf

> <i_m_source_file_index>
18

> <r_mmod_Potential_Energy-OPLS-2005>
459.151031494141

> <r_mmod_Stretch_Energy-OPLS-2005>
40.4940338134766

> <r_mmod_Bend_Energy-OPLS-2005>
152.108673095703

> <r_mmod_Torsional_Energy-OPLS-2005>
450.955474853516

> <r_mmod_Improper_Torsional_Energy-OPLS-2005>
31.9691753387451

> <r_mmod_Van_der_Waal_Energy-OPLS-2005>
179.417297363281

> <r_mmod_Electrostatic_Energy-OPLS-2005>
-18.7619171142578

> <r_mmod_Solvation_Energy-OPLS-2005>
-453.752716064453

> <b_mmod_Minimization_Converged-OPLS-2005>
0

> <r_mmod_RMS_Derivative-OPLS-2005>
3.49661707878113

$$$$
18
                    3D
 Structure written by MMmdl.
153161  0  0  1  0            999 V2000
  -30.4582  -15.2384   20.4413 C   0  0  0  0  0  0
  -30.4292  -12.8005   19.5733 C   0  0  0  0  0  0
  -29.5502  -12.6144   18.3131 C   0  0  0  0  0  0
  -28.1012  -12.3027   18.7287 C   0  0  0  0  0  0
  -27.6127  -13.2754   19.8352 C   0  0  2  0  0  0
  -28.6272  -13.4352   20.9881 C   0  0  0  0  0  0
  -25.2376  -13.8239   20.5691 C   0  0  0  0  0  0
  -24.1683  -13.0404   20.9194 C   0  0  0  0  0  0
  -24.6384  -11.6940   20.8724 C   0  0  0  0  0  0
  -23.9085  -10.4292   21.0412 C   0  0  0  0  0  0
  -24.3626   -9.4212   21.9199 C   0  0  0  0  0  0
  -23.6281   -8.2267   22.0813 C   0  0  0  0  0  0
  -22.4259   -8.0318   21.3619 C   0  0  0  0  0  0
  -21.9894   -9.0270   20.4699 C   0  0  0  0  0  0
  -22.7254  -10.2135   20.3055 C   0  0  0  0  0  0
  -21.6865   -6.0761   22.5291 C   0  0  0  0  0  0
  -21.4054   -6.5646   23.8231 C   0  0  0  0  0  0
  -21.3686   -5.6783   24.9189 C   0  0  0  0  0  0
  -21.6013   -4.3046   24.7232 C   0  0  0  0  0  0
  -21.8796   -3.8151   23.4347 C   0  0  0  0  0  0
  -21.9168   -4.6984   22.3405 C   0  0  0  0  0  0
  -22.7711  -13.5194   21.1835 C   0  0  0  0  0  0
  -22.1634   -4.2157   21.0990 F   0  0  0  0  0  0
  -21.5632   -3.4525   25.7762 F   0  0  0  0  0  0
  -29.8778  -13.9410   20.3946 N   0  0  0  0  0  0
  -26.2806  -12.9500   20.3213 N   0  0  0  0  0  0
  -25.9318  -11.6619   20.5656 N   0  0  0  0  0  0
  -22.0321  -12.8238   22.0421 N   0  0  0  0  0  0
  -25.4013  -15.1953   20.4207 N   0  0  0  0  0  0
  -31.6601  -15.2329   20.1358 O   0  0  0  0  0  0
  -21.6638   -6.8899   21.4281 O   0  0  0  0  0  0
  -22.3419  -14.5476   20.6706 O   0  0  0  0  0  0
  -24.6622  -31.8211   23.1702 C   0  0  0  0  0  0
  -25.9313  -32.4565   23.8176 C   0  0  1  0  0  0
  -27.2231  -26.9350   20.1706 C   0  0  0  0  0  0
  -25.5987  -33.8395   24.2105 N   0  0  0  0  0  0
  -23.4809  -30.4355   21.5152 C   0  0  2  0  0  0
  -24.9393  -28.8307   20.0996 C   0  0  0  0  0  0
  -22.7702  -29.4396   22.4706 C   0  0  0  0  0  0
  -18.0338  -28.1374   22.8454 C   0  0  0  0  0  0
  -24.1538  -36.7224   23.2654 C   0  0  0  0  0  0
  -26.0484  -30.6335   21.4015 C   0  0  0  0  0  0
  -26.1186  -29.2249   20.7429 C   0  0  0  0  0  0
  -27.2528  -28.2955   20.7573 C   0  0  0  0  0  0
  -26.0199  -26.6985   19.4715 C   0  0  0  0  0  0
  -24.9190  -27.5942   19.4350 C   0  0  0  0  0  0
  -23.7257  -29.7594   20.1367 C   0  0  0  0  0  0
  -25.4156  -36.2962   24.0311 C   0  0  1  0  0  0
  -20.5979  -28.3721   23.1143 C   0  0  2  0  0  0
  -20.6820  -26.9373   22.5393 C   0  0  0  0  0  0
  -19.5792  -26.6351   21.5190 C   0  0  0  0  0  0
  -18.1973  -26.7918   22.1600 C   0  0  0  0  0  0
  -19.1607  -28.8863   23.2804 C   0  0  0  0  0  0
  -18.9502  -30.1460   23.8826 C   0  0  0  0  0  0
  -17.6478  -30.6545   24.0539 C   0  0  0  0  0  0
  -25.9075  -34.9333   23.5000 C   0  0  0  0  0  0
  -16.5378  -29.9030   23.6320 C   0  0  0  0  0  0
  -16.7317  -28.6468   23.0323 C   0  0  0  0  0  0
  -26.4579  -31.6490   25.0696 C   0  0  0  0  0  0
  -25.3714  -31.3744   26.1374 C   0  0  0  0  0  0
  -27.0499  -30.2849   24.6427 C   0  0  0  0  0  0
  -27.6088  -32.4286   25.7473 C   0  0  0  0  0  0
  -27.5569  -37.1793   24.8453 C   0  0  0  0  0  0
  -21.4348  -29.3023   22.3500 N   0  0  0  0  0  0
  -26.4324  -37.3656   23.9353 N   0  0  0  0  0  0
  -24.7511  -30.9922   22.0819 N   0  0  0  0  0  0
  -23.4294  -28.7899   23.2871 O   0  0  0  0  0  0
  -28.2179  -25.8285   20.2695 O   0  0  0  0  0  0
  -26.5674  -34.8849   22.4575 O   0  0  0  0  0  0
  -23.5676  -32.1162   23.6790 O   0  0  0  0  0  0
  -29.1497  -18.7592   21.8579 C   0  0  0  0  0  0
  -29.7205  -17.2544   21.9471 C   0  0  0  0  0  0
  -29.5818  -17.8681   19.7367 C   0  0  0  0  0  0
  -29.4876  -19.4168   20.4737 C   0  0  1  0  0  0
  -28.8406  -22.6832   20.4210 C   0  0  0  0  0  0
  -28.0239  -24.2241   19.9384 C   0  0  0  0  0  0
  -28.7238  -20.9571   19.8861 C   0  0  1  0  0  0
  -29.7396  -16.5364   20.6262 N   0  0  0  0  0  0
  -28.9568  -20.9450   18.4148 N   0  3  0  0  0  0
  -31.4624  -12.9837   19.2801 H   0  0  0  0  0  0
  -30.4567  -11.8887   20.1740 H   0  0  0  0  0  0
  -29.9597  -11.8305   17.6763 H   0  0  0  0  0  0
  -29.5746  -13.5303   17.7196 H   0  0  0  0  0  0
  -28.0821  -11.2783   19.1111 H   0  0  0  0  0  0
  -27.4367  -12.3211   17.8646 H   0  0  0  0  0  0
  -27.5366  -14.2460   19.3449 H   0  0  0  0  0  0
  -28.7780  -12.4947   21.5188 H   0  0  0  0  0  0
  -28.2485  -14.1542   21.7195 H   0  0  0  0  0  0
  -25.2772   -9.5714   22.4751 H   0  0  0  0  0  0
  -24.0018   -7.4647   22.7499 H   0  0  0  0  0  0
  -21.0840   -8.8811   19.8934 H   0  0  0  0  0  0
  -22.3752  -10.9706   19.6143 H   0  0  0  0  0  0
  -21.2128   -7.6157   23.9742 H   0  0  0  0  0  0
  -21.1518   -6.0528   25.9085 H   0  0  0  0  0  0
  -22.0550   -2.7609   23.2821 H   0  0  0  0  0  0
  -22.3918  -11.9992   22.4955 H   0  0  0  0  0  0
  -21.0966  -13.1401   22.2543 H   0  0  0  0  0  0
  -24.6376  -15.8508   20.5480 H   0  0  0  0  0  0
  -26.2663  -15.6438   20.1473 H   0  0  0  0  0  0
  -26.7380  -32.5133   23.0903 H   0  0  0  0  0  0
  -25.0192  -33.9442   25.0305 H   0  0  0  0  0  0
  -22.7919  -31.2655   21.3439 H   0  0  0  0  0  0
  -23.3732  -35.9623   23.3360 H   0  0  0  0  0  0
  -24.3614  -36.8808   22.2051 H   0  0  0  0  0  0
  -23.7408  -37.6485   23.6658 H   0  0  0  0  0  0
  -26.2429  -31.3747   20.6272 H   0  0  0  0  0  0
  -26.9049  -30.6814   22.0619 H   0  0  0  0  0  0
  -28.1443  -28.5894   21.2947 H   0  0  0  0  0  0
  -25.8969  -25.7551   18.9636 H   0  0  0  0  0  0
  -24.0334  -27.3007   18.8906 H   0  0  0  0  0  0
  -23.8804  -30.5327   19.3787 H   0  0  0  0  0  0
  -22.8356  -29.2149   19.8131 H   0  0  0  0  0  0
  -25.1375  -36.1775   25.0805 H   0  0  0  0  0  0
  -21.0112  -28.3322   24.1242 H   0  0  0  0  0  0
  -20.5664  -26.2287   23.3630 H   0  0  0  0  0  0
  -21.6681  -26.7309   22.1204 H   0  0  0  0  0  0
  -19.6920  -25.6252   21.1236 H   0  0  0  0  0  0
  -19.6740  -27.3140   20.6700 H   0  0  0  0  0  0
  -17.4247  -26.6662   21.4001 H   0  0  0  0  0  0
  -18.0334  -26.0081   22.8989 H   0  0  0  0  0  0
  -19.7968  -30.7310   24.2172 H   0  0  0  0  0  0
  -17.5009  -31.6212   24.5163 H   0  0  0  0  0  0
  -15.5374  -30.2874   23.7670 H   0  0  0  0  0  0
  -15.8752  -28.0759   22.7019 H   0  0  0  0  0  0
  -24.5863  -30.7127   25.7684 H   0  0  0  0  0  0
  -24.8962  -32.2953   26.4735 H   0  0  0  0  0  0
  -25.7975  -30.8939   27.0189 H   0  0  0  0  0  0
  -26.3161  -29.6466   24.1483 H   0  0  0  0  0  0
  -27.4078  -29.7275   25.5093 H   0  0  0  0  0  0
  -27.9095  -30.4029   23.9837 H   0  0  0  0  0  0
  -27.2670  -33.3595   26.1997 H   0  0  0  0  0  0
  -28.3934  -32.6807   25.0330 H   0  0  0  0  0  0
  -28.0722  -31.8449   26.5431 H   0  0  0  0  0  0
  -28.2628  -38.0033   24.7356 H   0  0  0  0  0  0
  -28.1045  -36.2549   24.6493 H   0  0  0  0  0  0
  -27.2263  -37.1714   25.8856 H   0  0  0  0  0  0
  -20.9548  -29.8792   21.6737 H   0  0  0  0  0  0
  -26.0176  -38.2754   24.1197 H   0  0  0  0  0  0
  -29.5451  -19.3584   22.6822 H   0  0  0  0  0  0
  -28.0690  -18.7216   22.0149 H   0  0  0  0  0  0
  -29.1622  -16.6877   22.7044 H   0  0  0  0  0  0
  -30.7461  -17.2894   22.3346 H   0  0  0  0  0  0
  -30.3869  -17.8804   18.9921 H   0  0  0  0  0  0
  -28.6682  -17.7164   19.1476 H   0  0  0  0  0  0
  -30.5349  -19.7181   20.5671 H   0  0  0  0  0  0
  -28.6378  -22.6203   21.4920 H   0  0  0  0  0  0
  -29.9057  -22.9114   20.3759 H   0  0  0  0  0  0
  -26.9705  -24.0385   20.1441 H   0  0  0  0  0  0
  -28.0897  -24.2116   18.8497 H   0  0  0  0  0  0
  -27.6528  -20.7536   19.9755 H   0  0  0  0  0  0
  -29.9204  -21.1283   18.1774 H   0  0  0  0  0  0
  -28.3786  -21.6104   17.9284 H   0  0  0  0  0  0
  -28.7192  -20.0453   18.0364 H   0  0  0  0  0  0
  1 25  1  0  0  0
  1 30  2  0  0  0
  1 78  1  0  0  0
  2  3  1  0  0  0
  2 25  1  0  0  0
  2 80  1  0  0  0
  2 81  1  0  0  0
  3  4  1  0  0  0
  3 82  1  0  0  0
  3 83  1  0  0  0
  4  5  1  0  0  0
  4 84  1  0  0  0
  4 85  1  0  0  0
  5  6  1  0  0  0
  5 26  1  0  0  0
  5 86  1  0  0  0
  6 25  1  0  0  0
  6 87  1  0  0  0
  6 88  1  0  0  0
  7  8  2  0  0  0
  7 26  1  0  0  0
  7 29  1  0  0  0
  8  9  1  0  0  0
  8 22  1  0  0  0
  9 10  1  0  0  0
  9 27  2  0  0  0
 10 11  2  0  0  0
 10 15  1  0  0  0
 11 12  1  0  0  0
 11 89  1  0  0  0
 12 13  2  0  0  0
 12 90  1  0  0  0
 13 14  1  0  0  0
 13 31  1  0  0  0
 14 15  2  0  0  0
 14 91  1  0  0  0
 15 92  1  0  0  0
 16 17  2  0  0  0
 16 21  1  0  0  0
 16 31  1  0  0  0
 17 18  1  0  0  0
 17 93  1  0  0  0
 18 19  2  0  0  0
 18 94  1  0  0  0
 19 20  1  0  0  0
 19 24  1  0  0  0
 20 21  2  0  0  0
 20 95  1  0  0  0
 21 23  1  0  0  0
 22 28  1  0  0  0
 22 32  2  0  0  0
 26 27  1  0  0  0
 28 96  1  0  0  0
 28 97  1  0  0  0
 29 98  1  0  0  0
 29 99  1  0  0  0
 33 34  1  0  0  0
 33 66  1  0  0  0
 33 70  2  0  0  0
 34 36  1  0  0  0
 34 59  1  0  0  0
 34100  1  0  0  0
 35 44  2  0  0  0
 35 45  1  0  0  0
 35 68  1  0  0  0
 36 56  1  0  0  0
 36101  1  0  0  0
 37 39  1  0  0  0
 37 47  1  0  0  0
 37 66  1  0  0  0
 37102  1  0  0  0
 38 43  2  0  0  0
 38 46  1  0  0  0
 38 47  1  0  0  0
 39 64  1  0  0  0
 39 67  2  0  0  0
 40 52  1  0  0  0
 40 53  2  0  0  0
 40 58  1  0  0  0
 41103  1  0  0  0
 41104  1  0  0  0
 41105  1  0  0  0
 41 48  1  0  0  0
 42 43  1  0  0  0
 42 66  1  0  0  0
 42106  1  0  0  0
 42107  1  0  0  0
 43 44  1  0  0  0
 44108  1  0  0  0
 45 46  2  0  0  0
 45109  1  0  0  0
 46110  1  0  0  0
 47111  1  0  0  0
 47112  1  0  0  0
 48 56  1  0  0  0
 48 65  1  0  0  0
 48113  1  0  0  0
 49 50  1  0  0  0
 49 53  1  0  0  0
 49 64  1  0  0  0
 49114  1  0  0  0
 50 51  1  0  0  0
 50115  1  0  0  0
 50116  1  0  0  0
 51 52  1  0  0  0
 51117  1  0  0  0
 51118  1  0  0  0
 52119  1  0  0  0
 52120  1  0  0  0
 53 54  1  0  0  0
 54 55  2  0  0  0
 54121  1  0  0  0
 55 57  1  0  0  0
 55122  1  0  0  0
 56 69  2  0  0  0
 57 58  2  0  0  0
 57123  1  0  0  0
 58124  1  0  0  0
 59 60  1  0  0  0
 59 61  1  0  0  0
 59 62  1  0  0  0
 60125  1  0  0  0
 60126  1  0  0  0
 60127  1  0  0  0
 61128  1  0  0  0
 61129  1  0  0  0
 61130  1  0  0  0
 62131  1  0  0  0
 62132  1  0  0  0
 62133  1  0  0  0
 63 65  1  0  0  0
 63134  1  0  0  0
 63135  1  0  0  0
 63136  1  0  0  0
 64137  1  0  0  0
 65138  1  0  0  0
 68 76  1  0  0  0
 71 72  1  0  0  0
 71139  1  0  0  0
 71140  1  0  0  0
 71 74  1  0  0  0
 72 78  1  0  0  0
 72141  1  0  0  0
 72142  1  0  0  0
 73 74  1  0  0  0
 73 78  1  0  0  0
 73143  1  0  0  0
 73144  1  0  0  0
 74 77  1  0  0  0
 74145  1  0  0  0
 75 76  1  0  0  0
 75 77  1  0  0  0
 75146  1  0  0  0
 75147  1  0  0  0
 76148  1  0  0  0
 76149  1  0  0  0
 77 79  1  0  0  0
 77150  1  0  0  0
 79151  1  0  0  0
 79152  1  0  0  0
 79153  1  0  0  0
M  CHG  1  79   1
M  ISO  4   1 100  68 101  76 101  78 100
M  END
> <chiral flag>
0

> <version>
0

> <s_m_source_file>
/data/baiqing/PycharmProjects/Reinvent-master-3.2/result/LINK_invent/BTK/process_docking_weight1_custom_sum_contain_oxygen_bond_distance_aromatic_linkinvent_7_9_3/rearranged_h_0189.sdf

> <i_m_source_file_index>
19

> <r_mmod_Potential_Energy-OPLS-2005>
1257.41198730469

> <r_mmod_Stretch_Energy-OPLS-2005>
600.354370117188

> <r_mmod_Bend_Energy-OPLS-2005>
463.051879882812

> <r_mmod_Torsional_Energy-OPLS-2005>
354.445556640625

> <r_mmod_Improper_Torsional_Energy-OPLS-2005>
7.36766862869263

> <r_mmod_Van_der_Waal_Energy-OPLS-2005>
102.456512451172

> <r_mmod_Electrostatic_Energy-OPLS-2005>
-206.007431030273

> <r_mmod_Solvation_Energy-OPLS-2005>
-503.113677978516

> <b_mmod_Minimization_Converged-OPLS-2005>
0

> <r_mmod_RMS_Derivative-OPLS-2005>
9.92064762115479

$$$$
19
                    3D
 Structure written by MMmdl.
158166  0  0  1  0            999 V2000
  -30.6969  -14.4611   20.6121 C   0  0  0  0  0  0
  -30.4278  -12.3160   19.4136 C   0  0  0  0  0  0
  -29.4952  -12.5220   18.2023 C   0  0  0  0  0  0
  -28.0169  -12.3734   18.6149 C   0  0  0  0  0  0
  -27.6639  -13.2032   19.8787 C   0  0  2  0  0  0
  -28.7039  -12.9623   20.9956 C   0  0  0  0  0  0
  -25.2601  -13.8146   20.5677 C   0  0  0  0  0  0
  -24.1844  -13.0435   20.9172 C   0  0  0  0  0  0
  -24.6389  -11.6898   20.8730 C   0  0  0  0  0  0
  -23.9047  -10.4292   21.0399 C   0  0  0  0  0  0
  -24.3607   -9.4213   21.9177 C   0  0  0  0  0  0
  -23.6289   -8.2242   22.0745 C   0  0  0  0  0  0
  -22.4272   -8.0272   21.3535 C   0  0  0  0  0  0
  -21.9903   -9.0242   20.4637 C   0  0  0  0  0  0
  -22.7224  -10.2128   20.3048 C   0  0  0  0  0  0
  -21.6852   -6.0733   22.5280 C   0  0  0  0  0  0
  -21.4012   -6.5636   23.8214 C   0  0  0  0  0  0
  -21.3662   -5.6789   24.9176 C   0  0  0  0  0  0
  -21.6045   -4.3054   24.7224 C   0  0  0  0  0  0
  -21.8820   -3.8143   23.4346 C   0  0  0  0  0  0
  -21.9193   -4.6960   22.3401 C   0  0  0  0  0  0
  -22.7872  -13.5242   21.1838 C   0  0  0  0  0  0
  -22.1660   -4.2149   21.0978 F   0  0  0  0  0  0
  -21.5633   -3.4534   25.7734 F   0  0  0  0  0  0
  -30.0358  -13.2823   20.4509 N   0  0  0  0  0  0
  -26.3034  -12.9309   20.3371 N   0  0  0  0  0  0
  -25.9315  -11.6473   20.5754 N   0  0  0  0  0  0
  -22.0502  -12.8242   22.0400 N   0  0  0  0  0  0
  -25.4341  -15.1863   20.4091 N   0  0  0  0  0  0
  -31.7993  -14.6906   20.1053 O   0  0  0  0  0  0
  -21.6637   -6.8875   21.4239 O   0  0  0  0  0  0
  -22.3568  -14.5547   20.6682 O   0  0  0  0  0  0
  -24.6134  -31.8678   23.2094 C   0  0  0  0  0  0
  -25.9025  -32.4820   23.8403 C   0  0  1  0  0  0
  -27.2396  -27.4365   20.1055 C   0  0  0  0  0  0
  -25.5881  -33.8619   24.2332 N   0  0  0  0  0  0
  -23.4039  -30.4882   21.5483 C   0  0  2  0  0  0
  -24.8547  -28.9502   20.1175 C   0  0  0  0  0  0
  -22.7411  -29.4647   22.4983 C   0  0  0  0  0  0
  -18.0271  -28.1382   22.8493 C   0  0  0  0  0  0
  -24.1483  -36.7324   23.2640 C   0  0  0  0  0  0
  -25.9309  -30.8323   21.3642 C   0  0  0  0  0  0
  -26.0114  -29.4633   20.7193 C   0  0  0  0  0  0
  -27.2085  -28.7113   20.7163 C   0  0  0  0  0  0
  -26.0737  -26.9367   19.4940 C   0  0  0  0  0  0
  -24.8798  -27.6851   19.5027 C   0  0  0  0  0  0
  -23.6150  -29.8159   20.1642 C   0  0  0  0  0  0
  -25.4102  -36.3114   24.0341 C   0  0  1  0  0  0
  -20.5861  -28.3666   23.1318 C   0  0  2  0  0  0
  -20.6759  -26.9404   22.5417 C   0  0  0  0  0  0
  -19.5739  -26.6387   21.5213 C   0  0  0  0  0  0
  -18.1918  -26.7928   22.1623 C   0  0  0  0  0  0
  -19.1519  -28.8839   23.2905 C   0  0  0  0  0  0
  -18.9448  -30.1442   23.8920 C   0  0  0  0  0  0
  -17.6451  -30.6588   24.0567 C   0  0  0  0  0  0
  -25.9026  -34.9477   23.5137 C   0  0  0  0  0  0
  -16.5341  -29.9093   23.6318 C   0  0  0  0  0  0
  -16.7261  -28.6506   23.0344 C   0  0  0  0  0  0
  -26.4460  -31.6594   25.0726 C   0  0  0  0  0  0
  -25.3728  -31.3694   26.1477 C   0  0  0  0  0  0
  -27.0292  -30.3039   24.6092 C   0  0  0  0  0  0
  -27.6044  -32.4306   25.7485 C   0  0  0  0  0  0
  -27.5580  -37.1815   24.8464 C   0  0  0  0  0  0
  -21.4138  -29.3031   22.3724 N   0  0  0  0  0  0
  -26.4292  -37.3794   23.9406 N   0  0  0  0  0  0
  -24.6673  -31.0776   22.0995 N   0  0  0  0  0  0
  -23.4180  -28.8200   23.3036 O   0  0  0  0  0  0
  -28.3882  -26.6800   20.0699 O   0  0  0  0  0  0
  -26.5592  -34.8928   22.4700 O   0  0  0  0  0  0
  -23.5323  -32.1433   23.7479 O   0  0  0  0  0  0
  -28.9314  -19.9994   18.7548 C   0  0  0  0  0  0
  -28.8134  -22.2679   18.3747 C   0  0  0  0  0  0
  -29.4314  -20.2277   20.0653 C   0  0  0  0  0  0
  -29.2915  -22.5192   19.6871 C   0  0  0  0  0  0
  -28.4913  -23.3956   17.4110 C   0  0  0  0  0  0
  -29.7444  -17.7765   20.5127 C   0  0  0  0  0  0
  -30.4095  -16.8037   21.5166 C   0  0  0  0  0  0
  -28.4609  -24.3751   20.9896 C   0  0  0  0  0  0
  -28.6317  -25.8944   21.2452 C   0  0  0  0  0  0
  -28.6213  -21.0120   17.9106 N   0  0  0  0  0  0
  -29.5882  -21.4964   20.5365 N   0  0  0  0  0  0
  -29.8141  -19.1827   20.9304 N   0  0  0  0  0  0
  -29.5096  -23.8344   20.1257 N   0  0  0  0  0  0
  -30.0164  -15.4085   21.2811 N   0  0  0  0  0  0
  -31.4710  -12.4286   19.1128 H   0  0  0  0  0  0
  -30.3378  -11.2986   19.7961 H   0  0  0  0  0  0
  -29.7402  -11.8097   17.4133 H   0  0  0  0  0  0
  -29.6578  -13.5146   17.7789 H   0  0  0  0  0  0
  -27.8316  -11.3151   18.8022 H   0  0  0  0  0  0
  -27.3637  -12.6530   17.7874 H   0  0  0  0  0  0
  -27.7140  -14.2554   19.5967 H   0  0  0  0  0  0
  -28.6836  -11.9184   21.3107 H   0  0  0  0  0  0
  -28.4567  -13.5350   21.8903 H   0  0  0  0  0  0
  -25.2750   -9.5700   22.4751 H   0  0  0  0  0  0
  -24.0003   -7.4640   22.7469 H   0  0  0  0  0  0
  -21.0829   -8.8754   19.8949 H   0  0  0  0  0  0
  -22.3671  -10.9661   19.6157 H   0  0  0  0  0  0
  -21.1999   -7.6143   23.9721 H   0  0  0  0  0  0
  -21.1487   -6.0516   25.9086 H   0  0  0  0  0  0
  -22.0598   -2.7602   23.2841 H   0  0  0  0  0  0
  -22.4095  -11.9901   22.4799 H   0  0  0  0  0  0
  -21.1116  -13.1280   22.2583 H   0  0  0  0  0  0
  -24.6701  -15.8442   20.5191 H   0  0  0  0  0  0
  -26.2897  -15.6227   20.0900 H   0  0  0  0  0  0
  -26.7098  -32.5545   23.1175 H   0  0  0  0  0  0
  -25.0024  -33.9785   25.0471 H   0  0  0  0  0  0
  -22.6927  -31.3043   21.4055 H   0  0  0  0  0  0
  -23.3737  -35.9664   23.3309 H   0  0  0  0  0  0
  -24.3579  -36.8930   22.2053 H   0  0  0  0  0  0
  -23.7244  -37.6537   23.6647 H   0  0  0  0  0  0
  -26.0384  -31.5932   20.5901 H   0  0  0  0  0  0
  -26.8206  -30.8927   21.9793 H   0  0  0  0  0  0
  -28.1039  -29.1034   21.1783 H   0  0  0  0  0  0
  -26.0910  -25.9676   19.0154 H   0  0  0  0  0  0
  -23.9921  -27.2853   19.0317 H   0  0  0  0  0  0
  -23.7228  -30.5883   19.4016 H   0  0  0  0  0  0
  -22.7412  -29.2318   19.8694 H   0  0  0  0  0  0
  -25.1278  -36.1986   25.0835 H   0  0  0  0  0  0
  -20.9951  -28.3229   24.1439 H   0  0  0  0  0  0
  -20.5662  -26.2278   23.3605 H   0  0  0  0  0  0
  -21.6632  -26.7451   22.1210 H   0  0  0  0  0  0
  -19.6903  -25.6301   21.1237 H   0  0  0  0  0  0
  -19.6680  -27.3202   20.6749 H   0  0  0  0  0  0
  -17.4192  -26.6676   21.4022 H   0  0  0  0  0  0
  -18.0319  -26.0069   22.9017 H   0  0  0  0  0  0
  -19.7925  -30.7245   24.2309 H   0  0  0  0  0  0
  -17.5009  -31.6269   24.5167 H   0  0  0  0  0  0
  -15.5345  -30.3007   23.7628 H   0  0  0  0  0  0
  -15.8660  -28.0837   22.7047 H   0  0  0  0  0  0
  -24.5890  -30.7057   25.7806 H   0  0  0  0  0  0
  -24.8933  -32.2849   26.4954 H   0  0  0  0  0  0
  -25.8080  -30.8836   27.0219 H   0  0  0  0  0  0
  -26.2836  -29.6804   24.1143 H   0  0  0  0  0  0
  -27.4065  -29.7267   25.4544 H   0  0  0  0  0  0
  -27.8667  -30.4367   23.9239 H   0  0  0  0  0  0
  -27.2671  -33.3588   26.2110 H   0  0  0  0  0  0
  -28.3831  -32.6892   25.0296 H   0  0  0  0  0  0
  -28.0740  -31.8401   26.5362 H   0  0  0  0  0  0
  -28.2604  -38.0106   24.7505 H   0  0  0  0  0  0
  -28.1070  -36.2640   24.6292 H   0  0  0  0  0  0
  -27.2302  -37.1469   25.8868 H   0  0  0  0  0  0
  -20.9302  -29.8753   21.6943 H   0  0  0  0  0  0
  -26.0186  -38.2876   24.1398 H   0  0  0  0  0  0
  -28.7862  -19.0038   18.3621 H   0  0  0  0  0  0
  -27.7546  -24.0718   17.8451 H   0  0  0  0  0  0
  -28.0883  -23.0179   16.4715 H   0  0  0  0  0  0
  -29.3907  -23.9687   17.1859 H   0  0  0  0  0  0
  -28.6921  -17.5127   20.3925 H   0  0  0  0  0  0
  -30.2163  -17.6539   19.5363 H   0  0  0  0  0  0
  -30.0950  -17.0500   22.5319 H   0  0  0  0  0  0
  -31.4959  -16.9121   21.5001 H   0  0  0  0  0  0
  -27.4755  -24.1788   20.5626 H   0  0  0  0  0  0
  -28.4954  -23.8466   21.9440 H   0  0  0  0  0  0
  -29.6418  -26.1024   21.6005 H   0  0  0  0  0  0
  -27.9665  -26.1922   22.0591 H   0  0  0  0  0  0
  -30.1999  -19.4141   21.8404 H   0  0  0  0  0  0
  -29.6363  -24.4632   19.3380 H   0  0  0  0  0  0
  -29.1170  -15.1278   21.6423 H   0  0  0  0  0  0
  1 25  1  0  0  0
  1 30  2  0  0  0
  1 84  1  0  0  0
  2  3  1  0  0  0
  2 25  1  0  0  0
  2 85  1  0  0  0
  2 86  1  0  0  0
  3  4  1  0  0  0
  3 87  1  0  0  0
  3 88  1  0  0  0
  4  5  1  0  0  0
  4 89  1  0  0  0
  4 90  1  0  0  0
  5  6  1  0  0  0
  5 26  1  0  0  0
  5 91  1  0  0  0
  6 25  1  0  0  0
  6 92  1  0  0  0
  6 93  1  0  0  0
  7  8  2  0  0  0
  7 26  1  0  0  0
  7 29  1  0  0  0
  8  9  1  0  0  0
  8 22  1  0  0  0
  9 10  1  0  0  0
  9 27  2  0  0  0
 10 11  2  0  0  0
 10 15  1  0  0  0
 11 12  1  0  0  0
 11 94  1  0  0  0
 12 13  2  0  0  0
 12 95  1  0  0  0
 13 14  1  0  0  0
 13 31  1  0  0  0
 14 15  2  0  0  0
 14 96  1  0  0  0
 15 97  1  0  0  0
 16 17  2  0  0  0
 16 21  1  0  0  0
 16 31  1  0  0  0
 17 18  1  0  0  0
 17 98  1  0  0  0
 18 19  2  0  0  0
 18 99  1  0  0  0
 19 20  1  0  0  0
 19 24  1  0  0  0
 20 21  2  0  0  0
 20100  1  0  0  0
 21 23  1  0  0  0
 22 28  1  0  0  0
 22 32  2  0  0  0
 26 27  1  0  0  0
 28101  1  0  0  0
 28102  1  0  0  0
 29103  1  0  0  0
 29104  1  0  0  0
 33 34  1  0  0  0
 33 66  1  0  0  0
 33 70  2  0  0  0
 34 36  1  0  0  0
 34 59  1  0  0  0
 34105  1  0  0  0
 35 44  2  0  0  0
 35 45  1  0  0  0
 35 68  1  0  0  0
 36 56  1  0  0  0
 36106  1  0  0  0
 37 39  1  0  0  0
 37 47  1  0  0  0
 37 66  1  0  0  0
 37107  1  0  0  0
 38 43  2  0  0  0
 38 46  1  0  0  0
 38 47  1  0  0  0
 39 64  1  0  0  0
 39 67  2  0  0  0
 40 52  1  0  0  0
 40 53  2  0  0  0
 40 58  1  0  0  0
 41108  1  0  0  0
 41109  1  0  0  0
 41110  1  0  0  0
 41 48  1  0  0  0
 42 43  1  0  0  0
 42 66  1  0  0  0
 42111  1  0  0  0
 42112  1  0  0  0
 43 44  1  0  0  0
 44113  1  0  0  0
 45 46  2  0  0  0
 45114  1  0  0  0
 46115  1  0  0  0
 47116  1  0  0  0
 47117  1  0  0  0
 48 56  1  0  0  0
 48 65  1  0  0  0
 48118  1  0  0  0
 49 50  1  0  0  0
 49 53  1  0  0  0
 49 64  1  0  0  0
 49119  1  0  0  0
 50 51  1  0  0  0
 50120  1  0  0  0
 50121  1  0  0  0
 51 52  1  0  0  0
 51122  1  0  0  0
 51123  1  0  0  0
 52124  1  0  0  0
 52125  1  0  0  0
 53 54  1  0  0  0
 54 55  2  0  0  0
 54126  1  0  0  0
 55 57  1  0  0  0
 55127  1  0  0  0
 56 69  2  0  0  0
 57 58  2  0  0  0
 57128  1  0  0  0
 58129  1  0  0  0
 59 60  1  0  0  0
 59 61  1  0  0  0
 59 62  1  0  0  0
 60130  1  0  0  0
 60131  1  0  0  0
 60132  1  0  0  0
 61133  1  0  0  0
 61134  1  0  0  0
 61135  1  0  0  0
 62136  1  0  0  0
 62137  1  0  0  0
 62138  1  0  0  0
 63 65  1  0  0  0
 63139  1  0  0  0
 63140  1  0  0  0
 63141  1  0  0  0
 64142  1  0  0  0
 65143  1  0  0  0
 68 79  1  0  0  0
 71 73  2  0  0  0
 71 80  1  0  0  0
 71144  1  0  0  0
 72 74  1  0  0  0
 72 75  1  0  0  0
 72 80  2  0  0  0
 73 81  1  0  0  0
 73 82  1  0  0  0
 74 81  2  0  0  0
 74 83  1  0  0  0
 75145  1  0  0  0
 75146  1  0  0  0
 75147  1  0  0  0
 76 77  1  0  0  0
 76 82  1  0  0  0
 76148  1  0  0  0
 76149  1  0  0  0
 77 84  1  0  0  0
 77150  1  0  0  0
 77151  1  0  0  0
 78 79  1  0  0  0
 78 83  1  0  0  0
 78152  1  0  0  0
 78153  1  0  0  0
 79154  1  0  0  0
 79155  1  0  0  0
 82156  1  0  0  0
 83157  1  0  0  0
 84158  1  0  0  0
M  ISO  4   1 100  68 101  79 101  84 100
M  END
> <chiral flag>
0

> <version>
0

> <s_m_source_file>
/data/baiqing/PycharmProjects/Reinvent-master-3.2/result/LINK_invent/BTK/process_docking_weight1_custom_sum_contain_oxygen_bond_distance_aromatic_linkinvent_7_9_3/rearranged_h_0189.sdf

> <i_m_source_file_index>
20

> <r_mmod_Potential_Energy-OPLS-2005>
-128.903884887695

> <r_mmod_Stretch_Energy-OPLS-2005>
38.5354080200195

> <r_mmod_Bend_Energy-OPLS-2005>
102.052352905273

> <r_mmod_Torsional_Energy-OPLS-2005>
230.83805847168

> <r_mmod_Improper_Torsional_Energy-OPLS-2005>
8.41363525390625

> <r_mmod_Van_der_Waal_Energy-OPLS-2005>
151.867248535156

> <r_mmod_Electrostatic_Energy-OPLS-2005>
-422.764739990234

> <r_mmod_Solvation_Energy-OPLS-2005>
-248.47053527832

> <b_mmod_Minimization_Converged-OPLS-2005>
0

> <r_mmod_RMS_Derivative-OPLS-2005>
0.983818233013153

$$$$
20
                    3D
 Structure written by MMmdl.
148156  0  0  1  0            999 V2000
  -30.4587  -15.3008   20.3604 C   0  0  0  0  0  0
  -30.4225  -12.8326   19.5254 C   0  0  0  0  0  0
  -29.5316  -12.5977   18.2808 C   0  0  0  0  0  0
  -28.0755  -12.3275   18.6951 C   0  0  0  0  0  0
  -27.6045  -13.2911   19.8152 C   0  0  2  0  0  0
  -28.6379  -13.4922   20.9469 C   0  0  0  0  0  0
  -25.2368  -13.8267   20.5783 C   0  0  0  0  0  0
  -24.1728  -13.0431   20.9251 C   0  0  0  0  0  0
  -24.6393  -11.6931   20.8710 C   0  0  0  0  0  0
  -23.9085  -10.4276   21.0345 C   0  0  0  0  0  0
  -24.3638   -9.4207   21.9144 C   0  0  0  0  0  0
  -23.6315   -8.2240   22.0739 C   0  0  0  0  0  0
  -22.4298   -8.0260   21.3529 C   0  0  0  0  0  0
  -21.9910   -9.0223   20.4631 C   0  0  0  0  0  0
  -22.7233  -10.2108   20.3020 C   0  0  0  0  0  0
  -21.6866   -6.0712   22.5266 C   0  0  0  0  0  0
  -21.4024   -6.5624   23.8192 C   0  0  0  0  0  0
  -21.3665   -5.6789   24.9162 C   0  0  0  0  0  0
  -21.6051   -4.3046   24.7215 C   0  0  0  0  0  0
  -21.8820   -3.8127   23.4332 C   0  0  0  0  0  0
  -21.9204   -4.6940   22.3385 C   0  0  0  0  0  0
  -22.7741  -13.5170   21.1872 C   0  0  0  0  0  0
  -22.1671   -4.2121   21.0961 F   0  0  0  0  0  0
  -21.5630   -3.4531   25.7724 F   0  0  0  0  0  0
  -29.8676  -13.9994   20.3159 N   0  0  0  0  0  0
  -26.2798  -12.9574   20.3197 N   0  0  0  0  0  0
  -25.9339  -11.6657   20.5651 N   0  0  0  0  0  0
  -22.0424  -12.8178   22.0457 N   0  0  0  0  0  0
  -25.3987  -15.2017   20.4330 N   0  0  0  0  0  0
  -31.6757  -15.2479   20.1095 O   0  0  0  0  0  0
  -21.6668   -6.8857   21.4229 O   0  0  0  0  0  0
  -22.3407  -14.5447   20.6674 O   0  0  0  0  0  0
  -24.6652  -31.8169   23.1628 C   0  0  0  0  0  0
  -25.9326  -32.4525   23.8106 C   0  0  1  0  0  0
  -27.2135  -26.8906   20.1793 C   0  0  0  0  0  0
  -25.5980  -33.8341   24.2008 N   0  0  0  0  0  0
  -23.4802  -30.4290   21.5137 C   0  0  2  0  0  0
  -24.9301  -28.8072   20.1044 C   0  0  0  0  0  0
  -22.7673  -29.4413   22.4752 C   0  0  0  0  0  0
  -18.0313  -28.1389   22.8459 C   0  0  0  0  0  0
  -24.1511  -36.7199   23.2651 C   0  0  0  0  0  0
  -26.0506  -30.6088   21.4009 C   0  0  0  0  0  0
  -26.1143  -29.1967   20.7446 C   0  0  0  0  0  0
  -27.2461  -28.2590   20.7599 C   0  0  0  0  0  0
  -26.0048  -26.6645   19.4824 C   0  0  0  0  0  0
  -24.9035  -27.5618   19.4556 C   0  0  0  0  0  0
  -23.7190  -29.7410   20.1408 C   0  0  0  0  0  0
  -25.4152  -36.2926   24.0290 C   0  0  1  0  0  0
  -20.5936  -28.3738   23.1175 C   0  0  2  0  0  0
  -20.6785  -26.9417   22.5396 C   0  0  0  0  0  0
  -19.5761  -26.6352   21.5204 C   0  0  0  0  0  0
  -18.1945  -26.7925   22.1611 C   0  0  0  0  0  0
  -19.1571  -28.8886   23.2799 C   0  0  0  0  0  0
  -18.9488  -30.1479   23.8833 C   0  0  0  0  0  0
  -17.6483  -30.6577   24.0550 C   0  0  0  0  0  0
  -25.9122  -34.9321   23.4978 C   0  0  0  0  0  0
  -16.5376  -29.9067   23.6340 C   0  0  0  0  0  0
  -16.7297  -28.6486   23.0360 C   0  0  0  0  0  0
  -26.4567  -31.6488   25.0656 C   0  0  0  0  0  0
  -25.3676  -31.3755   26.1296 C   0  0  0  0  0  0
  -27.0469  -30.2833   24.6449 C   0  0  0  0  0  0
  -27.6057  -32.4302   25.7451 C   0  0  0  0  0  0
  -27.5583  -37.1753   24.8460 C   0  0  0  0  0  0
  -21.4331  -29.3029   22.3525 N   0  0  0  0  0  0
  -26.4295  -37.3668   23.9398 N   0  0  0  0  0  0
  -24.7530  -30.9812   22.0778 N   0  0  0  0  0  0
  -23.4227  -28.7996   23.2996 O   0  0  0  0  0  0
  -28.2101  -25.7727   20.2856 O   0  0  0  0  0  0
  -26.5749  -34.8879   22.4586 O   0  0  0  0  0  0
  -23.5719  -32.1146   23.6721 O   0  0  0  0  0  0
  -30.2997  -19.0830   21.4279 C   0  0  0  0  0  0
  -30.2808  -17.4990   21.7268 C   0  0  0  0  0  0
  -29.3215  -17.9184   19.7438 C   0  0  0  0  0  0
  -29.1282  -19.4700   20.5036 C   0  0  2  0  0  0
  -28.0714  -24.1455   19.9326 C   0  0  0  0  0  0
  -28.7653  -22.5557   20.5252 C   0  0  0  0  0  0
  -29.7973  -16.6279   20.6020 N   0  0  0  0  0  0
  -28.9293  -21.0158   19.9168 O   0  0  0  0  0  0
  -31.4500  -13.0080   19.2039 H   0  0  0  0  0  0
  -30.4660  -11.9310   20.1374 H   0  0  0  0  0  0
  -29.9166  -11.7687   17.6847 H   0  0  0  0  0  0
  -29.5732  -13.4803   17.6407 H   0  0  0  0  0  0
  -28.0134  -11.2946   19.0405 H   0  0  0  0  0  0
  -27.4186  -12.4000   17.8267 H   0  0  0  0  0  0
  -27.5052  -14.2566   19.3170 H   0  0  0  0  0  0
  -28.8119  -12.5714   21.5040 H   0  0  0  0  0  0
  -28.2730  -14.2295   21.6641 H   0  0  0  0  0  0
  -25.2764   -9.5710   22.4733 H   0  0  0  0  0  0
  -24.0014   -7.4643   22.7478 H   0  0  0  0  0  0
  -21.0817   -8.8706   19.8958 H   0  0  0  0  0  0
  -22.3629  -10.9632   19.6137 H   0  0  0  0  0  0
  -21.2016   -7.6134   23.9681 H   0  0  0  0  0  0
  -21.1506   -6.0522   25.9065 H   0  0  0  0  0  0
  -22.0600   -2.7587   23.2835 H   0  0  0  0  0  0
  -22.4088  -11.9891   22.4900 H   0  0  0  0  0  0
  -21.1006  -13.1145   22.2588 H   0  0  0  0  0  0
  -24.6334  -15.8515   20.5691 H   0  0  0  0  0  0
  -26.2576  -15.6552   20.1495 H   0  0  0  0  0  0
  -26.7420  -32.5047   23.0840 H   0  0  0  0  0  0
  -25.0027  -33.9385   25.0092 H   0  0  0  0  0  0
  -22.7956  -31.2620   21.3427 H   0  0  0  0  0  0
  -23.3758  -35.9536   23.3261 H   0  0  0  0  0  0
  -24.3605  -36.8884   22.2076 H   0  0  0  0  0  0
  -23.7290  -37.6383   23.6746 H   0  0  0  0  0  0
  -26.2457  -31.3478   20.6234 H   0  0  0  0  0  0
  -26.9061  -30.6593   22.0613 H   0  0  0  0  0  0
  -28.1364  -28.5521   21.2981 H   0  0  0  0  0  0
  -25.8746  -25.7186   18.9787 H   0  0  0  0  0  0
  -24.0054  -27.2565   18.9343 H   0  0  0  0  0  0
  -23.8749  -30.5070   19.3802 H   0  0  0  0  0  0
  -22.8254  -29.1986   19.8259 H   0  0  0  0  0  0
  -25.1363  -36.1700   25.0779 H   0  0  0  0  0  0
  -21.0032  -28.3328   24.1290 H   0  0  0  0  0  0
  -20.5600  -26.2370   23.3634 H   0  0  0  0  0  0
  -21.6659  -26.7340   22.1243 H   0  0  0  0  0  0
  -19.6906  -25.6242   21.1262 H   0  0  0  0  0  0
  -19.6694  -27.3135   20.6709 H   0  0  0  0  0  0
  -17.4215  -26.6647   21.4022 H   0  0  0  0  0  0
  -18.0344  -26.0080   22.9009 H   0  0  0  0  0  0
  -19.7968  -30.7308   24.2169 H   0  0  0  0  0  0
  -17.5032  -31.6255   24.5160 H   0  0  0  0  0  0
  -15.5365  -30.2953   23.7686 H   0  0  0  0  0  0
  -15.8697  -28.0785   22.7103 H   0  0  0  0  0  0
  -24.5875  -30.7094   25.7594 H   0  0  0  0  0  0
  -24.8858  -32.2967   26.4581 H   0  0  0  0  0  0
  -25.7880  -30.8994   27.0162 H   0  0  0  0  0  0
  -26.3146  -29.6471   24.1464 H   0  0  0  0  0  0
  -27.3971  -29.7235   25.5135 H   0  0  0  0  0  0
  -27.9108  -30.3962   23.9891 H   0  0  0  0  0  0
  -27.2624  -33.3651   26.1893 H   0  0  0  0  0  0
  -28.3936  -32.6765   25.0320 H   0  0  0  0  0  0
  -28.0670  -31.8510   26.5459 H   0  0  0  0  0  0
  -28.2558  -38.0085   24.7519 H   0  0  0  0  0  0
  -28.1111  -36.2611   24.6264 H   0  0  0  0  0  0
  -27.2309  -37.1386   25.8861 H   0  0  0  0  0  0
  -20.9561  -29.8780   21.6725 H   0  0  0  0  0  0
  -26.0116  -38.2713   24.1368 H   0  0  0  0  0  0
  -31.2344  -19.3320   20.9188 H   0  0  0  0  0  0
  -30.2921  -19.6653   22.3508 H   0  0  0  0  0  0
  -29.6076  -17.3117   22.5655 H   0  0  0  0  0  0
  -31.2708  -17.1816   22.0618 H   0  0  0  0  0  0
  -30.0624  -18.0296   18.9502 H   0  0  0  0  0  0
  -28.3981  -17.6524   19.2270 H   0  0  0  0  0  0
  -28.2296  -19.3598   21.1119 H   0  0  0  0  0  0
  -26.9969  -23.9647   19.9270 H   0  0  0  0  0  0
  -28.3300  -24.1402   18.8747 H   0  0  0  0  0  0
  -28.2951  -22.4010   21.4965 H   0  0  0  0  0  0
  -29.7987  -22.8005   20.7703 H   0  0  0  0  0  0
  1 25  1  0  0  0
  1 30  2  0  0  0
  1 77  1  0  0  0
  2  3  1  0  0  0
  2 25  1  0  0  0
  2 79  1  0  0  0
  2 80  1  0  0  0
  3  4  1  0  0  0
  3 81  1  0  0  0
  3 82  1  0  0  0
  4  5  1  0  0  0
  4 83  1  0  0  0
  4 84  1  0  0  0
  5  6  1  0  0  0
  5 26  1  0  0  0
  5 85  1  0  0  0
  6 25  1  0  0  0
  6 86  1  0  0  0
  6 87  1  0  0  0
  7  8  2  0  0  0
  7 26  1  0  0  0
  7 29  1  0  0  0
  8  9  1  0  0  0
  8 22  1  0  0  0
  9 10  1  0  0  0
  9 27  2  0  0  0
 10 11  2  0  0  0
 10 15  1  0  0  0
 11 12  1  0  0  0
 11 88  1  0  0  0
 12 13  2  0  0  0
 12 89  1  0  0  0
 13 14  1  0  0  0
 13 31  1  0  0  0
 14 15  2  0  0  0
 14 90  1  0  0  0
 15 91  1  0  0  0
 16 17  2  0  0  0
 16 21  1  0  0  0
 16 31  1  0  0  0
 17 18  1  0  0  0
 17 92  1  0  0  0
 18 19  2  0  0  0
 18 93  1  0  0  0
 19 20  1  0  0  0
 19 24  1  0  0  0
 20 21  2  0  0  0
 20 94  1  0  0  0
 21 23  1  0  0  0
 22 28  1  0  0  0
 22 32  2  0  0  0
 26 27  1  0  0  0
 28 95  1  0  0  0
 28 96  1  0  0  0
 29 97  1  0  0  0
 29 98  1  0  0  0
 33 34  1  0  0  0
 33 66  1  0  0  0
 33 70  2  0  0  0
 34 36  1  0  0  0
 34 59  1  0  0  0
 34 99  1  0  0  0
 35 44  2  0  0  0
 35 45  1  0  0  0
 35 68  1  0  0  0
 36 56  1  0  0  0
 36100  1  0  0  0
 37 39  1  0  0  0
 37 47  1  0  0  0
 37 66  1  0  0  0
 37101  1  0  0  0
 38 43  2  0  0  0
 38 46  1  0  0  0
 38 47  1  0  0  0
 39 64  1  0  0  0
 39 67  2  0  0  0
 40 52  1  0  0  0
 40 53  2  0  0  0
 40 58  1  0  0  0
 41102  1  0  0  0
 41103  1  0  0  0
 41104  1  0  0  0
 41 48  1  0  0  0
 42 43  1  0  0  0
 42 66  1  0  0  0
 42105  1  0  0  0
 42106  1  0  0  0
 43 44  1  0  0  0
 44107  1  0  0  0
 45 46  2  0  0  0
 45108  1  0  0  0
 46109  1  0  0  0
 47110  1  0  0  0
 47111  1  0  0  0
 48 56  1  0  0  0
 48 65  1  0  0  0
 48112  1  0  0  0
 49 50  1  0  0  0
 49 53  1  0  0  0
 49 64  1  0  0  0
 49113  1  0  0  0
 50 51  1  0  0  0
 50114  1  0  0  0
 50115  1  0  0  0
 51 52  1  0  0  0
 51116  1  0  0  0
 51117  1  0  0  0
 52118  1  0  0  0
 52119  1  0  0  0
 53 54  1  0  0  0
 54 55  2  0  0  0
 54120  1  0  0  0
 55 57  1  0  0  0
 55121  1  0  0  0
 56 69  2  0  0  0
 57 58  2  0  0  0
 57122  1  0  0  0
 58123  1  0  0  0
 59 60  1  0  0  0
 59 61  1  0  0  0
 59 62  1  0  0  0
 60124  1  0  0  0
 60125  1  0  0  0
 60126  1  0  0  0
 61127  1  0  0  0
 61128  1  0  0  0
 61129  1  0  0  0
 62130  1  0  0  0
 62131  1  0  0  0
 62132  1  0  0  0
 63 65  1  0  0  0
 63133  1  0  0  0
 63134  1  0  0  0
 63135  1  0  0  0
 64136  1  0  0  0
 65137  1  0  0  0
 68 75  1  0  0  0
 71 72  1  0  0  0
 71 74  1  0  0  0
 71138  1  0  0  0
 71139  1  0  0  0
 72 77  1  0  0  0
 72140  1  0  0  0
 72141  1  0  0  0
 73 74  1  0  0  0
 73 77  1  0  0  0
 73142  1  0  0  0
 73143  1  0  0  0
 74 78  1  0  0  0
 74144  1  0  0  0
 75 76  1  0  0  0
 75145  1  0  0  0
 75146  1  0  0  0
 76 78  1  0  0  0
 76147  1  0  0  0
 76148  1  0  0  0
M  ISO  4   1 100  68 101  75 101  77 100
M  END
> <chiral flag>
0

> <version>
0

> <s_m_source_file>
/data/baiqing/PycharmProjects/Reinvent-master-3.2/result/LINK_invent/BTK/process_docking_weight1_custom_sum_contain_oxygen_bond_distance_aromatic_linkinvent_7_9_3/rearranged_h_0189.sdf

> <i_m_source_file_index>
21

> <r_mmod_Potential_Energy-OPLS-2005>
1643.30578613281

> <r_mmod_Stretch_Energy-OPLS-2005>
650.764221191406

> <r_mmod_Bend_Energy-OPLS-2005>
560.429321289062

> <r_mmod_Torsional_Energy-OPLS-2005>
326.741729736328

> <r_mmod_Improper_Torsional_Energy-OPLS-2005>
6.03963327407837

> <r_mmod_Van_der_Waal_Energy-OPLS-2005>
107.880928039551

> <r_mmod_Electrostatic_Energy-OPLS-2005>
-301.208038330078

> <r_mmod_Solvation_Energy-OPLS-2005>
-206.958801269531

> <b_mmod_Minimization_Converged-OPLS-2005>
0

> <r_mmod_RMS_Derivative-OPLS-2005>
2.89256978034973

$$$$
21
                    3D
 Structure written by MMmdl.
150159  0  0  1  0            999 V2000
  -30.5346  -15.0209   20.4101 C   0  0  0  0  0  0
  -30.4370  -12.6396   19.5056 C   0  0  0  0  0  0
  -29.5231  -12.5354   18.2631 C   0  0  0  0  0  0
  -28.0598  -12.3077   18.6856 C   0  0  0  0  0  0
  -27.6233  -13.2559   19.8328 C   0  0  2  0  0  0
  -28.6647  -13.3300   20.9688 C   0  0  0  0  0  0
  -25.2434  -13.8226   20.5725 C   0  0  0  0  0  0
  -24.1763  -13.0439   20.9246 C   0  0  0  0  0  0
  -24.6392  -11.6930   20.8764 C   0  0  0  0  0  0
  -23.9081  -10.4294   21.0414 C   0  0  0  0  0  0
  -24.3629   -9.4204   21.9189 C   0  0  0  0  0  0
  -23.6301   -8.2238   22.0753 C   0  0  0  0  0  0
  -22.4280   -8.0282   21.3545 C   0  0  0  0  0  0
  -21.9921   -9.0258   20.4647 C   0  0  0  0  0  0
  -22.7253  -10.2137   20.3061 C   0  0  0  0  0  0
  -21.6853   -6.0741   22.5284 C   0  0  0  0  0  0
  -21.4013   -6.5643   23.8219 C   0  0  0  0  0  0
  -21.3658   -5.6792   24.9178 C   0  0  0  0  0  0
  -21.6045   -4.3056   24.7225 C   0  0  0  0  0  0
  -21.8817   -3.8151   23.4346 C   0  0  0  0  0  0
  -21.9189   -4.6969   22.3404 C   0  0  0  0  0  0
  -22.7781  -13.5203   21.1895 C   0  0  0  0  0  0
  -22.1659   -4.2155   21.0981 F   0  0  0  0  0  0
  -21.5625   -3.4538   25.7737 F   0  0  0  0  0  0
  -29.9290  -13.7590   20.3570 N   0  0  0  0  0  0
  -26.2859  -12.9473   20.3241 N   0  0  0  0  0  0
  -25.9327  -11.6594   20.5744 N   0  0  0  0  0  0
  -22.0432  -12.8190   22.0450 N   0  0  0  0  0  0
  -25.4077  -15.1958   20.4143 N   0  0  0  0  0  0
  -31.7484  -15.0466   20.1774 O   0  0  0  0  0  0
  -21.6639   -6.8884   21.4246 O   0  0  0  0  0  0
  -22.3463  -14.5506   20.6737 O   0  0  0  0  0  0
  -24.6500  -31.8393   23.1863 C   0  0  0  0  0  0
  -25.9249  -32.4669   23.8265 C   0  0  1  0  0  0
  -27.2060  -27.0693   20.1574 C   0  0  0  0  0  0
  -25.5975  -33.8480   24.2170 N   0  0  0  0  0  0
  -23.4562  -30.4594   21.5335 C   0  0  2  0  0  0
  -24.9055  -28.8811   20.1127 C   0  0  0  0  0  0
  -22.7600  -29.4526   22.4844 C   0  0  0  0  0  0
  -18.0310  -28.1402   22.8473 C   0  0  0  0  0  0
  -24.1492  -36.7234   23.2643 C   0  0  0  0  0  0
  -26.0192  -30.6901   21.3989 C   0  0  0  0  0  0
  -26.0874  -29.2965   20.7392 C   0  0  0  0  0  0
  -27.2387  -28.4089   20.7437 C   0  0  0  0  0  0
  -26.0005  -26.7881   19.4730 C   0  0  0  0  0  0
  -24.8796  -27.6425   19.4621 C   0  0  0  0  0  0
  -23.6870  -29.7915   20.1533 C   0  0  0  0  0  0
  -25.4129  -36.3013   24.0309 C   0  0  1  0  0  0
  -20.5926  -28.3733   23.1220 C   0  0  2  0  0  0
  -20.6793  -26.9431   22.5399 C   0  0  0  0  0  0
  -19.5768  -26.6383   21.5210 C   0  0  0  0  0  0
  -18.1949  -26.7939   22.1623 C   0  0  0  0  0  0
  -19.1567  -28.8888   23.2835 C   0  0  0  0  0  0
  -18.9482  -30.1480   23.8866 C   0  0  0  0  0  0
  -17.6478  -30.6597   24.0558 C   0  0  0  0  0  0
  -25.9085  -34.9392   23.5047 C   0  0  0  0  0  0
  -16.5368  -29.9086   23.6343 C   0  0  0  0  0  0
  -16.7293  -28.6506   23.0363 C   0  0  0  0  0  0
  -26.4548  -31.6562   25.0731 C   0  0  0  0  0  0
  -25.3712  -31.3769   26.1409 C   0  0  0  0  0  0
  -27.0427  -30.2946   24.6372 C   0  0  0  0  0  0
  -27.6061  -32.4347   25.7522 C   0  0  0  0  0  0
  -27.5573  -37.1777   24.8468 C   0  0  0  0  0  0
  -21.4285  -29.3049   22.3587 N   0  0  0  0  0  0
  -26.4285  -37.3733   23.9407 N   0  0  0  0  0  0
  -24.7286  -31.0190   22.0936 N   0  0  0  0  0  0
  -23.4214  -28.8068   23.3012 O   0  0  0  0  0  0
  -28.2210  -26.0201   20.2103 O   0  0  0  0  0  0
  -26.5670  -34.8898   22.4625 O   0  0  0  0  0  0
  -23.5603  -32.1302   23.7041 O   0  0  0  0  0  0
  -29.8016  -22.7325   19.3873 C   0  0  0  0  0  0
  -28.6899  -23.0727   20.2249 C   0  0  0  0  0  0
  -30.5033  -19.4714   21.7565 C   0  0  0  0  0  0
  -30.7041  -17.9993   21.9985 C   0  0  0  0  0  0
  -29.3602  -19.2923   20.7043 C   0  0  1  0  0  0
  -30.2624  -17.7840   20.5671 C   0  0  1  0  0  0
  -27.8048  -24.4929   20.3263 C   0  0  0  0  0  0
  -30.1427  -21.4402   19.4227 N   0  0  0  0  0  0
  -28.3797  -21.8540   20.7759 N   0  0  0  0  0  0
  -29.2629  -20.8305   20.2803 N   0  0  0  0  0  0
  -29.7913  -16.2496   20.5202 N   0  0  0  0  0  0
  -31.4686  -12.8026   19.1900 H   0  0  0  0  0  0
  -30.4425  -11.7026   20.0647 H   0  0  0  0  0  0
  -29.8569  -11.7262   17.6118 H   0  0  0  0  0  0
  -29.5969  -13.4523   17.6767 H   0  0  0  0  0  0
  -27.9719  -11.2717   19.0148 H   0  0  0  0  0  0
  -27.3943  -12.4127   17.8279 H   0  0  0  0  0  0
  -27.5715  -14.2475   19.3821 H   0  0  0  0  0  0
  -28.7716  -12.3683   21.4726 H   0  0  0  0  0  0
  -28.3515  -14.0469   21.7298 H   0  0  0  0  0  0
  -25.2770   -9.5676   22.4771 H   0  0  0  0  0  0
  -24.0006   -7.4625   22.7472 H   0  0  0  0  0  0
  -21.0851   -8.8788   19.8953 H   0  0  0  0  0  0
  -22.3715  -10.9683   19.6176 H   0  0  0  0  0  0
  -21.2010   -7.6152   23.9725 H   0  0  0  0  0  0
  -21.1480   -6.0523   25.9083 H   0  0  0  0  0  0
  -22.0596   -2.7614   23.2845 H   0  0  0  0  0  0
  -22.4051  -11.9856   22.4841 H   0  0  0  0  0  0
  -21.1051  -13.1216   22.2661 H   0  0  0  0  0  0
  -24.6344  -15.8436   20.5209 H   0  0  0  0  0  0
  -26.2444  -15.6375   20.0565 H   0  0  0  0  0  0
  -26.7310  -32.5249   23.0983 H   0  0  0  0  0  0
  -25.0104  -33.9590   25.0304 H   0  0  0  0  0  0
  -22.7622  -31.2878   21.3771 H   0  0  0  0  0  0
  -23.3763  -35.9555   23.3293 H   0  0  0  0  0  0
  -24.3573  -36.8882   22.2059 H   0  0  0  0  0  0
  -23.7237  -37.6422   23.6692 H   0  0  0  0  0  0
  -26.1878  -31.4421   20.6270 H   0  0  0  0  0  0
  -26.8847  -30.7377   22.0476 H   0  0  0  0  0  0
  -28.1356  -28.7220   21.2599 H   0  0  0  0  0  0
  -25.8750  -25.8657   18.9311 H   0  0  0  0  0  0
  -23.9837  -27.3261   18.9461 H   0  0  0  0  0  0
  -23.8325  -30.5666   19.4002 H   0  0  0  0  0  0
  -22.7996  -29.2398   19.8379 H   0  0  0  0  0  0
  -25.1320  -36.1833   25.0800 H   0  0  0  0  0  0
  -21.0013  -28.3325   24.1343 H   0  0  0  0  0  0
  -20.5690  -26.2345   23.3621 H   0  0  0  0  0  0
  -21.6658  -26.7436   22.1195 H   0  0  0  0  0  0
  -19.6929  -25.6285   21.1262 H   0  0  0  0  0  0
  -19.6705  -27.3174   20.6722 H   0  0  0  0  0  0
  -17.4215  -26.6675   21.4030 H   0  0  0  0  0  0
  -18.0355  -26.0090   22.9031 H   0  0  0  0  0  0
  -19.7956  -30.7304   24.2224 H   0  0  0  0  0  0
  -17.5032  -31.6277   24.5160 H   0  0  0  0  0  0
  -15.5368  -30.2980   23.7689 H   0  0  0  0  0  0
  -15.8691  -28.0816   22.7102 H   0  0  0  0  0  0
  -24.5906  -30.7104   25.7725 H   0  0  0  0  0  0
  -24.8887  -32.2955   26.4757 H   0  0  0  0  0  0
  -25.7981  -30.8995   27.0237 H   0  0  0  0  0  0
  -26.3069  -29.6653   24.1353 H   0  0  0  0  0  0
  -27.3976  -29.7272   25.4986 H   0  0  0  0  0  0
  -27.9006  -30.4159   23.9756 H   0  0  0  0  0  0
  -27.2644  -33.3675   26.2023 H   0  0  0  0  0  0
  -28.3917  -32.6867   25.0385 H   0  0  0  0  0  0
  -28.0682  -31.8526   26.5506 H   0  0  0  0  0  0
  -28.2584  -38.0079   24.7515 H   0  0  0  0  0  0
  -28.1077  -36.2608   24.6303 H   0  0  0  0  0  0
  -27.2289  -37.1428   25.8871 H   0  0  0  0  0  0
  -20.9510  -29.8752   21.6746 H   0  0  0  0  0  0
  -26.0146  -38.2796   24.1419 H   0  0  0  0  0  0
  -30.3303  -23.4065   18.7267 H   0  0  0  0  0  0
  -31.3988  -19.9454   21.3472 H   0  0  0  0  0  0
  -30.1864  -20.0057   22.6532 H   0  0  0  0  0  0
  -30.0073  -17.6010   22.7383 H   0  0  0  0  0  0
  -31.7333  -17.7082   22.2134 H   0  0  0  0  0  0
  -29.3923  -19.0658   19.6383 H   0  0  0  0  0  0
  -31.1138  -17.9294   19.8936 H   0  0  0  0  0  0
  -27.2628  -24.4494   21.2715 H   0  0  0  0  0  0
  -27.0294  -24.3362   19.5839 H   0  0  0  0  0  0
  -28.7964  -16.1129   20.6221 H   0  0  0  0  0  0
  1 25  1  0  0  0
  1 30  2  0  0  0
  1 81  1  0  0  0
  2  3  1  0  0  0
  2 25  1  0  0  0
  2 82  1  0  0  0
  2 83  1  0  0  0
  3  4  1  0  0  0
  3 84  1  0  0  0
  3 85  1  0  0  0
  4  5  1  0  0  0
  4 86  1  0  0  0
  4 87  1  0  0  0
  5  6  1  0  0  0
  5 26  1  0  0  0
  5 88  1  0  0  0
  6 25  1  0  0  0
  6 89  1  0  0  0
  6 90  1  0  0  0
  7  8  2  0  0  0
  7 26  1  0  0  0
  7 29  1  0  0  0
  8  9  1  0  0  0
  8 22  1  0  0  0
  9 10  1  0  0  0
  9 27  2  0  0  0
 10 11  2  0  0  0
 10 15  1  0  0  0
 11 12  1  0  0  0
 11 91  1  0  0  0
 12 13  2  0  0  0
 12 92  1  0  0  0
 13 14  1  0  0  0
 13 31  1  0  0  0
 14 15  2  0  0  0
 14 93  1  0  0  0
 15 94  1  0  0  0
 16 17  2  0  0  0
 16 21  1  0  0  0
 16 31  1  0  0  0
 17 18  1  0  0  0
 17 95  1  0  0  0
 18 19  2  0  0  0
 18 96  1  0  0  0
 19 20  1  0  0  0
 19 24  1  0  0  0
 20 21  2  0  0  0
 20 97  1  0  0  0
 21 23  1  0  0  0
 22 28  1  0  0  0
 22 32  2  0  0  0
 26 27  1  0  0  0
 28 98  1  0  0  0
 28 99  1  0  0  0
 29100  1  0  0  0
 29101  1  0  0  0
 33 34  1  0  0  0
 33 66  1  0  0  0
 33 70  2  0  0  0
 34 36  1  0  0  0
 34 59  1  0  0  0
 34102  1  0  0  0
 35 44  2  0  0  0
 35 45  1  0  0  0
 35 68  1  0  0  0
 36 56  1  0  0  0
 36103  1  0  0  0
 37 39  1  0  0  0
 37 47  1  0  0  0
 37 66  1  0  0  0
 37104  1  0  0  0
 38 43  2  0  0  0
 38 46  1  0  0  0
 38 47  1  0  0  0
 39 64  1  0  0  0
 39 67  2  0  0  0
 40 52  1  0  0  0
 40 53  2  0  0  0
 40 58  1  0  0  0
 41105  1  0  0  0
 41106  1  0  0  0
 41107  1  0  0  0
 41 48  1  0  0  0
 42 43  1  0  0  0
 42 66  1  0  0  0
 42108  1  0  0  0
 42109  1  0  0  0
 43 44  1  0  0  0
 44110  1  0  0  0
 45 46  2  0  0  0
 45111  1  0  0  0
 46112  1  0  0  0
 47113  1  0  0  0
 47114  1  0  0  0
 48 56  1  0  0  0
 48 65  1  0  0  0
 48115  1  0  0  0
 49 50  1  0  0  0
 49 53  1  0  0  0
 49 64  1  0  0  0
 49116  1  0  0  0
 50 51  1  0  0  0
 50117  1  0  0  0
 50118  1  0  0  0
 51 52  1  0  0  0
 51119  1  0  0  0
 51120  1  0  0  0
 52121  1  0  0  0
 52122  1  0  0  0
 53 54  1  0  0  0
 54 55  2  0  0  0
 54123  1  0  0  0
 55 57  1  0  0  0
 55124  1  0  0  0
 56 69  2  0  0  0
 57 58  2  0  0  0
 57125  1  0  0  0
 58126  1  0  0  0
 59 60  1  0  0  0
 59 61  1  0  0  0
 59 62  1  0  0  0
 60127  1  0  0  0
 60128  1  0  0  0
 60129  1  0  0  0
 61130  1  0  0  0
 61131  1  0  0  0
 61132  1  0  0  0
 62133  1  0  0  0
 62134  1  0  0  0
 62135  1  0  0  0
 63 65  1  0  0  0
 63136  1  0  0  0
 63137  1  0  0  0
 63138  1  0  0  0
 64139  1  0  0  0
 65140  1  0  0  0
 68 77  1  0  0  0
 71 72  1  0  0  0
 71 78  2  0  0  0
 71141  1  0  0  0
 72 77  1  0  0  0
 72 79  2  0  0  0
 73 74  1  0  0  0
 73 75  1  0  0  0
 73142  1  0  0  0
 73143  1  0  0  0
 74 76  1  0  0  0
 74144  1  0  0  0
 74145  1  0  0  0
 75 76  1  0  0  0
 75 80  1  0  0  0
 75146  1  0  0  0
 76 81  1  0  0  0
 76147  1  0  0  0
 77148  1  0  0  0
 77149  1  0  0  0
 78 80  1  0  0  0
 79 80  1  0  0  0
 81150  1  0  0  0
M  ISO  4   1 100  68 101  77 101  81 100
M  END
> <chiral flag>
0

> <version>
0

> <s_m_source_file>
/data/baiqing/PycharmProjects/Reinvent-master-3.2/result/LINK_invent/BTK/process_docking_weight1_custom_sum_contain_oxygen_bond_distance_aromatic_linkinvent_7_9_3/rearranged_h_0189.sdf

> <i_m_source_file_index>
22

> <r_mmod_Potential_Energy-OPLS-2005>
966.929565429688

> <r_mmod_Stretch_Energy-OPLS-2005>
347.290771484375

> <r_mmod_Bend_Energy-OPLS-2005>
527.057861328125

> <r_mmod_Torsional_Energy-OPLS-2005>
253.041412353516

> <r_mmod_Improper_Torsional_Energy-OPLS-2005>
5.29475688934326

> <r_mmod_Van_der_Waal_Energy-OPLS-2005>
121.04345703125

> <r_mmod_Electrostatic_Energy-OPLS-2005>
-315.102264404297

> <r_mmod_Solvation_Energy-OPLS-2005>
-226.446578979492

> <b_mmod_Minimization_Converged-OPLS-2005>
0

> <r_mmod_RMS_Derivative-OPLS-2005>
0.612252652645111

$$$$
22
                    3D
 Structure written by MMmdl.
162170  0  0  1  0            999 V2000
  -30.5329  -14.9737   20.5191 C   0  0  0  0  0  0
  -30.4474  -12.6265   19.5020 C   0  0  0  0  0  0
  -29.5281  -12.5575   18.2563 C   0  0  0  0  0  0
  -28.0590  -12.3242   18.6583 C   0  0  0  0  0  0
  -27.6296  -13.2380   19.8310 C   0  0  2  0  0  0
  -28.6611  -13.2098   20.9692 C   0  0  0  0  0  0
  -25.2478  -13.8184   20.5664 C   0  0  0  0  0  0
  -24.1784  -13.0426   20.9194 C   0  0  0  0  0  0
  -24.6384  -11.6906   20.8716 C   0  0  0  0  0  0
  -23.9066  -10.4285   21.0399 C   0  0  0  0  0  0
  -24.3621   -9.4206   21.9182 C   0  0  0  0  0  0
  -23.6294   -8.2242   22.0755 C   0  0  0  0  0  0
  -22.4275   -8.0279   21.3546 C   0  0  0  0  0  0
  -21.9909   -9.0250   20.4648 C   0  0  0  0  0  0
  -22.7237  -10.2127   20.3052 C   0  0  0  0  0  0
  -21.6854   -6.0734   22.5281 C   0  0  0  0  0  0
  -21.4014   -6.5639   23.8214 C   0  0  0  0  0  0
  -21.3659   -5.6792   24.9177 C   0  0  0  0  0  0
  -21.6043   -4.3054   24.7226 C   0  0  0  0  0  0
  -21.8820   -3.8145   23.4348 C   0  0  0  0  0  0
  -21.9193   -4.6962   22.3404 C   0  0  0  0  0  0
  -22.7813  -13.5212   21.1879 C   0  0  0  0  0  0
  -22.1662   -4.2149   21.0981 F   0  0  0  0  0  0
  -21.5628   -3.4538   25.7739 F   0  0  0  0  0  0
  -29.9416  -13.6993   20.4178 N   0  0  0  0  0  0
  -26.2861  -12.9384   20.3123 N   0  0  0  0  0  0
  -25.9300  -11.6529   20.5648 N   0  0  0  0  0  0
  -22.0463  -12.8197   22.0435 N   0  0  0  0  0  0
  -25.4206  -15.1914   20.4157 N   0  0  0  0  0  0
  -31.6832  -15.0754   20.0742 O   0  0  0  0  0  0
  -21.6639   -6.8875   21.4243 O   0  0  0  0  0  0
  -22.3501  -14.5524   20.6737 O   0  0  0  0  0  0
  -24.6444  -31.8417   23.1841 C   0  0  0  0  0  0
  -25.9207  -32.4683   23.8245 C   0  0  1  0  0  0
  -27.2242  -27.1208   20.1658 C   0  0  0  0  0  0
  -25.5948  -33.8489   24.2164 N   0  0  0  0  0  0
  -23.4487  -30.4576   21.5306 C   0  0  2  0  0  0
  -24.8983  -28.8686   20.1212 C   0  0  0  0  0  0
  -22.7569  -29.4536   22.4863 C   0  0  0  0  0  0
  -18.0305  -28.1398   22.8475 C   0  0  0  0  0  0
  -24.1494  -36.7250   23.2644 C   0  0  0  0  0  0
  -26.0041  -30.7117   21.3819 C   0  0  0  0  0  0
  -26.0765  -29.3168   20.7325 C   0  0  0  0  0  0
  -27.2429  -28.4620   20.7279 C   0  0  0  0  0  0
  -26.0166  -26.7622   19.5350 C   0  0  0  0  0  0
  -24.8806  -27.6046   19.5081 C   0  0  0  0  0  0
  -23.6768  -29.7759   20.1546 C   0  0  0  0  0  0
  -25.4127  -36.3023   24.0311 C   0  0  1  0  0  0
  -20.5916  -28.3723   23.1241 C   0  0  2  0  0  0
  -20.6789  -26.9426   22.5409 C   0  0  0  0  0  0
  -19.5765  -26.6382   21.5217 C   0  0  0  0  0  0
  -18.1944  -26.7935   22.1623 C   0  0  0  0  0  0
  -19.1559  -28.8878   23.2849 C   0  0  0  0  0  0
  -18.9478  -30.1473   23.8876 C   0  0  0  0  0  0
  -17.6475  -30.6594   24.0559 C   0  0  0  0  0  0
  -25.9078  -34.9401   23.5049 C   0  0  0  0  0  0
  -16.5366  -29.9085   23.6338 C   0  0  0  0  0  0
  -16.7290  -28.6504   23.0357 C   0  0  0  0  0  0
  -26.4526  -31.6560   25.0695 C   0  0  0  0  0  0
  -25.3707  -31.3749   26.1387 C   0  0  0  0  0  0
  -27.0392  -30.2957   24.6277 C   0  0  0  0  0  0
  -27.6049  -32.4335   25.7485 C   0  0  0  0  0  0
  -27.5573  -37.1782   24.8465 C   0  0  0  0  0  0
  -21.4260  -29.3046   22.3612 N   0  0  0  0  0  0
  -26.4287  -37.3740   23.9405 N   0  0  0  0  0  0
  -24.7191  -31.0258   22.0878 N   0  0  0  0  0  0
  -23.4204  -28.8099   23.3031 O   0  0  0  0  0  0
  -28.3160  -26.1809   20.1143 O   0  0  0  0  0  0
  -26.5671  -34.8905   22.4633 O   0  0  0  0  0  0
  -23.5560  -32.1298   23.7055 O   0  0  0  0  0  0
  -29.9470  -18.2282   22.4079 C   0  0  0  0  0  0
  -29.3974  -15.9419   22.4000 C   0  0  0  0  0  0
  -30.1339  -16.9838   23.2395 C   0  0  2  0  0  0
  -30.0344  -17.7400   20.9515 C   0  0  2  0  0  0
  -29.9645  -15.9796   25.5173 C   0  0  0  0  0  0
  -29.2487  -18.9080   20.0080 C   0  0  0  0  0  0
  -28.3450  -23.1944   19.9289 C   0  0  0  0  0  0
  -29.2793  -21.8098   20.3057 C   0  0  0  0  0  0
  -28.3189  -24.7208   20.6765 C   0  0  0  0  0  0
  -29.8133  -16.1332   20.9926 N   0  0  0  0  0  0
  -29.6386  -17.1144   24.6298 N   0  3  0  0  0  0
  -28.7046  -20.3381   20.4979 N   0  3  0  0  0  0
  -31.4757  -12.8079   19.1864 H   0  0  0  0  0  0
  -30.4720  -11.6634   20.0145 H   0  0  0  0  0  0
  -29.8616  -11.7674   17.5821 H   0  0  0  0  0  0
  -29.6073  -13.4904   17.6961 H   0  0  0  0  0  0
  -27.9570  -11.2784   18.9515 H   0  0  0  0  0  0
  -27.4004  -12.4667   17.8008 H   0  0  0  0  0  0
  -27.6079  -14.2529   19.4327 H   0  0  0  0  0  0
  -28.7675  -12.1999   21.3681 H   0  0  0  0  0  0
  -28.2687  -13.7947   21.7924 H   0  0  0  0  0  0
  -25.2769   -9.5682   22.4751 H   0  0  0  0  0  0
  -24.0003   -7.4634   22.7475 H   0  0  0  0  0  0
  -21.0840   -8.8766   19.8956 H   0  0  0  0  0  0
  -22.3697  -10.9662   19.6156 H   0  0  0  0  0  0
  -21.2006   -7.6147   23.9717 H   0  0  0  0  0  0
  -21.1479   -6.0522   25.9079 H   0  0  0  0  0  0
  -22.0598   -2.7607   23.2848 H   0  0  0  0  0  0
  -22.4078  -11.9845   22.4798 H   0  0  0  0  0  0
  -21.1082  -13.1218   22.2649 H   0  0  0  0  0  0
  -24.6555  -15.8470   20.5303 H   0  0  0  0  0  0
  -26.2720  -15.6281   20.0869 H   0  0  0  0  0  0
  -26.7271  -32.5288   23.0971 H   0  0  0  0  0  0
  -25.0069  -33.9602   25.0293 H   0  0  0  0  0  0
  -22.7523  -31.2832   21.3698 H   0  0  0  0  0  0
  -23.3760  -35.9578   23.3294 H   0  0  0  0  0  0
  -24.3578  -36.8899   22.2061 H   0  0  0  0  0  0
  -23.7248  -37.6441   23.6696 H   0  0  0  0  0  0
  -26.1572  -31.4615   20.6044 H   0  0  0  0  0  0
  -26.8754  -30.7678   22.0228 H   0  0  0  0  0  0
  -28.1518  -28.8122   21.1968 H   0  0  0  0  0  0
  -25.9471  -25.7939   19.0597 H   0  0  0  0  0  0
  -23.9803  -27.2554   19.0214 H   0  0  0  0  0  0
  -23.8173  -30.5447   19.3937 H   0  0  0  0  0  0
  -22.7910  -29.2183   19.8452 H   0  0  0  0  0  0
  -25.1319  -36.1843   25.0804 H   0  0  0  0  0  0
  -21.0005  -28.3311   24.1364 H   0  0  0  0  0  0
  -20.5688  -26.2334   23.3625 H   0  0  0  0  0  0
  -21.6654  -26.7436   22.1202 H   0  0  0  0  0  0
  -19.6928  -25.6290   21.1257 H   0  0  0  0  0  0
  -19.6702  -27.3183   20.6739 H   0  0  0  0  0  0
  -17.4214  -26.6686   21.4024 H   0  0  0  0  0  0
  -18.0337  -26.0084   22.9024 H   0  0  0  0  0  0
  -19.7954  -30.7294   24.2235 H   0  0  0  0  0  0
  -17.5029  -31.6272   24.5163 H   0  0  0  0  0  0
  -15.5366  -30.2979   23.7674 H   0  0  0  0  0  0
  -15.8691  -28.0815   22.7085 H   0  0  0  0  0  0
  -24.5897  -30.7086   25.7706 H   0  0  0  0  0  0
  -24.8883  -32.2930   26.4754 H   0  0  0  0  0  0
  -25.7986  -30.8962   27.0204 H   0  0  0  0  0  0
  -26.3005  -29.6675   24.1285 H   0  0  0  0  0  0
  -27.4010  -29.7263   25.4850 H   0  0  0  0  0  0
  -27.8909  -30.4196   23.9585 H   0  0  0  0  0  0
  -27.2637  -33.3664   26.1987 H   0  0  0  0  0  0
  -28.3896  -32.6852   25.0338 H   0  0  0  0  0  0
  -28.0673  -31.8509   26.5463 H   0  0  0  0  0  0
  -28.2580  -38.0088   24.7509 H   0  0  0  0  0  0
  -28.1077  -36.2614   24.6295 H   0  0  0  0  0  0
  -27.2288  -37.1430   25.8868 H   0  0  0  0  0  0
  -20.9476  -29.8745   21.6774 H   0  0  0  0  0  0
  -26.0148  -38.2805   24.1411 H   0  0  0  0  0  0
  -30.6857  -18.9986   22.6356 H   0  0  0  0  0  0
  -28.9588  -18.6445   22.6072 H   0  0  0  0  0  0
  -28.3150  -16.0625   22.4712 H   0  0  0  0  0  0
  -29.6549  -14.9689   22.8220 H   0  0  0  0  0  0
  -31.1991  -16.7418   23.2681 H   0  0  0  0  0  0
  -31.0866  -17.8266   20.6739 H   0  0  0  0  0  0
  -29.6265  -16.1885   26.5325 H   0  0  0  0  0  0
  -31.0400  -15.8039   25.5538 H   0  0  0  0  0  0
  -29.4762  -15.0620   25.1891 H   0  0  0  0  0  0
  -28.3493  -18.4088   19.6468 H   0  0  0  0  0  0
  -29.8328  -19.0741   19.1023 H   0  0  0  0  0  0
  -27.3061  -22.8686   19.8812 H   0  0  0  0  0  0
  -28.5803  -23.4041   18.8855 H   0  0  0  0  0  0
  -29.8521  -22.0321   21.2059 H   0  0  0  0  0  0
  -30.0377  -21.7281   19.5266 H   0  0  0  0  0  0
  -29.2155  -24.7224   21.2964 H   0  0  0  0  0  0
  -27.5114  -24.6880   21.4087 H   0  0  0  0  0  0
  -28.6409  -17.2553   24.6373 H   0  0  0  0  0  0
  -30.0571  -17.9355   25.0383 H   0  0  0  0  0  0
  -28.4214  -20.2506   21.4593 H   0  0  0  0  0  0
  -27.8360  -20.3919   19.9907 H   0  0  0  0  0  0
  1 25  1  0  0  0
  1 30  2  0  0  0
  1 80  1  0  0  0
  2  3  1  0  0  0
  2 25  1  0  0  0
  2 83  1  0  0  0
  2 84  1  0  0  0
  3  4  1  0  0  0
  3 85  1  0  0  0
  3 86  1  0  0  0
  4  5  1  0  0  0
  4 87  1  0  0  0
  4 88  1  0  0  0
  5  6  1  0  0  0
  5 26  1  0  0  0
  5 89  1  0  0  0
  6 25  1  0  0  0
  6 90  1  0  0  0
  6 91  1  0  0  0
  7  8  2  0  0  0
  7 26  1  0  0  0
  7 29  1  0  0  0
  8  9  1  0  0  0
  8 22  1  0  0  0
  9 10  1  0  0  0
  9 27  2  0  0  0
 10 11  2  0  0  0
 10 15  1  0  0  0
 11 12  1  0  0  0
 11 92  1  0  0  0
 12 13  2  0  0  0
 12 93  1  0  0  0
 13 14  1  0  0  0
 13 31  1  0  0  0
 14 15  2  0  0  0
 14 94  1  0  0  0
 15 95  1  0  0  0
 16 17  2  0  0  0
 16 21  1  0  0  0
 16 31  1  0  0  0
 17 18  1  0  0  0
 17 96  1  0  0  0
 18 19  2  0  0  0
 18 97  1  0  0  0
 19 20  1  0  0  0
 19 24  1  0  0  0
 20 21  2  0  0  0
 20 98  1  0  0  0
 21 23  1  0  0  0
 22 28  1  0  0  0
 22 32  2  0  0  0
 26 27  1  0  0  0
 28 99  1  0  0  0
 28100  1  0  0  0
 29101  1  0  0  0
 29102  1  0  0  0
 33 34  1  0  0  0
 33 66  1  0  0  0
 33 70  2  0  0  0
 34 36  1  0  0  0
 34 59  1  0  0  0
 34103  1  0  0  0
 35 44  2  0  0  0
 35 45  1  0  0  0
 35 68  1  0  0  0
 36 56  1  0  0  0
 36104  1  0  0  0
 37 39  1  0  0  0
 37 47  1  0  0  0
 37 66  1  0  0  0
 37105  1  0  0  0
 38 43  2  0  0  0
 38 46  1  0  0  0
 38 47  1  0  0  0
 39 64  1  0  0  0
 39 67  2  0  0  0
 40 52  1  0  0  0
 40 53  2  0  0  0
 40 58  1  0  0  0
 41106  1  0  0  0
 41107  1  0  0  0
 41108  1  0  0  0
 41 48  1  0  0  0
 42 43  1  0  0  0
 42 66  1  0  0  0
 42109  1  0  0  0
 42110  1  0  0  0
 43 44  1  0  0  0
 44111  1  0  0  0
 45 46  2  0  0  0
 45112  1  0  0  0
 46113  1  0  0  0
 47114  1  0  0  0
 47115  1  0  0  0
 48 56  1  0  0  0
 48 65  1  0  0  0
 48116  1  0  0  0
 49 50  1  0  0  0
 49 53  1  0  0  0
 49 64  1  0  0  0
 49117  1  0  0  0
 50 51  1  0  0  0
 50118  1  0  0  0
 50119  1  0  0  0
 51 52  1  0  0  0
 51120  1  0  0  0
 51121  1  0  0  0
 52122  1  0  0  0
 52123  1  0  0  0
 53 54  1  0  0  0
 54 55  2  0  0  0
 54124  1  0  0  0
 55 57  1  0  0  0
 55125  1  0  0  0
 56 69  2  0  0  0
 57 58  2  0  0  0
 57126  1  0  0  0
 58127  1  0  0  0
 59 60  1  0  0  0
 59 61  1  0  0  0
 59 62  1  0  0  0
 60128  1  0  0  0
 60129  1  0  0  0
 60130  1  0  0  0
 61131  1  0  0  0
 61132  1  0  0  0
 61133  1  0  0  0
 62134  1  0  0  0
 62135  1  0  0  0
 62136  1  0  0  0
 63 65  1  0  0  0
 63137  1  0  0  0
 63138  1  0  0  0
 63139  1  0  0  0
 64140  1  0  0  0
 65141  1  0  0  0
 68 79  1  0  0  0
 71 73  1  0  0  0
 71 74  1  0  0  0
 71142  1  0  0  0
 71143  1  0  0  0
 72 73  1  0  0  0
 72 80  1  0  0  0
 72144  1  0  0  0
 72145  1  0  0  0
 73 81  1  0  0  0
 73146  1  0  0  0
 74 76  1  0  0  0
 74 80  1  0  0  0
 74147  1  0  0  0
 75 81  1  0  0  0
 75148  1  0  0  0
 75149  1  0  0  0
 75150  1  0  0  0
 76 82  1  0  0  0
 76151  1  0  0  0
 76152  1  0  0  0
 77 78  1  0  0  0
 77 79  1  0  0  0
 77153  1  0  0  0
 77154  1  0  0  0
 78 82  1  0  0  0
 78155  1  0  0  0
 78156  1  0  0  0
 79157  1  0  0  0
 79158  1  0  0  0
 81159  1  0  0  0
 81160  1  0  0  0
 82161  1  0  0  0
 82162  1  0  0  0
M  CHG  2  81   1  82   1
M  ISO  4   1 100  68 101  79 101  80 100
M  END
> <chiral flag>
0

> <version>
0

> <s_m_source_file>
/data/baiqing/PycharmProjects/Reinvent-master-3.2/result/LINK_invent/BTK/process_docking_weight1_custom_sum_contain_oxygen_bond_distance_aromatic_linkinvent_7_9_3/rearranged_h_0189.sdf

> <i_m_source_file_index>
23

> <r_mmod_Potential_Energy-OPLS-2005>
555.51953125

> <r_mmod_Stretch_Energy-OPLS-2005>
320.228424072266

> <r_mmod_Bend_Energy-OPLS-2005>
402.805419921875

> <r_mmod_Torsional_Energy-OPLS-2005>
399.204895019531

> <r_mmod_Improper_Torsional_Energy-OPLS-2005>
7.18144178390503

> <r_mmod_Van_der_Waal_Energy-OPLS-2005>
116.157684326172

> <r_mmod_Electrostatic_Energy-OPLS-2005>
111.798095703125

> <r_mmod_Solvation_Energy-OPLS-2005>
-995.675903320312

> <b_mmod_Minimization_Converged-OPLS-2005>
0

> <r_mmod_RMS_Derivative-OPLS-2005>
0.40730357170105

$$$$
23
                    3D
 Structure written by MMmdl.
152160  0  0  1  0            999 V2000
  -30.4420  -15.3138   20.3801 C   0  0  0  0  0  0
  -30.4300  -12.8456   19.5334 C   0  0  0  0  0  0
  -29.5334  -12.5948   18.2944 C   0  0  0  0  0  0
  -28.0851  -12.3084   18.7229 C   0  0  0  0  0  0
  -27.6088  -13.2830   19.8285 C   0  0  2  0  0  0
  -28.6415  -13.4709   20.9624 C   0  0  0  0  0  0
  -25.2343  -13.8247   20.5733 C   0  0  0  0  0  0
  -24.1714  -13.0428   20.9254 C   0  0  0  0  0  0
  -24.6391  -11.6932   20.8771 C   0  0  0  0  0  0
  -23.9092  -10.4287   21.0406 C   0  0  0  0  0  0
  -24.3636   -9.4200   21.9184 C   0  0  0  0  0  0
  -23.6300   -8.2240   22.0756 C   0  0  0  0  0  0
  -22.4280   -8.0283   21.3547 C   0  0  0  0  0  0
  -21.9922   -9.0257   20.4646 C   0  0  0  0  0  0
  -22.7262  -10.2130   20.3055 C   0  0  0  0  0  0
  -21.6855   -6.0734   22.5277 C   0  0  0  0  0  0
  -21.4014   -6.5637   23.8211 C   0  0  0  0  0  0
  -21.3659   -5.6791   24.9172 C   0  0  0  0  0  0
  -21.6045   -4.3054   24.7223 C   0  0  0  0  0  0
  -21.8819   -3.8144   23.4345 C   0  0  0  0  0  0
  -21.9194   -4.6960   22.3401 C   0  0  0  0  0  0
  -22.7734  -13.5178   21.1899 C   0  0  0  0  0  0
  -22.1665   -4.2146   21.0978 F   0  0  0  0  0  0
  -21.5627   -3.4539   25.7736 F   0  0  0  0  0  0
  -29.8626  -14.0037   20.3316 N   0  0  0  0  0  0
  -26.2796  -12.9550   20.3251 N   0  0  0  0  0  0
  -25.9334  -11.6647   20.5743 N   0  0  0  0  0  0
  -22.0402  -12.8161   22.0461 N   0  0  0  0  0  0
  -25.3926  -15.1971   20.4113 N   0  0  0  0  0  0
  -31.6522  -15.2742   20.1048 O   0  0  0  0  0  0
  -21.6645   -6.8879   21.4240 O   0  0  0  0  0  0
  -22.3411  -14.5484   20.6745 O   0  0  0  0  0  0
  -24.6655  -31.8198   23.1671 C   0  0  0  0  0  0
  -25.9323  -32.4565   23.8150 C   0  0  1  0  0  0
  -27.2185  -26.8942   20.1893 C   0  0  0  0  0  0
  -25.5976  -33.8382   24.2051 N   0  0  0  0  0  0
  -23.4815  -30.4299   21.5162 C   0  0  2  0  0  0
  -24.9363  -28.8100   20.1094 C   0  0  0  0  0  0
  -22.7677  -29.4422   22.4762 C   0  0  0  0  0  0
  -18.0326  -28.1412   22.8468 C   0  0  0  0  0  0
  -24.1493  -36.7198   23.2649 C   0  0  0  0  0  0
  -26.0520  -30.6148   21.4031 C   0  0  0  0  0  0
  -26.1185  -29.2012   20.7485 C   0  0  0  0  0  0
  -27.2510  -28.2639   20.7651 C   0  0  0  0  0  0
  -26.0108  -26.6669   19.4902 C   0  0  0  0  0  0
  -24.9102  -27.5651   19.4591 C   0  0  0  0  0  0
  -23.7232  -29.7418   20.1435 C   0  0  0  0  0  0
  -25.4135  -36.2953   24.0297 C   0  0  1  0  0  0
  -20.5951  -28.3759   23.1182 C   0  0  2  0  0  0
  -20.6797  -26.9435   22.5404 C   0  0  0  0  0  0
  -19.5773  -26.6377   21.5214 C   0  0  0  0  0  0
  -18.1956  -26.7945   22.1623 C   0  0  0  0  0  0
  -19.1588  -28.8908   23.2812 C   0  0  0  0  0  0
  -18.9497  -30.1497   23.8848 C   0  0  0  0  0  0
  -17.6490  -30.6600   24.0557 C   0  0  0  0  0  0
  -25.9102  -34.9338   23.5001 C   0  0  0  0  0  0
  -16.5381  -29.9087   23.6345 C   0  0  0  0  0  0
  -16.7308  -28.6509   23.0363 C   0  0  0  0  0  0
  -26.4564  -31.6528   25.0697 C   0  0  0  0  0  0
  -25.3679  -31.3791   26.1348 C   0  0  0  0  0  0
  -27.0471  -30.2891   24.6461 C   0  0  0  0  0  0
  -27.6045  -32.4350   25.7501 C   0  0  0  0  0  0
  -27.5566  -37.1758   24.8468 C   0  0  0  0  0  0
  -21.4343  -29.3040   22.3517 N   0  0  0  0  0  0
  -26.4278  -37.3693   23.9407 N   0  0  0  0  0  0
  -24.7544  -30.9829   22.0823 N   0  0  0  0  0  0
  -23.4214  -28.7993   23.3013 O   0  0  0  0  0  0
  -28.2143  -25.7762   20.3051 O   0  0  0  0  0  0
  -26.5721  -34.8881   22.4601 O   0  0  0  0  0  0
  -23.5719  -32.1188   23.6743 O   0  0  0  0  0  0
  -28.6132  -17.0451   21.3136 C   0  0  0  0  0  0
  -30.0335  -18.1513   19.9038 C   0  0  0  0  0  0
  -28.1074  -18.5611   21.0781 C   0  0  2  0  0  0
  -29.2632  -19.5188   20.6373 C   0  0  2  0  0  0
  -28.7979  -22.5865   20.6129 C   0  0  0  0  0  0
  -28.0743  -24.1416   19.9782 C   0  0  0  0  0  0
  -29.7368  -16.6441   20.4292 N   0  0  0  0  0  0
  -27.4548  -19.0288   22.2896 N   0  0  0  0  0  0
  -28.8542  -21.0214   19.9810 N   0  3  0  0  0  0
  -31.4491  -13.0417   19.1980 H   0  0  0  0  0  0
  -30.5012  -11.9457   20.1464 H   0  0  0  0  0  0
  -29.9221  -11.7669   17.7002 H   0  0  0  0  0  0
  -29.5560  -13.4738   17.6484 H   0  0  0  0  0  0
  -28.0478  -11.2844   19.0971 H   0  0  0  0  0  0
  -27.4160  -12.3442   17.8622 H   0  0  0  0  0  0
  -27.5185  -14.2479   19.3278 H   0  0  0  0  0  0
  -28.8247  -12.5359   21.4936 H   0  0  0  0  0  0
  -28.2711  -14.1739   21.7082 H   0  0  0  0  0  0
  -25.2777   -9.5678   22.4765 H   0  0  0  0  0  0
  -24.0005   -7.4632   22.7479 H   0  0  0  0  0  0
  -21.0851   -8.8782   19.8954 H   0  0  0  0  0  0
  -22.3719  -10.9671   19.6169 H   0  0  0  0  0  0
  -21.2008   -7.6146   23.9712 H   0  0  0  0  0  0
  -21.1482   -6.0520   25.9075 H   0  0  0  0  0  0
  -22.0597   -2.7605   23.2846 H   0  0  0  0  0  0
  -22.4040  -11.9834   22.4850 H   0  0  0  0  0  0
  -21.1016  -13.1170   22.2673 H   0  0  0  0  0  0
  -24.6229  -15.8459   20.5344 H   0  0  0  0  0  0
  -26.2372  -15.6428   20.0796 H   0  0  0  0  0  0
  -26.7393  -32.5094   23.0861 H   0  0  0  0  0  0
  -25.0058  -33.9453   25.0158 H   0  0  0  0  0  0
  -22.7961  -31.2622   21.3423 H   0  0  0  0  0  0
  -23.3763  -35.9520   23.3286 H   0  0  0  0  0  0
  -24.3562  -36.8871   22.2066 H   0  0  0  0  0  0
  -23.7248  -37.6378   23.6724 H   0  0  0  0  0  0
  -26.2368  -31.3531   20.6215 H   0  0  0  0  0  0
  -26.9102  -30.6728   22.0606 H   0  0  0  0  0  0
  -28.1417  -28.5589   21.3014 H   0  0  0  0  0  0
  -25.8765  -25.7186   18.9907 H   0  0  0  0  0  0
  -24.0134  -27.2614   18.9368 H   0  0  0  0  0  0
  -23.8810  -30.5090   19.3847 H   0  0  0  0  0  0
  -22.8320  -29.1981   19.8252 H   0  0  0  0  0  0
  -25.1335  -36.1742   25.0788 H   0  0  0  0  0  0
  -21.0047  -28.3374   24.1304 H   0  0  0  0  0  0
  -20.5671  -26.2378   23.3648 H   0  0  0  0  0  0
  -21.6660  -26.7402   22.1215 H   0  0  0  0  0  0
  -19.6928  -25.6274   21.1278 H   0  0  0  0  0  0
  -19.6710  -27.3156   20.6720 H   0  0  0  0  0  0
  -17.4221  -26.6690   21.4030 H   0  0  0  0  0  0
  -18.0351  -26.0098   22.9031 H   0  0  0  0  0  0
  -19.7971  -30.7329   24.2192 H   0  0  0  0  0  0
  -17.5040  -31.6274   24.5169 H   0  0  0  0  0  0
  -15.5378  -30.2973   23.7696 H   0  0  0  0  0  0
  -15.8709  -28.0810   22.7106 H   0  0  0  0  0  0
  -24.5873  -30.7127   25.7657 H   0  0  0  0  0  0
  -24.8856  -32.2997   26.4642 H   0  0  0  0  0  0
  -25.7904  -30.9044   27.0212 H   0  0  0  0  0  0
  -26.3151  -29.6549   24.1449 H   0  0  0  0  0  0
  -27.3968  -29.7276   25.5134 H   0  0  0  0  0  0
  -27.9103  -30.4061   23.9907 H   0  0  0  0  0  0
  -27.2603  -33.3694   26.1943 H   0  0  0  0  0  0
  -28.3926  -32.6842   25.0383 H   0  0  0  0  0  0
  -28.0637  -31.8571   26.5530 H   0  0  0  0  0  0
  -28.2571  -38.0063   24.7498 H   0  0  0  0  0  0
  -28.1074  -36.2588   24.6318 H   0  0  0  0  0  0
  -27.2278  -37.1424   25.8870 H   0  0  0  0  0  0
  -20.9599  -29.8724   21.6638 H   0  0  0  0  0  0
  -26.0123  -38.2752   24.1404 H   0  0  0  0  0  0
  -27.7809  -16.3553   21.1879 H   0  0  0  0  0  0
  -28.9646  -16.9174   22.3388 H   0  0  0  0  0  0
  -31.1129  -18.3054   19.9188 H   0  0  0  0  0  0
  -29.7629  -18.1464   18.8476 H   0  0  0  0  0  0
  -27.3681  -18.5407   20.2751 H   0  0  0  0  0  0
  -29.8759  -19.7561   21.5080 H   0  0  0  0  0  0
  -28.3656  -22.4611   21.6052 H   0  0  0  0  0  0
  -29.8439  -22.8214   20.8081 H   0  0  0  0  0  0
  -27.0005  -23.9634   20.0267 H   0  0  0  0  0  0
  -28.2900  -24.1114   18.9104 H   0  0  0  0  0  0
  -28.1361  -19.0940   23.0396 H   0  0  0  0  0  0
  -27.1357  -19.9840   22.1632 H   0  0  0  0  0  0
  -27.9475  -20.8681   19.5702 H   0  0  0  0  0  0
  -29.4734  -21.1096   19.1915 H   0  0  0  0  0  0
  1 25  1  0  0  0
  1 30  2  0  0  0
  1 77  1  0  0  0
  2  3  1  0  0  0
  2 25  1  0  0  0
  2 80  1  0  0  0
  2 81  1  0  0  0
  3  4  1  0  0  0
  3 82  1  0  0  0
  3 83  1  0  0  0
  4  5  1  0  0  0
  4 84  1  0  0  0
  4 85  1  0  0  0
  5  6  1  0  0  0
  5 26  1  0  0  0
  5 86  1  0  0  0
  6 25  1  0  0  0
  6 87  1  0  0  0
  6 88  1  0  0  0
  7  8  2  0  0  0
  7 26  1  0  0  0
  7 29  1  0  0  0
  8  9  1  0  0  0
  8 22  1  0  0  0
  9 10  1  0  0  0
  9 27  2  0  0  0
 10 11  2  0  0  0
 10 15  1  0  0  0
 11 12  1  0  0  0
 11 89  1  0  0  0
 12 13  2  0  0  0
 12 90  1  0  0  0
 13 14  1  0  0  0
 13 31  1  0  0  0
 14 15  2  0  0  0
 14 91  1  0  0  0
 15 92  1  0  0  0
 16 17  2  0  0  0
 16 21  1  0  0  0
 16 31  1  0  0  0
 17 18  1  0  0  0
 17 93  1  0  0  0
 18 19  2  0  0  0
 18 94  1  0  0  0
 19 20  1  0  0  0
 19 24  1  0  0  0
 20 21  2  0  0  0
 20 95  1  0  0  0
 21 23  1  0  0  0
 22 28  1  0  0  0
 22 32  2  0  0  0
 26 27  1  0  0  0
 28 96  1  0  0  0
 28 97  1  0  0  0
 29 98  1  0  0  0
 29 99  1  0  0  0
 33 34  1  0  0  0
 33 66  1  0  0  0
 33 70  2  0  0  0
 34 36  1  0  0  0
 34 59  1  0  0  0
 34100  1  0  0  0
 35 44  2  0  0  0
 35 45  1  0  0  0
 35 68  1  0  0  0
 36 56  1  0  0  0
 36101  1  0  0  0
 37 39  1  0  0  0
 37 47  1  0  0  0
 37 66  1  0  0  0
 37102  1  0  0  0
 38 43  2  0  0  0
 38 46  1  0  0  0
 38 47  1  0  0  0
 39 64  1  0  0  0
 39 67  2  0  0  0
 40 52  1  0  0  0
 40 53  2  0  0  0
 40 58  1  0  0  0
 41103  1  0  0  0
 41104  1  0  0  0
 41105  1  0  0  0
 41 48  1  0  0  0
 42 43  1  0  0  0
 42 66  1  0  0  0
 42106  1  0  0  0
 42107  1  0  0  0
 43 44  1  0  0  0
 44108  1  0  0  0
 45 46  2  0  0  0
 45109  1  0  0  0
 46110  1  0  0  0
 47111  1  0  0  0
 47112  1  0  0  0
 48 56  1  0  0  0
 48 65  1  0  0  0
 48113  1  0  0  0
 49 50  1  0  0  0
 49 53  1  0  0  0
 49 64  1  0  0  0
 49114  1  0  0  0
 50 51  1  0  0  0
 50115  1  0  0  0
 50116  1  0  0  0
 51 52  1  0  0  0
 51117  1  0  0  0
 51118  1  0  0  0
 52119  1  0  0  0
 52120  1  0  0  0
 53 54  1  0  0  0
 54 55  2  0  0  0
 54121  1  0  0  0
 55 57  1  0  0  0
 55122  1  0  0  0
 56 69  2  0  0  0
 57 58  2  0  0  0
 57123  1  0  0  0
 58124  1  0  0  0
 59 60  1  0  0  0
 59 61  1  0  0  0
 59 62  1  0  0  0
 60125  1  0  0  0
 60126  1  0  0  0
 60127  1  0  0  0
 61128  1  0  0  0
 61129  1  0  0  0
 61130  1  0  0  0
 62131  1  0  0  0
 62132  1  0  0  0
 62133  1  0  0  0
 63 65  1  0  0  0
 63134  1  0  0  0
 63135  1  0  0  0
 63136  1  0  0  0
 64137  1  0  0  0
 65138  1  0  0  0
 68 76  1  0  0  0
 71 73  1  0  0  0
 71 77  1  0  0  0
 71139  1  0  0  0
 71140  1  0  0  0
 72 74  1  0  0  0
 72 77  1  0  0  0
 72141  1  0  0  0
 72142  1  0  0  0
 73 74  1  0  0  0
 73 78  1  0  0  0
 73143  1  0  0  0
 74 79  1  0  0  0
 74144  1  0  0  0
 75 76  1  0  0  0
 75 79  1  0  0  0
 75145  1  0  0  0
 75146  1  0  0  0
 76147  1  0  0  0
 76148  1  0  0  0
 78149  1  0  0  0
 78150  1  0  0  0
 79151  1  0  0  0
 79152  1  0  0  0
M  CHG  1  79   1
M  ISO  4   1 100  68 101  76 101  77 100
M  END
> <chiral flag>
0

> <version>
0

> <s_m_source_file>
/data/baiqing/PycharmProjects/Reinvent-master-3.2/result/LINK_invent/BTK/process_docking_weight1_custom_sum_contain_oxygen_bond_distance_aromatic_linkinvent_7_9_3/rearranged_h_0189.sdf

> <i_m_source_file_index>
24

> <r_mmod_Potential_Energy-OPLS-2005>
1347.42663574219

> <r_mmod_Stretch_Energy-OPLS-2005>
625.037719726562

> <r_mmod_Bend_Energy-OPLS-2005>
511.027160644531

> <r_mmod_Torsional_Energy-OPLS-2005>
316.369232177734

> <r_mmod_Improper_Torsional_Energy-OPLS-2005>
7.76679849624634

> <r_mmod_Van_der_Waal_Energy-OPLS-2005>
104.141120910645

> <r_mmod_Electrostatic_Energy-OPLS-2005>
-229.959106445312

> <r_mmod_Solvation_Energy-OPLS-2005>
-491.681549072266

> <b_mmod_Minimization_Converged-OPLS-2005>
0

> <r_mmod_RMS_Derivative-OPLS-2005>
0.667392551898956

$$$$
24
                    3D
 Structure written by MMmdl.
157167  0  0  1  0            999 V2000
  -30.6028  -14.8142   20.4914 C   0  0  0  0  0  0
  -30.4276  -12.5020   19.5051 C   0  0  0  0  0  0
  -29.5158  -12.5467   18.2570 C   0  0  0  0  0  0
  -28.0426  -12.3650   18.6645 C   0  0  0  0  0  0
  -27.6433  -13.2538   19.8715 C   0  0  2  0  0  0
  -28.6872  -13.2169   21.0105 C   0  0  0  0  0  0
  -25.2498  -13.8227   20.5761 C   0  0  0  0  0  0
  -24.1834  -13.0456   20.9223 C   0  0  0  0  0  0
  -24.6454  -11.6932   20.8810 C   0  0  0  0  0  0
  -23.9147  -10.4299   21.0441 C   0  0  0  0  0  0
  -24.3670   -9.4191   21.9213 C   0  0  0  0  0  0
  -23.6323   -8.2249   22.0749 C   0  0  0  0  0  0
  -22.4307   -8.0307   21.3534 C   0  0  0  0  0  0
  -21.9982   -9.0306   20.4639 C   0  0  0  0  0  0
  -22.7337  -10.2169   20.3065 C   0  0  0  0  0  0
  -21.6858   -6.0768   22.5273 C   0  0  0  0  0  0
  -21.4031   -6.5659   23.8216 C   0  0  0  0  0  0
  -21.3659   -5.6803   24.9163 C   0  0  0  0  0  0
  -21.6031   -4.3061   24.7216 C   0  0  0  0  0  0
  -21.8816   -3.8165   23.4338 C   0  0  0  0  0  0
  -21.9196   -4.6995   22.3389 C   0  0  0  0  0  0
  -22.7839  -13.5202   21.1861 C   0  0  0  0  0  0
  -22.1661   -4.2181   21.0975 F   0  0  0  0  0  0
  -21.5617   -3.4534   25.7729 F   0  0  0  0  0  0
  -29.9810  -13.5796   20.4278 N   0  0  0  0  0  0
  -26.2988  -12.9484   20.3467 N   0  0  0  0  0  0
  -25.9404  -11.6597   20.5887 N   0  0  0  0  0  0
  -22.0528  -12.8190   22.0414 N   0  0  0  0  0  0
  -25.4209  -15.1955   20.4087 N   0  0  0  0  0  0
  -31.7813  -14.9040   20.1391 O   0  0  0  0  0  0
  -21.6639   -6.8927   21.4248 O   0  0  0  0  0  0
  -22.3533  -14.5537   20.6719 O   0  0  0  0  0  0
  -24.6364  -31.8442   23.1931 C   0  0  0  0  0  0
  -25.9187  -32.4687   23.8241 C   0  0  1  0  0  0
  -27.2306  -27.1930   20.1460 C   0  0  0  0  0  0
  -25.5955  -33.8489   24.2142 N   0  0  0  0  0  0
  -23.4355  -30.4723   21.5354 C   0  0  2  0  0  0
  -24.8851  -28.9093   20.1054 C   0  0  0  0  0  0
  -22.7509  -29.4586   22.4833 C   0  0  0  0  0  0
  -18.0302  -28.1390   22.8470 C   0  0  0  0  0  0
  -24.1490  -36.7270   23.2632 C   0  0  0  0  0  0
  -25.9846  -30.7394   21.3804 C   0  0  0  0  0  0
  -26.0576  -29.3581   20.7227 C   0  0  0  0  0  0
  -27.2225  -28.5127   20.7361 C   0  0  0  0  0  0
  -26.0287  -26.8363   19.4846 C   0  0  0  0  0  0
  -24.8837  -27.6612   19.4673 C   0  0  0  0  0  0
  -23.6545  -29.8008   20.1542 C   0  0  0  0  0  0
  -25.4118  -36.3005   24.0279 C   0  0  1  0  0  0
  -20.5904  -28.3708   23.1220 C   0  0  2  0  0  0
  -20.6798  -26.9415   22.5374 C   0  0  0  0  0  0
  -19.5773  -26.6387   21.5181 C   0  0  0  0  0  0
  -18.1957  -26.7926   22.1607 C   0  0  0  0  0  0
  -19.1552  -28.8859   23.2851 C   0  0  0  0  0  0
  -18.9483  -30.1467   23.8869 C   0  0  0  0  0  0
  -17.6486  -30.6602   24.0561 C   0  0  0  0  0  0
  -25.9065  -34.9393   23.5017 C   0  0  0  0  0  0
  -16.5368  -29.9096   23.6359 C   0  0  0  0  0  0
  -16.7287  -28.6513   23.0371 C   0  0  0  0  0  0
  -26.4508  -31.6568   25.0696 C   0  0  0  0  0  0
  -25.3718  -31.3803   26.1413 C   0  0  0  0  0  0
  -27.0353  -30.2959   24.6291 C   0  0  0  0  0  0
  -27.6036  -32.4311   25.7509 C   0  0  0  0  0  0
  -27.5551  -37.1785   24.8458 C   0  0  0  0  0  0
  -21.4210  -29.3046   22.3563 N   0  0  0  0  0  0
  -26.4269  -37.3736   23.9406 N   0  0  0  0  0  0
  -24.7062  -31.0392   22.0913 N   0  0  0  0  0  0
  -23.4150  -28.8113   23.2957 O   0  0  0  0  0  0
  -28.3219  -26.2710   20.2921 O   0  0  0  0  0  0
  -26.5648  -34.8898   22.4587 O   0  0  0  0  0  0
  -23.5519  -32.1263   23.7211 O   0  0  0  0  0  0
  -29.2694  -22.0871   22.0228 C   0  0  0  0  0  0
  -28.8598  -23.3918   21.8082 C   0  0  0  0  0  0
  -29.3750  -21.4849   20.7387 C   0  0  0  0  0  0
  -27.6380  -24.0918   24.0036 C   0  0  0  0  0  0
  -27.0783  -24.9098   22.8616 C   0  0  0  0  0  0
  -29.3220  -19.5069   19.3549 C   0  0  0  0  0  0
  -28.5006  -24.4304   22.8071 C   0  0  0  0  0  0
  -29.3443  -18.7519   20.6643 C   0  0  1  0  0  0
  -30.3098  -17.4487   20.7764 C   0  0  0  0  0  0
  -28.3646  -24.9183   19.6455 C   0  0  0  0  0  0
  -29.0872  -22.4408   19.8075 N   0  0  0  0  0  0
  -28.7820  -23.6565   20.4447 N   0  0  0  0  0  0
  -29.9336  -20.1512   20.5075 N   0  0  0  0  0  0
  -29.8603  -15.9652   20.7793 N   0  0  0  0  0  0
  -31.4748  -12.6095   19.2189 H   0  0  0  0  0  0
  -30.3525  -11.5320   19.9988 H   0  0  0  0  0  0
  -29.8045  -11.7742   17.5420 H   0  0  0  0  0  0
  -29.6386  -13.5029   17.7453 H   0  0  0  0  0  0
  -27.8977  -11.3153   18.9199 H   0  0  0  0  0  0
  -27.3830  -12.5731   17.8208 H   0  0  0  0  0  0
  -27.6310  -14.2774   19.4956 H   0  0  0  0  0  0
  -28.7371  -12.2341   21.4800 H   0  0  0  0  0  0
  -28.4194  -13.9165   21.8057 H   0  0  0  0  0  0
  -25.2821   -9.5641   22.4816 H   0  0  0  0  0  0
  -24.0011   -7.4619   22.7448 H   0  0  0  0  0  0
  -21.0926   -8.8865   19.8924 H   0  0  0  0  0  0
  -22.3837  -10.9733   19.6179 H   0  0  0  0  0  0
  -21.2040   -7.6170   23.9742 H   0  0  0  0  0  0
  -21.1469   -6.0523   25.9085 H   0  0  0  0  0  0
  -22.0597   -2.7634   23.2818 H   0  0  0  0  0  0
  -22.4169  -11.9823   22.4749 H   0  0  0  0  0  0
  -21.1137  -13.1179   22.2643 H   0  0  0  0  0  0
  -24.6490  -15.8494   20.4692 H   0  0  0  0  0  0
  -26.2691  -15.6200   20.0600 H   0  0  0  0  0  0
  -26.7242  -32.5302   23.0952 H   0  0  0  0  0  0
  -25.0106  -33.9588   25.0291 H   0  0  0  0  0  0
  -22.7377  -31.2987   21.3874 H   0  0  0  0  0  0
  -23.3735  -35.9626   23.3292 H   0  0  0  0  0  0
  -24.3576  -36.8931   22.2055 H   0  0  0  0  0  0
  -23.7271  -37.6470   23.6681 H   0  0  0  0  0  0
  -26.1290  -31.4910   20.6025 H   0  0  0  0  0  0
  -26.8615  -30.7873   22.0161 H   0  0  0  0  0  0
  -28.1097  -28.8624   21.2452 H   0  0  0  0  0  0
  -25.8996  -25.8860   18.9957 H   0  0  0  0  0  0
  -23.9868  -27.3017   18.9805 H   0  0  0  0  0  0
  -23.7762  -30.5754   19.3958 H   0  0  0  0  0  0
  -22.7712  -29.2323   19.8520 H   0  0  0  0  0  0
  -25.1310  -36.1822   25.0766 H   0  0  0  0  0  0
  -21.0012  -28.3322   24.1337 H   0  0  0  0  0  0
  -20.5748  -26.2290   23.3591 H   0  0  0  0  0  0
  -21.6673  -26.7470   22.1143 H   0  0  0  0  0  0
  -19.6962  -25.6299   21.1229 H   0  0  0  0  0  0
  -19.6752  -27.3185   20.6710 H   0  0  0  0  0  0
  -17.4220  -26.6642   21.4022 H   0  0  0  0  0  0
  -18.0400  -26.0083   22.9018 H   0  0  0  0  0  0
  -19.7980  -30.7279   24.2214 H   0  0  0  0  0  0
  -17.5075  -31.6310   24.5133 H   0  0  0  0  0  0
  -15.5381  -30.2996   23.7763 H   0  0  0  0  0  0
  -15.8666  -28.0863   22.7078 H   0  0  0  0  0  0
  -24.5940  -30.7060   25.7804 H   0  0  0  0  0  0
  -24.8851  -32.3010   26.4654 H   0  0  0  0  0  0
  -25.8033  -30.9165   27.0302 H   0  0  0  0  0  0
  -26.2955  -29.6705   24.1265 H   0  0  0  0  0  0
  -27.3918  -29.7239   25.4867 H   0  0  0  0  0  0
  -27.8886  -30.4177   23.9615 H   0  0  0  0  0  0
  -27.2653  -33.3690   26.1924 H   0  0  0  0  0  0
  -28.3974  -32.6720   25.0429 H   0  0  0  0  0  0
  -28.0534  -31.8518   26.5586 H   0  0  0  0  0  0
  -28.2542  -38.0099   24.7490 H   0  0  0  0  0  0
  -28.1065  -36.2621   24.6301 H   0  0  0  0  0  0
  -27.2261  -37.1441   25.8859 H   0  0  0  0  0  0
  -20.9346  -29.8717   21.6745 H   0  0  0  0  0  0
  -26.0127  -38.2789   24.1461 H   0  0  0  0  0  0
  -29.4664  -21.6354   22.9856 H   0  0  0  0  0  0
  -27.3096  -23.0551   24.1030 H   0  0  0  0  0  0
  -27.7873  -24.6199   24.9422 H   0  0  0  0  0  0
  -26.9662  -25.9862   22.9576 H   0  0  0  0  0  0
  -26.3703  -24.4249   22.1922 H   0  0  0  0  0  0
  -28.4088  -20.0001   19.0277 H   0  0  0  0  0  0
  -30.0826  -19.3111   18.5996 H   0  0  0  0  0  0
  -29.2973  -25.1625   22.9287 H   0  0  0  0  0  0
  -28.5176  -18.8283   21.3651 H   0  0  0  0  0  0
  -30.9089  -17.5830   21.6779 H   0  0  0  0  0  0
  -31.0153  -17.5254   19.9512 H   0  0  0  0  0  0
  -29.1394  -25.0167   18.8854 H   0  0  0  0  0  0
  -27.4624  -24.6408   19.1069 H   0  0  0  0  0  0
  -28.9064  -15.7938   21.0635 H   0  0  0  0  0  0
  1 25  1  0  0  0
  1 30  2  0  0  0
  1 84  1  0  0  0
  2  3  1  0  0  0
  2 25  1  0  0  0
  2 85  1  0  0  0
  2 86  1  0  0  0
  3  4  1  0  0  0
  3 87  1  0  0  0
  3 88  1  0  0  0
  4  5  1  0  0  0
  4 89  1  0  0  0
  4 90  1  0  0  0
  5  6  1  0  0  0
  5 26  1  0  0  0
  5 91  1  0  0  0
  6 25  1  0  0  0
  6 92  1  0  0  0
  6 93  1  0  0  0
  7  8  2  0  0  0
  7 26  1  0  0  0
  7 29  1  0  0  0
  8  9  1  0  0  0
  8 22  1  0  0  0
  9 10  1  0  0  0
  9 27  2  0  0  0
 10 11  2  0  0  0
 10 15  1  0  0  0
 11 12  1  0  0  0
 11 94  1  0  0  0
 12 13  2  0  0  0
 12 95  1  0  0  0
 13 14  1  0  0  0
 13 31  1  0  0  0
 14 15  2  0  0  0
 14 96  1  0  0  0
 15 97  1  0  0  0
 16 17  2  0  0  0
 16 21  1  0  0  0
 16 31  1  0  0  0
 17 18  1  0  0  0
 17 98  1  0  0  0
 18 19  2  0  0  0
 18 99  1  0  0  0
 19 20  1  0  0  0
 19 24  1  0  0  0
 20 21  2  0  0  0
 20100  1  0  0  0
 21 23  1  0  0  0
 22 28  1  0  0  0
 22 32  2  0  0  0
 26 27  1  0  0  0
 28101  1  0  0  0
 28102  1  0  0  0
 29103  1  0  0  0
 29104  1  0  0  0
 33 34  1  0  0  0
 33 66  1  0  0  0
 33 70  2  0  0  0
 34 36  1  0  0  0
 34 59  1  0  0  0
 34105  1  0  0  0
 35 44  2  0  0  0
 35 45  1  0  0  0
 35 68  1  0  0  0
 36 56  1  0  0  0
 36106  1  0  0  0
 37 39  1  0  0  0
 37 47  1  0  0  0
 37 66  1  0  0  0
 37107  1  0  0  0
 38 43  2  0  0  0
 38 46  1  0  0  0
 38 47  1  0  0  0
 39 64  1  0  0  0
 39 67  2  0  0  0
 40 52  1  0  0  0
 40 53  2  0  0  0
 40 58  1  0  0  0
 41108  1  0  0  0
 41109  1  0  0  0
 41110  1  0  0  0
 41 48  1  0  0  0
 42 43  1  0  0  0
 42 66  1  0  0  0
 42111  1  0  0  0
 42112  1  0  0  0
 43 44  1  0  0  0
 44113  1  0  0  0
 45 46  2  0  0  0
 45114  1  0  0  0
 46115  1  0  0  0
 47116  1  0  0  0
 47117  1  0  0  0
 48 56  1  0  0  0
 48 65  1  0  0  0
 48118  1  0  0  0
 49 50  1  0  0  0
 49 53  1  0  0  0
 49 64  1  0  0  0
 49119  1  0  0  0
 50 51  1  0  0  0
 50120  1  0  0  0
 50121  1  0  0  0
 51 52  1  0  0  0
 51122  1  0  0  0
 51123  1  0  0  0
 52124  1  0  0  0
 52125  1  0  0  0
 53 54  1  0  0  0
 54 55  2  0  0  0
 54126  1  0  0  0
 55 57  1  0  0  0
 55127  1  0  0  0
 56 69  2  0  0  0
 57 58  2  0  0  0
 57128  1  0  0  0
 58129  1  0  0  0
 59 60  1  0  0  0
 59 61  1  0  0  0
 59 62  1  0  0  0
 60130  1  0  0  0
 60131  1  0  0  0
 60132  1  0  0  0
 61133  1  0  0  0
 61134  1  0  0  0
 61135  1  0  0  0
 62136  1  0  0  0
 62137  1  0  0  0
 62138  1  0  0  0
 63 65  1  0  0  0
 63139  1  0  0  0
 63140  1  0  0  0
 63141  1  0  0  0
 64142  1  0  0  0
 65143  1  0  0  0
 68 80  1  0  0  0
 71 72  2  0  0  0
 71 73  1  0  0  0
 71144  1  0  0  0
 72 82  1  0  0  0
 72 77  1  0  0  0
 73 81  2  0  0  0
 73 83  1  0  0  0
 74 75  1  0  0  0
 74 77  1  0  0  0
 74145  1  0  0  0
 74146  1  0  0  0
 75 77  1  0  0  0
 75147  1  0  0  0
 75148  1  0  0  0
 76 78  1  0  0  0
 76 83  1  0  0  0
 76149  1  0  0  0
 76150  1  0  0  0
 77151  1  0  0  0
 78 79  1  0  0  0
 78 83  1  0  0  0
 78152  1  0  0  0
 79 84  1  0  0  0
 79153  1  0  0  0
 79154  1  0  0  0
 80 82  1  0  0  0
 80155  1  0  0  0
 80156  1  0  0  0
 81 82  1  0  0  0
 84157  1  0  0  0
M  ISO  4   1 100  68 101  80 101  84 100
M  END
> <chiral flag>
0

> <version>
0

> <s_m_source_file>
/data/baiqing/PycharmProjects/Reinvent-master-3.2/result/LINK_invent/BTK/process_docking_weight1_custom_sum_contain_oxygen_bond_distance_aromatic_linkinvent_7_9_3/rearranged_h_0189.sdf

> <i_m_source_file_index>
25

> <r_mmod_Potential_Energy-OPLS-2005>
199.73698425293

> <r_mmod_Stretch_Energy-OPLS-2005>
156.003768920898

> <r_mmod_Bend_Energy-OPLS-2005>
228.836486816406

> <r_mmod_Torsional_Energy-OPLS-2005>
270.161987304688

> <r_mmod_Improper_Torsional_Energy-OPLS-2005>
13.072624206543

> <r_mmod_Van_der_Waal_Energy-OPLS-2005>
112.274429321289

> <r_mmod_Electrostatic_Energy-OPLS-2005>
-463.182220458984

> <r_mmod_Solvation_Energy-OPLS-2005>
-242.614349365234

> <b_mmod_Minimization_Converged-OPLS-2005>
0

> <r_mmod_RMS_Derivative-OPLS-2005>
6.90216779708862

$$$$
25
                    3D
 Structure written by MMmdl.
153162  0  0  1  0            999 V2000
  -30.4610  -15.3363   20.3455 C   0  0  0  0  0  0
  -30.4211  -12.8703   19.5104 C   0  0  0  0  0  0
  -29.5219  -12.5643   18.2882 C   0  0  0  0  0  0
  -28.0904  -12.2618   18.7493 C   0  0  0  0  0  0
  -27.6018  -13.2772   19.8123 C   0  0  2  0  0  0
  -28.6334  -13.5246   20.9336 C   0  0  0  0  0  0
  -25.2385  -13.8240   20.5799 C   0  0  0  0  0  0
  -24.1724  -13.0436   20.9282 C   0  0  0  0  0  0
  -24.6395  -11.6935   20.8785 C   0  0  0  0  0  0
  -23.9102  -10.4282   21.0427 C   0  0  0  0  0  0
  -24.3645   -9.4181   21.9191 C   0  0  0  0  0  0
  -23.6317   -8.2219   22.0744 C   0  0  0  0  0  0
  -22.4300   -8.0263   21.3546 C   0  0  0  0  0  0
  -21.9946   -9.0241   20.4653 C   0  0  0  0  0  0
  -22.7272  -10.2126   20.3077 C   0  0  0  0  0  0
  -21.6842   -6.0745   22.5289 C   0  0  0  0  0  0
  -21.3992   -6.5650   23.8212 C   0  0  0  0  0  0
  -21.3659   -5.6804   24.9177 C   0  0  0  0  0  0
  -21.6065   -4.3068   24.7220 C   0  0  0  0  0  0
  -21.8826   -3.8168   23.4337 C   0  0  0  0  0  0
  -21.9184   -4.6984   22.3397 C   0  0  0  0  0  0
  -22.7747  -13.5176   21.1902 C   0  0  0  0  0  0
  -22.1665   -4.2169   21.0977 F   0  0  0  0  0  0
  -21.5643   -3.4550   25.7734 F   0  0  0  0  0  0
  -29.8398  -14.0494   20.2687 N   0  0  0  0  0  0
  -26.2794  -12.9523   20.3238 N   0  0  0  0  0  0
  -25.9326  -11.6632   20.5753 N   0  0  0  0  0  0
  -22.0433  -12.8122   22.0459 N   0  0  0  0  0  0
  -25.4096  -15.1956   20.4283 N   0  0  0  0  0  0
  -31.6924  -15.2265   20.2156 O   0  0  0  0  0  0
  -21.6661   -6.8866   21.4240 O   0  0  0  0  0  0
  -22.3421  -14.5463   20.6721 O   0  0  0  0  0  0
  -24.6642  -31.8189   23.1711 C   0  0  0  0  0  0
  -25.9311  -32.4558   23.8162 C   0  0  1  0  0  0
  -27.2007  -26.8673   20.1807 C   0  0  0  0  0  0
  -25.5963  -33.8362   24.2055 N   0  0  0  0  0  0
  -23.4802  -30.4283   21.5238 C   0  0  2  0  0  0
  -24.9322  -28.8112   20.1138 C   0  0  0  0  0  0
  -22.7673  -29.4394   22.4826 C   0  0  0  0  0  0
  -18.0310  -28.1407   22.8457 C   0  0  0  0  0  0
  -24.1483  -36.7186   23.2657 C   0  0  0  0  0  0
  -26.0535  -30.6001   21.4152 C   0  0  0  0  0  0
  -26.1175  -29.1841   20.7615 C   0  0  0  0  0  0
  -27.2443  -28.2333   20.7747 C   0  0  0  0  0  0
  -25.9964  -26.6833   19.4604 C   0  0  0  0  0  0
  -24.8984  -27.5790   19.4476 C   0  0  0  0  0  0
  -23.7220  -29.7465   20.1497 C   0  0  0  0  0  0
  -25.4134  -36.2941   24.0292 C   0  0  1  0  0  0
  -20.5939  -28.3726   23.1226 C   0  0  2  0  0  0
  -20.6785  -26.9395   22.5455 C   0  0  0  0  0  0
  -19.5780  -26.6349   21.5228 C   0  0  0  0  0  0
  -18.1937  -26.7977   22.1551 C   0  0  0  0  0  0
  -19.1576  -28.8879   23.2833 C   0  0  0  0  0  0
  -18.9495  -30.1478   23.8866 C   0  0  0  0  0  0
  -17.6491  -30.6576   24.0565 C   0  0  0  0  0  0
  -25.9094  -34.9324   23.5008 C   0  0  0  0  0  0
  -16.5384  -29.9080   23.6313 C   0  0  0  0  0  0
  -16.7290  -28.6503   23.0316 C   0  0  0  0  0  0
  -26.4548  -31.6532   25.0710 C   0  0  0  0  0  0
  -25.3656  -31.3804   26.1360 C   0  0  0  0  0  0
  -27.0465  -30.2889   24.6493 C   0  0  0  0  0  0
  -27.6019  -32.4373   25.7515 C   0  0  0  0  0  0
  -27.5549  -37.1759   24.8475 C   0  0  0  0  0  0
  -21.4349  -29.3016   22.3581 N   0  0  0  0  0  0
  -26.4282  -37.3679   23.9380 N   0  0  0  0  0  0
  -24.7547  -30.9780   22.0896 N   0  0  0  0  0  0
  -23.4204  -28.7961   23.3091 O   0  0  0  0  0  0
  -28.1834  -25.7192   20.1849 O   0  0  0  0  0  0
  -26.5720  -34.8870   22.4611 O   0  0  0  0  0  0
  -23.5710  -32.1210   23.6771 O   0  0  0  0  0  0
  -26.3404  -22.7787   21.1282 C   0  0  0  0  0  0
  -28.2494  -21.7226   20.4515 C   0  0  0  0  0  0
  -27.8885  -24.2401   20.3738 C   0  0  0  0  0  0
  -30.0487  -19.5676   19.7125 C   0  0  0  0  0  0
  -28.1658  -18.9680   20.8950 C   0  0  0  0  0  0
  -30.6565  -18.0734   20.2477 C   0  0  0  0  0  0
  -28.4743  -17.3692   20.4025 C   0  0  0  0  0  0
  -24.9438  -22.6244   21.6972 C   0  0  0  0  0  0
  -27.0241  -21.6445   20.9541 N   0  0  0  0  0  0
  -26.6836  -24.0375   20.8776 N   0  0  0  0  0  0
  -28.7283  -23.0608   20.1440 N   0  0  0  0  0  0
  -28.8436  -20.2489   20.3528 N   0  0  0  0  0  0
  -29.8695  -16.7299   20.3341 N   0  0  0  0  0  0
  -30.5075  -11.9927   20.1529 H   0  0  0  0  0  0
  -31.4327  -13.0719   19.1571 H   0  0  0  0  0  0
  -29.9209  -11.7208   17.7221 H   0  0  0  0  0  0
  -29.5186  -13.4194   17.6105 H   0  0  0  0  0  0
  -28.0970  -11.2609   19.1853 H   0  0  0  0  0  0
  -27.4045  -12.2148   17.9018 H   0  0  0  0  0  0
  -27.4960  -14.2186   19.2718 H   0  0  0  0  0  0
  -28.8366  -12.6151   21.5030 H   0  0  0  0  0  0
  -28.2580  -14.2611   21.6446 H   0  0  0  0  0  0
  -25.2770   -9.5680   22.4763 H   0  0  0  0  0  0
  -24.0052   -7.4617   22.7444 H   0  0  0  0  0  0
  -21.0886   -8.8756   19.8940 H   0  0  0  0  0  0
  -22.3711  -10.9680   19.6209 H   0  0  0  0  0  0
  -21.1962   -7.6150   23.9712 H   0  0  0  0  0  0
  -21.1487   -6.0535   25.9078 H   0  0  0  0  0  0
  -22.0606   -2.7626   23.2833 H   0  0  0  0  0  0
  -22.4123  -11.9775   22.4768 H   0  0  0  0  0  0
  -21.1065  -13.1099   22.2734 H   0  0  0  0  0  0
  -24.6521  -15.8568   20.5555 H   0  0  0  0  0  0
  -26.2634  -15.6252   20.0990 H   0  0  0  0  0  0
  -26.7372  -32.5079   23.0867 H   0  0  0  0  0  0
  -24.9982  -33.9422   25.0119 H   0  0  0  0  0  0
  -22.7945  -31.2615   21.3543 H   0  0  0  0  0  0
  -23.3739  -35.9526   23.3332 H   0  0  0  0  0  0
  -24.3549  -36.8824   22.2071 H   0  0  0  0  0  0
  -23.7269  -37.6385   23.6717 H   0  0  0  0  0  0
  -26.2455  -31.3365   20.6336 H   0  0  0  0  0  0
  -26.9109  -30.6580   22.0717 H   0  0  0  0  0  0
  -28.1404  -28.5155   21.3081 H   0  0  0  0  0  0
  -25.8614  -25.7549   18.9269 H   0  0  0  0  0  0
  -24.0017  -27.2900   18.9150 H   0  0  0  0  0  0
  -23.8844  -30.5153   19.3938 H   0  0  0  0  0  0
  -22.8281  -29.2057   19.8303 H   0  0  0  0  0  0
  -25.1353  -36.1736   25.0788 H   0  0  0  0  0  0
  -21.0030  -28.3328   24.1344 H   0  0  0  0  0  0
  -20.5651  -26.2374   23.3730 H   0  0  0  0  0  0
  -21.6653  -26.7304   22.1287 H   0  0  0  0  0  0
  -19.6895  -25.6258   21.1308 H   0  0  0  0  0  0
  -19.6814  -27.3117   20.6741 H   0  0  0  0  0  0
  -17.4323  -26.6932   21.3814 H   0  0  0  0  0  0
  -18.0154  -26.0030   22.8812 H   0  0  0  0  0  0
  -19.7990  -30.7293   24.2185 H   0  0  0  0  0  0
  -17.5026  -31.6223   24.5214 H   0  0  0  0  0  0
  -15.5381  -30.2997   23.7606 H   0  0  0  0  0  0
  -15.8685  -28.0866   22.6977 H   0  0  0  0  0  0
  -24.5822  -30.7181   25.7665 H   0  0  0  0  0  0
  -24.8866  -32.3019   26.4677 H   0  0  0  0  0  0
  -25.7861  -30.9030   27.0221 H   0  0  0  0  0  0
  -26.3156  -29.6537   24.1474 H   0  0  0  0  0  0
  -27.3946  -29.7279   25.5180 H   0  0  0  0  0  0
  -27.9126  -30.4058   23.9968 H   0  0  0  0  0  0
  -27.2552  -33.3707   26.1961 H   0  0  0  0  0  0
  -28.3890  -32.6887   25.0393 H   0  0  0  0  0  0
  -28.0620  -31.8597   26.5541 H   0  0  0  0  0  0
  -28.2607  -38.0010   24.7447 H   0  0  0  0  0  0
  -28.1002  -36.2536   24.6423 H   0  0  0  0  0  0
  -27.2238  -37.1560   25.8872 H   0  0  0  0  0  0
  -20.9642  -29.8620   21.6627 H   0  0  0  0  0  0
  -26.0118  -38.2733   24.1381 H   0  0  0  0  0  0
  -29.8130  -19.4713   18.6517 H   0  0  0  0  0  0
  -30.8634  -20.2901   19.7465 H   0  0  0  0  0  0
  -28.2959  -18.9986   21.9770 H   0  0  0  0  0  0
  -27.0926  -19.1042   20.7521 H   0  0  0  0  0  0
  -31.0781  -18.2340   21.2420 H   0  0  0  0  0  0
  -31.5302  -17.8691   19.6225 H   0  0  0  0  0  0
  -28.0391  -17.2393   19.4086 H   0  0  0  0  0  0
  -27.8853  -16.7175   21.0473 H   0  0  0  0  0  0
  -24.8116  -21.6650   22.1964 H   0  0  0  0  0  0
  -24.2002  -22.7062   20.9036 H   0  0  0  0  0  0
  -24.7388  -23.4052   22.4297 H   0  0  0  0  0  0
  1 25  1  0  0  0
  1 30  2  0  0  0
  1 83  1  0  0  0
  2  3  1  0  0  0
  2 25  1  0  0  0
  2 84  1  0  0  0
  2 85  1  0  0  0
  3  4  1  0  0  0
  3 86  1  0  0  0
  3 87  1  0  0  0
  4  5  1  0  0  0
  4 88  1  0  0  0
  4 89  1  0  0  0
  5  6  1  0  0  0
  5 26  1  0  0  0
  5 90  1  0  0  0
  6 25  1  0  0  0
  6 91  1  0  0  0
  6 92  1  0  0  0
  7  8  2  0  0  0
  7 26  1  0  0  0
  7 29  1  0  0  0
  8  9  1  0  0  0
  8 22  1  0  0  0
  9 10  1  0  0  0
  9 27  2  0  0  0
 10 11  2  0  0  0
 10 15  1  0  0  0
 11 12  1  0  0  0
 11 93  1  0  0  0
 12 13  2  0  0  0
 12 94  1  0  0  0
 13 14  1  0  0  0
 13 31  1  0  0  0
 14 15  2  0  0  0
 14 95  1  0  0  0
 15 96  1  0  0  0
 16 17  2  0  0  0
 16 21  1  0  0  0
 16 31  1  0  0  0
 17 18  1  0  0  0
 17 97  1  0  0  0
 18 19  2  0  0  0
 18 98  1  0  0  0
 19 20  1  0  0  0
 19 24  1  0  0  0
 20 21  2  0  0  0
 20 99  1  0  0  0
 21 23  1  0  0  0
 22 28  1  0  0  0
 22 32  2  0  0  0
 26 27  1  0  0  0
 28100  1  0  0  0
 28101  1  0  0  0
 29102  1  0  0  0
 29103  1  0  0  0
 33 34  1  0  0  0
 33 66  1  0  0  0
 33 70  2  0  0  0
 34 36  1  0  0  0
 34 59  1  0  0  0
 34104  1  0  0  0
 35 44  2  0  0  0
 35 45  1  0  0  0
 35 68  1  0  0  0
 36 56  1  0  0  0
 36105  1  0  0  0
 37 39  1  0  0  0
 37 47  1  0  0  0
 37 66  1  0  0  0
 37106  1  0  0  0
 38 43  2  0  0  0
 38 46  1  0  0  0
 38 47  1  0  0  0
 39 64  1  0  0  0
 39 67  2  0  0  0
 40 52  1  0  0  0
 40 53  2  0  0  0
 40 58  1  0  0  0
 41107  1  0  0  0
 41108  1  0  0  0
 41109  1  0  0  0
 41 48  1  0  0  0
 42 43  1  0  0  0
 42 66  1  0  0  0
 42110  1  0  0  0
 42111  1  0  0  0
 43 44  1  0  0  0
 44112  1  0  0  0
 45 46  2  0  0  0
 45113  1  0  0  0
 46114  1  0  0  0
 47115  1  0  0  0
 47116  1  0  0  0
 48 56  1  0  0  0
 48 65  1  0  0  0
 48117  1  0  0  0
 49 50  1  0  0  0
 49 53  1  0  0  0
 49 64  1  0  0  0
 49118  1  0  0  0
 50 51  1  0  0  0
 50119  1  0  0  0
 50120  1  0  0  0
 51 52  1  0  0  0
 51121  1  0  0  0
 51122  1  0  0  0
 52123  1  0  0  0
 52124  1  0  0  0
 53 54  1  0  0  0
 54 55  2  0  0  0
 54125  1  0  0  0
 55 57  1  0  0  0
 55126  1  0  0  0
 56 69  2  0  0  0
 57 58  2  0  0  0
 57127  1  0  0  0
 58128  1  0  0  0
 59 60  1  0  0  0
 59 61  1  0  0  0
 59 62  1  0  0  0
 60129  1  0  0  0
 60130  1  0  0  0
 60131  1  0  0  0
 61132  1  0  0  0
 61133  1  0  0  0
 61134  1  0  0  0
 62135  1  0  0  0
 62136  1  0  0  0
 62137  1  0  0  0
 63 65  1  0  0  0
 63138  1  0  0  0
 63139  1  0  0  0
 63140  1  0  0  0
 64141  1  0  0  0
 65142  1  0  0  0
 68 73  1  0  0  0
 71 78  1  0  0  0
 71 79  2  0  0  0
 71 80  1  0  0  0
 72 79  1  0  0  0
 72 81  2  0  0  0
 72 82  1  0  0  0
 73 80  2  0  0  0
 73 81  1  0  0  0
 74 76  1  0  0  0
 74 82  1  0  0  0
 74143  1  0  0  0
 74144  1  0  0  0
 75 77  1  0  0  0
 75 82  1  0  0  0
 75145  1  0  0  0
 75146  1  0  0  0
 76 83  1  0  0  0
 76147  1  0  0  0
 76148  1  0  0  0
 77 83  1  0  0  0
 77149  1  0  0  0
 77150  1  0  0  0
 78151  1  0  0  0
 78152  1  0  0  0
 78153  1  0  0  0
M  ISO  4   1 100  68 101  73 101  83 100
M  END
> <chiral flag>
0

> <version>
0

> <s_m_source_file>
/data/baiqing/PycharmProjects/Reinvent-master-3.2/result/LINK_invent/BTK/process_docking_weight1_custom_sum_contain_oxygen_bond_distance_aromatic_linkinvent_7_9_3/rearranged_h_0189.sdf

> <i_m_source_file_index>
26

> <r_mmod_Potential_Energy-OPLS-2005>
810.820251464844

> <r_mmod_Stretch_Energy-OPLS-2005>
540.760803222656

> <r_mmod_Bend_Energy-OPLS-2005>
530.830383300781

> <r_mmod_Torsional_Energy-OPLS-2005>
316.351684570312

> <r_mmod_Improper_Torsional_Energy-OPLS-2005>
5.05304622650146

> <r_mmod_Van_der_Waal_Energy-OPLS-2005>
155.130447387695

> <r_mmod_Electrostatic_Energy-OPLS-2005>
-1028.75512695312

> <r_mmod_Solvation_Energy-OPLS-2005>
-249.407333374023

> <b_mmod_Minimization_Converged-OPLS-2005>
0

> <r_mmod_RMS_Derivative-OPLS-2005>
4.15826225280762

$$$$
26
                    3D
 Structure written by MMmdl.
150158  0  0  1  0            999 V2000
  -30.3858  -15.3182   20.4176 C   0  0  0  0  0  0
  -30.4304  -12.8474   19.5580 C   0  0  0  0  0  0
  -29.5414  -12.5983   18.3106 C   0  0  0  0  0  0
  -28.0902  -12.3107   18.7306 C   0  0  0  0  0  0
  -27.6118  -13.2760   19.8460 C   0  0  2  0  0  0
  -28.6354  -13.4386   20.9897 C   0  0  0  0  0  0
  -25.2368  -13.8226   20.5761 C   0  0  0  0  0  0
  -24.1732  -13.0420   20.9262 C   0  0  0  0  0  0
  -24.6403  -11.6921   20.8781 C   0  0  0  0  0  0
  -23.9116  -10.4286   21.0426 C   0  0  0  0  0  0
  -24.3660   -9.4201   21.9208 C   0  0  0  0  0  0
  -23.6322   -8.2248   22.0773 C   0  0  0  0  0  0
  -22.4295   -8.0290   21.3548 C   0  0  0  0  0  0
  -21.9942   -9.0288   20.4678 C   0  0  0  0  0  0
  -22.7272  -10.2150   20.3085 C   0  0  0  0  0  0
  -21.6868   -6.0773   22.5301 C   0  0  0  0  0  0
  -21.4043   -6.5669   23.8239 C   0  0  0  0  0  0
  -21.3649   -5.6816   24.9181 C   0  0  0  0  0  0
  -21.6021   -4.3074   24.7204 C   0  0  0  0  0  0
  -21.8808   -3.8176   23.4325 C   0  0  0  0  0  0
  -21.9198   -4.6995   22.3394 C   0  0  0  0  0  0
  -22.7755  -13.5191   21.1848 C   0  0  0  0  0  0
  -22.1653   -4.2197   21.0960 F   0  0  0  0  0  0
  -21.5598   -3.4566   25.7721 F   0  0  0  0  0  0
  -29.8510  -13.9921   20.3724 N   0  0  0  0  0  0
  -26.2816  -12.9519   20.3315 N   0  0  0  0  0  0
  -25.9343  -11.6616   20.5759 N   0  0  0  0  0  0
  -22.0386  -12.8197   22.0391 N   0  0  0  0  0  0
  -25.3891  -15.1937   20.4082 N   0  0  0  0  0  0
  -31.5876  -15.3197   20.0946 O   0  0  0  0  0  0
  -21.6641   -6.8912   21.4264 O   0  0  0  0  0  0
  -22.3474  -14.5524   20.6705 O   0  0  0  0  0  0
  -24.6599  -31.8198   23.1743 C   0  0  0  0  0  0
  -25.9285  -32.4565   23.8183 C   0  0  1  0  0  0
  -27.1983  -26.8906   20.2253 C   0  0  0  0  0  0
  -25.5973  -33.8387   24.2060 N   0  0  0  0  0  0
  -23.4766  -30.4330   21.5164 C   0  0  2  0  0  0
  -24.9338  -28.8204   20.1105 C   0  0  0  0  0  0
  -22.7637  -29.4403   22.4719 C   0  0  0  0  0  0
  -18.0322  -28.1397   22.8452 C   0  0  0  0  0  0
  -24.1509  -36.7227   23.2641 C   0  0  0  0  0  0
  -26.0450  -30.6219   21.4112 C   0  0  0  0  0  0
  -26.1125  -29.2058   20.7609 C   0  0  0  0  0  0
  -27.2393  -28.2620   20.7930 C   0  0  0  0  0  0
  -25.9989  -26.6680   19.5135 C   0  0  0  0  0  0
  -24.9066  -27.5746   19.4630 C   0  0  0  0  0  0
  -23.7228  -29.7559   20.1393 C   0  0  0  0  0  0
  -25.4150  -36.2941   24.0269 C   0  0  1  0  0  0
  -20.5940  -28.3749   23.1175 C   0  0  2  0  0  0
  -20.6798  -26.9432   22.5384 C   0  0  0  0  0  0
  -19.5771  -26.6366   21.5195 C   0  0  0  0  0  0
  -18.1964  -26.7926   22.1614 C   0  0  0  0  0  0
  -19.1584  -28.8903   23.2806 C   0  0  0  0  0  0
  -18.9486  -30.1489   23.8855 C   0  0  0  0  0  0
  -17.6475  -30.6582   24.0562 C   0  0  0  0  0  0
  -25.9097  -34.9322   23.4979 C   0  0  0  0  0  0
  -16.5371  -29.9067   23.6341 C   0  0  0  0  0  0
  -16.7306  -28.6490   23.0362 C   0  0  0  0  0  0
  -26.4565  -31.6541   25.0722 C   0  0  0  0  0  0
  -25.3701  -31.3831   26.1393 C   0  0  0  0  0  0
  -27.0445  -30.2879   24.6503 C   0  0  0  0  0  0
  -27.6020  -32.4391   25.7566 C   0  0  0  0  0  0
  -27.5559  -37.1782   24.8453 C   0  0  0  0  0  0
  -21.4306  -29.3025   22.3495 N   0  0  0  0  0  0
  -26.4288  -37.3672   23.9368 N   0  0  0  0  0  0
  -24.7468  -30.9870   22.0877 N   0  0  0  0  0  0
  -23.4202  -28.7939   23.2932 O   0  0  0  0  0  0
  -28.1754  -25.7597   20.3517 O   0  0  0  0  0  0
  -26.5694  -34.8842   22.4563 O   0  0  0  0  0  0
  -23.5674  -32.1163   23.6850 O   0  0  0  0  0  0
  -28.0709  -18.5253   21.4004 C   0  0  0  0  0  0
  -28.6298  -17.0180   21.5568 C   0  0  0  0  0  0
  -29.7888  -18.1270   19.9324 C   0  0  0  0  0  0
  -29.1242  -19.4895   20.7656 C   0  0  1  0  0  0
  -28.7698  -22.5721   20.6840 C   0  0  0  0  0  0
  -27.9382  -24.1151   20.1619 C   0  0  0  0  0  0
  -29.6331  -16.6237   20.5231 N   0  0  0  0  0  0
  -28.5838  -20.9773   20.1739 N   0  3  0  0  0  0
  -31.4511  -13.0548   19.2335 H   0  0  0  0  0  0
  -30.5158  -11.9460   20.1665 H   0  0  0  0  0  0
  -29.9354  -11.7710   17.7177 H   0  0  0  0  0  0
  -29.5748  -13.4757   17.6640 H   0  0  0  0  0  0
  -28.0527  -11.2839   19.0963 H   0  0  0  0  0  0
  -27.4267  -12.3507   17.8650 H   0  0  0  0  0  0
  -27.5263  -14.2489   19.3637 H   0  0  0  0  0  0
  -28.8202  -12.4916   21.5007 H   0  0  0  0  0  0
  -28.2647  -14.1284   21.7478 H   0  0  0  0  0  0
  -25.2803   -9.5687   22.4815 H   0  0  0  0  0  0
  -24.0026   -7.4635   22.7495 H   0  0  0  0  0  0
  -21.0858   -8.8855   19.8976 H   0  0  0  0  0  0
  -22.3754  -10.9734   19.6236 H   0  0  0  0  0  0
  -21.2082   -7.6192   23.9757 H   0  0  0  0  0  0
  -21.1464   -6.0530   25.9083 H   0  0  0  0  0  0
  -22.0592   -2.7630   23.2804 H   0  0  0  0  0  0
  -22.4028  -11.9930   22.4898 H   0  0  0  0  0  0
  -21.1031  -13.1291   22.2606 H   0  0  0  0  0  0
  -24.5929  -15.8144   20.4878 H   0  0  0  0  0  0
  -26.1964  -15.6382   19.9892 H   0  0  0  0  0  0
  -26.7336  -32.5109   23.0881 H   0  0  0  0  0  0
  -25.0088  -33.9476   25.0186 H   0  0  0  0  0  0
  -22.7902  -31.2666   21.3490 H   0  0  0  0  0  0
  -23.3728  -35.9604   23.3310 H   0  0  0  0  0  0
  -24.3568  -36.8879   22.2054 H   0  0  0  0  0  0
  -23.7353  -37.6442   23.6725 H   0  0  0  0  0  0
  -26.2224  -31.3664   20.6337 H   0  0  0  0  0  0
  -26.9054  -30.6840   22.0665 H   0  0  0  0  0  0
  -28.1210  -28.5506   21.3474 H   0  0  0  0  0  0
  -25.8662  -25.7167   19.0215 H   0  0  0  0  0  0
  -24.0154  -27.2774   18.9283 H   0  0  0  0  0  0
  -23.8865  -30.5303   19.3883 H   0  0  0  0  0  0
  -22.8336  -29.2140   19.8128 H   0  0  0  0  0  0
  -25.1364  -36.1714   25.0761 H   0  0  0  0  0  0
  -21.0054  -28.3369   24.1288 H   0  0  0  0  0  0
  -20.5691  -26.2346   23.3612 H   0  0  0  0  0  0
  -21.6663  -26.7395   22.1191 H   0  0  0  0  0  0
  -19.6928  -25.6261   21.1272 H   0  0  0  0  0  0
  -19.6726  -27.3133   20.6698 H   0  0  0  0  0  0
  -17.4218  -26.6647   21.4046 H   0  0  0  0  0  0
  -18.0391  -26.0088   22.9038 H   0  0  0  0  0  0
  -19.7977  -30.7321   24.2197 H   0  0  0  0  0  0
  -17.5038  -31.6265   24.5148 H   0  0  0  0  0  0
  -15.5384  -30.2960   23.7699 H   0  0  0  0  0  0
  -15.8698  -28.0801   22.7102 H   0  0  0  0  0  0
  -24.5796  -30.7286   25.7720 H   0  0  0  0  0  0
  -24.9013  -32.3065   26.4806 H   0  0  0  0  0  0
  -25.7917  -30.8975   27.0199 H   0  0  0  0  0  0
  -26.3076  -29.6562   24.1518 H   0  0  0  0  0  0
  -27.3914  -29.7273   25.5206 H   0  0  0  0  0  0
  -27.9085  -30.4021   23.9945 H   0  0  0  0  0  0
  -27.2485  -33.3667   26.2105 H   0  0  0  0  0  0
  -28.3882  -32.7013   25.0467 H   0  0  0  0  0  0
  -28.0643  -31.8567   26.5552 H   0  0  0  0  0  0
  -28.2570  -38.0072   24.7403 H   0  0  0  0  0  0
  -28.1048  -36.2577   24.6402 H   0  0  0  0  0  0
  -27.2236  -37.1574   25.8844 H   0  0  0  0  0  0
  -20.9517  -29.8759   21.6680 H   0  0  0  0  0  0
  -26.0113  -38.2721   24.1347 H   0  0  0  0  0  0
  -27.7122  -18.9116   22.3552 H   0  0  0  0  0  0
  -27.1950  -18.4918   20.7528 H   0  0  0  0  0  0
  -27.7981  -16.3142   21.5633 H   0  0  0  0  0  0
  -29.1147  -16.9246   22.5301 H   0  0  0  0  0  0
  -30.8401  -18.3149   19.7189 H   0  0  0  0  0  0
  -29.2974  -18.0840   18.9584 H   0  0  0  0  0  0
  -29.8372  -19.7368   21.5511 H   0  0  0  0  0  0
  -28.6163  -22.5282   21.7627 H   0  0  0  0  0  0
  -29.8366  -22.7582   20.5773 H   0  0  0  0  0  0
  -26.9206  -23.9794   20.5248 H   0  0  0  0  0  0
  -27.8371  -24.0097   19.0826 H   0  0  0  0  0  0
  -27.5814  -20.8646   20.1591 H   0  0  0  0  0  0
  -28.8487  -20.9855   19.2017 H   0  0  0  0  0  0
  1 25  1  0  0  0
  1 30  2  0  0  0
  1 77  1  0  0  0
  2  3  1  0  0  0
  2 25  1  0  0  0
  2 79  1  0  0  0
  2 80  1  0  0  0
  3  4  1  0  0  0
  3 81  1  0  0  0
  3 82  1  0  0  0
  4  5  1  0  0  0
  4 83  1  0  0  0
  4 84  1  0  0  0
  5  6  1  0  0  0
  5 26  1  0  0  0
  5 85  1  0  0  0
  6 25  1  0  0  0
  6 86  1  0  0  0
  6 87  1  0  0  0
  7  8  2  0  0  0
  7 26  1  0  0  0
  7 29  1  0  0  0
  8  9  1  0  0  0
  8 22  1  0  0  0
  9 10  1  0  0  0
  9 27  2  0  0  0
 10 11  2  0  0  0
 10 15  1  0  0  0
 11 12  1  0  0  0
 11 88  1  0  0  0
 12 13  2  0  0  0
 12 89  1  0  0  0
 13 14  1  0  0  0
 13 31  1  0  0  0
 14 15  2  0  0  0
 14 90  1  0  0  0
 15 91  1  0  0  0
 16 17  2  0  0  0
 16 21  1  0  0  0
 16 31  1  0  0  0
 17 18  1  0  0  0
 17 92  1  0  0  0
 18 19  2  0  0  0
 18 93  1  0  0  0
 19 20  1  0  0  0
 19 24  1  0  0  0
 20 21  2  0  0  0
 20 94  1  0  0  0
 21 23  1  0  0  0
 22 28  1  0  0  0
 22 32  2  0  0  0
 26 27  1  0  0  0
 28 95  1  0  0  0
 28 96  1  0  0  0
 29 97  1  0  0  0
 29 98  1  0  0  0
 33 34  1  0  0  0
 33 66  1  0  0  0
 33 70  2  0  0  0
 34 36  1  0  0  0
 34 59  1  0  0  0
 34 99  1  0  0  0
 35 44  2  0  0  0
 35 45  1  0  0  0
 35 68  1  0  0  0
 36 56  1  0  0  0
 36100  1  0  0  0
 37 39  1  0  0  0
 37 47  1  0  0  0
 37 66  1  0  0  0
 37101  1  0  0  0
 38 43  2  0  0  0
 38 46  1  0  0  0
 38 47  1  0  0  0
 39 64  1  0  0  0
 39 67  2  0  0  0
 40 52  1  0  0  0
 40 53  2  0  0  0
 40 58  1  0  0  0
 41102  1  0  0  0
 41103  1  0  0  0
 41104  1  0  0  0
 41 48  1  0  0  0
 42 43  1  0  0  0
 42 66  1  0  0  0
 42105  1  0  0  0
 42106  1  0  0  0
 43 44  1  0  0  0
 44107  1  0  0  0
 45 46  2  0  0  0
 45108  1  0  0  0
 46109  1  0  0  0
 47110  1  0  0  0
 47111  1  0  0  0
 48 56  1  0  0  0
 48 65  1  0  0  0
 48112  1  0  0  0
 49 50  1  0  0  0
 49 53  1  0  0  0
 49 64  1  0  0  0
 49113  1  0  0  0
 50 51  1  0  0  0
 50114  1  0  0  0
 50115  1  0  0  0
 51 52  1  0  0  0
 51116  1  0  0  0
 51117  1  0  0  0
 52118  1  0  0  0
 52119  1  0  0  0
 53 54  1  0  0  0
 54 55  2  0  0  0
 54120  1  0  0  0
 55 57  1  0  0  0
 55121  1  0  0  0
 56 69  2  0  0  0
 57 58  2  0  0  0
 57122  1  0  0  0
 58123  1  0  0  0
 59 60  1  0  0  0
 59 61  1  0  0  0
 59 62  1  0  0  0
 60124  1  0  0  0
 60125  1  0  0  0
 60126  1  0  0  0
 61127  1  0  0  0
 61128  1  0  0  0
 61129  1  0  0  0
 62130  1  0  0  0
 62131  1  0  0  0
 62132  1  0  0  0
 63 65  1  0  0  0
 63133  1  0  0  0
 63134  1  0  0  0
 63135  1  0  0  0
 64136  1  0  0  0
 65137  1  0  0  0
 68 76  1  0  0  0
 71 72  1  0  0  0
 71 74  1  0  0  0
 71138  1  0  0  0
 71139  1  0  0  0
 72 77  1  0  0  0
 72140  1  0  0  0
 72141  1  0  0  0
 73 74  1  0  0  0
 73 77  1  0  0  0
 73142  1  0  0  0
 73143  1  0  0  0
 74 78  1  0  0  0
 74144  1  0  0  0
 75 76  1  0  0  0
 75 78  1  0  0  0
 75145  1  0  0  0
 75146  1  0  0  0
 76147  1  0  0  0
 76148  1  0  0  0
 78149  1  0  0  0
 78150  1  0  0  0
M  CHG  1  78   1
M  ISO  4   1 100  68 101  76 101  77 100
M  END
> <chiral flag>
0

> <version>
0

> <s_m_source_file>
/data/baiqing/PycharmProjects/Reinvent-master-3.2/result/LINK_invent/BTK/process_docking_weight1_custom_sum_contain_oxygen_bond_distance_aromatic_linkinvent_7_9_3/rearranged_h_0189.sdf

> <i_m_source_file_index>
27

> <r_mmod_Potential_Energy-OPLS-2005>
1430.38159179688

> <r_mmod_Stretch_Energy-OPLS-2005>
621.534057617188

> <r_mmod_Bend_Energy-OPLS-2005>
506.723510742188

> <r_mmod_Torsional_Energy-OPLS-2005>
330.140411376953

> <r_mmod_Improper_Torsional_Energy-OPLS-2005>
8.20745849609375

> <r_mmod_Van_der_Waal_Energy-OPLS-2005>
104.631088256836

> <r_mmod_Electrostatic_Energy-OPLS-2005>
-195.851898193359

> <r_mmod_Solvation_Energy-OPLS-2005>
-462.917297363281

> <b_mmod_Minimization_Converged-OPLS-2005>
0

> <r_mmod_RMS_Derivative-OPLS-2005>
5.36358022689819

$$$$
27
                    3D
 Structure written by MMmdl.
153162  0  0  1  0            999 V2000
  -30.4610  -15.3363   20.3455 C   0  0  0  0  0  0
  -30.4211  -12.8703   19.5104 C   0  0  0  0  0  0
  -29.5219  -12.5643   18.2882 C   0  0  0  0  0  0
  -28.0904  -12.2618   18.7493 C   0  0  0  0  0  0
  -27.6018  -13.2772   19.8123 C   0  0  2  0  0  0
  -28.6334  -13.5246   20.9336 C   0  0  0  0  0  0
  -25.2385  -13.8240   20.5799 C   0  0  0  0  0  0
  -24.1724  -13.0436   20.9282 C   0  0  0  0  0  0
  -24.6395  -11.6935   20.8785 C   0  0  0  0  0  0
  -23.9102  -10.4282   21.0427 C   0  0  0  0  0  0
  -24.3645   -9.4181   21.9191 C   0  0  0  0  0  0
  -23.6317   -8.2219   22.0744 C   0  0  0  0  0  0
  -22.4300   -8.0263   21.3546 C   0  0  0  0  0  0
  -21.9946   -9.0241   20.4653 C   0  0  0  0  0  0
  -22.7272  -10.2126   20.3077 C   0  0  0  0  0  0
  -21.6842   -6.0745   22.5289 C   0  0  0  0  0  0
  -21.3992   -6.5650   23.8212 C   0  0  0  0  0  0
  -21.3659   -5.6804   24.9177 C   0  0  0  0  0  0
  -21.6065   -4.3068   24.7220 C   0  0  0  0  0  0
  -21.8826   -3.8168   23.4337 C   0  0  0  0  0  0
  -21.9184   -4.6984   22.3397 C   0  0  0  0  0  0
  -22.7747  -13.5176   21.1902 C   0  0  0  0  0  0
  -22.1665   -4.2169   21.0977 F   0  0  0  0  0  0
  -21.5643   -3.4550   25.7734 F   0  0  0  0  0  0
  -29.8398  -14.0494   20.2687 N   0  0  0  0  0  0
  -26.2794  -12.9523   20.3238 N   0  0  0  0  0  0
  -25.9326  -11.6632   20.5753 N   0  0  0  0  0  0
  -22.0433  -12.8122   22.0459 N   0  0  0  0  0  0
  -25.4096  -15.1956   20.4283 N   0  0  0  0  0  0
  -31.6924  -15.2265   20.2156 O   0  0  0  0  0  0
  -21.6661   -6.8866   21.4240 O   0  0  0  0  0  0
  -22.3421  -14.5463   20.6721 O   0  0  0  0  0  0
  -24.6642  -31.8189   23.1711 C   0  0  0  0  0  0
  -25.9311  -32.4558   23.8162 C   0  0  1  0  0  0
  -27.2007  -26.8673   20.1807 C   0  0  0  0  0  0
  -25.5963  -33.8362   24.2055 N   0  0  0  0  0  0
  -23.4802  -30.4283   21.5238 C   0  0  2  0  0  0
  -24.9322  -28.8112   20.1138 C   0  0  0  0  0  0
  -22.7673  -29.4394   22.4826 C   0  0  0  0  0  0
  -18.0310  -28.1407   22.8457 C   0  0  0  0  0  0
  -24.1483  -36.7186   23.2657 C   0  0  0  0  0  0
  -26.0535  -30.6001   21.4152 C   0  0  0  0  0  0
  -26.1175  -29.1841   20.7615 C   0  0  0  0  0  0
  -27.2443  -28.2333   20.7747 C   0  0  0  0  0  0
  -25.9964  -26.6833   19.4604 C   0  0  0  0  0  0
  -24.8984  -27.5790   19.4476 C   0  0  0  0  0  0
  -23.7220  -29.7465   20.1497 C   0  0  0  0  0  0
  -25.4134  -36.2941   24.0292 C   0  0  1  0  0  0
  -20.5939  -28.3726   23.1226 C   0  0  2  0  0  0
  -20.6785  -26.9395   22.5455 C   0  0  0  0  0  0
  -19.5780  -26.6349   21.5228 C   0  0  0  0  0  0
  -18.1937  -26.7977   22.1551 C   0  0  0  0  0  0
  -19.1576  -28.8879   23.2833 C   0  0  0  0  0  0
  -18.9495  -30.1478   23.8866 C   0  0  0  0  0  0
  -17.6491  -30.6576   24.0565 C   0  0  0  0  0  0
  -25.9094  -34.9324   23.5008 C   0  0  0  0  0  0
  -16.5384  -29.9080   23.6313 C   0  0  0  0  0  0
  -16.7290  -28.6503   23.0316 C   0  0  0  0  0  0
  -26.4548  -31.6532   25.0710 C   0  0  0  0  0  0
  -25.3656  -31.3804   26.1360 C   0  0  0  0  0  0
  -27.0465  -30.2889   24.6493 C   0  0  0  0  0  0
  -27.6019  -32.4373   25.7515 C   0  0  0  0  0  0
  -27.5549  -37.1759   24.8475 C   0  0  0  0  0  0
  -21.4349  -29.3016   22.3581 N   0  0  0  0  0  0
  -26.4282  -37.3679   23.9380 N   0  0  0  0  0  0
  -24.7547  -30.9780   22.0896 N   0  0  0  0  0  0
  -23.4204  -28.7961   23.3091 O   0  0  0  0  0  0
  -28.1834  -25.7192   20.1849 O   0  0  0  0  0  0
  -26.5720  -34.8870   22.4611 O   0  0  0  0  0  0
  -23.5710  -32.1210   23.6771 O   0  0  0  0  0  0
  -26.3404  -22.7787   21.1282 C   0  0  0  0  0  0
  -28.2494  -21.7226   20.4515 C   0  0  0  0  0  0
  -27.8885  -24.2401   20.3738 C   0  0  0  0  0  0
  -30.0487  -19.5676   19.7125 C   0  0  0  0  0  0
  -28.1658  -18.9680   20.8950 C   0  0  0  0  0  0
  -30.6565  -18.0734   20.2477 C   0  0  0  0  0  0
  -28.4743  -17.3692   20.4025 C   0  0  0  0  0  0
  -24.9438  -22.6244   21.6972 C   0  0  0  0  0  0
  -27.0241  -21.6445   20.9541 N   0  0  0  0  0  0
  -26.6836  -24.0375   20.8776 N   0  0  0  0  0  0
  -28.7283  -23.0608   20.1440 N   0  0  0  0  0  0
  -28.8436  -20.2489   20.3528 N   0  0  0  0  0  0
  -29.8695  -16.7299   20.3341 N   0  0  0  0  0  0
  -30.5075  -11.9927   20.1529 H   0  0  0  0  0  0
  -31.4327  -13.0719   19.1571 H   0  0  0  0  0  0
  -29.9209  -11.7208   17.7221 H   0  0  0  0  0  0
  -29.5186  -13.4194   17.6105 H   0  0  0  0  0  0
  -28.0970  -11.2609   19.1853 H   0  0  0  0  0  0
  -27.4045  -12.2148   17.9018 H   0  0  0  0  0  0
  -27.4960  -14.2186   19.2718 H   0  0  0  0  0  0
  -28.8366  -12.6151   21.5030 H   0  0  0  0  0  0
  -28.2580  -14.2611   21.6446 H   0  0  0  0  0  0
  -25.2770   -9.5680   22.4763 H   0  0  0  0  0  0
  -24.0052   -7.4617   22.7444 H   0  0  0  0  0  0
  -21.0886   -8.8756   19.8940 H   0  0  0  0  0  0
  -22.3711  -10.9680   19.6209 H   0  0  0  0  0  0
  -21.1962   -7.6150   23.9712 H   0  0  0  0  0  0
  -21.1487   -6.0535   25.9078 H   0  0  0  0  0  0
  -22.0606   -2.7626   23.2833 H   0  0  0  0  0  0
  -22.4123  -11.9775   22.4768 H   0  0  0  0  0  0
  -21.1065  -13.1099   22.2734 H   0  0  0  0  0  0
  -24.6521  -15.8568   20.5555 H   0  0  0  0  0  0
  -26.2634  -15.6252   20.0990 H   0  0  0  0  0  0
  -26.7372  -32.5079   23.0867 H   0  0  0  0  0  0
  -24.9982  -33.9422   25.0119 H   0  0  0  0  0  0
  -22.7945  -31.2615   21.3543 H   0  0  0  0  0  0
  -23.3739  -35.9526   23.3332 H   0  0  0  0  0  0
  -24.3549  -36.8824   22.2071 H   0  0  0  0  0  0
  -23.7269  -37.6385   23.6717 H   0  0  0  0  0  0
  -26.2455  -31.3365   20.6336 H   0  0  0  0  0  0
  -26.9109  -30.6580   22.0717 H   0  0  0  0  0  0
  -28.1404  -28.5155   21.3081 H   0  0  0  0  0  0
  -25.8614  -25.7549   18.9269 H   0  0  0  0  0  0
  -24.0017  -27.2900   18.9150 H   0  0  0  0  0  0
  -23.8844  -30.5153   19.3938 H   0  0  0  0  0  0
  -22.8281  -29.2057   19.8303 H   0  0  0  0  0  0
  -25.1353  -36.1736   25.0788 H   0  0  0  0  0  0
  -21.0030  -28.3328   24.1344 H   0  0  0  0  0  0
  -20.5651  -26.2374   23.3730 H   0  0  0  0  0  0
  -21.6653  -26.7304   22.1287 H   0  0  0  0  0  0
  -19.6895  -25.6258   21.1308 H   0  0  0  0  0  0
  -19.6814  -27.3117   20.6741 H   0  0  0  0  0  0
  -17.4323  -26.6932   21.3814 H   0  0  0  0  0  0
  -18.0154  -26.0030   22.8812 H   0  0  0  0  0  0
  -19.7990  -30.7293   24.2185 H   0  0  0  0  0  0
  -17.5026  -31.6223   24.5214 H   0  0  0  0  0  0
  -15.5381  -30.2997   23.7606 H   0  0  0  0  0  0
  -15.8685  -28.0866   22.6977 H   0  0  0  0  0  0
  -24.5822  -30.7181   25.7665 H   0  0  0  0  0  0
  -24.8866  -32.3019   26.4677 H   0  0  0  0  0  0
  -25.7861  -30.9030   27.0221 H   0  0  0  0  0  0
  -26.3156  -29.6537   24.1474 H   0  0  0  0  0  0
  -27.3946  -29.7279   25.5180 H   0  0  0  0  0  0
  -27.9126  -30.4058   23.9968 H   0  0  0  0  0  0
  -27.2552  -33.3707   26.1961 H   0  0  0  0  0  0
  -28.3890  -32.6887   25.0393 H   0  0  0  0  0  0
  -28.0620  -31.8597   26.5541 H   0  0  0  0  0  0
  -28.2607  -38.0010   24.7447 H   0  0  0  0  0  0
  -28.1002  -36.2536   24.6423 H   0  0  0  0  0  0
  -27.2238  -37.1560   25.8872 H   0  0  0  0  0  0
  -20.9642  -29.8620   21.6627 H   0  0  0  0  0  0
  -26.0118  -38.2733   24.1381 H   0  0  0  0  0  0
  -29.8130  -19.4713   18.6517 H   0  0  0  0  0  0
  -30.8634  -20.2901   19.7465 H   0  0  0  0  0  0
  -28.2959  -18.9986   21.9770 H   0  0  0  0  0  0
  -27.0926  -19.1042   20.7521 H   0  0  0  0  0  0
  -31.0781  -18.2340   21.2420 H   0  0  0  0  0  0
  -31.5302  -17.8691   19.6225 H   0  0  0  0  0  0
  -28.0391  -17.2393   19.4086 H   0  0  0  0  0  0
  -27.8853  -16.7175   21.0473 H   0  0  0  0  0  0
  -24.8116  -21.6650   22.1964 H   0  0  0  0  0  0
  -24.2002  -22.7062   20.9036 H   0  0  0  0  0  0
  -24.7388  -23.4052   22.4297 H   0  0  0  0  0  0
  1 25  1  0  0  0
  1 30  2  0  0  0
  1 83  1  0  0  0
  2  3  1  0  0  0
  2 25  1  0  0  0
  2 84  1  0  0  0
  2 85  1  0  0  0
  3  4  1  0  0  0
  3 86  1  0  0  0
  3 87  1  0  0  0
  4  5  1  0  0  0
  4 88  1  0  0  0
  4 89  1  0  0  0
  5  6  1  0  0  0
  5 26  1  0  0  0
  5 90  1  0  0  0
  6 25  1  0  0  0
  6 91  1  0  0  0
  6 92  1  0  0  0
  7  8  2  0  0  0
  7 26  1  0  0  0
  7 29  1  0  0  0
  8  9  1  0  0  0
  8 22  1  0  0  0
  9 10  1  0  0  0
  9 27  2  0  0  0
 10 11  2  0  0  0
 10 15  1  0  0  0
 11 12  1  0  0  0
 11 93  1  0  0  0
 12 13  2  0  0  0
 12 94  1  0  0  0
 13 14  1  0  0  0
 13 31  1  0  0  0
 14 15  2  0  0  0
 14 95  1  0  0  0
 15 96  1  0  0  0
 16 17  2  0  0  0
 16 21  1  0  0  0
 16 31  1  0  0  0
 17 18  1  0  0  0
 17 97  1  0  0  0
 18 19  2  0  0  0
 18 98  1  0  0  0
 19 20  1  0  0  0
 19 24  1  0  0  0
 20 21  2  0  0  0
 20 99  1  0  0  0
 21 23  1  0  0  0
 22 28  1  0  0  0
 22 32  2  0  0  0
 26 27  1  0  0  0
 28100  1  0  0  0
 28101  1  0  0  0
 29102  1  0  0  0
 29103  1  0  0  0
 33 34  1  0  0  0
 33 66  1  0  0  0
 33 70  2  0  0  0
 34 36  1  0  0  0
 34 59  1  0  0  0
 34104  1  0  0  0
 35 44  2  0  0  0
 35 45  1  0  0  0
 35 68  1  0  0  0
 36 56  1  0  0  0
 36105  1  0  0  0
 37 39  1  0  0  0
 37 47  1  0  0  0
 37 66  1  0  0  0
 37106  1  0  0  0
 38 43  2  0  0  0
 38 46  1  0  0  0
 38 47  1  0  0  0
 39 64  1  0  0  0
 39 67  2  0  0  0
 40 52  1  0  0  0
 40 53  2  0  0  0
 40 58  1  0  0  0
 41107  1  0  0  0
 41108  1  0  0  0
 41109  1  0  0  0
 41 48  1  0  0  0
 42 43  1  0  0  0
 42 66  1  0  0  0
 42110  1  0  0  0
 42111  1  0  0  0
 43 44  1  0  0  0
 44112  1  0  0  0
 45 46  2  0  0  0
 45113  1  0  0  0
 46114  1  0  0  0
 47115  1  0  0  0
 47116  1  0  0  0
 48 56  1  0  0  0
 48 65  1  0  0  0
 48117  1  0  0  0
 49 50  1  0  0  0
 49 53  1  0  0  0
 49 64  1  0  0  0
 49118  1  0  0  0
 50 51  1  0  0  0
 50119  1  0  0  0
 50120  1  0  0  0
 51 52  1  0  0  0
 51121  1  0  0  0
 51122  1  0  0  0
 52123  1  0  0  0
 52124  1  0  0  0
 53 54  1  0  0  0
 54 55  2  0  0  0
 54125  1  0  0  0
 55 57  1  0  0  0
 55126  1  0  0  0
 56 69  2  0  0  0
 57 58  2  0  0  0
 57127  1  0  0  0
 58128  1  0  0  0
 59 60  1  0  0  0
 59 61  1  0  0  0
 59 62  1  0  0  0
 60129  1  0  0  0
 60130  1  0  0  0
 60131  1  0  0  0
 61132  1  0  0  0
 61133  1  0  0  0
 61134  1  0  0  0
 62135  1  0  0  0
 62136  1  0  0  0
 62137  1  0  0  0
 63 65  1  0  0  0
 63138  1  0  0  0
 63139  1  0  0  0
 63140  1  0  0  0
 64141  1  0  0  0
 65142  1  0  0  0
 68 73  1  0  0  0
 71 78  1  0  0  0
 71 79  2  0  0  0
 71 80  1  0  0  0
 72 79  1  0  0  0
 72 81  2  0  0  0
 72 82  1  0  0  0
 73 80  2  0  0  0
 73 81  1  0  0  0
 74 76  1  0  0  0
 74 82  1  0  0  0
 74143  1  0  0  0
 74144  1  0  0  0
 75 77  1  0  0  0
 75 82  1  0  0  0
 75145  1  0  0  0
 75146  1  0  0  0
 76 83  1  0  0  0
 76147  1  0  0  0
 76148  1  0  0  0
 77 83  1  0  0  0
 77149  1  0  0  0
 77150  1  0  0  0
 78151  1  0  0  0
 78152  1  0  0  0
 78153  1  0  0  0
M  ISO  4   1 100  68 101  73 101  83 100
M  END
> <chiral flag>
0

> <version>
0

> <s_m_source_file>
/data/baiqing/PycharmProjects/Reinvent-master-3.2/result/LINK_invent/BTK/process_docking_weight1_custom_sum_contain_oxygen_bond_distance_aromatic_linkinvent_7_9_3/rearranged_h_0189.sdf

> <i_m_source_file_index>
28

> <r_mmod_Potential_Energy-OPLS-2005>
810.820251464844

> <r_mmod_Stretch_Energy-OPLS-2005>
540.760803222656

> <r_mmod_Bend_Energy-OPLS-2005>
530.830383300781

> <r_mmod_Torsional_Energy-OPLS-2005>
316.351684570312

> <r_mmod_Improper_Torsional_Energy-OPLS-2005>
5.05304622650146

> <r_mmod_Van_der_Waal_Energy-OPLS-2005>
155.130447387695

> <r_mmod_Electrostatic_Energy-OPLS-2005>
-1028.75512695312

> <r_mmod_Solvation_Energy-OPLS-2005>
-249.407333374023

> <b_mmod_Minimization_Converged-OPLS-2005>
0

> <r_mmod_RMS_Derivative-OPLS-2005>
4.15826225280762

$$$$
28
                    3D
 Structure written by MMmdl.
154163  0  0  1  0            999 V2000
  -30.5329  -15.1170   20.3820 C   0  0  0  0  0  0
  -30.4337  -12.7114   19.4979 C   0  0  0  0  0  0
  -29.5189  -12.5375   18.2637 C   0  0  0  0  0  0
  -28.0664  -12.2768   18.7007 C   0  0  0  0  0  0
  -27.6119  -13.2431   19.8216 C   0  0  2  0  0  0
  -28.6585  -13.3973   20.9476 C   0  0  0  0  0  0
  -25.2397  -13.8155   20.5730 C   0  0  0  0  0  0
  -24.1731  -13.0389   20.9268 C   0  0  0  0  0  0
  -24.6360  -11.6882   20.8792 C   0  0  0  0  0  0
  -23.9053  -10.4263   21.0429 C   0  0  0  0  0  0
  -24.3608   -9.4179   21.9198 C   0  0  0  0  0  0
  -23.6285   -8.2215   22.0757 C   0  0  0  0  0  0
  -22.4267   -8.0262   21.3543 C   0  0  0  0  0  0
  -21.9905   -9.0236   20.4648 C   0  0  0  0  0  0
  -22.7233  -10.2114   20.3067 C   0  0  0  0  0  0
  -21.6846   -6.0725   22.5278 C   0  0  0  0  0  0
  -21.4009   -6.5632   23.8211 C   0  0  0  0  0  0
  -21.3659   -5.6787   24.9175 C   0  0  0  0  0  0
  -21.6046   -4.3051   24.7227 C   0  0  0  0  0  0
  -21.8818   -3.8140   23.4348 C   0  0  0  0  0  0
  -21.9190   -4.6955   22.3403 C   0  0  0  0  0  0
  -22.7758  -13.5176   21.1905 C   0  0  0  0  0  0
  -22.1661   -4.2139   21.0981 F   0  0  0  0  0  0
  -21.5631   -3.4535   25.7742 F   0  0  0  0  0  0
  -29.9038  -13.8555   20.3116 N   0  0  0  0  0  0
  -26.2811  -12.9379   20.3250 N   0  0  0  0  0  0
  -25.9291  -11.6520   20.5776 N   0  0  0  0  0  0
  -22.0402  -12.8178   22.0461 N   0  0  0  0  0  0
  -25.3997  -15.1879   20.4100 N   0  0  0  0  0  0
  -31.7615  -15.0784   20.2349 O   0  0  0  0  0  0
  -21.6629   -6.8864   21.4239 O   0  0  0  0  0  0
  -22.3454  -14.5484   20.6740 O   0  0  0  0  0  0
  -24.6527  -31.8351   23.1806 C   0  0  0  0  0  0
  -25.9257  -32.4650   23.8230 C   0  0  1  0  0  0
  -27.2175  -27.0389   20.1660 C   0  0  0  0  0  0
  -25.5966  -33.8458   24.2140 N   0  0  0  0  0  0
  -23.4614  -30.4518   21.5283 C   0  0  2  0  0  0
  -24.9126  -28.8617   20.1129 C   0  0  0  0  0  0
  -22.7616  -29.4501   22.4825 C   0  0  0  0  0  0
  -18.0313  -28.1401   22.8473 C   0  0  0  0  0  0
  -24.1493  -36.7234   23.2645 C   0  0  0  0  0  0
  -26.0247  -30.6782   21.3942 C   0  0  0  0  0  0
  -26.0947  -29.2796   20.7369 C   0  0  0  0  0  0
  -27.2461  -28.3880   20.7408 C   0  0  0  0  0  0
  -26.0046  -26.7483   19.5007 C   0  0  0  0  0  0
  -24.8865  -27.6127   19.4768 C   0  0  0  0  0  0
  -23.6943  -29.7762   20.1508 C   0  0  0  0  0  0
  -25.4129  -36.3004   24.0309 C   0  0  1  0  0  0
  -20.5933  -28.3736   23.1213 C   0  0  2  0  0  0
  -20.6795  -26.9430   22.5402 C   0  0  0  0  0  0
  -19.5767  -26.6379   21.5214 C   0  0  0  0  0  0
  -18.1949  -26.7936   22.1624 C   0  0  0  0  0  0
  -19.1573  -28.8888   23.2832 C   0  0  0  0  0  0
  -18.9485  -30.1481   23.8862 C   0  0  0  0  0  0
  -17.6479  -30.6594   24.0557 C   0  0  0  0  0  0
  -25.9087  -34.9383   23.5039 C   0  0  0  0  0  0
  -16.5370  -29.9084   23.6339 C   0  0  0  0  0  0
  -16.7297  -28.6503   23.0360 C   0  0  0  0  0  0
  -26.4542  -31.6552   25.0713 C   0  0  0  0  0  0
  -25.3697  -31.3769   26.1388 C   0  0  0  0  0  0
  -27.0426  -30.2935   24.6367 C   0  0  0  0  0  0
  -27.6052  -32.4340   25.7508 C   0  0  0  0  0  0
  -27.5573  -37.1776   24.8466 C   0  0  0  0  0  0
  -21.4298  -29.3047   22.3575 N   0  0  0  0  0  0
  -26.4286  -37.3726   23.9406 N   0  0  0  0  0  0
  -24.7336  -31.0119   22.0888 N   0  0  0  0  0  0
  -23.4215  -28.8056   23.3016 O   0  0  0  0  0  0
  -28.2478  -25.9953   20.2283 O   0  0  0  0  0  0
  -26.5683  -34.8897   22.4626 O   0  0  0  0  0  0
  -23.5622  -32.1270   23.6965 O   0  0  0  0  0  0
  -28.2515  -18.2849   19.7334 C   0  0  0  0  0  0
  -28.4646  -16.7352   20.0407 C   0  0  0  0  0  0
  -30.3948  -17.8992   20.5400 C   0  0  0  0  0  0
  -29.1293  -21.8242   21.2659 C   0  0  0  0  0  0
  -28.5502  -21.5742   19.4100 C   0  0  0  0  0  0
  -28.9155  -22.9741   20.1466 C   0  0  1  0  0  0
  -29.2350  -19.1073   20.5849 C   0  0  1  0  0  0
  -27.9426  -24.4231   20.1596 C   0  0  0  0  0  0
  -29.8578  -16.4184   20.4352 N   0  0  0  0  0  0
  -29.4540  -20.6984   20.2738 N   0  3  2  0  0  0
  -31.4577  -12.8876   19.1654 H   0  0  0  0  0  0
  -30.4695  -11.7958   20.0905 H   0  0  0  0  0  0
  -29.8763  -11.7183   17.6381 H   0  0  0  0  0  0
  -29.5610  -13.4370   17.6472 H   0  0  0  0  0  0
  -28.0106  -11.2490   19.0610 H   0  0  0  0  0  0
  -27.3929  -12.3372   17.8448 H   0  0  0  0  0  0
  -27.5211  -14.1986   19.3181 H   0  0  0  0  0  0
  -28.8033  -12.4606   21.4881 H   0  0  0  0  0  0
  -28.3236  -14.1317   21.6815 H   0  0  0  0  0  0
  -25.2747   -9.5657   22.4780 H   0  0  0  0  0  0
  -23.9991   -7.4603   22.7472 H   0  0  0  0  0  0
  -21.0837   -8.8758   19.8951 H   0  0  0  0  0  0
  -22.3694  -10.9658   19.6181 H   0  0  0  0  0  0
  -21.1999   -7.6140   23.9713 H   0  0  0  0  0  0
  -21.1485   -6.0517   25.9078 H   0  0  0  0  0  0
  -22.0600   -2.7603   23.2850 H   0  0  0  0  0  0
  -22.4021  -11.9847   22.4862 H   0  0  0  0  0  0
  -21.1017  -13.1203   22.2657 H   0  0  0  0  0  0
  -24.6251  -15.8331   20.5206 H   0  0  0  0  0  0
  -26.2388  -15.6307   20.0626 H   0  0  0  0  0  0
  -26.7323  -32.5224   23.0952 H   0  0  0  0  0  0
  -25.0076  -33.9557   25.0264 H   0  0  0  0  0  0
  -22.7690  -31.2807   21.3670 H   0  0  0  0  0  0
  -23.3762  -35.9560   23.3290 H   0  0  0  0  0  0
  -24.3572  -36.8889   22.2062 H   0  0  0  0  0  0
  -23.7245  -37.6421   23.6701 H   0  0  0  0  0  0
  -26.1924  -31.4267   20.6186 H   0  0  0  0  0  0
  -26.8899  -30.7308   22.0433 H   0  0  0  0  0  0
  -28.1443  -28.7058   21.2516 H   0  0  0  0  0  0
  -25.8772  -25.7994   19.0045 H   0  0  0  0  0  0
  -23.9867  -27.2877   18.9727 H   0  0  0  0  0  0
  -23.8410  -30.5485   19.3947 H   0  0  0  0  0  0
  -22.8064  -29.2253   19.8356 H   0  0  0  0  0  0
  -25.1323  -36.1819   25.0800 H   0  0  0  0  0  0
  -21.0024  -28.3334   24.1335 H   0  0  0  0  0  0
  -20.5683  -26.2353   23.3631 H   0  0  0  0  0  0
  -21.6659  -26.7422   22.1203 H   0  0  0  0  0  0
  -19.6927  -25.6280   21.1266 H   0  0  0  0  0  0
  -19.6703  -27.3170   20.6727 H   0  0  0  0  0  0
  -17.4218  -26.6679   21.4030 H   0  0  0  0  0  0
  -18.0347  -26.0088   22.9030 H   0  0  0  0  0  0
  -19.7961  -30.7308   24.2217 H   0  0  0  0  0  0
  -17.5032  -31.6271   24.5164 H   0  0  0  0  0  0
  -15.5369  -30.2973   23.7683 H   0  0  0  0  0  0
  -15.8698  -28.0809   22.7095 H   0  0  0  0  0  0
  -24.5887  -30.7109   25.7698 H   0  0  0  0  0  0
  -24.8876  -32.2959   26.4727 H   0  0  0  0  0  0
  -25.7953  -30.8992   27.0222 H   0  0  0  0  0  0
  -26.3069  -29.6634   24.1355 H   0  0  0  0  0  0
  -27.3980  -29.7266   25.4982 H   0  0  0  0  0  0
  -27.9001  -30.4145   23.9746 H   0  0  0  0  0  0
  -27.2630  -33.3669   26.2001 H   0  0  0  0  0  0
  -28.3907  -32.6856   25.0371 H   0  0  0  0  0  0
  -28.0671  -31.8525   26.5496 H   0  0  0  0  0  0
  -28.2580  -38.0081   24.7508 H   0  0  0  0  0  0
  -28.1079  -36.2608   24.6302 H   0  0  0  0  0  0
  -27.2288  -37.1431   25.8869 H   0  0  0  0  0  0
  -20.9528  -29.8753   21.6734 H   0  0  0  0  0  0
  -26.0144  -38.2792   24.1406 H   0  0  0  0  0  0
  -27.2182  -18.5889   19.9051 H   0  0  0  0  0  0
  -28.4609  -18.4694   18.6786 H   0  0  0  0  0  0
  -28.1960  -16.1745   19.1484 H   0  0  0  0  0  0
  -27.8115  -16.4233   20.8553 H   0  0  0  0  0  0
  -31.0445  -17.9793   21.4119 H   0  0  0  0  0  0
  -31.0372  -18.0606   19.6735 H   0  0  0  0  0  0
  -28.2217  -21.6160   21.8383 H   0  0  0  0  0  0
  -29.9520  -22.0286   21.9513 H   0  0  0  0  0  0
  -28.8280  -21.5489   18.3560 H   0  0  0  0  0  0
  -27.4968  -21.3022   19.5138 H   0  0  0  0  0  0
  -29.9044  -23.2573   19.7830 H   0  0  0  0  0  0
  -28.8369  -19.0953   21.5998 H   0  0  0  0  0  0
  -27.1889  -24.2746   20.9336 H   0  0  0  0  0  0
  -27.3780  -24.3361   19.2336 H   0  0  0  0  0  0
  -30.4035  -20.8232   19.9571 H   0  0  0  0  0  0
  1 25  1  0  0  0
  1 30  2  0  0  0
  1 79  1  0  0  0
  2  3  1  0  0  0
  2 25  1  0  0  0
  2 81  1  0  0  0
  2 82  1  0  0  0
  3  4  1  0  0  0
  3 83  1  0  0  0
  3 84  1  0  0  0
  4  5  1  0  0  0
  4 85  1  0  0  0
  4 86  1  0  0  0
  5  6  1  0  0  0
  5 26  1  0  0  0
  5 87  1  0  0  0
  6 25  1  0  0  0
  6 88  1  0  0  0
  6 89  1  0  0  0
  7  8  2  0  0  0
  7 26  1  0  0  0
  7 29  1  0  0  0
  8  9  1  0  0  0
  8 22  1  0  0  0
  9 10  1  0  0  0
  9 27  2  0  0  0
 10 11  2  0  0  0
 10 15  1  0  0  0
 11 12  1  0  0  0
 11 90  1  0  0  0
 12 13  2  0  0  0
 12 91  1  0  0  0
 13 14  1  0  0  0
 13 31  1  0  0  0
 14 15  2  0  0  0
 14 92  1  0  0  0
 15 93  1  0  0  0
 16 17  2  0  0  0
 16 21  1  0  0  0
 16 31  1  0  0  0
 17 18  1  0  0  0
 17 94  1  0  0  0
 18 19  2  0  0  0
 18 95  1  0  0  0
 19 20  1  0  0  0
 19 24  1  0  0  0
 20 21  2  0  0  0
 20 96  1  0  0  0
 21 23  1  0  0  0
 22 28  1  0  0  0
 22 32  2  0  0  0
 26 27  1  0  0  0
 28 97  1  0  0  0
 28 98  1  0  0  0
 29 99  1  0  0  0
 29100  1  0  0  0
 33 34  1  0  0  0
 33 66  1  0  0  0
 33 70  2  0  0  0
 34 36  1  0  0  0
 34 59  1  0  0  0
 34101  1  0  0  0
 35 44  2  0  0  0
 35 45  1  0  0  0
 35 68  1  0  0  0
 36 56  1  0  0  0
 36102  1  0  0  0
 37 39  1  0  0  0
 37 47  1  0  0  0
 37 66  1  0  0  0
 37103  1  0  0  0
 38 43  2  0  0  0
 38 46  1  0  0  0
 38 47  1  0  0  0
 39 64  1  0  0  0
 39 67  2  0  0  0
 40 52  1  0  0  0
 40 53  2  0  0  0
 40 58  1  0  0  0
 41104  1  0  0  0
 41105  1  0  0  0
 41106  1  0  0  0
 41 48  1  0  0  0
 42 43  1  0  0  0
 42 66  1  0  0  0
 42107  1  0  0  0
 42108  1  0  0  0
 43 44  1  0  0  0
 44109  1  0  0  0
 45 46  2  0  0  0
 45110  1  0  0  0
 46111  1  0  0  0
 47112  1  0  0  0
 47113  1  0  0  0
 48 56  1  0  0  0
 48 65  1  0  0  0
 48114  1  0  0  0
 49 50  1  0  0  0
 49 53  1  0  0  0
 49 64  1  0  0  0
 49115  1  0  0  0
 50 51  1  0  0  0
 50116  1  0  0  0
 50117  1  0  0  0
 51 52  1  0  0  0
 51118  1  0  0  0
 51119  1  0  0  0
 52120  1  0  0  0
 52121  1  0  0  0
 53 54  1  0  0  0
 54 55  2  0  0  0
 54122  1  0  0  0
 55 57  1  0  0  0
 55123  1  0  0  0
 56 69  2  0  0  0
 57 58  2  0  0  0
 57124  1  0  0  0
 58125  1  0  0  0
 59 60  1  0  0  0
 59 61  1  0  0  0
 59 62  1  0  0  0
 60126  1  0  0  0
 60127  1  0  0  0
 60128  1  0  0  0
 61129  1  0  0  0
 61130  1  0  0  0
 61131  1  0  0  0
 62132  1  0  0  0
 62133  1  0  0  0
 62134  1  0  0  0
 63 65  1  0  0  0
 63135  1  0  0  0
 63136  1  0  0  0
 63137  1  0  0  0
 64138  1  0  0  0
 65139  1  0  0  0
 68 78  1  0  0  0
 71 72  1  0  0  0
 71140  1  0  0  0
 71141  1  0  0  0
 71 77  1  0  0  0
 72 79  1  0  0  0
 72142  1  0  0  0
 72143  1  0  0  0
 73 77  1  0  0  0
 73 79  1  0  0  0
 73144  1  0  0  0
 73145  1  0  0  0
 74 76  1  0  0  0
 74146  1  0  0  0
 74147  1  0  0  0
 74 80  1  0  0  0
 75 76  1  0  0  0
 75 80  1  0  0  0
 75148  1  0  0  0
 75149  1  0  0  0
 76 78  1  0  0  0
 76150  1  0  0  0
 77 80  1  0  0  0
 77151  1  0  0  0
 78152  1  0  0  0
 78153  1  0  0  0
 80154  1  0  0  0
M  CHG  1  80   1
M  ISO  4   1 100  68 101  78 101  79 100
M  END
> <chiral flag>
0

> <version>
0

> <s_m_source_file>
/data/baiqing/PycharmProjects/Reinvent-master-3.2/result/LINK_invent/BTK/process_docking_weight1_custom_sum_contain_oxygen_bond_distance_aromatic_linkinvent_7_9_3/rearranged_h_0189.sdf

> <i_m_source_file_index>
29

> <r_mmod_Potential_Energy-OPLS-2005>
864.773803710938

> <r_mmod_Stretch_Energy-OPLS-2005>
358.048645019531

> <r_mmod_Bend_Energy-OPLS-2005>
402.169403076172

> <r_mmod_Torsional_Energy-OPLS-2005>
342.105926513672

> <r_mmod_Improper_Torsional_Energy-OPLS-2005>
4.22430181503296

> <r_mmod_Van_der_Waal_Energy-OPLS-2005>
110.899604797363

> <r_mmod_Electrostatic_Energy-OPLS-2005>
-192.468353271484

> <r_mmod_Solvation_Energy-OPLS-2005>
-472.747314453125

> <b_mmod_Minimization_Converged-OPLS-2005>
0

> <r_mmod_RMS_Derivative-OPLS-2005>
0.396910578012466

$$$$
29
                    3D
 Structure written by MMmdl.
155164  0  0  1  0            999 V2000
  -30.5839  -14.9455   20.4171 C   0  0  0  0  0  0
  -30.4284  -12.5902   19.4914 C   0  0  0  0  0  0
  -29.5153  -12.5307   18.2478 C   0  0  0  0  0  0
  -28.0494  -12.3210   18.6693 C   0  0  0  0  0  0
  -27.6268  -13.2558   19.8343 C   0  0  2  0  0  0
  -28.6723  -13.3094   20.9681 C   0  0  0  0  0  0
  -25.2474  -13.8227   20.5753 C   0  0  0  0  0  0
  -24.1784  -13.0439   20.9219 C   0  0  0  0  0  0
  -24.6408  -11.6931   20.8749 C   0  0  0  0  0  0
  -23.9081  -10.4301   21.0404 C   0  0  0  0  0  0
  -24.3631   -9.4215   21.9188 C   0  0  0  0  0  0
  -23.6319   -8.2240   22.0744 C   0  0  0  0  0  0
  -22.4296   -8.0281   21.3534 C   0  0  0  0  0  0
  -21.9935   -9.0254   20.4635 C   0  0  0  0  0  0
  -22.7247  -10.2144   20.3047 C   0  0  0  0  0  0
  -21.6853   -6.0740   22.5280 C   0  0  0  0  0  0
  -21.4009   -6.5644   23.8215 C   0  0  0  0  0  0
  -21.3673   -5.6798   24.9178 C   0  0  0  0  0  0
  -21.6048   -4.3054   24.7223 C   0  0  0  0  0  0
  -21.8818   -3.8150   23.4345 C   0  0  0  0  0  0
  -21.9197   -4.6973   22.3403 C   0  0  0  0  0  0
  -22.7804  -13.5212   21.1889 C   0  0  0  0  0  0
  -22.1654   -4.2163   21.0978 F   0  0  0  0  0  0
  -21.5646   -3.4542   25.7736 F   0  0  0  0  0  0
  -29.9446  -13.7064   20.3547 N   0  0  0  0  0  0
  -26.2896  -12.9471   20.3275 N   0  0  0  0  0  0
  -25.9346  -11.6590   20.5738 N   0  0  0  0  0  0
  -22.0462  -12.8192   22.0439 N   0  0  0  0  0  0
  -25.4175  -15.1953   20.4224 N   0  0  0  0  0  0
  -31.7962  -14.9448   20.1715 O   0  0  0  0  0  0
  -21.6648   -6.8886   21.4237 O   0  0  0  0  0  0
  -22.3498  -14.5535   20.6759 O   0  0  0  0  0  0
  -24.6460  -31.8424   23.1880 C   0  0  0  0  0  0
  -25.9232  -32.4685   23.8263 C   0  0  1  0  0  0
  -27.2117  -27.1159   20.1461 C   0  0  0  0  0  0
  -25.5973  -33.8492   24.2188 N   0  0  0  0  0  0
  -23.4492  -30.4634   21.5353 C   0  0  2  0  0  0
  -24.8968  -28.8849   20.1169 C   0  0  0  0  0  0
  -22.7574  -29.4552   22.4869 C   0  0  0  0  0  0
  -18.0301  -28.1401   22.8469 C   0  0  0  0  0  0
  -24.1494  -36.7246   23.2637 C   0  0  0  0  0  0
  -26.0084  -30.7095   21.3900 C   0  0  0  0  0  0
  -26.0772  -29.3171   20.7329 C   0  0  0  0  0  0
  -27.2365  -28.4492   20.7310 C   0  0  0  0  0  0
  -26.0035  -26.7974   19.4844 C   0  0  0  0  0  0
  -24.8722  -27.6372   19.4798 C   0  0  0  0  0  0
  -23.6763  -29.7906   20.1563 C   0  0  0  0  0  0
  -25.4121  -36.3023   24.0320 C   0  0  1  0  0  0
  -20.5916  -28.3729   23.1233 C   0  0  2  0  0  0
  -20.6787  -26.9430   22.5400 C   0  0  0  0  0  0
  -19.5769  -26.6381   21.5201 C   0  0  0  0  0  0
  -18.1946  -26.7939   22.1611 C   0  0  0  0  0  0
  -19.1557  -28.8880   23.2845 C   0  0  0  0  0  0
  -18.9476  -30.1472   23.8879 C   0  0  0  0  0  0
  -17.6472  -30.6596   24.0549 C   0  0  0  0  0  0
  -25.9082  -34.9398   23.5060 C   0  0  0  0  0  0
  -16.5360  -29.9089   23.6339 C   0  0  0  0  0  0
  -16.7282  -28.6505   23.0362 C   0  0  0  0  0  0
  -26.4544  -31.6552   25.0708 C   0  0  0  0  0  0
  -25.3731  -31.3734   26.1400 C   0  0  0  0  0  0
  -27.0408  -30.2949   24.6287 C   0  0  0  0  0  0
  -27.6084  -32.4309   25.7490 C   0  0  0  0  0  0
  -27.5587  -37.1764   24.8453 C   0  0  0  0  0  0
  -21.4266  -29.3056   22.3622 N   0  0  0  0  0  0
  -26.4272  -37.3752   23.9436 N   0  0  0  0  0  0
  -24.7220  -31.0259   22.0931 N   0  0  0  0  0  0
  -23.4199  -28.8092   23.3025 O   0  0  0  0  0  0
  -28.2592  -26.1175   20.1774 O   0  0  0  0  0  0
  -26.5659  -34.8900   22.4634 O   0  0  0  0  0  0
  -23.5575  -32.1321   23.7077 O   0  0  0  0  0  0
  -28.9581  -23.3197   20.0735 C   0  0  0  0  0  0
  -29.6270  -21.0193   19.9971 C   0  0  0  0  0  0
  -30.8882  -22.6806   19.1815 C   0  0  0  0  0  0
  -30.4931  -18.6134   19.4032 C   0  0  0  0  0  0
  -28.8792  -18.6301   21.1294 C   0  0  0  0  0  0
  -30.0085  -17.1016   19.1481 C   0  0  0  0  0  0
  -29.5463  -17.1543   21.4566 C   0  0  0  0  0  0
  -27.9296  -24.5877   20.3225 C   0  0  0  0  0  0
  -28.6809  -21.9682   20.3704 N   0  0  0  0  0  0
  -30.0858  -23.6823   19.4693 N   0  0  0  0  0  0
  -30.7490  -21.3877   19.3917 N   0  0  0  0  0  0
  -29.5595  -19.5260   20.1380 N   0  0  0  0  0  0
  -29.8675  -16.1842   20.3316 N   0  0  0  0  0  0
  -32.0544  -23.0338   18.5819 N   0  0  0  0  0  0
  -31.4643  -12.7262   19.1805 H   0  0  0  0  0  0
  -30.4048  -11.6434   20.0332 H   0  0  0  0  0  0
  -29.8330  -11.7299   17.5801 H   0  0  0  0  0  0
  -29.6093  -13.4568   17.6787 H   0  0  0  0  0  0
  -27.9463  -11.2795   18.9763 H   0  0  0  0  0  0
  -27.3859  -12.4522   17.8126 H   0  0  0  0  0  0
  -27.5821  -14.2559   19.4027 H   0  0  0  0  0  0
  -28.7601  -12.3480   21.4760 H   0  0  0  0  0  0
  -28.3770  -14.0385   21.7244 H   0  0  0  0  0  0
  -25.2770   -9.5691   22.4778 H   0  0  0  0  0  0
  -24.0030   -7.4625   22.7456 H   0  0  0  0  0  0
  -21.0865   -8.8766   19.8943 H   0  0  0  0  0  0
  -22.3697  -10.9693   19.6161 H   0  0  0  0  0  0
  -21.1979   -7.6147   23.9718 H   0  0  0  0  0  0
  -21.1503   -6.0524   25.9082 H   0  0  0  0  0  0
  -22.0590   -2.7610   23.2834 H   0  0  0  0  0  0
  -22.4071  -11.9847   22.4826 H   0  0  0  0  0  0
  -21.1070  -13.1206   22.2631 H   0  0  0  0  0  0
  -24.6583  -15.8563   20.5456 H   0  0  0  0  0  0
  -26.2841  -15.6351   20.1400 H   0  0  0  0  0  0
  -26.7289  -32.5279   23.0983 H   0  0  0  0  0  0
  -25.0123  -33.9610   25.0337 H   0  0  0  0  0  0
  -22.7515  -31.2891   21.3777 H   0  0  0  0  0  0
  -23.3785  -35.9543   23.3228 H   0  0  0  0  0  0
  -24.3594  -36.8949   22.2065 H   0  0  0  0  0  0
  -23.7198  -37.6400   23.6718 H   0  0  0  0  0  0
  -26.1602  -31.4600   20.6137 H   0  0  0  0  0  0
  -26.8808  -30.7634   22.0291 H   0  0  0  0  0  0
  -28.1367  -28.7761   21.2322 H   0  0  0  0  0  0
  -25.8934  -25.8641   18.9570 H   0  0  0  0  0  0
  -23.9714  -27.3035   18.9824 H   0  0  0  0  0  0
  -23.8180  -30.5630   19.4000 H   0  0  0  0  0  0
  -22.7912  -29.2355   19.8424 H   0  0  0  0  0  0
  -25.1300  -36.1839   25.0809 H   0  0  0  0  0  0
  -20.9983  -28.3306   24.1366 H   0  0  0  0  0  0
  -20.5674  -26.2339   23.3622 H   0  0  0  0  0  0
  -21.6655  -26.7443   22.1199 H   0  0  0  0  0  0
  -19.6936  -25.6280   21.1263 H   0  0  0  0  0  0
  -19.6715  -27.3168   20.6715 H   0  0  0  0  0  0
  -17.4214  -26.6672   21.4011 H   0  0  0  0  0  0
  -18.0355  -26.0080   22.9014 H   0  0  0  0  0  0
  -19.7949  -30.7291   24.2241 H   0  0  0  0  0  0
  -17.5026  -31.6283   24.5148 H   0  0  0  0  0  0
  -15.5360  -30.2989   23.7684 H   0  0  0  0  0  0
  -15.8675  -28.0815   22.7111 H   0  0  0  0  0  0
  -24.5912  -30.7086   25.7710 H   0  0  0  0  0  0
  -24.8925  -32.2912   26.4802 H   0  0  0  0  0  0
  -25.8013  -30.8909   27.0199 H   0  0  0  0  0  0
  -26.3023  -29.6664   24.1299 H   0  0  0  0  0  0
  -27.4030  -29.7249   25.4858 H   0  0  0  0  0  0
  -27.8927  -30.4186   23.9600 H   0  0  0  0  0  0
  -27.2702  -33.3643   26.2003 H   0  0  0  0  0  0
  -28.3937  -32.6810   25.0343 H   0  0  0  0  0  0
  -28.0706  -31.8468   26.5464 H   0  0  0  0  0  0
  -28.2534  -38.0136   24.7600 H   0  0  0  0  0  0
  -28.1163  -36.2674   24.6147 H   0  0  0  0  0  0
  -27.2329  -37.1233   25.8858 H   0  0  0  0  0  0
  -20.9489  -29.8765   21.6792 H   0  0  0  0  0  0
  -26.0135  -38.2801   24.1507 H   0  0  0  0  0  0
  -30.7146  -19.0538   18.4302 H   0  0  0  0  0  0
  -31.4449  -18.6006   19.9377 H   0  0  0  0  0  0
  -28.7716  -19.1848   22.0617 H   0  0  0  0  0  0
  -27.8633  -18.4716   20.7669 H   0  0  0  0  0  0
  -30.6886  -16.6419   18.4286 H   0  0  0  0  0  0
  -29.0416  -17.1275   18.6450 H   0  0  0  0  0  0
  -28.8933  -16.6299   22.1539 H   0  0  0  0  0  0
  -30.4737  -17.3150   22.0090 H   0  0  0  0  0  0
  -27.5426  -24.4611   21.3327 H   0  0  0  0  0  0
  -27.0941  -24.3485   19.6718 H   0  0  0  0  0  0
  -32.0899  -23.9394   18.1321 H   0  0  0  0  0  0
  -32.5793  -22.2966   18.1320 H   0  0  0  0  0  0
  1 25  1  0  0  0
  1 30  2  0  0  0
  1 83  1  0  0  0
  2  3  1  0  0  0
  2 25  1  0  0  0
  2 85  1  0  0  0
  2 86  1  0  0  0
  3  4  1  0  0  0
  3 87  1  0  0  0
  3 88  1  0  0  0
  4  5  1  0  0  0
  4 89  1  0  0  0
  4 90  1  0  0  0
  5  6  1  0  0  0
  5 26  1  0  0  0
  5 91  1  0  0  0
  6 25  1  0  0  0
  6 92  1  0  0  0
  6 93  1  0  0  0
  7  8  2  0  0  0
  7 26  1  0  0  0
  7 29  1  0  0  0
  8  9  1  0  0  0
  8 22  1  0  0  0
  9 10  1  0  0  0
  9 27  2  0  0  0
 10 11  2  0  0  0
 10 15  1  0  0  0
 11 12  1  0  0  0
 11 94  1  0  0  0
 12 13  2  0  0  0
 12 95  1  0  0  0
 13 14  1  0  0  0
 13 31  1  0  0  0
 14 15  2  0  0  0
 14 96  1  0  0  0
 15 97  1  0  0  0
 16 17  2  0  0  0
 16 21  1  0  0  0
 16 31  1  0  0  0
 17 18  1  0  0  0
 17 98  1  0  0  0
 18 19  2  0  0  0
 18 99  1  0  0  0
 19 20  1  0  0  0
 19 24  1  0  0  0
 20 21  2  0  0  0
 20100  1  0  0  0
 21 23  1  0  0  0
 22 28  1  0  0  0
 22 32  2  0  0  0
 26 27  1  0  0  0
 28101  1  0  0  0
 28102  1  0  0  0
 29103  1  0  0  0
 29104  1  0  0  0
 33 34  1  0  0  0
 33 66  1  0  0  0
 33 70  2  0  0  0
 34 36  1  0  0  0
 34 59  1  0  0  0
 34105  1  0  0  0
 35 44  2  0  0  0
 35 45  1  0  0  0
 35 68  1  0  0  0
 36 56  1  0  0  0
 36106  1  0  0  0
 37 39  1  0  0  0
 37 47  1  0  0  0
 37 66  1  0  0  0
 37107  1  0  0  0
 38 43  2  0  0  0
 38 46  1  0  0  0
 38 47  1  0  0  0
 39 64  1  0  0  0
 39 67  2  0  0  0
 40 52  1  0  0  0
 40 53  2  0  0  0
 40 58  1  0  0  0
 41108  1  0  0  0
 41109  1  0  0  0
 41110  1  0  0  0
 41 48  1  0  0  0
 42 43  1  0  0  0
 42 66  1  0  0  0
 42111  1  0  0  0
 42112  1  0  0  0
 43 44  1  0  0  0
 44113  1  0  0  0
 45 46  2  0  0  0
 45114  1  0  0  0
 46115  1  0  0  0
 47116  1  0  0  0
 47117  1  0  0  0
 48 56  1  0  0  0
 48 65  1  0  0  0
 48118  1  0  0  0
 49 50  1  0  0  0
 49 53  1  0  0  0
 49 64  1  0  0  0
 49119  1  0  0  0
 50 51  1  0  0  0
 50120  1  0  0  0
 50121  1  0  0  0
 51 52  1  0  0  0
 51122  1  0  0  0
 51123  1  0  0  0
 52124  1  0  0  0
 52125  1  0  0  0
 53 54  1  0  0  0
 54 55  2  0  0  0
 54126  1  0  0  0
 55 57  1  0  0  0
 55127  1  0  0  0
 56 69  2  0  0  0
 57 58  2  0  0  0
 57128  1  0  0  0
 58129  1  0  0  0
 59 60  1  0  0  0
 59 61  1  0  0  0
 59 62  1  0  0  0
 60130  1  0  0  0
 60131  1  0  0  0
 60132  1  0  0  0
 61133  1  0  0  0
 61134  1  0  0  0
 61135  1  0  0  0
 62136  1  0  0  0
 62137  1  0  0  0
 62138  1  0  0  0
 63 65  1  0  0  0
 63139  1  0  0  0
 63140  1  0  0  0
 63141  1  0  0  0
 64142  1  0  0  0
 65143  1  0  0  0
 68 78  1  0  0  0
 71 78  1  0  0  0
 71 79  2  0  0  0
 71 80  1  0  0  0
 72 79  1  0  0  0
 72 81  2  0  0  0
 72 82  1  0  0  0
 73 80  2  0  0  0
 73 81  1  0  0  0
 73 84  1  0  0  0
 74 76  1  0  0  0
 74 82  1  0  0  0
 74144  1  0  0  0
 74145  1  0  0  0
 75 77  1  0  0  0
 75 82  1  0  0  0
 75146  1  0  0  0
 75147  1  0  0  0
 76 83  1  0  0  0
 76148  1  0  0  0
 76149  1  0  0  0
 77 83  1  0  0  0
 77150  1  0  0  0
 77151  1  0  0  0
 78152  1  0  0  0
 78153  1  0  0  0
 84154  1  0  0  0
 84155  1  0  0  0
M  ISO  4   1 100  68 101  78 101  83 100
M  END
> <chiral flag>
0

> <version>
0

> <s_m_source_file>
/data/baiqing/PycharmProjects/Reinvent-master-3.2/result/LINK_invent/BTK/process_docking_weight1_custom_sum_contain_oxygen_bond_distance_aromatic_linkinvent_7_9_3/rearranged_h_0189.sdf

> <i_m_source_file_index>
30

> <r_mmod_Potential_Energy-OPLS-2005>
-186.915771484375

> <r_mmod_Stretch_Energy-OPLS-2005>
243.652908325195

> <r_mmod_Bend_Energy-OPLS-2005>
275.349243164062

> <r_mmod_Torsional_Energy-OPLS-2005>
359.96533203125

> <r_mmod_Improper_Torsional_Energy-OPLS-2005>
18.3596134185791

> <r_mmod_Van_der_Waal_Energy-OPLS-2005>
167.212142944336

> <r_mmod_Electrostatic_Energy-OPLS-2005>
-1197.19506835938

> <r_mmod_Solvation_Energy-OPLS-2005>
-252.466613769531

> <b_mmod_Minimization_Converged-OPLS-2005>
0

> <r_mmod_RMS_Derivative-OPLS-2005>
2.45322751998901

$$$$
30
                    3D
 Structure written by MMmdl.
157166  0  0  1  0            999 V2000
  -30.4393  -15.1554   20.3904 C   0  0  0  0  0  0
  -30.4602  -12.7532   19.4585 C   0  0  0  0  0  0
  -29.5272  -12.5602   18.2360 C   0  0  0  0  0  0
  -28.0759  -12.2783   18.6764 C   0  0  0  0  0  0
  -27.6250  -13.2210   19.8215 C   0  0  2  0  0  0
  -28.6888  -13.2813   20.9420 C   0  0  0  0  0  0
  -25.2364  -13.8046   20.5553 C   0  0  0  0  0  0
  -24.1708  -13.0282   20.9217 C   0  0  0  0  0  0
  -24.6403  -11.6821   20.8778 C   0  0  0  0  0  0
  -23.9045  -10.4226   21.0406 C   0  0  0  0  0  0
  -24.3598   -9.4168   21.9192 C   0  0  0  0  0  0
  -23.6266   -8.2193   22.0770 C   0  0  0  0  0  0
  -22.4245   -8.0259   21.3540 C   0  0  0  0  0  0
  -21.9862   -9.0258   20.4660 C   0  0  0  0  0  0
  -22.7214  -10.2101   20.3075 C   0  0  0  0  0  0
  -21.6816   -6.0719   22.5281 C   0  0  0  0  0  0
  -21.3994   -6.5624   23.8220 C   0  0  0  0  0  0
  -21.3654   -5.6775   24.9177 C   0  0  0  0  0  0
  -21.6034   -4.3040   24.7210 C   0  0  0  0  0  0
  -21.8831   -3.8149   23.4340 C   0  0  0  0  0  0
  -21.9205   -4.6964   22.3406 C   0  0  0  0  0  0
  -22.7737  -13.5119   21.1823 C   0  0  0  0  0  0
  -22.1673   -4.2157   21.0979 F   0  0  0  0  0  0
  -21.5627   -3.4528   25.7723 F   0  0  0  0  0  0
  -29.8948  -13.8510   20.3121 N   0  0  0  0  0  0
  -26.2852  -12.9276   20.3165 N   0  0  0  0  0  0
  -25.9309  -11.6423   20.5734 N   0  0  0  0  0  0
  -22.0351  -12.8205   22.0453 N   0  0  0  0  0  0
  -25.3711  -15.1725   20.3783 N   0  0  0  0  0  0
  -31.6649  -15.1948   20.2131 O   0  0  0  0  0  0
  -21.6599   -6.8871   21.4253 O   0  0  0  0  0  0
  -22.3423  -14.5418   20.6642 O   0  0  0  0  0  0
  -24.6467  -31.8366   23.1804 C   0  0  0  0  0  0
  -25.9227  -32.4644   23.8217 C   0  0  1  0  0  0
  -27.2483  -27.0956   20.2034 C   0  0  0  0  0  0
  -25.5970  -33.8446   24.2160 N   0  0  0  0  0  0
  -23.4552  -30.4522   21.5255 C   0  0  2  0  0  0
  -24.9176  -28.8601   20.1258 C   0  0  0  0  0  0
  -22.7582  -29.4500   22.4825 C   0  0  0  0  0  0
  -18.0292  -28.1385   22.8459 C   0  0  0  0  0  0
  -24.1497  -36.7243   23.2649 C   0  0  0  0  0  0
  -26.0112  -30.7090   21.3792 C   0  0  0  0  0  0
  -26.0938  -29.3085   20.7386 C   0  0  0  0  0  0
  -27.2622  -28.4487   20.7477 C   0  0  0  0  0  0
  -26.0382  -26.7474   19.5640 C   0  0  0  0  0  0
  -24.9024  -27.5921   19.5208 C   0  0  0  0  0  0
  -23.6906  -29.7636   20.1533 C   0  0  0  0  0  0
  -25.4114  -36.2983   24.0311 C   0  0  1  0  0  0
  -20.5915  -28.3705   23.1214 C   0  0  2  0  0  0
  -20.6772  -26.9407   22.5409 C   0  0  0  0  0  0
  -19.5761  -26.6374   21.5198 C   0  0  0  0  0  0
  -18.1934  -26.7917   22.1613 C   0  0  0  0  0  0
  -19.1558  -28.8857   23.2827 C   0  0  0  0  0  0
  -18.9480  -30.1452   23.8850 C   0  0  0  0  0  0
  -17.6483  -30.6582   24.0539 C   0  0  0  0  0  0
  -25.9033  -34.9369   23.5022 C   0  0  0  0  0  0
  -16.5361  -29.9071   23.6353 C   0  0  0  0  0  0
  -16.7276  -28.6500   23.0347 C   0  0  0  0  0  0
  -26.4565  -31.6519   25.0667 C   0  0  0  0  0  0
  -25.3771  -31.3734   26.1384 C   0  0  0  0  0  0
  -27.0438  -30.2905   24.6269 C   0  0  0  0  0  0
  -27.6046  -32.4314   25.7492 C   0  0  0  0  0  0
  -27.5560  -37.1779   24.8457 C   0  0  0  0  0  0
  -21.4275  -29.3039   22.3593 N   0  0  0  0  0  0
  -26.4265  -37.3712   23.9395 N   0  0  0  0  0  0
  -24.7243  -31.0186   22.0859 N   0  0  0  0  0  0
  -23.4177  -28.8043   23.3008 O   0  0  0  0  0  0
  -28.3172  -26.1082   20.1965 O   0  0  0  0  0  0
  -26.5645  -34.8873   22.4620 O   0  0  0  0  0  0
  -23.5595  -32.1249   23.7027 O   0  0  0  0  0  0
  -28.9669  -21.9118   20.8438 C   0  0  0  0  0  0
  -29.5520  -20.9568   19.8617 C   0  0  0  0  0  0
  -28.8300  -23.2493   20.3236 C   0  0  0  0  0  0
  -28.1831  -17.8780   21.0732 C   0  0  0  0  0  0
  -28.1704  -16.4267   20.6071 C   0  0  0  0  0  0
  -29.6749  -18.0017   20.7323 C   0  0  2  0  0  0
  -28.5822  -21.4464   22.2237 C   0  0  0  0  0  0
  -29.5535  -24.0937   18.0565 C   0  0  0  0  0  0
  -30.0054  -19.3265   19.7118 C   0  0  0  0  0  0
  -28.1916  -24.6943   20.8779 C   0  0  0  0  0  0
  -29.7903  -21.7641   18.8079 N   0  0  0  0  0  0
  -29.3833  -23.0650   19.0709 N   0  0  0  0  0  0
  -29.6366  -16.3931   20.4322 N   0  0  0  0  0  0
  -31.4630  -12.9936   19.1048 H   0  0  0  0  0  0
  -30.5620  -11.8246   20.0221 H   0  0  0  0  0  0
  -29.9052  -11.7574   17.5978 H   0  0  0  0  0  0
  -29.5555  -13.4614   17.6207 H   0  0  0  0  0  0
  -28.0286  -11.2411   19.0131 H   0  0  0  0  0  0
  -27.4032  -12.3581   17.8240 H   0  0  0  0  0  0
  -27.5745  -14.1946   19.3436 H   0  0  0  0  0  0
  -28.8762  -12.2773   21.3327 H   0  0  0  0  0  0
  -28.3775  -13.8629   21.8071 H   0  0  0  0  0  0
  -25.2741   -9.5625   22.4733 H   0  0  0  0  0  0
  -23.9980   -7.4564   22.7462 H   0  0  0  0  0  0
  -21.0788   -8.8818   19.8932 H   0  0  0  0  0  0
  -22.3730  -10.9663   19.6171 H   0  0  0  0  0  0
  -21.1973   -7.6127   23.9747 H   0  0  0  0  0  0
  -21.1427   -6.0467   25.9074 H   0  0  0  0  0  0
  -22.0607   -2.7607   23.2834 H   0  0  0  0  0  0
  -22.3872  -11.9912   22.4983 H   0  0  0  0  0  0
  -21.0977  -13.1294   22.2513 H   0  0  0  0  0  0
  -24.5939  -15.8142   20.4992 H   0  0  0  0  0  0
  -26.2109  -15.6310   20.0523 H   0  0  0  0  0  0
  -26.7307  -32.5267   23.0958 H   0  0  0  0  0  0
  -25.0091  -33.9540   25.0296 H   0  0  0  0  0  0
  -22.7586  -31.2772   21.3542 H   0  0  0  0  0  0
  -23.3731  -35.9608   23.3294 H   0  0  0  0  0  0
  -24.3583  -36.8895   22.2069 H   0  0  0  0  0  0
  -23.7291  -37.6448   23.6697 H   0  0  0  0  0  0
  -26.1512  -31.4565   20.5950 H   0  0  0  0  0  0
  -26.8880  -30.7752   22.0143 H   0  0  0  0  0  0
  -28.1632  -28.8001   21.2318 H   0  0  0  0  0  0
  -25.9573  -25.7712   19.1104 H   0  0  0  0  0  0
  -24.0048  -27.2301   19.0371 H   0  0  0  0  0  0
  -23.8251  -30.5236   19.3837 H   0  0  0  0  0  0
  -22.8082  -29.1989   19.8446 H   0  0  0  0  0  0
  -25.1317  -36.1791   25.0810 H   0  0  0  0  0  0
  -20.9987  -28.3300   24.1329 H   0  0  0  0  0  0
  -20.5595  -26.2325   23.3634 H   0  0  0  0  0  0
  -21.6631  -26.7357   22.1240 H   0  0  0  0  0  0
  -19.6897  -25.6273   21.1242 H   0  0  0  0  0  0
  -19.6686  -27.3162   20.6715 H   0  0  0  0  0  0
  -17.4192  -26.6642   21.4031 H   0  0  0  0  0  0
  -18.0325  -26.0062   22.9025 H   0  0  0  0  0  0
  -19.7939  -30.7292   24.2184 H   0  0  0  0  0  0
  -17.5016  -31.6244   24.5171 H   0  0  0  0  0  0
  -15.5347  -30.2958   23.7690 H   0  0  0  0  0  0
  -15.8676  -28.0805   22.7083 H   0  0  0  0  0  0
  -24.5908  -30.7104   25.7761 H   0  0  0  0  0  0
  -24.9014  -32.2923   26.4804 H   0  0  0  0  0  0
  -25.8087  -30.8929   27.0166 H   0  0  0  0  0  0
  -26.3064  -29.6604   24.1267 H   0  0  0  0  0  0
  -27.4029  -29.7227   25.4867 H   0  0  0  0  0  0
  -27.8971  -30.4131   23.9592 H   0  0  0  0  0  0
  -27.2561  -33.3604   26.2037 H   0  0  0  0  0  0
  -28.3900  -32.6911   25.0372 H   0  0  0  0  0  0
  -28.0661  -31.8459   26.5468 H   0  0  0  0  0  0
  -28.2571  -38.0088   24.7457 H   0  0  0  0  0  0
  -28.1064  -36.2589   24.6320 H   0  0  0  0  0  0
  -27.2257  -37.1470   25.8866 H   0  0  0  0  0  0
  -20.9476  -29.8786   21.6809 H   0  0  0  0  0  0
  -26.0111  -38.2768   24.1416 H   0  0  0  0  0  0
  -27.9035  -18.0169   22.1299 H   0  0  0  0  0  0
  -27.5118  -18.4834   20.4443 H   0  0  0  0  0  0
  -27.6079  -16.3134   19.6780 H   0  0  0  0  0  0
  -27.7745  -15.8052   21.4060 H   0  0  0  0  0  0
  -30.2240  -18.1669   21.6675 H   0  0  0  0  0  0
  -28.4843  -22.2647   22.9384 H   0  0  0  0  0  0
  -29.3253  -20.7630   22.6378 H   0  0  0  0  0  0
  -27.6371  -20.9009   22.2035 H   0  0  0  0  0  0
  -29.9943  -24.9889   18.5063 H   0  0  0  0  0  0
  -28.5835  -24.3618   17.6381 H   0  0  0  0  0  0
  -30.2078  -23.7611   17.2514 H   0  0  0  0  0  0
  -31.0984  -19.3477   19.6017 H   0  0  0  0  0  0
  -29.7002  -19.0266   18.6987 H   0  0  0  0  0  0
  -28.6395  -24.8500   21.8659 H   0  0  0  0  0  0
  -27.1400  -24.5284   21.1065 H   0  0  0  0  0  0
  1 25  1  0  0  0
  1 30  2  0  0  0
  1 83  1  0  0  0
  2  3  1  0  0  0
  2 25  1  0  0  0
  2 84  1  0  0  0
  2 85  1  0  0  0
  3  4  1  0  0  0
  3 86  1  0  0  0
  3 87  1  0  0  0
  4  5  1  0  0  0
  4 88  1  0  0  0
  4 89  1  0  0  0
  5  6  1  0  0  0
  5 26  1  0  0  0
  5 90  1  0  0  0
  6 25  1  0  0  0
  6 91  1  0  0  0
  6 92  1  0  0  0
  7  8  2  0  0  0
  7 26  1  0  0  0
  7 29  1  0  0  0
  8  9  1  0  0  0
  8 22  1  0  0  0
  9 10  1  0  0  0
  9 27  2  0  0  0
 10 11  2  0  0  0
 10 15  1  0  0  0
 11 12  1  0  0  0
 11 93  1  0  0  0
 12 13  2  0  0  0
 12 94  1  0  0  0
 13 14  1  0  0  0
 13 31  1  0  0  0
 14 15  2  0  0  0
 14 95  1  0  0  0
 15 96  1  0  0  0
 16 17  2  0  0  0
 16 21  1  0  0  0
 16 31  1  0  0  0
 17 18  1  0  0  0
 17 97  1  0  0  0
 18 19  2  0  0  0
 18 98  1  0  0  0
 19 20  1  0  0  0
 19 24  1  0  0  0
 20 21  2  0  0  0
 20 99  1  0  0  0
 21 23  1  0  0  0
 22 28  1  0  0  0
 22 32  2  0  0  0
 26 27  1  0  0  0
 28100  1  0  0  0
 28101  1  0  0  0
 29102  1  0  0  0
 29103  1  0  0  0
 33 34  1  0  0  0
 33 66  1  0  0  0
 33 70  2  0  0  0
 34 36  1  0  0  0
 34 59  1  0  0  0
 34104  1  0  0  0
 35 44  2  0  0  0
 35 45  1  0  0  0
 35 68  1  0  0  0
 36 56  1  0  0  0
 36105  1  0  0  0
 37 39  1  0  0  0
 37 47  1  0  0  0
 37 66  1  0  0  0
 37106  1  0  0  0
 38 43  2  0  0  0
 38 46  1  0  0  0
 38 47  1  0  0  0
 39 64  1  0  0  0
 39 67  2  0  0  0
 40 52  1  0  0  0
 40 53  2  0  0  0
 40 58  1  0  0  0
 41107  1  0  0  0
 41108  1  0  0  0
 41109  1  0  0  0
 41 48  1  0  0  0
 42 43  1  0  0  0
 42 66  1  0  0  0
 42110  1  0  0  0
 42111  1  0  0  0
 43 44  1  0  0  0
 44112  1  0  0  0
 45 46  2  0  0  0
 45113  1  0  0  0
 46114  1  0  0  0
 47115  1  0  0  0
 47116  1  0  0  0
 48 56  1  0  0  0
 48 65  1  0  0  0
 48117  1  0  0  0
 49 50  1  0  0  0
 49 53  1  0  0  0
 49 64  1  0  0  0
 49118  1  0  0  0
 50 51  1  0  0  0
 50119  1  0  0  0
 50120  1  0  0  0
 51 52  1  0  0  0
 51121  1  0  0  0
 51122  1  0  0  0
 52123  1  0  0  0
 52124  1  0  0  0
 53 54  1  0  0  0
 54 55  2  0  0  0
 54125  1  0  0  0
 55 57  1  0  0  0
 55126  1  0  0  0
 56 69  2  0  0  0
 57 58  2  0  0  0
 57127  1  0  0  0
 58128  1  0  0  0
 59 60  1  0  0  0
 59 61  1  0  0  0
 59 62  1  0  0  0
 60129  1  0  0  0
 60130  1  0  0  0
 60131  1  0  0  0
 61132  1  0  0  0
 61133  1  0  0  0
 61134  1  0  0  0
 62135  1  0  0  0
 62136  1  0  0  0
 62137  1  0  0  0
 63 65  1  0  0  0
 63138  1  0  0  0
 63139  1  0  0  0
 63140  1  0  0  0
 64141  1  0  0  0
 65142  1  0  0  0
 68 80  1  0  0  0
 71 72  1  0  0  0
 71 73  2  0  0  0
 71 77  1  0  0  0
 72 79  1  0  0  0
 72 81  2  0  0  0
 73 80  1  0  0  0
 73 82  1  0  0  0
 74 75  1  0  0  0
 74 76  1  0  0  0
 74143  1  0  0  0
 74144  1  0  0  0
 75 83  1  0  0  0
 75145  1  0  0  0
 75146  1  0  0  0
 76 79  1  0  0  0
 76 83  1  0  0  0
 76147  1  0  0  0
 77148  1  0  0  0
 77149  1  0  0  0
 77150  1  0  0  0
 78 82  1  0  0  0
 78151  1  0  0  0
 78152  1  0  0  0
 78153  1  0  0  0
 79154  1  0  0  0
 79155  1  0  0  0
 80156  1  0  0  0
 80157  1  0  0  0
 81 82  1  0  0  0
M  ISO  4   1 100  68 101  80 101  83 100
M  END
> <chiral flag>
0

> <version>
0

> <s_m_source_file>
/data/baiqing/PycharmProjects/Reinvent-master-3.2/result/LINK_invent/BTK/process_docking_weight1_custom_sum_contain_oxygen_bond_distance_aromatic_linkinvent_7_9_3/rearranged_h_0189.sdf

> <i_m_source_file_index>
31

> <r_mmod_Potential_Energy-OPLS-2005>
945.102478027344

> <r_mmod_Stretch_Energy-OPLS-2005>
361.359832763672

> <r_mmod_Bend_Energy-OPLS-2005>
379.374450683594

> <r_mmod_Torsional_Energy-OPLS-2005>
296.368927001953

> <r_mmod_Improper_Torsional_Energy-OPLS-2005>
6.26780796051025

> <r_mmod_Van_der_Waal_Energy-OPLS-2005>
106.304496765137

> <r_mmod_Electrostatic_Energy-OPLS-2005>
-280.003814697266

> <r_mmod_Solvation_Energy-OPLS-2005>
-222.930694580078

> <b_mmod_Minimization_Converged-OPLS-2005>
0

> <r_mmod_RMS_Derivative-OPLS-2005>
10.0978899002075

$$$$
31
                    3D
 Structure written by MMmdl.
151159  0  0  1  0            999 V2000
  -30.4850  -15.1448   20.3865 C   0  0  0  0  0  0
  -30.4204  -12.7184   19.5199 C   0  0  0  0  0  0
  -29.5167  -12.5559   18.2747 C   0  0  0  0  0  0
  -28.0605  -12.3014   18.6992 C   0  0  0  0  0  0
  -27.6078  -13.2682   19.8241 C   0  0  2  0  0  0
  -28.6430  -13.4007   20.9603 C   0  0  0  0  0  0
  -25.2365  -13.8264   20.5731 C   0  0  0  0  0  0
  -24.1710  -13.0446   20.9223 C   0  0  0  0  0  0
  -24.6365  -11.6943   20.8758 C   0  0  0  0  0  0
  -23.9074  -10.4301   21.0406 C   0  0  0  0  0  0
  -24.3620   -9.4220   21.9181 C   0  0  0  0  0  0
  -23.6289   -8.2255   22.0759 C   0  0  0  0  0  0
  -22.4276   -8.0292   21.3551 C   0  0  0  0  0  0
  -21.9914   -9.0265   20.4653 C   0  0  0  0  0  0
  -22.7246  -10.2137   20.3059 C   0  0  0  0  0  0
  -21.6849   -6.0735   22.5279 C   0  0  0  0  0  0
  -21.4010   -6.5641   23.8210 C   0  0  0  0  0  0
  -21.3648   -5.6796   24.9168 C   0  0  0  0  0  0
  -21.6038   -4.3055   24.7227 C   0  0  0  0  0  0
  -21.8820   -3.8151   23.4354 C   0  0  0  0  0  0
  -21.9192   -4.6968   22.3403 C   0  0  0  0  0  0
  -22.7738  -13.5204   21.1886 C   0  0  0  0  0  0
  -22.1656   -4.2146   21.0981 F   0  0  0  0  0  0
  -21.5625   -3.4541   25.7744 F   0  0  0  0  0  0
  -29.8864  -13.8652   20.3335 N   0  0  0  0  0  0
  -26.2772  -12.9519   20.3218 N   0  0  0  0  0  0
  -25.9296  -11.6628   20.5747 N   0  0  0  0  0  0
  -22.0410  -12.8182   22.0460 N   0  0  0  0  0  0
  -25.4048  -15.2003   20.4204 N   0  0  0  0  0  0
  -31.7048  -15.1255   20.1636 O   0  0  0  0  0  0
  -21.6639   -6.8886   21.4249 O   0  0  0  0  0  0
  -22.3409  -14.5507   20.6736 O   0  0  0  0  0  0
  -24.6562  -31.8279   23.1753 C   0  0  0  0  0  0
  -25.9257  -32.4599   23.8201 C   0  0  1  0  0  0
  -27.2120  -26.9938   20.1677 C   0  0  0  0  0  0
  -25.5934  -33.8416   24.2102 N   0  0  0  0  0  0
  -23.4691  -30.4413   21.5226 C   0  0  2  0  0  0
  -24.9206  -28.8432   20.1068 C   0  0  0  0  0  0
  -22.7652  -29.4445   22.4785 C   0  0  0  0  0  0
  -18.0328  -28.1405   22.8481 C   0  0  0  0  0  0
  -24.1474  -36.7212   23.2660 C   0  0  0  0  0  0
  -26.0344  -30.6510   21.4013 C   0  0  0  0  0  0
  -26.0991  -29.2496   20.7426 C   0  0  0  0  0  0
  -27.2414  -28.3416   20.7561 C   0  0  0  0  0  0
  -26.0109  -26.7274   19.4751 C   0  0  0  0  0  0
  -24.8969  -27.6010   19.4542 C   0  0  0  0  0  0
  -23.7050  -29.7641   20.1454 C   0  0  0  0  0  0
  -25.4116  -36.2975   24.0314 C   0  0  1  0  0  0
  -20.5952  -28.3739   23.1199 C   0  0  2  0  0  0
  -20.6797  -26.9421   22.5414 C   0  0  0  0  0  0
  -19.5761  -26.6379   21.5227 C   0  0  0  0  0  0
  -18.1949  -26.7933   22.1640 C   0  0  0  0  0  0
  -19.1594  -28.8895   23.2823 C   0  0  0  0  0  0
  -18.9499  -30.1490   23.8848 C   0  0  0  0  0  0
  -17.6498  -30.6597   24.0566 C   0  0  0  0  0  0
  -25.9085  -34.9352   23.5034 C   0  0  0  0  0  0
  -16.5386  -29.9086   23.6347 C   0  0  0  0  0  0
  -16.7313  -28.6515   23.0352 C   0  0  0  0  0  0
  -26.4538  -31.6534   25.0716 C   0  0  0  0  0  0
  -25.3686  -31.3745   26.1387 C   0  0  0  0  0  0
  -27.0440  -30.2906   24.6427 C   0  0  0  0  0  0
  -27.6048  -32.4341   25.7484 C   0  0  0  0  0  0
  -27.5553  -37.1759   24.8491 C   0  0  0  0  0  0
  -21.4332  -29.3027   22.3542 N   0  0  0  0  0  0
  -26.4265  -37.3700   23.9422 N   0  0  0  0  0  0
  -24.7404  -30.9991   22.0867 N   0  0  0  0  0  0
  -23.4229  -28.7999   23.2990 O   0  0  0  0  0  0
  -28.2188  -25.9210   20.2682 O   0  0  0  0  0  0
  -26.5731  -34.8884   22.4650 O   0  0  0  0  0  0
  -23.5637  -32.1233   23.6864 O   0  0  0  0  0  0
  -28.6325  -21.2942   19.7421 C   0  0  0  0  0  0
  -28.9143  -18.7389   19.0984 C   0  0  0  0  0  0
  -29.6148  -19.1480   21.2699 C   0  0  0  0  0  0
  -29.8970  -17.4220   19.1900 C   0  0  0  0  0  0
  -29.4903  -17.4664   21.4399 C   0  0  0  0  0  0
  -28.7484  -22.8375   20.4733 C   0  0  0  0  0  0
  -28.0013  -24.3501   19.9336 C   0  0  0  0  0  0
  -29.0604  -19.9120   20.0659 N   0  0  0  0  0  0
  -29.7599  -16.4290   20.3268 N   0  0  0  0  0  0
  -28.0650  -21.3973   18.6513 O   0  0  0  0  0  0
  -31.4510  -12.8838   19.2037 H   0  0  0  0  0  0
  -30.4378  -11.7992   20.1087 H   0  0  0  0  0  0
  -29.8734  -11.7431   17.6413 H   0  0  0  0  0  0
  -29.5631  -13.4641   17.6729 H   0  0  0  0  0  0
  -27.9938  -11.2714   19.0506 H   0  0  0  0  0  0
  -27.3943  -12.3731   17.8382 H   0  0  0  0  0  0
  -27.5369  -14.2455   19.3430 H   0  0  0  0  0  0
  -28.7805  -12.4562   21.4896 H   0  0  0  0  0  0
  -28.3068  -14.1298   21.6989 H   0  0  0  0  0  0
  -25.2761   -9.5693   22.4767 H   0  0  0  0  0  0
  -23.9987   -7.4660   22.7495 H   0  0  0  0  0  0
  -21.0836   -8.8794   19.8972 H   0  0  0  0  0  0
  -22.3700  -10.9678   19.6179 H   0  0  0  0  0  0
  -21.1999   -7.6144   23.9714 H   0  0  0  0  0  0
  -21.1454   -6.0520   25.9071 H   0  0  0  0  0  0
  -22.0605   -2.7613   23.2856 H   0  0  0  0  0  0
  -22.4039  -11.9831   22.4811 H   0  0  0  0  0  0
  -21.1057  -13.1237   22.2736 H   0  0  0  0  0  0
  -24.6446  -15.8591   20.5459 H   0  0  0  0  0  0
  -26.2667  -15.6443   20.1304 H   0  0  0  0  0  0
  -26.7308  -32.5141   23.0904 H   0  0  0  0  0  0
  -24.9943  -33.9509   25.0155 H   0  0  0  0  0  0
  -22.7783  -31.2707   21.3558 H   0  0  0  0  0  0
  -23.3755  -35.9523   23.3296 H   0  0  0  0  0  0
  -24.3545  -36.8905   22.2084 H   0  0  0  0  0  0
  -23.7231  -37.6385   23.6750 H   0  0  0  0  0  0
  -26.2125  -31.3924   20.6219 H   0  0  0  0  0  0
  -26.8946  -30.6988   22.0565 H   0  0  0  0  0  0
  -28.1318  -28.6446   21.2890 H   0  0  0  0  0  0
  -25.8936  -25.7818   18.9669 H   0  0  0  0  0  0
  -24.0012  -27.2880   18.9347 H   0  0  0  0  0  0
  -23.8585  -30.5362   19.3907 H   0  0  0  0  0  0
  -22.8172  -29.2149   19.8268 H   0  0  0  0  0  0
  -25.1299  -36.1774   25.0802 H   0  0  0  0  0  0
  -21.0039  -28.3343   24.1324 H   0  0  0  0  0  0
  -20.5695  -26.2353   23.3655 H   0  0  0  0  0  0
  -21.6645  -26.7397   22.1207 H   0  0  0  0  0  0
  -19.6920  -25.6281   21.1277 H   0  0  0  0  0  0
  -19.6696  -27.3166   20.6740 H   0  0  0  0  0  0
  -17.4216  -26.6699   21.4047 H   0  0  0  0  0  0
  -18.0322  -26.0081   22.9042 H   0  0  0  0  0  0
  -19.7978  -30.7326   24.2189 H   0  0  0  0  0  0
  -17.5048  -31.6270   24.5181 H   0  0  0  0  0  0
  -15.5384  -30.2970   23.7705 H   0  0  0  0  0  0
  -15.8719  -28.0840   22.7055 H   0  0  0  0  0  0
  -24.5848  -30.7135   25.7675 H   0  0  0  0  0  0
  -24.8902  -32.2926   26.4786 H   0  0  0  0  0  0
  -25.7911  -30.8905   27.0200 H   0  0  0  0  0  0
  -26.3101  -29.6574   24.1430 H   0  0  0  0  0  0
  -27.3981  -29.7269   25.5071 H   0  0  0  0  0  0
  -27.9031  -30.4106   23.9828 H   0  0  0  0  0  0
  -27.2658  -33.3727   26.1868 H   0  0  0  0  0  0
  -28.3916  -32.6760   25.0332 H   0  0  0  0  0  0
  -28.0632  -31.8599   26.5543 H   0  0  0  0  0  0
  -28.2573  -38.0045   24.7479 H   0  0  0  0  0  0
  -28.1038  -36.2568   24.6370 H   0  0  0  0  0  0
  -27.2270  -37.1466   25.8895 H   0  0  0  0  0  0
  -20.9575  -29.8765   21.6721 H   0  0  0  0  0  0
  -26.0124  -38.2763   24.1416 H   0  0  0  0  0  0
  -27.8723  -18.4144   19.1242 H   0  0  0  0  0  0
  -29.0581  -19.1363   18.0925 H   0  0  0  0  0  0
  -30.6762  -19.3991   21.3163 H   0  0  0  0  0  0
  -29.1818  -19.6079   22.1593 H   0  0  0  0  0  0
  -30.9364  -17.7505   19.1447 H   0  0  0  0  0  0
  -29.7429  -16.8474   18.2747 H   0  0  0  0  0  0
  -28.4640  -17.2643   21.7531 H   0  0  0  0  0  0
  -30.0921  -17.1802   22.3038 H   0  0  0  0  0  0
  -29.8197  -23.0281   20.5219 H   0  0  0  0  0  0
  -28.4502  -22.6875   21.5110 H   0  0  0  0  0  0
  -26.9406  -24.1791   20.1165 H   0  0  0  0  0  0
  -28.0883  -24.3239   18.8471 H   0  0  0  0  0  0
  1 25  1  0  0  0
  1 30  2  0  0  0
  1 79  1  0  0  0
  2  3  1  0  0  0
  2 25  1  0  0  0
  2 81  1  0  0  0
  2 82  1  0  0  0
  3  4  1  0  0  0
  3 83  1  0  0  0
  3 84  1  0  0  0
  4  5  1  0  0  0
  4 85  1  0  0  0
  4 86  1  0  0  0
  5  6  1  0  0  0
  5 26  1  0  0  0
  5 87  1  0  0  0
  6 25  1  0  0  0
  6 88  1  0  0  0
  6 89  1  0  0  0
  7  8  2  0  0  0
  7 26  1  0  0  0
  7 29  1  0  0  0
  8  9  1  0  0  0
  8 22  1  0  0  0
  9 10  1  0  0  0
  9 27  2  0  0  0
 10 11  2  0  0  0
 10 15  1  0  0  0
 11 12  1  0  0  0
 11 90  1  0  0  0
 12 13  2  0  0  0
 12 91  1  0  0  0
 13 14  1  0  0  0
 13 31  1  0  0  0
 14 15  2  0  0  0
 14 92  1  0  0  0
 15 93  1  0  0  0
 16 17  2  0  0  0
 16 21  1  0  0  0
 16 31  1  0  0  0
 17 18  1  0  0  0
 17 94  1  0  0  0
 18 19  2  0  0  0
 18 95  1  0  0  0
 19 20  1  0  0  0
 19 24  1  0  0  0
 20 21  2  0  0  0
 20 96  1  0  0  0
 21 23  1  0  0  0
 22 28  1  0  0  0
 22 32  2  0  0  0
 26 27  1  0  0  0
 28 97  1  0  0  0
 28 98  1  0  0  0
 29 99  1  0  0  0
 29100  1  0  0  0
 33 34  1  0  0  0
 33 66  1  0  0  0
 33 70  2  0  0  0
 34 36  1  0  0  0
 34 59  1  0  0  0
 34101  1  0  0  0
 35 44  2  0  0  0
 35 45  1  0  0  0
 35 68  1  0  0  0
 36 56  1  0  0  0
 36102  1  0  0  0
 37 39  1  0  0  0
 37 47  1  0  0  0
 37 66  1  0  0  0
 37103  1  0  0  0
 38 43  2  0  0  0
 38 46  1  0  0  0
 38 47  1  0  0  0
 39 64  1  0  0  0
 39 67  2  0  0  0
 40 52  1  0  0  0
 40 53  2  0  0  0
 40 58  1  0  0  0
 41104  1  0  0  0
 41105  1  0  0  0
 41106  1  0  0  0
 41 48  1  0  0  0
 42 43  1  0  0  0
 42 66  1  0  0  0
 42107  1  0  0  0
 42108  1  0  0  0
 43 44  1  0  0  0
 44109  1  0  0  0
 45 46  2  0  0  0
 45110  1  0  0  0
 46111  1  0  0  0
 47112  1  0  0  0
 47113  1  0  0  0
 48 56  1  0  0  0
 48 65  1  0  0  0
 48114  1  0  0  0
 49 50  1  0  0  0
 49 53  1  0  0  0
 49 64  1  0  0  0
 49115  1  0  0  0
 50 51  1  0  0  0
 50116  1  0  0  0
 50117  1  0  0  0
 51 52  1  0  0  0
 51118  1  0  0  0
 51119  1  0  0  0
 52120  1  0  0  0
 52121  1  0  0  0
 53 54  1  0  0  0
 54 55  2  0  0  0
 54122  1  0  0  0
 55 57  1  0  0  0
 55123  1  0  0  0
 56 69  2  0  0  0
 57 58  2  0  0  0
 57124  1  0  0  0
 58125  1  0  0  0
 59 60  1  0  0  0
 59 61  1  0  0  0
 59 62  1  0  0  0
 60126  1  0  0  0
 60127  1  0  0  0
 60128  1  0  0  0
 61129  1  0  0  0
 61130  1  0  0  0
 61131  1  0  0  0
 62132  1  0  0  0
 62133  1  0  0  0
 62134  1  0  0  0
 63 65  1  0  0  0
 63135  1  0  0  0
 63136  1  0  0  0
 63137  1  0  0  0
 64138  1  0  0  0
 65139  1  0  0  0
 68 77  1  0  0  0
 71 76  1  0  0  0
 71 78  1  0  0  0
 71 80  2  0  0  0
 72 74  1  0  0  0
 72 78  1  0  0  0
 72140  1  0  0  0
 72141  1  0  0  0
 73 75  1  0  0  0
 73 78  1  0  0  0
 73142  1  0  0  0
 73143  1  0  0  0
 74 79  1  0  0  0
 74144  1  0  0  0
 74145  1  0  0  0
 75 79  1  0  0  0
 75146  1  0  0  0
 75147  1  0  0  0
 76 77  1  0  0  0
 76148  1  0  0  0
 76149  1  0  0  0
 77150  1  0  0  0
 77151  1  0  0  0
M  ISO  4   1 100  68 101  77 101  79 100
M  END
> <chiral flag>
0

> <version>
0

> <s_m_source_file>
/data/baiqing/PycharmProjects/Reinvent-master-3.2/result/LINK_invent/BTK/process_docking_weight1_custom_sum_contain_oxygen_bond_distance_aromatic_linkinvent_7_9_3/rearranged_h_0189.sdf

> <i_m_source_file_index>
32

> <r_mmod_Potential_Energy-OPLS-2005>
1206.60302734375

> <r_mmod_Stretch_Energy-OPLS-2005>
432.200531005859

> <r_mmod_Bend_Energy-OPLS-2005>
427.795440673828

> <r_mmod_Torsional_Energy-OPLS-2005>
386.406799316406

> <r_mmod_Improper_Torsional_Energy-OPLS-2005>
13.2422733306885

> <r_mmod_Van_der_Waal_Energy-OPLS-2005>
124.042320251465

> <r_mmod_Electrostatic_Energy-OPLS-2005>
-301.777465820312

> <r_mmod_Solvation_Energy-OPLS-2005>
-228.599227905273

> <b_mmod_Minimization_Converged-OPLS-2005>
0

> <r_mmod_RMS_Derivative-OPLS-2005>
2.2428719997406

$$$$
32
                    3D
 Structure written by MMmdl.
154163  0  0  1  0            999 V2000
  -30.6544  -14.6497   20.4892 C   0  0  0  0  0  0
  -30.4271  -12.3997   19.4597 C   0  0  0  0  0  0
  -29.5039  -12.5000   18.2267 C   0  0  0  0  0  0
  -28.0286  -12.3382   18.6408 C   0  0  0  0  0  0
  -27.6475  -13.2245   19.8571 C   0  0  2  0  0  0
  -28.6925  -13.1201   20.9903 C   0  0  0  0  0  0
  -25.2535  -13.8187   20.5690 C   0  0  0  0  0  0
  -24.1815  -13.0441   20.9200 C   0  0  0  0  0  0
  -24.6395  -11.6916   20.8746 C   0  0  0  0  0  0
  -23.9069  -10.4294   21.0407 C   0  0  0  0  0  0
  -24.3618   -9.4209   21.9185 C   0  0  0  0  0  0
  -23.6294   -8.2246   22.0755 C   0  0  0  0  0  0
  -22.4277   -8.0283   21.3545 C   0  0  0  0  0  0
  -21.9913   -9.0255   20.4646 C   0  0  0  0  0  0
  -22.7241  -10.2134   20.3056 C   0  0  0  0  0  0
  -21.6853   -6.0735   22.5278 C   0  0  0  0  0  0
  -21.4014   -6.5639   23.8210 C   0  0  0  0  0  0
  -21.3660   -5.6793   24.9173 C   0  0  0  0  0  0
  -21.6044   -4.3055   24.7224 C   0  0  0  0  0  0
  -21.8819   -3.8147   23.4346 C   0  0  0  0  0  0
  -21.9194   -4.6964   22.3401 C   0  0  0  0  0  0
  -22.7838  -13.5229   21.1857 C   0  0  0  0  0  0
  -22.1663   -4.2149   21.0980 F   0  0  0  0  0  0
  -21.5629   -3.4539   25.7738 F   0  0  0  0  0  0
  -30.0039  -13.4454   20.4144 N   0  0  0  0  0  0
  -26.2963  -12.9383   20.3306 N   0  0  0  0  0  0
  -25.9325  -11.6530   20.5762 N   0  0  0  0  0  0
  -22.0479  -12.8219   22.0408 N   0  0  0  0  0  0
  -25.4229  -15.1909   20.4093 N   0  0  0  0  0  0
  -31.8324  -14.7528   20.1389 O   0  0  0  0  0  0
  -21.6641   -6.8880   21.4241 O   0  0  0  0  0  0
  -22.3525  -14.5538   20.6709 O   0  0  0  0  0  0
  -24.6275  -31.8601   23.2041 C   0  0  0  0  0  0
  -25.9123  -32.4778   23.8364 C   0  0  1  0  0  0
  -27.2180  -27.3110   20.1101 C   0  0  0  0  0  0
  -25.5939  -33.8580   24.2290 N   0  0  0  0  0  0
  -23.4207  -30.4864   21.5471 C   0  0  2  0  0  0
  -24.8660  -28.9465   20.1087 C   0  0  0  0  0  0
  -22.7478  -29.4631   22.4933 C   0  0  0  0  0  0
  -18.0287  -28.1382   22.8487 C   0  0  0  0  0  0
  -24.1487  -36.7285   23.2635 C   0  0  0  0  0  0
  -25.9644  -30.7874   21.3785 C   0  0  0  0  0  0
  -26.0367  -29.4157   20.7178 C   0  0  0  0  0  0
  -27.2147  -28.6080   20.7143 C   0  0  0  0  0  0
  -26.0209  -26.9037   19.4712 C   0  0  0  0  0  0
  -24.8608  -27.6960   19.4776 C   0  0  0  0  0  0
  -23.6352  -29.8271   20.1605 C   0  0  0  0  0  0
  -25.4110  -36.3082   24.0331 C   0  0  1  0  0  0
  -20.5889  -28.3690   23.1277 C   0  0  2  0  0  0
  -20.6777  -26.9413   22.5406 C   0  0  0  0  0  0
  -19.5753  -26.6386   21.5209 C   0  0  0  0  0  0
  -18.1932  -26.7927   22.1620 C   0  0  0  0  0  0
  -19.1540  -28.8852   23.2878 C   0  0  0  0  0  0
  -18.9464  -30.1454   23.8897 C   0  0  0  0  0  0
  -17.6465  -30.6587   24.0563 C   0  0  0  0  0  0
  -25.9055  -34.9451   23.5109 C   0  0  0  0  0  0
  -16.5356  -29.9086   23.6331 C   0  0  0  0  0  0
  -16.7275  -28.6501   23.0356 C   0  0  0  0  0  0
  -26.4504  -31.6585   25.0733 C   0  0  0  0  0  0
  -25.3739  -31.3725   26.1461 C   0  0  0  0  0  0
  -27.0342  -30.3006   24.6192 C   0  0  0  0  0  0
  -27.6063  -32.4317   25.7502 C   0  0  0  0  0  0
  -27.5585  -37.1790   24.8457 C   0  0  0  0  0  0
  -21.4191  -29.3047   22.3673 N   0  0  0  0  0  0
  -26.4281  -37.3785   23.9424 N   0  0  0  0  0  0
  -24.6896  -31.0608   22.0999 N   0  0  0  0  0  0
  -23.4199  -28.8162   23.3007 O   0  0  0  0  0  0
  -28.3148  -26.4278   20.1821 O   0  0  0  0  0  0
  -26.5617  -34.8920   22.4672 O   0  0  0  0  0  0
  -23.5437  -32.1406   23.7365 O   0  0  0  0  0  0
  -28.0945  -22.4768   19.3906 C   0  0  0  0  0  0
  -29.9410  -22.1130   21.2860 C   0  0  0  0  0  0
  -28.6284  -23.6197   20.0596 C   0  0  0  0  0  0
  -29.3969  -20.9649   20.6149 C   0  0  0  0  0  0
  -30.8543  -17.7617   22.0300 C   0  0  0  0  0  0
  -30.8172  -19.2995   21.8917 C   0  0  0  0  0  0
  -29.3496  -18.3407   20.2577 C   0  0  0  0  0  0
  -30.3756  -17.2107   20.6783 C   0  0  2  0  0  0
  -28.0978  -25.0576   19.6555 C   0  0  0  0  0  0
  -29.5735  -23.4132   21.0249 N   0  0  0  0  0  0
  -28.4614  -21.1815   19.6551 N   0  0  0  0  0  0
  -29.7845  -19.6059   20.9081 N   0  0  0  0  0  0
  -29.9123  -15.7733   20.7580 N   0  0  0  0  0  0
  -31.4703  -12.5075   19.1577 H   0  0  0  0  0  0
  -30.3508  -11.4135   19.9202 H   0  0  0  0  0  0
  -29.7710  -11.7399   17.4912 H   0  0  0  0  0  0
  -29.6449  -13.4644   17.7359 H   0  0  0  0  0  0
  -27.8717  -11.2873   18.8868 H   0  0  0  0  0  0
  -27.3726  -12.5525   17.7963 H   0  0  0  0  0  0
  -27.6556  -14.2534   19.4969 H   0  0  0  0  0  0
  -28.7052  -12.1148   21.4141 H   0  0  0  0  0  0
  -28.4423  -13.7927   21.8125 H   0  0  0  0  0  0
  -25.2761   -9.5685   22.4761 H   0  0  0  0  0  0
  -24.0000   -7.4638   22.7477 H   0  0  0  0  0  0
  -21.0846   -8.8772   19.8952 H   0  0  0  0  0  0
  -22.3697  -10.9673   19.6167 H   0  0  0  0  0  0
  -21.2006   -7.6146   23.9713 H   0  0  0  0  0  0
  -21.1482   -6.0523   25.9075 H   0  0  0  0  0  0
  -22.0598   -2.7609   23.2846 H   0  0  0  0  0  0
  -22.4098  -11.9879   22.4791 H   0  0  0  0  0  0
  -21.1095  -13.1239   22.2609 H   0  0  0  0  0  0
  -24.6524  -15.8422   20.5140 H   0  0  0  0  0  0
  -26.2656  -15.6292   20.0607 H   0  0  0  0  0  0
  -26.7190  -32.5444   23.1111 H   0  0  0  0  0  0
  -25.0097  -33.9728   25.0442 H   0  0  0  0  0  0
  -22.7149  -31.3079   21.4070 H   0  0  0  0  0  0
  -23.3763  -35.9601   23.3274 H   0  0  0  0  0  0
  -24.3586  -36.8930   22.2054 H   0  0  0  0  0  0
  -23.7221  -37.6472   23.6669 H   0  0  0  0  0  0
  -26.1005  -31.5522   20.6125 H   0  0  0  0  0  0
  -26.8434  -30.8323   22.0098 H   0  0  0  0  0  0
  -28.1087  -28.9603   21.2098 H   0  0  0  0  0  0
  -25.9349  -25.9494   18.9735 H   0  0  0  0  0  0
  -23.9639  -27.3310   18.9961 H   0  0  0  0  0  0
  -23.7562  -30.6070   19.4078 H   0  0  0  0  0  0
  -22.7542  -29.2597   19.8549 H   0  0  0  0  0  0
  -25.1288  -36.1927   25.0822 H   0  0  0  0  0  0
  -20.9980  -28.3264   24.1397 H   0  0  0  0  0  0
  -20.5681  -26.2300   23.3607 H   0  0  0  0  0  0
  -21.6646  -26.7445   22.1198 H   0  0  0  0  0  0
  -19.6915  -25.6299   21.1233 H   0  0  0  0  0  0
  -19.6686  -27.3200   20.6741 H   0  0  0  0  0  0
  -17.4202  -26.6678   21.4021 H   0  0  0  0  0  0
  -18.0329  -26.0066   22.9012 H   0  0  0  0  0  0
  -19.7940  -30.7267   24.2266 H   0  0  0  0  0  0
  -17.5022  -31.6266   24.5166 H   0  0  0  0  0  0
  -15.5358  -30.2990   23.7659 H   0  0  0  0  0  0
  -15.8672  -28.0822   22.7074 H   0  0  0  0  0  0
  -24.5902  -30.7089   25.7789 H   0  0  0  0  0  0
  -24.8946  -32.2892   26.4902 H   0  0  0  0  0  0
  -25.8064  -30.8884   27.0227 H   0  0  0  0  0  0
  -26.2914  -29.6757   24.1218 H   0  0  0  0  0  0
  -27.4039  -29.7263   25.4697 H   0  0  0  0  0  0
  -27.8789  -30.4288   23.9418 H   0  0  0  0  0  0
  -27.2680  -33.3629   26.2059 H   0  0  0  0  0  0
  -28.3883  -32.6856   25.0334 H   0  0  0  0  0  0
  -28.0716  -31.8451   26.5435 H   0  0  0  0  0  0
  -28.2567  -38.0124   24.7564 H   0  0  0  0  0  0
  -28.1118  -36.2659   24.6203 H   0  0  0  0  0  0
  -27.2314  -37.1343   25.8861 H   0  0  0  0  0  0
  -20.9367  -29.8778   21.6891 H   0  0  0  0  0  0
  -26.0157  -38.2850   24.1465 H   0  0  0  0  0  0
  -27.3457  -22.6056   18.6225 H   0  0  0  0  0  0
  -30.6908  -21.9972   22.0544 H   0  0  0  0  0  0
  -30.1629  -17.4586   22.8178 H   0  0  0  0  0  0
  -31.8440  -17.3965   22.3075 H   0  0  0  0  0  0
  -31.7772  -19.6705   21.5284 H   0  0  0  0  0  0
  -30.6178  -19.7734   22.8542 H   0  0  0  0  0  0
  -28.3439  -18.0997   20.6050 H   0  0  0  0  0  0
  -29.3042  -18.4511   19.1730 H   0  0  0  0  0  0
  -31.2136  -17.2678   19.9802 H   0  0  0  0  0  0
  -27.6631  -24.9418   20.6508 H   0  0  0  0  0  0
  -29.1323  -25.1948   19.3389 H   0  0  0  0  0  0
  -28.9422  -15.6206   20.9886 H   0  0  0  0  0  0
  1 25  1  0  0  0
  1 30  2  0  0  0
  1 83  1  0  0  0
  2  3  1  0  0  0
  2 25  1  0  0  0
  2 84  1  0  0  0
  2 85  1  0  0  0
  3  4  1  0  0  0
  3 86  1  0  0  0
  3 87  1  0  0  0
  4  5  1  0  0  0
  4 88  1  0  0  0
  4 89  1  0  0  0
  5  6  1  0  0  0
  5 26  1  0  0  0
  5 90  1  0  0  0
  6 25  1  0  0  0
  6 91  1  0  0  0
  6 92  1  0  0  0
  7  8  2  0  0  0
  7 26  1  0  0  0
  7 29  1  0  0  0
  8  9  1  0  0  0
  8 22  1  0  0  0
  9 10  1  0  0  0
  9 27  2  0  0  0
 10 11  2  0  0  0
 10 15  1  0  0  0
 11 12  1  0  0  0
 11 93  1  0  0  0
 12 13  2  0  0  0
 12 94  1  0  0  0
 13 14  1  0  0  0
 13 31  1  0  0  0
 14 15  2  0  0  0
 14 95  1  0  0  0
 15 96  1  0  0  0
 16 17  2  0  0  0
 16 21  1  0  0  0
 16 31  1  0  0  0
 17 18  1  0  0  0
 17 97  1  0  0  0
 18 19  2  0  0  0
 18 98  1  0  0  0
 19 20  1  0  0  0
 19 24  1  0  0  0
 20 21  2  0  0  0
 20 99  1  0  0  0
 21 23  1  0  0  0
 22 28  1  0  0  0
 22 32  2  0  0  0
 26 27  1  0  0  0
 28100  1  0  0  0
 28101  1  0  0  0
 29102  1  0  0  0
 29103  1  0  0  0
 33 34  1  0  0  0
 33 66  1  0  0  0
 33 70  2  0  0  0
 34 36  1  0  0  0
 34 59  1  0  0  0
 34104  1  0  0  0
 35 44  2  0  0  0
 35 45  1  0  0  0
 35 68  1  0  0  0
 36 56  1  0  0  0
 36105  1  0  0  0
 37 39  1  0  0  0
 37 47  1  0  0  0
 37 66  1  0  0  0
 37106  1  0  0  0
 38 43  2  0  0  0
 38 46  1  0  0  0
 38 47  1  0  0  0
 39 64  1  0  0  0
 39 67  2  0  0  0
 40 52  1  0  0  0
 40 53  2  0  0  0
 40 58  1  0  0  0
 41107  1  0  0  0
 41108  1  0  0  0
 41109  1  0  0  0
 41 48  1  0  0  0
 42 43  1  0  0  0
 42 66  1  0  0  0
 42110  1  0  0  0
 42111  1  0  0  0
 43 44  1  0  0  0
 44112  1  0  0  0
 45 46  2  0  0  0
 45113  1  0  0  0
 46114  1  0  0  0
 47115  1  0  0  0
 47116  1  0  0  0
 48 56  1  0  0  0
 48 65  1  0  0  0
 48117  1  0  0  0
 49 50  1  0  0  0
 49 53  1  0  0  0
 49 64  1  0  0  0
 49118  1  0  0  0
 50 51  1  0  0  0
 50119  1  0  0  0
 50120  1  0  0  0
 51 52  1  0  0  0
 51121  1  0  0  0
 51122  1  0  0  0
 52123  1  0  0  0
 52124  1  0  0  0
 53 54  1  0  0  0
 54 55  2  0  0  0
 54125  1  0  0  0
 55 57  1  0  0  0
 55126  1  0  0  0
 56 69  2  0  0  0
 57 58  2  0  0  0
 57127  1  0  0  0
 58128  1  0  0  0
 59 60  1  0  0  0
 59 61  1  0  0  0
 59 62  1  0  0  0
 60129  1  0  0  0
 60130  1  0  0  0
 60131  1  0  0  0
 61132  1  0  0  0
 61133  1  0  0  0
 61134  1  0  0  0
 62135  1  0  0  0
 62136  1  0  0  0
 62137  1  0  0  0
 63 65  1  0  0  0
 63138  1  0  0  0
 63139  1  0  0  0
 63140  1  0  0  0
 64141  1  0  0  0
 65142  1  0  0  0
 68 79  1  0  0  0
 71 73  2  0  0  0
 71 81  1  0  0  0
 71143  1  0  0  0
 72 74  1  0  0  0
 72 80  2  0  0  0
 72144  1  0  0  0
 73 79  1  0  0  0
 73 80  1  0  0  0
 74 81  2  0  0  0
 74 82  1  0  0  0
 75 76  1  0  0  0
 75 78  1  0  0  0
 75145  1  0  0  0
 75146  1  0  0  0
 76 82  1  0  0  0
 76147  1  0  0  0
 76148  1  0  0  0
 77 78  1  0  0  0
 77 82  1  0  0  0
 77149  1  0  0  0
 77150  1  0  0  0
 78 83  1  0  0  0
 78151  1  0  0  0
 79152  1  0  0  0
 79153  1  0  0  0
 83154  1  0  0  0
M  ISO  4   1 100  68 101  79 101  83 100
M  END
> <chiral flag>
0

> <version>
0

> <s_m_source_file>
/data/baiqing/PycharmProjects/Reinvent-master-3.2/result/LINK_invent/BTK/process_docking_weight1_custom_sum_contain_oxygen_bond_distance_aromatic_linkinvent_7_9_3/rearranged_h_0189.sdf

> <i_m_source_file_index>
33

> <r_mmod_Potential_Energy-OPLS-2005>
374.178497314453

> <r_mmod_Stretch_Energy-OPLS-2005>
84.8294143676758

> <r_mmod_Bend_Energy-OPLS-2005>
392.225128173828

> <r_mmod_Torsional_Energy-OPLS-2005>
234.534088134766

> <r_mmod_Improper_Torsional_Energy-OPLS-2005>
4.73511362075806

> <r_mmod_Van_der_Waal_Energy-OPLS-2005>
155.327301025391

> <r_mmod_Electrostatic_Energy-OPLS-2005>
-306.692199707031

> <r_mmod_Solvation_Energy-OPLS-2005>
-246.984436035156

> <b_mmod_Minimization_Converged-OPLS-2005>
0

> <r_mmod_RMS_Derivative-OPLS-2005>
0.37908461689949

$$$$
33
                    3D
 Structure written by MMmdl.
154163  0  0  1  0            999 V2000
  -30.6240  -14.7634   20.4608 C   0  0  0  0  0  0
  -30.4280  -12.4709   19.4727 C   0  0  0  0  0  0
  -29.5064  -12.5081   18.2349 C   0  0  0  0  0  0
  -28.0351  -12.3258   18.6528 C   0  0  0  0  0  0
  -27.6372  -13.2339   19.8467 C   0  0  2  0  0  0
  -28.6829  -13.1919   20.9810 C   0  0  0  0  0  0
  -25.2485  -13.8190   20.5705 C   0  0  0  0  0  0
  -24.1785  -13.0429   20.9212 C   0  0  0  0  0  0
  -24.6387  -11.6912   20.8754 C   0  0  0  0  0  0
  -23.9069  -10.4287   21.0410 C   0  0  0  0  0  0
  -24.3620   -9.4201   21.9186 C   0  0  0  0  0  0
  -23.6293   -8.2238   22.0755 C   0  0  0  0  0  0
  -22.4276   -8.0277   21.3544 C   0  0  0  0  0  0
  -21.9912   -9.0251   20.4646 C   0  0  0  0  0  0
  -22.7243  -10.2129   20.3056 C   0  0  0  0  0  0
  -21.6852   -6.0733   22.5278 C   0  0  0  0  0  0
  -21.4013   -6.5639   23.8211 C   0  0  0  0  0  0
  -21.3660   -5.6792   24.9174 C   0  0  0  0  0  0
  -21.6043   -4.3054   24.7224 C   0  0  0  0  0  0
  -21.8820   -3.8145   23.4346 C   0  0  0  0  0  0
  -21.9193   -4.6961   22.3402 C   0  0  0  0  0  0
  -22.7806  -13.5209   21.1871 C   0  0  0  0  0  0
  -22.1661   -4.2147   21.0979 F   0  0  0  0  0  0
  -21.5630   -3.4538   25.7738 F   0  0  0  0  0  0
  -29.9802  -13.5446   20.3921 N   0  0  0  0  0  0
  -26.2916  -12.9408   20.3285 N   0  0  0  0  0  0
  -25.9318  -11.6547   20.5761 N   0  0  0  0  0  0
  -22.0458  -12.8197   22.0430 N   0  0  0  0  0  0
  -25.4150  -15.1910   20.4121 N   0  0  0  0  0  0
  -31.8184  -14.8295   20.1560 O   0  0  0  0  0  0
  -21.6639   -6.8875   21.4240 O   0  0  0  0  0  0
  -22.3488  -14.5517   20.6720 O   0  0  0  0  0  0
  -24.6325  -31.8535   23.1959 C   0  0  0  0  0  0
  -25.9141  -32.4747   23.8318 C   0  0  1  0  0  0
  -27.2201  -27.2503   20.1385 C   0  0  0  0  0  0
  -25.5930  -33.8549   24.2240 N   0  0  0  0  0  0
  -23.4301  -30.4748   21.5393 C   0  0  2  0  0  0
  -24.8785  -28.9167   20.1118 C   0  0  0  0  0  0
  -22.7509  -29.4596   22.4902 C   0  0  0  0  0  0
  -18.0292  -28.1391   22.8482 C   0  0  0  0  0  0
  -24.1490  -36.7278   23.2641 C   0  0  0  0  0  0
  -25.9765  -30.7647   21.3756 C   0  0  0  0  0  0
  -26.0506  -29.3853   20.7193 C   0  0  0  0  0  0
  -27.2269  -28.5663   20.7163 C   0  0  0  0  0  0
  -26.0272  -26.8500   19.5008 C   0  0  0  0  0  0
  -24.8724  -27.6581   19.4898 C   0  0  0  0  0  0
  -23.6493  -29.8054   20.1569 C   0  0  0  0  0  0
  -25.4117  -36.3062   24.0325 C   0  0  1  0  0  0
  -20.5899  -28.3702   23.1266 C   0  0  2  0  0  0
  -20.6781  -26.9417   22.5410 C   0  0  0  0  0  0
  -19.5757  -26.6384   21.5214 C   0  0  0  0  0  0
  -18.1936  -26.7933   22.1623 C   0  0  0  0  0  0
  -19.1546  -28.8863   23.2869 C   0  0  0  0  0  0
  -18.9469  -30.1464   23.8889 C   0  0  0  0  0  0
  -17.6468  -30.6591   24.0562 C   0  0  0  0  0  0
  -25.9056  -34.9435   23.5087 C   0  0  0  0  0  0
  -16.5357  -29.9088   23.6334 C   0  0  0  0  0  0
  -16.7279  -28.6507   23.0353 C   0  0  0  0  0  0
  -26.4503  -31.6578   25.0714 C   0  0  0  0  0  0
  -25.3717  -31.3740   26.1430 C   0  0  0  0  0  0
  -27.0352  -30.2993   24.6209 C   0  0  0  0  0  0
  -27.6052  -32.4322   25.7491 C   0  0  0  0  0  0
  -27.5578  -37.1794   24.8465 C   0  0  0  0  0  0
  -21.4214  -29.3045   22.3650 N   0  0  0  0  0  0
  -26.4288  -37.3765   23.9409 N   0  0  0  0  0  0
  -24.6988  -31.0494   22.0934 N   0  0  0  0  0  0
  -23.4204  -28.8137   23.3006 O   0  0  0  0  0  0
  -28.3089  -26.3470   20.1733 O   0  0  0  0  0  0
  -26.5635  -34.8916   22.4661 O   0  0  0  0  0  0
  -23.5469  -32.1354   23.7251 O   0  0  0  0  0  0
  -29.1611  -24.4332   21.3861 C   0  0  0  0  0  0
  -28.9283  -16.7038   20.0203 C   0  0  0  0  0  0
  -30.4528  -17.2162   21.3466 C   0  0  0  0  0  0
  -29.6693  -18.0608   20.2901 C   0  0  0  0  0  0
  -28.9697  -23.6076   20.1366 C   0  0  2  0  0  0
  -28.0411  -24.8868   20.4668 C   0  0  2  0  0  0
  -28.8589  -19.4464   20.6003 C   0  0  0  0  0  0
  -29.4270  -20.9397   20.2464 C   0  0  0  0  0  0
  -29.9235  -15.9221   20.8073 N   0  0  0  0  0  0
  -28.4924  -22.1615   20.4323 N   0  3  0  0  0  0
  -31.4686  -12.5920   19.1670 H   0  0  0  0  0  0
  -30.3740  -11.4996   19.9670 H   0  0  0  0  0  0
  -29.7929  -11.7298   17.5262 H   0  0  0  0  0  0
  -29.6263  -13.4585   17.7125 H   0  0  0  0  0  0
  -27.9003  -11.2785   18.9263 H   0  0  0  0  0  0
  -27.3742  -12.5048   17.8039 H   0  0  0  0  0  0
  -27.6224  -14.2495   19.4536 H   0  0  0  0  0  0
  -28.7246  -12.2032   21.4399 H   0  0  0  0  0  0
  -28.4142  -13.8904   21.7752 H   0  0  0  0  0  0
  -25.2765   -9.5676   22.4762 H   0  0  0  0  0  0
  -24.0001   -7.4628   22.7473 H   0  0  0  0  0  0
  -21.0844   -8.8770   19.8950 H   0  0  0  0  0  0
  -22.3702  -10.9668   19.6165 H   0  0  0  0  0  0
  -21.2007   -7.6147   23.9714 H   0  0  0  0  0  0
  -21.1482   -6.0522   25.9076 H   0  0  0  0  0  0
  -22.0599   -2.7607   23.2847 H   0  0  0  0  0  0
  -22.4081  -11.9859   22.4812 H   0  0  0  0  0  0
  -21.1073  -13.1212   22.2642 H   0  0  0  0  0  0
  -24.6489  -15.8455   20.5280 H   0  0  0  0  0  0
  -26.2691  -15.6298   20.0959 H   0  0  0  0  0  0
  -26.7208  -32.5393   23.1059 H   0  0  0  0  0  0
  -25.0070  -33.9684   25.0383 H   0  0  0  0  0  0
  -22.7270  -31.2970   21.3907 H   0  0  0  0  0  0
  -23.3754  -35.9607   23.3294 H   0  0  0  0  0  0
  -24.3580  -36.8911   22.2057 H   0  0  0  0  0  0
  -23.7242  -37.6475   23.6672 H   0  0  0  0  0  0
  -26.1156  -31.5243   20.6050 H   0  0  0  0  0  0
  -26.8537  -30.8149   22.0092 H   0  0  0  0  0  0
  -28.1257  -28.9211   21.2011 H   0  0  0  0  0  0
  -25.9742  -25.8852   19.0166 H   0  0  0  0  0  0
  -23.9755  -27.2948   19.0070 H   0  0  0  0  0  0
  -23.7747  -30.5796   19.3991 H   0  0  0  0  0  0
  -22.7674  -29.2388   19.8522 H   0  0  0  0  0  0
  -25.1302  -36.1903   25.0817 H   0  0  0  0  0  0
  -20.9990  -28.3280   24.1386 H   0  0  0  0  0  0
  -20.5684  -26.2311   23.3615 H   0  0  0  0  0  0
  -21.6648  -26.7441   22.1201 H   0  0  0  0  0  0
  -19.6920  -25.6293   21.1247 H   0  0  0  0  0  0
  -19.6696  -27.3190   20.6742 H   0  0  0  0  0  0
  -17.4207  -26.6676   21.4025 H   0  0  0  0  0  0
  -18.0334  -26.0081   22.9025 H   0  0  0  0  0  0
  -19.7946  -30.7282   24.2250 H   0  0  0  0  0  0
  -17.5024  -31.6271   24.5165 H   0  0  0  0  0  0
  -15.5359  -30.2989   23.7666 H   0  0  0  0  0  0
  -15.8677  -28.0826   22.7073 H   0  0  0  0  0  0
  -24.5894  -30.7088   25.7756 H   0  0  0  0  0  0
  -24.8911  -32.2918   26.4827 H   0  0  0  0  0  0
  -25.8027  -30.8934   27.0223 H   0  0  0  0  0  0
  -26.2941  -29.6733   24.1225 H   0  0  0  0  0  0
  -27.4023  -29.7261   25.4733 H   0  0  0  0  0  0
  -27.8820  -30.4263   23.9461 H   0  0  0  0  0  0
  -27.2659  -33.3637   26.2033 H   0  0  0  0  0  0
  -28.3882  -32.6854   25.0331 H   0  0  0  0  0  0
  -28.0692  -31.8467   26.5437 H   0  0  0  0  0  0
  -28.2588  -38.0097   24.7516 H   0  0  0  0  0  0
  -28.1083  -36.2629   24.6286 H   0  0  0  0  0  0
  -27.2298  -37.1433   25.8868 H   0  0  0  0  0  0
  -20.9398  -29.8765   21.6852 H   0  0  0  0  0  0
  -26.0163  -38.2836   24.1414 H   0  0  0  0  0  0
  -30.0599  -25.0459   21.4275 H   0  0  0  0  0  0
  -28.8618  -24.0145   22.3451 H   0  0  0  0  0  0
  -28.8826  -16.4421   18.9616 H   0  0  0  0  0  0
  -27.9309  -16.6780   20.4598 H   0  0  0  0  0  0
  -30.1304  -17.4117   22.3704 H   0  0  0  0  0  0
  -31.5351  -17.3330   21.2675 H   0  0  0  0  0  0
  -30.3342  -18.2225   19.4394 H   0  0  0  0  0  0
  -29.6770  -23.6820   19.3131 H   0  0  0  0  0  0
  -27.0303  -24.7106   20.8318 H   0  0  0  0  0  0
  -28.5916  -19.4477   21.6573 H   0  0  0  0  0  0
  -27.9002  -19.3670   20.0873 H   0  0  0  0  0  0
  -29.7539  -20.9444   19.2066 H   0  0  0  0  0  0
  -30.3253  -21.1177   20.8379 H   0  0  0  0  0  0
  -27.6963  -21.9982   19.8378 H   0  0  0  0  0  0
  -28.1465  -22.1368   21.3765 H   0  0  0  0  0  0
  1 25  1  0  0  0
  1 30  2  0  0  0
  1 79  1  0  0  0
  2  3  1  0  0  0
  2 25  1  0  0  0
  2 81  1  0  0  0
  2 82  1  0  0  0
  3  4  1  0  0  0
  3 83  1  0  0  0
  3 84  1  0  0  0
  4  5  1  0  0  0
  4 85  1  0  0  0
  4 86  1  0  0  0
  5  6  1  0  0  0
  5 26  1  0  0  0
  5 87  1  0  0  0
  6 25  1  0  0  0
  6 88  1  0  0  0
  6 89  1  0  0  0
  7  8  2  0  0  0
  7 26  1  0  0  0
  7 29  1  0  0  0
  8  9  1  0  0  0
  8 22  1  0  0  0
  9 10  1  0  0  0
  9 27  2  0  0  0
 10 11  2  0  0  0
 10 15  1  0  0  0
 11 12  1  0  0  0
 11 90  1  0  0  0
 12 13  2  0  0  0
 12 91  1  0  0  0
 13 14  1  0  0  0
 13 31  1  0  0  0
 14 15  2  0  0  0
 14 92  1  0  0  0
 15 93  1  0  0  0
 16 17  2  0  0  0
 16 21  1  0  0  0
 16 31  1  0  0  0
 17 18  1  0  0  0
 17 94  1  0  0  0
 18 19  2  0  0  0
 18 95  1  0  0  0
 19 20  1  0  0  0
 19 24  1  0  0  0
 20 21  2  0  0  0
 20 96  1  0  0  0
 21 23  1  0  0  0
 22 28  1  0  0  0
 22 32  2  0  0  0
 26 27  1  0  0  0
 28 97  1  0  0  0
 28 98  1  0  0  0
 29 99  1  0  0  0
 29100  1  0  0  0
 33 34  1  0  0  0
 33 66  1  0  0  0
 33 70  2  0  0  0
 34 36  1  0  0  0
 34 59  1  0  0  0
 34101  1  0  0  0
 35 44  2  0  0  0
 35 45  1  0  0  0
 35 68  1  0  0  0
 36 56  1  0  0  0
 36102  1  0  0  0
 37 39  1  0  0  0
 37 47  1  0  0  0
 37 66  1  0  0  0
 37103  1  0  0  0
 38 43  2  0  0  0
 38 46  1  0  0  0
 38 47  1  0  0  0
 39 64  1  0  0  0
 39 67  2  0  0  0
 40 52  1  0  0  0
 40 53  2  0  0  0
 40 58  1  0  0  0
 41104  1  0  0  0
 41105  1  0  0  0
 41106  1  0  0  0
 41 48  1  0  0  0
 42 43  1  0  0  0
 42 66  1  0  0  0
 42107  1  0  0  0
 42108  1  0  0  0
 43 44  1  0  0  0
 44109  1  0  0  0
 45 46  2  0  0  0
 45110  1  0  0  0
 46111  1  0  0  0
 47112  1  0  0  0
 47113  1  0  0  0
 48 56  1  0  0  0
 48 65  1  0  0  0
 48114  1  0  0  0
 49 50  1  0  0  0
 49 53  1  0  0  0
 49 64  1  0  0  0
 49115  1  0  0  0
 50 51  1  0  0  0
 50116  1  0  0  0
 50117  1  0  0  0
 51 52  1  0  0  0
 51118  1  0  0  0
 51119  1  0  0  0
 52120  1  0  0  0
 52121  1  0  0  0
 53 54  1  0  0  0
 54 55  2  0  0  0
 54122  1  0  0  0
 55 57  1  0  0  0
 55123  1  0  0  0
 56 69  2  0  0  0
 57 58  2  0  0  0
 57124  1  0  0  0
 58125  1  0  0  0
 59 60  1  0  0  0
 59 61  1  0  0  0
 59 62  1  0  0  0
 60126  1  0  0  0
 60127  1  0  0  0
 60128  1  0  0  0
 61129  1  0  0  0
 61130  1  0  0  0
 61131  1  0  0  0
 62132  1  0  0  0
 62133  1  0  0  0
 62134  1  0  0  0
 63 65  1  0  0  0
 63135  1  0  0  0
 63136  1  0  0  0
 63137  1  0  0  0
 64138  1  0  0  0
 65139  1  0  0  0
 68 76  1  0  0  0
 71 75  1  0  0  0
 71 76  1  0  0  0
 71140  1  0  0  0
 71141  1  0  0  0
 72 74  1  0  0  0
 72 79  1  0  0  0
 72142  1  0  0  0
 72143  1  0  0  0
 73 74  1  0  0  0
 73 79  1  0  0  0
 73144  1  0  0  0
 73145  1  0  0  0
 74 77  1  0  0  0
 74146  1  0  0  0
 75 76  1  0  0  0
 75 80  1  0  0  0
 75147  1  0  0  0
 76148  1  0  0  0
 77 78  1  0  0  0
 77149  1  0  0  0
 77150  1  0  0  0
 78 80  1  0  0  0
 78151  1  0  0  0
 78152  1  0  0  0
 80153  1  0  0  0
 80154  1  0  0  0
M  CHG  1  80   1
M  ISO  4   1 100  68 101  76 101  79 100
M  END
> <chiral flag>
0

> <version>
0

> <s_m_source_file>
/data/baiqing/PycharmProjects/Reinvent-master-3.2/result/LINK_invent/BTK/process_docking_weight1_custom_sum_contain_oxygen_bond_distance_aromatic_linkinvent_7_9_3/rearranged_h_0189.sdf

> <i_m_source_file_index>
34

> <r_mmod_Potential_Energy-OPLS-2005>
131.123413085938

> <r_mmod_Stretch_Energy-OPLS-2005>
134.270919799805

> <r_mmod_Bend_Energy-OPLS-2005>
195.861480712891

> <r_mmod_Torsional_Energy-OPLS-2005>
332.193786621094

> <r_mmod_Improper_Torsional_Energy-OPLS-2005>
6.90028381347656

> <r_mmod_Van_der_Waal_Energy-OPLS-2005>
110.706954956055

> <r_mmod_Electrostatic_Energy-OPLS-2005>
-233.829071044922

> <r_mmod_Solvation_Energy-OPLS-2005>
-508.200653076172

> <b_mmod_Minimization_Converged-OPLS-2005>
0

> <r_mmod_RMS_Derivative-OPLS-2005>
0.433522373437881

$$$$
34
                    3D
 Structure written by MMmdl.
161169  0  0  1  0            999 V2000
  -30.6978  -14.5169   20.4607 C   0  0  0  0  0  0
  -30.4176  -12.3088   19.4271 C   0  0  0  0  0  0
  -29.4899  -12.4753   18.2065 C   0  0  0  0  0  0
  -28.0119  -12.3375   18.6228 C   0  0  0  0  0  0
  -27.6487  -13.1945   19.8651 C   0  0  2  0  0  0
  -28.7063  -13.0577   20.9852 C   0  0  0  0  0  0
  -25.2568  -13.8106   20.5719 C   0  0  0  0  0  0
  -24.1818  -13.0407   20.9201 C   0  0  0  0  0  0
  -24.6358  -11.6866   20.8761 C   0  0  0  0  0  0
  -23.9018  -10.4265   21.0415 C   0  0  0  0  0  0
  -24.3583   -9.4181   21.9186 C   0  0  0  0  0  0
  -23.6268   -8.2216   22.0743 C   0  0  0  0  0  0
  -22.4253   -8.0258   21.3535 C   0  0  0  0  0  0
  -21.9883   -9.0228   20.4633 C   0  0  0  0  0  0
  -22.7201  -10.2107   20.3050 C   0  0  0  0  0  0
  -21.6851   -6.0709   22.5267 C   0  0  0  0  0  0
  -21.4019   -6.5617   23.8200 C   0  0  0  0  0  0
  -21.3667   -5.6777   24.9165 C   0  0  0  0  0  0
  -21.6053   -4.3038   24.7221 C   0  0  0  0  0  0
  -21.8824   -3.8122   23.4345 C   0  0  0  0  0  0
  -21.9192   -4.6938   22.3396 C   0  0  0  0  0  0
  -22.7841  -13.5219   21.1843 C   0  0  0  0  0  0
  -22.1658   -4.2121   21.0973 F   0  0  0  0  0  0
  -21.5635   -3.4525   25.7735 F   0  0  0  0  0  0
  -30.0254  -13.3353   20.3997 N   0  0  0  0  0  0
  -26.2973  -12.9232   20.3395 N   0  0  0  0  0  0
  -25.9281  -11.6413   20.5809 N   0  0  0  0  0  0
  -22.0470  -12.8229   22.0406 N   0  0  0  0  0  0
  -25.4311  -15.1829   20.4130 N   0  0  0  0  0  0
  -31.8987  -14.6201   20.1980 O   0  0  0  0  0  0
  -21.6633   -6.8849   21.4226 O   0  0  0  0  0  0
  -22.3538  -14.5522   20.6668 O   0  0  0  0  0  0
  -24.6165  -31.8673   23.2123 C   0  0  0  0  0  0
  -25.9060  -32.4819   23.8412 C   0  0  1  0  0  0
  -27.2268  -27.4169   20.0955 C   0  0  0  0  0  0
  -25.5914  -33.8621   24.2345 N   0  0  0  0  0  0
  -23.4040  -30.4949   21.5522 C   0  0  2  0  0  0
  -24.8494  -28.9674   20.1098 C   0  0  0  0  0  0
  -22.7410  -29.4657   22.4970 C   0  0  0  0  0  0
  -18.0276  -28.1377   22.8491 C   0  0  0  0  0  0
  -24.1481  -36.7307   23.2644 C   0  0  0  0  0  0
  -25.9366  -30.8276   21.3703 C   0  0  0  0  0  0
  -26.0121  -29.4644   20.7114 C   0  0  0  0  0  0
  -27.2029  -28.6971   20.7029 C   0  0  0  0  0  0
  -26.0441  -26.9541   19.4686 C   0  0  0  0  0  0
  -24.8622  -27.7122   19.4849 C   0  0  0  0  0  0
  -23.6130  -29.8357   20.1639 C   0  0  0  0  0  0
  -25.4102  -36.3110   24.0340 C   0  0  1  0  0  0
  -20.5866  -28.3658   23.1311 C   0  0  2  0  0  0
  -20.6768  -26.9393   22.5418 C   0  0  0  0  0  0
  -19.5748  -26.6383   21.5213 C   0  0  0  0  0  0
  -18.1922  -26.7923   22.1621 C   0  0  0  0  0  0
  -19.1526  -28.8832   23.2898 C   0  0  0  0  0  0
  -18.9461  -30.1440   23.8907 C   0  0  0  0  0  0
  -17.6465  -30.6582   24.0562 C   0  0  0  0  0  0
  -25.9039  -34.9473   23.5136 C   0  0  0  0  0  0
  -16.5352  -29.9084   23.6339 C   0  0  0  0  0  0
  -16.7266  -28.6505   23.0352 C   0  0  0  0  0  0
  -26.4484  -31.6602   25.0743 C   0  0  0  0  0  0
  -25.3752  -31.3712   26.1494 C   0  0  0  0  0  0
  -27.0337  -30.3054   24.6134 C   0  0  0  0  0  0
  -27.6061  -32.4317   25.7498 C   0  0  0  0  0  0
  -27.5570  -37.1807   24.8467 C   0  0  0  0  0  0
  -21.4137  -29.3026   22.3713 N   0  0  0  0  0  0
  -26.4286  -37.3795   23.9408 N   0  0  0  0  0  0
  -24.6707  -31.0766   22.1033 N   0  0  0  0  0  0
  -23.4185  -28.8190   23.3004 O   0  0  0  0  0  0
  -28.3784  -26.6447   20.1425 O   0  0  0  0  0  0
  -26.5583  -34.8910   22.4688 O   0  0  0  0  0  0
  -23.5352  -32.1425   23.7509 O   0  0  0  0  0  0
  -29.7860  -17.7124   19.1823 C   0  0  0  0  0  0
  -29.5745  -16.1975   19.1298 C   0  0  0  0  0  0
  -30.2284  -16.7928   21.3192 C   0  0  0  0  0  0
  -29.5675  -18.0186   20.6513 C   0  0  1  0  0  0
  -29.5697  -22.0231   22.6415 C   0  0  0  0  0  0
  -29.3040  -24.3245   20.5758 C   0  0  0  0  0  0
  -29.2464  -20.5028   20.5972 C   0  0  0  0  0  0
  -28.1969  -25.2229   19.9740 C   0  0  0  0  0  0
  -29.7090  -21.9027   21.1110 C   0  0  1  0  0  0
  -29.9206  -15.6318   20.4548 N   0  0  0  0  0  0
  -28.8699  -22.9218   20.4664 N   0  0  0  0  0  0
  -30.0582  -19.3566   21.0898 N   0  3  0  0  0  0
  -31.4634  -12.3961   19.1260 H   0  0  0  0  0  0
  -30.3121  -11.3155   19.8650 H   0  0  0  0  0  0
  -29.7337  -11.7330   17.4464 H   0  0  0  0  0  0
  -29.6519  -13.4478   17.7396 H   0  0  0  0  0  0
  -27.8264  -11.2831   18.8322 H   0  0  0  0  0  0
  -27.3614  -12.5969   17.7859 H   0  0  0  0  0  0
  -27.6461  -14.2234   19.5296 H   0  0  0  0  0  0
  -28.6943  -12.0505   21.4045 H   0  0  0  0  0  0
  -28.4894  -13.7395   21.8092 H   0  0  0  0  0  0
  -25.2725   -9.5668   22.4764 H   0  0  0  0  0  0
  -23.9984   -7.4606   22.7462 H   0  0  0  0  0  0
  -21.0813   -8.8735   19.8937 H   0  0  0  0  0  0
  -22.3656  -10.9646   19.6158 H   0  0  0  0  0  0
  -21.2014   -7.6123   23.9696 H   0  0  0  0  0  0
  -21.1494   -6.0502   25.9069 H   0  0  0  0  0  0
  -22.0604   -2.7580   23.2848 H   0  0  0  0  0  0
  -22.4072  -11.9899   22.4825 H   0  0  0  0  0  0
  -21.1077  -13.1243   22.2571 H   0  0  0  0  0  0
  -24.6700  -15.8433   20.5309 H   0  0  0  0  0  0
  -26.2949  -15.6218   20.1223 H   0  0  0  0  0  0
  -26.7122  -32.5523   23.1163 H   0  0  0  0  0  0
  -25.0089  -33.9786   25.0509 H   0  0  0  0  0  0
  -22.6932  -31.3126   21.4167 H   0  0  0  0  0  0
  -23.3737  -35.9646   23.3329 H   0  0  0  0  0  0
  -24.3592  -36.8899   22.2057 H   0  0  0  0  0  0
  -23.7220  -37.6513   23.6644 H   0  0  0  0  0  0
  -26.0550  -31.5961   20.6053 H   0  0  0  0  0  0
  -26.8233  -30.8745   21.9915 H   0  0  0  0  0  0
  -28.0946  -29.0719   21.1857 H   0  0  0  0  0  0
  -26.0054  -26.0010   18.9601 H   0  0  0  0  0  0
  -23.9717  -27.3251   19.0099 H   0  0  0  0  0  0
  -23.7221  -30.6158   19.4104 H   0  0  0  0  0  0
  -22.7352  -29.2610   19.8638 H   0  0  0  0  0  0
  -25.1274  -36.1988   25.0831 H   0  0  0  0  0  0
  -20.9966  -28.3228   24.1425 H   0  0  0  0  0  0
  -20.5685  -26.2257   23.3601 H   0  0  0  0  0  0
  -21.6635  -26.7442   22.1197 H   0  0  0  0  0  0
  -19.6914  -25.6302   21.1222 H   0  0  0  0  0  0
  -19.6698  -27.3206   20.6754 H   0  0  0  0  0  0
  -17.4198  -26.6678   21.4016 H   0  0  0  0  0  0
  -18.0318  -26.0059   22.9013 H   0  0  0  0  0  0
  -19.7942  -30.7247   24.2279 H   0  0  0  0  0  0
  -17.5028  -31.6269   24.5151 H   0  0  0  0  0  0
  -15.5355  -30.2989   23.7667 H   0  0  0  0  0  0
  -15.8663  -28.0831   22.7060 H   0  0  0  0  0  0
  -24.5923  -30.7053   25.7844 H   0  0  0  0  0  0
  -24.8941  -32.2869   26.4950 H   0  0  0  0  0  0
  -25.8113  -30.8887   27.0252 H   0  0  0  0  0  0
  -26.2904  -29.6781   24.1201 H   0  0  0  0  0  0
  -27.4135  -29.7319   25.4600 H   0  0  0  0  0  0
  -27.8715  -30.4391   23.9282 H   0  0  0  0  0  0
  -27.2701  -33.3614   26.2097 H   0  0  0  0  0  0
  -28.3864  -32.6877   25.0319 H   0  0  0  0  0  0
  -28.0732  -31.8422   26.5400 H   0  0  0  0  0  0
  -28.2600  -38.0092   24.7512 H   0  0  0  0  0  0
  -28.1050  -36.2627   24.6303 H   0  0  0  0  0  0
  -27.2293  -37.1461   25.8871 H   0  0  0  0  0  0
  -20.9291  -29.8775   21.6960 H   0  0  0  0  0  0
  -26.0180  -38.2872   24.1427 H   0  0  0  0  0  0
  -29.1034  -18.2506   18.5223 H   0  0  0  0  0  0
  -30.8076  -17.9554   18.8866 H   0  0  0  0  0  0
  -30.1517  -15.7628   18.3103 H   0  0  0  0  0  0
  -28.5261  -16.0118   18.9086 H   0  0  0  0  0  0
  -29.8524  -16.6376   22.3315 H   0  0  0  0  0  0
  -31.3097  -16.9305   21.3854 H   0  0  0  0  0  0
  -28.4974  -17.9662   20.8603 H   0  0  0  0  0  0
  -30.1719  -21.2729   23.1551 H   0  0  0  0  0  0
  -28.5371  -21.8905   22.9673 H   0  0  0  0  0  0
  -29.9112  -22.9880   23.0130 H   0  0  0  0  0  0
  -29.4532  -24.6040   21.6192 H   0  0  0  0  0  0
  -30.2532  -24.4753   20.0581 H   0  0  0  0  0  0
  -29.2748  -20.4977   19.5065 H   0  0  0  0  0  0
  -28.2041  -20.3365   20.8762 H   0  0  0  0  0  0
  -27.2680  -24.9166   20.4595 H   0  0  0  0  0  0
  -28.0923  -25.0070   18.9093 H   0  0  0  0  0  0
  -30.7487  -22.0685   20.8207 H   0  0  0  0  0  0
  -27.9223  -22.8469   20.8254 H   0  0  0  0  0  0
  -31.0132  -19.4844   20.7954 H   0  0  0  0  0  0
  -30.0422  -19.3811   22.0960 H   0  0  0  0  0  0
  1 25  1  0  0  0
  1 30  2  0  0  0
  1 80  1  0  0  0
  2  3  1  0  0  0
  2 25  1  0  0  0
  2 83  1  0  0  0
  2 84  1  0  0  0
  3  4  1  0  0  0
  3 85  1  0  0  0
  3 86  1  0  0  0
  4  5  1  0  0  0
  4 87  1  0  0  0
  4 88  1  0  0  0
  5  6  1  0  0  0
  5 26  1  0  0  0
  5 89  1  0  0  0
  6 25  1  0  0  0
  6 90  1  0  0  0
  6 91  1  0  0  0
  7  8  2  0  0  0
  7 26  1  0  0  0
  7 29  1  0  0  0
  8  9  1  0  0  0
  8 22  1  0  0  0
  9 10  1  0  0  0
  9 27  2  0  0  0
 10 11  2  0  0  0
 10 15  1  0  0  0
 11 12  1  0  0  0
 11 92  1  0  0  0
 12 13  2  0  0  0
 12 93  1  0  0  0
 13 14  1  0  0  0
 13 31  1  0  0  0
 14 15  2  0  0  0
 14 94  1  0  0  0
 15 95  1  0  0  0
 16 17  2  0  0  0
 16 21  1  0  0  0
 16 31  1  0  0  0
 17 18  1  0  0  0
 17 96  1  0  0  0
 18 19  2  0  0  0
 18 97  1  0  0  0
 19 20  1  0  0  0
 19 24  1  0  0  0
 20 21  2  0  0  0
 20 98  1  0  0  0
 21 23  1  0  0  0
 22 28  1  0  0  0
 22 32  2  0  0  0
 26 27  1  0  0  0
 28 99  1  0  0  0
 28100  1  0  0  0
 29101  1  0  0  0
 29102  1  0  0  0
 33 34  1  0  0  0
 33 66  1  0  0  0
 33 70  2  0  0  0
 34 36  1  0  0  0
 34 59  1  0  0  0
 34103  1  0  0  0
 35 44  2  0  0  0
 35 45  1  0  0  0
 35 68  1  0  0  0
 36 56  1  0  0  0
 36104  1  0  0  0
 37 39  1  0  0  0
 37 47  1  0  0  0
 37 66  1  0  0  0
 37105  1  0  0  0
 38 43  2  0  0  0
 38 46  1  0  0  0
 38 47  1  0  0  0
 39 64  1  0  0  0
 39 67  2  0  0  0
 40 52  1  0  0  0
 40 53  2  0  0  0
 40 58  1  0  0  0
 41106  1  0  0  0
 41107  1  0  0  0
 41108  1  0  0  0
 41 48  1  0  0  0
 42 43  1  0  0  0
 42 66  1  0  0  0
 42109  1  0  0  0
 42110  1  0  0  0
 43 44  1  0  0  0
 44111  1  0  0  0
 45 46  2  0  0  0
 45112  1  0  0  0
 46113  1  0  0  0
 47114  1  0  0  0
 47115  1  0  0  0
 48 56  1  0  0  0
 48 65  1  0  0  0
 48116  1  0  0  0
 49 50  1  0  0  0
 49 53  1  0  0  0
 49 64  1  0  0  0
 49117  1  0  0  0
 50 51  1  0  0  0
 50118  1  0  0  0
 50119  1  0  0  0
 51 52  1  0  0  0
 51120  1  0  0  0
 51121  1  0  0  0
 52122  1  0  0  0
 52123  1  0  0  0
 53 54  1  0  0  0
 54 55  2  0  0  0
 54124  1  0  0  0
 55 57  1  0  0  0
 55125  1  0  0  0
 56 69  2  0  0  0
 57 58  2  0  0  0
 57126  1  0  0  0
 58127  1  0  0  0
 59 60  1  0  0  0
 59 61  1  0  0  0
 59 62  1  0  0  0
 60128  1  0  0  0
 60129  1  0  0  0
 60130  1  0  0  0
 61131  1  0  0  0
 61132  1  0  0  0
 61133  1  0  0  0
 62134  1  0  0  0
 62135  1  0  0  0
 62136  1  0  0  0
 63 65  1  0  0  0
 63137  1  0  0  0
 63138  1  0  0  0
 63139  1  0  0  0
 64140  1  0  0  0
 65141  1  0  0  0
 68 78  1  0  0  0
 71 72  1  0  0  0
 71 74  1  0  0  0
 71142  1  0  0  0
 71143  1  0  0  0
 72 80  1  0  0  0
 72144  1  0  0  0
 72145  1  0  0  0
 73 74  1  0  0  0
 73 80  1  0  0  0
 73146  1  0  0  0
 73147  1  0  0  0
 74 82  1  0  0  0
 74148  1  0  0  0
 75149  1  0  0  0
 75150  1  0  0  0
 75151  1  0  0  0
 75 79  1  0  0  0
 76 78  1  0  0  0
 76 81  1  0  0  0
 76152  1  0  0  0
 76153  1  0  0  0
 77 79  1  0  0  0
 77 82  1  0  0  0
 77154  1  0  0  0
 77155  1  0  0  0
 78156  1  0  0  0
 78157  1  0  0  0
 79 81  1  0  0  0
 79158  1  0  0  0
 81159  1  0  0  0
 82160  1  0  0  0
 82161  1  0  0  0
M  CHG  1  82   1
M  ISO  4   1 100  68 101  78 101  80 100
M  END
> <chiral flag>
0

> <version>
0

> <s_m_source_file>
/data/baiqing/PycharmProjects/Reinvent-master-3.2/result/LINK_invent/BTK/process_docking_weight1_custom_sum_contain_oxygen_bond_distance_aromatic_linkinvent_7_9_3/rearranged_h_0189.sdf

> <i_m_source_file_index>
35

> <r_mmod_Potential_Energy-OPLS-2005>
32.7781448364258

> <r_mmod_Stretch_Energy-OPLS-2005>
40.5576782226562

> <r_mmod_Bend_Energy-OPLS-2005>
132.670028686523

> <r_mmod_Torsional_Energy-OPLS-2005>
345.525970458984

> <r_mmod_Improper_Torsional_Energy-OPLS-2005>
14.1413116455078

> <r_mmod_Van_der_Waal_Energy-OPLS-2005>
136.105316162109

> <r_mmod_Electrostatic_Energy-OPLS-2005>
-202.263870239258

> <r_mmod_Solvation_Energy-OPLS-2005>
-459.985107421875

> <b_mmod_Minimization_Converged-OPLS-2005>
0

> <r_mmod_RMS_Derivative-OPLS-2005>
1.97646880149841

$$$$
35
                    3D
 Structure written by MMmdl.
160170  0  0  1  0            999 V2000
  -30.5992  -14.8247   20.4806 C   0  0  0  0  0  0
  -30.4378  -12.5189   19.4798 C   0  0  0  0  0  0
  -29.5146  -12.5363   18.2410 C   0  0  0  0  0  0
  -28.0410  -12.3504   18.6519 C   0  0  0  0  0  0
  -27.6422  -13.2401   19.8594 C   0  0  2  0  0  0
  -28.6913  -13.1659   20.9889 C   0  0  0  0  0  0
  -25.2512  -13.8214   20.5730 C   0  0  0  0  0  0
  -24.1802  -13.0451   20.9218 C   0  0  0  0  0  0
  -24.6396  -11.6929   20.8747 C   0  0  0  0  0  0
  -23.9078  -10.4303   21.0410 C   0  0  0  0  0  0
  -24.3625   -9.4216   21.9192 C   0  0  0  0  0  0
  -23.6299   -8.2247   22.0748 C   0  0  0  0  0  0
  -22.4280   -8.0277   21.3528 C   0  0  0  0  0  0
  -21.9914   -9.0263   20.4643 C   0  0  0  0  0  0
  -22.7247  -10.2148   20.3059 C   0  0  0  0  0  0
  -21.6853   -6.0738   22.5274 C   0  0  0  0  0  0
  -21.4014   -6.5642   23.8208 C   0  0  0  0  0  0
  -21.3663   -5.6792   24.9171 C   0  0  0  0  0  0
  -21.6051   -4.3054   24.7219 C   0  0  0  0  0  0
  -21.8814   -3.8145   23.4338 C   0  0  0  0  0  0
  -21.9195   -4.6967   22.3400 C   0  0  0  0  0  0
  -22.7822  -13.5234   21.1886 C   0  0  0  0  0  0
  -22.1665   -4.2159   21.0975 F   0  0  0  0  0  0
  -21.5634   -3.4535   25.7735 F   0  0  0  0  0  0
  -29.9732  -13.5863   20.4073 N   0  0  0  0  0  0
  -26.2948  -12.9428   20.3339 N   0  0  0  0  0  0
  -25.9333  -11.6557   20.5760 N   0  0  0  0  0  0
  -22.0463  -12.8217   22.0431 N   0  0  0  0  0  0
  -25.4220  -15.1940   20.4185 N   0  0  0  0  0  0
  -31.7726  -14.8949   20.0980 O   0  0  0  0  0  0
  -21.6627   -6.8880   21.4232 O   0  0  0  0  0  0
  -22.3521  -14.5548   20.6751 O   0  0  0  0  0  0
  -24.6365  -31.8511   23.1965 C   0  0  0  0  0  0
  -25.9174  -32.4720   23.8327 C   0  0  1  0  0  0
  -27.2118  -27.1906   20.1487 C   0  0  0  0  0  0
  -25.5951  -33.8530   24.2246 N   0  0  0  0  0  0
  -23.4363  -30.4733   21.5393 C   0  0  2  0  0  0
  -24.8857  -28.9136   20.1077 C   0  0  0  0  0  0
  -22.7532  -29.4582   22.4880 C   0  0  0  0  0  0
  -18.0295  -28.1392   22.8479 C   0  0  0  0  0  0
  -24.1491  -36.7267   23.2639 C   0  0  0  0  0  0
  -25.9884  -30.7385   21.3919 C   0  0  0  0  0  0
  -26.0558  -29.3550   20.7366 C   0  0  0  0  0  0
  -27.2178  -28.5048   20.7527 C   0  0  0  0  0  0
  -26.0307  -26.8616   19.4458 C   0  0  0  0  0  0
  -24.8824  -27.6774   19.4471 C   0  0  0  0  0  0
  -23.6594  -29.8085   20.1552 C   0  0  0  0  0  0
  -25.4113  -36.3053   24.0330 C   0  0  1  0  0  0
  -20.5905  -28.3712   23.1246 C   0  0  2  0  0  0
  -20.6779  -26.9420   22.5399 C   0  0  0  0  0  0
  -19.5755  -26.6378   21.5205 C   0  0  0  0  0  0
  -18.1940  -26.7925   22.1626 C   0  0  0  0  0  0
  -19.1554  -28.8864   23.2854 C   0  0  0  0  0  0
  -18.9466  -30.1458   23.8879 C   0  0  0  0  0  0
  -17.6465  -30.6588   24.0552 C   0  0  0  0  0  0
  -25.9065  -34.9428   23.5094 C   0  0  0  0  0  0
  -16.5359  -29.9084   23.6331 C   0  0  0  0  0  0
  -16.7278  -28.6500   23.0356 C   0  0  0  0  0  0
  -26.4517  -31.6567   25.0747 C   0  0  0  0  0  0
  -25.3728  -31.3753   26.1465 C   0  0  0  0  0  0
  -27.0349  -30.2957   24.6299 C   0  0  0  0  0  0
  -27.6072  -32.4311   25.7511 C   0  0  0  0  0  0
  -27.5577  -37.1788   24.8462 C   0  0  0  0  0  0
  -21.4229  -29.3050   22.3630 N   0  0  0  0  0  0
  -26.4281  -37.3761   23.9420 N   0  0  0  0  0  0
  -24.7056  -31.0416   22.0974 N   0  0  0  0  0  0
  -23.4203  -28.8133   23.3009 O   0  0  0  0  0  0
  -28.2899  -26.2487   20.2023 O   0  0  0  0  0  0
  -26.5634  -34.8910   22.4660 O   0  0  0  0  0  0
  -23.5505  -32.1372   23.7214 O   0  0  0  0  0  0
  -27.3257  -22.8549   20.4127 C   0  0  0  0  0  0
  -28.1653  -24.7977   20.3079 C   0  0  0  0  0  0
  -25.0637  -21.8285   21.2534 C   0  0  0  0  0  0
  -26.1384  -20.8472   21.6449 C   0  0  0  0  0  0
  -28.7353  -17.9442   21.7432 C   0  0  0  0  0  0
  -29.1792  -16.4478   21.8661 C   0  0  0  0  0  0
  -30.0258  -17.3436   19.8708 C   0  0  0  0  0  0
  -26.3306  -21.7352   20.4313 C   0  0  0  0  0  0
  -29.7088  -18.6354   20.7832 C   0  0  1  0  0  0
  -29.4412  -21.3458   20.9178 C   0  0  0  0  0  0
  -26.9614  -24.1483   20.2782 N   0  0  0  0  0  0
  -29.2194  -23.9371   20.4554 N   0  0  0  0  0  0
  -28.6570  -22.6356   20.5114 N   0  0  0  0  0  0
  -29.8523  -16.0192   20.6233 N   0  0  0  0  0  0
  -29.2377  -19.9988   20.1637 N   0  3  0  0  0  0
  -31.4746  -12.6567   19.1694 H   0  0  0  0  0  0
  -30.4069  -11.5444   19.9691 H   0  0  0  0  0  0
  -29.8096  -11.7565   17.5386 H   0  0  0  0  0  0
  -29.6287  -13.4837   17.7100 H   0  0  0  0  0  0
  -27.8985  -11.2994   18.9057 H   0  0  0  0  0  0
  -27.3846  -12.5500   17.8043 H   0  0  0  0  0  0
  -27.6359  -14.2667   19.4908 H   0  0  0  0  0  0
  -28.7611  -12.1517   21.3841 H   0  0  0  0  0  0
  -28.4101  -13.7773   21.8403 H   0  0  0  0  0  0
  -25.2773   -9.5700   22.4765 H   0  0  0  0  0  0
  -24.0022   -7.4627   22.7450 H   0  0  0  0  0  0
  -21.0846   -8.8784   19.8944 H   0  0  0  0  0  0
  -22.3704  -10.9684   19.6165 H   0  0  0  0  0  0
  -21.1995   -7.6147   23.9718 H   0  0  0  0  0  0
  -21.1498   -6.0516   25.9078 H   0  0  0  0  0  0
  -22.0593   -2.7606   23.2825 H   0  0  0  0  0  0
  -22.4072  -11.9885   22.4833 H   0  0  0  0  0  0
  -21.1069  -13.1233   22.2621 H   0  0  0  0  0  0
  -24.6575  -15.8497   20.5334 H   0  0  0  0  0  0
  -26.2815  -15.6314   20.1116 H   0  0  0  0  0  0
  -26.7239  -32.5347   23.1060 H   0  0  0  0  0  0
  -25.0087  -33.9653   25.0383 H   0  0  0  0  0  0
  -22.7343  -31.2970   21.3912 H   0  0  0  0  0  0
  -23.3762  -35.9588   23.3279 H   0  0  0  0  0  0
  -24.3581  -36.8910   22.2056 H   0  0  0  0  0  0
  -23.7234  -37.6459   23.6675 H   0  0  0  0  0  0
  -26.1381  -31.4929   20.6184 H   0  0  0  0  0  0
  -26.8620  -30.7873   22.0297 H   0  0  0  0  0  0
  -28.1072  -28.8364   21.2694 H   0  0  0  0  0  0
  -25.9654  -25.9325   18.9013 H   0  0  0  0  0  0
  -23.9964  -27.3401   18.9262 H   0  0  0  0  0  0
  -23.7908  -30.5869   19.4028 H   0  0  0  0  0  0
  -22.7754  -29.2479   19.8459 H   0  0  0  0  0  0
  -25.1295  -36.1889   25.0820 H   0  0  0  0  0  0
  -20.9993  -28.3291   24.1370 H   0  0  0  0  0  0
  -20.5669  -26.2323   23.3610 H   0  0  0  0  0  0
  -21.6647  -26.7431   22.1202 H   0  0  0  0  0  0
  -19.6921  -25.6282   21.1249 H   0  0  0  0  0  0
  -19.6697  -27.3169   20.6720 H   0  0  0  0  0  0
  -17.4205  -26.6656   21.4034 H   0  0  0  0  0  0
  -18.0354  -26.0078   22.9035 H   0  0  0  0  0  0
  -19.7943  -30.7270   24.2261 H   0  0  0  0  0  0
  -17.5024  -31.6270   24.5149 H   0  0  0  0  0  0
  -15.5358  -30.2979   23.7667 H   0  0  0  0  0  0
  -15.8679  -28.0807   22.7095 H   0  0  0  0  0  0
  -24.5870  -30.7137   25.7797 H   0  0  0  0  0  0
  -24.8961  -32.2939   26.4906 H   0  0  0  0  0  0
  -25.8037  -30.8907   27.0239 H   0  0  0  0  0  0
  -26.2944  -29.6699   24.1303 H   0  0  0  0  0  0
  -27.3943  -29.7244   25.4869 H   0  0  0  0  0  0
  -27.8878  -30.4173   23.9616 H   0  0  0  0  0  0
  -27.2692  -33.3635   26.2053 H   0  0  0  0  0  0
  -28.3907  -32.6831   25.0348 H   0  0  0  0  0  0
  -28.0717  -31.8454   26.5457 H   0  0  0  0  0  0
  -28.2580  -38.0100   24.7521 H   0  0  0  0  0  0
  -28.1091  -36.2629   24.6269 H   0  0  0  0  0  0
  -27.2300  -37.1412   25.8866 H   0  0  0  0  0  0
  -20.9426  -29.8758   21.6810 H   0  0  0  0  0  0
  -26.0154  -38.2835   24.1419 H   0  0  0  0  0  0
  -24.9302  -22.7101   21.8770 H   0  0  0  0  0  0
  -24.1528  -21.4298   20.8103 H   0  0  0  0  0  0
  -25.9386  -19.7915   21.4699 H   0  0  0  0  0  0
  -26.7071  -21.0688   22.5454 H   0  0  0  0  0  0
  -28.6923  -18.4400   22.7133 H   0  0  0  0  0  0
  -27.7283  -17.9739   21.3248 H   0  0  0  0  0  0
  -28.3024  -15.8443   22.0873 H   0  0  0  0  0  0
  -29.8779  -16.3287   22.6967 H   0  0  0  0  0  0
  -31.0302  -17.4172   19.4519 H   0  0  0  0  0  0
  -29.3395  -17.3183   19.0238 H   0  0  0  0  0  0
  -26.2441  -21.2917   19.4418 H   0  0  0  0  0  0
  -30.6266  -18.8511   21.3338 H   0  0  0  0  0  0
  -29.2056  -21.1646   21.9678 H   0  0  0  0  0  0
  -30.5048  -21.5835   20.9008 H   0  0  0  0  0  0
  -28.2721  -19.9082   19.9037 H   0  0  0  0  0  0
  -29.7494  -20.1181   19.3048 H   0  0  0  0  0  0
  1 25  1  0  0  0
  1 30  2  0  0  0
  1 84  1  0  0  0
  2  3  1  0  0  0
  2 25  1  0  0  0
  2 86  1  0  0  0
  2 87  1  0  0  0
  3  4  1  0  0  0
  3 88  1  0  0  0
  3 89  1  0  0  0
  4  5  1  0  0  0
  4 90  1  0  0  0
  4 91  1  0  0  0
  5  6  1  0  0  0
  5 26  1  0  0  0
  5 92  1  0  0  0
  6 25  1  0  0  0
  6 93  1  0  0  0
  6 94  1  0  0  0
  7  8  2  0  0  0
  7 26  1  0  0  0
  7 29  1  0  0  0
  8  9  1  0  0  0
  8 22  1  0  0  0
  9 10  1  0  0  0
  9 27  2  0  0  0
 10 11  2  0  0  0
 10 15  1  0  0  0
 11 12  1  0  0  0
 11 95  1  0  0  0
 12 13  2  0  0  0
 12 96  1  0  0  0
 13 14  1  0  0  0
 13 31  1  0  0  0
 14 15  2  0  0  0
 14 97  1  0  0  0
 15 98  1  0  0  0
 16 17  2  0  0  0
 16 21  1  0  0  0
 16 31  1  0  0  0
 17 18  1  0  0  0
 17 99  1  0  0  0
 18 19  2  0  0  0
 18100  1  0  0  0
 19 20  1  0  0  0
 19 24  1  0  0  0
 20 21  2  0  0  0
 20101  1  0  0  0
 21 23  1  0  0  0
 22 28  1  0  0  0
 22 32  2  0  0  0
 26 27  1  0  0  0
 28102  1  0  0  0
 28103  1  0  0  0
 29104  1  0  0  0
 29105  1  0  0  0
 33 34  1  0  0  0
 33 66  1  0  0  0
 33 70  2  0  0  0
 34 36  1  0  0  0
 34 59  1  0  0  0
 34106  1  0  0  0
 35 44  2  0  0  0
 35 45  1  0  0  0
 35 68  1  0  0  0
 36 56  1  0  0  0
 36107  1  0  0  0
 37 39  1  0  0  0
 37 47  1  0  0  0
 37 66  1  0  0  0
 37108  1  0  0  0
 38 43  2  0  0  0
 38 46  1  0  0  0
 38 47  1  0  0  0
 39 64  1  0  0  0
 39 67  2  0  0  0
 40 52  1  0  0  0
 40 53  2  0  0  0
 40 58  1  0  0  0
 41109  1  0  0  0
 41110  1  0  0  0
 41111  1  0  0  0
 41 48  1  0  0  0
 42 43  1  0  0  0
 42 66  1  0  0  0
 42112  1  0  0  0
 42113  1  0  0  0
 43 44  1  0  0  0
 44114  1  0  0  0
 45 46  2  0  0  0
 45115  1  0  0  0
 46116  1  0  0  0
 47117  1  0  0  0
 47118  1  0  0  0
 48 56  1  0  0  0
 48 65  1  0  0  0
 48119  1  0  0  0
 49 50  1  0  0  0
 49 53  1  0  0  0
 49 64  1  0  0  0
 49120  1  0  0  0
 50 51  1  0  0  0
 50121  1  0  0  0
 50122  1  0  0  0
 51 52  1  0  0  0
 51123  1  0  0  0
 51124  1  0  0  0
 52125  1  0  0  0
 52126  1  0  0  0
 53 54  1  0  0  0
 54 55  2  0  0  0
 54127  1  0  0  0
 55 57  1  0  0  0
 55128  1  0  0  0
 56 69  2  0  0  0
 57 58  2  0  0  0
 57129  1  0  0  0
 58130  1  0  0  0
 59 60  1  0  0  0
 59 61  1  0  0  0
 59 62  1  0  0  0
 60131  1  0  0  0
 60132  1  0  0  0
 60133  1  0  0  0
 61134  1  0  0  0
 61135  1  0  0  0
 61136  1  0  0  0
 62137  1  0  0  0
 62138  1  0  0  0
 62139  1  0  0  0
 63 65  1  0  0  0
 63140  1  0  0  0
 63141  1  0  0  0
 63142  1  0  0  0
 64143  1  0  0  0
 65144  1  0  0  0
 68 72  1  0  0  0
 71 81  2  0  0  0
 71 83  1  0  0  0
 71 78  1  0  0  0
 72 81  1  0  0  0
 72 82  2  0  0  0
 73 74  1  0  0  0
 73 78  1  0  0  0
 73145  1  0  0  0
 73146  1  0  0  0
 74 78  1  0  0  0
 74147  1  0  0  0
 74148  1  0  0  0
 75 76  1  0  0  0
 75 79  1  0  0  0
 75149  1  0  0  0
 75150  1  0  0  0
 76 84  1  0  0  0
 76151  1  0  0  0
 76152  1  0  0  0
 77 79  1  0  0  0
 77 84  1  0  0  0
 77153  1  0  0  0
 77154  1  0  0  0
 78155  1  0  0  0
 79 85  1  0  0  0
 79156  1  0  0  0
 80 83  1  0  0  0
 80 85  1  0  0  0
 80157  1  0  0  0
 80158  1  0  0  0
 82 83  1  0  0  0
 85159  1  0  0  0
 85160  1  0  0  0
M  CHG  1  85   1
M  ISO  4   1 100  68 101  72 101  84 100
M  END
> <chiral flag>
0

> <version>
0

> <s_m_source_file>
/data/baiqing/PycharmProjects/Reinvent-master-3.2/result/LINK_invent/BTK/process_docking_weight1_custom_sum_contain_oxygen_bond_distance_aromatic_linkinvent_7_9_3/rearranged_h_0189.sdf

> <i_m_source_file_index>
36

> <r_mmod_Potential_Energy-OPLS-2005>
264.429595947266

> <r_mmod_Stretch_Energy-OPLS-2005>
164.836822509766

> <r_mmod_Bend_Energy-OPLS-2005>
245.497619628906

> <r_mmod_Torsional_Energy-OPLS-2005>
359.174499511719

> <r_mmod_Improper_Torsional_Energy-OPLS-2005>
12.6985559463501

> <r_mmod_Van_der_Waal_Energy-OPLS-2005>
106.016098022461

> <r_mmod_Electrostatic_Energy-OPLS-2005>
-241.857788085938

> <r_mmod_Solvation_Energy-OPLS-2005>
-505.322448730469

> <b_mmod_Minimization_Converged-OPLS-2005>
0

> <r_mmod_RMS_Derivative-OPLS-2005>
1.90075421333313

$$$$
36
                    3D
 Structure written by MMmdl.
160170  0  0  1  0            999 V2000
  -30.6255  -14.9167   20.4422 C   0  0  0  0  0  0
  -30.4200  -12.5857   19.4915 C   0  0  0  0  0  0
  -29.5093  -12.5092   18.2507 C   0  0  0  0  0  0
  -28.0495  -12.2986   18.6824 C   0  0  0  0  0  0
  -27.6239  -13.2495   19.8318 C   0  0  2  0  0  0
  -28.6675  -13.3242   20.9638 C   0  0  0  0  0  0
  -25.2474  -13.8201   20.5727 C   0  0  0  0  0  0
  -24.1776  -13.0432   20.9205 C   0  0  0  0  0  0
  -24.6390  -11.6915   20.8740 C   0  0  0  0  0  0
  -23.9060  -10.4292   21.0412 C   0  0  0  0  0  0
  -24.3605   -9.4205   21.9192 C   0  0  0  0  0  0
  -23.6288   -8.2230   22.0770 C   0  0  0  0  0  0
  -22.4277   -8.0266   21.3538 C   0  0  0  0  0  0
  -21.9909   -9.0243   20.4632 C   0  0  0  0  0  0
  -22.7234  -10.2126   20.3052 C   0  0  0  0  0  0
  -21.6855   -6.0706   22.5241 C   0  0  0  0  0  0
  -21.4012   -6.5615   23.8160 C   0  0  0  0  0  0
  -21.3668   -5.6791   24.9137 C   0  0  0  0  0  0
  -21.6050   -4.3050   24.7204 C   0  0  0  0  0  0
  -21.8822   -3.8135   23.4322 C   0  0  0  0  0  0
  -21.9204   -4.6939   22.3373 C   0  0  0  0  0  0
  -22.7803  -13.5227   21.1831 C   0  0  0  0  0  0
  -22.1672   -4.2129   21.0943 F   0  0  0  0  0  0
  -21.5630   -3.4541   25.7713 F   0  0  0  0  0  0
  -29.9362  -13.7133   20.3391 N   0  0  0  0  0  0
  -26.2867  -12.9436   20.3253 N   0  0  0  0  0  0
  -25.9327  -11.6556   20.5742 N   0  0  0  0  0  0
  -22.0467  -12.8212   22.0383 N   0  0  0  0  0  0
  -25.4184  -15.1926   20.4199 N   0  0  0  0  0  0
  -31.8415  -14.8692   20.2292 O   0  0  0  0  0  0
  -21.6640   -6.8862   21.4206 O   0  0  0  0  0  0
  -22.3489  -14.5525   20.6688 O   0  0  0  0  0  0
  -24.6440  -31.8437   23.1861 C   0  0  0  0  0  0
  -25.9210  -32.4701   23.8258 C   0  0  1  0  0  0
  -27.2216  -27.1542   20.1809 C   0  0  0  0  0  0
  -25.5964  -33.8511   24.2155 N   0  0  0  0  0  0
  -23.4487  -30.4626   21.5286 C   0  0  2  0  0  0
  -24.9012  -28.8887   20.1136 C   0  0  0  0  0  0
  -22.7540  -29.4556   22.4798 C   0  0  0  0  0  0
  -18.0284  -28.1430   22.8511 C   0  0  0  0  0  0
  -24.1432  -36.7221   23.2647 C   0  0  0  0  0  0
  -26.0037  -30.7248   21.3856 C   0  0  0  0  0  0
  -26.0770  -29.3367   20.7338 C   0  0  0  0  0  0
  -27.2437  -28.4908   20.7412 C   0  0  0  0  0  0
  -26.0263  -26.7950   19.5264 C   0  0  0  0  0  0
  -24.8909  -27.6313   19.4887 C   0  0  0  0  0  0
  -23.6773  -29.7887   20.1505 C   0  0  0  0  0  0
  -25.4077  -36.3012   24.0299 C   0  0  1  0  0  0
  -20.5899  -28.3765   23.1195 C   0  0  2  0  0  0
  -20.6784  -26.9469   22.5375 C   0  0  0  0  0  0
  -19.5731  -26.6392   21.5223 C   0  0  0  0  0  0
  -18.1898  -26.7975   22.1615 C   0  0  0  0  0  0
  -19.1564  -28.8918   23.2840 C   0  0  0  0  0  0
  -18.9478  -30.1509   23.8872 C   0  0  0  0  0  0
  -17.6480  -30.6644   24.0576 C   0  0  0  0  0  0
  -25.9060  -34.9422   23.5018 C   0  0  0  0  0  0
  -16.5370  -29.9137   23.6378 C   0  0  0  0  0  0
  -16.7272  -28.6545   23.0440 C   0  0  0  0  0  0
  -26.4576  -31.6654   25.0733 C   0  0  0  0  0  0
  -25.3741  -31.3826   26.1402 C   0  0  0  0  0  0
  -27.0562  -30.3088   24.6367 C   0  0  0  0  0  0
  -27.5986  -32.4606   25.7535 C   0  0  0  0  0  0
  -27.5542  -37.1703   24.8443 C   0  0  0  0  0  0
  -21.4235  -29.3099   22.3565 N   0  0  0  0  0  0
  -26.4192  -37.3779   23.9493 N   0  0  0  0  0  0
  -24.7185  -31.0324   22.0865 N   0  0  0  0  0  0
  -23.4196  -28.8063   23.2927 O   0  0  0  0  0  0
  -28.2839  -26.1972   20.1984 O   0  0  0  0  0  0
  -26.5626  -34.8924   22.4587 O   0  0  0  0  0  0
  -23.5566  -32.1300   23.7074 O   0  0  0  0  0  0
  -28.4793  -23.3122   18.6874 C   0  0  0  0  0  0
  -28.7190  -22.0860   18.0475 C   0  0  0  0  0  0
  -28.5016  -23.3757   20.0775 C   0  0  0  0  0  0
  -28.9830  -20.9603   20.0447 C   0  0  0  0  0  0
  -27.4598  -21.3978   15.8349 C   0  0  0  0  0  0
  -30.7170  -17.5386   20.1567 C   0  0  0  0  0  0
  -28.8711  -17.0037   20.9134 C   0  0  0  0  0  0
  -28.4845  -20.6211   15.0127 C   0  0  0  0  0  0
  -28.6568  -22.0369   16.5334 C   0  0  2  0  0  0
  -29.3485  -18.3214   20.1326 C   0  0  0  0  0  0
  -28.0865  -24.7870   20.8002 C   0  0  0  0  0  0
  -28.9810  -20.9239   18.7104 N   0  0  0  0  0  0
  -28.7572  -22.1479   20.7341 N   0  0  0  0  0  0
  -30.0253  -16.2100   20.3553 N   0  0  0  0  0  0
  -29.4810  -20.9639   16.0239 N   0  3  0  0  0  0
  -29.2166  -19.7366   20.7409 O   0  0  0  0  0  0
  -31.4540  -12.7188   19.1703 H   0  0  0  0  0  0
  -30.3991  -11.6465   20.0481 H   0  0  0  0  0  0
  -29.8303  -11.6970   17.5956 H   0  0  0  0  0  0
  -29.5956  -13.4260   17.6663 H   0  0  0  0  0  0
  -27.9631  -11.2639   19.0133 H   0  0  0  0  0  0
  -27.3808  -12.4048   17.8286 H   0  0  0  0  0  0
  -27.5769  -14.2410   19.3824 H   0  0  0  0  0  0
  -28.7591  -12.3735   21.4913 H   0  0  0  0  0  0
  -28.3706  -14.0652   21.7059 H   0  0  0  0  0  0
  -25.2736   -9.5662   22.4772 H   0  0  0  0  0  0
  -23.9973   -7.4627   22.7503 H   0  0  0  0  0  0
  -21.0834   -8.8750   19.8941 H   0  0  0  0  0  0
  -22.3700  -10.9647   19.6161 H   0  0  0  0  0  0
  -21.2007   -7.6113   23.9646 H   0  0  0  0  0  0
  -21.1485   -6.0524   25.9033 H   0  0  0  0  0  0
  -22.0610   -2.7605   23.2826 H   0  0  0  0  0  0
  -22.4130  -11.9912   22.4795 H   0  0  0  0  0  0
  -21.1061  -13.1190   22.2572 H   0  0  0  0  0  0
  -24.6610  -15.8549   20.5425 H   0  0  0  0  0  0
  -26.2751  -15.6192   20.0965 H   0  0  0  0  0  0
  -26.7264  -32.5326   23.0986 H   0  0  0  0  0  0
  -25.0304  -33.9648   25.0440 H   0  0  0  0  0  0
  -22.7571  -31.2904   21.3650 H   0  0  0  0  0  0
  -23.3764  -35.9468   23.3180 H   0  0  0  0  0  0
  -24.3527  -36.9030   22.2092 H   0  0  0  0  0  0
  -23.7107  -37.6326   23.6808 H   0  0  0  0  0  0
  -26.1629  -31.4749   20.6112 H   0  0  0  0  0  0
  -26.8730  -30.7750   22.0272 H   0  0  0  0  0  0
  -28.1451  -28.8402   21.2246 H   0  0  0  0  0  0
  -25.9646  -25.8280   19.0480 H   0  0  0  0  0  0
  -23.9984  -27.2896   18.9852 H   0  0  0  0  0  0
  -23.8148  -30.5627   19.3959 H   0  0  0  0  0  0
  -22.7983  -29.2235   19.8382 H   0  0  0  0  0  0
  -25.1252  -36.1772   25.0780 H   0  0  0  0  0  0
  -21.0006  -28.3376   24.1309 H   0  0  0  0  0  0
  -20.5761  -26.2374   23.3611 H   0  0  0  0  0  0
  -21.6622  -26.7489   22.1114 H   0  0  0  0  0  0
  -19.6900  -25.6283   21.1332 H   0  0  0  0  0  0
  -19.6704  -27.3140   20.6715 H   0  0  0  0  0  0
  -17.4192  -26.6794   21.3986 H   0  0  0  0  0  0
  -18.0230  -26.0087   22.8969 H   0  0  0  0  0  0
  -19.7971  -30.7341   24.2216 H   0  0  0  0  0  0
  -17.5068  -31.6338   24.5168 H   0  0  0  0  0  0
  -15.5399  -30.3082   23.7737 H   0  0  0  0  0  0
  -15.8630  -28.0875   22.7232 H   0  0  0  0  0  0
  -24.5810  -30.7349   25.7666 H   0  0  0  0  0  0
  -24.9070  -32.3033   26.4913 H   0  0  0  0  0  0
  -25.7984  -30.8879   27.0149 H   0  0  0  0  0  0
  -26.3265  -29.6733   24.1339 H   0  0  0  0  0  0
  -27.4211  -29.7477   25.4996 H   0  0  0  0  0  0
  -27.9111  -30.4413   23.9712 H   0  0  0  0  0  0
  -27.2400  -33.3906   26.1979 H   0  0  0  0  0  0
  -28.3803  -32.7285   25.0405 H   0  0  0  0  0  0
  -28.0655  -31.8926   26.5593 H   0  0  0  0  0  0
  -28.2390  -38.0150   24.7762 H   0  0  0  0  0  0
  -28.1208  -36.2735   24.5950 H   0  0  0  0  0  0
  -27.2304  -37.0940   25.8827 H   0  0  0  0  0  0
  -20.9435  -29.8909   21.6827 H   0  0  0  0  0  0
  -26.0017  -38.2765   24.1783 H   0  0  0  0  0  0
  -28.2403  -24.2034   18.1189 H   0  0  0  0  0  0
  -26.8637  -20.7729   16.5032 H   0  0  0  0  0  0
  -26.8395  -22.0949   15.2722 H   0  0  0  0  0  0
  -31.3589  -17.8209   20.9975 H   0  0  0  0  0  0
  -31.2806  -17.6222   19.2230 H   0  0  0  0  0  0
  -27.8855  -16.6511   20.5974 H   0  0  0  0  0  0
  -28.8946  -17.1123   22.0020 H   0  0  0  0  0  0
  -28.7016  -21.0715   14.0435 H   0  0  0  0  0  0
  -28.2902  -19.5513   14.9280 H   0  0  0  0  0  0
  -28.9398  -22.9866   16.0777 H   0  0  0  0  0  0
  -28.9355  -18.3029   19.1216 H   0  0  0  0  0  0
  -28.6209  -24.8033   21.7519 H   0  0  0  0  0  0
  -27.0417  -24.6802   21.0875 H   0  0  0  0  0  0
  -30.3773  -21.2800   15.6940 H   0  0  0  0  0  0
  -29.5532  -20.3189   16.7956 H   0  0  0  0  0  0
  1 25  1  0  0  0
  1 30  2  0  0  0
  1 84  1  0  0  0
  2  3  1  0  0  0
  2 25  1  0  0  0
  2 87  1  0  0  0
  2 88  1  0  0  0
  3  4  1  0  0  0
  3 89  1  0  0  0
  3 90  1  0  0  0
  4  5  1  0  0  0
  4 91  1  0  0  0
  4 92  1  0  0  0
  5  6  1  0  0  0
  5 26  1  0  0  0
  5 93  1  0  0  0
  6 25  1  0  0  0
  6 94  1  0  0  0
  6 95  1  0  0  0
  7  8  2  0  0  0
  7 26  1  0  0  0
  7 29  1  0  0  0
  8  9  1  0  0  0
  8 22  1  0  0  0
  9 10  1  0  0  0
  9 27  2  0  0  0
 10 11  2  0  0  0
 10 15  1  0  0  0
 11 12  1  0  0  0
 11 96  1  0  0  0
 12 13  2  0  0  0
 12 97  1  0  0  0
 13 14  1  0  0  0
 13 31  1  0  0  0
 14 15  2  0  0  0
 14 98  1  0  0  0
 15 99  1  0  0  0
 16 17  2  0  0  0
 16 21  1  0  0  0
 16 31  1  0  0  0
 17 18  1  0  0  0
 17100  1  0  0  0
 18 19  2  0  0  0
 18101  1  0  0  0
 19 20  1  0  0  0
 19 24  1  0  0  0
 20 21  2  0  0  0
 20102  1  0  0  0
 21 23  1  0  0  0
 22 28  1  0  0  0
 22 32  2  0  0  0
 26 27  1  0  0  0
 28103  1  0  0  0
 28104  1  0  0  0
 29105  1  0  0  0
 29106  1  0  0  0
 33 34  1  0  0  0
 33 66  1  0  0  0
 33 70  2  0  0  0
 34 36  1  0  0  0
 34 59  1  0  0  0
 34107  1  0  0  0
 35 44  2  0  0  0
 35 45  1  0  0  0
 35 68  1  0  0  0
 36 56  1  0  0  0
 36108  1  0  0  0
 37 39  1  0  0  0
 37 47  1  0  0  0
 37 66  1  0  0  0
 37109  1  0  0  0
 38 43  2  0  0  0
 38 46  1  0  0  0
 38 47  1  0  0  0
 39 64  1  0  0  0
 39 67  2  0  0  0
 40 52  1  0  0  0
 40 53  2  0  0  0
 40 58  1  0  0  0
 41110  1  0  0  0
 41111  1  0  0  0
 41112  1  0  0  0
 41 48  1  0  0  0
 42 43  1  0  0  0
 42 66  1  0  0  0
 42113  1  0  0  0
 42114  1  0  0  0
 43 44  1  0  0  0
 44115  1  0  0  0
 45 46  2  0  0  0
 45116  1  0  0  0
 46117  1  0  0  0
 47118  1  0  0  0
 47119  1  0  0  0
 48 56  1  0  0  0
 48 65  1  0  0  0
 48120  1  0  0  0
 49 50  1  0  0  0
 49 53  1  0  0  0
 49 64  1  0  0  0
 49121  1  0  0  0
 50 51  1  0  0  0
 50122  1  0  0  0
 50123  1  0  0  0
 51 52  1  0  0  0
 51124  1  0  0  0
 51125  1  0  0  0
 52126  1  0  0  0
 52127  1  0  0  0
 53 54  1  0  0  0
 54 55  2  0  0  0
 54128  1  0  0  0
 55 57  1  0  0  0
 55129  1  0  0  0
 56 69  2  0  0  0
 57 58  2  0  0  0
 57130  1  0  0  0
 58131  1  0  0  0
 59 60  1  0  0  0
 59 61  1  0  0  0
 59 62  1  0  0  0
 60132  1  0  0  0
 60133  1  0  0  0
 60134  1  0  0  0
 61135  1  0  0  0
 61136  1  0  0  0
 61137  1  0  0  0
 62138  1  0  0  0
 62139  1  0  0  0
 62140  1  0  0  0
 63 65  1  0  0  0
 63141  1  0  0  0
 63142  1  0  0  0
 63143  1  0  0  0
 64144  1  0  0  0
 65145  1  0  0  0
 68 81  1  0  0  0
 71 72  2  0  0  0
 71 73  1  0  0  0
 71146  1  0  0  0
 72 82  1  0  0  0
 72 79  1  0  0  0
 73 81  1  0  0  0
 73 83  2  0  0  0
 74 82  2  0  0  0
 74 83  1  0  0  0
 74 86  1  0  0  0
 75 78  1  0  0  0
 75 79  1  0  0  0
 75147  1  0  0  0
 75148  1  0  0  0
 76 80  1  0  0  0
 76 84  1  0  0  0
 76149  1  0  0  0
 76150  1  0  0  0
 77 80  1  0  0  0
 77 84  1  0  0  0
 77151  1  0  0  0
 77152  1  0  0  0
 78 85  1  0  0  0
 78153  1  0  0  0
 78154  1  0  0  0
 79 85  1  0  0  0
 79155  1  0  0  0
 80 86  1  0  0  0
 80156  1  0  0  0
 81157  1  0  0  0
 81158  1  0  0  0
 85159  1  0  0  0
 85160  1  0  0  0
M  CHG  1  85   1
M  ISO  4   1 100  68 101  81 101  84 100
M  END
> <chiral flag>
0

> <version>
0

> <s_m_source_file>
/data/baiqing/PycharmProjects/Reinvent-master-3.2/result/LINK_invent/BTK/process_docking_weight1_custom_sum_contain_oxygen_bond_distance_aromatic_linkinvent_7_9_3/rearranged_h_0189.sdf

> <i_m_source_file_index>
37

> <r_mmod_Potential_Energy-OPLS-2005>
-281.606903076172

> <r_mmod_Stretch_Energy-OPLS-2005>
202.629089355469

> <r_mmod_Bend_Energy-OPLS-2005>
289.387725830078

> <r_mmod_Torsional_Energy-OPLS-2005>
303.398864746094

> <r_mmod_Improper_Torsional_Energy-OPLS-2005>
15.1225271224976

> <r_mmod_Van_der_Waal_Energy-OPLS-2005>
135.996688842773

> <r_mmod_Electrostatic_Energy-OPLS-2005>
-894.062438964844

> <r_mmod_Solvation_Energy-OPLS-2005>
-512.184265136719

> <b_mmod_Minimization_Converged-OPLS-2005>
0

> <r_mmod_RMS_Derivative-OPLS-2005>
5.03104591369629

$$$$
37
                    3D
 Structure written by MMmdl.
156164  0  0  1  0            999 V2000
  -30.5271  -15.0178   20.4425 C   0  0  0  0  0  0
  -30.4557  -12.6380   19.5089 C   0  0  0  0  0  0
  -29.5347  -12.5459   18.2663 C   0  0  0  0  0  0
  -28.0612  -12.3326   18.6753 C   0  0  0  0  0  0
  -27.6360  -13.2351   19.8613 C   0  0  2  0  0  0
  -28.6973  -13.2070   20.9913 C   0  0  0  0  0  0
  -25.2333  -13.7975   20.5675 C   0  0  0  0  0  0
  -24.1703  -13.0248   20.9237 C   0  0  0  0  0  0
  -24.6392  -11.6774   20.8796 C   0  0  0  0  0  0
  -23.9098  -10.4183   21.0447 C   0  0  0  0  0  0
  -24.3636   -9.4102   21.9220 C   0  0  0  0  0  0
  -23.6295   -8.2156   22.0763 C   0  0  0  0  0  0
  -22.4269   -8.0223   21.3549 C   0  0  0  0  0  0
  -21.9926   -9.0200   20.4658 C   0  0  0  0  0  0
  -22.7275  -10.2061   20.3075 C   0  0  0  0  0  0
  -21.6830   -6.0701   22.5272 C   0  0  0  0  0  0
  -21.4004   -6.5621   23.8212 C   0  0  0  0  0  0
  -21.3677   -5.6774   24.9180 C   0  0  0  0  0  0
  -21.6068   -4.3040   24.7225 C   0  0  0  0  0  0
  -21.8832   -3.8125   23.4341 C   0  0  0  0  0  0
  -21.9188   -4.6942   22.3398 C   0  0  0  0  0  0
  -22.7719  -13.5045   21.1893 C   0  0  0  0  0  0
  -22.1648   -4.2141   21.0962 F   0  0  0  0  0  0
  -21.5646   -3.4517   25.7737 F   0  0  0  0  0  0
  -29.9409  -13.7322   20.3958 N   0  0  0  0  0  0
  -26.2894  -12.9308   20.3367 N   0  0  0  0  0  0
  -25.9345  -11.6449   20.5818 N   0  0  0  0  0  0
  -22.0397  -12.8075   22.0477 N   0  0  0  0  0  0
  -25.3657  -15.1627   20.3935 N   0  0  0  0  0  0
  -31.7206  -15.0519   20.1072 O   0  0  0  0  0  0
  -21.6620   -6.8832   21.4235 O   0  0  0  0  0  0
  -22.3399  -14.5368   20.6739 O   0  0  0  0  0  0
  -24.6426  -31.8444   23.1870 C   0  0  0  0  0  0
  -25.9198  -32.4705   23.8267 C   0  0  1  0  0  0
  -27.2517  -27.1565   20.1543 C   0  0  0  0  0  0
  -25.5949  -33.8505   24.2178 N   0  0  0  0  0  0
  -23.4476  -30.4604   21.5323 C   0  0  2  0  0  0
  -24.9033  -28.8808   20.1200 C   0  0  0  0  0  0
  -22.7564  -29.4554   22.4864 C   0  0  0  0  0  0
  -18.0309  -28.1394   22.8480 C   0  0  0  0  0  0
  -24.1490  -36.7258   23.2645 C   0  0  0  0  0  0
  -26.0012  -30.7258   21.3816 C   0  0  0  0  0  0
  -26.0794  -29.3352   20.7301 C   0  0  0  0  0  0
  -27.2528  -28.4913   20.7253 C   0  0  0  0  0  0
  -26.0448  -26.7965   19.5108 C   0  0  0  0  0  0
  -24.8971  -27.6232   19.4973 C   0  0  0  0  0  0
  -23.6766  -29.7798   20.1559 C   0  0  0  0  0  0
  -25.4124  -36.3041   24.0314 C   0  0  1  0  0  0
  -20.5917  -28.3739   23.1231 C   0  0  2  0  0  0
  -20.6793  -26.9434   22.5406 C   0  0  0  0  0  0
  -19.5773  -26.6369   21.5214 C   0  0  0  0  0  0
  -18.1951  -26.7942   22.1609 C   0  0  0  0  0  0
  -19.1562  -28.8879   23.2856 C   0  0  0  0  0  0
  -18.9480  -30.1475   23.8884 C   0  0  0  0  0  0
  -17.6471  -30.6598   24.0573 C   0  0  0  0  0  0
  -25.9066  -34.9414   23.5059 C   0  0  0  0  0  0
  -16.5362  -29.9085   23.6346 C   0  0  0  0  0  0
  -16.7289  -28.6501   23.0367 C   0  0  0  0  0  0
  -26.4524  -31.6582   25.0708 C   0  0  0  0  0  0
  -25.3711  -31.3756   26.1404 C   0  0  0  0  0  0
  -27.0398  -30.2996   24.6262 C   0  0  0  0  0  0
  -27.6062  -32.4343   25.7490 C   0  0  0  0  0  0
  -27.5568  -37.1783   24.8467 C   0  0  0  0  0  0
  -21.4244  -29.3075   22.3607 N   0  0  0  0  0  0
  -26.4283  -37.3749   23.9401 N   0  0  0  0  0  0
  -24.7171  -31.0298   22.0909 N   0  0  0  0  0  0
  -23.4200  -28.8099   23.3010 O   0  0  0  0  0  0
  -28.3514  -26.2207   20.1677 O   0  0  0  0  0  0
  -26.5646  -34.8917   22.4631 O   0  0  0  0  0  0
  -23.5539  -32.1295   23.7105 O   0  0  0  0  0  0
  -27.6804  -17.4863   20.3705 C   0  0  0  0  0  0
  -28.6010  -17.7988   19.2047 C   0  0  0  0  0  0
  -28.4528  -16.4212   21.1837 C   0  0  0  0  0  0
  -29.9554  -17.7047   19.8976 C   0  0  1  0  0  0
  -30.0634  -19.2006   20.6911 C   0  0  0  0  0  0
  -29.9429  -20.7305   19.9580 C   0  0  0  0  0  0
  -29.2456  -23.4489   20.0005 C   0  0  0  0  0  0
  -28.1891  -24.6931   20.4395 C   0  0  0  0  0  0
  -29.7941  -16.2686   20.5772 N   0  0  0  0  0  0
  -29.1272  -21.9576   20.5512 N   0  3  0  0  0  0
  -31.4883  -12.8089   19.1976 H   0  0  0  0  0  0
  -30.4823  -11.6852   20.0375 H   0  0  0  0  0  0
  -29.8633  -11.7357   17.6143 H   0  0  0  0  0  0
  -29.6313  -13.4637   17.6838 H   0  0  0  0  0  0
  -27.9447  -11.2837   18.9538 H   0  0  0  0  0  0
  -27.4038  -12.4983   17.8198 H   0  0  0  0  0  0
  -27.6020  -14.2422   19.4493 H   0  0  0  0  0  0
  -28.8222  -12.1837   21.3467 H   0  0  0  0  0  0
  -28.4115  -13.7462   21.8926 H   0  0  0  0  0  0
  -25.2761   -9.5573   22.4820 H   0  0  0  0  0  0
  -24.0002   -7.4533   22.7452 H   0  0  0  0  0  0
  -21.0875   -8.8733   19.8941 H   0  0  0  0  0  0
  -22.3758  -10.9619   19.6199 H   0  0  0  0  0  0
  -21.1985   -7.6125   23.9707 H   0  0  0  0  0  0
  -21.1498   -6.0504   25.9090 H   0  0  0  0  0  0
  -22.0607   -2.7592   23.2841 H   0  0  0  0  0  0
  -22.3985  -11.9706   22.4852 H   0  0  0  0  0  0
  -21.1025  -13.1115   22.2688 H   0  0  0  0  0  0
  -24.5794  -15.7955   20.4929 H   0  0  0  0  0  0
  -26.2006  -15.6069   20.0382 H   0  0  0  0  0  0
  -26.7270  -32.5333   23.1006 H   0  0  0  0  0  0
  -25.0129  -33.9627   25.0349 H   0  0  0  0  0  0
  -22.7535  -31.2877   21.3726 H   0  0  0  0  0  0
  -23.3756  -35.9586   23.3306 H   0  0  0  0  0  0
  -24.3571  -36.8883   22.2058 H   0  0  0  0  0  0
  -23.7231  -37.6450   23.6676 H   0  0  0  0  0  0
  -26.1451  -31.4756   20.6037 H   0  0  0  0  0  0
  -26.8746  -30.7855   22.0187 H   0  0  0  0  0  0
  -28.1532  -28.8444   21.2073 H   0  0  0  0  0  0
  -25.9705  -25.8450   19.0067 H   0  0  0  0  0  0
  -24.0005  -27.2698   19.0068 H   0  0  0  0  0  0
  -23.8134  -30.5494   19.3960 H   0  0  0  0  0  0
  -22.7927  -29.2188   19.8483 H   0  0  0  0  0  0
  -25.1309  -36.1876   25.0801 H   0  0  0  0  0  0
  -21.0016  -28.3332   24.1350 H   0  0  0  0  0  0
  -20.5679  -26.2351   23.3632 H   0  0  0  0  0  0
  -21.6662  -26.7442   22.1206 H   0  0  0  0  0  0
  -19.6927  -25.6262   21.1285 H   0  0  0  0  0  0
  -19.6714  -27.3151   20.6726 H   0  0  0  0  0  0
  -17.4222  -26.6714   21.4003 H   0  0  0  0  0  0
  -18.0333  -26.0078   22.8995 H   0  0  0  0  0  0
  -19.7956  -30.7308   24.2229 H   0  0  0  0  0  0
  -17.5028  -31.6280   24.5185 H   0  0  0  0  0  0
  -15.5368  -30.2987   23.7678 H   0  0  0  0  0  0
  -15.8691  -28.0821   22.7088 H   0  0  0  0  0  0
  -24.5910  -30.7085   25.7708 H   0  0  0  0  0  0
  -24.8883  -32.2936   26.4769 H   0  0  0  0  0  0
  -25.7993  -30.8965   27.0220 H   0  0  0  0  0  0
  -26.3010  -29.6717   24.1271 H   0  0  0  0  0  0
  -27.4043  -29.7295   25.4815 H   0  0  0  0  0  0
  -27.8900  -30.4258   23.9555 H   0  0  0  0  0  0
  -27.2671  -33.3675   26.1999 H   0  0  0  0  0  0
  -28.3910  -32.6842   25.0338 H   0  0  0  0  0  0
  -28.0698  -31.8513   26.5459 H   0  0  0  0  0  0
  -28.2589  -38.0078   24.7506 H   0  0  0  0  0  0
  -28.1053  -36.2600   24.6307 H   0  0  0  0  0  0
  -27.2283  -37.1461   25.8872 H   0  0  0  0  0  0
  -20.9439  -29.8820   21.6823 H   0  0  0  0  0  0
  -26.0159  -38.2813   24.1413 H   0  0  0  0  0  0
  -26.7026  -17.1914   20.0034 H   0  0  0  0  0  0
  -27.4925  -18.3649   20.9917 H   0  0  0  0  0  0
  -28.3803  -18.7599   18.7406 H   0  0  0  0  0  0
  -28.4993  -17.0394   18.4271 H   0  0  0  0  0  0
  -27.8389  -15.5417   21.2043 H   0  0  0  0  0  0
  -28.5653  -16.7336   22.2230 H   0  0  0  0  0  0
  -30.7455  -17.6494   19.1440 H   0  0  0  0  0  0
  -29.3993  -19.2100   21.5533 H   0  0  0  0  0  0
  -31.0442  -19.1898   21.1672 H   0  0  0  0  0  0
  -29.6359  -20.6077   18.9183 H   0  0  0  0  0  0
  -30.9700  -21.0940   19.8668 H   0  0  0  0  0  0
  -30.2566  -23.7828   20.2450 H   0  0  0  0  0  0
  -29.2272  -23.3840   18.9099 H   0  0  0  0  0  0
  -28.1042  -24.6383   21.5266 H   0  0  0  0  0  0
  -27.2049  -24.3871   20.0853 H   0  0  0  0  0  0
  -29.3358  -21.9962   21.5386 H   0  0  0  0  0  0
  -28.1542  -21.6941   20.4881 H   0  0  0  0  0  0
  1 25  1  0  0  0
  1 30  2  0  0  0
  1 79  1  0  0  0
  2  3  1  0  0  0
  2 25  1  0  0  0
  2 81  1  0  0  0
  2 82  1  0  0  0
  3  4  1  0  0  0
  3 83  1  0  0  0
  3 84  1  0  0  0
  4  5  1  0  0  0
  4 85  1  0  0  0
  4 86  1  0  0  0
  5  6  1  0  0  0
  5 26  1  0  0  0
  5 87  1  0  0  0
  6 25  1  0  0  0
  6 88  1  0  0  0
  6 89  1  0  0  0
  7  8  2  0  0  0
  7 26  1  0  0  0
  7 29  1  0  0  0
  8  9  1  0  0  0
  8 22  1  0  0  0
  9 10  1  0  0  0
  9 27  2  0  0  0
 10 11  2  0  0  0
 10 15  1  0  0  0
 11 12  1  0  0  0
 11 90  1  0  0  0
 12 13  2  0  0  0
 12 91  1  0  0  0
 13 14  1  0  0  0
 13 31  1  0  0  0
 14 15  2  0  0  0
 14 92  1  0  0  0
 15 93  1  0  0  0
 16 17  2  0  0  0
 16 21  1  0  0  0
 16 31  1  0  0  0
 17 18  1  0  0  0
 17 94  1  0  0  0
 18 19  2  0  0  0
 18 95  1  0  0  0
 19 20  1  0  0  0
 19 24  1  0  0  0
 20 21  2  0  0  0
 20 96  1  0  0  0
 21 23  1  0  0  0
 22 28  1  0  0  0
 22 32  2  0  0  0
 26 27  1  0  0  0
 28 97  1  0  0  0
 28 98  1  0  0  0
 29 99  1  0  0  0
 29100  1  0  0  0
 33 34  1  0  0  0
 33 66  1  0  0  0
 33 70  2  0  0  0
 34 36  1  0  0  0
 34 59  1  0  0  0
 34101  1  0  0  0
 35 44  2  0  0  0
 35 45  1  0  0  0
 35 68  1  0  0  0
 36 56  1  0  0  0
 36102  1  0  0  0
 37 39  1  0  0  0
 37 47  1  0  0  0
 37 66  1  0  0  0
 37103  1  0  0  0
 38 43  2  0  0  0
 38 46  1  0  0  0
 38 47  1  0  0  0
 39 64  1  0  0  0
 39 67  2  0  0  0
 40 52  1  0  0  0
 40 53  2  0  0  0
 40 58  1  0  0  0
 41104  1  0  0  0
 41105  1  0  0  0
 41106  1  0  0  0
 41 48  1  0  0  0
 42 43  1  0  0  0
 42 66  1  0  0  0
 42107  1  0  0  0
 42108  1  0  0  0
 43 44  1  0  0  0
 44109  1  0  0  0
 45 46  2  0  0  0
 45110  1  0  0  0
 46111  1  0  0  0
 47112  1  0  0  0
 47113  1  0  0  0
 48 56  1  0  0  0
 48 65  1  0  0  0
 48114  1  0  0  0
 49 50  1  0  0  0
 49 53  1  0  0  0
 49 64  1  0  0  0
 49115  1  0  0  0
 50 51  1  0  0  0
 50116  1  0  0  0
 50117  1  0  0  0
 51 52  1  0  0  0
 51118  1  0  0  0
 51119  1  0  0  0
 52120  1  0  0  0
 52121  1  0  0  0
 53 54  1  0  0  0
 54 55  2  0  0  0
 54122  1  0  0  0
 55 57  1  0  0  0
 55123  1  0  0  0
 56 69  2  0  0  0
 57 58  2  0  0  0
 57124  1  0  0  0
 58125  1  0  0  0
 59 60  1  0  0  0
 59 61  1  0  0  0
 59 62  1  0  0  0
 60126  1  0  0  0
 60127  1  0  0  0
 60128  1  0  0  0
 61129  1  0  0  0
 61130  1  0  0  0
 61131  1  0  0  0
 62132  1  0  0  0
 62133  1  0  0  0
 62134  1  0  0  0
 63 65  1  0  0  0
 63135  1  0  0  0
 63136  1  0  0  0
 63137  1  0  0  0
 64138  1  0  0  0
 65139  1  0  0  0
 68 78  1  0  0  0
 71 72  1  0  0  0
 71 73  1  0  0  0
 71140  1  0  0  0
 71141  1  0  0  0
 72 74  1  0  0  0
 72142  1  0  0  0
 72143  1  0  0  0
 73 79  1  0  0  0
 73144  1  0  0  0
 73145  1  0  0  0
 74 75  1  0  0  0
 74 79  1  0  0  0
 74146  1  0  0  0
 75 76  1  0  0  0
 75147  1  0  0  0
 75148  1  0  0  0
 76 80  1  0  0  0
 76149  1  0  0  0
 76150  1  0  0  0
 77 78  1  0  0  0
 77 80  1  0  0  0
 77151  1  0  0  0
 77152  1  0  0  0
 78153  1  0  0  0
 78154  1  0  0  0
 80155  1  0  0  0
 80156  1  0  0  0
M  CHG  1  80   1
M  ISO  4   1 100  68 101  78 101  79 100
M  END
> <chiral flag>
0

> <version>
0

> <s_m_source_file>
/data/baiqing/PycharmProjects/Reinvent-master-3.2/result/LINK_invent/BTK/process_docking_weight1_custom_sum_contain_oxygen_bond_distance_aromatic_linkinvent_7_9_3/rearranged_h_0189.sdf

> <i_m_source_file_index>
38

> <r_mmod_Potential_Energy-OPLS-2005>
731.679748535156

> <r_mmod_Stretch_Energy-OPLS-2005>
300.902801513672

> <r_mmod_Bend_Energy-OPLS-2005>
338.507415771484

> <r_mmod_Torsional_Energy-OPLS-2005>
352.744903564453

> <r_mmod_Improper_Torsional_Energy-OPLS-2005>
7.06046676635742

> <r_mmod_Van_der_Waal_Energy-OPLS-2005>
130.32666015625

> <r_mmod_Electrostatic_Energy-OPLS-2005>
-140.350540161133

> <r_mmod_Solvation_Energy-OPLS-2005>
-451.455718994141

> <b_mmod_Minimization_Converged-OPLS-2005>
0

> <r_mmod_RMS_Derivative-OPLS-2005>
3.7897412776947

$$$$
38
                    3D
 Structure written by MMmdl.
148156  0  0  1  0            999 V2000
  -30.5176  -15.0669   20.4033 C   0  0  0  0  0  0
  -30.4397  -12.6701   19.5135 C   0  0  0  0  0  0
  -29.5319  -12.5561   18.2679 C   0  0  0  0  0  0
  -28.0653  -12.3291   18.6782 C   0  0  0  0  0  0
  -27.6249  -13.2657   19.8354 C   0  0  2  0  0  0
  -28.6653  -13.3483   20.9717 C   0  0  0  0  0  0
  -25.2465  -13.8260   20.5773 C   0  0  0  0  0  0
  -24.1783  -13.0460   20.9249 C   0  0  0  0  0  0
  -24.6414  -11.6948   20.8738 C   0  0  0  0  0  0
  -23.9098  -10.4307   21.0384 C   0  0  0  0  0  0
  -24.3640   -9.4230   21.9166 C   0  0  0  0  0  0
  -23.6314   -8.2266   22.0740 C   0  0  0  0  0  0
  -22.4295   -8.0294   21.3541 C   0  0  0  0  0  0
  -21.9938   -9.0266   20.4639 C   0  0  0  0  0  0
  -22.7268  -10.2148   20.3040 C   0  0  0  0  0  0
  -21.6857   -6.0744   22.5275 C   0  0  0  0  0  0
  -21.4018   -6.5642   23.8211 C   0  0  0  0  0  0
  -21.3672   -5.6792   24.9172 C   0  0  0  0  0  0
  -21.6052   -4.3053   24.7216 C   0  0  0  0  0  0
  -21.8822   -3.8147   23.4333 C   0  0  0  0  0  0
  -21.9200   -4.6970   22.3394 C   0  0  0  0  0  0
  -22.7796  -13.5217   21.1887 C   0  0  0  0  0  0
  -22.1658   -4.2152   21.0970 F   0  0  0  0  0  0
  -21.5634   -3.4536   25.7725 F   0  0  0  0  0  0
  -29.9229  -13.7941   20.3584 N   0  0  0  0  0  0
  -26.2884  -12.9509   20.3262 N   0  0  0  0  0  0
  -25.9356  -11.6622   20.5707 N   0  0  0  0  0  0
  -22.0433  -12.8201   22.0424 N   0  0  0  0  0  0
  -25.4194  -15.1997   20.4295 N   0  0  0  0  0  0
  -31.7295  -15.0908   20.1590 O   0  0  0  0  0  0
  -21.6653   -6.8895   21.4240 O   0  0  0  0  0  0
  -22.3483  -14.5521   20.6727 O   0  0  0  0  0  0
  -24.6528  -31.8355   23.1808 C   0  0  0  0  0  0
  -25.9252  -32.4650   23.8232 C   0  0  1  0  0  0
  -27.2200  -27.0531   20.1656 C   0  0  0  0  0  0
  -25.5974  -33.8465   24.2137 N   0  0  0  0  0  0
  -23.4604  -30.4510   21.5275 C   0  0  2  0  0  0
  -24.9110  -28.8601   20.1104 C   0  0  0  0  0  0
  -22.7616  -29.4508   22.4837 C   0  0  0  0  0  0
  -18.0312  -28.1396   22.8470 C   0  0  0  0  0  0
  -24.1498  -36.7249   23.2640 C   0  0  0  0  0  0
  -26.0223  -30.6825   21.3907 C   0  0  0  0  0  0
  -26.0912  -29.2856   20.7319 C   0  0  0  0  0  0
  -27.2461  -28.4016   20.7352 C   0  0  0  0  0  0
  -26.0095  -26.7454   19.5077 C   0  0  0  0  0  0
  -24.8862  -27.6054   19.4806 C   0  0  0  0  0  0
  -23.6904  -29.7725   20.1505 C   0  0  0  0  0  0
  -25.4132  -36.3007   24.0301 C   0  0  1  0  0  0
  -20.5927  -28.3738   23.1213 C   0  0  2  0  0  0
  -20.6794  -26.9435   22.5407 C   0  0  0  0  0  0
  -19.5771  -26.6375   21.5217 C   0  0  0  0  0  0
  -18.1951  -26.7932   22.1627 C   0  0  0  0  0  0
  -19.1567  -28.8890   23.2819 C   0  0  0  0  0  0
  -18.9484  -30.1488   23.8846 C   0  0  0  0  0  0
  -17.6471  -30.6577   24.0566 C   0  0  0  0  0  0
  -25.9087  -34.9384   23.5021 C   0  0  0  0  0  0
  -16.5360  -29.9072   23.6347 C   0  0  0  0  0  0
  -16.7298  -28.6500   23.0358 C   0  0  0  0  0  0
  -26.4521  -31.6561   25.0729 C   0  0  0  0  0  0
  -25.3668  -31.3804   26.1401 C   0  0  0  0  0  0
  -27.0394  -30.2936   24.6405 C   0  0  0  0  0  0
  -27.6016  -32.4373   25.7526 C   0  0  0  0  0  0
  -27.5572  -37.1790   24.8452 C   0  0  0  0  0  0
  -21.4301  -29.3048   22.3584 N   0  0  0  0  0  0
  -26.4288  -37.3736   23.9394 N   0  0  0  0  0  0
  -24.7320  -31.0134   22.0876 N   0  0  0  0  0  0
  -23.4219  -28.8063   23.3023 O   0  0  0  0  0  0
  -28.2542  -26.0208   20.2403 O   0  0  0  0  0  0
  -26.5685  -34.8891   22.4608 O   0  0  0  0  0  0
  -23.5621  -32.1267   23.6974 O   0  0  0  0  0  0
  -29.7442  -17.4412   19.4449 C   0  0  0  0  0  0
  -30.0193  -17.5047   21.4016 C   0  0  0  0  0  0
  -29.2387  -18.5572   20.4760 C   0  0  0  0  0  0
  -28.9938  -23.0684   20.3742 C   0  0  0  0  0  0
  -27.9852  -24.4533   20.0862 C   0  0  0  0  0  0
  -28.6412  -21.3708   20.2225 C   0  0  0  0  0  0
  -29.7637  -16.3067   20.4797 N   0  0  0  0  0  0
  -29.5825  -20.1108   20.4371 O   0  0  0  0  0  0
  -31.4706  -12.8388   19.2010 H   0  0  0  0  0  0
  -30.4508  -11.7331   20.0733 H   0  0  0  0  0  0
  -29.8733  -11.7444   17.6256 H   0  0  0  0  0  0
  -29.6133  -13.4688   17.6753 H   0  0  0  0  0  0
  -27.9670  -11.2876   18.9871 H   0  0  0  0  0  0
  -27.4078  -12.4551   17.8164 H   0  0  0  0  0  0
  -27.5707  -14.2622   19.3941 H   0  0  0  0  0  0
  -28.7826  -12.3880   21.4762 H   0  0  0  0  0  0
  -28.3484  -14.0638   21.7308 H   0  0  0  0  0  0
  -25.2773   -9.5706   22.4759 H   0  0  0  0  0  0
  -24.0022   -7.4650   22.7459 H   0  0  0  0  0  0
  -21.0867   -8.8787   19.8940 H   0  0  0  0  0  0
  -22.3707  -10.9692   19.6156 H   0  0  0  0  0  0
  -21.1999   -7.6147   23.9723 H   0  0  0  0  0  0
  -21.1497   -6.0511   25.9085 H   0  0  0  0  0  0
  -22.0588   -2.7611   23.2825 H   0  0  0  0  0  0
  -22.4033  -11.9886   22.4862 H   0  0  0  0  0  0
  -21.1037  -13.1217   22.2576 H   0  0  0  0  0  0
  -24.6725  -15.8657   20.5921 H   0  0  0  0  0  0
  -26.2925  -15.6376   20.1639 H   0  0  0  0  0  0
  -26.7342  -32.5213   23.0970 H   0  0  0  0  0  0
  -25.0110  -33.9573   25.0272 H   0  0  0  0  0  0
  -22.7680  -31.2793   21.3658 H   0  0  0  0  0  0
  -23.3755  -35.9586   23.3281 H   0  0  0  0  0  0
  -24.3582  -36.8912   22.2061 H   0  0  0  0  0  0
  -23.7258  -37.6434   23.6708 H   0  0  0  0  0  0
  -26.1909  -31.4327   20.6159 H   0  0  0  0  0  0
  -26.8870  -30.7320   22.0406 H   0  0  0  0  0  0
  -28.1442  -28.7270   21.2426 H   0  0  0  0  0  0
  -25.8961  -25.7823   19.0330 H   0  0  0  0  0  0
  -23.9856  -27.2662   18.9863 H   0  0  0  0  0  0
  -23.8357  -30.5436   19.3934 H   0  0  0  0  0  0
  -22.8030  -29.2198   19.8374 H   0  0  0  0  0  0
  -25.1332  -36.1817   25.0799 H   0  0  0  0  0  0
  -21.0010  -28.3326   24.1337 H   0  0  0  0  0  0
  -20.5698  -26.2359   23.3639 H   0  0  0  0  0  0
  -21.6659  -26.7442   22.1206 H   0  0  0  0  0  0
  -19.6931  -25.6275   21.1287 H   0  0  0  0  0  0
  -19.6696  -27.3154   20.6716 H   0  0  0  0  0  0
  -17.4235  -26.6684   21.4018 H   0  0  0  0  0  0
  -18.0329  -26.0069   22.9015 H   0  0  0  0  0  0
  -19.7949  -30.7326   24.2180 H   0  0  0  0  0  0
  -17.5014  -31.6253   24.5181 H   0  0  0  0  0  0
  -15.5358  -30.2957   23.7688 H   0  0  0  0  0  0
  -15.8702  -28.0806   22.7089 H   0  0  0  0  0  0
  -24.5829  -30.7181   25.7715 H   0  0  0  0  0  0
  -24.8876  -32.3013   26.4749 H   0  0  0  0  0  0
  -25.7907  -30.9019   27.0237 H   0  0  0  0  0  0
  -26.3037  -29.6641   24.1396 H   0  0  0  0  0  0
  -27.3907  -29.7283   25.5048 H   0  0  0  0  0  0
  -27.8989  -30.4117   23.9802 H   0  0  0  0  0  0
  -27.2557  -33.3684   26.2030 H   0  0  0  0  0  0
  -28.3853  -32.6935   25.0386 H   0  0  0  0  0  0
  -28.0655  -31.8563   26.5502 H   0  0  0  0  0  0
  -28.2580  -38.0096   24.7506 H   0  0  0  0  0  0
  -28.1084  -36.2631   24.6271 H   0  0  0  0  0  0
  -27.2298  -37.1419   25.8856 H   0  0  0  0  0  0
  -20.9524  -29.8773   21.6766 H   0  0  0  0  0  0
  -26.0137  -38.2803   24.1374 H   0  0  0  0  0  0
  -30.7266  -17.6624   19.0206 H   0  0  0  0  0  0
  -29.0341  -17.2810   18.6328 H   0  0  0  0  0  0
  -29.5661  -17.4038   22.3888 H   0  0  0  0  0  0
  -31.0808  -17.7420   21.5199 H   0  0  0  0  0  0
  -28.1666  -18.4462   20.6436 H   0  0  0  0  0  0
  -29.3572  -23.1917   21.3945 H   0  0  0  0  0  0
  -29.8787  -23.2311   19.7584 H   0  0  0  0  0  0
  -27.0841  -24.2713   20.6730 H   0  0  0  0  0  0
  -27.6629  -24.3405   19.0513 H   0  0  0  0  0  0
  -28.2404  -21.2413   19.2160 H   0  0  0  0  0  0
  -27.7894  -21.1905   20.8782 H   0  0  0  0  0  0
  1 25  1  0  0  0
  1 30  2  0  0  0
  1 77  1  0  0  0
  2  3  1  0  0  0
  2 25  1  0  0  0
  2 79  1  0  0  0
  2 80  1  0  0  0
  3  4  1  0  0  0
  3 81  1  0  0  0
  3 82  1  0  0  0
  4  5  1  0  0  0
  4 83  1  0  0  0
  4 84  1  0  0  0
  5  6  1  0  0  0
  5 26  1  0  0  0
  5 85  1  0  0  0
  6 25  1  0  0  0
  6 86  1  0  0  0
  6 87  1  0  0  0
  7  8  2  0  0  0
  7 26  1  0  0  0
  7 29  1  0  0  0
  8  9  1  0  0  0
  8 22  1  0  0  0
  9 10  1  0  0  0
  9 27  2  0  0  0
 10 11  2  0  0  0
 10 15  1  0  0  0
 11 12  1  0  0  0
 11 88  1  0  0  0
 12 13  2  0  0  0
 12 89  1  0  0  0
 13 14  1  0  0  0
 13 31  1  0  0  0
 14 15  2  0  0  0
 14 90  1  0  0  0
 15 91  1  0  0  0
 16 17  2  0  0  0
 16 21  1  0  0  0
 16 31  1  0  0  0
 17 18  1  0  0  0
 17 92  1  0  0  0
 18 19  2  0  0  0
 18 93  1  0  0  0
 19 20  1  0  0  0
 19 24  1  0  0  0
 20 21  2  0  0  0
 20 94  1  0  0  0
 21 23  1  0  0  0
 22 28  1  0  0  0
 22 32  2  0  0  0
 26 27  1  0  0  0
 28 95  1  0  0  0
 28 96  1  0  0  0
 29 97  1  0  0  0
 29 98  1  0  0  0
 33 34  1  0  0  0
 33 66  1  0  0  0
 33 70  2  0  0  0
 34 36  1  0  0  0
 34 59  1  0  0  0
 34 99  1  0  0  0
 35 44  2  0  0  0
 35 45  1  0  0  0
 35 68  1  0  0  0
 36 56  1  0  0  0
 36100  1  0  0  0
 37 39  1  0  0  0
 37 47  1  0  0  0
 37 66  1  0  0  0
 37101  1  0  0  0
 38 43  2  0  0  0
 38 46  1  0  0  0
 38 47  1  0  0  0
 39 64  1  0  0  0
 39 67  2  0  0  0
 40 52  1  0  0  0
 40 53  2  0  0  0
 40 58  1  0  0  0
 41102  1  0  0  0
 41103  1  0  0  0
 41104  1  0  0  0
 41 48  1  0  0  0
 42 43  1  0  0  0
 42 66  1  0  0  0
 42105  1  0  0  0
 42106  1  0  0  0
 43 44  1  0  0  0
 44107  1  0  0  0
 45 46  2  0  0  0
 45108  1  0  0  0
 46109  1  0  0  0
 47110  1  0  0  0
 47111  1  0  0  0
 48 56  1  0  0  0
 48 65  1  0  0  0
 48112  1  0  0  0
 49 50  1  0  0  0
 49 53  1  0  0  0
 49 64  1  0  0  0
 49113  1  0  0  0
 50 51  1  0  0  0
 50114  1  0  0  0
 50115  1  0  0  0
 51 52  1  0  0  0
 51116  1  0  0  0
 51117  1  0  0  0
 52118  1  0  0  0
 52119  1  0  0  0
 53 54  1  0  0  0
 54 55  2  0  0  0
 54120  1  0  0  0
 55 57  1  0  0  0
 55121  1  0  0  0
 56 69  2  0  0  0
 57 58  2  0  0  0
 57122  1  0  0  0
 58123  1  0  0  0
 59 60  1  0  0  0
 59 61  1  0  0  0
 59 62  1  0  0  0
 60124  1  0  0  0
 60125  1  0  0  0
 60126  1  0  0  0
 61127  1  0  0  0
 61128  1  0  0  0
 61129  1  0  0  0
 62130  1  0  0  0
 62131  1  0  0  0
 62132  1  0  0  0
 63 65  1  0  0  0
 63133  1  0  0  0
 63134  1  0  0  0
 63135  1  0  0  0
 64136  1  0  0  0
 65137  1  0  0  0
 68 75  1  0  0  0
 71 73  1  0  0  0
 71 77  1  0  0  0
 71138  1  0  0  0
 71139  1  0  0  0
 72 73  1  0  0  0
 72 77  1  0  0  0
 72140  1  0  0  0
 72141  1  0  0  0
 73 78  1  0  0  0
 73142  1  0  0  0
 74 75  1  0  0  0
 74 76  1  0  0  0
 74143  1  0  0  0
 74144  1  0  0  0
 75145  1  0  0  0
 75146  1  0  0  0
 76 78  1  0  0  0
 76147  1  0  0  0
 76148  1  0  0  0
M  ISO  4   1 100  68 101  75 101  77 100
M  END
> <chiral flag>
0

> <version>
0

> <s_m_source_file>
/data/baiqing/PycharmProjects/Reinvent-master-3.2/result/LINK_invent/BTK/process_docking_weight1_custom_sum_contain_oxygen_bond_distance_aromatic_linkinvent_7_9_3/rearranged_h_0189.sdf

> <i_m_source_file_index>
39

> <r_mmod_Potential_Energy-OPLS-2005>
845.746765136719

> <r_mmod_Stretch_Energy-OPLS-2005>
372.411010742188

> <r_mmod_Bend_Energy-OPLS-2005>
350.371917724609

> <r_mmod_Torsional_Energy-OPLS-2005>
266.456298828125

> <r_mmod_Improper_Torsional_Energy-OPLS-2005>
12.4537954330444

> <r_mmod_Van_der_Waal_Energy-OPLS-2005>
111.603240966797

> <r_mmod_Electrostatic_Energy-OPLS-2005>
-338.654144287109

> <r_mmod_Solvation_Energy-OPLS-2005>
-208.377807617188

> <b_mmod_Minimization_Converged-OPLS-2005>
0

> <r_mmod_RMS_Derivative-OPLS-2005>
2.31829881668091

$$$$
39
                    3D
 Structure written by MMmdl.
158168  0  0  1  0            999 V2000
  -30.5651  -14.8567   20.4427 C   0  0  0  0  0  0
  -30.4405  -12.5304   19.4784 C   0  0  0  0  0  0
  -29.5148  -12.5162   18.2409 C   0  0  0  0  0  0
  -28.0450  -12.3180   18.6602 C   0  0  0  0  0  0
  -27.6342  -13.2372   19.8407 C   0  0  2  0  0  0
  -28.6798  -13.2200   20.9753 C   0  0  0  0  0  0
  -25.2485  -13.8198   20.5698 C   0  0  0  0  0  0
  -24.1791  -13.0436   20.9226 C   0  0  0  0  0  0
  -24.6392  -11.6917   20.8756 C   0  0  0  0  0  0
  -23.9072  -10.4291   21.0411 C   0  0  0  0  0  0
  -24.3622   -9.4205   21.9187 C   0  0  0  0  0  0
  -23.6296   -8.2241   22.0754 C   0  0  0  0  0  0
  -22.4278   -8.0280   21.3544 C   0  0  0  0  0  0
  -21.9915   -9.0255   20.4647 C   0  0  0  0  0  0
  -22.7245  -10.2133   20.3058 C   0  0  0  0  0  0
  -21.6854   -6.0736   22.5279 C   0  0  0  0  0  0
  -21.4014   -6.5640   23.8212 C   0  0  0  0  0  0
  -21.3659   -5.6793   24.9174 C   0  0  0  0  0  0
  -21.6044   -4.3055   24.7225 C   0  0  0  0  0  0
  -21.8819   -3.8147   23.4346 C   0  0  0  0  0  0
  -21.9193   -4.6963   22.3402 C   0  0  0  0  0  0
  -22.7813  -13.5214   21.1881 C   0  0  0  0  0  0
  -22.1662   -4.2149   21.0980 F   0  0  0  0  0  0
  -21.5628   -3.4539   25.7738 F   0  0  0  0  0  0
  -29.9636  -13.6101   20.3799 N   0  0  0  0  0  0
  -26.2904  -12.9411   20.3246 N   0  0  0  0  0  0
  -25.9321  -11.6551   20.5742 N   0  0  0  0  0  0
  -22.0461  -12.8202   22.0435 N   0  0  0  0  0  0
  -25.4154  -15.1925   20.4100 N   0  0  0  0  0  0
  -31.7691  -14.9448   20.1835 O   0  0  0  0  0  0
  -21.6641   -6.8878   21.4241 O   0  0  0  0  0  0
  -22.3498  -14.5519   20.6725 O   0  0  0  0  0  0
  -24.6382  -31.8487   23.1918 C   0  0  0  0  0  0
  -25.9176  -32.4721   23.8292 C   0  0  1  0  0  0
  -27.2194  -27.1913   20.1525 C   0  0  0  0  0  0
  -25.5943  -33.8524   24.2214 N   0  0  0  0  0  0
  -23.4392  -30.4681   21.5366 C   0  0  2  0  0  0
  -24.8886  -28.8987   20.1153 C   0  0  0  0  0  0
  -22.7539  -29.4570   22.4887 C   0  0  0  0  0  0
  -18.0298  -28.1393   22.8481 C   0  0  0  0  0  0
  -24.1490  -36.7267   23.2642 C   0  0  0  0  0  0
  -25.9902  -30.7407   21.3810 C   0  0  0  0  0  0
  -26.0640  -29.3548   20.7272 C   0  0  0  0  0  0
  -27.2352  -28.5175   20.7262 C   0  0  0  0  0  0
  -26.0218  -26.8178   19.5091 C   0  0  0  0  0  0
  -24.8764  -27.6410   19.4918 C   0  0  0  0  0  0
  -23.6629  -29.7954   20.1563 C   0  0  0  0  0  0
  -25.4120  -36.3048   24.0321 C   0  0  1  0  0  0
  -20.5907  -28.3712   23.1252 C   0  0  2  0  0  0
  -20.6785  -26.9422   22.5407 C   0  0  0  0  0  0
  -19.5759  -26.6383   21.5214 C   0  0  0  0  0  0
  -18.1940  -26.7933   22.1624 C   0  0  0  0  0  0
  -19.1554  -28.8870   23.2860 C   0  0  0  0  0  0
  -18.9472  -30.1468   23.8882 C   0  0  0  0  0  0
  -17.6469  -30.6591   24.0561 C   0  0  0  0  0  0
  -25.9066  -34.9421   23.5074 C   0  0  0  0  0  0
  -16.5360  -29.9086   23.6335 C   0  0  0  0  0  0
  -16.7284  -28.6504   23.0356 C   0  0  0  0  0  0
  -26.4516  -31.6571   25.0712 C   0  0  0  0  0  0
  -25.3716  -31.3744   26.1418 C   0  0  0  0  0  0
  -27.0375  -30.2976   24.6252 C   0  0  0  0  0  0
  -27.6055  -32.4327   25.7495 C   0  0  0  0  0  0
  -27.5576  -37.1790   24.8466 C   0  0  0  0  0  0
  -21.4238  -29.3047   22.3632 N   0  0  0  0  0  0
  -26.4288  -37.3755   23.9408 N   0  0  0  0  0  0
  -24.7087  -31.0391   22.0924 N   0  0  0  0  0  0
  -23.4205  -28.8119   23.3020 O   0  0  0  0  0  0
  -28.2892  -26.2468   20.1542 O   0  0  0  0  0  0
  -26.5647  -34.8911   22.4650 O   0  0  0  0  0  0
  -23.5514  -32.1336   23.7172 O   0  0  0  0  0  0
  -28.8675  -22.1683   20.7158 C   0  0  0  0  0  0
  -28.6238  -23.4532   20.0488 C   0  0  0  0  0  0
  -29.2914  -20.9651   20.0055 C   0  0  0  0  0  0
  -29.1374  -22.3350   18.1098 C   0  0  0  0  0  0
  -28.1904  -22.8912   15.7297 C   0  0  0  0  0  0
  -28.5883  -21.4413   15.7072 C   0  0  0  0  0  0
  -29.0066  -18.5662   21.2115 C   0  0  0  0  0  0
  -30.1920  -18.5104   19.5573 C   0  0  0  0  0  0
  -29.3154  -22.4063   16.6229 C   0  0  0  0  0  0
  -30.1245  -17.5156   20.7767 C   0  0  0  0  0  0
  -28.0654  -24.8324   20.7098 C   0  0  0  0  0  0
  -28.7824  -23.4676   18.7142 N   0  0  0  0  0  0
  -29.3966  -21.1533   18.6771 N   0  0  0  0  0  0
  -29.7717  -19.6109   20.4797 N   0  0  0  0  0  0
  -29.7720  -16.0063   20.6015 N   0  0  0  0  0  0
  -31.4753  -12.6840   19.1681 H   0  0  0  0  0  0
  -30.4208  -11.5669   19.9902 H   0  0  0  0  0  0
  -29.8170  -11.7274   17.5507 H   0  0  0  0  0  0
  -29.6165  -13.4559   17.6956 H   0  0  0  0  0  0
  -27.9257  -11.2734   18.9501 H   0  0  0  0  0  0
  -27.3821  -12.4741   17.8083 H   0  0  0  0  0  0
  -27.6112  -14.2480   19.4330 H   0  0  0  0  0  0
  -28.7471  -12.2315   21.4322 H   0  0  0  0  0  0
  -28.3966  -13.9089   21.7728 H   0  0  0  0  0  0
  -25.2766   -9.5681   22.4764 H   0  0  0  0  0  0
  -24.0005   -7.4631   22.7472 H   0  0  0  0  0  0
  -21.0847   -8.8775   19.8952 H   0  0  0  0  0  0
  -22.3704  -10.9674   19.6169 H   0  0  0  0  0  0
  -21.2007   -7.6148   23.9716 H   0  0  0  0  0  0
  -21.1482   -6.0523   25.9077 H   0  0  0  0  0  0
  -22.0598   -2.7609   23.2846 H   0  0  0  0  0  0
  -22.4083  -11.9866   22.4823 H   0  0  0  0  0  0
  -21.1076  -13.1219   22.2640 H   0  0  0  0  0  0
  -24.6403  -15.8388   20.5122 H   0  0  0  0  0  0
  -26.2457  -15.6306   20.0342 H   0  0  0  0  0  0
  -26.7242  -32.5350   23.1028 H   0  0  0  0  0  0
  -25.0076  -33.9646   25.0351 H   0  0  0  0  0  0
  -22.7392  -31.2922   21.3835 H   0  0  0  0  0  0
  -23.3755  -35.9596   23.3299 H   0  0  0  0  0  0
  -24.3576  -36.8900   22.2058 H   0  0  0  0  0  0
  -23.7242  -37.6463   23.6677 H   0  0  0  0  0  0
  -26.1361  -31.4960   20.6075 H   0  0  0  0  0  0
  -26.8646  -30.7935   22.0182 H   0  0  0  0  0  0
  -28.1370  -28.8656   21.2102 H   0  0  0  0  0  0
  -25.9621  -25.8534   19.0241 H   0  0  0  0  0  0
  -23.9791  -27.2875   19.0027 H   0  0  0  0  0  0
  -23.7954  -30.5685   19.3984 H   0  0  0  0  0  0
  -22.7793  -29.2333   19.8486 H   0  0  0  0  0  0
  -25.1307  -36.1882   25.0813 H   0  0  0  0  0  0
  -20.9998  -28.3297   24.1374 H   0  0  0  0  0  0
  -20.5682  -26.2325   23.3620 H   0  0  0  0  0  0
  -21.6651  -26.7437   22.1203 H   0  0  0  0  0  0
  -19.6921  -25.6290   21.1253 H   0  0  0  0  0  0
  -19.6696  -27.3186   20.6738 H   0  0  0  0  0  0
  -17.4209  -26.6680   21.4027 H   0  0  0  0  0  0
  -18.0338  -26.0078   22.9024 H   0  0  0  0  0  0
  -19.7948  -30.7289   24.2244 H   0  0  0  0  0  0
  -17.5023  -31.6270   24.5165 H   0  0  0  0  0  0
  -15.5360  -30.2983   23.7668 H   0  0  0  0  0  0
  -15.8683  -28.0817   22.7081 H   0  0  0  0  0  0
  -24.5900  -30.7085   25.7741 H   0  0  0  0  0  0
  -24.8898  -32.2922   26.4801 H   0  0  0  0  0  0
  -25.8012  -30.8948   27.0221 H   0  0  0  0  0  0
  -26.2979  -29.6706   24.1259 H   0  0  0  0  0  0
  -27.4012  -29.7263   25.4803 H   0  0  0  0  0  0
  -27.8875  -30.4229   23.9540 H   0  0  0  0  0  0
  -27.2653  -33.3642   26.2031 H   0  0  0  0  0  0
  -28.3888  -32.6864   25.0339 H   0  0  0  0  0  0
  -28.0698  -31.8479   26.5446 H   0  0  0  0  0  0
  -28.2591  -38.0089   24.7509 H   0  0  0  0  0  0
  -28.1075  -36.2619   24.6296 H   0  0  0  0  0  0
  -27.2293  -37.1441   25.8869 H   0  0  0  0  0  0
  -20.9440  -29.8757   21.6814 H   0  0  0  0  0  0
  -26.0159  -38.2826   24.1409 H   0  0  0  0  0  0
  -28.7570  -22.1209   21.7908 H   0  0  0  0  0  0
  -27.2478  -23.1488   16.2088 H   0  0  0  0  0  0
  -28.4637  -23.5065   14.8755 H   0  0  0  0  0  0
  -29.1307  -21.0766   14.8380 H   0  0  0  0  0  0
  -27.9129  -20.7250   16.1711 H   0  0  0  0  0  0
  -28.9446  -18.7398   22.2865 H   0  0  0  0  0  0
  -28.0221  -18.3859   20.7740 H   0  0  0  0  0  0
  -29.4565  -18.3122   18.7742 H   0  0  0  0  0  0
  -31.1917  -18.6453   19.1428 H   0  0  0  0  0  0
  -30.3327  -22.6895   16.3596 H   0  0  0  0  0  0
  -31.0124  -17.6324   21.4027 H   0  0  0  0  0  0
  -28.4651  -24.8552   21.7235 H   0  0  0  0  0  0
  -26.9953  -24.6782   20.8482 H   0  0  0  0  0  0
  -28.7918  -15.7993   20.7141 H   0  0  0  0  0  0
  1 25  1  0  0  0
  1 30  2  0  0  0
  1 85  1  0  0  0
  2  3  1  0  0  0
  2 25  1  0  0  0
  2 86  1  0  0  0
  2 87  1  0  0  0
  3  4  1  0  0  0
  3 88  1  0  0  0
  3 89  1  0  0  0
  4  5  1  0  0  0
  4 90  1  0  0  0
  4 91  1  0  0  0
  5  6  1  0  0  0
  5 26  1  0  0  0
  5 92  1  0  0  0
  6 25  1  0  0  0
  6 93  1  0  0  0
  6 94  1  0  0  0
  7  8  2  0  0  0
  7 26  1  0  0  0
  7 29  1  0  0  0
  8  9  1  0  0  0
  8 22  1  0  0  0
  9 10  1  0  0  0
  9 27  2  0  0  0
 10 11  2  0  0  0
 10 15  1  0  0  0
 11 12  1  0  0  0
 11 95  1  0  0  0
 12 13  2  0  0  0
 12 96  1  0  0  0
 13 14  1  0  0  0
 13 31  1  0  0  0
 14 15  2  0  0  0
 14 97  1  0  0  0
 15 98  1  0  0  0
 16 17  2  0  0  0
 16 21  1  0  0  0
 16 31  1  0  0  0
 17 18  1  0  0  0
 17 99  1  0  0  0
 18 19  2  0  0  0
 18100  1  0  0  0
 19 20  1  0  0  0
 19 24  1  0  0  0
 20 21  2  0  0  0
 20101  1  0  0  0
 21 23  1  0  0  0
 22 28  1  0  0  0
 22 32  2  0  0  0
 26 27  1  0  0  0
 28102  1  0  0  0
 28103  1  0  0  0
 29104  1  0  0  0
 29105  1  0  0  0
 33 34  1  0  0  0
 33 66  1  0  0  0
 33 70  2  0  0  0
 34 36  1  0  0  0
 34 59  1  0  0  0
 34106  1  0  0  0
 35 44  2  0  0  0
 35 45  1  0  0  0
 35 68  1  0  0  0
 36 56  1  0  0  0
 36107  1  0  0  0
 37 39  1  0  0  0
 37 47  1  0  0  0
 37 66  1  0  0  0
 37108  1  0  0  0
 38 43  2  0  0  0
 38 46  1  0  0  0
 38 47  1  0  0  0
 39 64  1  0  0  0
 39 67  2  0  0  0
 40 52  1  0  0  0
 40 53  2  0  0  0
 40 58  1  0  0  0
 41109  1  0  0  0
 41110  1  0  0  0
 41111  1  0  0  0
 41 48  1  0  0  0
 42 43  1  0  0  0
 42 66  1  0  0  0
 42112  1  0  0  0
 42113  1  0  0  0
 43 44  1  0  0  0
 44114  1  0  0  0
 45 46  2  0  0  0
 45115  1  0  0  0
 46116  1  0  0  0
 47117  1  0  0  0
 47118  1  0  0  0
 48 56  1  0  0  0
 48 65  1  0  0  0
 48119  1  0  0  0
 49 50  1  0  0  0
 49 53  1  0  0  0
 49 64  1  0  0  0
 49120  1  0  0  0
 50 51  1  0  0  0
 50121  1  0  0  0
 50122  1  0  0  0
 51 52  1  0  0  0
 51123  1  0  0  0
 51124  1  0  0  0
 52125  1  0  0  0
 52126  1  0  0  0
 53 54  1  0  0  0
 54 55  2  0  0  0
 54127  1  0  0  0
 55 57  1  0  0  0
 55128  1  0  0  0
 56 69  2  0  0  0
 57 58  2  0  0  0
 57129  1  0  0  0
 58130  1  0  0  0
 59 60  1  0  0  0
 59 61  1  0  0  0
 59 62  1  0  0  0
 60131  1  0  0  0
 60132  1  0  0  0
 60133  1  0  0  0
 61134  1  0  0  0
 61135  1  0  0  0
 61136  1  0  0  0
 62137  1  0  0  0
 62138  1  0  0  0
 62139  1  0  0  0
 63 65  1  0  0  0
 63140  1  0  0  0
 63141  1  0  0  0
 63142  1  0  0  0
 64143  1  0  0  0
 65144  1  0  0  0
 68 81  1  0  0  0
 71 72  2  0  0  0
 71 73  1  0  0  0
 71145  1  0  0  0
 72 81  1  0  0  0
 72 82  1  0  0  0
 73 83  2  0  0  0
 73 84  1  0  0  0
 74 82  2  0  0  0
 74 83  1  0  0  0
 74 79  1  0  0  0
 75 76  1  0  0  0
 75 79  1  0  0  0
 75146  1  0  0  0
 75147  1  0  0  0
 76 79  1  0  0  0
 76148  1  0  0  0
 76149  1  0  0  0
 77 80  1  0  0  0
 77 84  1  0  0  0
 77150  1  0  0  0
 77151  1  0  0  0
 78 80  1  0  0  0
 78 84  1  0  0  0
 78152  1  0  0  0
 78153  1  0  0  0
 79154  1  0  0  0
 80 85  1  0  0  0
 80155  1  0  0  0
 81156  1  0  0  0
 81157  1  0  0  0
 85158  1  0  0  0
M  ISO  4   1 100  68 101  81 101  85 100
M  END
> <chiral flag>
0

> <version>
0

> <s_m_source_file>
/data/baiqing/PycharmProjects/Reinvent-master-3.2/result/LINK_invent/BTK/process_docking_weight1_custom_sum_contain_oxygen_bond_distance_aromatic_linkinvent_7_9_3/rearranged_h_0189.sdf

> <i_m_source_file_index>
40

> <r_mmod_Potential_Energy-OPLS-2005>
-172.475250244141

> <r_mmod_Stretch_Energy-OPLS-2005>
165.835479736328

> <r_mmod_Bend_Energy-OPLS-2005>
261.1357421875

> <r_mmod_Torsional_Energy-OPLS-2005>
265.136322021484

> <r_mmod_Improper_Torsional_Energy-OPLS-2005>
12.0994882583618

> <r_mmod_Van_der_Waal_Energy-OPLS-2005>
138.520462036133

> <r_mmod_Electrostatic_Energy-OPLS-2005>
-890.146545410156

> <r_mmod_Solvation_Energy-OPLS-2005>
-263.473937988281

> <b_mmod_Minimization_Converged-OPLS-2005>
0

> <r_mmod_RMS_Derivative-OPLS-2005>
0.121048778295517

$$$$
40
                    3D
 Structure written by MMmdl.
153162  0  0  1  0            999 V2000
  -30.4931  -15.3256   20.3859 C   0  0  0  0  0  0
  -30.4254  -12.8683   19.5144 C   0  0  0  0  0  0
  -29.5348  -12.5927   18.2825 C   0  0  0  0  0  0
  -28.0940  -12.2861   18.7234 C   0  0  0  0  0  0
  -27.6068  -13.2804   19.8097 C   0  0  2  0  0  0
  -28.6382  -13.5276   20.9329 C   0  0  0  0  0  0
  -25.2391  -13.8278   20.5715 C   0  0  0  0  0  0
  -24.1746  -13.0467   20.9247 C   0  0  0  0  0  0
  -24.6406  -11.6952   20.8762 C   0  0  0  0  0  0
  -23.9089  -10.4309   21.0398 C   0  0  0  0  0  0
  -24.3632   -9.4208   21.9171 C   0  0  0  0  0  0
  -23.6301   -8.2239   22.0742 C   0  0  0  0  0  0
  -22.4276   -8.0290   21.3539 C   0  0  0  0  0  0
  -21.9919   -9.0250   20.4629 C   0  0  0  0  0  0
  -22.7262  -10.2127   20.3038 C   0  0  0  0  0  0
  -21.6845   -6.0740   22.5271 C   0  0  0  0  0  0
  -21.4001   -6.5632   23.8208 C   0  0  0  0  0  0
  -21.3649   -5.6793   24.9164 C   0  0  0  0  0  0
  -21.6053   -4.3040   24.7211 C   0  0  0  0  0  0
  -21.8816   -3.8135   23.4334 C   0  0  0  0  0  0
  -21.9177   -4.6980   22.3396 C   0  0  0  0  0  0
  -22.7762  -13.5218   21.1881 C   0  0  0  0  0  0
  -22.1654   -4.2157   21.0986 F   0  0  0  0  0  0
  -21.5635   -3.4515   25.7734 F   0  0  0  0  0  0
  -29.8491  -14.0504   20.2754 N   0  0  0  0  0  0
  -26.2804  -12.9554   20.3170 N   0  0  0  0  0  0
  -25.9338  -11.6657   20.5706 N   0  0  0  0  0  0
  -22.0403  -12.8210   22.0444 N   0  0  0  0  0  0
  -25.4058  -15.2011   20.4164 N   0  0  0  0  0  0
  -31.7206  -15.1829   20.2366 O   0  0  0  0  0  0
  -21.6634   -6.8890   21.4250 O   0  0  0  0  0  0
  -22.3465  -14.5510   20.6720 O   0  0  0  0  0  0
  -24.6711  -31.8222   23.1712 C   0  0  0  0  0  0
  -25.9407  -32.4575   23.8163 C   0  0  1  0  0  0
  -27.1863  -26.8960   20.2111 C   0  0  0  0  0  0
  -25.6122  -33.8391   24.2078 N   0  0  0  0  0  0
  -23.4829  -30.4390   21.5208 C   0  0  2  0  0  0
  -24.9247  -28.8245   20.1144 C   0  0  0  0  0  0
  -22.7689  -29.4473   22.4774 C   0  0  0  0  0  0
  -18.0324  -28.1445   22.8455 C   0  0  0  0  0  0
  -24.1444  -36.7116   23.2652 C   0  0  0  0  0  0
  -26.0552  -30.6214   21.4054 C   0  0  0  0  0  0
  -26.1124  -29.2127   20.7501 C   0  0  0  0  0  0
  -27.2400  -28.2700   20.7707 C   0  0  0  0  0  0
  -25.9714  -26.6725   19.5246 C   0  0  0  0  0  0
  -24.8792  -27.5752   19.4835 C   0  0  0  0  0  0
  -23.7176  -29.7593   20.1452 C   0  0  0  0  0  0
  -25.4086  -36.2910   24.0305 C   0  0  1  0  0  0
  -20.5957  -28.3780   23.1146 C   0  0  2  0  0  0
  -20.6789  -26.9460   22.5383 C   0  0  0  0  0  0
  -19.5754  -26.6363   21.5220 C   0  0  0  0  0  0
  -18.1931  -26.7999   22.1581 C   0  0  0  0  0  0
  -19.1594  -28.8944   23.2781 C   0  0  0  0  0  0
  -18.9516  -30.1542   23.8800 C   0  0  0  0  0  0
  -17.6502  -30.6632   24.0573 C   0  0  0  0  0  0
  -25.9090  -34.9338   23.4964 C   0  0  0  0  0  0
  -16.5390  -29.9096   23.6417 C   0  0  0  0  0  0
  -16.7309  -28.6528   23.0406 C   0  0  0  0  0  0
  -26.4641  -31.6581   25.0724 C   0  0  0  0  0  0
  -25.3731  -31.3913   26.1363 C   0  0  0  0  0  0
  -27.0605  -30.2959   24.6550 C   0  0  0  0  0  0
  -27.6097  -32.4450   25.7538 C   0  0  0  0  0  0
  -27.5522  -37.1678   24.8465 C   0  0  0  0  0  0
  -21.4360  -29.3065   22.3514 N   0  0  0  0  0  0
  -26.4184  -37.3697   23.9488 N   0  0  0  0  0  0
  -24.7583  -30.9882   22.0850 N   0  0  0  0  0  0
  -23.4228  -28.8031   23.3017 O   0  0  0  0  0  0
  -28.1444  -25.7471   20.3177 O   0  0  0  0  0  0
  -26.5605  -34.8901   22.4500 O   0  0  0  0  0  0
  -23.5780  -32.1208   23.6775 O   0  0  0  0  0  0
  -29.2679  -21.6420   19.6447 C   0  0  0  0  0  0
  -29.4704  -20.1572   19.8336 C   0  0  0  0  0  0
  -28.8065  -19.4059   20.8319 C   0  0  0  0  0  0
  -28.4032  -22.5327   20.4634 C   0  0  0  0  0  0
  -27.9618  -20.3175   21.5926 C   0  0  0  0  0  0
  -30.3203  -19.1922   18.9524 C   0  0  0  0  0  0
  -28.9619  -17.7193   21.0122 C   0  0  0  0  0  0
  -30.8389  -17.7665   19.5556 C   0  0  0  0  0  0
  -27.0996  -19.7359   22.7007 C   0  0  0  0  0  0
  -27.7224  -24.1499   20.1833 C   0  0  0  0  0  0
  -27.7952  -21.7140   21.4170 N   0  0  0  0  0  0
  -29.9390  -16.7271   20.2208 N   0  0  0  0  0  0
  -31.4425  -13.0584   19.1630 H   0  0  0  0  0  0
  -30.5043  -11.9860   20.1513 H   0  0  0  0  0  0
  -29.9436  -11.7743   17.6893 H   0  0  0  0  0  0
  -29.5346  -13.4743   17.6406 H   0  0  0  0  0  0
  -28.0757  -11.2709   19.1217 H   0  0  0  0  0  0
  -27.4196  -12.2813   17.8667 H   0  0  0  0  0  0
  -27.5004  -14.2290   19.2808 H   0  0  0  0  0  0
  -28.8408  -12.6244   21.5098 H   0  0  0  0  0  0
  -28.2584  -14.2712   21.6359 H   0  0  0  0  0  0
  -25.2804   -9.5670   22.4709 H   0  0  0  0  0  0
  -24.0024   -7.4632   22.7443 H   0  0  0  0  0  0
  -21.0858   -8.8736   19.8930 H   0  0  0  0  0  0
  -22.3737  -10.9624   19.6096 H   0  0  0  0  0  0
  -21.1982   -7.6146   23.9730 H   0  0  0  0  0  0
  -21.1481   -6.0509   25.9086 H   0  0  0  0  0  0
  -22.0612   -2.7610   23.2821 H   0  0  0  0  0  0
  -22.4043  -11.9872   22.4805 H   0  0  0  0  0  0
  -21.0999  -13.1179   22.2579 H   0  0  0  0  0  0
  -24.6364  -15.8519   20.5353 H   0  0  0  0  0  0
  -26.2466  -15.6343   20.0548 H   0  0  0  0  0  0
  -26.7483  -32.5079   23.0877 H   0  0  0  0  0  0
  -25.0563  -33.9497   25.0434 H   0  0  0  0  0  0
  -22.8015  -31.2758   21.3513 H   0  0  0  0  0  0
  -23.3761  -35.9380   23.3232 H   0  0  0  0  0  0
  -24.3556  -36.8837   22.2085 H   0  0  0  0  0  0
  -23.7089  -37.6233   23.6748 H   0  0  0  0  0  0
  -26.2569  -31.3594   20.6276 H   0  0  0  0  0  0
  -26.9082  -30.6622   22.0723 H   0  0  0  0  0  0
  -28.1361  -28.5594   21.3021 H   0  0  0  0  0  0
  -25.8066  -25.7206   19.0492 H   0  0  0  0  0  0
  -23.9709  -27.2628   18.9874 H   0  0  0  0  0  0
  -23.8864  -30.5289   19.3900 H   0  0  0  0  0  0
  -22.8228  -29.2234   19.8196 H   0  0  0  0  0  0
  -25.1266  -36.1648   25.0782 H   0  0  0  0  0  0
  -21.0059  -28.3357   24.1258 H   0  0  0  0  0  0
  -20.5698  -26.2397   23.3620 H   0  0  0  0  0  0
  -21.6637  -26.7430   22.1169 H   0  0  0  0  0  0
  -19.6888  -25.6244   21.1318 H   0  0  0  0  0  0
  -19.6706  -27.3116   20.6709 H   0  0  0  0  0  0
  -17.4221  -26.6832   21.3967 H   0  0  0  0  0  0
  -18.0250  -26.0157   22.8956 H   0  0  0  0  0  0
  -19.8001  -30.7413   24.2074 H   0  0  0  0  0  0
  -17.5060  -31.6335   24.5146 H   0  0  0  0  0  0
  -15.5385  -30.2949   23.7852 H   0  0  0  0  0  0
  -15.8701  -28.0826   22.7162 H   0  0  0  0  0  0
  -24.5935  -30.7237   25.7704 H   0  0  0  0  0  0
  -24.8912  -32.3158   26.4556 H   0  0  0  0  0  0
  -25.7927  -30.9262   27.0290 H   0  0  0  0  0  0
  -26.3377  -29.6577   24.1471 H   0  0  0  0  0  0
  -27.4060  -29.7397   25.5274 H   0  0  0  0  0  0
  -27.9311  -30.4185   24.0095 H   0  0  0  0  0  0
  -27.2655  -33.3857   26.1870 H   0  0  0  0  0  0
  -28.4038  -32.6867   25.0444 H   0  0  0  0  0  0
  -28.0620  -31.8745   26.5667 H   0  0  0  0  0  0
  -28.2436  -38.0080   24.7657 H   0  0  0  0  0  0
  -28.1096  -36.2616   24.6063 H   0  0  0  0  0  0
  -27.2301  -37.1034   25.8878 H   0  0  0  0  0  0
  -20.9611  -29.8774   21.6664 H   0  0  0  0  0  0
  -25.9980  -38.2687   24.1679 H   0  0  0  0  0  0
  -29.7632  -22.1034   18.7983 H   0  0  0  0  0  0
  -31.1948  -19.7517   18.6127 H   0  0  0  0  0  0
  -29.7447  -18.9969   18.0471 H   0  0  0  0  0  0
  -27.9564  -17.3172   20.8857 H   0  0  0  0  0  0
  -29.1908  -17.5577   22.0663 H   0  0  0  0  0  0
  -31.6018  -18.0041   20.2968 H   0  0  0  0  0  0
  -31.3814  -17.2740   18.7483 H   0  0  0  0  0  0
  -27.6956  -19.5634   23.5982 H   0  0  0  0  0  0
  -26.6595  -18.7853   22.3938 H   0  0  0  0  0  0
  -26.2742  -20.3975   22.9694 H   0  0  0  0  0  0
  -26.8795  -24.1301   20.8756 H   0  0  0  0  0  0
  -27.2536  -24.0545   19.2057 H   0  0  0  0  0  0
  1 25  1  0  0  0
  1 30  2  0  0  0
  1 82  1  0  0  0
  2  3  1  0  0  0
  2 25  1  0  0  0
  2 83  1  0  0  0
  2 84  1  0  0  0
  3  4  1  0  0  0
  3 85  1  0  0  0
  3 86  1  0  0  0
  4  5  1  0  0  0
  4 87  1  0  0  0
  4 88  1  0  0  0
  5  6  1  0  0  0
  5 26  1  0  0  0
  5 89  1  0  0  0
  6 25  1  0  0  0
  6 90  1  0  0  0
  6 91  1  0  0  0
  7  8  2  0  0  0
  7 26  1  0  0  0
  7 29  1  0  0  0
  8  9  1  0  0  0
  8 22  1  0  0  0
  9 10  1  0  0  0
  9 27  2  0  0  0
 10 11  2  0  0  0
 10 15  1  0  0  0
 11 12  1  0  0  0
 11 92  1  0  0  0
 12 13  2  0  0  0
 12 93  1  0  0  0
 13 14  1  0  0  0
 13 31  1  0  0  0
 14 15  2  0  0  0
 14 94  1  0  0  0
 15 95  1  0  0  0
 16 17  2  0  0  0
 16 21  1  0  0  0
 16 31  1  0  0  0
 17 18  1  0  0  0
 17 96  1  0  0  0
 18 19  2  0  0  0
 18 97  1  0  0  0
 19 20  1  0  0  0
 19 24  1  0  0  0
 20 21  2  0  0  0
 20 98  1  0  0  0
 21 23  1  0  0  0
 22 28  1  0  0  0
 22 32  2  0  0  0
 26 27  1  0  0  0
 28 99  1  0  0  0
 28100  1  0  0  0
 29101  1  0  0  0
 29102  1  0  0  0
 33 34  1  0  0  0
 33 66  1  0  0  0
 33 70  2  0  0  0
 34 36  1  0  0  0
 34 59  1  0  0  0
 34103  1  0  0  0
 35 44  2  0  0  0
 35 45  1  0  0  0
 35 68  1  0  0  0
 36 56  1  0  0  0
 36104  1  0  0  0
 37 39  1  0  0  0
 37 47  1  0  0  0
 37 66  1  0  0  0
 37105  1  0  0  0
 38 43  2  0  0  0
 38 46  1  0  0  0
 38 47  1  0  0  0
 39 64  1  0  0  0
 39 67  2  0  0  0
 40 52  1  0  0  0
 40 53  2  0  0  0
 40 58  1  0  0  0
 41106  1  0  0  0
 41107  1  0  0  0
 41108  1  0  0  0
 41 48  1  0  0  0
 42 43  1  0  0  0
 42 66  1  0  0  0
 42109  1  0  0  0
 42110  1  0  0  0
 43 44  1  0  0  0
 44111  1  0  0  0
 45 46  2  0  0  0
 45112  1  0  0  0
 46113  1  0  0  0
 47114  1  0  0  0
 47115  1  0  0  0
 48 56  1  0  0  0
 48 65  1  0  0  0
 48116  1  0  0  0
 49 50  1  0  0  0
 49 53  1  0  0  0
 49 64  1  0  0  0
 49117  1  0  0  0
 50 51  1  0  0  0
 50118  1  0  0  0
 50119  1  0  0  0
 51 52  1  0  0  0
 51120  1  0  0  0
 51121  1  0  0  0
 52122  1  0  0  0
 52123  1  0  0  0
 53 54  1  0  0  0
 54 55  2  0  0  0
 54124  1  0  0  0
 55 57  1  0  0  0
 55125  1  0  0  0
 56 69  2  0  0  0
 57 58  2  0  0  0
 57126  1  0  0  0
 58127  1  0  0  0
 59 60  1  0  0  0
 59 61  1  0  0  0
 59 62  1  0  0  0
 60128  1  0  0  0
 60129  1  0  0  0
 60130  1  0  0  0
 61131  1  0  0  0
 61132  1  0  0  0
 61133  1  0  0  0
 62134  1  0  0  0
 62135  1  0  0  0
 62136  1  0  0  0
 63 65  1  0  0  0
 63137  1  0  0  0
 63138  1  0  0  0
 63139  1  0  0  0
 64140  1  0  0  0
 65141  1  0  0  0
 68 80  1  0  0  0
 71 72  2  0  0  0
 71 74  1  0  0  0
 71142  1  0  0  0
 72 73  1  0  0  0
 72 76  1  0  0  0
 73 75  2  0  0  0
 73 77  1  0  0  0
 74 80  1  0  0  0
 74 81  2  0  0  0
 75 79  1  0  0  0
 75 81  1  0  0  0
 76 78  1  0  0  0
 76143  1  0  0  0
 76144  1  0  0  0
 77 82  1  0  0  0
 77145  1  0  0  0
 77146  1  0  0  0
 78 82  1  0  0  0
 78147  1  0  0  0
 78148  1  0  0  0
 79149  1  0  0  0
 79150  1  0  0  0
 79151  1  0  0  0
 80152  1  0  0  0
 80153  1  0  0  0
M  ISO  4   1 100  68 101  80 101  82 100
M  END
> <chiral flag>
0

> <version>
0

> <s_m_source_file>
/data/baiqing/PycharmProjects/Reinvent-master-3.2/result/LINK_invent/BTK/process_docking_weight1_custom_sum_contain_oxygen_bond_distance_aromatic_linkinvent_7_9_3/rearranged_h_0189.sdf

> <i_m_source_file_index>
41

> <r_mmod_Potential_Energy-OPLS-2005>
1360.50659179688

> <r_mmod_Stretch_Energy-OPLS-2005>
535.923034667969

> <r_mmod_Bend_Energy-OPLS-2005>
491.527709960938

> <r_mmod_Torsional_Energy-OPLS-2005>
288.255615234375

> <r_mmod_Improper_Torsional_Energy-OPLS-2005>
19.8383464813232

> <r_mmod_Van_der_Waal_Energy-OPLS-2005>
136.743637084961

> <r_mmod_Electrostatic_Energy-OPLS-2005>
-407.603149414062

> <r_mmod_Solvation_Energy-OPLS-2005>
-226.546936035156

> <b_mmod_Minimization_Converged-OPLS-2005>
0

> <r_mmod_RMS_Derivative-OPLS-2005>
5.46085834503174

$$$$
41
                    3D
 Structure written by MMmdl.
150159  0  0  1  0            999 V2000
  -30.3960  -15.5003   20.3079 C   0  0  0  0  0  0
  -30.4058  -12.9966   19.4854 C   0  0  0  0  0  0
  -29.5155  -12.5890   18.2861 C   0  0  0  0  0  0
  -28.0970  -12.2555   18.7645 C   0  0  0  0  0  0
  -27.5814  -13.2894   19.7925 C   0  0  2  0  0  0
  -28.6086  -13.6198   20.8952 C   0  0  0  0  0  0
  -25.2305  -13.8262   20.5824 C   0  0  0  0  0  0
  -24.1651  -13.0422   20.9300 C   0  0  0  0  0  0
  -24.6323  -11.6926   20.8773 C   0  0  0  0  0  0
  -23.9025  -10.4282   21.0401 C   0  0  0  0  0  0
  -24.3584   -9.4203   21.9169 C   0  0  0  0  0  0
  -23.6254   -8.2247   22.0775 C   0  0  0  0  0  0
  -22.4272   -8.0253   21.3537 C   0  0  0  0  0  0
  -21.9873   -9.0222   20.4661 C   0  0  0  0  0  0
  -22.7206  -10.2100   20.3044 C   0  0  0  0  0  0
  -21.6871   -6.0721   22.5270 C   0  0  0  0  0  0
  -21.3994   -6.5623   23.8190 C   0  0  0  0  0  0
  -21.3663   -5.6791   24.9170 C   0  0  0  0  0  0
  -21.6072   -4.3048   24.7227 C   0  0  0  0  0  0
  -21.8822   -3.8132   23.4343 C   0  0  0  0  0  0
  -21.9176   -4.6943   22.3397 C   0  0  0  0  0  0
  -22.7682  -13.5194   21.1930 C   0  0  0  0  0  0
  -22.1661   -4.2123   21.0980 F   0  0  0  0  0  0
  -21.5649   -3.4535   25.7743 F   0  0  0  0  0  0
  -29.7867  -14.1909   20.2052 N   0  0  0  0  0  0
  -26.2679  -12.9542   20.3207 N   0  0  0  0  0  0
  -25.9267  -11.6644   20.5707 N   0  0  0  0  0  0
  -22.0310  -12.8179   22.0464 N   0  0  0  0  0  0
  -25.3981  -15.1975   20.4239 N   0  0  0  0  0  0
  -31.6307  -15.3585   20.2817 O   0  0  0  0  0  0
  -21.6648   -6.8857   21.4236 O   0  0  0  0  0  0
  -22.3369  -14.5496   20.6781 O   0  0  0  0  0  0
  -24.6790  -31.8016   23.1548 C   0  0  0  0  0  0
  -25.9382  -32.4461   23.8092 C   0  0  1  0  0  0
  -27.2311  -26.7795   20.1618 C   0  0  0  0  0  0
  -25.5995  -33.8280   24.2000 N   0  0  0  0  0  0
  -23.4978  -30.4110   21.5034 C   0  0  2  0  0  0
  -24.9546  -28.7599   20.1044 C   0  0  0  0  0  0
  -22.7713  -29.4392   22.4686 C   0  0  0  0  0  0
  -18.0342  -28.1442   22.8534 C   0  0  0  0  0  0
  -24.1510  -36.7147   23.2662 C   0  0  0  0  0  0
  -26.0750  -30.5522   21.4102 C   0  0  0  0  0  0
  -26.1390  -29.1289   20.7444 C   0  0  0  0  0  0
  -27.2595  -28.1601   20.7530 C   0  0  0  0  0  0
  -26.0135  -26.5905   19.4723 C   0  0  0  0  0  0
  -24.9238  -27.5114   19.4546 C   0  0  0  0  0  0
  -23.7462  -29.7039   20.1376 C   0  0  0  0  0  0
  -25.4167  -36.2873   24.0286 C   0  0  1  0  0  0
  -20.5971  -28.3844   23.1178 C   0  0  2  0  0  0
  -20.6800  -26.9513   22.5425 C   0  0  0  0  0  0
  -19.5733  -26.6425   21.5264 C   0  0  0  0  0  0
  -18.1938  -26.7938   22.1765 C   0  0  0  0  0  0
  -19.1593  -28.8958   23.2815 C   0  0  0  0  0  0
  -18.9530  -30.1534   23.8886 C   0  0  0  0  0  0
  -17.6493  -30.6623   24.0627 C   0  0  0  0  0  0
  -25.9148  -34.9260   23.4965 C   0  0  0  0  0  0
  -16.5384  -29.9141   23.6389 C   0  0  0  0  0  0
  -16.7324  -28.6544   23.0441 C   0  0  0  0  0  0
  -26.4612  -31.6490   25.0699 C   0  0  0  0  0  0
  -25.3704  -31.3738   26.1356 C   0  0  0  0  0  0
  -27.0577  -30.2824   24.6593 C   0  0  0  0  0  0
  -27.6068  -32.4388   25.7515 C   0  0  0  0  0  0
  -27.5568  -37.1738   24.8469 C   0  0  0  0  0  0
  -21.4377  -29.3133   22.3494 N   0  0  0  0  0  0
  -26.4295  -37.3625   23.9396 N   0  0  0  0  0  0
  -24.7709  -30.9500   22.0768 N   0  0  0  0  0  0
  -23.4162  -28.7910   23.2978 O   0  0  0  0  0  0
  -28.2147  -25.6163   20.2961 O   0  0  0  0  0  0
  -26.5753  -34.8833   22.4570 O   0  0  0  0  0  0
  -23.5828  -32.1124   23.6524 O   0  0  0  0  0  0
  -26.8301  -21.4054   21.7205 C   0  0  0  0  0  0
  -28.2023  -22.4010   20.4410 C   0  0  0  0  0  0
  -30.3882  -18.3646   20.6604 C   0  0  0  0  0  0
  -28.5607  -17.8162   19.9857 C   0  0  0  0  0  0
  -29.2353  -19.3776   19.9893 C   0  0  0  0  0  0
  -25.5763  -21.1967   22.5034 C   0  0  0  0  0  0
  -28.4444  -24.0166   19.6872 C   0  0  0  0  0  0
  -27.2142  -22.6336   21.3083 N   0  0  0  0  0  0
  -27.5820  -20.3806   21.3585 N   0  0  0  0  0  0
  -28.5033  -20.8541   20.4715 N   0  0  0  0  0  0
  -29.8171  -16.9345   20.3078 N   0  0  0  0  0  0
  -31.4019  -13.2320   19.1059 H   0  0  0  0  0  0
  -30.5431  -12.1571   20.1715 H   0  0  0  0  0  0
  -29.9452  -11.7297   17.7659 H   0  0  0  0  0  0
  -29.4778  -13.4004   17.5549 H   0  0  0  0  0  0
  -28.1325  -11.2695   19.2356 H   0  0  0  0  0  0
  -27.4057  -12.1660   17.9225 H   0  0  0  0  0  0
  -27.4410  -14.2022   19.2099 H   0  0  0  0  0  0
  -28.8463  -12.7443   21.5015 H   0  0  0  0  0  0
  -28.1952  -14.3652   21.5754 H   0  0  0  0  0  0
  -25.2705   -9.5723   22.4763 H   0  0  0  0  0  0
  -23.9993   -7.4659   22.7482 H   0  0  0  0  0  0
  -21.0837   -8.8721   19.8930 H   0  0  0  0  0  0
  -22.3639  -10.9648   19.6170 H   0  0  0  0  0  0
  -21.1977   -7.6117   23.9687 H   0  0  0  0  0  0
  -21.1501   -6.0516   25.9072 H   0  0  0  0  0  0
  -22.0585   -2.7583   23.2853 H   0  0  0  0  0  0
  -22.3916  -11.9896   22.4965 H   0  0  0  0  0  0
  -21.0890  -13.1165   22.2584 H   0  0  0  0  0  0
  -24.6378  -15.8558   20.5636 H   0  0  0  0  0  0
  -26.2606  -15.6347   20.1260 H   0  0  0  0  0  0
  -26.7452  -32.4946   23.0806 H   0  0  0  0  0  0
  -25.0018  -33.9350   25.0071 H   0  0  0  0  0  0
  -22.8226  -31.2474   21.3118 H   0  0  0  0  0  0
  -23.3769  -35.9467   23.3301 H   0  0  0  0  0  0
  -24.3568  -36.8829   22.2068 H   0  0  0  0  0  0
  -23.7274  -37.6339   23.6750 H   0  0  0  0  0  0
  -26.2866  -31.2879   20.6313 H   0  0  0  0  0  0
  -26.9223  -30.6029   22.0817 H   0  0  0  0  0  0
  -28.1488  -28.4433   21.2952 H   0  0  0  0  0  0
  -25.8603  -25.6349   18.9891 H   0  0  0  0  0  0
  -24.0240  -27.2164   18.9322 H   0  0  0  0  0  0
  -23.9052  -30.4567   19.3623 H   0  0  0  0  0  0
  -22.8577  -29.1527   19.8340 H   0  0  0  0  0  0
  -25.1391  -36.1642   25.0766 H   0  0  0  0  0  0
  -21.0061  -28.3414   24.1310 H   0  0  0  0  0  0
  -20.5792  -26.2436   23.3717 H   0  0  0  0  0  0
  -21.6608  -26.7523   22.1129 H   0  0  0  0  0  0
  -19.6874  -25.6311   21.1311 H   0  0  0  0  0  0
  -19.6564  -27.3194   20.6772 H   0  0  0  0  0  0
  -17.4069  -26.6574   21.4311 H   0  0  0  0  0  0
  -18.0473  -26.0210   22.9328 H   0  0  0  0  0  0
  -19.8046  -30.7381   24.2158 H   0  0  0  0  0  0
  -17.5081  -31.6308   24.5256 H   0  0  0  0  0  0
  -15.5400  -30.3079   23.7703 H   0  0  0  0  0  0
  -15.8698  -28.0911   22.7154 H   0  0  0  0  0  0
  -24.5915  -30.7064   25.7642 H   0  0  0  0  0  0
  -24.8896  -32.2942   26.4687 H   0  0  0  0  0  0
  -25.7986  -30.8970   27.0172 H   0  0  0  0  0  0
  -26.3285  -29.6440   24.1579 H   0  0  0  0  0  0
  -27.4002  -29.7281   25.5333 H   0  0  0  0  0  0
  -27.9274  -30.4004   24.0119 H   0  0  0  0  0  0
  -27.2572  -33.3737   26.1922 H   0  0  0  0  0  0
  -28.3962  -32.6886   25.0402 H   0  0  0  0  0  0
  -28.0617  -31.8613   26.5584 H   0  0  0  0  0  0
  -28.2593  -38.0018   24.7469 H   0  0  0  0  0  0
  -28.1072  -36.2553   24.6388 H   0  0  0  0  0  0
  -27.2259  -37.1445   25.8860 H   0  0  0  0  0  0
  -20.9698  -29.8809   21.6582 H   0  0  0  0  0  0
  -26.0138  -38.2689   24.1346 H   0  0  0  0  0  0
  -30.4647  -18.5195   21.7360 H   0  0  0  0  0  0
  -31.3776  -18.5406   20.2320 H   0  0  0  0  0  0
  -27.7959  -17.7037   20.7547 H   0  0  0  0  0  0
  -28.0988  -17.5836   19.0200 H   0  0  0  0  0  0
  -29.5622  -19.5933   18.9684 H   0  0  0  0  0  0
  -24.9502  -20.4566   22.0041 H   0  0  0  0  0  0
  -25.0048  -22.1224   22.5991 H   0  0  0  0  0  0
  -25.8123  -20.8426   23.5034 H   0  0  0  0  0  0
  -27.9092  -23.9831   18.7375 H   0  0  0  0  0  0
  -29.4918  -24.0240   19.3762 H   0  0  0  0  0  0
  1 25  1  0  0  0
  1 30  2  0  0  0
  1 81  1  0  0  0
  2  3  1  0  0  0
  2 25  1  0  0  0
  2 82  1  0  0  0
  2 83  1  0  0  0
  3  4  1  0  0  0
  3 84  1  0  0  0
  3 85  1  0  0  0
  4  5  1  0  0  0
  4 86  1  0  0  0
  4 87  1  0  0  0
  5  6  1  0  0  0
  5 26  1  0  0  0
  5 88  1  0  0  0
  6 25  1  0  0  0
  6 89  1  0  0  0
  6 90  1  0  0  0
  7  8  2  0  0  0
  7 26  1  0  0  0
  7 29  1  0  0  0
  8  9  1  0  0  0
  8 22  1  0  0  0
  9 10  1  0  0  0
  9 27  2  0  0  0
 10 11  2  0  0  0
 10 15  1  0  0  0
 11 12  1  0  0  0
 11 91  1  0  0  0
 12 13  2  0  0  0
 12 92  1  0  0  0
 13 14  1  0  0  0
 13 31  1  0  0  0
 14 15  2  0  0  0
 14 93  1  0  0  0
 15 94  1  0  0  0
 16 17  2  0  0  0
 16 21  1  0  0  0
 16 31  1  0  0  0
 17 18  1  0  0  0
 17 95  1  0  0  0
 18 19  2  0  0  0
 18 96  1  0  0  0
 19 20  1  0  0  0
 19 24  1  0  0  0
 20 21  2  0  0  0
 20 97  1  0  0  0
 21 23  1  0  0  0
 22 28  1  0  0  0
 22 32  2  0  0  0
 26 27  1  0  0  0
 28 98  1  0  0  0
 28 99  1  0  0  0
 29100  1  0  0  0
 29101  1  0  0  0
 33 34  1  0  0  0
 33 66  1  0  0  0
 33 70  2  0  0  0
 34 36  1  0  0  0
 34 59  1  0  0  0
 34102  1  0  0  0
 35 44  2  0  0  0
 35 45  1  0  0  0
 35 68  1  0  0  0
 36 56  1  0  0  0
 36103  1  0  0  0
 37 39  1  0  0  0
 37 47  1  0  0  0
 37 66  1  0  0  0
 37104  1  0  0  0
 38 43  2  0  0  0
 38 46  1  0  0  0
 38 47  1  0  0  0
 39 64  1  0  0  0
 39 67  2  0  0  0
 40 52  1  0  0  0
 40 53  2  0  0  0
 40 58  1  0  0  0
 41105  1  0  0  0
 41106  1  0  0  0
 41107  1  0  0  0
 41 48  1  0  0  0
 42 43  1  0  0  0
 42 66  1  0  0  0
 42108  1  0  0  0
 42109  1  0  0  0
 43 44  1  0  0  0
 44110  1  0  0  0
 45 46  2  0  0  0
 45111  1  0  0  0
 46112  1  0  0  0
 47113  1  0  0  0
 47114  1  0  0  0
 48 56  1  0  0  0
 48 65  1  0  0  0
 48115  1  0  0  0
 49 50  1  0  0  0
 49 53  1  0  0  0
 49 64  1  0  0  0
 49116  1  0  0  0
 50 51  1  0  0  0
 50117  1  0  0  0
 50118  1  0  0  0
 51 52  1  0  0  0
 51119  1  0  0  0
 51120  1  0  0  0
 52121  1  0  0  0
 52122  1  0  0  0
 53 54  1  0  0  0
 54 55  2  0  0  0
 54123  1  0  0  0
 55 57  1  0  0  0
 55124  1  0  0  0
 56 69  2  0  0  0
 57 58  2  0  0  0
 57125  1  0  0  0
 58126  1  0  0  0
 59 60  1  0  0  0
 59 61  1  0  0  0
 59 62  1  0  0  0
 60127  1  0  0  0
 60128  1  0  0  0
 60129  1  0  0  0
 61130  1  0  0  0
 61131  1  0  0  0
 61132  1  0  0  0
 62133  1  0  0  0
 62134  1  0  0  0
 62135  1  0  0  0
 63 65  1  0  0  0
 63136  1  0  0  0
 63137  1  0  0  0
 63138  1  0  0  0
 64139  1  0  0  0
 65140  1  0  0  0
 68 77  1  0  0  0
 71 76  1  0  0  0
 71 78  1  0  0  0
 71 79  2  0  0  0
 72 77  1  0  0  0
 72 78  2  0  0  0
 72 80  1  0  0  0
 73 75  1  0  0  0
 73 81  1  0  0  0
 73141  1  0  0  0
 73142  1  0  0  0
 74 75  1  0  0  0
 74 81  1  0  0  0
 74143  1  0  0  0
 74144  1  0  0  0
 75 80  1  0  0  0
 75145  1  0  0  0
 76146  1  0  0  0
 76147  1  0  0  0
 76148  1  0  0  0
 77149  1  0  0  0
 77150  1  0  0  0
 79 80  1  0  0  0
M  ISO  4   1 100  68 101  77 101  81 100
M  END
> <chiral flag>
0

> <version>
0

> <s_m_source_file>
/data/baiqing/PycharmProjects/Reinvent-master-3.2/result/LINK_invent/BTK/process_docking_weight1_custom_sum_contain_oxygen_bond_distance_aromatic_linkinvent_7_9_3/rearranged_h_0189.sdf

> <i_m_source_file_index>
42

> <r_mmod_Potential_Energy-OPLS-2005>
2161.84936523438

> <r_mmod_Stretch_Energy-OPLS-2005>
840.940856933594

> <r_mmod_Bend_Energy-OPLS-2005>
756.832336425781

> <r_mmod_Torsional_Energy-OPLS-2005>
290.723815917969

> <r_mmod_Improper_Torsional_Energy-OPLS-2005>
4.40203142166138

> <r_mmod_Van_der_Waal_Energy-OPLS-2005>
101.574981689453

> <r_mmod_Electrostatic_Energy-OPLS-2005>
-330.886077880859

> <r_mmod_Solvation_Energy-OPLS-2005>
-236.385803222656

> <b_mmod_Minimization_Converged-OPLS-2005>
0

> <r_mmod_RMS_Derivative-OPLS-2005>
6.8538761138916

$$$$
42
                    3D
 Structure written by MMmdl.
166175  0  0  1  0            999 V2000
  -30.7206  -14.5874   20.3841 C   0  0  0  0  0  0
  -30.4003  -12.3297   19.4515 C   0  0  0  0  0  0
  -29.4911  -12.4026   18.2111 C   0  0  0  0  0  0
  -27.9976  -12.3466   18.6146 C   0  0  0  0  0  0
  -27.6267  -13.2156   19.8574 C   0  0  2  0  0  0
  -28.6964  -13.1579   20.9675 C   0  0  0  0  0  0
  -25.2523  -13.8188   20.5752 C   0  0  0  0  0  0
  -24.1778  -13.0449   20.9200 C   0  0  0  0  0  0
  -24.6347  -11.6916   20.8785 C   0  0  0  0  0  0
  -23.9032  -10.4308   21.0405 C   0  0  0  0  0  0
  -24.3617   -9.4248   21.9181 C   0  0  0  0  0  0
  -23.6307   -8.2281   22.0776 C   0  0  0  0  0  0
  -22.4309   -8.0269   21.3558 C   0  0  0  0  0  0
  -21.9924   -9.0249   20.4681 C   0  0  0  0  0  0
  -22.7220  -10.2137   20.3071 C   0  0  0  0  0  0
  -21.6896   -6.0722   22.5256 C   0  0  0  0  0  0
  -21.4024   -6.5615   23.8183 C   0  0  0  0  0  0
  -21.3689   -5.6764   24.9140 C   0  0  0  0  0  0
  -21.6078   -4.3029   24.7202 C   0  0  0  0  0  0
  -21.8825   -3.8118   23.4323 C   0  0  0  0  0  0
  -21.9216   -4.6941   22.3378 C   0  0  0  0  0  0
  -22.7820  -13.5266   21.1761 C   0  0  0  0  0  0
  -22.1664   -4.2130   21.0957 F   0  0  0  0  0  0
  -21.5676   -3.4505   25.7720 F   0  0  0  0  0  0
  -29.9931  -13.4304   20.3414 N   0  0  0  0  0  0
  -26.2890  -12.9312   20.3452 N   0  0  0  0  0  0
  -25.9284  -11.6476   20.5911 N   0  0  0  0  0  0
  -22.0424  -12.8316   22.0321 N   0  0  0  0  0  0
  -25.4282  -15.1921   20.4136 N   0  0  0  0  0  0
  -31.9453  -14.5583   20.2762 O   0  0  0  0  0  0
  -21.6683   -6.8873   21.4231 O   0  0  0  0  0  0
  -22.3550  -14.5550   20.6553 O   0  0  0  0  0  0
  -24.6176  -31.8669   23.2091 C   0  0  0  0  0  0
  -25.9088  -32.4828   23.8383 C   0  0  1  0  0  0
  -27.2128  -27.4173   20.1173 C   0  0  0  0  0  0
  -25.5974  -33.8619   24.2302 N   0  0  0  0  0  0
  -23.4045  -30.4946   21.5440 C   0  0  2  0  0  0
  -24.8486  -28.9714   20.0980 C   0  0  0  0  0  0
  -22.7428  -29.4667   22.4920 C   0  0  0  0  0  0
  -18.0275  -28.1367   22.8461 C   0  0  0  0  0  0
  -24.1484  -36.7370   23.2625 C   0  0  0  0  0  0
  -25.9312  -30.8405   21.3533 C   0  0  0  0  0  0
  -26.0065  -29.4693   20.7074 C   0  0  0  0  0  0
  -27.1914  -28.6979   20.7244 C   0  0  0  0  0  0
  -26.0562  -26.9663   19.4445 C   0  0  0  0  0  0
  -24.8706  -27.7194   19.4592 C   0  0  0  0  0  0
  -23.6119  -29.8383   20.1528 C   0  0  0  0  0  0
  -25.4088  -36.3097   24.0310 C   0  0  1  0  0  0
  -20.5884  -28.3651   23.1292 C   0  0  2  0  0  0
  -20.6770  -26.9381   22.5404 C   0  0  0  0  0  0
  -19.5761  -26.6344   21.5203 C   0  0  0  0  0  0
  -18.1915  -26.7911   22.1578 C   0  0  0  0  0  0
  -19.1533  -28.8810   23.2870 C   0  0  0  0  0  0
  -18.9468  -30.1427   23.8891 C   0  0  0  0  0  0
  -17.6478  -30.6566   24.0560 C   0  0  0  0  0  0
  -25.9028  -34.9493   23.5064 C   0  0  0  0  0  0
  -16.5352  -29.9091   23.6333 C   0  0  0  0  0  0
  -16.7271  -28.6508   23.0322 C   0  0  0  0  0  0
  -26.4513  -31.6635   25.0735 C   0  0  0  0  0  0
  -25.3806  -31.3802   26.1528 C   0  0  0  0  0  0
  -27.0411  -30.3107   24.6126 C   0  0  0  0  0  0
  -27.6039  -32.4375   25.7566 C   0  0  0  0  0  0
  -27.5560  -37.1814   24.8433 C   0  0  0  0  0  0
  -21.4138  -29.3075   22.3741 N   0  0  0  0  0  0
  -26.4247  -37.3796   23.9413 N   0  0  0  0  0  0
  -24.6694  -31.0825   22.0945 N   0  0  0  0  0  0
  -23.4220  -28.8148   23.2888 O   0  0  0  0  0  0
  -28.3330  -26.5996   20.1867 O   0  0  0  0  0  0
  -26.5532  -34.8935   22.4593 O   0  0  0  0  0  0
  -23.5369  -32.1416   23.7506 O   0  0  0  0  0  0
  -27.0340  -23.8173   21.8864 C   0  0  0  0  0  0
  -29.0471  -23.3134   21.0785 C   0  0  0  0  0  0
  -28.2037  -25.3595   20.7636 C   0  0  0  0  0  0
  -29.4550  -15.9857   18.8147 C   0  0  0  0  0  0
  -30.4334  -16.5142   17.7233 C   0  0  0  0  0  0
  -32.0057  -17.3158   19.4778 C   0  0  0  0  0  0
  -30.8046  -17.1012   20.4620 C   0  0  1  0  0  0
  -25.7643  -23.4079   22.6180 C   0  0  0  0  0  0
  -30.1678  -22.2759   20.9354 C   0  0  0  0  0  0
  -29.8830  -18.3959   20.4745 C   0  0  0  0  0  0
  -30.4660  -19.7406   21.0535 C   0  0  0  0  0  0
  -27.9590  -22.8797   21.7153 N   0  0  0  0  0  0
  -27.1040  -25.0706   21.4627 N   0  0  0  0  0  0
  -29.2284  -24.5317   20.5596 N   0  0  0  0  0  0
  -30.0963  -15.7972   20.1445 N   0  0  0  0  0  0
  -31.8324  -16.5859   18.2010 N   0  3  0  0  0  0
  -29.5696  -20.9221   20.8396 N   0  3  0  0  0  0
  -31.4481  -12.3921   19.1538 H   0  0  0  0  0  0
  -30.2842  -11.3638   19.9470 H   0  0  0  0  0  0
  -29.7117  -11.5776   17.5359 H   0  0  0  0  0  0
  -29.7224  -13.2930   17.6330 H   0  0  0  0  0  0
  -27.7610  -11.3008   18.8154 H   0  0  0  0  0  0
  -27.3754  -12.6259   17.7631 H   0  0  0  0  0  0
  -27.5774  -14.2422   19.5228 H   0  0  0  0  0  0
  -28.7051  -12.1752   21.4440 H   0  0  0  0  0  0
  -28.4846  -13.8840   21.7559 H   0  0  0  0  0  0
  -25.2775   -9.5765   22.4732 H   0  0  0  0  0  0
  -24.0053   -7.4705   22.7506 H   0  0  0  0  0  0
  -21.0864   -8.8739   19.8993 H   0  0  0  0  0  0
  -22.3649  -10.9670   19.6168 H   0  0  0  0  0  0
  -21.1974   -7.6113   23.9680 H   0  0  0  0  0  0
  -21.1540   -6.0487   25.9053 H   0  0  0  0  0  0
  -22.0602   -2.7580   23.2811 H   0  0  0  0  0  0
  -22.3979  -11.9986   22.4765 H   0  0  0  0  0  0
  -21.1049  -13.1432   22.2403 H   0  0  0  0  0  0
  -24.6739  -15.8624   20.5190 H   0  0  0  0  0  0
  -26.3015  -15.6315   20.1539 H   0  0  0  0  0  0
  -26.7168  -32.5537   23.1155 H   0  0  0  0  0  0
  -25.0330  -33.9775   25.0584 H   0  0  0  0  0  0
  -22.6970  -31.3132   21.4064 H   0  0  0  0  0  0
  -23.3720  -35.9734   23.3246 H   0  0  0  0  0  0
  -24.3589  -36.9049   22.2053 H   0  0  0  0  0  0
  -23.7291  -37.6571   23.6690 H   0  0  0  0  0  0
  -26.0238  -31.5982   20.5732 H   0  0  0  0  0  0
  -26.8266  -30.9092   21.9594 H   0  0  0  0  0  0
  -28.0788  -29.0674   21.2213 H   0  0  0  0  0  0
  -26.0566  -25.9997   18.9571 H   0  0  0  0  0  0
  -23.9879  -27.3393   18.9677 H   0  0  0  0  0  0
  -23.7246  -30.6201   19.4004 H   0  0  0  0  0  0
  -22.7349  -29.2655   19.8475 H   0  0  0  0  0  0
  -25.1265  -36.1912   25.0798 H   0  0  0  0  0  0
  -20.9965  -28.3183   24.1410 H   0  0  0  0  0  0
  -20.5651  -26.2238   23.3578 H   0  0  0  0  0  0
  -21.6627  -26.7391   22.1203 H   0  0  0  0  0  0
  -19.6926  -25.6247   21.1241 H   0  0  0  0  0  0
  -19.6732  -27.3118   20.6707 H   0  0  0  0  0  0
  -17.4192  -26.6655   21.3966 H   0  0  0  0  0  0
  -18.0307  -26.0069   22.8975 H   0  0  0  0  0  0
  -19.7953  -30.7233   24.2232 H   0  0  0  0  0  0
  -17.5042  -31.6253   24.5158 H   0  0  0  0  0  0
  -15.5356  -30.2974   23.7703 H   0  0  0  0  0  0
  -15.8654  -28.0856   22.7013 H   0  0  0  0  0  0
  -24.5898  -30.7200   25.7966 H   0  0  0  0  0  0
  -24.9113  -32.3001   26.5022 H   0  0  0  0  0  0
  -25.8188  -30.8979   27.0276 H   0  0  0  0  0  0
  -26.2996  -29.6809   24.1191 H   0  0  0  0  0  0
  -27.4260  -29.7397   25.4590 H   0  0  0  0  0  0
  -27.8756  -30.4516   23.9257 H   0  0  0  0  0  0
  -27.2598  -33.3645   26.2179 H   0  0  0  0  0  0
  -28.3896  -32.6982   25.0464 H   0  0  0  0  0  0
  -28.0664  -31.8491   26.5507 H   0  0  0  0  0  0
  -28.2500  -38.0180   24.7524 H   0  0  0  0  0  0
  -28.1100  -36.2699   24.6144 H   0  0  0  0  0  0
  -27.2288  -37.1354   25.8834 H   0  0  0  0  0  0
  -20.9232  -29.8978   21.7167 H   0  0  0  0  0  0
  -26.0121  -38.2843   24.1472 H   0  0  0  0  0  0
  -29.0466  -15.0738   18.4100 H   0  0  0  0  0  0
  -28.5731  -16.6227   18.8967 H   0  0  0  0  0  0
  -30.1095  -17.4942   17.3710 H   0  0  0  0  0  0
  -30.3997  -15.8641   16.8483 H   0  0  0  0  0  0
  -32.9358  -16.9536   19.9221 H   0  0  0  0  0  0
  -32.1842  -18.3676   19.2599 H   0  0  0  0  0  0
  -31.2207  -16.9936   21.4662 H   0  0  0  0  0  0
  -25.8630  -22.4307   23.0957 H   0  0  0  0  0  0
  -24.9249  -23.3463   21.9257 H   0  0  0  0  0  0
  -25.5094  -24.1294   23.3940 H   0  0  0  0  0  0
  -30.7984  -22.3470   21.8219 H   0  0  0  0  0  0
  -30.7978  -22.4908   20.0716 H   0  0  0  0  0  0
  -28.9529  -18.1677   20.9961 H   0  0  0  0  0  0
  -29.5966  -18.6235   19.4463 H   0  0  0  0  0  0
  -31.4278  -19.9679   20.5914 H   0  0  0  0  0  0
  -30.6653  -19.6385   22.1231 H   0  0  0  0  0  0
  -32.4407  -16.9636   17.4913 H   0  0  0  0  0  0
  -32.1302  -15.6380   18.3837 H   0  0  0  0  0  0
  -29.1155  -20.8888   19.9447 H   0  0  0  0  0  0
  -28.8333  -20.9868   21.5342 H   0  0  0  0  0  0
  1 25  1  0  0  0
  1 30  2  0  0  0
  1 85  1  0  0  0
  2  3  1  0  0  0
  2 25  1  0  0  0
  2 88  1  0  0  0
  2 89  1  0  0  0
  3  4  1  0  0  0
  3 90  1  0  0  0
  3 91  1  0  0  0
  4  5  1  0  0  0
  4 92  1  0  0  0
  4 93  1  0  0  0
  5  6  1  0  0  0
  5 26  1  0  0  0
  5 94  1  0  0  0
  6 25  1  0  0  0
  6 95  1  0  0  0
  6 96  1  0  0  0
  7  8  2  0  0  0
  7 26  1  0  0  0
  7 29  1  0  0  0
  8  9  1  0  0  0
  8 22  1  0  0  0
  9 10  1  0  0  0
  9 27  2  0  0  0
 10 11  2  0  0  0
 10 15  1  0  0  0
 11 12  1  0  0  0
 11 97  1  0  0  0
 12 13  2  0  0  0
 12 98  1  0  0  0
 13 14  1  0  0  0
 13 31  1  0  0  0
 14 15  2  0  0  0
 14 99  1  0  0  0
 15100  1  0  0  0
 16 17  2  0  0  0
 16 21  1  0  0  0
 16 31  1  0  0  0
 17 18  1  0  0  0
 17101  1  0  0  0
 18 19  2  0  0  0
 18102  1  0  0  0
 19 20  1  0  0  0
 19 24  1  0  0  0
 20 21  2  0  0  0
 20103  1  0  0  0
 21 23  1  0  0  0
 22 28  1  0  0  0
 22 32  2  0  0  0
 26 27  1  0  0  0
 28104  1  0  0  0
 28105  1  0  0  0
 29106  1  0  0  0
 29107  1  0  0  0
 33 34  1  0  0  0
 33 66  1  0  0  0
 33 70  2  0  0  0
 34 36  1  0  0  0
 34 59  1  0  0  0
 34108  1  0  0  0
 35 44  2  0  0  0
 35 45  1  0  0  0
 35 68  1  0  0  0
 36 56  1  0  0  0
 36109  1  0  0  0
 37 39  1  0  0  0
 37 47  1  0  0  0
 37 66  1  0  0  0
 37110  1  0  0  0
 38 43  2  0  0  0
 38 46  1  0  0  0
 38 47  1  0  0  0
 39 64  1  0  0  0
 39 67  2  0  0  0
 40 52  1  0  0  0
 40 53  2  0  0  0
 40 58  1  0  0  0
 41111  1  0  0  0
 41112  1  0  0  0
 41113  1  0  0  0
 41 48  1  0  0  0
 42 43  1  0  0  0
 42 66  1  0  0  0
 42114  1  0  0  0
 42115  1  0  0  0
 43 44  1  0  0  0
 44116  1  0  0  0
 45 46  2  0  0  0
 45117  1  0  0  0
 46118  1  0  0  0
 47119  1  0  0  0
 47120  1  0  0  0
 48 56  1  0  0  0
 48 65  1  0  0  0
 48121  1  0  0  0
 49 50  1  0  0  0
 49 53  1  0  0  0
 49 64  1  0  0  0
 49122  1  0  0  0
 50 51  1  0  0  0
 50123  1  0  0  0
 50124  1  0  0  0
 51 52  1  0  0  0
 51125  1  0  0  0
 51126  1  0  0  0
 52127  1  0  0  0
 52128  1  0  0  0
 53 54  1  0  0  0
 54 55  2  0  0  0
 54129  1  0  0  0
 55 57  1  0  0  0
 55130  1  0  0  0
 56 69  2  0  0  0
 57 58  2  0  0  0
 57131  1  0  0  0
 58132  1  0  0  0
 59 60  1  0  0  0
 59 61  1  0  0  0
 59 62  1  0  0  0
 60133  1  0  0  0
 60134  1  0  0  0
 60135  1  0  0  0
 61136  1  0  0  0
 61137  1  0  0  0
 61138  1  0  0  0
 62139  1  0  0  0
 62140  1  0  0  0
 62141  1  0  0  0
 63 65  1  0  0  0
 63142  1  0  0  0
 63143  1  0  0  0
 63144  1  0  0  0
 64145  1  0  0  0
 65146  1  0  0  0
 68 73  1  0  0  0
 71 78  1  0  0  0
 71 82  2  0  0  0
 71 83  1  0  0  0
 72 79  1  0  0  0
 72 82  1  0  0  0
 72 84  2  0  0  0
 73 83  2  0  0  0
 73 84  1  0  0  0
 74 75  1  0  0  0
 74 85  1  0  0  0
 74147  1  0  0  0
 74148  1  0  0  0
 75 86  1  0  0  0
 75149  1  0  0  0
 75150  1  0  0  0
 76 77  1  0  0  0
 76 86  1  0  0  0
 76151  1  0  0  0
 76152  1  0  0  0
 77 80  1  0  0  0
 77 85  1  0  0  0
 77153  1  0  0  0
 78154  1  0  0  0
 78155  1  0  0  0
 78156  1  0  0  0
 79 87  1  0  0  0
 79157  1  0  0  0
 79158  1  0  0  0
 80 81  1  0  0  0
 80159  1  0  0  0
 80160  1  0  0  0
 81 87  1  0  0  0
 81161  1  0  0  0
 81162  1  0  0  0
 86163  1  0  0  0
 86164  1  0  0  0
 87165  1  0  0  0
 87166  1  0  0  0
M  CHG  2  86   1  87   1
M  ISO  4   1 100  68 101  73 101  85 100
M  END
> <chiral flag>
0

> <version>
0

> <s_m_source_file>
/data/baiqing/PycharmProjects/Reinvent-master-3.2/result/LINK_invent/BTK/process_docking_weight1_custom_sum_contain_oxygen_bond_distance_aromatic_linkinvent_7_9_3/rearranged_h_0189.sdf

> <i_m_source_file_index>
43

> <r_mmod_Potential_Energy-OPLS-2005>
-823.278198242188

> <r_mmod_Stretch_Energy-OPLS-2005>
60.3118324279785

> <r_mmod_Bend_Energy-OPLS-2005>
138.808242797852

> <r_mmod_Torsional_Energy-OPLS-2005>
416.883880615234

> <r_mmod_Improper_Torsional_Energy-OPLS-2005>
15.1805276870728

> <r_mmod_Van_der_Waal_Energy-OPLS-2005>
215.885559082031

> <r_mmod_Electrostatic_Energy-OPLS-2005>
-773.679809570312

> <r_mmod_Solvation_Energy-OPLS-2005>
-946.913146972656

> <b_mmod_Minimization_Converged-OPLS-2005>
0

> <r_mmod_RMS_Derivative-OPLS-2005>
5.75590038299561

$$$$
43
                    3D
 Structure written by MMmdl.
149158  0  0  1  0            999 V2000
  -30.4778  -15.5183   20.3075 C   0  0  0  0  0  0
  -30.4185  -13.0034   19.5049 C   0  0  0  0  0  0
  -29.5367  -12.6117   18.2951 C   0  0  0  0  0  0
  -28.1098  -12.2901   18.7606 C   0  0  0  0  0  0
  -27.6015  -13.3102   19.8076 C   0  0  2  0  0  0
  -28.6395  -13.6580   20.9048 C   0  0  0  0  0  0
  -25.2362  -13.8326   20.5843 C   0  0  0  0  0  0
  -24.1740  -13.0470   20.9330 C   0  0  0  0  0  0
  -24.6450  -11.6977   20.8810 C   0  0  0  0  0  0
  -23.9152  -10.4312   21.0426 C   0  0  0  0  0  0
  -24.3675   -9.4211   21.9196 C   0  0  0  0  0  0
  -23.6322   -8.2258   22.0769 C   0  0  0  0  0  0
  -22.4304   -8.0314   21.3563 C   0  0  0  0  0  0
  -21.9956   -9.0312   20.4676 C   0  0  0  0  0  0
  -22.7323  -10.2172   20.3074 C   0  0  0  0  0  0
  -21.6861   -6.0754   22.5271 C   0  0  0  0  0  0
  -21.4022   -6.5649   23.8211 C   0  0  0  0  0  0
  -21.3665   -5.6794   24.9166 C   0  0  0  0  0  0
  -21.6034   -4.3056   24.7216 C   0  0  0  0  0  0
  -21.8814   -3.8157   23.4329 C   0  0  0  0  0  0
  -21.9181   -4.6979   22.3387 C   0  0  0  0  0  0
  -22.7733  -13.5203   21.1907 C   0  0  0  0  0  0
  -22.1646   -4.2164   21.0966 F   0  0  0  0  0  0
  -21.5639   -3.4533   25.7733 F   0  0  0  0  0  0
  -29.8186  -14.2262   20.2073 N   0  0  0  0  0  0
  -26.2839  -12.9673   20.3326 N   0  0  0  0  0  0
  -25.9405  -11.6742   20.5775 N   0  0  0  0  0  0
  -22.0356  -12.8222   22.0449 N   0  0  0  0  0  0
  -25.3937  -15.2066   20.4229 N   0  0  0  0  0  0
  -31.6959  -15.2919   20.2154 O   0  0  0  0  0  0
  -21.6652   -6.8916   21.4246 O   0  0  0  0  0  0
  -22.3428  -14.5492   20.6710 O   0  0  0  0  0  0
  -24.6789  -31.8064   23.1594 C   0  0  0  0  0  0
  -25.9392  -32.4505   23.8108 C   0  0  1  0  0  0
  -27.2213  -26.7789   20.1864 C   0  0  0  0  0  0
  -25.5994  -33.8332   24.1990 N   0  0  0  0  0  0
  -23.5016  -30.4139   21.5104 C   0  0  2  0  0  0
  -24.9547  -28.7696   20.1169 C   0  0  0  0  0  0
  -22.7739  -29.4362   22.4731 C   0  0  0  0  0  0
  -18.0335  -28.1421   22.8448 C   0  0  0  0  0  0
  -24.1490  -36.7167   23.2650 C   0  0  0  0  0  0
  -26.0803  -30.5618   21.4127 C   0  0  0  0  0  0
  -26.1448  -29.1366   20.7585 C   0  0  0  0  0  0
  -27.2674  -28.1654   20.7627 C   0  0  0  0  0  0
  -25.9953  -26.6015   19.4985 C   0  0  0  0  0  0
  -24.9138  -27.5262   19.4677 C   0  0  0  0  0  0
  -23.7494  -29.7167   20.1433 C   0  0  0  0  0  0
  -25.4143  -36.2930   24.0281 C   0  0  1  0  0  0
  -20.5962  -28.3789   23.1144 C   0  0  2  0  0  0
  -20.6811  -26.9455   22.5401 C   0  0  0  0  0  0
  -19.5791  -26.6382   21.5214 C   0  0  0  0  0  0
  -18.1972  -26.7947   22.1617 C   0  0  0  0  0  0
  -19.1594  -28.8933   23.2777 C   0  0  0  0  0  0
  -18.9506  -30.1510   23.8830 C   0  0  0  0  0  0
  -17.6498  -30.6610   24.0557 C   0  0  0  0  0  0
  -25.9119  -34.9309   23.4974 C   0  0  0  0  0  0
  -16.5391  -29.9090   23.6354 C   0  0  0  0  0  0
  -16.7314  -28.6512   23.0371 C   0  0  0  0  0  0
  -26.4596  -31.6514   25.0698 C   0  0  0  0  0  0
  -25.3660  -31.3826   26.1310 C   0  0  0  0  0  0
  -27.0520  -30.2861   24.6565 C   0  0  0  0  0  0
  -27.6058  -32.4344   25.7517 C   0  0  0  0  0  0
  -27.5568  -37.1746   24.8466 C   0  0  0  0  0  0
  -21.4385  -29.3045   22.3468 N   0  0  0  0  0  0
  -26.4292  -37.3670   23.9394 N   0  0  0  0  0  0
  -24.7766  -30.9579   22.0807 N   0  0  0  0  0  0
  -23.4205  -28.7951   23.3040 O   0  0  0  0  0  0
  -28.1951  -25.5952   20.2241 O   0  0  0  0  0  0
  -26.5752  -34.8886   22.4583 O   0  0  0  0  0  0
  -23.5818  -32.1115   23.6575 O   0  0  0  0  0  0
  -30.7125  -21.0178   19.4159 C   0  0  0  0  0  0
  -30.2478  -19.6907   19.7484 C   0  0  0  0  0  0
  -29.0099  -19.6747   20.2936 C   0  0  0  0  0  0
  -28.7637  -22.3027   20.1310 C   0  0  0  0  0  0
  -28.7901  -18.0156   20.5462 C   0  0  0  0  0  0
  -30.8629  -18.1972   19.5846 C   0  0  1  0  0  0
  -32.3514  -18.2156   20.0026 C   0  0  0  0  0  0
  -27.8732  -23.9053   20.1879 C   0  0  0  0  0  0
  -30.0137  -22.2203   19.6009 N   0  0  0  0  0  0
  -28.2848  -20.9592   20.4646 N   0  0  0  0  0  0
  -30.0016  -16.9967   20.1598 N   0  0  0  0  0  0
  -31.4257  -13.1909   19.1311 H   0  0  0  0  0  0
  -30.5334  -12.1675   20.1955 H   0  0  0  0  0  0
  -29.9711  -11.7597   17.7667 H   0  0  0  0  0  0
  -29.5163  -13.4355   17.5827 H   0  0  0  0  0  0
  -28.1292  -11.2950   19.2086 H   0  0  0  0  0  0
  -27.4303  -12.2321   17.9088 H   0  0  0  0  0  0
  -27.4616  -14.2257   19.2312 H   0  0  0  0  0  0
  -28.8863  -12.7909   21.5201 H   0  0  0  0  0  0
  -28.2363  -14.4132   21.5821 H   0  0  0  0  0  0
  -25.2813   -9.5688   22.4772 H   0  0  0  0  0  0
  -24.0030   -7.4644   22.7477 H   0  0  0  0  0  0
  -21.0880   -8.8852   19.8983 H   0  0  0  0  0  0
  -22.3784  -10.9722   19.6177 H   0  0  0  0  0  0
  -21.2026   -7.6157   23.9725 H   0  0  0  0  0  0
  -21.1498   -6.0518   25.9071 H   0  0  0  0  0  0
  -22.0587   -2.7624   23.2815 H   0  0  0  0  0  0
  -22.3967  -11.9949   22.4963 H   0  0  0  0  0  0
  -21.0946  -13.1265   22.2534 H   0  0  0  0  0  0
  -24.6219  -15.8551   20.5405 H   0  0  0  0  0  0
  -26.2328  -15.6525   20.0774 H   0  0  0  0  0  0
  -26.7472  -32.4989   23.0813 H   0  0  0  0  0  0
  -25.0051  -33.9370   25.0093 H   0  0  0  0  0  0
  -22.8258  -31.2521   21.3265 H   0  0  0  0  0  0
  -23.3768  -35.9478   23.3291 H   0  0  0  0  0  0
  -24.3565  -36.8847   22.2072 H   0  0  0  0  0  0
  -23.7251  -37.6351   23.6728 H   0  0  0  0  0  0
  -26.2796  -31.2912   20.6263 H   0  0  0  0  0  0
  -26.9343  -30.6206   22.0750 H   0  0  0  0  0  0
  -28.1690  -28.4468   21.2891 H   0  0  0  0  0  0
  -25.8342  -25.6625   18.9892 H   0  0  0  0  0  0
  -24.0114  -27.2374   18.9453 H   0  0  0  0  0  0
  -23.9200  -30.4793   19.3825 H   0  0  0  0  0  0
  -22.8540  -29.1812   19.8211 H   0  0  0  0  0  0
  -25.1354  -36.1705   25.0776 H   0  0  0  0  0  0
  -21.0060  -28.3423   24.1256 H   0  0  0  0  0  0
  -20.5712  -26.2408   23.3649 H   0  0  0  0  0  0
  -21.6673  -26.7414   22.1213 H   0  0  0  0  0  0
  -19.6959  -25.6275   21.1292 H   0  0  0  0  0  0
  -19.6745  -27.3149   20.6709 H   0  0  0  0  0  0
  -17.4242  -26.6676   21.4022 H   0  0  0  0  0  0
  -18.0374  -26.0113   22.9043 H   0  0  0  0  0  0
  -19.7986  -30.7337   24.2185 H   0  0  0  0  0  0
  -17.5055  -31.6286   24.5160 H   0  0  0  0  0  0
  -15.5391  -30.2976   23.7725 H   0  0  0  0  0  0
  -15.8709  -28.0817   22.7120 H   0  0  0  0  0  0
  -24.5853  -30.7172   25.7611 H   0  0  0  0  0  0
  -24.8840  -32.3048   26.4562 H   0  0  0  0  0  0
  -25.7831  -30.9106   27.0209 H   0  0  0  0  0  0
  -26.3232  -29.6488   24.1556 H   0  0  0  0  0  0
  -27.3966  -29.7298   25.5293 H   0  0  0  0  0  0
  -27.9203  -30.4017   24.0074 H   0  0  0  0  0  0
  -27.2617  -33.3688   26.1962 H   0  0  0  0  0  0
  -28.3955  -32.6835   25.0413 H   0  0  0  0  0  0
  -28.0633  -31.8558   26.5557 H   0  0  0  0  0  0
  -28.2576  -38.0053   24.7503 H   0  0  0  0  0  0
  -28.1075  -36.2574   24.6300 H   0  0  0  0  0  0
  -27.2272  -37.1398   25.8870 H   0  0  0  0  0  0
  -20.9673  -29.8675   21.6521 H   0  0  0  0  0  0
  -26.0118  -38.2726   24.1394 H   0  0  0  0  0  0
  -31.6932  -21.1352   18.9748 H   0  0  0  0  0  0
  -27.9241  -17.7132   19.9545 H   0  0  0  0  0  0
  -28.5183  -17.8551   21.5878 H   0  0  0  0  0  0
  -30.8665  -18.0292   18.5042 H   0  0  0  0  0  0
  -32.4679  -18.3256   21.0811 H   0  0  0  0  0  0
  -32.8799  -19.0442   19.5263 H   0  0  0  0  0  0
  -32.8971  -17.3292   19.6866 H   0  0  0  0  0  0
  -27.2370  -23.7808   21.0631 H   0  0  0  0  0  0
  -27.1834  -23.8125   19.3485 H   0  0  0  0  0  0
  1 25  1  0  0  0
  1 30  2  0  0  0
  1 81  1  0  0  0
  2  3  1  0  0  0
  2 25  1  0  0  0
  2 82  1  0  0  0
  2 83  1  0  0  0
  3  4  1  0  0  0
  3 84  1  0  0  0
  3 85  1  0  0  0
  4  5  1  0  0  0
  4 86  1  0  0  0
  4 87  1  0  0  0
  5  6  1  0  0  0
  5 26  1  0  0  0
  5 88  1  0  0  0
  6 25  1  0  0  0
  6 89  1  0  0  0
  6 90  1  0  0  0
  7  8  2  0  0  0
  7 26  1  0  0  0
  7 29  1  0  0  0
  8  9  1  0  0  0
  8 22  1  0  0  0
  9 10  1  0  0  0
  9 27  2  0  0  0
 10 11  2  0  0  0
 10 15  1  0  0  0
 11 12  1  0  0  0
 11 91  1  0  0  0
 12 13  2  0  0  0
 12 92  1  0  0  0
 13 14  1  0  0  0
 13 31  1  0  0  0
 14 15  2  0  0  0
 14 93  1  0  0  0
 15 94  1  0  0  0
 16 17  2  0  0  0
 16 21  1  0  0  0
 16 31  1  0  0  0
 17 18  1  0  0  0
 17 95  1  0  0  0
 18 19  2  0  0  0
 18 96  1  0  0  0
 19 20  1  0  0  0
 19 24  1  0  0  0
 20 21  2  0  0  0
 20 97  1  0  0  0
 21 23  1  0  0  0
 22 28  1  0  0  0
 22 32  2  0  0  0
 26 27  1  0  0  0
 28 98  1  0  0  0
 28 99  1  0  0  0
 29100  1  0  0  0
 29101  1  0  0  0
 33 34  1  0  0  0
 33 66  1  0  0  0
 33 70  2  0  0  0
 34 36  1  0  0  0
 34 59  1  0  0  0
 34102  1  0  0  0
 35 44  2  0  0  0
 35 45  1  0  0  0
 35 68  1  0  0  0
 36 56  1  0  0  0
 36103  1  0  0  0
 37 39  1  0  0  0
 37 47  1  0  0  0
 37 66  1  0  0  0
 37104  1  0  0  0
 38 43  2  0  0  0
 38 46  1  0  0  0
 38 47  1  0  0  0
 39 64  1  0  0  0
 39 67  2  0  0  0
 40 52  1  0  0  0
 40 53  2  0  0  0
 40 58  1  0  0  0
 41105  1  0  0  0
 41106  1  0  0  0
 41107  1  0  0  0
 41 48  1  0  0  0
 42 43  1  0  0  0
 42 66  1  0  0  0
 42108  1  0  0  0
 42109  1  0  0  0
 43 44  1  0  0  0
 44110  1  0  0  0
 45 46  2  0  0  0
 45111  1  0  0  0
 46112  1  0  0  0
 47113  1  0  0  0
 47114  1  0  0  0
 48 56  1  0  0  0
 48 65  1  0  0  0
 48115  1  0  0  0
 49 50  1  0  0  0
 49 53  1  0  0  0
 49 64  1  0  0  0
 49116  1  0  0  0
 50 51  1  0  0  0
 50117  1  0  0  0
 50118  1  0  0  0
 51 52  1  0  0  0
 51119  1  0  0  0
 51120  1  0  0  0
 52121  1  0  0  0
 52122  1  0  0  0
 53 54  1  0  0  0
 54 55  2  0  0  0
 54123  1  0  0  0
 55 57  1  0  0  0
 55124  1  0  0  0
 56 69  2  0  0  0
 57 58  2  0  0  0
 57125  1  0  0  0
 58126  1  0  0  0
 59 60  1  0  0  0
 59 61  1  0  0  0
 59 62  1  0  0  0
 60127  1  0  0  0
 60128  1  0  0  0
 60129  1  0  0  0
 61130  1  0  0  0
 61131  1  0  0  0
 61132  1  0  0  0
 62133  1  0  0  0
 62134  1  0  0  0
 62135  1  0  0  0
 63 65  1  0  0  0
 63136  1  0  0  0
 63137  1  0  0  0
 63138  1  0  0  0
 64139  1  0  0  0
 65140  1  0  0  0
 68 78  1  0  0  0
 71 72  2  0  0  0
 71 79  1  0  0  0
 71141  1  0  0  0
 72 73  1  0  0  0
 72 76  1  0  0  0
 73 75  1  0  0  0
 73 80  2  0  0  0
 74 78  1  0  0  0
 74 79  2  0  0  0
 74 80  1  0  0  0
 75 81  1  0  0  0
 75142  1  0  0  0
 75143  1  0  0  0
 76 77  1  0  0  0
 76 81  1  0  0  0
 76144  1  0  0  0
 77145  1  0  0  0
 77146  1  0  0  0
 77147  1  0  0  0
 78148  1  0  0  0
 78149  1  0  0  0
M  ISO  4   1 100  68 101  78 101  81 100
M  END
> <chiral flag>
0

> <version>
0

> <s_m_source_file>
/data/baiqing/PycharmProjects/Reinvent-master-3.2/result/LINK_invent/BTK/process_docking_weight1_custom_sum_contain_oxygen_bond_distance_aromatic_linkinvent_7_9_3/rearranged_h_0189.sdf

> <i_m_source_file_index>
44

> <r_mmod_Potential_Energy-OPLS-2005>
1666.71655273438

> <r_mmod_Stretch_Energy-OPLS-2005>
781.047912597656

> <r_mmod_Bend_Energy-OPLS-2005>
635.244262695312

> <r_mmod_Torsional_Energy-OPLS-2005>
254.000244140625

> <r_mmod_Improper_Torsional_Energy-OPLS-2005>
11.5659313201904

> <r_mmod_Van_der_Waal_Energy-OPLS-2005>
131.647872924805

> <r_mmod_Electrostatic_Energy-OPLS-2005>
-629.401611328125

> <r_mmod_Solvation_Energy-OPLS-2005>
-247.878143310547

> <b_mmod_Minimization_Converged-OPLS-2005>
0

> <r_mmod_RMS_Derivative-OPLS-2005>
3.57229065895081

$$$$
44
                    3D
 Structure written by MMmdl.
163172  0  0  1  0            999 V2000
  -30.7447  -14.3756   20.6802 C   0  0  0  0  0  0
  -30.4195  -12.2989   19.3857 C   0  0  0  0  0  0
  -29.4828  -12.5399   18.1867 C   0  0  0  0  0  0
  -28.0068  -12.3846   18.6010 C   0  0  0  0  0  0
  -27.6635  -13.2001   19.8750 C   0  0  2  0  0  0
  -28.7004  -12.9326   20.9862 C   0  0  0  0  0  0
  -25.2609  -13.8162   20.5656 C   0  0  0  0  0  0
  -24.1856  -13.0450   20.9163 C   0  0  0  0  0  0
  -24.6390  -11.6908   20.8711 C   0  0  0  0  0  0
  -23.9059  -10.4286   21.0387 C   0  0  0  0  0  0
  -24.3611   -9.4207   21.9175 C   0  0  0  0  0  0
  -23.6293   -8.2238   22.0741 C   0  0  0  0  0  0
  -22.4276   -8.0271   21.3532 C   0  0  0  0  0  0
  -21.9907   -9.0241   20.4637 C   0  0  0  0  0  0
  -22.7225  -10.2128   20.3040 C   0  0  0  0  0  0
  -21.6858   -6.0727   22.5270 C   0  0  0  0  0  0
  -21.4005   -6.5635   23.8201 C   0  0  0  0  0  0
  -21.3660   -5.6793   24.9168 C   0  0  0  0  0  0
  -21.6047   -4.3054   24.7220 C   0  0  0  0  0  0
  -21.8823   -3.8141   23.4342 C   0  0  0  0  0  0
  -21.9194   -4.6955   22.3402 C   0  0  0  0  0  0
  -22.7876  -13.5248   21.1841 C   0  0  0  0  0  0
  -22.1669   -4.2140   21.0983 F   0  0  0  0  0  0
  -21.5634   -3.4542   25.7740 F   0  0  0  0  0  0
  -30.0413  -13.2369   20.4520 N   0  0  0  0  0  0
  -26.3029  -12.9306   20.3348 N   0  0  0  0  0  0
  -25.9310  -11.6476   20.5728 N   0  0  0  0  0  0
  -22.0519  -12.8218   22.0386 N   0  0  0  0  0  0
  -25.4434  -15.1869   20.4059 N   0  0  0  0  0  0
  -31.7971  -14.6590   20.0973 O   0  0  0  0  0  0
  -21.6647   -6.8868   21.4234 O   0  0  0  0  0  0
  -22.3551  -14.5552   20.6700 O   0  0  0  0  0  0
  -24.6091  -31.8710   23.2137 C   0  0  0  0  0  0
  -25.9006  -32.4840   23.8413 C   0  0  1  0  0  0
  -27.2326  -27.4862   20.0851 C   0  0  0  0  0  0
  -25.5877  -33.8642   24.2348 N   0  0  0  0  0  0
  -23.3946  -30.4941   21.5527 C   0  0  2  0  0  0
  -24.8427  -28.9663   20.1138 C   0  0  0  0  0  0
  -22.7385  -29.4662   22.5015 C   0  0  0  0  0  0
  -18.0261  -28.1371   22.8496 C   0  0  0  0  0  0
  -24.1483  -36.7323   23.2636 C   0  0  0  0  0  0
  -25.9169  -30.8533   21.3575 C   0  0  0  0  0  0
  -25.9981  -29.4899   20.7089 C   0  0  0  0  0  0
  -27.2006  -28.7539   20.6971 C   0  0  0  0  0  0
  -26.0700  -26.9622   19.4885 C   0  0  0  0  0  0
  -24.8703  -27.6991   19.5029 C   0  0  0  0  0  0
  -23.5997  -29.8250   20.1668 C   0  0  0  0  0  0
  -25.4102  -36.3129   24.0340 C   0  0  1  0  0  0
  -20.5847  -28.3641   23.1337 C   0  0  2  0  0  0
  -20.6757  -26.9385   22.5420 C   0  0  0  0  0  0
  -19.5736  -26.6384   21.5212 C   0  0  0  0  0  0
  -18.1914  -26.7925   22.1616 C   0  0  0  0  0  0
  -19.1510  -28.8825   23.2913 C   0  0  0  0  0  0
  -18.9441  -30.1437   23.8914 C   0  0  0  0  0  0
  -17.6446  -30.6582   24.0565 C   0  0  0  0  0  0
  -25.9023  -34.9490   23.5143 C   0  0  0  0  0  0
  -16.5334  -29.9083   23.6331 C   0  0  0  0  0  0
  -16.7251  -28.6500   23.0347 C   0  0  0  0  0  0
  -26.4461  -31.6600   25.0713 C   0  0  0  0  0  0
  -25.3752  -31.3667   26.1471 C   0  0  0  0  0  0
  -27.0285  -30.3061   24.6029 C   0  0  0  0  0  0
  -27.6043  -32.4306   25.7478 C   0  0  0  0  0  0
  -27.5584  -37.1819   24.8464 C   0  0  0  0  0  0
  -21.4115  -29.3017   22.3754 N   0  0  0  0  0  0
  -26.4294  -37.3806   23.9410 N   0  0  0  0  0  0
  -24.6581  -31.0853   22.1011 N   0  0  0  0  0  0
  -23.4176  -28.8199   23.3037 O   0  0  0  0  0  0
  -28.3803  -26.7455   20.0710 O   0  0  0  0  0  0
  -26.5588  -34.8931   22.4707 O   0  0  0  0  0  0
  -23.5301  -32.1435   23.7566 O   0  0  0  0  0  0
  -29.9384  -23.7407   21.6356 C   0  0  0  0  0  0
  -29.0602  -24.5599   20.8744 C   0  0  0  0  0  0
  -30.0888  -22.6041   20.8903 C   0  0  0  0  0  0
  -30.0633  -17.0288   23.2714 C   0  0  0  0  0  0
  -30.0949  -17.7194   21.9298 C   0  0  2  0  0  0
  -30.7944  -16.3830   22.1158 C   0  0  2  0  0  0
  -29.1298  -21.8796   18.6249 C   0  0  0  0  0  0
  -29.3914  -20.5179   22.9398 C   0  0  0  0  0  0
  -28.5135  -25.9177   21.2246 C   0  0  0  0  0  0
  -30.9008  -21.3723   21.1667 C   0  0  0  0  0  0
  -30.9195  -18.9851   21.7367 C   0  0  0  0  0  0
  -28.6905  -23.9667   19.7464 N   0  0  0  0  0  0
  -29.3215  -22.7740   19.7510 N   0  0  0  0  0  0
  -30.2056  -15.1894   21.5971 N   0  0  0  0  0  0
  -30.1011  -20.2233   21.6690 N   0  3  1  0  0  0
  -31.4615  -12.4118   19.0795 H   0  0  0  0  0  0
  -30.3267  -11.2729   19.7440 H   0  0  0  0  0  0
  -29.7193  -11.8496   17.3769 H   0  0  0  0  0  0
  -29.6463  -13.5449   17.7926 H   0  0  0  0  0  0
  -27.8171  -11.3256   18.7758 H   0  0  0  0  0  0
  -27.3519  -12.6768   17.7803 H   0  0  0  0  0  0
  -27.7244  -14.2564   19.6085 H   0  0  0  0  0  0
  -28.6660  -11.8830   21.2822 H   0  0  0  0  0  0
  -28.4405  -13.4873   21.8879 H   0  0  0  0  0  0
  -25.2761   -9.5689   22.4751 H   0  0  0  0  0  0
  -24.0010   -7.4623   22.7447 H   0  0  0  0  0  0
  -21.0846   -8.8748   19.8930 H   0  0  0  0  0  0
  -22.3683  -10.9662   19.6140 H   0  0  0  0  0  0
  -21.1980   -7.6136   23.9705 H   0  0  0  0  0  0
  -21.1488   -6.0524   25.9080 H   0  0  0  0  0  0
  -22.0599   -2.7602   23.2859 H   0  0  0  0  0  0
  -22.4146  -11.9882   22.4765 H   0  0  0  0  0  0
  -21.1115  -13.1200   22.2563 H   0  0  0  0  0  0
  -24.6912  -15.8594   20.5065 H   0  0  0  0  0  0
  -26.3110  -15.6062   20.0952 H   0  0  0  0  0  0
  -26.7076  -32.5576   23.1185 H   0  0  0  0  0  0
  -25.0051  -33.9813   25.0509 H   0  0  0  0  0  0
  -22.6806  -31.3086   21.4159 H   0  0  0  0  0  0
  -23.3746  -35.9656   23.3304 H   0  0  0  0  0  0
  -24.3581  -36.8932   22.2051 H   0  0  0  0  0  0
  -23.7226  -37.6529   23.6642 H   0  0  0  0  0  0
  -26.0159  -31.6192   20.5866 H   0  0  0  0  0  0
  -26.8101  -30.9143   21.9674 H   0  0  0  0  0  0
  -28.0960  -29.1551   21.1515 H   0  0  0  0  0  0
  -26.0950  -25.9883   19.0197 H   0  0  0  0  0  0
  -23.9812  -27.2904   19.0420 H   0  0  0  0  0  0
  -23.6981  -30.5982   19.4046 H   0  0  0  0  0  0
  -22.7270  -29.2373   19.8766 H   0  0  0  0  0  0
  -25.1281  -36.2006   25.0837 H   0  0  0  0  0  0
  -20.9938  -28.3196   24.1457 H   0  0  0  0  0  0
  -20.5660  -26.2247   23.3593 H   0  0  0  0  0  0
  -21.6625  -26.7447   22.1200 H   0  0  0  0  0  0
  -19.6899  -25.6301   21.1222 H   0  0  0  0  0  0
  -19.6686  -27.3213   20.6755 H   0  0  0  0  0  0
  -17.4189  -26.6678   21.4012 H   0  0  0  0  0  0
  -18.0310  -26.0051   22.9001 H   0  0  0  0  0  0
  -19.7917  -30.7253   24.2283 H   0  0  0  0  0  0
  -17.4998  -31.6268   24.5154 H   0  0  0  0  0  0
  -15.5336  -30.2989   23.7649 H   0  0  0  0  0  0
  -15.8644  -28.0827   22.7054 H   0  0  0  0  0  0
  -24.5923  -30.7018   25.7802 H   0  0  0  0  0  0
  -24.8944  -32.2807   26.4968 H   0  0  0  0  0  0
  -25.8126  -30.8799   27.0199 H   0  0  0  0  0  0
  -26.2803  -29.6822   24.1120 H   0  0  0  0  0  0
  -27.4132  -29.7281   25.4445 H   0  0  0  0  0  0
  -27.8602  -30.4406   23.9108 H   0  0  0  0  0  0
  -27.2671  -33.3596   26.2088 H   0  0  0  0  0  0
  -28.3846  -32.6878   25.0303 H   0  0  0  0  0  0
  -28.0715  -31.8404   26.5375 H   0  0  0  0  0  0
  -28.2599  -38.0123   24.7533 H   0  0  0  0  0  0
  -28.1087  -36.2658   24.6267 H   0  0  0  0  0  0
  -27.2304  -37.1435   25.8867 H   0  0  0  0  0  0
  -20.9263  -29.8743   21.6987 H   0  0  0  0  0  0
  -26.0191  -38.2886   24.1419 H   0  0  0  0  0  0
  -30.3932  -23.9598   22.5916 H   0  0  0  0  0  0
  -29.1075  -16.6087   23.5825 H   0  0  0  0  0  0
  -30.6683  -17.4371   24.0793 H   0  0  0  0  0  0
  -29.1885  -17.6825   21.3276 H   0  0  0  0  0  0
  -31.8831  -16.4052   22.1711 H   0  0  0  0  0  0
  -30.0159  -21.8952   17.9907 H   0  0  0  0  0  0
  -28.2677  -22.1873   18.0313 H   0  0  0  0  0  0
  -28.9571  -20.8625   18.9746 H   0  0  0  0  0  0
  -28.7065  -21.3592   22.8308 H   0  0  0  0  0  0
  -30.0935  -20.7547   23.7388 H   0  0  0  0  0  0
  -28.7862  -19.6714   23.2648 H   0  0  0  0  0  0
  -29.1688  -26.4202   21.9370 H   0  0  0  0  0  0
  -27.5578  -25.7831   21.7374 H   0  0  0  0  0  0
  -31.6813  -21.6086   21.8913 H   0  0  0  0  0  0
  -31.4207  -21.0887   20.2512 H   0  0  0  0  0  0
  -31.4698  -18.8652   20.8028 H   0  0  0  0  0  0
  -31.6679  -19.0700   22.5270 H   0  0  0  0  0  0
  -29.3451  -14.8708   22.0179 H   0  0  0  0  0  0
  -29.3866  -20.0556   20.9783 H   0  0  0  0  0  0
  1 25  1  0  0  0
  1 30  2  0  0  0
  1 84  1  0  0  0
  2  3  1  0  0  0
  2 25  1  0  0  0
  2 86  1  0  0  0
  2 87  1  0  0  0
  3  4  1  0  0  0
  3 88  1  0  0  0
  3 89  1  0  0  0
  4  5  1  0  0  0
  4 90  1  0  0  0
  4 91  1  0  0  0
  5  6  1  0  0  0
  5 26  1  0  0  0
  5 92  1  0  0  0
  6 25  1  0  0  0
  6 93  1  0  0  0
  6 94  1  0  0  0
  7  8  2  0  0  0
  7 26  1  0  0  0
  7 29  1  0  0  0
  8  9  1  0  0  0
  8 22  1  0  0  0
  9 10  1  0  0  0
  9 27  2  0  0  0
 10 11  2  0  0  0
 10 15  1  0  0  0
 11 12  1  0  0  0
 11 95  1  0  0  0
 12 13  2  0  0  0
 12 96  1  0  0  0
 13 14  1  0  0  0
 13 31  1  0  0  0
 14 15  2  0  0  0
 14 97  1  0  0  0
 15 98  1  0  0  0
 16 17  2  0  0  0
 16 21  1  0  0  0
 16 31  1  0  0  0
 17 18  1  0  0  0
 17 99  1  0  0  0
 18 19  2  0  0  0
 18100  1  0  0  0
 19 20  1  0  0  0
 19 24  1  0  0  0
 20 21  2  0  0  0
 20101  1  0  0  0
 21 23  1  0  0  0
 22 28  1  0  0  0
 22 32  2  0  0  0
 26 27  1  0  0  0
 28102  1  0  0  0
 28103  1  0  0  0
 29104  1  0  0  0
 29105  1  0  0  0
 33 34  1  0  0  0
 33 66  1  0  0  0
 33 70  2  0  0  0
 34 36  1  0  0  0
 34 59  1  0  0  0
 34106  1  0  0  0
 35 44  2  0  0  0
 35 45  1  0  0  0
 35 68  1  0  0  0
 36 56  1  0  0  0
 36107  1  0  0  0
 37 39  1  0  0  0
 37 47  1  0  0  0
 37 66  1  0  0  0
 37108  1  0  0  0
 38 43  2  0  0  0
 38 46  1  0  0  0
 38 47  1  0  0  0
 39 64  1  0  0  0
 39 67  2  0  0  0
 40 52  1  0  0  0
 40 53  2  0  0  0
 40 58  1  0  0  0
 41109  1  0  0  0
 41110  1  0  0  0
 41111  1  0  0  0
 41 48  1  0  0  0
 42 43  1  0  0  0
 42 66  1  0  0  0
 42112  1  0  0  0
 42113  1  0  0  0
 43 44  1  0  0  0
 44114  1  0  0  0
 45 46  2  0  0  0
 45115  1  0  0  0
 46116  1  0  0  0
 47117  1  0  0  0
 47118  1  0  0  0
 48 56  1  0  0  0
 48 65  1  0  0  0
 48119  1  0  0  0
 49 50  1  0  0  0
 49 53  1  0  0  0
 49 64  1  0  0  0
 49120  1  0  0  0
 50 51  1  0  0  0
 50121  1  0  0  0
 50122  1  0  0  0
 51 52  1  0  0  0
 51123  1  0  0  0
 51124  1  0  0  0
 52125  1  0  0  0
 52126  1  0  0  0
 53 54  1  0  0  0
 54 55  2  0  0  0
 54127  1  0  0  0
 55 57  1  0  0  0
 55128  1  0  0  0
 56 69  2  0  0  0
 57 58  2  0  0  0
 57129  1  0  0  0
 58130  1  0  0  0
 59 60  1  0  0  0
 59 61  1  0  0  0
 59 62  1  0  0  0
 60131  1  0  0  0
 60132  1  0  0  0
 60133  1  0  0  0
 61134  1  0  0  0
 61135  1  0  0  0
 61136  1  0  0  0
 62137  1  0  0  0
 62138  1  0  0  0
 62139  1  0  0  0
 63 65  1  0  0  0
 63140  1  0  0  0
 63141  1  0  0  0
 63142  1  0  0  0
 64143  1  0  0  0
 65144  1  0  0  0
 68 79  1  0  0  0
 71 72  1  0  0  0
 71 73  2  0  0  0
 71145  1  0  0  0
 72 79  1  0  0  0
 72 82  2  0  0  0
 73 80  1  0  0  0
 73 83  1  0  0  0
 74 75  1  0  0  0
 74 76  1  0  0  0
 74146  1  0  0  0
 74147  1  0  0  0
 75 76  1  0  0  0
 75 81  1  0  0  0
 75148  1  0  0  0
 76 84  1  0  0  0
 76149  1  0  0  0
 77 83  1  0  0  0
 77150  1  0  0  0
 77151  1  0  0  0
 77152  1  0  0  0
 78153  1  0  0  0
 78154  1  0  0  0
 78155  1  0  0  0
 78 85  1  0  0  0
 79156  1  0  0  0
 79157  1  0  0  0
 80 85  1  0  0  0
 80158  1  0  0  0
 80159  1  0  0  0
 81 85  1  0  0  0
 81160  1  0  0  0
 81161  1  0  0  0
 82 83  1  0  0  0
 84162  1  0  0  0
 85163  1  0  0  0
M  CHG  1  85   1
M  ISO  4   1 100  68 101  79 101  84 100
M  END
> <chiral flag>
0

> <version>
0

> <s_m_source_file>
/data/baiqing/PycharmProjects/Reinvent-master-3.2/result/LINK_invent/BTK/process_docking_weight1_custom_sum_contain_oxygen_bond_distance_aromatic_linkinvent_7_9_3/rearranged_h_0189.sdf

> <i_m_source_file_index>
45

> <r_mmod_Potential_Energy-OPLS-2005>
-195.31201171875

> <r_mmod_Stretch_Energy-OPLS-2005>
30.1296195983887

> <r_mmod_Bend_Energy-OPLS-2005>
85.6424255371094

> <r_mmod_Torsional_Energy-OPLS-2005>
294.599639892578

> <r_mmod_Improper_Torsional_Energy-OPLS-2005>
1.80959320068359

> <r_mmod_Van_der_Waal_Energy-OPLS-2005>
126.392318725586

> <r_mmod_Electrostatic_Energy-OPLS-2005>
-257.988616943359

> <r_mmod_Solvation_Energy-OPLS-2005>
-482.593109130859

> <b_mmod_Minimization_Converged-OPLS-2005>
0

> <r_mmod_RMS_Derivative-OPLS-2005>
1.78268504142761

$$$$
45
                    3D
 Structure written by MMmdl.
164173  0  0  1  0            999 V2000
  -30.6119  -14.8548   20.4118 C   0  0  0  0  0  0
  -30.4239  -12.5328   19.4664 C   0  0  0  0  0  0
  -29.4993  -12.5129   18.2308 C   0  0  0  0  0  0
  -28.0339  -12.2838   18.6545 C   0  0  0  0  0  0
  -27.6176  -13.1950   19.8373 C   0  0  2  0  0  0
  -28.6792  -13.2434   20.9627 C   0  0  0  0  0  0
  -25.2429  -13.8011   20.5687 C   0  0  0  0  0  0
  -24.1741  -13.0305   20.9265 C   0  0  0  0  0  0
  -24.6327  -11.6792   20.8842 C   0  0  0  0  0  0
  -23.9013  -10.4213   21.0477 C   0  0  0  0  0  0
  -24.3585   -9.4122   21.9232 C   0  0  0  0  0  0
  -23.6268   -8.2154   22.0754 C   0  0  0  0  0  0
  -22.4259   -8.0229   21.3528 C   0  0  0  0  0  0
  -21.9880   -9.0206   20.4637 C   0  0  0  0  0  0
  -22.7197  -10.2086   20.3087 C   0  0  0  0  0  0
  -21.6823   -6.0724   22.5267 C   0  0  0  0  0  0
  -21.3990   -6.5630   23.8208 C   0  0  0  0  0  0
  -21.3658   -5.6780   24.9167 C   0  0  0  0  0  0
  -21.6052   -4.3042   24.7211 C   0  0  0  0  0  0
  -21.8831   -3.8139   23.4330 C   0  0  0  0  0  0
  -21.9184   -4.6962   22.3387 C   0  0  0  0  0  0
  -22.7784  -13.5150   21.1884 C   0  0  0  0  0  0
  -22.1653   -4.2153   21.0963 F   0  0  0  0  0  0
  -21.5643   -3.4522   25.7726 F   0  0  0  0  0  0
  -29.9536  -13.6340   20.3433 N   0  0  0  0  0  0
  -26.2829  -12.9138   20.3327 N   0  0  0  0  0  0
  -25.9240  -11.6339   20.5851 N   0  0  0  0  0  0
  -22.0409  -12.8188   22.0442 N   0  0  0  0  0  0
  -25.3986  -15.1717   20.3933 N   0  0  0  0  0  0
  -31.8331  -14.8594   20.2385 O   0  0  0  0  0  0
  -21.6598   -6.8851   21.4226 O   0  0  0  0  0  0
  -22.3515  -14.5472   20.6712 O   0  0  0  0  0  0
  -24.6339  -31.8511   23.1952 C   0  0  0  0  0  0
  -25.9154  -32.4728   23.8305 C   0  0  1  0  0  0
  -27.2258  -27.2319   20.1185 C   0  0  0  0  0  0
  -25.5929  -33.8531   24.2224 N   0  0  0  0  0  0
  -23.4317  -30.4743   21.5380 C   0  0  2  0  0  0
  -24.8776  -28.9150   20.1068 C   0  0  0  0  0  0
  -22.7520  -29.4585   22.4886 C   0  0  0  0  0  0
  -18.0289  -28.1393   22.8477 C   0  0  0  0  0  0
  -24.1480  -36.7276   23.2638 C   0  0  0  0  0  0
  -25.9782  -30.7585   21.3731 C   0  0  0  0  0  0
  -26.0514  -29.3766   20.7155 C   0  0  0  0  0  0
  -27.2222  -28.5471   20.7127 C   0  0  0  0  0  0
  -26.0168  -26.8412   19.4955 C   0  0  0  0  0  0
  -24.8673  -27.6572   19.4867 C   0  0  0  0  0  0
  -23.6512  -29.8071   20.1537 C   0  0  0  0  0  0
  -25.4108  -36.3053   24.0316 C   0  0  1  0  0  0
  -20.5900  -28.3708   23.1267 C   0  0  2  0  0  0
  -20.6767  -26.9416   22.5426 C   0  0  0  0  0  0
  -19.5754  -26.6390   21.5216 C   0  0  0  0  0  0
  -18.1931  -26.7934   22.1613 C   0  0  0  0  0  0
  -19.1544  -28.8865   23.2865 C   0  0  0  0  0  0
  -18.9465  -30.1456   23.8901 C   0  0  0  0  0  0
  -17.6465  -30.6592   24.0570 C   0  0  0  0  0  0
  -25.9061  -34.9425   23.5078 C   0  0  0  0  0  0
  -16.5358  -29.9100   23.6313 C   0  0  0  0  0  0
  -16.7274  -28.6513   23.0342 C   0  0  0  0  0  0
  -26.4507  -31.6558   25.0705 C   0  0  0  0  0  0
  -25.3723  -31.3717   26.1421 C   0  0  0  0  0  0
  -27.0341  -30.2971   24.6187 C   0  0  0  0  0  0
  -27.6061  -32.4287   25.7494 C   0  0  0  0  0  0
  -27.5568  -37.1798   24.8451 C   0  0  0  0  0  0
  -21.4222  -29.3055   22.3664 N   0  0  0  0  0  0
  -26.4264  -37.3770   23.9414 N   0  0  0  0  0  0
  -24.7011  -31.0468   22.0923 N   0  0  0  0  0  0
  -23.4209  -28.8122   23.2988 O   0  0  0  0  0  0
  -28.3214  -26.3248   20.2333 O   0  0  0  0  0  0
  -26.5655  -34.8912   22.4659 O   0  0  0  0  0  0
  -23.5483  -32.1325   23.7240 O   0  0  0  0  0  0
  -28.4258  -22.6765   18.2636 C   0  0  0  0  0  0
  -28.3528  -23.9335   17.6237 C   0  0  0  0  0  0
  -28.6006  -22.6510   19.6738 C   0  0  0  0  0  0
  -28.3443  -25.0568   19.6217 C   0  0  0  0  0  0
  -28.4207  -17.9209   19.6542 C   0  0  0  0  0  0
  -28.6079  -16.3917   19.9066 C   0  0  0  0  0  0
  -30.5127  -17.4871   20.6795 C   0  0  0  0  0  0
  -29.3777  -18.6310   20.6060 C   0  0  1  0  0  0
  -28.2515  -21.4154   17.4175 C   0  0  0  0  0  0
  -28.2832  -24.0773   16.1140 C   0  0  0  0  0  0
  -30.6503  -20.2977   19.1640 C   0  0  0  0  0  0
  -28.6395  -21.2415   20.4735 C   0  0  0  0  0  0
  -28.3147  -25.0902   18.2993 N   0  0  0  0  0  0
  -28.5429  -23.8902   20.3273 N   0  0  0  0  0  0
  -29.9246  -16.0919   20.4947 N   0  0  0  0  0  0
  -29.7210  -20.1274   20.3039 N   0  3  1  0  0  0
  -31.4593  -12.6681   19.1534 H   0  0  0  0  0  0
  -30.3910  -11.5767   19.9924 H   0  0  0  0  0  0
  -29.8155  -11.7371   17.5311 H   0  0  0  0  0  0
  -29.5832  -13.4593   17.6942 H   0  0  0  0  0  0
  -27.9225  -11.2353   18.9327 H   0  0  0  0  0  0
  -27.3665  -12.4463   17.8065 H   0  0  0  0  0  0
  -27.5331  -14.1645   19.3788 H   0  0  0  0  0  0
  -28.7735  -12.2724   21.4535 H   0  0  0  0  0  0
  -28.3951  -13.9546   21.7406 H   0  0  0  0  0  0
  -25.2728   -9.5584   22.4811 H   0  0  0  0  0  0
  -23.9974   -7.4524   22.7449 H   0  0  0  0  0  0
  -21.0814   -8.8733   19.8926 H   0  0  0  0  0  0
  -22.3681  -10.9653   19.6212 H   0  0  0  0  0  0
  -21.1965   -7.6136   23.9726 H   0  0  0  0  0  0
  -21.1479   -6.0490   25.9081 H   0  0  0  0  0  0
  -22.0623   -2.7600   23.2810 H   0  0  0  0  0  0
  -22.3996  -11.9827   22.4821 H   0  0  0  0  0  0
  -21.1035  -13.1242   22.2638 H   0  0  0  0  0  0
  -24.6113  -15.8061   20.4792 H   0  0  0  0  0  0
  -26.2208  -15.6062   19.9958 H   0  0  0  0  0  0
  -26.7228  -32.5369   23.1051 H   0  0  0  0  0  0
  -25.0028  -33.9648   25.0338 H   0  0  0  0  0  0
  -22.7282  -31.2965   21.3908 H   0  0  0  0  0  0
  -23.3739  -35.9610   23.3274 H   0  0  0  0  0  0
  -24.3579  -36.8931   22.2059 H   0  0  0  0  0  0
  -23.7229  -37.6465   23.6685 H   0  0  0  0  0  0
  -26.1060  -31.5155   20.5982 H   0  0  0  0  0  0
  -26.8595  -30.8197   21.9993 H   0  0  0  0  0  0
  -28.1161  -28.8908   21.2136 H   0  0  0  0  0  0
  -25.9208  -25.8688   19.0368 H   0  0  0  0  0  0
  -23.9647  -27.2970   19.0129 H   0  0  0  0  0  0
  -23.7791  -30.5822   19.3972 H   0  0  0  0  0  0
  -22.7674  -29.2454   19.8471 H   0  0  0  0  0  0
  -25.1290  -36.1885   25.0807 H   0  0  0  0  0  0
  -20.9971  -28.3288   24.1394 H   0  0  0  0  0  0
  -20.5625  -26.2331   23.3643 H   0  0  0  0  0  0
  -21.6643  -26.7419   22.1253 H   0  0  0  0  0  0
  -19.6919  -25.6297   21.1255 H   0  0  0  0  0  0
  -19.6696  -27.3191   20.6738 H   0  0  0  0  0  0
  -17.4205  -26.6673   21.4011 H   0  0  0  0  0  0
  -18.0327  -26.0078   22.9008 H   0  0  0  0  0  0
  -19.7944  -30.7265   24.2282 H   0  0  0  0  0  0
  -17.5027  -31.6263   24.5182 H   0  0  0  0  0  0
  -15.5362  -30.3019   23.7631 H   0  0  0  0  0  0
  -15.8666  -28.0846   22.7057 H   0  0  0  0  0  0
  -24.5971  -30.6962   25.7788 H   0  0  0  0  0  0
  -24.8818  -32.2871   26.4741 H   0  0  0  0  0  0
  -25.8052  -30.9020   27.0264 H   0  0  0  0  0  0
  -26.2916  -29.6737   24.1193 H   0  0  0  0  0  0
  -27.3996  -29.7219   25.4706 H   0  0  0  0  0  0
  -27.8808  -30.4234   23.9435 H   0  0  0  0  0  0
  -27.2685  -33.3617   26.2017 H   0  0  0  0  0  0
  -28.3922  -32.6783   25.0358 H   0  0  0  0  0  0
  -28.0666  -31.8427   26.5459 H   0  0  0  0  0  0
  -28.2568  -38.0112   24.7515 H   0  0  0  0  0  0
  -28.1073  -36.2645   24.6231 H   0  0  0  0  0  0
  -27.2303  -37.1400   25.8857 H   0  0  0  0  0  0
  -20.9406  -29.8813   21.6904 H   0  0  0  0  0  0
  -26.0123  -38.2825   24.1456 H   0  0  0  0  0  0
  -27.3847  -18.2290   19.8070 H   0  0  0  0  0  0
  -28.6717  -18.1429   18.6164 H   0  0  0  0  0  0
  -28.5040  -15.8924   18.9445 H   0  0  0  0  0  0
  -27.8514  -16.0420   20.6044 H   0  0  0  0  0  0
  -31.0410  -17.5367   21.6326 H   0  0  0  0  0  0
  -31.2578  -17.6270   19.8957 H   0  0  0  0  0  0
  -28.8891  -18.6384   21.5822 H   0  0  0  0  0  0
  -27.4499  -21.5556   16.6904 H   0  0  0  0  0  0
  -27.9757  -20.5349   17.9947 H   0  0  0  0  0  0
  -29.1610  -21.1992   16.8560 H   0  0  0  0  0  0
  -28.8543  -23.2985   15.6092 H   0  0  0  0  0  0
  -28.6974  -25.0321   15.7927 H   0  0  0  0  0  0
  -27.2503  -24.0241   15.7746 H   0  0  0  0  0  0
  -31.6224  -19.8709   19.4081 H   0  0  0  0  0  0
  -30.8323  -21.3442   18.9238 H   0  0  0  0  0  0
  -30.2942  -19.7902   18.2691 H   0  0  0  0  0  0
  -27.6684  -20.7746   20.3040 H   0  0  0  0  0  0
  -28.6280  -21.4868   21.5355 H   0  0  0  0  0  0
  -30.3168  -20.3743   21.0793 H   0  0  0  0  0  0
  1 25  1  0  0  0
  1 30  2  0  0  0
  1 85  1  0  0  0
  2  3  1  0  0  0
  2 25  1  0  0  0
  2 87  1  0  0  0
  2 88  1  0  0  0
  3  4  1  0  0  0
  3 89  1  0  0  0
  3 90  1  0  0  0
  4  5  1  0  0  0
  4 91  1  0  0  0
  4 92  1  0  0  0
  5  6  1  0  0  0
  5 26  1  0  0  0
  5 93  1  0  0  0
  6 25  1  0  0  0
  6 94  1  0  0  0
  6 95  1  0  0  0
  7  8  2  0  0  0
  7 26  1  0  0  0
  7 29  1  0  0  0
  8  9  1  0  0  0
  8 22  1  0  0  0
  9 10  1  0  0  0
  9 27  2  0  0  0
 10 11  2  0  0  0
 10 15  1  0  0  0
 11 12  1  0  0  0
 11 96  1  0  0  0
 12 13  2  0  0  0
 12 97  1  0  0  0
 13 14  1  0  0  0
 13 31  1  0  0  0
 14 15  2  0  0  0
 14 98  1  0  0  0
 15 99  1  0  0  0
 16 17  2  0  0  0
 16 21  1  0  0  0
 16 31  1  0  0  0
 17 18  1  0  0  0
 17100  1  0  0  0
 18 19  2  0  0  0
 18101  1  0  0  0
 19 20  1  0  0  0
 19 24  1  0  0  0
 20 21  2  0  0  0
 20102  1  0  0  0
 21 23  1  0  0  0
 22 28  1  0  0  0
 22 32  2  0  0  0
 26 27  1  0  0  0
 28103  1  0  0  0
 28104  1  0  0  0
 29105  1  0  0  0
 29106  1  0  0  0
 33 34  1  0  0  0
 33 66  1  0  0  0
 33 70  2  0  0  0
 34 36  1  0  0  0
 34 59  1  0  0  0
 34107  1  0  0  0
 35 44  2  0  0  0
 35 45  1  0  0  0
 35 68  1  0  0  0
 36 56  1  0  0  0
 36108  1  0  0  0
 37 39  1  0  0  0
 37 47  1  0  0  0
 37 66  1  0  0  0
 37109  1  0  0  0
 38 43  2  0  0  0
 38 46  1  0  0  0
 38 47  1  0  0  0
 39 64  1  0  0  0
 39 67  2  0  0  0
 40 52  1  0  0  0
 40 53  2  0  0  0
 40 58  1  0  0  0
 41110  1  0  0  0
 41111  1  0  0  0
 41112  1  0  0  0
 41 48  1  0  0  0
 42 43  1  0  0  0
 42 66  1  0  0  0
 42113  1  0  0  0
 42114  1  0  0  0
 43 44  1  0  0  0
 44115  1  0  0  0
 45 46  2  0  0  0
 45116  1  0  0  0
 46117  1  0  0  0
 47118  1  0  0  0
 47119  1  0  0  0
 48 56  1  0  0  0
 48 65  1  0  0  0
 48120  1  0  0  0
 49 50  1  0  0  0
 49 53  1  0  0  0
 49 64  1  0  0  0
 49121  1  0  0  0
 50 51  1  0  0  0
 50122  1  0  0  0
 50123  1  0  0  0
 51 52  1  0  0  0
 51124  1  0  0  0
 51125  1  0  0  0
 52126  1  0  0  0
 52127  1  0  0  0
 53 54  1  0  0  0
 54 55  2  0  0  0
 54128  1  0  0  0
 55 57  1  0  0  0
 55129  1  0  0  0
 56 69  2  0  0  0
 57 58  2  0  0  0
 57130  1  0  0  0
 58131  1  0  0  0
 59 60  1  0  0  0
 59 61  1  0  0  0
 59 62  1  0  0  0
 60132  1  0  0  0
 60133  1  0  0  0
 60134  1  0  0  0
 61135  1  0  0  0
 61136  1  0  0  0
 61137  1  0  0  0
 62138  1  0  0  0
 62139  1  0  0  0
 62140  1  0  0  0
 63 65  1  0  0  0
 63141  1  0  0  0
 63142  1  0  0  0
 63143  1  0  0  0
 64144  1  0  0  0
 65145  1  0  0  0
 68 74  1  0  0  0
 71 72  2  0  0  0
 71 73  1  0  0  0
 71 79  1  0  0  0
 72 80  1  0  0  0
 72 83  1  0  0  0
 73 82  1  0  0  0
 73 84  2  0  0  0
 74 83  2  0  0  0
 74 84  1  0  0  0
 75 76  1  0  0  0
 75146  1  0  0  0
 75147  1  0  0  0
 75 78  1  0  0  0
 76 85  1  0  0  0
 76148  1  0  0  0
 76149  1  0  0  0
 77 78  1  0  0  0
 77 85  1  0  0  0
 77150  1  0  0  0
 77151  1  0  0  0
 78 86  1  0  0  0
 78152  1  0  0  0
 79153  1  0  0  0
 79154  1  0  0  0
 79155  1  0  0  0
 80156  1  0  0  0
 80157  1  0  0  0
 80158  1  0  0  0
 81159  1  0  0  0
 81160  1  0  0  0
 81161  1  0  0  0
 81 86  1  0  0  0
 82 86  1  0  0  0
 82162  1  0  0  0
 82163  1  0  0  0
 86164  1  0  0  0
M  CHG  1  86   1
M  ISO  4   1 100  68 101  74 101  85 100
M  END
> <chiral flag>
0

> <version>
0

> <s_m_source_file>
/data/baiqing/PycharmProjects/Reinvent-master-3.2/result/LINK_invent/BTK/process_docking_weight1_custom_sum_contain_oxygen_bond_distance_aromatic_linkinvent_7_9_3/rearranged_h_0189.sdf

> <i_m_source_file_index>
46

> <r_mmod_Potential_Energy-OPLS-2005>
-76.5134582519531

> <r_mmod_Stretch_Energy-OPLS-2005>
150.363845825195

> <r_mmod_Bend_Energy-OPLS-2005>
247.71549987793

> <r_mmod_Torsional_Energy-OPLS-2005>
350.002899169922

> <r_mmod_Improper_Torsional_Energy-OPLS-2005>
7.21026992797852

> <r_mmod_Van_der_Waal_Energy-OPLS-2005>
149.578521728516

> <r_mmod_Electrostatic_Energy-OPLS-2005>
-633.953796386719

> <r_mmod_Solvation_Energy-OPLS-2005>
-476.913757324219

> <b_mmod_Minimization_Converged-OPLS-2005>
0

> <r_mmod_RMS_Derivative-OPLS-2005>
3.04950666427612

$$$$
46
                    3D
 Structure written by MMmdl.
154163  0  0  1  0            999 V2000
  -30.6369  -14.7339   20.4544 C   0  0  0  0  0  0
  -30.4226  -12.4499   19.4703 C   0  0  0  0  0  0
  -29.5038  -12.5006   18.2317 C   0  0  0  0  0  0
  -28.0313  -12.3277   18.6499 C   0  0  0  0  0  0
  -27.6369  -13.2346   19.8466 C   0  0  2  0  0  0
  -28.6825  -13.1894   20.9807 C   0  0  0  0  0  0
  -25.2498  -13.8207   20.5719 C   0  0  0  0  0  0
  -24.1788  -13.0446   20.9208 C   0  0  0  0  0  0
  -24.6383  -11.6924   20.8747 C   0  0  0  0  0  0
  -23.9063  -10.4297   21.0405 C   0  0  0  0  0  0
  -24.3617   -9.4212   21.9181 C   0  0  0  0  0  0
  -23.6296   -8.2245   22.0751 C   0  0  0  0  0  0
  -22.4277   -8.0280   21.3543 C   0  0  0  0  0  0
  -21.9909   -9.0253   20.4645 C   0  0  0  0  0  0
  -22.7235  -10.2135   20.3055 C   0  0  0  0  0  0
  -21.6854   -6.0734   22.5279 C   0  0  0  0  0  0
  -21.4015   -6.5639   23.8211 C   0  0  0  0  0  0
  -21.3661   -5.6792   24.9174 C   0  0  0  0  0  0
  -21.6045   -4.3054   24.7225 C   0  0  0  0  0  0
  -21.8819   -3.8145   23.4345 C   0  0  0  0  0  0
  -21.9193   -4.6962   22.3402 C   0  0  0  0  0  0
  -22.7810  -13.5225   21.1869 C   0  0  0  0  0  0
  -22.1663   -4.2148   21.0979 F   0  0  0  0  0  0
  -21.5629   -3.4538   25.7736 F   0  0  0  0  0  0
  -29.9802  -13.5257   20.3869 N   0  0  0  0  0  0
  -26.2917  -12.9417   20.3288 N   0  0  0  0  0  0
  -25.9314  -11.6556   20.5755 N   0  0  0  0  0  0
  -22.0460  -12.8213   22.0427 N   0  0  0  0  0  0
  -25.4207  -15.1933   20.4178 N   0  0  0  0  0  0
  -31.8382  -14.7841   20.1699 O   0  0  0  0  0  0
  -21.6642   -6.8876   21.4240 O   0  0  0  0  0  0
  -22.3492  -14.5529   20.6716 O   0  0  0  0  0  0
  -24.6314  -31.8547   23.1981 C   0  0  0  0  0  0
  -25.9141  -32.4748   23.8325 C   0  0  1  0  0  0
  -27.2186  -27.2595   20.1164 C   0  0  0  0  0  0
  -25.5935  -33.8551   24.2248 N   0  0  0  0  0  0
  -23.4270  -30.4783   21.5421 C   0  0  2  0  0  0
  -24.8713  -28.9251   20.1088 C   0  0  0  0  0  0
  -22.7499  -29.4602   22.4914 C   0  0  0  0  0  0
  -18.0290  -28.1388   22.8483 C   0  0  0  0  0  0
  -24.1492  -36.7284   23.2644 C   0  0  0  0  0  0
  -25.9733  -30.7667   21.3771 C   0  0  0  0  0  0
  -26.0432  -29.3897   20.7168 C   0  0  0  0  0  0
  -27.2155  -28.5683   20.7109 C   0  0  0  0  0  0
  -26.0136  -26.8561   19.4961 C   0  0  0  0  0  0
  -24.8617  -27.6665   19.4906 C   0  0  0  0  0  0
  -23.6434  -29.8131   20.1576 C   0  0  0  0  0  0
  -25.4121  -36.3067   24.0325 C   0  0  1  0  0  0
  -20.5894  -28.3698   23.1271 C   0  0  2  0  0  0
  -20.6778  -26.9416   22.5411 C   0  0  0  0  0  0
  -19.5754  -26.6383   21.5213 C   0  0  0  0  0  0
  -18.1934  -26.7930   22.1623 C   0  0  0  0  0  0
  -19.1544  -28.8860   23.2871 C   0  0  0  0  0  0
  -18.9464  -30.1460   23.8890 C   0  0  0  0  0  0
  -17.6463  -30.6588   24.0562 C   0  0  0  0  0  0
  -25.9057  -34.9436   23.5090 C   0  0  0  0  0  0
  -16.5354  -29.9085   23.6331 C   0  0  0  0  0  0
  -16.7276  -28.6503   23.0352 C   0  0  0  0  0  0
  -26.4507  -31.6579   25.0719 C   0  0  0  0  0  0
  -25.3728  -31.3733   26.1438 C   0  0  0  0  0  0
  -27.0358  -30.2993   24.6215 C   0  0  0  0  0  0
  -27.6058  -32.4326   25.7492 C   0  0  0  0  0  0
  -27.5573  -37.1808   24.8473 C   0  0  0  0  0  0
  -21.4207  -29.3043   22.3659 N   0  0  0  0  0  0
  -26.4300  -37.3761   23.9394 N   0  0  0  0  0  0
  -24.6966  -31.0514   22.0954 N   0  0  0  0  0  0
  -23.4201  -28.8143   23.3012 O   0  0  0  0  0  0
  -28.3370  -26.3949   20.1953 O   0  0  0  0  0  0
  -26.5631  -34.8914   22.4660 O   0  0  0  0  0  0
  -23.5466  -32.1370   23.7281 O   0  0  0  0  0  0
  -29.3538  -19.0321   18.1954 C   0  0  0  0  0  0
  -29.1596  -20.4301   18.2419 C   0  0  0  0  0  0
  -29.4424  -18.2897   19.3899 C   0  0  0  0  0  0
  -29.3237  -19.0274   20.5852 C   0  0  0  0  0  0
  -29.0396  -21.1210   19.4642 C   0  0  0  0  0  0
  -29.6427  -16.7299   19.3396 C   0  0  0  0  0  0
  -29.4055  -18.1776   21.8545 C   0  0  0  0  0  0
  -30.2358  -16.8380   21.7157 C   0  0  0  0  0  0
  -28.4151  -25.0413   19.5426 C   0  0  0  0  0  0
  -28.5782  -23.6079   20.2973 C   0  0  0  0  0  0
  -29.1218  -20.4097   20.6425 N   0  0  0  0  0  0
  -29.9116  -15.9243   20.5820 N   0  0  0  0  0  0
  -28.8658  -22.5301   19.3282 O   0  0  0  0  0  0
  -31.4652  -12.5602   19.1672 H   0  0  0  0  0  0
  -30.3564  -11.4785   19.9630 H   0  0  0  0  0  0
  -29.7844  -11.7227   17.5203 H   0  0  0  0  0  0
  -29.6313  -13.4521   17.7127 H   0  0  0  0  0  0
  -27.8907  -11.2804   18.9202 H   0  0  0  0  0  0
  -27.3717  -12.5122   17.8012 H   0  0  0  0  0  0
  -27.6237  -14.2522   19.4577 H   0  0  0  0  0  0
  -28.7158  -12.2033   21.4462 H   0  0  0  0  0  0
  -28.4226  -13.8980   21.7691 H   0  0  0  0  0  0
  -25.2761   -9.5693   22.4756 H   0  0  0  0  0  0
  -24.0008   -7.4636   22.7470 H   0  0  0  0  0  0
  -21.0840   -8.8771   19.8952 H   0  0  0  0  0  0
  -22.3690  -10.9673   19.6167 H   0  0  0  0  0  0
  -21.2008   -7.6147   23.9715 H   0  0  0  0  0  0
  -21.1483   -6.0521   25.9077 H   0  0  0  0  0  0
  -22.0597   -2.7607   23.2845 H   0  0  0  0  0  0
  -22.4083  -11.9882   22.4823 H   0  0  0  0  0  0
  -21.1076  -13.1232   22.2631 H   0  0  0  0  0  0
  -24.6586  -15.8508   20.5420 H   0  0  0  0  0  0
  -26.2839  -15.6374   20.1314 H   0  0  0  0  0  0
  -26.7204  -32.5391   23.1062 H   0  0  0  0  0  0
  -25.0074  -33.9685   25.0389 H   0  0  0  0  0  0
  -22.7236  -31.3009   21.3975 H   0  0  0  0  0  0
  -23.3741  -35.9632   23.3338 H   0  0  0  0  0  0
  -24.3568  -36.8873   22.2050 H   0  0  0  0  0  0
  -23.7269  -37.6505   23.6649 H   0  0  0  0  0  0
  -26.1139  -31.5285   20.6091 H   0  0  0  0  0  0
  -26.8505  -30.8131   22.0110 H   0  0  0  0  0  0
  -28.1133  -28.9205   21.1993 H   0  0  0  0  0  0
  -25.9030  -25.8882   19.0364 H   0  0  0  0  0  0
  -23.9594  -27.3005   19.0199 H   0  0  0  0  0  0
  -23.7684  -30.5898   19.4022 H   0  0  0  0  0  0
  -22.7608  -29.2480   19.8527 H   0  0  0  0  0  0
  -25.1311  -36.1918   25.0820 H   0  0  0  0  0  0
  -20.9985  -28.3277   24.1393 H   0  0  0  0  0  0
  -20.5676  -26.2310   23.3616 H   0  0  0  0  0  0
  -21.6646  -26.7438   22.1206 H   0  0  0  0  0  0
  -19.6916  -25.6293   21.1247 H   0  0  0  0  0  0
  -19.6693  -27.3190   20.6741 H   0  0  0  0  0  0
  -17.4204  -26.6675   21.4025 H   0  0  0  0  0  0
  -18.0333  -26.0074   22.9022 H   0  0  0  0  0  0
  -19.7940  -30.7277   24.2258 H   0  0  0  0  0  0
  -17.5017  -31.6267   24.5165 H   0  0  0  0  0  0
  -15.5355  -30.2983   23.7661 H   0  0  0  0  0  0
  -15.8676  -28.0820   22.7070 H   0  0  0  0  0  0
  -24.5907  -30.7077   25.7768 H   0  0  0  0  0  0
  -24.8914  -32.2904   26.4845 H   0  0  0  0  0  0
  -25.8042  -30.8924   27.0226 H   0  0  0  0  0  0
  -26.2944  -29.6731   24.1239 H   0  0  0  0  0  0
  -27.4034  -29.7268   25.4742 H   0  0  0  0  0  0
  -27.8825  -30.4263   23.9465 H   0  0  0  0  0  0
  -27.2662  -33.3631   26.2053 H   0  0  0  0  0  0
  -28.3874  -32.6878   25.0325 H   0  0  0  0  0  0
  -28.0720  -31.8463   26.5420 H   0  0  0  0  0  0
  -28.2629  -38.0065   24.7456 H   0  0  0  0  0  0
  -28.1029  -36.2594   24.6385 H   0  0  0  0  0  0
  -27.2278  -37.1561   25.8874 H   0  0  0  0  0  0
  -20.9394  -29.8763   21.6860 H   0  0  0  0  0  0
  -26.0180  -38.2844   24.1353 H   0  0  0  0  0  0
  -29.4341  -18.5347   17.2393 H   0  0  0  0  0  0
  -29.0995  -20.9838   17.3152 H   0  0  0  0  0  0
  -30.4471  -16.5459   18.6238 H   0  0  0  0  0  0
  -28.7490  -16.3101   18.8768 H   0  0  0  0  0  0
  -28.3852  -17.9372   22.1548 H   0  0  0  0  0  0
  -29.8246  -18.7829   22.6591 H   0  0  0  0  0  0
  -30.1553  -16.2785   22.6487 H   0  0  0  0  0  0
  -31.2888  -17.1096   21.6220 H   0  0  0  0  0  0
  -27.6603  -24.9213   18.7716 H   0  0  0  0  0  0
  -29.3259  -25.1329   18.9506 H   0  0  0  0  0  0
  -27.6701  -23.3650   20.8489 H   0  0  0  0  0  0
  -29.3925  -23.6549   21.0204 H   0  0  0  0  0  0
  1 25  1  0  0  0
  1 30  2  0  0  0
  1 82  1  0  0  0
  2  3  1  0  0  0
  2 25  1  0  0  0
  2 84  1  0  0  0
  2 85  1  0  0  0
  3  4  1  0  0  0
  3 86  1  0  0  0
  3 87  1  0  0  0
  4  5  1  0  0  0
  4 88  1  0  0  0
  4 89  1  0  0  0
  5  6  1  0  0  0
  5 26  1  0  0  0
  5 90  1  0  0  0
  6 25  1  0  0  0
  6 91  1  0  0  0
  6 92  1  0  0  0
  7  8  2  0  0  0
  7 26  1  0  0  0
  7 29  1  0  0  0
  8  9  1  0  0  0
  8 22  1  0  0  0
  9 10  1  0  0  0
  9 27  2  0  0  0
 10 11  2  0  0  0
 10 15  1  0  0  0
 11 12  1  0  0  0
 11 93  1  0  0  0
 12 13  2  0  0  0
 12 94  1  0  0  0
 13 14  1  0  0  0
 13 31  1  0  0  0
 14 15  2  0  0  0
 14 95  1  0  0  0
 15 96  1  0  0  0
 16 17  2  0  0  0
 16 21  1  0  0  0
 16 31  1  0  0  0
 17 18  1  0  0  0
 17 97  1  0  0  0
 18 19  2  0  0  0
 18 98  1  0  0  0
 19 20  1  0  0  0
 19 24  1  0  0  0
 20 21  2  0  0  0
 20 99  1  0  0  0
 21 23  1  0  0  0
 22 28  1  0  0  0
 22 32  2  0  0  0
 26 27  1  0  0  0
 28100  1  0  0  0
 28101  1  0  0  0
 29102  1  0  0  0
 29103  1  0  0  0
 33 34  1  0  0  0
 33 66  1  0  0  0
 33 70  2  0  0  0
 34 36  1  0  0  0
 34 59  1  0  0  0
 34104  1  0  0  0
 35 44  2  0  0  0
 35 45  1  0  0  0
 35 68  1  0  0  0
 36 56  1  0  0  0
 36105  1  0  0  0
 37 39  1  0  0  0
 37 47  1  0  0  0
 37 66  1  0  0  0
 37106  1  0  0  0
 38 43  2  0  0  0
 38 46  1  0  0  0
 38 47  1  0  0  0
 39 64  1  0  0  0
 39 67  2  0  0  0
 40 52  1  0  0  0
 40 53  2  0  0  0
 40 58  1  0  0  0
 41107  1  0  0  0
 41108  1  0  0  0
 41109  1  0  0  0
 41 48  1  0  0  0
 42 43  1  0  0  0
 42 66  1  0  0  0
 42110  1  0  0  0
 42111  1  0  0  0
 43 44  1  0  0  0
 44112  1  0  0  0
 45 46  2  0  0  0
 45113  1  0  0  0
 46114  1  0  0  0
 47115  1  0  0  0
 47116  1  0  0  0
 48 56  1  0  0  0
 48 65  1  0  0  0
 48117  1  0  0  0
 49 50  1  0  0  0
 49 53  1  0  0  0
 49 64  1  0  0  0
 49118  1  0  0  0
 50 51  1  0  0  0
 50119  1  0  0  0
 50120  1  0  0  0
 51 52  1  0  0  0
 51121  1  0  0  0
 51122  1  0  0  0
 52123  1  0  0  0
 52124  1  0  0  0
 53 54  1  0  0  0
 54 55  2  0  0  0
 54125  1  0  0  0
 55 57  1  0  0  0
 55126  1  0  0  0
 56 69  2  0  0  0
 57 58  2  0  0  0
 57127  1  0  0  0
 58128  1  0  0  0
 59 60  1  0  0  0
 59 61  1  0  0  0
 59 62  1  0  0  0
 60129  1  0  0  0
 60130  1  0  0  0
 60131  1  0  0  0
 61132  1  0  0  0
 61133  1  0  0  0
 61134  1  0  0  0
 62135  1  0  0  0
 62136  1  0  0  0
 62137  1  0  0  0
 63 65  1  0  0  0
 63138  1  0  0  0
 63139  1  0  0  0
 63140  1  0  0  0
 64141  1  0  0  0
 65142  1  0  0  0
 68 79  1  0  0  0
 71 72  2  0  0  0
 71 73  1  0  0  0
 71143  1  0  0  0
 72 75  1  0  0  0
 72144  1  0  0  0
 73 74  2  0  0  0
 73 76  1  0  0  0
 74 77  1  0  0  0
 74 81  1  0  0  0
 75 81  2  0  0  0
 75 83  1  0  0  0
 76 82  1  0  0  0
 76145  1  0  0  0
 76146  1  0  0  0
 77 78  1  0  0  0
 77147  1  0  0  0
 77148  1  0  0  0
 78 82  1  0  0  0
 78149  1  0  0  0
 78150  1  0  0  0
 79 80  1  0  0  0
 79151  1  0  0  0
 79152  1  0  0  0
 80 83  1  0  0  0
 80153  1  0  0  0
 80154  1  0  0  0
M  ISO  4   1 100  68 101  79 101  82 100
M  END
> <chiral flag>
0

> <version>
0

> <s_m_source_file>
/data/baiqing/PycharmProjects/Reinvent-master-3.2/result/LINK_invent/BTK/process_docking_weight1_custom_sum_contain_oxygen_bond_distance_aromatic_linkinvent_7_9_3/rearranged_h_0189.sdf

> <i_m_source_file_index>
47

> <r_mmod_Potential_Energy-OPLS-2005>
183.021835327148

> <r_mmod_Stretch_Energy-OPLS-2005>
114.922348022461

> <r_mmod_Bend_Energy-OPLS-2005>
235.673599243164

> <r_mmod_Torsional_Energy-OPLS-2005>
277.662445068359

> <r_mmod_Improper_Torsional_Energy-OPLS-2005>
9.6569709777832

> <r_mmod_Van_der_Waal_Energy-OPLS-2005>
142.059310913086

> <r_mmod_Electrostatic_Energy-OPLS-2005>
-469.40283203125

> <r_mmod_Solvation_Energy-OPLS-2005>
-211.102081298828

> <b_mmod_Minimization_Converged-OPLS-2005>
0

> <r_mmod_RMS_Derivative-OPLS-2005>
0.233582526445389

$$$$
47
                    3D
 Structure written by MMmdl.
160170  0  0  1  0            999 V2000
  -30.6013  -14.9755   20.3944 C   0  0  0  0  0  0
  -30.4174  -12.6143   19.4913 C   0  0  0  0  0  0
  -29.5084  -12.5256   18.2485 C   0  0  0  0  0  0
  -28.0453  -12.3149   18.6750 C   0  0  0  0  0  0
  -27.6189  -13.2597   19.8293 C   0  0  2  0  0  0
  -28.6671  -13.3369   20.9590 C   0  0  0  0  0  0
  -25.2421  -13.8240   20.5739 C   0  0  0  0  0  0
  -24.1749  -13.0449   20.9244 C   0  0  0  0  0  0
  -24.6387  -11.6937   20.8765 C   0  0  0  0  0  0
  -23.9078  -10.4298   21.0409 C   0  0  0  0  0  0
  -24.3624   -9.4213   21.9189 C   0  0  0  0  0  0
  -23.6297   -8.2248   22.0759 C   0  0  0  0  0  0
  -22.4280   -8.0286   21.3549 C   0  0  0  0  0  0
  -21.9917   -9.0260   20.4649 C   0  0  0  0  0  0
  -22.7250  -10.2138   20.3056 C   0  0  0  0  0  0
  -21.6858   -6.0731   22.5272 C   0  0  0  0  0  0
  -21.4020   -6.5634   23.8207 C   0  0  0  0  0  0
  -21.3662   -5.6789   24.9169 C   0  0  0  0  0  0
  -21.6047   -4.3052   24.7220 C   0  0  0  0  0  0
  -21.8817   -3.8138   23.4340 C   0  0  0  0  0  0
  -21.9194   -4.6956   22.3395 C   0  0  0  0  0  0
  -22.7769  -13.5215   21.1878 C   0  0  0  0  0  0
  -22.1663   -4.2139   21.0976 F   0  0  0  0  0  0
  -21.5631   -3.4538   25.7736 F   0  0  0  0  0  0
  -29.9227  -13.7545   20.3256 N   0  0  0  0  0  0
  -26.2849  -12.9494   20.3257 N   0  0  0  0  0  0
  -25.9324  -11.6613   20.5750 N   0  0  0  0  0  0
  -22.0412  -12.8216   22.0436 N   0  0  0  0  0  0
  -25.4081  -15.1967   20.4180 N   0  0  0  0  0  0
  -31.8199  -14.8901   20.1973 O   0  0  0  0  0  0
  -21.6649   -6.8877   21.4238 O   0  0  0  0  0  0
  -22.3456  -14.5521   20.6716 O   0  0  0  0  0  0
  -24.6475  -31.8424   23.1886 C   0  0  0  0  0  0
  -25.9236  -32.4685   23.8284 C   0  0  1  0  0  0
  -27.2025  -27.1051   20.1304 C   0  0  0  0  0  0
  -25.5972  -33.8493   24.2201 N   0  0  0  0  0  0
  -23.4501  -30.4665   21.5357 C   0  0  2  0  0  0
  -24.8923  -28.8937   20.1080 C   0  0  0  0  0  0
  -22.7585  -29.4556   22.4849 C   0  0  0  0  0  0
  -18.0304  -28.1396   22.8480 C   0  0  0  0  0  0
  -24.1489  -36.7252   23.2641 C   0  0  0  0  0  0
  -26.0109  -30.7065   21.3897 C   0  0  0  0  0  0
  -26.0751  -29.3176   20.7243 C   0  0  0  0  0  0
  -27.2283  -28.4401   20.7196 C   0  0  0  0  0  0
  -25.9781  -26.7913   19.4924 C   0  0  0  0  0  0
  -24.8580  -27.6450   19.4776 C   0  0  0  0  0  0
  -23.6745  -29.8026   20.1532 C   0  0  0  0  0  0
  -25.4122  -36.3032   24.0319 C   0  0  1  0  0  0
  -20.5929  -28.3731   23.1222 C   0  0  2  0  0  0
  -20.6789  -26.9426   22.5398 C   0  0  0  0  0  0
  -19.5752  -26.6379   21.5218 C   0  0  0  0  0  0
  -18.1936  -26.7934   22.1631 C   0  0  0  0  0  0
  -19.1561  -28.8880   23.2846 C   0  0  0  0  0  0
  -18.9476  -30.1476   23.8869 C   0  0  0  0  0  0
  -17.6468  -30.6592   24.0560 C   0  0  0  0  0  0
  -25.9076  -34.9407   23.5075 C   0  0  0  0  0  0
  -16.5359  -29.9087   23.6335 C   0  0  0  0  0  0
  -16.7286  -28.6506   23.0359 C   0  0  0  0  0  0
  -26.4533  -31.6558   25.0738 C   0  0  0  0  0  0
  -25.3710  -31.3770   26.1435 C   0  0  0  0  0  0
  -27.0393  -30.2941   24.6350 C   0  0  0  0  0  0
  -27.6060  -32.4324   25.7527 C   0  0  0  0  0  0
  -27.5580  -37.1779   24.8458 C   0  0  0  0  0  0
  -21.4275  -29.3060   22.3601 N   0  0  0  0  0  0
  -26.4282  -37.3747   23.9415 N   0  0  0  0  0  0
  -24.7235  -31.0265   22.0930 N   0  0  0  0  0  0
  -23.4228  -28.8085   23.2985 O   0  0  0  0  0  0
  -28.2552  -26.1055   20.2397 O   0  0  0  0  0  0
  -26.5663  -34.8904   22.4651 O   0  0  0  0  0  0
  -23.5586  -32.1318   23.7090 O   0  0  0  0  0  0
  -27.8062  -23.3327   18.0719 C   0  0  0  0  0  0
  -28.5912  -22.3779   19.9292 C   0  0  0  0  0  0
  -28.1802  -24.7310   19.7892 C   0  0  0  0  0  0
  -25.9461  -23.6664   16.2566 C   0  0  0  0  0  0
  -26.2050  -22.1886   16.3390 C   0  0  0  0  0  0
  -28.4723  -18.4574   21.0283 C   0  0  0  0  0  0
  -30.5513  -18.9731   20.0341 C   0  0  0  0  0  0
  -28.6555  -16.8652   20.6750 C   0  0  0  0  0  0
  -30.7098  -17.4319   19.5778 C   0  0  0  0  0  0
  -27.3189  -23.1643   16.6645 C   0  0  0  0  0  0
  -29.1116  -19.6053   20.1169 C   0  0  0  0  0  0
  -28.1807  -22.2132   18.6894 N   0  0  0  0  0  0
  -27.8185  -24.5840   18.5218 N   0  0  0  0  0  0
  -28.6175  -23.6313   20.5389 N   0  0  0  0  0  0
  -30.0043  -16.2942   20.2974 N   0  0  0  0  0  0
  -29.0025  -21.1115   20.5778 N   0  0  0  0  0  0
  -31.4529  -12.7393   19.1719 H   0  0  0  0  0  0
  -30.3990  -11.6801   20.0544 H   0  0  0  0  0  0
  -29.8340  -11.7138   17.5968 H   0  0  0  0  0  0
  -29.5929  -13.4425   17.6632 H   0  0  0  0  0  0
  -27.9443  -11.2769   18.9932 H   0  0  0  0  0  0
  -27.3789  -12.4383   17.8204 H   0  0  0  0  0  0
  -27.5657  -14.2510   19.3800 H   0  0  0  0  0  0
  -28.7745  -12.3786   21.4694 H   0  0  0  0  0  0
  -28.3672  -14.0558   21.7212 H   0  0  0  0  0  0
  -25.2758   -9.5707   22.4773 H   0  0  0  0  0  0
  -24.0004   -7.4648   22.7484 H   0  0  0  0  0  0
  -21.0842   -8.8788   19.8964 H   0  0  0  0  0  0
  -22.3701  -10.9682   19.6174 H   0  0  0  0  0  0
  -21.2021   -7.6145   23.9708 H   0  0  0  0  0  0
  -21.1490   -6.0520   25.9076 H   0  0  0  0  0  0
  -22.0596   -2.7599   23.2839 H   0  0  0  0  0  0
  -22.4012  -11.9877   22.4836 H   0  0  0  0  0  0
  -21.1038  -13.1261   22.2625 H   0  0  0  0  0  0
  -24.6441  -15.8522   20.5400 H   0  0  0  0  0  0
  -26.2621  -15.6368   20.1036 H   0  0  0  0  0  0
  -26.7309  -32.5272   23.1013 H   0  0  0  0  0  0
  -25.0084  -33.9592   25.0331 H   0  0  0  0  0  0
  -22.7547  -31.2950   21.3856 H   0  0  0  0  0  0
  -23.3764  -35.9566   23.3263 H   0  0  0  0  0  0
  -24.3572  -36.8916   22.2062 H   0  0  0  0  0  0
  -23.7215  -37.6428   23.6699 H   0  0  0  0  0  0
  -26.1719  -31.4613   20.6187 H   0  0  0  0  0  0
  -26.8802  -30.7522   22.0345 H   0  0  0  0  0  0
  -28.1280  -28.7597   21.2277 H   0  0  0  0  0  0
  -25.8170  -25.8345   19.0250 H   0  0  0  0  0  0
  -23.9506  -27.3122   18.9924 H   0  0  0  0  0  0
  -23.8193  -30.5804   19.4028 H   0  0  0  0  0  0
  -22.7855  -29.2538   19.8386 H   0  0  0  0  0  0
  -25.1302  -36.1856   25.0811 H   0  0  0  0  0  0
  -21.0024  -28.3314   24.1345 H   0  0  0  0  0  0
  -20.5679  -26.2343   23.3624 H   0  0  0  0  0  0
  -21.6651  -26.7416   22.1192 H   0  0  0  0  0  0
  -19.6907  -25.6286   21.1254 H   0  0  0  0  0  0
  -19.6677  -27.3182   20.6744 H   0  0  0  0  0  0
  -17.4204  -26.6676   21.4038 H   0  0  0  0  0  0
  -18.0326  -26.0085   22.9039 H   0  0  0  0  0  0
  -19.7948  -30.7307   24.2218 H   0  0  0  0  0  0
  -17.5020  -31.6266   24.5172 H   0  0  0  0  0  0
  -15.5360  -30.2982   23.7677 H   0  0  0  0  0  0
  -15.8687  -28.0822   22.7086 H   0  0  0  0  0  0
  -24.5847  -30.7173   25.7746 H   0  0  0  0  0  0
  -24.8963  -32.2973   26.4856 H   0  0  0  0  0  0
  -25.7977  -30.8917   27.0225 H   0  0  0  0  0  0
  -26.3018  -29.6652   24.1356 H   0  0  0  0  0  0
  -27.3970  -29.7251   25.4941 H   0  0  0  0  0  0
  -27.8944  -30.4144   23.9697 H   0  0  0  0  0  0
  -27.2648  -33.3632   26.2073 H   0  0  0  0  0  0
  -28.3899  -32.6873   25.0384 H   0  0  0  0  0  0
  -28.0713  -31.8481   26.5477 H   0  0  0  0  0  0
  -28.2569  -38.0108   24.7543 H   0  0  0  0  0  0
  -28.1108  -36.2637   24.6236 H   0  0  0  0  0  0
  -27.2305  -37.1363   25.8862 H   0  0  0  0  0  0
  -20.9486  -29.8799   21.6800 H   0  0  0  0  0  0
  -26.0148  -38.2807   24.1438 H   0  0  0  0  0  0
  -25.3207  -24.1089   17.0289 H   0  0  0  0  0  0
  -25.8472  -24.1072   15.2667 H   0  0  0  0  0  0
  -26.2846  -21.6366   15.4051 H   0  0  0  0  0  0
  -25.7573  -21.6438   17.1676 H   0  0  0  0  0  0
  -28.8509  -18.5972   22.0420 H   0  0  0  0  0  0
  -27.4021  -18.6523   21.1106 H   0  0  0  0  0  0
  -31.1474  -19.5841   19.3546 H   0  0  0  0  0  0
  -31.0359  -19.0791   21.0061 H   0  0  0  0  0  0
  -27.9925  -16.6369   19.8403 H   0  0  0  0  0  0
  -28.2708  -16.2945   21.5181 H   0  0  0  0  0  0
  -31.7812  -17.2347   19.5430 H   0  0  0  0  0  0
  -30.3883  -17.3653   18.5371 H   0  0  0  0  0  0
  -28.1321  -23.2665   15.9489 H   0  0  0  0  0  0
  -28.6556  -19.5461   19.1276 H   0  0  0  0  0  0
  -29.3012  -21.2576   21.5355 H   0  0  0  0  0  0
  1 25  1  0  0  0
  1 30  2  0  0  0
  1 85  1  0  0  0
  2  3  1  0  0  0
  2 25  1  0  0  0
  2 87  1  0  0  0
  2 88  1  0  0  0
  3  4  1  0  0  0
  3 89  1  0  0  0
  3 90  1  0  0  0
  4  5  1  0  0  0
  4 91  1  0  0  0
  4 92  1  0  0  0
  5  6  1  0  0  0
  5 26  1  0  0  0
  5 93  1  0  0  0
  6 25  1  0  0  0
  6 94  1  0  0  0
  6 95  1  0  0  0
  7  8  2  0  0  0
  7 26  1  0  0  0
  7 29  1  0  0  0
  8  9  1  0  0  0
  8 22  1  0  0  0
  9 10  1  0  0  0
  9 27  2  0  0  0
 10 11  2  0  0  0
 10 15  1  0  0  0
 11 12  1  0  0  0
 11 96  1  0  0  0
 12 13  2  0  0  0
 12 97  1  0  0  0
 13 14  1  0  0  0
 13 31  1  0  0  0
 14 15  2  0  0  0
 14 98  1  0  0  0
 15 99  1  0  0  0
 16 17  2  0  0  0
 16 21  1  0  0  0
 16 31  1  0  0  0
 17 18  1  0  0  0
 17100  1  0  0  0
 18 19  2  0  0  0
 18101  1  0  0  0
 19 20  1  0  0  0
 19 24  1  0  0  0
 20 21  2  0  0  0
 20102  1  0  0  0
 21 23  1  0  0  0
 22 28  1  0  0  0
 22 32  2  0  0  0
 26 27  1  0  0  0
 28103  1  0  0  0
 28104  1  0  0  0
 29105  1  0  0  0
 29106  1  0  0  0
 33 34  1  0  0  0
 33 66  1  0  0  0
 33 70  2  0  0  0
 34 36  1  0  0  0
 34 59  1  0  0  0
 34107  1  0  0  0
 35 44  2  0  0  0
 35 45  1  0  0  0
 35 68  1  0  0  0
 36 56  1  0  0  0
 36108  1  0  0  0
 37 39  1  0  0  0
 37 47  1  0  0  0
 37 66  1  0  0  0
 37109  1  0  0  0
 38 43  2  0  0  0
 38 46  1  0  0  0
 38 47  1  0  0  0
 39 64  1  0  0  0
 39 67  2  0  0  0
 40 52  1  0  0  0
 40 53  2  0  0  0
 40 58  1  0  0  0
 41110  1  0  0  0
 41111  1  0  0  0
 41112  1  0  0  0
 41 48  1  0  0  0
 42 43  1  0  0  0
 42 66  1  0  0  0
 42113  1  0  0  0
 42114  1  0  0  0
 43 44  1  0  0  0
 44115  1  0  0  0
 45 46  2  0  0  0
 45116  1  0  0  0
 46117  1  0  0  0
 47118  1  0  0  0
 47119  1  0  0  0
 48 56  1  0  0  0
 48 65  1  0  0  0
 48120  1  0  0  0
 49 50  1  0  0  0
 49 53  1  0  0  0
 49 64  1  0  0  0
 49121  1  0  0  0
 50 51  1  0  0  0
 50122  1  0  0  0
 50123  1  0  0  0
 51 52  1  0  0  0
 51124  1  0  0  0
 51125  1  0  0  0
 52126  1  0  0  0
 52127  1  0  0  0
 53 54  1  0  0  0
 54 55  2  0  0  0
 54128  1  0  0  0
 55 57  1  0  0  0
 55129  1  0  0  0
 56 69  2  0  0  0
 57 58  2  0  0  0
 57130  1  0  0  0
 58131  1  0  0  0
 59 60  1  0  0  0
 59 61  1  0  0  0
 59 62  1  0  0  0
 60132  1  0  0  0
 60133  1  0  0  0
 60134  1  0  0  0
 61135  1  0  0  0
 61136  1  0  0  0
 61137  1  0  0  0
 62138  1  0  0  0
 62139  1  0  0  0
 62140  1  0  0  0
 63 65  1  0  0  0
 63141  1  0  0  0
 63142  1  0  0  0
 63143  1  0  0  0
 64144  1  0  0  0
 65145  1  0  0  0
 68 73  1  0  0  0
 71 82  2  0  0  0
 71 83  1  0  0  0
 71 80  1  0  0  0
 72 82  1  0  0  0
 72 84  2  0  0  0
 72 86  1  0  0  0
 73 83  2  0  0  0
 73 84  1  0  0  0
 74 75  1  0  0  0
 74 80  1  0  0  0
 74146  1  0  0  0
 74147  1  0  0  0
 75 80  1  0  0  0
 75148  1  0  0  0
 75149  1  0  0  0
 76 78  1  0  0  0
 76 81  1  0  0  0
 76150  1  0  0  0
 76151  1  0  0  0
 77 79  1  0  0  0
 77 81  1  0  0  0
 77152  1  0  0  0
 77153  1  0  0  0
 78 85  1  0  0  0
 78154  1  0  0  0
 78155  1  0  0  0
 79 85  1  0  0  0
 79156  1  0  0  0
 79157  1  0  0  0
 80158  1  0  0  0
 81 86  1  0  0  0
 81159  1  0  0  0
 86160  1  0  0  0
M  ISO  4   1 100  68 101  73 101  85 100
M  END
> <chiral flag>
0

> <version>
0

> <s_m_source_file>
/data/baiqing/PycharmProjects/Reinvent-master-3.2/result/LINK_invent/BTK/process_docking_weight1_custom_sum_contain_oxygen_bond_distance_aromatic_linkinvent_7_9_3/rearranged_h_0189.sdf

> <i_m_source_file_index>
48

> <r_mmod_Potential_Energy-OPLS-2005>
-24.6839351654053

> <r_mmod_Stretch_Energy-OPLS-2005>
235.048446655273

> <r_mmod_Bend_Energy-OPLS-2005>
307.454528808594

> <r_mmod_Torsional_Energy-OPLS-2005>
314.083129882812

> <r_mmod_Improper_Torsional_Energy-OPLS-2005>
11.4756364822388

> <r_mmod_Van_der_Waal_Energy-OPLS-2005>
157.037475585938

> <r_mmod_Electrostatic_Energy-OPLS-2005>
-1038.12292480469

> <r_mmod_Solvation_Energy-OPLS-2005>
-228.847610473633

> <b_mmod_Minimization_Converged-OPLS-2005>
0

> <r_mmod_RMS_Derivative-OPLS-2005>
1.54947626590729

$$$$
49
                    3D
 Structure written by MMmdl.
150159  0  0  1  0            999 V2000
  -30.2961  -15.6524   20.3526 C   0  0  0  0  0  0
  -30.4329  -13.0960   19.5399 C   0  0  0  0  0  0
  -29.5523  -12.6735   18.3256 C   0  0  0  0  0  0
  -28.1245  -12.3122   18.7643 C   0  0  0  0  0  0
  -27.6012  -13.3073   19.8236 C   0  0  2  0  0  0
  -28.6287  -13.5958   20.9459 C   0  0  0  0  0  0
  -25.2224  -13.8215   20.5687 C   0  0  0  0  0  0
  -24.1672  -13.0366   20.9286 C   0  0  0  0  0  0
  -24.6421  -11.6905   20.8789 C   0  0  0  0  0  0
  -23.9127  -10.4258   21.0407 C   0  0  0  0  0  0
  -24.3657   -9.4173   21.9190 C   0  0  0  0  0  0
  -23.6312   -8.2221   22.0756 C   0  0  0  0  0  0
  -22.4292   -8.0272   21.3543 C   0  0  0  0  0  0
  -21.9943   -9.0249   20.4643 C   0  0  0  0  0  0
  -22.7295  -10.2114   20.3052 C   0  0  0  0  0  0
  -21.6851   -6.0735   22.5280 C   0  0  0  0  0  0
  -21.4013   -6.5640   23.8214 C   0  0  0  0  0  0
  -21.3658   -5.6790   24.9176 C   0  0  0  0  0  0
  -21.6044   -4.3053   24.7224 C   0  0  0  0  0  0
  -21.8820   -3.8146   23.4344 C   0  0  0  0  0  0
  -21.9192   -4.6962   22.3402 C   0  0  0  0  0  0
  -22.7682  -13.5099   21.1915 C   0  0  0  0  0  0
  -22.1662   -4.2150   21.0979 F   0  0  0  0  0  0
  -21.5627   -3.4535   25.7737 F   0  0  0  0  0  0
  -29.7953  -14.2664   20.3070 N   0  0  0  0  0  0
  -26.2774  -12.9608   20.3257 N   0  0  0  0  0  0
  -25.9382  -11.6678   20.5756 N   0  0  0  0  0  0
  -22.0359  -12.8098   22.0493 N   0  0  0  0  0  0
  -25.3517  -15.1930   20.3905 N   0  0  0  0  0  0
  -31.5164  -15.6089   20.1000 O   0  0  0  0  0  0
  -21.6638   -6.8881   21.4244 O   0  0  0  0  0  0
  -22.3353  -14.5396   20.6747 O   0  0  0  0  0  0
  -24.6849  -31.7983   23.1508 C   0  0  0  0  0  0
  -25.9425  -32.4461   23.8056 C   0  0  1  0  0  0
  -27.2349  -26.6949   20.2122 C   0  0  0  0  0  0
  -25.6003  -33.8286   24.1948 N   0  0  0  0  0  0
  -23.5121  -30.3994   21.5043 C   0  0  2  0  0  0
  -24.9723  -28.7394   20.1160 C   0  0  0  0  0  0
  -22.7776  -29.4306   22.4704 C   0  0  0  0  0  0
  -18.0341  -28.1424   22.8459 C   0  0  0  0  0  0
  -24.1493  -36.7142   23.2652 C   0  0  0  0  0  0
  -26.0931  -30.5286   21.4169 C   0  0  0  0  0  0
  -26.1603  -29.0924   20.7668 C   0  0  0  0  0  0
  -27.2742  -28.0977   20.7846 C   0  0  0  0  0  0
  -26.0150  -26.5562   19.4997 C   0  0  0  0  0  0
  -24.9394  -27.4967   19.4591 C   0  0  0  0  0  0
  -23.7674  -29.6949   20.1398 C   0  0  0  0  0  0
  -25.4144  -36.2889   24.0283 C   0  0  1  0  0  0
  -20.5978  -28.3782   23.1140 C   0  0  2  0  0  0
  -20.6806  -26.9441   22.5404 C   0  0  0  0  0  0
  -19.5781  -26.6374   21.5219 C   0  0  0  0  0  0
  -18.1964  -26.7954   22.1622 C   0  0  0  0  0  0
  -19.1609  -28.8929   23.2779 C   0  0  0  0  0  0
  -18.9513  -30.1513   23.8823 C   0  0  0  0  0  0
  -17.6502  -30.6606   24.0551 C   0  0  0  0  0  0
  -25.9125  -34.9281   23.4951 C   0  0  0  0  0  0
  -16.5392  -29.9086   23.6352 C   0  0  0  0  0  0
  -16.7321  -28.6510   23.0367 C   0  0  0  0  0  0
  -26.4604  -31.6496   25.0678 C   0  0  0  0  0  0
  -25.3674  -31.3818   26.1296 C   0  0  0  0  0  0
  -27.0533  -30.2833   24.6578 C   0  0  0  0  0  0
  -27.6056  -32.4355   25.7493 C   0  0  0  0  0  0
  -27.5561  -37.1728   24.8468 C   0  0  0  0  0  0
  -21.4421  -29.3024   22.3455 N   0  0  0  0  0  0
  -26.4266  -37.3654   23.9412 N   0  0  0  0  0  0
  -24.7868  -30.9420   22.0766 N   0  0  0  0  0  0
  -23.4216  -28.7910   23.3054 O   0  0  0  0  0  0
  -28.1869  -25.4639   20.3122 O   0  0  0  0  0  0
  -26.5761  -34.8862   22.4565 O   0  0  0  0  0  0
  -23.5866  -32.1059   23.6457 O   0  0  0  0  0  0
  -27.9494  -20.8503   20.9126 C   0  0  0  0  0  0
  -28.3357  -19.3785   20.9191 C   0  0  0  0  0  0
  -29.4646  -18.6984   20.3316 C   0  0  0  0  0  0
  -28.6460  -22.0155   20.3002 C   0  0  0  0  0  0
  -30.1416  -19.8858   19.7184 C   0  0  0  0  0  0
  -27.5362  -18.2620   21.5559 C   0  0  0  0  0  0
  -28.2626  -16.8750   21.2980 C   0  0  0  0  0  0
  -31.4202  -19.6118   18.9574 C   0  0  0  0  0  0
  -27.9475  -23.7442   20.0147 C   0  0  0  0  0  0
  -29.7581  -21.3211   19.6962 N   0  0  0  0  0  0
  -29.5114  -17.0090   20.5203 N   0  0  0  0  0  0
  -31.4185  -13.3712   19.1628 H   0  0  0  0  0  0
  -30.6188  -12.2446   20.1969 H   0  0  0  0  0  0
  -30.0083  -11.8363   17.7950 H   0  0  0  0  0  0
  -29.5095  -13.4995   17.6139 H   0  0  0  0  0  0
  -28.1492  -11.3086   19.1909 H   0  0  0  0  0  0
  -27.4545  -12.2671   17.9047 H   0  0  0  0  0  0
  -27.4724  -14.2411   19.2751 H   0  0  0  0  0  0
  -28.9041  -12.6814   21.4734 H   0  0  0  0  0  0
  -28.1910  -14.2360   21.7080 H   0  0  0  0  0  0
  -25.2794   -9.5646   22.4778 H   0  0  0  0  0  0
  -24.0006   -7.4609   22.7482 H   0  0  0  0  0  0
  -21.0870   -8.8783   19.8949 H   0  0  0  0  0  0
  -22.3761  -10.9658   19.6164 H   0  0  0  0  0  0
  -21.2006   -7.6149   23.9719 H   0  0  0  0  0  0
  -21.1479   -6.0518   25.9079 H   0  0  0  0  0  0
  -22.0600   -2.7608   23.2842 H   0  0  0  0  0  0
  -22.4008  -11.9786   22.4905 H   0  0  0  0  0  0
  -21.0967  -13.1095   22.2691 H   0  0  0  0  0  0
  -24.5527  -15.8119   20.4728 H   0  0  0  0  0  0
  -26.1572  -15.6377   19.9730 H   0  0  0  0  0  0
  -26.7508  -32.4936   23.0769 H   0  0  0  0  0  0
  -25.0081  -33.9324   25.0054 H   0  0  0  0  0  0
  -22.8381  -31.2371   21.3135 H   0  0  0  0  0  0
  -23.3776  -35.9450   23.3265 H   0  0  0  0  0  0
  -24.3564  -36.8851   22.2076 H   0  0  0  0  0  0
  -23.7231  -37.6300   23.6757 H   0  0  0  0  0  0
  -26.2963  -31.2531   20.6272 H   0  0  0  0  0  0
  -26.9440  -30.5980   22.0821 H   0  0  0  0  0  0
  -28.1639  -28.3725   21.3335 H   0  0  0  0  0  0
  -25.8470  -25.6163   18.9939 H   0  0  0  0  0  0
  -24.0437  -27.2173   18.9211 H   0  0  0  0  0  0
  -23.9414  -30.4551   19.3774 H   0  0  0  0  0  0
  -22.8722  -29.1610   19.8161 H   0  0  0  0  0  0
  -25.1354  -36.1647   25.0772 H   0  0  0  0  0  0
  -21.0064  -28.3408   24.1263 H   0  0  0  0  0  0
  -20.5668  -26.2408   23.3667 H   0  0  0  0  0  0
  -21.6666  -26.7379   22.1222 H   0  0  0  0  0  0
  -19.6933  -25.6265   21.1295 H   0  0  0  0  0  0
  -19.6723  -27.3146   20.6720 H   0  0  0  0  0  0
  -17.4233  -26.6698   21.4024 H   0  0  0  0  0  0
  -18.0349  -26.0114   22.9036 H   0  0  0  0  0  0
  -19.7987  -30.7354   24.2156 H   0  0  0  0  0  0
  -17.5049  -31.6277   24.5168 H   0  0  0  0  0  0
  -15.5387  -30.2961   23.7722 H   0  0  0  0  0  0
  -15.8723  -28.0805   22.7118 H   0  0  0  0  0  0
  -24.5876  -30.7151   25.7597 H   0  0  0  0  0  0
  -24.8845  -32.3041   26.4531 H   0  0  0  0  0  0
  -25.7852  -30.9101   27.0200 H   0  0  0  0  0  0
  -26.3252  -29.6451   24.1564 H   0  0  0  0  0  0
  -27.3953  -29.7276   25.5319 H   0  0  0  0  0  0
  -27.9238  -30.3959   24.0115 H   0  0  0  0  0  0
  -27.2606  -33.3735   26.1859 H   0  0  0  0  0  0
  -28.3976  -32.6790   25.0398 H   0  0  0  0  0  0
  -28.0605  -31.8622   26.5582 H   0  0  0  0  0  0
  -28.2548  -38.0051   24.7515 H   0  0  0  0  0  0
  -28.1085  -36.2573   24.6295 H   0  0  0  0  0  0
  -27.2278  -37.1368   25.8870 H   0  0  0  0  0  0
  -20.9729  -29.8671   21.6513 H   0  0  0  0  0  0
  -26.0089  -38.2699   24.1428 H   0  0  0  0  0  0
  -27.0062  -21.0859   21.3870 H   0  0  0  0  0  0
  -26.5284  -18.2539   21.1389 H   0  0  0  0  0  0
  -27.4414  -18.4531   22.6253 H   0  0  0  0  0  0
  -27.6001  -16.2260   20.7410 H   0  0  0  0  0  0
  -28.4713  -16.3973   22.2560 H   0  0  0  0  0  0
  -31.9074  -18.7122   19.3334 H   0  0  0  0  0  0
  -32.1223  -20.4397   19.0580 H   0  0  0  0  0  0
  -31.2059  -19.4662   17.8992 H   0  0  0  0  0  0
  -26.9335  -23.6136   20.3925 H   0  0  0  0  0  0
  -27.8154  -23.7362   18.9331 H   0  0  0  0  0  0
  1 25  1  0  0  0
  1 30  2  0  0  0
  1 81  1  0  0  0
  2  3  1  0  0  0
  2 25  1  0  0  0
  2 82  1  0  0  0
  2 83  1  0  0  0
  3  4  1  0  0  0
  3 84  1  0  0  0
  3 85  1  0  0  0
  4  5  1  0  0  0
  4 86  1  0  0  0
  4 87  1  0  0  0
  5  6  1  0  0  0
  5 26  1  0  0  0
  5 88  1  0  0  0
  6 25  1  0  0  0
  6 89  1  0  0  0
  6 90  1  0  0  0
  7  8  2  0  0  0
  7 26  1  0  0  0
  7 29  1  0  0  0
  8  9  1  0  0  0
  8 22  1  0  0  0
  9 10  1  0  0  0
  9 27  2  0  0  0
 10 11  2  0  0  0
 10 15  1  0  0  0
 11 12  1  0  0  0
 11 91  1  0  0  0
 12 13  2  0  0  0
 12 92  1  0  0  0
 13 14  1  0  0  0
 13 31  1  0  0  0
 14 15  2  0  0  0
 14 93  1  0  0  0
 15 94  1  0  0  0
 16 17  2  0  0  0
 16 21  1  0  0  0
 16 31  1  0  0  0
 17 18  1  0  0  0
 17 95  1  0  0  0
 18 19  2  0  0  0
 18 96  1  0  0  0
 19 20  1  0  0  0
 19 24  1  0  0  0
 20 21  2  0  0  0
 20 97  1  0  0  0
 21 23  1  0  0  0
 22 28  1  0  0  0
 22 32  2  0  0  0
 26 27  1  0  0  0
 28 98  1  0  0  0
 28 99  1  0  0  0
 29100  1  0  0  0
 29101  1  0  0  0
 33 34  1  0  0  0
 33 66  1  0  0  0
 33 70  2  0  0  0
 34 36  1  0  0  0
 34 59  1  0  0  0
 34102  1  0  0  0
 35 44  2  0  0  0
 35 45  1  0  0  0
 35 68  1  0  0  0
 36 56  1  0  0  0
 36103  1  0  0  0
 37 39  1  0  0  0
 37 47  1  0  0  0
 37 66  1  0  0  0
 37104  1  0  0  0
 38 43  2  0  0  0
 38 46  1  0  0  0
 38 47  1  0  0  0
 39 64  1  0  0  0
 39 67  2  0  0  0
 40 52  1  0  0  0
 40 53  2  0  0  0
 40 58  1  0  0  0
 41105  1  0  0  0
 41106  1  0  0  0
 41107  1  0  0  0
 41 48  1  0  0  0
 42 43  1  0  0  0
 42 66  1  0  0  0
 42108  1  0  0  0
 42109  1  0  0  0
 43 44  1  0  0  0
 44110  1  0  0  0
 45 46  2  0  0  0
 45111  1  0  0  0
 46112  1  0  0  0
 47113  1  0  0  0
 47114  1  0  0  0
 48 56  1  0  0  0
 48 65  1  0  0  0
 48115  1  0  0  0
 49 50  1  0  0  0
 49 53  1  0  0  0
 49 64  1  0  0  0
 49116  1  0  0  0
 50 51  1  0  0  0
 50117  1  0  0  0
 50118  1  0  0  0
 51 52  1  0  0  0
 51119  1  0  0  0
 51120  1  0  0  0
 52121  1  0  0  0
 52122  1  0  0  0
 53 54  1  0  0  0
 54 55  2  0  0  0
 54123  1  0  0  0
 55 57  1  0  0  0
 55124  1  0  0  0
 56 69  2  0  0  0
 57 58  2  0  0  0
 57125  1  0  0  0
 58126  1  0  0  0
 59 60  1  0  0  0
 59 61  1  0  0  0
 59 62  1  0  0  0
 60127  1  0  0  0
 60128  1  0  0  0
 60129  1  0  0  0
 61130  1  0  0  0
 61131  1  0  0  0
 61132  1  0  0  0
 62133  1  0  0  0
 62134  1  0  0  0
 62135  1  0  0  0
 63 65  1  0  0  0
 63136  1  0  0  0
 63137  1  0  0  0
 63138  1  0  0  0
 64139  1  0  0  0
 65140  1  0  0  0
 68 79  1  0  0  0
 71 72  2  0  0  0
 71 74  1  0  0  0
 71141  1  0  0  0
 72 73  1  0  0  0
 72 76  1  0  0  0
 73 75  2  0  0  0
 73 81  1  0  0  0
 74 79  1  0  0  0
 74 80  2  0  0  0
 75 78  1  0  0  0
 75 80  1  0  0  0
 76 77  1  0  0  0
 76142  1  0  0  0
 76143  1  0  0  0
 77 81  1  0  0  0
 77144  1  0  0  0
 77145  1  0  0  0
 78146  1  0  0  0
 78147  1  0  0  0
 78148  1  0  0  0
 79149  1  0  0  0
 79150  1  0  0  0
M  ISO  4   1 100  68 101  79 101  81 100
M  END
> <chiral flag>
0

> <version>
0

> <s_m_source_file>
/data/baiqing/PycharmProjects/Reinvent-master-3.2/result/LINK_invent/BTK/process_docking_weight1_custom_sum_contain_oxygen_bond_distance_aromatic_linkinvent_7_9_3/rearranged_h_0189.sdf

> <i_m_source_file_index>
49

> <r_mmod_Potential_Energy-OPLS-2005>
2412.15698242188

> <r_mmod_Stretch_Energy-OPLS-2005>
957.145812988281

> <r_mmod_Bend_Energy-OPLS-2005>
764.112915039062

> <r_mmod_Torsional_Energy-OPLS-2005>
282.401611328125

> <r_mmod_Improper_Torsional_Energy-OPLS-2005>
6.41393136978149

> <r_mmod_Van_der_Waal_Energy-OPLS-2005>
130.638031005859

> <r_mmod_Electrostatic_Energy-OPLS-2005>
-427.582122802734

> <r_mmod_Solvation_Energy-OPLS-2005>
-218.275131225586

> <b_mmod_Minimization_Converged-OPLS-2005>
0

> <r_mmod_RMS_Derivative-OPLS-2005>
0.546477496623993

$$$$
50
                    3D
 Structure written by MMmdl.
153162  0  0  1  0            999 V2000
  -30.6486  -14.9308   20.4303 C   0  0  0  0  0  0
  -30.4137  -12.5971   19.4815 C   0  0  0  0  0  0
  -29.4981  -12.5172   18.2447 C   0  0  0  0  0  0
  -28.0415  -12.2951   18.6824 C   0  0  0  0  0  0
  -27.6188  -13.2531   19.8265 C   0  0  2  0  0  0
  -28.6688  -13.3387   20.9569 C   0  0  0  0  0  0
  -25.2403  -13.8231   20.5732 C   0  0  0  0  0  0
  -24.1742  -13.0436   20.9248 C   0  0  0  0  0  0
  -24.6391  -11.6926   20.8773 C   0  0  0  0  0  0
  -23.9090  -10.4286   21.0401 C   0  0  0  0  0  0
  -24.3642   -9.4190   21.9171 C   0  0  0  0  0  0
  -23.6303   -8.2233   22.0741 C   0  0  0  0  0  0
  -22.4281   -8.0280   21.3540 C   0  0  0  0  0  0
  -21.9926   -9.0258   20.4637 C   0  0  0  0  0  0
  -22.7265  -10.2123   20.3047 C   0  0  0  0  0  0
  -21.6844   -6.0730   22.5268 C   0  0  0  0  0  0
  -21.4010   -6.5633   23.8204 C   0  0  0  0  0  0
  -21.3643   -5.6788   24.9165 C   0  0  0  0  0  0
  -21.6051   -4.3061   24.7222 C   0  0  0  0  0  0
  -21.8825   -3.8145   23.4349 C   0  0  0  0  0  0
  -21.9200   -4.6955   22.3400 C   0  0  0  0  0  0
  -22.7757  -13.5175   21.1901 C   0  0  0  0  0  0
  -22.1660   -4.2136   21.0978 F   0  0  0  0  0  0
  -21.5627   -3.4546   25.7740 F   0  0  0  0  0  0
  -29.9328  -13.7363   20.3249 N   0  0  0  0  0  0
  -26.2851  -12.9489   20.3273 N   0  0  0  0  0  0
  -25.9333  -11.6613   20.5803 N   0  0  0  0  0  0
  -22.0450  -12.8128   22.0459 N   0  0  0  0  0  0
  -25.4030  -15.1950   20.4100 N   0  0  0  0  0  0
  -31.8628  -14.8187   20.2286 O   0  0  0  0  0  0
  -21.6641   -6.8877   21.4236 O   0  0  0  0  0  0
  -22.3414  -14.5472   20.6752 O   0  0  0  0  0  0
  -24.6423  -31.8457   23.1898 C   0  0  0  0  0  0
  -25.9197  -32.4699   23.8277 C   0  0  1  0  0  0
  -27.2023  -27.1443   20.1546 C   0  0  0  0  0  0
  -25.5930  -33.8502   24.2191 N   0  0  0  0  0  0
  -23.4458  -30.4674   21.5359 C   0  0  2  0  0  0
  -24.8928  -28.8986   20.1089 C   0  0  0  0  0  0
  -22.7570  -29.4566   22.4877 C   0  0  0  0  0  0
  -18.0304  -28.1411   22.8480 C   0  0  0  0  0  0
  -24.1476  -36.7243   23.2649 C   0  0  0  0  0  0
  -26.0019  -30.7208   21.3908 C   0  0  0  0  0  0
  -26.0728  -29.3348   20.7294 C   0  0  0  0  0  0
  -27.2337  -28.4737   20.7342 C   0  0  0  0  0  0
  -26.0060  -26.8137   19.4833 C   0  0  0  0  0  0
  -24.8728  -27.6513   19.4682 C   0  0  0  0  0  0
  -23.6693  -29.8008   20.1544 C   0  0  0  0  0  0
  -25.4115  -36.3035   24.0319 C   0  0  1  0  0  0
  -20.5915  -28.3727   23.1241 C   0  0  2  0  0  0
  -20.6782  -26.9437   22.5415 C   0  0  0  0  0  0
  -19.5758  -26.6388   21.5225 C   0  0  0  0  0  0
  -18.1933  -26.7943   22.1622 C   0  0  0  0  0  0
  -19.1556  -28.8882   23.2838 C   0  0  0  0  0  0
  -18.9481  -30.1468   23.8887 C   0  0  0  0  0  0
  -17.6475  -30.6603   24.0573 C   0  0  0  0  0  0
  -25.9067  -34.9409   23.5072 C   0  0  0  0  0  0
  -16.5360  -29.9100   23.6356 C   0  0  0  0  0  0
  -16.7288  -28.6513   23.0382 C   0  0  0  0  0  0
  -26.4528  -31.6565   25.0718 C   0  0  0  0  0  0
  -25.3724  -31.3704   26.1410 C   0  0  0  0  0  0
  -27.0434  -30.2978   24.6305 C   0  0  0  0  0  0
  -27.6074  -32.4347   25.7468 C   0  0  0  0  0  0
  -27.5570  -37.1761   24.8474 C   0  0  0  0  0  0
  -21.4271  -29.3036   22.3602 N   0  0  0  0  0  0
  -26.4286  -37.3742   23.9409 N   0  0  0  0  0  0
  -24.7161  -31.0324   22.0930 N   0  0  0  0  0  0
  -23.4222  -28.8118   23.3028 O   0  0  0  0  0  0
  -28.2302  -26.1385   20.1847 O   0  0  0  0  0  0
  -26.5695  -34.8918   22.4674 O   0  0  0  0  0  0
  -23.5544  -32.1327   23.7140 O   0  0  0  0  0  0
  -28.9084  -22.7943   18.9589 C   0  0  0  0  0  0
  -28.5046  -23.2636   20.2475 C   0  0  0  0  0  0
  -30.6050  -18.9049   19.9648 C   0  0  0  0  0  0
  -28.3414  -18.3681   20.4644 C   0  0  0  0  0  0
  -31.0681  -17.4490   20.4466 C   0  0  0  0  0  0
  -28.7622  -16.8323   20.8539 C   0  0  0  0  0  0
  -29.3693  -19.5683   20.6643 C   0  0  0  0  0  0
  -27.8776  -24.7162   20.6966 C   0  0  0  0  0  0
  -29.2136  -21.4974   18.9362 N   0  0  0  0  0  0
  -28.5809  -22.1413   21.0151 N   0  0  0  0  0  0
  -29.0229  -21.0526   20.2132 N   0  0  0  0  0  0
  -30.1113  -16.2707   20.4679 N   0  0  0  0  0  0
  -31.4455  -12.7181   19.1486 H   0  0  0  0  0  0
  -30.3983  -11.6614   20.0431 H   0  0  0  0  0  0
  -29.8177  -11.7108   17.5825 H   0  0  0  0  0  0
  -29.5747  -13.4420   17.6697 H   0  0  0  0  0  0
  -27.9592  -11.2620   19.0219 H   0  0  0  0  0  0
  -27.3664  -12.3891   17.8311 H   0  0  0  0  0  0
  -27.5646  -14.2367   19.3610 H   0  0  0  0  0  0
  -28.7714  -12.3872   21.4808 H   0  0  0  0  0  0
  -28.3740  -14.0744   21.7063 H   0  0  0  0  0  0
  -25.2788   -9.5643   22.4739 H   0  0  0  0  0  0
  -24.0000   -7.4621   22.7458 H   0  0  0  0  0  0
  -21.0854   -8.8792   19.8946 H   0  0  0  0  0  0
  -22.3739  -10.9669   19.6153 H   0  0  0  0  0  0
  -21.1997   -7.6141   23.9695 H   0  0  0  0  0  0
  -21.1447   -6.0521   25.9062 H   0  0  0  0  0  0
  -22.0624   -2.7607   23.2858 H   0  0  0  0  0  0
  -22.4133  -11.9818   22.4842 H   0  0  0  0  0  0
  -21.1055  -13.1082   22.2702 H   0  0  0  0  0  0
  -24.6342  -15.8466   20.5241 H   0  0  0  0  0  0
  -26.2495  -15.6352   20.0757 H   0  0  0  0  0  0
  -26.7251  -32.5309   23.0994 H   0  0  0  0  0  0
  -24.9977  -33.9600   25.0269 H   0  0  0  0  0  0
  -22.7474  -31.2944   21.3869 H   0  0  0  0  0  0
  -23.3767  -35.9548   23.3298 H   0  0  0  0  0  0
  -24.3540  -36.8904   22.2064 H   0  0  0  0  0  0
  -23.7220  -37.6414   23.6727 H   0  0  0  0  0  0
  -26.1697  -31.4833   20.6291 H   0  0  0  0  0  0
  -26.8661  -30.7587   22.0426 H   0  0  0  0  0  0
  -28.1340  -28.8000   21.2371 H   0  0  0  0  0  0
  -25.9322  -25.8614   18.9789 H   0  0  0  0  0  0
  -23.9770  -27.3184   18.9601 H   0  0  0  0  0  0
  -23.8051  -30.5803   19.4030 H   0  0  0  0  0  0
  -22.7827  -29.2437   19.8436 H   0  0  0  0  0  0
  -25.1307  -36.1861   25.0822 H   0  0  0  0  0  0
  -20.9992  -28.3347   24.1371 H   0  0  0  0  0  0
  -20.5713  -26.2343   23.3634 H   0  0  0  0  0  0
  -21.6642  -26.7485   22.1187 H   0  0  0  0  0  0
  -19.6931  -25.6301   21.1248 H   0  0  0  0  0  0
  -19.6688  -27.3205   20.6761 H   0  0  0  0  0  0
  -17.4204  -26.6708   21.4018 H   0  0  0  0  0  0
  -18.0314  -26.0090   22.9028 H   0  0  0  0  0  0
  -19.7955  -30.7266   24.2268 H   0  0  0  0  0  0
  -17.5046  -31.6292   24.5160 H   0  0  0  0  0  0
  -15.5361  -30.2995   23.7698 H   0  0  0  0  0  0
  -15.8688  -28.0824   22.7129 H   0  0  0  0  0  0
  -24.5904  -30.7076   25.7672 H   0  0  0  0  0  0
  -24.8904  -32.2854   26.4872 H   0  0  0  0  0  0
  -25.7996  -30.8817   27.0177 H   0  0  0  0  0  0
  -26.3063  -29.6626   24.1369 H   0  0  0  0  0  0
  -27.4111  -29.7352   25.4888 H   0  0  0  0  0  0
  -27.8939  -30.4210   23.9601 H   0  0  0  0  0  0
  -27.2722  -33.3716   26.1936 H   0  0  0  0  0  0
  -28.3916  -32.6783   25.0290 H   0  0  0  0  0  0
  -28.0710  -31.8535   26.5448 H   0  0  0  0  0  0
  -28.2591  -38.0049   24.7545 H   0  0  0  0  0  0
  -28.1064  -36.2587   24.6303 H   0  0  0  0  0  0
  -27.2277  -37.1418   25.8871 H   0  0  0  0  0  0
  -20.9510  -29.8726   21.6743 H   0  0  0  0  0  0
  -26.0158  -38.2813   24.1431 H   0  0  0  0  0  0
  -28.9499  -23.3724   18.0459 H   0  0  0  0  0  0
  -30.4096  -18.8589   18.8917 H   0  0  0  0  0  0
  -31.4521  -19.5866   20.0645 H   0  0  0  0  0  0
  -27.4287  -18.6143   21.0105 H   0  0  0  0  0  0
  -28.0367  -18.3668   19.4176 H   0  0  0  0  0  0
  -31.4700  -17.5455   21.4561 H   0  0  0  0  0  0
  -31.9302  -17.2025   19.8237 H   0  0  0  0  0  0
  -28.0008  -16.1658   20.4569 H   0  0  0  0  0  0
  -28.6890  -16.7301   21.9376 H   0  0  0  0  0  0
  -29.5915  -19.6338   21.7309 H   0  0  0  0  0  0
  -28.0528  -24.7994   21.7687 H   0  0  0  0  0  0
  -26.7960  -24.6057   20.6432 H   0  0  0  0  0  0
  1 25  1  0  0  0
  1 30  2  0  0  0
  1 82  1  0  0  0
  2  3  1  0  0  0
  2 25  1  0  0  0
  2 83  1  0  0  0
  2 84  1  0  0  0
  3  4  1  0  0  0
  3 85  1  0  0  0
  3 86  1  0  0  0
  4  5  1  0  0  0
  4 87  1  0  0  0
  4 88  1  0  0  0
  5  6  1  0  0  0
  5 26  1  0  0  0
  5 89  1  0  0  0
  6 25  1  0  0  0
  6 90  1  0  0  0
  6 91  1  0  0  0
  7  8  2  0  0  0
  7 26  1  0  0  0
  7 29  1  0  0  0
  8  9  1  0  0  0
  8 22  1  0  0  0
  9 10  1  0  0  0
  9 27  2  0  0  0
 10 11  2  0  0  0
 10 15  1  0  0  0
 11 12  1  0  0  0
 11 92  1  0  0  0
 12 13  2  0  0  0
 12 93  1  0  0  0
 13 14  1  0  0  0
 13 31  1  0  0  0
 14 15  2  0  0  0
 14 94  1  0  0  0
 15 95  1  0  0  0
 16 17  2  0  0  0
 16 21  1  0  0  0
 16 31  1  0  0  0
 17 18  1  0  0  0
 17 96  1  0  0  0
 18 19  2  0  0  0
 18 97  1  0  0  0
 19 20  1  0  0  0
 19 24  1  0  0  0
 20 21  2  0  0  0
 20 98  1  0  0  0
 21 23  1  0  0  0
 22 28  1  0  0  0
 22 32  2  0  0  0
 26 27  1  0  0  0
 28 99  1  0  0  0
 28100  1  0  0  0
 29101  1  0  0  0
 29102  1  0  0  0
 33 34  1  0  0  0
 33 66  1  0  0  0
 33 70  2  0  0  0
 34 36  1  0  0  0
 34 59  1  0  0  0
 34103  1  0  0  0
 35 44  2  0  0  0
 35 45  1  0  0  0
 35 68  1  0  0  0
 36 56  1  0  0  0
 36104  1  0  0  0
 37 39  1  0  0  0
 37 47  1  0  0  0
 37 66  1  0  0  0
 37105  1  0  0  0
 38 43  2  0  0  0
 38 46  1  0  0  0
 38 47  1  0  0  0
 39 64  1  0  0  0
 39 67  2  0  0  0
 40 52  1  0  0  0
 40 53  2  0  0  0
 40 58  1  0  0  0
 41106  1  0  0  0
 41107  1  0  0  0
 41108  1  0  0  0
 41 48  1  0  0  0
 42 43  1  0  0  0
 42 66  1  0  0  0
 42109  1  0  0  0
 42110  1  0  0  0
 43 44  1  0  0  0
 44111  1  0  0  0
 45 46  2  0  0  0
 45112  1  0  0  0
 46113  1  0  0  0
 47114  1  0  0  0
 47115  1  0  0  0
 48 56  1  0  0  0
 48 65  1  0  0  0
 48116  1  0  0  0
 49 50  1  0  0  0
 49 53  1  0  0  0
 49 64  1  0  0  0
 49117  1  0  0  0
 50 51  1  0  0  0
 50118  1  0  0  0
 50119  1  0  0  0
 51 52  1  0  0  0
 51120  1  0  0  0
 51121  1  0  0  0
 52122  1  0  0  0
 52123  1  0  0  0
 53 54  1  0  0  0
 54 55  2  0  0  0
 54124  1  0  0  0
 55 57  1  0  0  0
 55125  1  0  0  0
 56 69  2  0  0  0
 57 58  2  0  0  0
 57126  1  0  0  0
 58127  1  0  0  0
 59 60  1  0  0  0
 59 61  1  0  0  0
 59 62  1  0  0  0
 60128  1  0  0  0
 60129  1  0  0  0
 60130  1  0  0  0
 61131  1  0  0  0
 61132  1  0  0  0
 61133  1  0  0  0
 62134  1  0  0  0
 62135  1  0  0  0
 62136  1  0  0  0
 63 65  1  0  0  0
 63137  1  0  0  0
 63138  1  0  0  0
 63139  1  0  0  0
 64140  1  0  0  0
 65141  1  0  0  0
 68 78  1  0  0  0
 71 72  1  0  0  0
 71 79  2  0  0  0
 71142  1  0  0  0
 72 78  1  0  0  0
 72 80  2  0  0  0
 73 75  1  0  0  0
 73 77  1  0  0  0
 73143  1  0  0  0
 73144  1  0  0  0
 74 76  1  0  0  0
 74 77  1  0  0  0
 74145  1  0  0  0
 74146  1  0  0  0
 75 82  1  0  0  0
 75147  1  0  0  0
 75148  1  0  0  0
 76 82  1  0  0  0
 76149  1  0  0  0
 76150  1  0  0  0
 77 81  1  0  0  0
 77151  1  0  0  0
 78152  1  0  0  0
 78153  1  0  0  0
 79 81  1  0  0  0
 80 81  1  0  0  0
M  ISO  4   1 100  68 101  78 101  82 100
M  END
> <chiral flag>
0

> <version>
0

> <s_m_source_file>
/data/baiqing/PycharmProjects/Reinvent-master-3.2/result/LINK_invent/BTK/process_docking_weight1_custom_sum_contain_oxygen_bond_distance_aromatic_linkinvent_7_9_3/rearranged_h_0189.sdf

> <i_m_source_file_index>
50

> <r_mmod_Potential_Energy-OPLS-2005>
705.528381347656

> <r_mmod_Stretch_Energy-OPLS-2005>
223.293609619141

> <r_mmod_Bend_Energy-OPLS-2005>
295.556640625

> <r_mmod_Torsional_Energy-OPLS-2005>
339.705535888672

> <r_mmod_Improper_Torsional_Energy-OPLS-2005>
8.12786960601807

> <r_mmod_Van_der_Waal_Energy-OPLS-2005>
120.835815429688

> <r_mmod_Electrostatic_Energy-OPLS-2005>
-257.062744140625

> <r_mmod_Solvation_Energy-OPLS-2005>
-215.655242919922

> <b_mmod_Minimization_Converged-OPLS-2005>
0

> <r_mmod_RMS_Derivative-OPLS-2005>
2.47750329971313

$$$$
51
                    3D
 Structure written by MMmdl.
155164  0  0  1  0            999 V2000
  -30.5294  -14.8825   20.4288 C   0  0  0  0  0  0
  -30.4503  -12.5406   19.4854 C   0  0  0  0  0  0
  -29.5241  -12.5294   18.2462 C   0  0  0  0  0  0
  -28.0526  -12.3240   18.6590 C   0  0  0  0  0  0
  -27.6386  -13.2347   19.8445 C   0  0  2  0  0  0
  -28.6835  -13.2032   20.9815 C   0  0  0  0  0  0
  -25.2500  -13.8180   20.5672 C   0  0  0  0  0  0
  -24.1806  -13.0426   20.9214 C   0  0  0  0  0  0
  -24.6401  -11.6905   20.8735 C   0  0  0  0  0  0
  -23.9077  -10.4283   21.0397 C   0  0  0  0  0  0
  -24.3622   -9.4205   21.9179 C   0  0  0  0  0  0
  -23.6294   -8.2241   22.0755 C   0  0  0  0  0  0
  -22.4276   -8.0273   21.3543 C   0  0  0  0  0  0
  -21.9909   -9.0247   20.4646 C   0  0  0  0  0  0
  -22.7242  -10.2126   20.3054 C   0  0  0  0  0  0
  -21.6860   -6.0730   22.5280 C   0  0  0  0  0  0
  -21.4014   -6.5635   23.8210 C   0  0  0  0  0  0
  -21.3660   -5.6789   24.9175 C   0  0  0  0  0  0
  -21.6046   -4.3053   24.7228 C   0  0  0  0  0  0
  -21.8823   -3.8144   23.4350 C   0  0  0  0  0  0
  -21.9195   -4.6957   22.3403 C   0  0  0  0  0  0
  -22.7828  -13.5207   21.1876 C   0  0  0  0  0  0
  -22.1664   -4.2145   21.0978 F   0  0  0  0  0  0
  -21.5631   -3.4535   25.7740 F   0  0  0  0  0  0
  -29.9721  -13.6097   20.4006 N   0  0  0  0  0  0
  -26.2927  -12.9388   20.3238 N   0  0  0  0  0  0
  -25.9331  -11.6533   20.5719 N   0  0  0  0  0  0
  -22.0468  -12.8198   22.0423 N   0  0  0  0  0  0
  -25.4173  -15.1903   20.4047 N   0  0  0  0  0  0
  -31.7203  -15.0080   20.1195 O   0  0  0  0  0  0
  -21.6647   -6.8869   21.4240 O   0  0  0  0  0  0
  -22.3517  -14.5518   20.6724 O   0  0  0  0  0  0
  -24.6414  -31.8458   23.1910 C   0  0  0  0  0  0
  -25.9199  -32.4702   23.8290 C   0  0  1  0  0  0
  -27.2217  -27.1641   20.1285 C   0  0  0  0  0  0
  -25.5948  -33.8508   24.2204 N   0  0  0  0  0  0
  -23.4427  -30.4673   21.5366 C   0  0  2  0  0  0
  -24.8900  -28.9002   20.1071 C   0  0  0  0  0  0
  -22.7543  -29.4569   22.4876 C   0  0  0  0  0  0
  -18.0296  -28.1401   22.8475 C   0  0  0  0  0  0
  -24.1490  -36.7262   23.2644 C   0  0  0  0  0  0
  -25.9971  -30.7267   21.3860 C   0  0  0  0  0  0
  -26.0660  -29.3416   20.7248 C   0  0  0  0  0  0
  -27.2270  -28.4866   20.7244 C   0  0  0  0  0  0
  -26.0137  -26.8171   19.4784 C   0  0  0  0  0  0
  -24.8751  -27.6499   19.4735 C   0  0  0  0  0  0
  -23.6652  -29.7982   20.1547 C   0  0  0  0  0  0
  -25.4122  -36.3040   24.0318 C   0  0  1  0  0  0
  -20.5904  -28.3727   23.1239 C   0  0  2  0  0  0
  -20.6782  -26.9434   22.5403 C   0  0  0  0  0  0
  -19.5757  -26.6391   21.5208 C   0  0  0  0  0  0
  -18.1939  -26.7941   22.1620 C   0  0  0  0  0  0
  -19.1552  -28.8883   23.2848 C   0  0  0  0  0  0
  -18.9470  -30.1478   23.8877 C   0  0  0  0  0  0
  -17.6468  -30.6598   24.0564 C   0  0  0  0  0  0
  -25.9073  -34.9412   23.5072 C   0  0  0  0  0  0
  -16.5358  -29.9091   23.6342 C   0  0  0  0  0  0
  -16.7281  -28.6511   23.0357 C   0  0  0  0  0  0
  -26.4522  -31.6561   25.0725 C   0  0  0  0  0  0
  -25.3706  -31.3739   26.1418 C   0  0  0  0  0  0
  -27.0389  -30.2959   24.6301 C   0  0  0  0  0  0
  -27.6061  -32.4319   25.7503 C   0  0  0  0  0  0
  -27.5578  -37.1787   24.8465 C   0  0  0  0  0  0
  -21.4241  -29.3056   22.3615 N   0  0  0  0  0  0
  -26.4289  -37.3750   23.9409 N   0  0  0  0  0  0
  -24.7137  -31.0337   22.0932 N   0  0  0  0  0  0
  -23.4195  -28.8114   23.3019 O   0  0  0  0  0  0
  -28.3051  -26.2221   20.2301 O   0  0  0  0  0  0
  -26.5663  -34.8905   22.4653 O   0  0  0  0  0  0
  -23.5538  -32.1329   23.7141 O   0  0  0  0  0  0
  -28.6466  -17.9114   19.4234 C   0  0  0  0  0  0
  -28.3885  -19.3085   19.1899 C   0  0  0  0  0  0
  -29.0613  -20.3439   19.9233 C   0  0  0  0  0  0
  -29.6263  -17.4569   20.3485 C   0  0  0  0  0  0
  -27.4399  -19.6767   18.0653 C   0  0  0  0  0  0
  -27.9626  -22.0447   18.2483 C   0  0  0  0  0  0
  -28.9555  -21.9315   19.4412 C   0  0  1  0  0  0
  -28.6502  -23.3081   20.3522 C   0  0  0  0  0  0
  -28.3547  -24.7989   19.6261 C   0  0  0  0  0  0
  -30.0217  -19.8505   20.7919 N   0  0  0  0  0  0
  -30.2695  -18.5001   21.0023 N   0  0  0  0  0  0
  -29.6670  -15.9726   20.6497 N   0  0  0  0  0  0
  -27.9273  -20.8695   17.3601 N   0  3  0  0  0  0
  -31.4849  -12.7015   19.1782 H   0  0  0  0  0  0
  -30.4359  -11.5729   19.9891 H   0  0  0  0  0  0
  -29.8314  -11.7465   17.5518 H   0  0  0  0  0  0
  -29.6249  -13.4731   17.7076 H   0  0  0  0  0  0
  -27.9331  -11.2767   18.9399 H   0  0  0  0  0  0
  -27.3933  -12.4875   17.8056 H   0  0  0  0  0  0
  -27.6176  -14.2481   19.4436 H   0  0  0  0  0  0
  -28.7530  -12.2050   21.4165 H   0  0  0  0  0  0
  -28.3924  -13.8688   21.7958 H   0  0  0  0  0  0
  -25.2766   -9.5686   22.4751 H   0  0  0  0  0  0
  -24.0005   -7.4640   22.7477 H   0  0  0  0  0  0
  -21.0840   -8.8763   19.8949 H   0  0  0  0  0  0
  -22.3697  -10.9661   19.6161 H   0  0  0  0  0  0
  -21.2003   -7.6142   23.9708 H   0  0  0  0  0  0
  -21.1478   -6.0522   25.9076 H   0  0  0  0  0  0
  -22.0600   -2.7605   23.2855 H   0  0  0  0  0  0
  -22.4082  -11.9857   22.4813 H   0  0  0  0  0  0
  -21.1080  -13.1220   22.2614 H   0  0  0  0  0  0
  -24.6408  -15.8350   20.5071 H   0  0  0  0  0  0
  -26.2380  -15.6244   20.0068 H   0  0  0  0  0  0
  -26.7264  -32.5309   23.1019 H   0  0  0  0  0  0
  -25.0048  -33.9625   25.0318 H   0  0  0  0  0  0
  -22.7453  -31.2939   21.3846 H   0  0  0  0  0  0
  -23.3756  -35.9588   23.3289 H   0  0  0  0  0  0
  -24.3580  -36.8912   22.2063 H   0  0  0  0  0  0
  -23.7237  -37.6450   23.6688 H   0  0  0  0  0  0
  -26.1513  -31.4841   20.6162 H   0  0  0  0  0  0
  -26.8688  -30.7733   22.0276 H   0  0  0  0  0  0
  -28.1217  -28.8190   21.2318 H   0  0  0  0  0  0
  -25.8841  -25.8656   18.9918 H   0  0  0  0  0  0
  -23.9743  -27.3044   18.9849 H   0  0  0  0  0  0
  -23.7958  -30.5734   19.3987 H   0  0  0  0  0  0
  -22.7804  -29.2376   19.8475 H   0  0  0  0  0  0
  -25.1309  -36.1874   25.0810 H   0  0  0  0  0  0
  -20.9990  -28.3320   24.1359 H   0  0  0  0  0  0
  -20.5673  -26.2345   23.3622 H   0  0  0  0  0  0
  -21.6652  -26.7447   22.1204 H   0  0  0  0  0  0
  -19.6924  -25.6293   21.1259 H   0  0  0  0  0  0
  -19.6696  -27.3185   20.6723 H   0  0  0  0  0  0
  -17.4205  -26.6673   21.4027 H   0  0  0  0  0  0
  -18.0347  -26.0093   22.9029 H   0  0  0  0  0  0
  -19.7945  -30.7299   24.2236 H   0  0  0  0  0  0
  -17.5021  -31.6274   24.5170 H   0  0  0  0  0  0
  -15.5357  -30.2986   23.7685 H   0  0  0  0  0  0
  -15.8677  -28.0826   22.7084 H   0  0  0  0  0  0
  -24.5891  -30.7087   25.7725 H   0  0  0  0  0  0
  -24.8889  -32.2913   26.4805 H   0  0  0  0  0  0
  -25.7986  -30.8928   27.0221 H   0  0  0  0  0  0
  -26.3009  -29.6676   24.1303 H   0  0  0  0  0  0
  -27.3992  -29.7264   25.4879 H   0  0  0  0  0  0
  -27.8917  -30.4195   23.9626 H   0  0  0  0  0  0
  -27.2666  -33.3631   26.2045 H   0  0  0  0  0  0
  -28.3886  -32.6857   25.0340 H   0  0  0  0  0  0
  -28.0712  -31.8468   26.5445 H   0  0  0  0  0  0
  -28.2584  -38.0093   24.7521 H   0  0  0  0  0  0
  -28.1084  -36.2626   24.6279 H   0  0  0  0  0  0
  -27.2297  -37.1419   25.8867 H   0  0  0  0  0  0
  -20.9447  -29.8764   21.6793 H   0  0  0  0  0  0
  -26.0158  -38.2819   24.1406 H   0  0  0  0  0  0
  -28.0878  -17.1737   18.8658 H   0  0  0  0  0  0
  -26.4398  -19.8469   18.4667 H   0  0  0  0  0  0
  -27.3592  -18.8562   17.3507 H   0  0  0  0  0  0
  -28.2078  -22.9126   17.6354 H   0  0  0  0  0  0
  -26.9513  -22.2065   18.6244 H   0  0  0  0  0  0
  -29.9454  -22.1020   19.0163 H   0  0  0  0  0  0
  -29.4844  -23.4307   21.0429 H   0  0  0  0  0  0
  -27.7904  -23.0932   20.9871 H   0  0  0  0  0  0
  -27.4812  -24.6515   19.0029 H   0  0  0  0  0  0
  -29.1581  -24.9000   18.8955 H   0  0  0  0  0  0
  -28.7506  -15.6220   20.8738 H   0  0  0  0  0  0
  -27.2997  -21.0598   16.5955 H   0  0  0  0  0  0
  -28.8364  -20.6910   16.9652 H   0  0  0  0  0  0
  1 25  1  0  0  0
  1 30  2  0  0  0
  1 82  1  0  0  0
  2  3  1  0  0  0
  2 25  1  0  0  0
  2 84  1  0  0  0
  2 85  1  0  0  0
  3  4  1  0  0  0
  3 86  1  0  0  0
  3 87  1  0  0  0
  4  5  1  0  0  0
  4 88  1  0  0  0
  4 89  1  0  0  0
  5  6  1  0  0  0
  5 26  1  0  0  0
  5 90  1  0  0  0
  6 25  1  0  0  0
  6 91  1  0  0  0
  6 92  1  0  0  0
  7  8  2  0  0  0
  7 26  1  0  0  0
  7 29  1  0  0  0
  8  9  1  0  0  0
  8 22  1  0  0  0
  9 10  1  0  0  0
  9 27  2  0  0  0
 10 11  2  0  0  0
 10 15  1  0  0  0
 11 12  1  0  0  0
 11 93  1  0  0  0
 12 13  2  0  0  0
 12 94  1  0  0  0
 13 14  1  0  0  0
 13 31  1  0  0  0
 14 15  2  0  0  0
 14 95  1  0  0  0
 15 96  1  0  0  0
 16 17  2  0  0  0
 16 21  1  0  0  0
 16 31  1  0  0  0
 17 18  1  0  0  0
 17 97  1  0  0  0
 18 19  2  0  0  0
 18 98  1  0  0  0
 19 20  1  0  0  0
 19 24  1  0  0  0
 20 21  2  0  0  0
 20 99  1  0  0  0
 21 23  1  0  0  0
 22 28  1  0  0  0
 22 32  2  0  0  0
 26 27  1  0  0  0
 28100  1  0  0  0
 28101  1  0  0  0
 29102  1  0  0  0
 29103  1  0  0  0
 33 34  1  0  0  0
 33 66  1  0  0  0
 33 70  2  0  0  0
 34 36  1  0  0  0
 34 59  1  0  0  0
 34104  1  0  0  0
 35 44  2  0  0  0
 35 45  1  0  0  0
 35 68  1  0  0  0
 36 56  1  0  0  0
 36105  1  0  0  0
 37 39  1  0  0  0
 37 47  1  0  0  0
 37 66  1  0  0  0
 37106  1  0  0  0
 38 43  2  0  0  0
 38 46  1  0  0  0
 38 47  1  0  0  0
 39 64  1  0  0  0
 39 67  2  0  0  0
 40 52  1  0  0  0
 40 53  2  0  0  0
 40 58  1  0  0  0
 41107  1  0  0  0
 41108  1  0  0  0
 41109  1  0  0  0
 41 48  1  0  0  0
 42 43  1  0  0  0
 42 66  1  0  0  0
 42110  1  0  0  0
 42111  1  0  0  0
 43 44  1  0  0  0
 44112  1  0  0  0
 45 46  2  0  0  0
 45113  1  0  0  0
 46114  1  0  0  0
 47115  1  0  0  0
 47116  1  0  0  0
 48 56  1  0  0  0
 48 65  1  0  0  0
 48117  1  0  0  0
 49 50  1  0  0  0
 49 53  1  0  0  0
 49 64  1  0  0  0
 49118  1  0  0  0
 50 51  1  0  0  0
 50119  1  0  0  0
 50120  1  0  0  0
 51 52  1  0  0  0
 51121  1  0  0  0
 51122  1  0  0  0
 52123  1  0  0  0
 52124  1  0  0  0
 53 54  1  0  0  0
 54 55  2  0  0  0
 54125  1  0  0  0
 55 57  1  0  0  0
 55126  1  0  0  0
 56 69  2  0  0  0
 57 58  2  0  0  0
 57127  1  0  0  0
 58128  1  0  0  0
 59 60  1  0  0  0
 59 61  1  0  0  0
 59 62  1  0  0  0
 60129  1  0  0  0
 60130  1  0  0  0
 60131  1  0  0  0
 61132  1  0  0  0
 61133  1  0  0  0
 61134  1  0  0  0
 62135  1  0  0  0
 62136  1  0  0  0
 62137  1  0  0  0
 63 65  1  0  0  0
 63138  1  0  0  0
 63139  1  0  0  0
 63140  1  0  0  0
 64141  1  0  0  0
 65142  1  0  0  0
 68 79  1  0  0  0
 71 72  2  0  0  0
 71 74  1  0  0  0
 71143  1  0  0  0
 72 73  1  0  0  0
 72 75  1  0  0  0
 73 77  1  0  0  0
 73 80  2  0  0  0
 74 81  2  0  0  0
 74 82  1  0  0  0
 75 83  1  0  0  0
 75144  1  0  0  0
 75145  1  0  0  0
 76 77  1  0  0  0
 76 83  1  0  0  0
 76146  1  0  0  0
 76147  1  0  0  0
 77 78  1  0  0  0
 77148  1  0  0  0
 78 79  1  0  0  0
 78149  1  0  0  0
 78150  1  0  0  0
 79151  1  0  0  0
 79152  1  0  0  0
 80 81  1  0  0  0
 82153  1  0  0  0
 83154  1  0  0  0
 83155  1  0  0  0
M  CHG  1  83   1
M  ISO  4   1 100  68 101  79 101  82 100
M  END
> <chiral flag>
0

> <version>
0

> <s_m_source_file>
/data/baiqing/PycharmProjects/Reinvent-master-3.2/result/LINK_invent/BTK/process_docking_weight1_custom_sum_contain_oxygen_bond_distance_aromatic_linkinvent_7_9_3/rearranged_h_0189.sdf

> <i_m_source_file_index>
51

> <r_mmod_Potential_Energy-OPLS-2005>
139.427627563477

> <r_mmod_Stretch_Energy-OPLS-2005>
222.026443481445

> <r_mmod_Bend_Energy-OPLS-2005>
277.379943847656

> <r_mmod_Torsional_Energy-OPLS-2005>
252.70866394043

> <r_mmod_Improper_Torsional_Energy-OPLS-2005>
8.85396385192871

> <r_mmod_Van_der_Waal_Energy-OPLS-2005>
141.510116577148

> <r_mmod_Electrostatic_Energy-OPLS-2005>
-348.809661865234

> <r_mmod_Solvation_Energy-OPLS-2005>
-569.795471191406

> <b_mmod_Minimization_Converged-OPLS-2005>
0

> <r_mmod_RMS_Derivative-OPLS-2005>
0.984955072402954

$$$$
52
                    3D
 Structure written by MMmdl.
160169  0  0  1  0            999 V2000
  -30.6940  -14.4487   20.6121 C   0  0  0  0  0  0
  -30.4296  -12.3013   19.4139 C   0  0  0  0  0  0
  -29.5017  -12.5286   18.2021 C   0  0  0  0  0  0
  -28.0209  -12.3883   18.6071 C   0  0  0  0  0  0
  -27.6686  -13.2002   19.8826 C   0  0  2  0  0  0
  -28.7062  -12.9403   20.9960 C   0  0  0  0  0  0
  -25.2630  -13.8107   20.5639 C   0  0  0  0  0  0
  -24.1858  -13.0418   20.9096 C   0  0  0  0  0  0
  -24.6398  -11.6883   20.8671 C   0  0  0  0  0  0
  -23.9051  -10.4283   21.0381 C   0  0  0  0  0  0
  -24.3602   -9.4212   21.9179 C   0  0  0  0  0  0
  -23.6283   -8.2251   22.0764 C   0  0  0  0  0  0
  -22.4262   -8.0287   21.3555 C   0  0  0  0  0  0
  -21.9877   -9.0259   20.4659 C   0  0  0  0  0  0
  -22.7205  -10.2134   20.3059 C   0  0  0  0  0  0
  -21.6856   -6.0732   22.5282 C   0  0  0  0  0  0
  -21.4018   -6.5641   23.8218 C   0  0  0  0  0  0
  -21.3648   -5.6785   24.9180 C   0  0  0  0  0  0
  -21.6039   -4.3049   24.7221 C   0  0  0  0  0  0
  -21.8815   -3.8145   23.4342 C   0  0  0  0  0  0
  -21.9192   -4.6960   22.3397 C   0  0  0  0  0  0
  -22.7892  -13.5268   21.1787 C   0  0  0  0  0  0
  -22.1664   -4.2148   21.0976 F   0  0  0  0  0  0
  -21.5615   -3.4524   25.7725 F   0  0  0  0  0  0
  -30.0437  -13.2599   20.4624 N   0  0  0  0  0  0
  -26.3066  -12.9276   20.3365 N   0  0  0  0  0  0
  -25.9332  -11.6442   20.5716 N   0  0  0  0  0  0
  -22.0501  -12.8315   22.0365 N   0  0  0  0  0  0
  -25.4421  -15.1796   20.4123 N   0  0  0  0  0  0
  -31.7926  -14.6745   20.0904 O   0  0  0  0  0  0
  -21.6645   -6.8874   21.4246 O   0  0  0  0  0  0
  -22.3606  -14.5590   20.6654 O   0  0  0  0  0  0
  -24.6159  -31.8653   23.2076 C   0  0  0  0  0  0
  -25.9048  -32.4817   23.8383 C   0  0  1  0  0  0
  -27.2544  -27.4297   20.0825 C   0  0  0  0  0  0
  -25.5890  -33.8612   24.2310 N   0  0  0  0  0  0
  -23.4056  -30.4874   21.5468 C   0  0  2  0  0  0
  -24.8537  -28.9459   20.1185 C   0  0  0  0  0  0
  -22.7416  -29.4652   22.4962 C   0  0  0  0  0  0
  -18.0281  -28.1370   22.8488 C   0  0  0  0  0  0
  -24.1481  -36.7312   23.2641 C   0  0  0  0  0  0
  -25.9358  -30.8267   21.3647 C   0  0  0  0  0  0
  -26.0120  -29.4592   20.7114 C   0  0  0  0  0  0
  -27.2079  -28.7072   20.6915 C   0  0  0  0  0  0
  -26.0661  -26.9194   19.5062 C   0  0  0  0  0  0
  -24.8748  -27.6738   19.5197 C   0  0  0  0  0  0
  -23.6168  -29.8147   20.1638 C   0  0  0  0  0  0
  -25.4103  -36.3109   24.0339 C   0  0  1  0  0  0
  -20.5873  -28.3664   23.1306 C   0  0  2  0  0  0
  -20.6766  -26.9388   22.5424 C   0  0  0  0  0  0
  -19.5752  -26.6369   21.5209 C   0  0  0  0  0  0
  -18.1925  -26.7920   22.1608 C   0  0  0  0  0  0
  -19.1529  -28.8829   23.2905 C   0  0  0  0  0  0
  -18.9455  -30.1429   23.8933 C   0  0  0  0  0  0
  -17.6458  -30.6581   24.0560 C   0  0  0  0  0  0
  -25.9029  -34.9477   23.5128 C   0  0  0  0  0  0
  -16.5352  -29.9083   23.6318 C   0  0  0  0  0  0
  -16.7270  -28.6491   23.0358 C   0  0  0  0  0  0
  -26.4464  -31.6620   25.0733 C   0  0  0  0  0  0
  -25.3727  -31.3766   26.1491 C   0  0  0  0  0  0
  -27.0291  -30.3055   24.6146 C   0  0  0  0  0  0
  -27.6052  -32.4340   25.7479 C   0  0  0  0  0  0
  -27.5580  -37.1813   24.8455 C   0  0  0  0  0  0
  -21.4143  -29.3030   22.3705 N   0  0  0  0  0  0
  -26.4289  -37.3793   23.9402 N   0  0  0  0  0  0
  -24.6707  -31.0755   22.0977 N   0  0  0  0  0  0
  -23.4174  -28.8194   23.3018 O   0  0  0  0  0  0
  -28.4696  -26.7653   20.0907 O   0  0  0  0  0  0
  -26.5604  -34.8925   22.4696 O   0  0  0  0  0  0
  -23.5355  -32.1406   23.7469 O   0  0  0  0  0  0
  -30.5389  -18.8332   20.7383 C   0  0  0  0  0  0
  -29.2356  -19.2729   20.4524 C   0  0  0  0  0  0
  -28.2317  -18.2894   20.5585 C   0  0  0  0  0  0
  -29.8029  -16.6774   21.0458 C   0  0  0  0  0  0
  -28.9594  -20.6471   19.9292 C   0  0  0  0  0  0
  -26.0671  -19.6691   21.1205 C   0  0  0  0  0  0
  -25.7790  -18.2367   21.4681 C   0  0  0  0  0  0
  -26.7665  -18.5553   20.3653 C   0  0  0  0  0  0
  -29.4115  -21.8877   20.7267 C   0  0  0  0  0  0
  -28.7625  -24.3303   20.4417 C   0  0  0  0  0  0
  -28.6743  -25.5045   19.4293 C   0  0  0  0  0  0
  -30.8168  -17.5416   21.0407 N   0  0  0  0  0  0
  -28.5302  -17.0039   20.8603 N   0  0  0  0  0  0
  -30.0199  -15.3581   21.3408 N   0  0  0  0  0  0
  -29.2659  -23.0642   19.8282 N   0  3  0  0  0  0
  -28.3130  -20.8219   18.8901 O   0  0  0  0  0  0
  -31.4764  -12.4000   19.1199 H   0  0  0  0  0  0
  -30.3232  -11.2812   19.7860 H   0  0  0  0  0  0
  -29.7426  -11.8218   17.4063 H   0  0  0  0  0  0
  -29.6770  -13.5243   17.7893 H   0  0  0  0  0  0
  -27.8219  -11.3281   18.7718 H   0  0  0  0  0  0
  -27.3806  -12.6963   17.7790 H   0  0  0  0  0  0
  -27.7242  -14.2554   19.6148 H   0  0  0  0  0  0
  -28.6782  -11.8909   21.2946 H   0  0  0  0  0  0
  -28.4520  -13.4947   21.9010 H   0  0  0  0  0  0
  -25.2753   -9.5678   22.4755 H   0  0  0  0  0  0
  -23.9973   -7.4644   22.7493 H   0  0  0  0  0  0
  -21.0794   -8.8771   19.8992 H   0  0  0  0  0  0
  -22.3659  -10.9669   19.6157 H   0  0  0  0  0  0
  -21.2037   -7.6148   23.9719 H   0  0  0  0  0  0
  -21.1467   -6.0526   25.9079 H   0  0  0  0  0  0
  -22.0608   -2.7603   23.2855 H   0  0  0  0  0  0
  -22.4041  -11.9947   22.4753 H   0  0  0  0  0  0
  -21.1147  -13.1431   22.2554 H   0  0  0  0  0  0
  -24.6876  -15.8382   20.5656 H   0  0  0  0  0  0
  -26.3396  -15.6264   20.2586 H   0  0  0  0  0  0
  -26.7124  -32.5516   23.1149 H   0  0  0  0  0  0
  -25.0044  -33.9763   25.0463 H   0  0  0  0  0  0
  -22.6967  -31.3052   21.4032 H   0  0  0  0  0  0
  -23.3733  -35.9655   23.3314 H   0  0  0  0  0  0
  -24.3578  -36.8915   22.2054 H   0  0  0  0  0  0
  -23.7247  -37.6524   23.6651 H   0  0  0  0  0  0
  -26.0582  -31.5930   20.5978 H   0  0  0  0  0  0
  -26.8209  -30.8758   21.9885 H   0  0  0  0  0  0
  -28.1058  -29.1076   21.1424 H   0  0  0  0  0  0
  -26.0236  -25.9452   19.0451 H   0  0  0  0  0  0
  -23.9795  -27.2652   19.0713 H   0  0  0  0  0  0
  -23.7315  -30.5872   19.4027 H   0  0  0  0  0  0
  -22.7404  -29.2377   19.8641 H   0  0  0  0  0  0
  -25.1282  -36.1982   25.0834 H   0  0  0  0  0  0
  -20.9977  -28.3239   24.1420 H   0  0  0  0  0  0
  -20.5635  -26.2268   23.3614 H   0  0  0  0  0  0
  -21.6643  -26.7404   22.1245 H   0  0  0  0  0  0
  -19.6909  -25.6278   21.1236 H   0  0  0  0  0  0
  -19.6706  -27.3175   20.6739 H   0  0  0  0  0  0
  -17.4198  -26.6683   21.4004 H   0  0  0  0  0  0
  -18.0308  -26.0057   22.8993 H   0  0  0  0  0  0
  -19.7934  -30.7229   24.2329 H   0  0  0  0  0  0
  -17.5018  -31.6275   24.5139 H   0  0  0  0  0  0
  -15.5355  -30.3002   23.7624 H   0  0  0  0  0  0
  -15.8665  -28.0815   22.7078 H   0  0  0  0  0  0
  -24.5871  -30.7138   25.7843 H   0  0  0  0  0  0
  -24.8954  -32.2945   26.4941 H   0  0  0  0  0  0
  -25.8067  -30.8933   27.0251 H   0  0  0  0  0  0
  -26.2846  -29.6825   24.1173 H   0  0  0  0  0  0
  -27.4013  -29.7305   25.4634 H   0  0  0  0  0  0
  -27.8704  -30.4369   23.9336 H   0  0  0  0  0  0
  -27.2686  -33.3632   26.2090 H   0  0  0  0  0  0
  -28.3835  -32.6913   25.0281 H   0  0  0  0  0  0
  -28.0746  -31.8445   26.5367 H   0  0  0  0  0  0
  -28.2616  -38.0092   24.7486 H   0  0  0  0  0  0
  -28.1060  -36.2630   24.6292 H   0  0  0  0  0  0
  -27.2302  -37.1479   25.8859 H   0  0  0  0  0  0
  -20.9291  -29.8761   21.6945 H   0  0  0  0  0  0
  -26.0181  -38.2871   24.1401 H   0  0  0  0  0  0
  -31.3841  -19.5029   20.6805 H   0  0  0  0  0  0
  -26.6426  -20.2433   21.8437 H   0  0  0  0  0  0
  -25.2828  -20.2154   20.6017 H   0  0  0  0  0  0
  -24.8033  -17.8533   21.1803 H   0  0  0  0  0  0
  -26.1779  -17.8500   22.4032 H   0  0  0  0  0  0
  -26.4625  -18.3686   19.3372 H   0  0  0  0  0  0
  -30.4385  -21.7883   21.0768 H   0  0  0  0  0  0
  -28.7669  -21.9949   21.5992 H   0  0  0  0  0  0
  -27.7802  -24.1603   20.8840 H   0  0  0  0  0  0
  -29.4337  -24.6117   21.2546 H   0  0  0  0  0  0
  -27.9639  -25.2965   18.6316 H   0  0  0  0  0  0
  -29.6348  -25.5963   18.9203 H   0  0  0  0  0  0
  -29.2221  -14.9388   21.7848 H   0  0  0  0  0  0
  -28.6280  -22.7330   19.1144 H   0  0  0  0  0  0
  -30.1547  -23.2151   19.3758 H   0  0  0  0  0  0
  1 25  1  0  0  0
  1 30  2  0  0  0
  1 84  1  0  0  0
  2  3  1  0  0  0
  2 25  1  0  0  0
  2 87  1  0  0  0
  2 88  1  0  0  0
  3  4  1  0  0  0
  3 89  1  0  0  0
  3 90  1  0  0  0
  4  5  1  0  0  0
  4 91  1  0  0  0
  4 92  1  0  0  0
  5  6  1  0  0  0
  5 26  1  0  0  0
  5 93  1  0  0  0
  6 25  1  0  0  0
  6 94  1  0  0  0
  6 95  1  0  0  0
  7  8  2  0  0  0
  7 26  1  0  0  0
  7 29  1  0  0  0
  8  9  1  0  0  0
  8 22  1  0  0  0
  9 10  1  0  0  0
  9 27  2  0  0  0
 10 11  2  0  0  0
 10 15  1  0  0  0
 11 12  1  0  0  0
 11 96  1  0  0  0
 12 13  2  0  0  0
 12 97  1  0  0  0
 13 14  1  0  0  0
 13 31  1  0  0  0
 14 15  2  0  0  0
 14 98  1  0  0  0
 15 99  1  0  0  0
 16 17  2  0  0  0
 16 21  1  0  0  0
 16 31  1  0  0  0
 17 18  1  0  0  0
 17100  1  0  0  0
 18 19  2  0  0  0
 18101  1  0  0  0
 19 20  1  0  0  0
 19 24  1  0  0  0
 20 21  2  0  0  0
 20102  1  0  0  0
 21 23  1  0  0  0
 22 28  1  0  0  0
 22 32  2  0  0  0
 26 27  1  0  0  0
 28103  1  0  0  0
 28104  1  0  0  0
 29105  1  0  0  0
 29106  1  0  0  0
 33 34  1  0  0  0
 33 66  1  0  0  0
 33 70  2  0  0  0
 34 36  1  0  0  0
 34 59  1  0  0  0
 34107  1  0  0  0
 35 44  2  0  0  0
 35 45  1  0  0  0
 35 68  1  0  0  0
 36 56  1  0  0  0
 36108  1  0  0  0
 37 39  1  0  0  0
 37 47  1  0  0  0
 37 66  1  0  0  0
 37109  1  0  0  0
 38 43  2  0  0  0
 38 46  1  0  0  0
 38 47  1  0  0  0
 39 64  1  0  0  0
 39 67  2  0  0  0
 40 52  1  0  0  0
 40 53  2  0  0  0
 40 58  1  0  0  0
 41110  1  0  0  0
 41111  1  0  0  0
 41112  1  0  0  0
 41 48  1  0  0  0
 42 43  1  0  0  0
 42 66  1  0  0  0
 42113  1  0  0  0
 42114  1  0  0  0
 43 44  1  0  0  0
 44115  1  0  0  0
 45 46  2  0  0  0
 45116  1  0  0  0
 46117  1  0  0  0
 47118  1  0  0  0
 47119  1  0  0  0
 48 56  1  0  0  0
 48 65  1  0  0  0
 48120  1  0  0  0
 49 50  1  0  0  0
 49 53  1  0  0  0
 49 64  1  0  0  0
 49121  1  0  0  0
 50 51  1  0  0  0
 50122  1  0  0  0
 50123  1  0  0  0
 51 52  1  0  0  0
 51124  1  0  0  0
 51125  1  0  0  0
 52126  1  0  0  0
 52127  1  0  0  0
 53 54  1  0  0  0
 54 55  2  0  0  0
 54128  1  0  0  0
 55 57  1  0  0  0
 55129  1  0  0  0
 56 69  2  0  0  0
 57 58  2  0  0  0
 57130  1  0  0  0
 58131  1  0  0  0
 59 60  1  0  0  0
 59 61  1  0  0  0
 59 62  1  0  0  0
 60132  1  0  0  0
 60133  1  0  0  0
 60134  1  0  0  0
 61135  1  0  0  0
 61136  1  0  0  0
 61137  1  0  0  0
 62138  1  0  0  0
 62139  1  0  0  0
 62140  1  0  0  0
 63 65  1  0  0  0
 63141  1  0  0  0
 63142  1  0  0  0
 63143  1  0  0  0
 64144  1  0  0  0
 65145  1  0  0  0
 68 81  1  0  0  0
 71 72  2  0  0  0
 71 82  1  0  0  0
 71146  1  0  0  0
 72 73  1  0  0  0
 72 75  1  0  0  0
 73 83  2  0  0  0
 73 78  1  0  0  0
 74 82  2  0  0  0
 74 83  1  0  0  0
 74 84  1  0  0  0
 75 79  1  0  0  0
 75 86  2  0  0  0
 76 77  1  0  0  0
 76 78  1  0  0  0
 76147  1  0  0  0
 76148  1  0  0  0
 77 78  1  0  0  0
 77149  1  0  0  0
 77150  1  0  0  0
 78151  1  0  0  0
 79 85  1  0  0  0
 79152  1  0  0  0
 79153  1  0  0  0
 80 81  1  0  0  0
 80 85  1  0  0  0
 80154  1  0  0  0
 80155  1  0  0  0
 81156  1  0  0  0
 81157  1  0  0  0
 84158  1  0  0  0
 85159  1  0  0  0
 85160  1  0  0  0
M  CHG  1  85   1
M  ISO  4   1 100  68 101  81 101  84 100
M  END
> <chiral flag>
0

> <version>
0

> <s_m_source_file>
/data/baiqing/PycharmProjects/Reinvent-master-3.2/result/LINK_invent/BTK/process_docking_weight1_custom_sum_contain_oxygen_bond_distance_aromatic_linkinvent_7_9_3/rearranged_h_0189.sdf

> <i_m_source_file_index>
52

> <r_mmod_Potential_Energy-OPLS-2005>
-658.364868164062

> <r_mmod_Stretch_Energy-OPLS-2005>
37.8072204589844

> <r_mmod_Bend_Energy-OPLS-2005>
119.294990539551

> <r_mmod_Torsional_Energy-OPLS-2005>
284.142333984375

> <r_mmod_Improper_Torsional_Energy-OPLS-2005>
6.13796663284302

> <r_mmod_Van_der_Waal_Energy-OPLS-2005>
153.8271484375

> <r_mmod_Electrostatic_Energy-OPLS-2005>
-782.004821777344

> <r_mmod_Solvation_Energy-OPLS-2005>
-488.991027832031

> <b_mmod_Minimization_Converged-OPLS-2005>
0

> <r_mmod_RMS_Derivative-OPLS-2005>
2.43370151519775

$$$$
53
                    3D
 Structure written by MMmdl.
154163  0  0  1  0            999 V2000
  -30.5572  -14.8584   20.4124 C   0  0  0  0  0  0
  -30.4319  -12.5227   19.4701 C   0  0  0  0  0  0
  -29.5084  -12.5164   18.2328 C   0  0  0  0  0  0
  -28.0379  -12.3275   18.6526 C   0  0  0  0  0  0
  -27.6351  -13.2384   19.8431 C   0  0  2  0  0  0
  -28.6830  -13.2175   20.9733 C   0  0  0  0  0  0
  -25.2515  -13.8194   20.5713 C   0  0  0  0  0  0
  -24.1816  -13.0440   20.9217 C   0  0  0  0  0  0
  -24.6407  -11.6910   20.8752 C   0  0  0  0  0  0
  -23.9079  -10.4290   21.0391 C   0  0  0  0  0  0
  -24.3631   -9.4203   21.9167 C   0  0  0  0  0  0
  -23.6302   -8.2240   22.0752 C   0  0  0  0  0  0
  -22.4278   -8.0287   21.3545 C   0  0  0  0  0  0
  -21.9913   -9.0262   20.4652 C   0  0  0  0  0  0
  -22.7251  -10.2135   20.3043 C   0  0  0  0  0  0
  -21.6854   -6.0728   22.5275 C   0  0  0  0  0  0
  -21.4013   -6.5631   23.8207 C   0  0  0  0  0  0
  -21.3669   -5.6788   24.9170 C   0  0  0  0  0  0
  -21.6061   -4.3053   24.7217 C   0  0  0  0  0  0
  -21.8827   -3.8139   23.4331 C   0  0  0  0  0  0
  -21.9197   -4.6955   22.3392 C   0  0  0  0  0  0
  -22.7843  -13.5220   21.1871 C   0  0  0  0  0  0
  -22.1662   -4.2135   21.0974 F   0  0  0  0  0  0
  -21.5634   -3.4552   25.7737 F   0  0  0  0  0  0
  -29.9577  -13.6077   20.3672 N   0  0  0  0  0  0
  -26.2929  -12.9403   20.3267 N   0  0  0  0  0  0
  -25.9345  -11.6537   20.5759 N   0  0  0  0  0  0
  -22.0488  -12.8227   22.0429 N   0  0  0  0  0  0
  -25.4266  -15.1922   20.4190 N   0  0  0  0  0  0
  -31.7649  -14.9292   20.1643 O   0  0  0  0  0  0
  -21.6639   -6.8889   21.4240 O   0  0  0  0  0  0
  -22.3526  -14.5530   20.6725 O   0  0  0  0  0  0
  -24.6411  -31.8459   23.1901 C   0  0  0  0  0  0
  -25.9192  -32.4692   23.8289 C   0  0  1  0  0  0
  -27.2088  -27.1586   20.1414 C   0  0  0  0  0  0
  -25.5950  -33.8503   24.2202 N   0  0  0  0  0  0
  -23.4444  -30.4675   21.5323 C   0  0  2  0  0  0
  -24.8945  -28.9008   20.1054 C   0  0  0  0  0  0
  -22.7558  -29.4558   22.4834 C   0  0  0  0  0  0
  -18.0311  -28.1393   22.8480 C   0  0  0  0  0  0
  -24.1497  -36.7260   23.2644 C   0  0  0  0  0  0
  -26.0009  -30.7235   21.3914 C   0  0  0  0  0  0
  -26.0697  -29.3394   20.7290 C   0  0  0  0  0  0
  -27.2309  -28.4815   20.7326 C   0  0  0  0  0  0
  -26.0176  -26.8295   19.4595 C   0  0  0  0  0  0
  -24.8783  -27.6594   19.4561 C   0  0  0  0  0  0
  -23.6715  -29.8001   20.1503 C   0  0  0  0  0  0
  -25.4127  -36.3033   24.0316 C   0  0  1  0  0  0
  -20.5926  -28.3721   23.1226 C   0  0  2  0  0  0
  -20.6791  -26.9424   22.5401 C   0  0  0  0  0  0
  -19.5762  -26.6380   21.5211 C   0  0  0  0  0  0
  -18.1947  -26.7932   22.1629 C   0  0  0  0  0  0
  -19.1570  -28.8879   23.2850 C   0  0  0  0  0  0
  -18.9483  -30.1471   23.8876 C   0  0  0  0  0  0
  -17.6477  -30.6590   24.0562 C   0  0  0  0  0  0
  -25.9074  -34.9402   23.5073 C   0  0  0  0  0  0
  -16.5369  -29.9087   23.6331 C   0  0  0  0  0  0
  -16.7293  -28.6510   23.0351 C   0  0  0  0  0  0
  -26.4523  -31.6556   25.0727 C   0  0  0  0  0  0
  -25.3709  -31.3760   26.1425 C   0  0  0  0  0  0
  -27.0376  -30.2941   24.6316 C   0  0  0  0  0  0
  -27.6053  -32.4320   25.7499 C   0  0  0  0  0  0
  -27.5573  -37.1787   24.8462 C   0  0  0  0  0  0
  -21.4255  -29.3043   22.3587 N   0  0  0  0  0  0
  -26.4292  -37.3734   23.9400 N   0  0  0  0  0  0
  -24.7140  -31.0337   22.0921 N   0  0  0  0  0  0
  -23.4215  -28.8091   23.2962 O   0  0  0  0  0  0
  -28.2545  -26.1742   20.2077 O   0  0  0  0  0  0
  -26.5657  -34.8890   22.4644 O   0  0  0  0  0  0
  -23.5532  -32.1327   23.7123 O   0  0  0  0  0  0
  -28.4950  -23.6506   21.3285 C   0  0  0  0  0  0
  -28.5237  -23.5719   19.2196 C   0  0  0  0  0  0
  -29.9323  -17.1880   21.4074 C   0  0  0  0  0  0
  -29.7930  -17.1226   19.4043 C   0  0  0  0  0  0
  -29.2891  -18.2323   20.4097 C   0  0  0  0  0  0
  -29.0892  -22.5666   20.3220 C   0  0  2  0  0  0
  -27.9403  -24.6533   20.2308 C   0  0  2  0  0  0
  -29.6889  -19.8587   20.3376 C   0  0  0  0  0  0
  -29.7599  -16.0314   20.4534 N   0  0  0  0  0  0
  -28.6524  -21.0421   20.3881 N   0  3  0  0  0  0
  -31.4679  -12.6668   19.1594 H   0  0  0  0  0  0
  -30.4042  -11.5562   19.9766 H   0  0  0  0  0  0
  -29.8059  -11.7255   17.5444 H   0  0  0  0  0  0
  -29.6190  -13.4545   17.6867 H   0  0  0  0  0  0
  -27.9091  -11.2810   18.9307 H   0  0  0  0  0  0
  -27.3741  -12.4983   17.8041 H   0  0  0  0  0  0
  -27.6161  -14.2547   19.4506 H   0  0  0  0  0  0
  -28.7507  -12.2299   21.4304 H   0  0  0  0  0  0
  -28.4109  -13.9116   21.7689 H   0  0  0  0  0  0
  -25.2762   -9.5679   22.4751 H   0  0  0  0  0  0
  -24.0022   -7.4626   22.7457 H   0  0  0  0  0  0
  -21.0837   -8.8767   19.8961 H   0  0  0  0  0  0
  -22.3687  -10.9674   19.6160 H   0  0  0  0  0  0
  -21.1992   -7.6139   23.9716 H   0  0  0  0  0  0
  -21.1493   -6.0501   25.9076 H   0  0  0  0  0  0
  -22.0599   -2.7600   23.2827 H   0  0  0  0  0  0
  -22.4100  -11.9886   22.4823 H   0  0  0  0  0  0
  -21.1118  -13.1267   22.2652 H   0  0  0  0  0  0
  -24.6757  -15.8603   20.5584 H   0  0  0  0  0  0
  -26.3021  -15.6252   20.1524 H   0  0  0  0  0  0
  -26.7258  -32.5310   23.1013 H   0  0  0  0  0  0
  -25.0042  -33.9614   25.0317 H   0  0  0  0  0  0
  -22.7467  -31.2936   21.3757 H   0  0  0  0  0  0
  -23.3738  -35.9609   23.3315 H   0  0  0  0  0  0
  -24.3591  -36.8877   22.2056 H   0  0  0  0  0  0
  -23.7269  -37.6469   23.6672 H   0  0  0  0  0  0
  -26.1653  -31.4815   20.6239 H   0  0  0  0  0  0
  -26.8698  -30.7677   22.0375 H   0  0  0  0  0  0
  -28.1272  -28.8055   21.2429 H   0  0  0  0  0  0
  -25.9404  -25.8945   18.9248 H   0  0  0  0  0  0
  -23.9866  -27.3249   18.9455 H   0  0  0  0  0  0
  -23.8119  -30.5746   19.3948 H   0  0  0  0  0  0
  -22.7887  -29.2406   19.8359 H   0  0  0  0  0  0
  -25.1314  -36.1859   25.0804 H   0  0  0  0  0  0
  -21.0043  -28.3317   24.1338 H   0  0  0  0  0  0
  -20.5672  -26.2340   23.3623 H   0  0  0  0  0  0
  -21.6653  -26.7410   22.1197 H   0  0  0  0  0  0
  -19.6914  -25.6285   21.1249 H   0  0  0  0  0  0
  -19.6695  -27.3183   20.6733 H   0  0  0  0  0  0
  -17.4211  -26.6677   21.4035 H   0  0  0  0  0  0
  -18.0346  -26.0082   22.9033 H   0  0  0  0  0  0
  -19.7966  -30.7291   24.2234 H   0  0  0  0  0  0
  -17.5036  -31.6265   24.5170 H   0  0  0  0  0  0
  -15.5369  -30.2983   23.7663 H   0  0  0  0  0  0
  -15.8697  -28.0820   22.7063 H   0  0  0  0  0  0
  -24.5861  -30.7139   25.7748 H   0  0  0  0  0  0
  -24.8930  -32.2954   26.4820 H   0  0  0  0  0  0
  -25.7988  -30.8941   27.0224 H   0  0  0  0  0  0
  -26.2993  -29.6657   24.1316 H   0  0  0  0  0  0
  -27.3964  -29.7247   25.4901 H   0  0  0  0  0  0
  -27.8920  -30.4157   23.9652 H   0  0  0  0  0  0
  -27.2640  -33.3616   26.2060 H   0  0  0  0  0  0
  -28.3866  -32.6889   25.0334 H   0  0  0  0  0  0
  -28.0721  -31.8463   26.5426 H   0  0  0  0  0  0
  -28.2588  -38.0083   24.7481 H   0  0  0  0  0  0
  -28.1073  -36.2608   24.6322 H   0  0  0  0  0  0
  -27.2295  -37.1462   25.8868 H   0  0  0  0  0  0
  -20.9459  -29.8787   21.6799 H   0  0  0  0  0  0
  -26.0159  -38.2804   24.1382 H   0  0  0  0  0  0
  -29.2612  -24.1081   21.9527 H   0  0  0  0  0  0
  -27.6947  -23.2609   21.9609 H   0  0  0  0  0  0
  -27.7490  -23.1300   18.5902 H   0  0  0  0  0  0
  -29.3175  -23.9751   18.5898 H   0  0  0  0  0  0
  -29.3498  -17.0843   22.3231 H   0  0  0  0  0  0
  -30.9733  -17.4063   21.6552 H   0  0  0  0  0  0
  -30.7891  -17.3155   19.0020 H   0  0  0  0  0  0
  -29.1017  -16.9587   18.5754 H   0  0  0  0  0  0
  -28.2046  -18.1322   20.4856 H   0  0  0  0  0  0
  -30.1778  -22.6159   20.3430 H   0  0  0  0  0  0
  -26.8592  -24.5232   20.2665 H   0  0  0  0  0  0
  -30.2755  -20.0206   19.4334 H   0  0  0  0  0  0
  -30.3900  -20.0533   21.1491 H   0  0  0  0  0  0
  -27.9793  -20.8724   19.6598 H   0  0  0  0  0  0
  -28.1542  -20.9146   21.2544 H   0  0  0  0  0  0
  1 25  1  0  0  0
  1 30  2  0  0  0
  1 79  1  0  0  0
  2  3  1  0  0  0
  2 25  1  0  0  0
  2 81  1  0  0  0
  2 82  1  0  0  0
  3  4  1  0  0  0
  3 83  1  0  0  0
  3 84  1  0  0  0
  4  5  1  0  0  0
  4 85  1  0  0  0
  4 86  1  0  0  0
  5  6  1  0  0  0
  5 26  1  0  0  0
  5 87  1  0  0  0
  6 25  1  0  0  0
  6 88  1  0  0  0
  6 89  1  0  0  0
  7  8  2  0  0  0
  7 26  1  0  0  0
  7 29  1  0  0  0
  8  9  1  0  0  0
  8 22  1  0  0  0
  9 10  1  0  0  0
  9 27  2  0  0  0
 10 11  2  0  0  0
 10 15  1  0  0  0
 11 12  1  0  0  0
 11 90  1  0  0  0
 12 13  2  0  0  0
 12 91  1  0  0  0
 13 14  1  0  0  0
 13 31  1  0  0  0
 14 15  2  0  0  0
 14 92  1  0  0  0
 15 93  1  0  0  0
 16 17  2  0  0  0
 16 21  1  0  0  0
 16 31  1  0  0  0
 17 18  1  0  0  0
 17 94  1  0  0  0
 18 19  2  0  0  0
 18 95  1  0  0  0
 19 20  1  0  0  0
 19 24  1  0  0  0
 20 21  2  0  0  0
 20 96  1  0  0  0
 21 23  1  0  0  0
 22 28  1  0  0  0
 22 32  2  0  0  0
 26 27  1  0  0  0
 28 97  1  0  0  0
 28 98  1  0  0  0
 29 99  1  0  0  0
 29100  1  0  0  0
 33 34  1  0  0  0
 33 66  1  0  0  0
 33 70  2  0  0  0
 34 36  1  0  0  0
 34 59  1  0  0  0
 34101  1  0  0  0
 35 44  2  0  0  0
 35 45  1  0  0  0
 35 68  1  0  0  0
 36 56  1  0  0  0
 36102  1  0  0  0
 37 39  1  0  0  0
 37 47  1  0  0  0
 37 66  1  0  0  0
 37103  1  0  0  0
 38 43  2  0  0  0
 38 46  1  0  0  0
 38 47  1  0  0  0
 39 64  1  0  0  0
 39 67  2  0  0  0
 40 52  1  0  0  0
 40 53  2  0  0  0
 40 58  1  0  0  0
 41104  1  0  0  0
 41105  1  0  0  0
 41106  1  0  0  0
 41 48  1  0  0  0
 42 43  1  0  0  0
 42 66  1  0  0  0
 42107  1  0  0  0
 42108  1  0  0  0
 43 44  1  0  0  0
 44109  1  0  0  0
 45 46  2  0  0  0
 45110  1  0  0  0
 46111  1  0  0  0
 47112  1  0  0  0
 47113  1  0  0  0
 48 56  1  0  0  0
 48 65  1  0  0  0
 48114  1  0  0  0
 49 50  1  0  0  0
 49 53  1  0  0  0
 49 64  1  0  0  0
 49115  1  0  0  0
 50 51  1  0  0  0
 50116  1  0  0  0
 50117  1  0  0  0
 51 52  1  0  0  0
 51118  1  0  0  0
 51119  1  0  0  0
 52120  1  0  0  0
 52121  1  0  0  0
 53 54  1  0  0  0
 54 55  2  0  0  0
 54122  1  0  0  0
 55 57  1  0  0  0
 55123  1  0  0  0
 56 69  2  0  0  0
 57 58  2  0  0  0
 57124  1  0  0  0
 58125  1  0  0  0
 59 60  1  0  0  0
 59 61  1  0  0  0
 59 62  1  0  0  0
 60126  1  0  0  0
 60127  1  0  0  0
 60128  1  0  0  0
 61129  1  0  0  0
 61130  1  0  0  0
 61131  1  0  0  0
 62132  1  0  0  0
 62133  1  0  0  0
 62134  1  0  0  0
 63 65  1  0  0  0
 63135  1  0  0  0
 63136  1  0  0  0
 63137  1  0  0  0
 64138  1  0  0  0
 65139  1  0  0  0
 68 77  1  0  0  0
 71 76  1  0  0  0
 71 77  1  0  0  0
 71140  1  0  0  0
 71141  1  0  0  0
 72 76  1  0  0  0
 72 77  1  0  0  0
 72142  1  0  0  0
 72143  1  0  0  0
 73 75  1  0  0  0
 73 79  1  0  0  0
 73144  1  0  0  0
 73145  1  0  0  0
 74 75  1  0  0  0
 74 79  1  0  0  0
 74146  1  0  0  0
 74147  1  0  0  0
 75 78  1  0  0  0
 75148  1  0  0  0
 76 80  1  0  0  0
 76149  1  0  0  0
 77150  1  0  0  0
 78 80  1  0  0  0
 78151  1  0  0  0
 78152  1  0  0  0
 80153  1  0  0  0
 80154  1  0  0  0
M  CHG  1  80   1
M  ISO  4   1 100  68 101  77 101  79 100
M  END
> <chiral flag>
0

> <version>
0

> <s_m_source_file>
/data/baiqing/PycharmProjects/Reinvent-master-3.2/result/LINK_invent/BTK/process_docking_weight1_custom_sum_contain_oxygen_bond_distance_aromatic_linkinvent_7_9_3/rearranged_h_0189.sdf

> <i_m_source_file_index>
53

> <r_mmod_Potential_Energy-OPLS-2005>
361.749176025391

> <r_mmod_Stretch_Energy-OPLS-2005>
196.506790161133

> <r_mmod_Bend_Energy-OPLS-2005>
254.166137695312

> <r_mmod_Torsional_Energy-OPLS-2005>
337.390838623047

> <r_mmod_Improper_Torsional_Energy-OPLS-2005>
13.897852897644

> <r_mmod_Van_der_Waal_Energy-OPLS-2005>
114.178573608398

> <r_mmod_Electrostatic_Energy-OPLS-2005>
-213.648635864258

> <r_mmod_Solvation_Energy-OPLS-2005>
-495.444061279297

> <b_mmod_Minimization_Converged-OPLS-2005>
0

> <r_mmod_RMS_Derivative-OPLS-2005>
2.92609047889709

$$$$
54
                    3D
 Structure written by MMmdl.
170179  0  0  1  0            999 V2000
  -30.7074  -14.4122   20.6603 C   0  0  0  0  0  0
  -30.4340  -12.3047   19.3882 C   0  0  0  0  0  0
  -29.4895  -12.5363   18.1906 C   0  0  0  0  0  0
  -28.0111  -12.3925   18.6056 C   0  0  0  0  0  0
  -27.6709  -13.1978   19.8863 C   0  0  2  0  0  0
  -28.7111  -12.9045   20.9886 C   0  0  0  0  0  0
  -25.2631  -13.8141   20.5663 C   0  0  0  0  0  0
  -24.1866  -13.0437   20.9159 C   0  0  0  0  0  0
  -24.6406  -11.6899   20.8721 C   0  0  0  0  0  0
  -23.9064  -10.4288   21.0411 C   0  0  0  0  0  0
  -24.3613   -9.4201   21.9187 C   0  0  0  0  0  0
  -23.6286   -8.2240   22.0760 C   0  0  0  0  0  0
  -22.4270   -8.0279   21.3548 C   0  0  0  0  0  0
  -21.9904   -9.0256   20.4652 C   0  0  0  0  0  0
  -22.7240  -10.2131   20.3061 C   0  0  0  0  0  0
  -21.6845   -6.0729   22.5279 C   0  0  0  0  0  0
  -21.4015   -6.5635   23.8211 C   0  0  0  0  0  0
  -21.3660   -5.6790   24.9170 C   0  0  0  0  0  0
  -21.6044   -4.3053   24.7225 C   0  0  0  0  0  0
  -21.8821   -3.8142   23.4347 C   0  0  0  0  0  0
  -21.9192   -4.6957   22.3400 C   0  0  0  0  0  0
  -22.7885  -13.5242   21.1824 C   0  0  0  0  0  0
  -22.1657   -4.2144   21.0977 F   0  0  0  0  0  0
  -21.5631   -3.4538   25.7737 F   0  0  0  0  0  0
  -30.0524  -13.2346   20.4612 N   0  0  0  0  0  0
  -26.3072  -12.9298   20.3405 N   0  0  0  0  0  0
  -25.9335  -11.6465   20.5777 N   0  0  0  0  0  0
  -22.0521  -12.8239   22.0381 N   0  0  0  0  0  0
  -25.4374  -15.1858   20.4059 N   0  0  0  0  0  0
  -31.7499  -14.7111   20.0630 O   0  0  0  0  0  0
  -21.6639   -6.8876   21.4243 O   0  0  0  0  0  0
  -22.3574  -14.5554   20.6681 O   0  0  0  0  0  0
  -24.6100  -31.8698   23.2101 C   0  0  0  0  0  0
  -25.9005  -32.4832   23.8397 C   0  0  1  0  0  0
  -27.2480  -27.4536   20.1033 C   0  0  0  0  0  0
  -25.5871  -33.8631   24.2331 N   0  0  0  0  0  0
  -23.4010  -30.4918   21.5482 C   0  0  2  0  0  0
  -24.8531  -28.9573   20.1196 C   0  0  0  0  0  0
  -22.7406  -29.4664   22.4959 C   0  0  0  0  0  0
  -18.0282  -28.1388   22.8494 C   0  0  0  0  0  0
  -24.1485  -36.7321   23.2650 C   0  0  0  0  0  0
  -25.9274  -30.8409   21.3631 C   0  0  0  0  0  0
  -26.0086  -29.4730   20.7206 C   0  0  0  0  0  0
  -27.2097  -28.7281   20.7195 C   0  0  0  0  0  0
  -26.0801  -26.9559   19.4943 C   0  0  0  0  0  0
  -24.8808  -27.6924   19.5073 C   0  0  0  0  0  0
  -23.6141  -29.8227   20.1635 C   0  0  0  0  0  0
  -25.4097  -36.3106   24.0355 C   0  0  1  0  0  0
  -20.5864  -28.3675   23.1320 C   0  0  2  0  0  0
  -20.6764  -26.9403   22.5418 C   0  0  0  0  0  0
  -19.5741  -26.6384   21.5217 C   0  0  0  0  0  0
  -18.1919  -26.7924   22.1634 C   0  0  0  0  0  0
  -19.1528  -28.8844   23.2908 C   0  0  0  0  0  0
  -18.9475  -30.1451   23.8915 C   0  0  0  0  0  0
  -17.6482  -30.6589   24.0579 C   0  0  0  0  0  0
  -25.9032  -34.9484   23.5143 C   0  0  0  0  0  0
  -16.5373  -29.9104   23.6328 C   0  0  0  0  0  0
  -16.7276  -28.6530   23.0328 C   0  0  0  0  0  0
  -26.4430  -31.6606   25.0722 C   0  0  0  0  0  0
  -25.3715  -31.3739   26.1496 C   0  0  0  0  0  0
  -27.0250  -30.3057   24.6053 C   0  0  0  0  0  0
  -27.6007  -32.4328   25.7487 C   0  0  0  0  0  0
  -27.5574  -37.1805   24.8467 C   0  0  0  0  0  0
  -21.4128  -29.3051   22.3730 N   0  0  0  0  0  0
  -26.4286  -37.3792   23.9425 N   0  0  0  0  0  0
  -24.6642  -31.0804   22.0997 N   0  0  0  0  0  0
  -23.4191  -28.8192   23.2993 O   0  0  0  0  0  0
  -28.3774  -26.6694   20.0146 O   0  0  0  0  0  0
  -26.5589  -34.8944   22.4697 O   0  0  0  0  0  0
  -23.5300  -32.1428   23.7509 O   0  0  0  0  0  0
  -29.3884  -16.9707   22.9551 C   0  0  0  0  0  0
  -29.2037  -18.3382   23.1771 C   0  0  0  0  0  0
  -30.0631  -16.5719   21.7906 C   0  0  0  0  0  0
  -30.2810  -18.8023   21.2206 C   0  0  0  0  0  0
  -29.4958  -20.5545   19.5333 C   0  0  0  0  0  0
  -31.6944  -20.9061   20.7991 C   0  0  0  0  0  0
  -29.7205  -22.0615   19.2934 C   0  0  0  0  0  0
  -30.9998  -22.1367   21.4368 C   0  0  0  0  0  0
  -30.7060  -19.8715   20.2115 C   0  0  1  0  0  0
  -28.4777  -18.8475   24.4026 C   0  0  0  0  0  0
  -30.3020  -25.0686   22.8417 C   0  0  0  0  0  0
  -30.1215  -24.2637   20.3960 C   0  0  0  0  0  0
  -29.2582  -26.5947   21.1336 C   0  0  0  0  0  0
  -29.4822  -25.1125   21.5376 C   0  0  2  0  0  0
  -29.6554  -19.2499   22.3032 N   0  0  0  0  0  0
  -30.5038  -17.5173   20.9255 N   0  0  0  0  0  0
  -30.1489  -15.1678   21.6197 N   0  0  0  0  0  0
  -29.9620  -22.7852   20.5735 N   0  3  1  0  0  0
  -31.4739  -12.4285   19.0809 H   0  0  0  0  0  0
  -30.3537  -11.2761   19.7426 H   0  0  0  0  0  0
  -29.7208  -11.8372   17.3854 H   0  0  0  0  0  0
  -29.6551  -13.5349   17.7821 H   0  0  0  0  0  0
  -27.8098  -11.3326   18.7683 H   0  0  0  0  0  0
  -27.3592  -12.7013   17.7877 H   0  0  0  0  0  0
  -27.7372  -14.2567   19.6355 H   0  0  0  0  0  0
  -28.6855  -11.8460   21.2509 H   0  0  0  0  0  0
  -28.4490  -13.4205   21.9120 H   0  0  0  0  0  0
  -25.2762   -9.5668   22.4757 H   0  0  0  0  0  0
  -23.9989   -7.4632   22.7481 H   0  0  0  0  0  0
  -21.0832   -8.8781   19.8956 H   0  0  0  0  0  0
  -22.3709  -10.9669   19.6162 H   0  0  0  0  0  0
  -21.2010   -7.6144   23.9712 H   0  0  0  0  0  0
  -21.1480   -6.0519   25.9072 H   0  0  0  0  0  0
  -22.0601   -2.7607   23.2849 H   0  0  0  0  0  0
  -22.4122  -11.9876   22.4742 H   0  0  0  0  0  0
  -21.1154  -13.1286   22.2622 H   0  0  0  0  0  0
  -24.6741  -15.8453   20.5133 H   0  0  0  0  0  0
  -26.2954  -15.6204   20.0900 H   0  0  0  0  0  0
  -26.7084  -32.5549   23.1179 H   0  0  0  0  0  0
  -24.9977  -33.9794   25.0440 H   0  0  0  0  0  0
  -22.6896  -31.3089   21.4053 H   0  0  0  0  0  0
  -23.3734  -35.9667   23.3316 H   0  0  0  0  0  0
  -24.3587  -36.8908   22.2067 H   0  0  0  0  0  0
  -23.7248  -37.6545   23.6641 H   0  0  0  0  0  0
  -26.0292  -31.6015   20.5866 H   0  0  0  0  0  0
  -26.8196  -30.9025   21.9751 H   0  0  0  0  0  0
  -28.0994  -29.1423   21.1717 H   0  0  0  0  0  0
  -26.0997  -25.9871   19.0145 H   0  0  0  0  0  0
  -23.9943  -27.2868   19.0385 H   0  0  0  0  0  0
  -23.7246  -30.5992   19.4053 H   0  0  0  0  0  0
  -22.7393  -29.2450   19.8599 H   0  0  0  0  0  0
  -25.1262  -36.1998   25.0847 H   0  0  0  0  0  0
  -20.9977  -28.3230   24.1438 H   0  0  0  0  0  0
  -20.5668  -26.2274   23.3604 H   0  0  0  0  0  0
  -21.6631  -26.7419   22.1214 H   0  0  0  0  0  0
  -19.6904  -25.6301   21.1236 H   0  0  0  0  0  0
  -19.6692  -27.3210   20.6762 H   0  0  0  0  0  0
  -17.4183  -26.6692   21.4043 H   0  0  0  0  0  0
  -18.0328  -26.0063   22.9032 H   0  0  0  0  0  0
  -19.7965  -30.7249   24.2289 H   0  0  0  0  0  0
  -17.5059  -31.6272   24.5173 H   0  0  0  0  0  0
  -15.5384  -30.3033   23.7637 H   0  0  0  0  0  0
  -15.8670  -28.0878   22.7009 H   0  0  0  0  0  0
  -24.5875  -30.7076   25.7858 H   0  0  0  0  0  0
  -24.8921  -32.2921   26.4915 H   0  0  0  0  0  0
  -25.8093  -30.8947   27.0259 H   0  0  0  0  0  0
  -26.2782  -29.6870   24.1058 H   0  0  0  0  0  0
  -27.3990  -29.7236   25.4474 H   0  0  0  0  0  0
  -27.8623  -30.4384   23.9198 H   0  0  0  0  0  0
  -27.2591  -33.3603   26.2093 H   0  0  0  0  0  0
  -28.3804  -32.6925   25.0316 H   0  0  0  0  0  0
  -28.0674  -31.8438   26.5386 H   0  0  0  0  0  0
  -28.2585  -38.0105   24.7486 H   0  0  0  0  0  0
  -28.1074  -36.2632   24.6306 H   0  0  0  0  0  0
  -27.2302  -37.1472   25.8874 H   0  0  0  0  0  0
  -20.9274  -29.8815   21.6989 H   0  0  0  0  0  0
  -26.0183  -38.2877   24.1423 H   0  0  0  0  0  0
  -29.0060  -16.2511   23.6678 H   0  0  0  0  0  0
  -29.2538  -20.0404   18.6035 H   0  0  0  0  0  0
  -28.6082  -20.4496   20.1588 H   0  0  0  0  0  0
  -32.3602  -20.4278   21.5183 H   0  0  0  0  0  0
  -32.3437  -21.2594   19.9971 H   0  0  0  0  0  0
  -28.8418  -22.4815   18.8032 H   0  0  0  0  0  0
  -30.5588  -22.2165   18.6116 H   0  0  0  0  0  0
  -31.7685  -22.8568   21.7200 H   0  0  0  0  0  0
  -30.5171  -21.8379   22.3673 H   0  0  0  0  0  0
  -31.2564  -19.3490   19.4262 H   0  0  0  0  0  0
  -27.6459  -18.1896   24.6561 H   0  0  0  0  0  0
  -28.0779  -19.8487   24.2391 H   0  0  0  0  0  0
  -29.1595  -18.8819   25.2519 H   0  0  0  0  0  0
  -30.3173  -24.0738   23.2832 H   0  0  0  0  0  0
  -29.8800  -25.7370   23.5947 H   0  0  0  0  0  0
  -31.3346  -25.3773   22.6746 H   0  0  0  0  0  0
  -31.1693  -24.5262   20.2384 H   0  0  0  0  0  0
  -29.6216  -24.5397   19.4668 H   0  0  0  0  0  0
  -30.2043  -27.0735   20.8777 H   0  0  0  0  0  0
  -28.8562  -27.1324   21.9930 H   0  0  0  0  0  0
  -28.4947  -24.7043   21.7556 H   0  0  0  0  0  0
  -29.4780  -14.6527   22.1635 H   0  0  0  0  0  0
  -29.0953  -22.6808   21.0808 H   0  0  0  0  0  0
  1 25  1  0  0  0
  1 30  2  0  0  0
  1 87  1  0  0  0
  2  3  1  0  0  0
  2 25  1  0  0  0
  2 89  1  0  0  0
  2 90  1  0  0  0
  3  4  1  0  0  0
  3 91  1  0  0  0
  3 92  1  0  0  0
  4  5  1  0  0  0
  4 93  1  0  0  0
  4 94  1  0  0  0
  5  6  1  0  0  0
  5 26  1  0  0  0
  5 95  1  0  0  0
  6 25  1  0  0  0
  6 96  1  0  0  0
  6 97  1  0  0  0
  7  8  2  0  0  0
  7 26  1  0  0  0
  7 29  1  0  0  0
  8  9  1  0  0  0
  8 22  1  0  0  0
  9 10  1  0  0  0
  9 27  2  0  0  0
 10 11  2  0  0  0
 10 15  1  0  0  0
 11 12  1  0  0  0
 11 98  1  0  0  0
 12 13  2  0  0  0
 12 99  1  0  0  0
 13 14  1  0  0  0
 13 31  1  0  0  0
 14 15  2  0  0  0
 14100  1  0  0  0
 15101  1  0  0  0
 16 17  2  0  0  0
 16 21  1  0  0  0
 16 31  1  0  0  0
 17 18  1  0  0  0
 17102  1  0  0  0
 18 19  2  0  0  0
 18103  1  0  0  0
 19 20  1  0  0  0
 19 24  1  0  0  0
 20 21  2  0  0  0
 20104  1  0  0  0
 21 23  1  0  0  0
 22 28  1  0  0  0
 22 32  2  0  0  0
 26 27  1  0  0  0
 28105  1  0  0  0
 28106  1  0  0  0
 29107  1  0  0  0
 29108  1  0  0  0
 33 34  1  0  0  0
 33 66  1  0  0  0
 33 70  2  0  0  0
 34 36  1  0  0  0
 34 59  1  0  0  0
 34109  1  0  0  0
 35 44  2  0  0  0
 35 45  1  0  0  0
 35 68  1  0  0  0
 36 56  1  0  0  0
 36110  1  0  0  0
 37 39  1  0  0  0
 37 47  1  0  0  0
 37 66  1  0  0  0
 37111  1  0  0  0
 38 43  2  0  0  0
 38 46  1  0  0  0
 38 47  1  0  0  0
 39 64  1  0  0  0
 39 67  2  0  0  0
 40 52  1  0  0  0
 40 53  2  0  0  0
 40 58  1  0  0  0
 41112  1  0  0  0
 41113  1  0  0  0
 41114  1  0  0  0
 41 48  1  0  0  0
 42 43  1  0  0  0
 42 66  1  0  0  0
 42115  1  0  0  0
 42116  1  0  0  0
 43 44  1  0  0  0
 44117  1  0  0  0
 45 46  2  0  0  0
 45118  1  0  0  0
 46119  1  0  0  0
 47120  1  0  0  0
 47121  1  0  0  0
 48 56  1  0  0  0
 48 65  1  0  0  0
 48122  1  0  0  0
 49 50  1  0  0  0
 49 53  1  0  0  0
 49 64  1  0  0  0
 49123  1  0  0  0
 50 51  1  0  0  0
 50124  1  0  0  0
 50125  1  0  0  0
 51 52  1  0  0  0
 51126  1  0  0  0
 51127  1  0  0  0
 52128  1  0  0  0
 52129  1  0  0  0
 53 54  1  0  0  0
 54 55  2  0  0  0
 54130  1  0  0  0
 55 57  1  0  0  0
 55131  1  0  0  0
 56 69  2  0  0  0
 57 58  2  0  0  0
 57132  1  0  0  0
 58133  1  0  0  0
 59 60  1  0  0  0
 59 61  1  0  0  0
 59 62  1  0  0  0
 60134  1  0  0  0
 60135  1  0  0  0
 60136  1  0  0  0
 61137  1  0  0  0
 61138  1  0  0  0
 61139  1  0  0  0
 62140  1  0  0  0
 62141  1  0  0  0
 62142  1  0  0  0
 63 65  1  0  0  0
 63143  1  0  0  0
 63144  1  0  0  0
 63145  1  0  0  0
 64146  1  0  0  0
 65147  1  0  0  0
 68 83  1  0  0  0
 71 72  2  0  0  0
 71 73  1  0  0  0
 71148  1  0  0  0
 72 80  1  0  0  0
 72 85  1  0  0  0
 73 86  2  0  0  0
 73 87  1  0  0  0
 74 85  2  0  0  0
 74 86  1  0  0  0
 74 79  1  0  0  0
 75 77  1  0  0  0
 75 79  1  0  0  0
 75149  1  0  0  0
 75150  1  0  0  0
 76 78  1  0  0  0
 76 79  1  0  0  0
 76151  1  0  0  0
 76152  1  0  0  0
 77 88  1  0  0  0
 77153  1  0  0  0
 77154  1  0  0  0
 78 88  1  0  0  0
 78155  1  0  0  0
 78156  1  0  0  0
 79157  1  0  0  0
 80158  1  0  0  0
 80159  1  0  0  0
 80160  1  0  0  0
 81161  1  0  0  0
 81162  1  0  0  0
 81163  1  0  0  0
 81 84  1  0  0  0
 82 84  1  0  0  0
 82164  1  0  0  0
 82165  1  0  0  0
 82 88  1  0  0  0
 83 84  1  0  0  0
 83166  1  0  0  0
 83167  1  0  0  0
 84168  1  0  0  0
 87169  1  0  0  0
 88170  1  0  0  0
M  CHG  1  88   1
M  ISO  4   1 100  68 101  83 101  87 100
M  END
> <chiral flag>
0

> <version>
0

> <s_m_source_file>
/data/baiqing/PycharmProjects/Reinvent-master-3.2/result/LINK_invent/BTK/process_docking_weight1_custom_sum_contain_oxygen_bond_distance_aromatic_linkinvent_7_9_3/rearranged_h_0189.sdf

> <i_m_source_file_index>
54

> <r_mmod_Potential_Energy-OPLS-2005>
-575.721618652344

> <r_mmod_Stretch_Energy-OPLS-2005>
38.0724258422852

> <r_mmod_Bend_Energy-OPLS-2005>
120.254768371582

> <r_mmod_Torsional_Energy-OPLS-2005>
264.000396728516

> <r_mmod_Improper_Torsional_Energy-OPLS-2005>
3.41792368888855

> <r_mmod_Van_der_Waal_Energy-OPLS-2005>
170.780868530273

> <r_mmod_Electrostatic_Energy-OPLS-2005>
-744.076416015625

> <r_mmod_Solvation_Energy-OPLS-2005>
-436.223114013672

> <b_mmod_Minimization_Converged-OPLS-2005>
0

> <r_mmod_RMS_Derivative-OPLS-2005>
2.47337126731873

$$$$
55
                    3D
 Structure written by MMmdl.
149157  0  0  1  0            999 V2000
  -30.6633  -14.6698   20.4964 C   0  0  0  0  0  0
  -30.4289  -12.4158   19.4628 C   0  0  0  0  0  0
  -29.5047  -12.5010   18.2295 C   0  0  0  0  0  0
  -28.0311  -12.3346   18.6467 C   0  0  0  0  0  0
  -27.6477  -13.2279   19.8569 C   0  0  2  0  0  0
  -28.6947  -13.1398   20.9896 C   0  0  0  0  0  0
  -25.2536  -13.8200   20.5698 C   0  0  0  0  0  0
  -24.1817  -13.0447   20.9202 C   0  0  0  0  0  0
  -24.6402  -11.6922   20.8756 C   0  0  0  0  0  0
  -23.9073  -10.4298   21.0415 C   0  0  0  0  0  0
  -24.3623   -9.4208   21.9192 C   0  0  0  0  0  0
  -23.6296   -8.2244   22.0755 C   0  0  0  0  0  0
  -22.4280   -8.0286   21.3545 C   0  0  0  0  0  0
  -21.9919   -9.0261   20.4646 C   0  0  0  0  0  0
  -22.7246  -10.2140   20.3060 C   0  0  0  0  0  0
  -21.6855   -6.0739   22.5278 C   0  0  0  0  0  0
  -21.4014   -6.5637   23.8212 C   0  0  0  0  0  0
  -21.3657   -5.6793   24.9175 C   0  0  0  0  0  0
  -21.6043   -4.3058   24.7228 C   0  0  0  0  0  0
  -21.8817   -3.8150   23.4348 C   0  0  0  0  0  0
  -21.9190   -4.6966   22.3402 C   0  0  0  0  0  0
  -22.7835  -13.5228   21.1862 C   0  0  0  0  0  0
  -22.1660   -4.2149   21.0983 F   0  0  0  0  0  0
  -21.5629   -3.4540   25.7741 F   0  0  0  0  0  0
  -30.0025  -13.4699   20.4087 N   0  0  0  0  0  0
  -26.2973  -12.9402   20.3324 N   0  0  0  0  0  0
  -25.9337  -11.6546   20.5783 N   0  0  0  0  0  0
  -22.0480  -12.8216   22.0419 N   0  0  0  0  0  0
  -25.4232  -15.1924   20.4100 N   0  0  0  0  0  0
  -31.8422  -14.7644   20.1512 O   0  0  0  0  0  0
  -21.6640   -6.8884   21.4243 O   0  0  0  0  0  0
  -22.3515  -14.5533   20.6711 O   0  0  0  0  0  0
  -24.6312  -31.8597   23.2056 C   0  0  0  0  0  0
  -25.9146  -32.4779   23.8385 C   0  0  1  0  0  0
  -27.2055  -27.2757   20.1082 C   0  0  0  0  0  0
  -25.5952  -33.8584   24.2294 N   0  0  0  0  0  0
  -23.4253  -30.4898   21.5504 C   0  0  2  0  0  0
  -24.8694  -28.9562   20.1076 C   0  0  0  0  0  0
  -22.7502  -29.4632   22.4926 C   0  0  0  0  0  0
  -18.0293  -28.1382   22.8486 C   0  0  0  0  0  0
  -24.1483  -36.7285   23.2632 C   0  0  0  0  0  0
  -25.9759  -30.7732   21.3914 C   0  0  0  0  0  0
  -26.0446  -29.4021   20.7255 C   0  0  0  0  0  0
  -27.2146  -28.5725   20.7251 C   0  0  0  0  0  0
  -26.0069  -26.9272   19.4305 C   0  0  0  0  0  0
  -24.8555  -27.7234   19.4520 C   0  0  0  0  0  0
  -23.6411  -29.8397   20.1622 C   0  0  0  0  0  0
  -25.4109  -36.3078   24.0325 C   0  0  1  0  0  0
  -20.5899  -28.3697   23.1263 C   0  0  2  0  0  0
  -20.6781  -26.9416   22.5398 C   0  0  0  0  0  0
  -19.5750  -26.6382   21.5207 C   0  0  0  0  0  0
  -18.1932  -26.7924   22.1625 C   0  0  0  0  0  0
  -19.1548  -28.8858   23.2868 C   0  0  0  0  0  0
  -18.9472  -30.1459   23.8886 C   0  0  0  0  0  0
  -17.6471  -30.6584   24.0563 C   0  0  0  0  0  0
  -25.9061  -34.9451   23.5107 C   0  0  0  0  0  0
  -16.5363  -29.9079   23.6337 C   0  0  0  0  0  0
  -16.7281  -28.6496   23.0364 C   0  0  0  0  0  0
  -26.4507  -31.6598   25.0770 C   0  0  0  0  0  0
  -25.3714  -31.3753   26.1481 C   0  0  0  0  0  0
  -27.0360  -30.3007   24.6271 C   0  0  0  0  0  0
  -27.6059  -32.4352   25.7532 C   0  0  0  0  0  0
  -27.5591  -37.1780   24.8451 C   0  0  0  0  0  0
  -21.4213  -29.3057   22.3664 N   0  0  0  0  0  0
  -26.4277  -37.3786   23.9433 N   0  0  0  0  0  0
  -24.6963  -31.0575   22.1043 N   0  0  0  0  0  0
  -23.4210  -28.8150   23.3002 O   0  0  0  0  0  0
  -28.2642  -26.3300   20.1934 O   0  0  0  0  0  0
  -26.5623  -34.8915   22.4671 O   0  0  0  0  0  0
  -23.5465  -32.1428   23.7343 O   0  0  0  0  0  0
  -28.0821  -22.3726   19.6359 C   0  0  0  0  0  0
  -29.7534  -23.3386   20.9757 C   0  0  0  0  0  0
  -28.6313  -23.5731   20.1566 C   0  0  0  0  0  0
  -29.6180  -21.0160   20.6758 C   0  0  0  0  0  0
  -27.8867  -24.9282   19.8247 C   0  0  0  0  0  0
  -30.4793  -17.2196   20.9177 C   0  0  0  0  0  0
  -29.5611  -18.4899   20.5734 C   0  0  0  0  0  0
  -28.5545  -21.1190   19.8889 N   0  0  0  0  0  0
  -30.2343  -22.0771   21.2164 N   0  0  0  0  0  0
  -29.9442  -15.8044   20.7926 N   0  0  0  0  0  0
  -30.1653  -19.7770   20.9680 O   0  0  0  0  0  0
  -31.4716  -12.5236   19.1593 H   0  0  0  0  0  0
  -30.3570  -11.4340   19.9336 H   0  0  0  0  0  0
  -29.7755  -11.7365   17.5001 H   0  0  0  0  0  0
  -29.6399  -13.4622   17.7315 H   0  0  0  0  0  0
  -27.8799  -11.2852   18.9020 H   0  0  0  0  0  0
  -27.3721  -12.5383   17.8018 H   0  0  0  0  0  0
  -27.6513  -14.2536   19.4878 H   0  0  0  0  0  0
  -28.7160  -12.1390   21.4231 H   0  0  0  0  0  0
  -28.4427  -13.8192   21.8051 H   0  0  0  0  0  0
  -25.2767   -9.5682   22.4766 H   0  0  0  0  0  0
  -24.0001   -7.4638   22.7478 H   0  0  0  0  0  0
  -21.0846   -8.8785   19.8956 H   0  0  0  0  0  0
  -22.3709  -10.9682   19.6167 H   0  0  0  0  0  0
  -21.2009   -7.6144   23.9715 H   0  0  0  0  0  0
  -21.1479   -6.0524   25.9077 H   0  0  0  0  0  0
  -22.0598   -2.7611   23.2851 H   0  0  0  0  0  0
  -22.4094  -11.9867   22.4791 H   0  0  0  0  0  0
  -21.1104  -13.1246   22.2643 H   0  0  0  0  0  0
  -24.6553  -15.8472   20.5144 H   0  0  0  0  0  0
  -26.2706  -15.6296   20.0713 H   0  0  0  0  0  0
  -26.7218  -32.5418   23.1131 H   0  0  0  0  0  0
  -25.0108  -33.9740   25.0444 H   0  0  0  0  0  0
  -22.7206  -31.3129   21.4137 H   0  0  0  0  0  0
  -23.3762  -35.9597   23.3260 H   0  0  0  0  0  0
  -24.3587  -36.8944   22.2056 H   0  0  0  0  0  0
  -23.7215  -37.6468   23.6676 H   0  0  0  0  0  0
  -26.1233  -31.5385   20.6280 H   0  0  0  0  0  0
  -26.8510  -30.8117   22.0287 H   0  0  0  0  0  0
  -28.1058  -28.9026   21.2409 H   0  0  0  0  0  0
  -25.8924  -26.0077   18.8791 H   0  0  0  0  0  0
  -23.9610  -27.3816   18.9497 H   0  0  0  0  0  0
  -23.7638  -30.6240   19.4146 H   0  0  0  0  0  0
  -22.7584  -29.2769   19.8532 H   0  0  0  0  0  0
  -25.1274  -36.1920   25.0812 H   0  0  0  0  0  0
  -20.9997  -28.3272   24.1380 H   0  0  0  0  0  0
  -20.5687  -26.2308   23.3602 H   0  0  0  0  0  0
  -21.6647  -26.7440   22.1190 H   0  0  0  0  0  0
  -19.6914  -25.6289   21.1246 H   0  0  0  0  0  0
  -19.6681  -27.3185   20.6725 H   0  0  0  0  0  0
  -17.4201  -26.6677   21.4028 H   0  0  0  0  0  0
  -18.0336  -26.0057   22.9014 H   0  0  0  0  0  0
  -19.7948  -30.7281   24.2246 H   0  0  0  0  0  0
  -17.5023  -31.6264   24.5167 H   0  0  0  0  0  0
  -15.5367  -30.2983   23.7656 H   0  0  0  0  0  0
  -15.8678  -28.0809   22.7093 H   0  0  0  0  0  0
  -24.5895  -30.7096   25.7807 H   0  0  0  0  0  0
  -24.8896  -32.2925   26.4878 H   0  0  0  0  0  0
  -25.8016  -30.8954   27.0280 H   0  0  0  0  0  0
  -26.2965  -29.6760   24.1252 H   0  0  0  0  0  0
  -27.3992  -29.7263   25.4805 H   0  0  0  0  0  0
  -27.8857  -30.4280   23.9558 H   0  0  0  0  0  0
  -27.2667  -33.3662   26.2085 H   0  0  0  0  0  0
  -28.3867  -32.6913   25.0356 H   0  0  0  0  0  0
  -28.0724  -31.8503   26.5469 H   0  0  0  0  0  0
  -28.2540  -38.0144   24.7606 H   0  0  0  0  0  0
  -28.1162  -36.2691   24.6134 H   0  0  0  0  0  0
  -27.2334  -37.1248   25.8853 H   0  0  0  0  0  0
  -20.9391  -29.8807   21.6897 H   0  0  0  0  0  0
  -26.0151  -38.2842   24.1501 H   0  0  0  0  0  0
  -27.2076  -22.4137   19.0034 H   0  0  0  0  0  0
  -30.2659  -24.1571   21.4596 H   0  0  0  0  0  0
  -26.9098  -24.7271   20.2679 H   0  0  0  0  0  0
  -27.7619  -24.9170   18.7407 H   0  0  0  0  0  0
  -30.8086  -17.3242   21.9524 H   0  0  0  0  0  0
  -31.3891  -17.3048   20.3219 H   0  0  0  0  0  0
  -28.6024  -18.3968   21.0841 H   0  0  0  0  0  0
  -29.3467  -18.5018   19.5042 H   0  0  0  0  0  0
  -28.9684  -15.6662   21.0104 H   0  0  0  0  0  0
  1 25  1  0  0  0
  1 30  2  0  0  0
  1 80  1  0  0  0
  2  3  1  0  0  0
  2 25  1  0  0  0
  2 82  1  0  0  0
  2 83  1  0  0  0
  3  4  1  0  0  0
  3 84  1  0  0  0
  3 85  1  0  0  0
  4  5  1  0  0  0
  4 86  1  0  0  0
  4 87  1  0  0  0
  5  6  1  0  0  0
  5 26  1  0  0  0
  5 88  1  0  0  0
  6 25  1  0  0  0
  6 89  1  0  0  0
  6 90  1  0  0  0
  7  8  2  0  0  0
  7 26  1  0  0  0
  7 29  1  0  0  0
  8  9  1  0  0  0
  8 22  1  0  0  0
  9 10  1  0  0  0
  9 27  2  0  0  0
 10 11  2  0  0  0
 10 15  1  0  0  0
 11 12  1  0  0  0
 11 91  1  0  0  0
 12 13  2  0  0  0
 12 92  1  0  0  0
 13 14  1  0  0  0
 13 31  1  0  0  0
 14 15  2  0  0  0
 14 93  1  0  0  0
 15 94  1  0  0  0
 16 17  2  0  0  0
 16 21  1  0  0  0
 16 31  1  0  0  0
 17 18  1  0  0  0
 17 95  1  0  0  0
 18 19  2  0  0  0
 18 96  1  0  0  0
 19 20  1  0  0  0
 19 24  1  0  0  0
 20 21  2  0  0  0
 20 97  1  0  0  0
 21 23  1  0  0  0
 22 28  1  0  0  0
 22 32  2  0  0  0
 26 27  1  0  0  0
 28 98  1  0  0  0
 28 99  1  0  0  0
 29100  1  0  0  0
 29101  1  0  0  0
 33 34  1  0  0  0
 33 66  1  0  0  0
 33 70  2  0  0  0
 34 36  1  0  0  0
 34 59  1  0  0  0
 34102  1  0  0  0
 35 44  2  0  0  0
 35 45  1  0  0  0
 35 68  1  0  0  0
 36 56  1  0  0  0
 36103  1  0  0  0
 37 39  1  0  0  0
 37 47  1  0  0  0
 37 66  1  0  0  0
 37104  1  0  0  0
 38 43  2  0  0  0
 38 46  1  0  0  0
 38 47  1  0  0  0
 39 64  1  0  0  0
 39 67  2  0  0  0
 40 52  1  0  0  0
 40 53  2  0  0  0
 40 58  1  0  0  0
 41105  1  0  0  0
 41106  1  0  0  0
 41107  1  0  0  0
 41 48  1  0  0  0
 42 43  1  0  0  0
 42 66  1  0  0  0
 42108  1  0  0  0
 42109  1  0  0  0
 43 44  1  0  0  0
 44110  1  0  0  0
 45 46  2  0  0  0
 45111  1  0  0  0
 46112  1  0  0  0
 47113  1  0  0  0
 47114  1  0  0  0
 48 56  1  0  0  0
 48 65  1  0  0  0
 48115  1  0  0  0
 49 50  1  0  0  0
 49 53  1  0  0  0
 49 64  1  0  0  0
 49116  1  0  0  0
 50 51  1  0  0  0
 50117  1  0  0  0
 50118  1  0  0  0
 51 52  1  0  0  0
 51119  1  0  0  0
 51120  1  0  0  0
 52121  1  0  0  0
 52122  1  0  0  0
 53 54  1  0  0  0
 54 55  2  0  0  0
 54123  1  0  0  0
 55 57  1  0  0  0
 55124  1  0  0  0
 56 69  2  0  0  0
 57 58  2  0  0  0
 57125  1  0  0  0
 58126  1  0  0  0
 59 60  1  0  0  0
 59 61  1  0  0  0
 59 62  1  0  0  0
 60127  1  0  0  0
 60128  1  0  0  0
 60129  1  0  0  0
 61130  1  0  0  0
 61131  1  0  0  0
 61132  1  0  0  0
 62133  1  0  0  0
 62134  1  0  0  0
 62135  1  0  0  0
 63 65  1  0  0  0
 63136  1  0  0  0
 63137  1  0  0  0
 63138  1  0  0  0
 64139  1  0  0  0
 65140  1  0  0  0
 68 75  1  0  0  0
 71 73  2  0  0  0
 71 78  1  0  0  0
 71141  1  0  0  0
 72 73  1  0  0  0
 72 79  2  0  0  0
 72142  1  0  0  0
 73 75  1  0  0  0
 74 78  2  0  0  0
 74 79  1  0  0  0
 74 81  1  0  0  0
 75143  1  0  0  0
 75144  1  0  0  0
 76 77  1  0  0  0
 76 80  1  0  0  0
 76145  1  0  0  0
 76146  1  0  0  0
 77 81  1  0  0  0
 77147  1  0  0  0
 77148  1  0  0  0
 80149  1  0  0  0
M  ISO  4   1 100  68 101  75 101  80 100
M  END
> <chiral flag>
0

> <version>
0

> <s_m_source_file>
/data/baiqing/PycharmProjects/Reinvent-master-3.2/result/LINK_invent/BTK/process_docking_weight1_custom_sum_contain_oxygen_bond_distance_aromatic_linkinvent_7_9_3/rearranged_h_0189.sdf

> <i_m_source_file_index>
55

> <r_mmod_Potential_Energy-OPLS-2005>
-382.020904541016

> <r_mmod_Stretch_Energy-OPLS-2005>
91.9091796875

> <r_mmod_Bend_Energy-OPLS-2005>
183.122283935547

> <r_mmod_Torsional_Energy-OPLS-2005>
203.640090942383

> <r_mmod_Improper_Torsional_Energy-OPLS-2005>
4.20517683029175

> <r_mmod_Van_der_Waal_Energy-OPLS-2005>
164.68635559082

> <r_mmod_Electrostatic_Energy-OPLS-2005>
-871.67822265625

> <r_mmod_Solvation_Energy-OPLS-2005>
-231.599502563477

> <b_mmod_Minimization_Converged-OPLS-2005>
0

> <r_mmod_RMS_Derivative-OPLS-2005>
0.77201372385025

$$$$
56
                    3D
 Structure written by MMmdl.
156165  0  0  1  0            999 V2000
  -30.6622  -14.7999   20.4406 C   0  0  0  0  0  0
  -30.4140  -12.4982   19.4806 C   0  0  0  0  0  0
  -29.5026  -12.4952   18.2377 C   0  0  0  0  0  0
  -28.0357  -12.3049   18.6636 C   0  0  0  0  0  0
  -27.6262  -13.2445   19.8303 C   0  0  2  0  0  0
  -28.6741  -13.2683   20.9638 C   0  0  0  0  0  0
  -25.2435  -13.8209   20.5717 C   0  0  0  0  0  0
  -24.1752  -13.0428   20.9251 C   0  0  0  0  0  0
  -24.6375  -11.6922   20.8777 C   0  0  0  0  0  0
  -23.9072  -10.4289   21.0419 C   0  0  0  0  0  0
  -24.3620   -9.4202   21.9198 C   0  0  0  0  0  0
  -23.6293   -8.2238   22.0745 C   0  0  0  0  0  0
  -22.4281   -8.0272   21.3531 C   0  0  0  0  0  0
  -21.9923   -9.0249   20.4638 C   0  0  0  0  0  0
  -22.7246  -10.2133   20.3058 C   0  0  0  0  0  0
  -21.6854   -6.0734   22.5283 C   0  0  0  0  0  0
  -21.4017   -6.5638   23.8212 C   0  0  0  0  0  0
  -21.3663   -5.6786   24.9176 C   0  0  0  0  0  0
  -21.6038   -4.3048   24.7235 C   0  0  0  0  0  0
  -21.8809   -3.8145   23.4355 C   0  0  0  0  0  0
  -21.9189   -4.6964   22.3405 C   0  0  0  0  0  0
  -22.7782  -13.5209   21.1902 C   0  0  0  0  0  0
  -22.1654   -4.2138   21.0989 F   0  0  0  0  0  0
  -21.5632   -3.4534   25.7754 F   0  0  0  0  0  0
  -29.9592  -13.6133   20.3506 N   0  0  0  0  0  0
  -26.2864  -12.9443   20.3246 N   0  0  0  0  0  0
  -25.9311  -11.6573   20.5772 N   0  0  0  0  0  0
  -22.0433  -12.8187   22.0457 N   0  0  0  0  0  0
  -25.4069  -15.1934   20.4136 N   0  0  0  0  0  0
  -31.8739  -14.7684   20.2090 O   0  0  0  0  0  0
  -21.6628   -6.8881   21.4239 O   0  0  0  0  0  0
  -22.3456  -14.5503   20.6736 O   0  0  0  0  0  0
  -24.6385  -31.8485   23.1984 C   0  0  0  0  0  0
  -25.9201  -32.4706   23.8314 C   0  0  1  0  0  0
  -27.2074  -27.2077   20.1352 C   0  0  0  0  0  0
  -25.5987  -33.8517   24.2228 N   0  0  0  0  0  0
  -23.4366  -30.4736   21.5414 C   0  0  2  0  0  0
  -24.8814  -28.9188   20.1045 C   0  0  0  0  0  0
  -22.7533  -29.4574   22.4891 C   0  0  0  0  0  0
  -18.0293  -28.1406   22.8472 C   0  0  0  0  0  0
  -24.1498  -36.7261   23.2638 C   0  0  0  0  0  0
  -25.9873  -30.7437   21.3886 C   0  0  0  0  0  0
  -26.0546  -29.3651   20.7245 C   0  0  0  0  0  0
  -27.2188  -28.5224   20.7302 C   0  0  0  0  0  0
  -26.0161  -26.8547   19.4610 C   0  0  0  0  0  0
  -24.8705  -27.6739   19.4597 C   0  0  0  0  0  0
  -23.6569  -29.8142   20.1546 C   0  0  0  0  0  0
  -25.4126  -36.3040   24.0314 C   0  0  1  0  0  0
  -20.5901  -28.3724   23.1251 C   0  0  2  0  0  0
  -20.6789  -26.9434   22.5407 C   0  0  0  0  0  0
  -19.5765  -26.6401   21.5213 C   0  0  0  0  0  0
  -18.1943  -26.7945   22.1619 C   0  0  0  0  0  0
  -19.1545  -28.8883   23.2852 C   0  0  0  0  0  0
  -18.9464  -30.1483   23.8874 C   0  0  0  0  0  0
  -17.6460  -30.6595   24.0574 C   0  0  0  0  0  0
  -25.9078  -34.9414   23.5065 C   0  0  0  0  0  0
  -16.5355  -29.9089   23.6347 C   0  0  0  0  0  0
  -16.7277  -28.6518   23.0345 C   0  0  0  0  0  0
  -26.4553  -31.6552   25.0726 C   0  0  0  0  0  0
  -25.3773  -31.3701   26.1439 C   0  0  0  0  0  0
  -27.0418  -30.2957   24.6275 C   0  0  0  0  0  0
  -27.6103  -32.4296   25.7504 C   0  0  0  0  0  0
  -27.5572  -37.1786   24.8466 C   0  0  0  0  0  0
  -21.4234  -29.3047   22.3628 N   0  0  0  0  0  0
  -26.4291  -37.3748   23.9403 N   0  0  0  0  0  0
  -24.7067  -31.0406   22.0987 N   0  0  0  0  0  0
  -23.4199  -28.8109   23.3012 O   0  0  0  0  0  0
  -28.2744  -26.2670   20.2334 O   0  0  0  0  0  0
  -26.5636  -34.8901   22.4626 O   0  0  0  0  0  0
  -23.5530  -32.1346   23.7243 O   0  0  0  0  0  0
  -29.3403  -19.4667   21.4357 C   0  0  0  0  0  0
  -29.4134  -20.3397   23.3479 C   0  0  0  0  0  0
  -28.8467  -16.7684   20.9086 C   0  0  0  0  0  0
  -30.7555  -17.3856   20.2961 C   0  0  0  0  0  0
  -29.4290  -18.1910   20.4931 C   0  0  0  0  0  0
  -29.5070  -20.4815   24.8272 C   0  0  0  0  0  0
  -28.8433  -23.5609   20.7056 C   0  0  0  0  0  0
  -28.7205  -21.9532   20.2812 C   0  0  0  0  0  0
  -28.0645  -24.7813   19.9398 C   0  0  0  0  0  0
  -29.5775  -19.1566   22.7138 N   0  0  0  0  0  0
  -29.1353  -21.3716   22.5703 N   0  0  0  0  0  0
  -29.0952  -20.8640   21.3067 N   0  0  0  0  0  0
  -30.0533  -16.0666   20.3883 N   0  0  0  0  0  0
  -31.4548  -12.5983   19.1736 H   0  0  0  0  0  0
  -30.3548  -11.5471   20.0120 H   0  0  0  0  0  0
  -29.7996  -11.7019   17.5495 H   0  0  0  0  0  0
  -29.6157  -13.4353   17.6950 H   0  0  0  0  0  0
  -27.9234  -11.2665   18.9783 H   0  0  0  0  0  0
  -27.3693  -12.4402   17.8100 H   0  0  0  0  0  0
  -27.5939  -14.2472   19.4028 H   0  0  0  0  0  0
  -28.7318  -12.3045   21.4698 H   0  0  0  0  0  0
  -28.4065  -14.0057   21.7218 H   0  0  0  0  0  0
  -25.2758   -9.5675   22.4789 H   0  0  0  0  0  0
  -23.9992   -7.4622   22.7465 H   0  0  0  0  0  0
  -21.0848   -8.8771   19.8957 H   0  0  0  0  0  0
  -22.3692  -10.9677   19.6176 H   0  0  0  0  0  0
  -21.2000   -7.6145   23.9715 H   0  0  0  0  0  0
  -21.1501   -6.0524   25.9075 H   0  0  0  0  0  0
  -22.0589   -2.7612   23.2859 H   0  0  0  0  0  0
  -22.4039  -11.9852   22.4862 H   0  0  0  0  0  0
  -21.1050  -13.1204   22.2651 H   0  0  0  0  0  0
  -24.6379  -15.8464   20.5207 H   0  0  0  0  0  0
  -26.2486  -15.6328   20.0678 H   0  0  0  0  0  0
  -26.7259  -32.5318   23.1038 H   0  0  0  0  0  0
  -25.0163  -33.9637   25.0393 H   0  0  0  0  0  0
  -22.7369  -31.2998   21.3977 H   0  0  0  0  0  0
  -23.3759  -35.9594   23.3298 H   0  0  0  0  0  0
  -24.3589  -36.8889   22.2054 H   0  0  0  0  0  0
  -23.7254  -37.6462   23.6667 H   0  0  0  0  0  0
  -26.1397  -31.5055   20.6228 H   0  0  0  0  0  0
  -26.8607  -30.7840   22.0277 H   0  0  0  0  0  0
  -28.1112  -28.8532   21.2423 H   0  0  0  0  0  0
  -25.9282  -25.9154   18.9371 H   0  0  0  0  0  0
  -23.9766  -27.3313   18.9567 H   0  0  0  0  0  0
  -23.7908  -30.5966   19.4063 H   0  0  0  0  0  0
  -22.7719  -29.2583   19.8416 H   0  0  0  0  0  0
  -25.1309  -36.1876   25.0805 H   0  0  0  0  0  0
  -20.9981  -28.3314   24.1378 H   0  0  0  0  0  0
  -20.5723  -26.2323   23.3614 H   0  0  0  0  0  0
  -21.6652  -26.7480   22.1179 H   0  0  0  0  0  0
  -19.6941  -25.6316   21.1240 H   0  0  0  0  0  0
  -19.6709  -27.3218   20.6746 H   0  0  0  0  0  0
  -17.4217  -26.6690   21.4020 H   0  0  0  0  0  0
  -18.0343  -26.0093   22.9020 H   0  0  0  0  0  0
  -19.7939  -30.7312   24.2225 H   0  0  0  0  0  0
  -17.5013  -31.6273   24.5185 H   0  0  0  0  0  0
  -15.5352  -30.2983   23.7699 H   0  0  0  0  0  0
  -15.8678  -28.0850   22.7047 H   0  0  0  0  0  0
  -24.5975  -30.7021   25.7761 H   0  0  0  0  0  0
  -24.8952  -32.2870   26.4840 H   0  0  0  0  0  0
  -25.8104  -30.8901   27.0226 H   0  0  0  0  0  0
  -26.3024  -29.6666   24.1313 H   0  0  0  0  0  0
  -27.4079  -29.7256   25.4826 H   0  0  0  0  0  0
  -27.8913  -30.4191   23.9554 H   0  0  0  0  0  0
  -27.2711  -33.3599   26.2062 H   0  0  0  0  0  0
  -28.3934  -32.6834   25.0351 H   0  0  0  0  0  0
  -28.0756  -31.8438   26.5439 H   0  0  0  0  0  0
  -28.2591  -38.0081   24.7500 H   0  0  0  0  0  0
  -28.1068  -36.2610   24.6315 H   0  0  0  0  0  0
  -27.2285  -37.1450   25.8869 H   0  0  0  0  0  0
  -20.9447  -29.8740   21.6795 H   0  0  0  0  0  0
  -26.0162  -38.2816   24.1414 H   0  0  0  0  0  0
  -27.9295  -16.5292   20.3731 H   0  0  0  0  0  0
  -28.7100  -16.6439   21.9843 H   0  0  0  0  0  0
  -31.4640  -17.5452   21.1114 H   0  0  0  0  0  0
  -31.2358  -17.5760   19.3344 H   0  0  0  0  0  0
  -29.0333  -18.4698   19.5163 H   0  0  0  0  0  0
  -28.5353  -20.7495   25.2419 H   0  0  0  0  0  0
  -30.2295  -21.2528   25.0957 H   0  0  0  0  0  0
  -29.8201  -19.5427   25.2834 H   0  0  0  0  0  0
  -29.9052  -23.8045   20.7099 H   0  0  0  0  0  0
  -28.5336  -23.6664   21.7448 H   0  0  0  0  0  0
  -29.3161  -21.7772   19.3847 H   0  0  0  0  0  0
  -27.6871  -21.7571   19.9939 H   0  0  0  0  0  0
  -27.0141  -24.5438   20.0990 H   0  0  0  0  0  0
  -28.2401  -24.6559   18.8715 H   0  0  0  0  0  0
  1 25  1  0  0  0
  1 30  2  0  0  0
  1 83  1  0  0  0
  2  3  1  0  0  0
  2 25  1  0  0  0
  2 84  1  0  0  0
  2 85  1  0  0  0
  3  4  1  0  0  0
  3 86  1  0  0  0
  3 87  1  0  0  0
  4  5  1  0  0  0
  4 88  1  0  0  0
  4 89  1  0  0  0
  5  6  1  0  0  0
  5 26  1  0  0  0
  5 90  1  0  0  0
  6 25  1  0  0  0
  6 91  1  0  0  0
  6 92  1  0  0  0
  7  8  2  0  0  0
  7 26  1  0  0  0
  7 29  1  0  0  0
  8  9  1  0  0  0
  8 22  1  0  0  0
  9 10  1  0  0  0
  9 27  2  0  0  0
 10 11  2  0  0  0
 10 15  1  0  0  0
 11 12  1  0  0  0
 11 93  1  0  0  0
 12 13  2  0  0  0
 12 94  1  0  0  0
 13 14  1  0  0  0
 13 31  1  0  0  0
 14 15  2  0  0  0
 14 95  1  0  0  0
 15 96  1  0  0  0
 16 17  2  0  0  0
 16 21  1  0  0  0
 16 31  1  0  0  0
 17 18  1  0  0  0
 17 97  1  0  0  0
 18 19  2  0  0  0
 18 98  1  0  0  0
 19 20  1  0  0  0
 19 24  1  0  0  0
 20 21  2  0  0  0
 20 99  1  0  0  0
 21 23  1  0  0  0
 22 28  1  0  0  0
 22 32  2  0  0  0
 26 27  1  0  0  0
 28100  1  0  0  0
 28101  1  0  0  0
 29102  1  0  0  0
 29103  1  0  0  0
 33 34  1  0  0  0
 33 66  1  0  0  0
 33 70  2  0  0  0
 34 36  1  0  0  0
 34 59  1  0  0  0
 34104  1  0  0  0
 35 44  2  0  0  0
 35 45  1  0  0  0
 35 68  1  0  0  0
 36 56  1  0  0  0
 36105  1  0  0  0
 37 39  1  0  0  0
 37 47  1  0  0  0
 37 66  1  0  0  0
 37106  1  0  0  0
 38 43  2  0  0  0
 38 46  1  0  0  0
 38 47  1  0  0  0
 39 64  1  0  0  0
 39 67  2  0  0  0
 40 52  1  0  0  0
 40 53  2  0  0  0
 40 58  1  0  0  0
 41107  1  0  0  0
 41108  1  0  0  0
 41109  1  0  0  0
 41 48  1  0  0  0
 42 43  1  0  0  0
 42 66  1  0  0  0
 42110  1  0  0  0
 42111  1  0  0  0
 43 44  1  0  0  0
 44112  1  0  0  0
 45 46  2  0  0  0
 45113  1  0  0  0
 46114  1  0  0  0
 47115  1  0  0  0
 47116  1  0  0  0
 48 56  1  0  0  0
 48 65  1  0  0  0
 48117  1  0  0  0
 49 50  1  0  0  0
 49 53  1  0  0  0
 49 64  1  0  0  0
 49118  1  0  0  0
 50 51  1  0  0  0
 50119  1  0  0  0
 50120  1  0  0  0
 51 52  1  0  0  0
 51121  1  0  0  0
 51122  1  0  0  0
 52123  1  0  0  0
 52124  1  0  0  0
 53 54  1  0  0  0
 54 55  2  0  0  0
 54125  1  0  0  0
 55 57  1  0  0  0
 55126  1  0  0  0
 56 69  2  0  0  0
 57 58  2  0  0  0
 57127  1  0  0  0
 58128  1  0  0  0
 59 60  1  0  0  0
 59 61  1  0  0  0
 59 62  1  0  0  0
 60129  1  0  0  0
 60130  1  0  0  0
 60131  1  0  0  0
 61132  1  0  0  0
 61133  1  0  0  0
 61134  1  0  0  0
 62135  1  0  0  0
 62136  1  0  0  0
 62137  1  0  0  0
 63 65  1  0  0  0
 63138  1  0  0  0
 63139  1  0  0  0
 63140  1  0  0  0
 64141  1  0  0  0
 65142  1  0  0  0
 68 79  1  0  0  0
 71 80  2  0  0  0
 71 82  1  0  0  0
 71 75  1  0  0  0
 72 76  1  0  0  0
 72 80  1  0  0  0
 72 81  2  0  0  0
 73 75  1  0  0  0
 73 83  1  0  0  0
 73143  1  0  0  0
 73144  1  0  0  0
 74 75  1  0  0  0
 74 83  1  0  0  0
 74145  1  0  0  0
 74146  1  0  0  0
 75147  1  0  0  0
 76148  1  0  0  0
 76149  1  0  0  0
 76150  1  0  0  0
 77 78  1  0  0  0
 77 79  1  0  0  0
 77151  1  0  0  0
 77152  1  0  0  0
 78 82  1  0  0  0
 78153  1  0  0  0
 78154  1  0  0  0
 79155  1  0  0  0
 79156  1  0  0  0
 81 82  1  0  0  0
M  ISO  4   1 100  68 101  79 101  83 100
M  END
> <chiral flag>
0

> <version>
0

> <s_m_source_file>
/data/baiqing/PycharmProjects/Reinvent-master-3.2/result/LINK_invent/BTK/process_docking_weight1_custom_sum_contain_oxygen_bond_distance_aromatic_linkinvent_7_9_3/rearranged_h_0189.sdf

> <i_m_source_file_index>
56

> <r_mmod_Potential_Energy-OPLS-2005>
358.535766601562

> <r_mmod_Stretch_Energy-OPLS-2005>
163.279342651367

> <r_mmod_Bend_Energy-OPLS-2005>
268.460906982422

> <r_mmod_Torsional_Energy-OPLS-2005>
269.927062988281

> <r_mmod_Improper_Torsional_Energy-OPLS-2005>
13.429328918457

> <r_mmod_Van_der_Waal_Energy-OPLS-2005>
116.987731933594

> <r_mmod_Electrostatic_Energy-OPLS-2005>
-371.373077392578

> <r_mmod_Solvation_Energy-OPLS-2005>
-228.480972290039

> <b_mmod_Minimization_Converged-OPLS-2005>
0

> <r_mmod_RMS_Derivative-OPLS-2005>
2.04337501525879

$$$$
57
                    3D
 Structure written by MMmdl.
164173  0  0  1  0            999 V2000
  -30.5650  -14.7820   20.2553 C   0  0  0  0  0  0
  -30.5048  -12.4179   19.5070 C   0  0  0  0  0  0
  -29.5745  -12.3843   18.2697 C   0  0  0  0  0  0
  -28.0876  -12.2514   18.6884 C   0  0  0  0  0  0
  -27.6596  -13.1766   19.8627 C   0  0  2  0  0  0
  -28.7248  -13.1564   20.9738 C   0  0  0  0  0  0
  -25.2625  -13.8012   20.5698 C   0  0  0  0  0  0
  -24.1810  -13.0335   20.9143 C   0  0  0  0  0  0
  -24.6293  -11.6798   20.8660 C   0  0  0  0  0  0
  -23.8883  -10.4200   21.0397 C   0  0  0  0  0  0
  -24.3467   -9.4104   21.9179 C   0  0  0  0  0  0
  -23.6151   -8.2131   22.0751 C   0  0  0  0  0  0
  -22.4147   -8.0149   21.3545 C   0  0  0  0  0  0
  -21.9752   -9.0107   20.4669 C   0  0  0  0  0  0
  -22.7022  -10.2009   20.3085 C   0  0  0  0  0  0
  -21.6741   -6.0596   22.5270 C   0  0  0  0  0  0
  -21.3900   -6.5529   23.8176 C   0  0  0  0  0  0
  -21.3650   -5.6720   24.9191 C   0  0  0  0  0  0
  -21.6075   -4.2988   24.7266 C   0  0  0  0  0  0
  -21.8829   -3.8044   23.4399 C   0  0  0  0  0  0
  -21.9153   -4.6832   22.3433 C   0  0  0  0  0  0
  -22.7864  -13.5197   21.1865 C   0  0  0  0  0  0
  -22.1619   -4.1988   21.1025 F   0  0  0  0  0  0
  -21.5710   -3.4513   25.7819 F   0  0  0  0  0  0
  -30.0084  -13.5201   20.3461 N   0  0  0  0  0  0
  -26.3041  -12.9082   20.3381 N   0  0  0  0  0  0
  -25.9240  -11.6271   20.5744 N   0  0  0  0  0  0
  -22.0354  -12.8280   22.0391 N   0  0  0  0  0  0
  -25.4468  -15.1735   20.4118 N   0  0  0  0  0  0
  -31.7894  -14.9004   20.1457 O   0  0  0  0  0  0
  -21.6549   -6.8720   21.4237 O   0  0  0  0  0  0
  -22.3588  -14.5513   20.6668 O   0  0  0  0  0  0
  -24.6270  -31.8477   23.1974 C   0  0  0  0  0  0
  -25.9129  -32.4698   23.8359 C   0  0  1  0  0  0
  -27.2118  -27.2751   20.1636 C   0  0  0  0  0  0
  -25.5827  -33.8494   24.2233 N   0  0  0  0  0  0
  -23.4350  -30.4600   21.5336 C   0  0  2  0  0  0
  -24.8843  -28.9039   20.1129 C   0  0  0  0  0  0
  -22.7526  -29.4517   22.4877 C   0  0  0  0  0  0
  -18.0189  -28.1298   22.8364 C   0  0  0  0  0  0
  -24.1464  -36.7340   23.2665 C   0  0  0  0  0  0
  -25.9734  -30.7675   21.3752 C   0  0  0  0  0  0
  -26.0432  -29.3829   20.7362 C   0  0  0  0  0  0
  -27.2155  -28.5711   20.7570 C   0  0  0  0  0  0
  -26.0338  -26.8279   19.5404 C   0  0  0  0  0  0
  -24.8826  -27.6338   19.5097 C   0  0  0  0  0  0
  -23.6601  -29.7870   20.1514 C   0  0  0  0  0  0
  -25.4094  -36.3055   24.0294 C   0  0  1  0  0  0
  -20.5819  -28.3675   23.1134 C   0  0  2  0  0  0
  -20.6737  -26.9408   22.5322 C   0  0  0  0  0  0
  -19.5743  -26.6313   21.5112 C   0  0  0  0  0  0
  -18.1911  -26.7818   22.1514 C   0  0  0  0  0  0
  -19.1449  -28.8786   23.2714 C   0  0  0  0  0  0
  -18.9429  -30.1386   23.8755 C   0  0  0  0  0  0
  -17.6458  -30.6530   24.0511 C   0  0  0  0  0  0
  -25.9038  -34.9400   23.5127 C   0  0  0  0  0  0
  -16.5328  -29.9066   23.6247 C   0  0  0  0  0  0
  -16.7197  -28.6467   23.0294 C   0  0  0  0  0  0
  -26.4440  -31.6541   25.0816 C   0  0  0  0  0  0
  -25.3528  -31.3700   26.1435 C   0  0  0  0  0  0
  -27.0464  -30.2983   24.6484 C   0  0  0  0  0  0
  -27.6014  -32.4306   25.7480 C   0  0  0  0  0  0
  -27.5567  -37.1787   24.8431 C   0  0  0  0  0  0
  -21.4192  -29.3032   22.3587 N   0  0  0  0  0  0
  -26.4249  -37.3739   23.9390 N   0  0  0  0  0  0
  -24.6967  -31.0492   22.0929 N   0  0  0  0  0  0
  -23.4215  -28.8070   23.3021 O   0  0  0  0  0  0
  -28.3513  -26.4772   20.2287 O   0  0  0  0  0  0
  -26.5719  -34.8858   22.4769 O   0  0  0  0  0  0
  -23.5365  -32.1300   23.7197 O   0  0  0  0  0  0
  -28.2395  -21.7435   18.9146 C   0  0  0  0  0  0
  -29.2659  -20.9856   20.6987 C   0  0  0  0  0  0
  -28.6775  -22.1594   20.2015 C   0  0  0  0  0  0
  -28.6590  -20.4547   18.6499 C   0  0  0  0  0  0
  -28.3590  -16.6491   18.5092 C   0  0  0  0  0  0
  -29.7709  -16.1518   18.1956 C   0  0  0  0  0  0
  -28.9452  -17.0108   19.8868 C   0  0  2  0  0  0
  -27.0854  -19.5682   16.9079 C   0  0  0  0  0  0
  -28.5546  -23.6144   20.8656 C   0  0  0  0  0  0
  -29.7380  -18.4266   20.1333 C   0  0  0  0  0  0
  -28.4558  -25.0066   19.9949 C   0  0  0  0  0  0
  -28.5556  -19.7952   17.3067 C   0  0  1  0  0  0
  -29.1823  -19.8592   19.8243 N   0  0  0  0  0  0
  -29.7734  -15.7456   19.6196 N   0  0  0  0  0  0
  -29.2274  -20.5763   16.2642 N   0  3  0  0  0  0
  -31.5541  -12.5503   19.2204 H   0  0  0  0  0  0
  -30.4924  -11.4802   20.0686 H   0  0  0  0  0  0
  -29.8820  -11.5567   17.6216 H   0  0  0  0  0  0
  -29.7169  -13.2776   17.6692 H   0  0  0  0  0  0
  -27.9784  -11.2204   19.0216 H   0  0  0  0  0  0
  -27.4426  -12.3795   17.8181 H   0  0  0  0  0  0
  -27.6394  -14.1754   19.4809 H   0  0  0  0  0  0
  -28.7635  -12.1564   21.4140 H   0  0  0  0  0  0
  -28.4833  -13.8474   21.7816 H   0  0  0  0  0  0
  -25.2584   -9.5554   22.4808 H   0  0  0  0  0  0
  -23.9746   -7.4543   22.7552 H   0  0  0  0  0  0
  -21.0600   -8.8590   19.9111 H   0  0  0  0  0  0
  -22.3337  -10.9542   19.6248 H   0  0  0  0  0  0
  -21.1750   -7.6001   23.9617 H   0  0  0  0  0  0
  -21.1522   -6.0487   25.9088 H   0  0  0  0  0  0
  -22.0624   -2.7482   23.3005 H   0  0  0  0  0  0
  -22.3639  -11.9884   22.4921 H   0  0  0  0  0  0
  -21.1078  -13.1645   22.2596 H   0  0  0  0  0  0
  -24.7004  -15.8577   20.4894 H   0  0  0  0  0  0
  -26.3326  -15.5950   20.1640 H   0  0  0  0  0  0
  -26.7302  -32.5367   23.1209 H   0  0  0  0  0  0
  -24.9634  -33.9543   25.0142 H   0  0  0  0  0  0
  -22.7351  -31.2787   21.3752 H   0  0  0  0  0  0
  -23.3663  -35.9767   23.3269 H   0  0  0  0  0  0
  -24.3565  -36.9086   22.2118 H   0  0  0  0  0  0
  -23.7309  -37.6537   23.6762 H   0  0  0  0  0  0
  -26.0946  -31.5156   20.5907 H   0  0  0  0  0  0
  -26.8469  -30.8430   22.0053 H   0  0  0  0  0  0
  -28.1054  -28.9077   21.2784 H   0  0  0  0  0  0
  -25.9976  -25.8331   19.1160 H   0  0  0  0  0  0
  -23.9904  -27.2538   19.0338 H   0  0  0  0  0  0
  -23.7814  -30.5429   19.3754 H   0  0  0  0  0  0
  -22.7883  -29.2011   19.8639 H   0  0  0  0  0  0
  -25.1250  -36.1908   25.0773 H   0  0  0  0  0  0
  -20.9774  -28.3368   24.1271 H   0  0  0  0  0  0
  -20.5584  -26.2381   23.3600 H   0  0  0  0  0  0
  -21.6660  -26.7451   22.1203 H   0  0  0  0  0  0
  -19.7009  -25.6196   21.1205 H   0  0  0  0  0  0
  -19.6662  -27.3022   20.6584 H   0  0  0  0  0  0
  -17.4194  -26.6289   21.3949 H   0  0  0  0  0  0
  -18.0428  -25.9981   22.8920 H   0  0  0  0  0  0
  -19.7960  -30.7064   24.2233 H   0  0  0  0  0  0
  -17.5092  -31.6215   24.5112 H   0  0  0  0  0  0
  -15.5351  -30.2991   23.7700 H   0  0  0  0  0  0
  -15.8533  -28.0825   22.7104 H   0  0  0  0  0  0
  -24.5613  -30.7244   25.7581 H   0  0  0  0  0  0
  -24.8730  -32.2847   26.4912 H   0  0  0  0  0  0
  -25.7543  -30.8663   27.0245 H   0  0  0  0  0  0
  -26.3212  -29.6415   24.1719 H   0  0  0  0  0  0
  -27.4346  -29.7569   25.5118 H   0  0  0  0  0  0
  -27.8891  -30.4225   23.9712 H   0  0  0  0  0  0
  -27.2761  -33.3627   26.2073 H   0  0  0  0  0  0
  -28.3703  -32.6885   25.0175 H   0  0  0  0  0  0
  -28.0909  -31.8511   26.5259 H   0  0  0  0  0  0
  -28.2533  -38.0156   24.7587 H   0  0  0  0  0  0
  -28.1093  -36.2665   24.6098 H   0  0  0  0  0  0
  -27.2281  -37.1344   25.8838 H   0  0  0  0  0  0
  -20.9499  -29.8896   21.6761 H   0  0  0  0  0  0
  -26.0107  -38.2787   24.1431 H   0  0  0  0  0  0
  -27.7197  -22.3579   18.1917 H   0  0  0  0  0  0
  -29.7634  -20.8424   21.6513 H   0  0  0  0  0  0
  -27.6168  -15.8594   18.4973 H   0  0  0  0  0  0
  -27.9276  -17.4074   17.8812 H   0  0  0  0  0  0
  -30.4682  -16.9497   17.9125 H   0  0  0  0  0  0
  -29.8128  -15.3648   17.4514 H   0  0  0  0  0  0
  -28.1706  -16.8225   20.6354 H   0  0  0  0  0  0
  -26.5216  -19.1265   17.7266 H   0  0  0  0  0  0
  -27.0476  -18.8715   16.0776 H   0  0  0  0  0  0
  -26.5599  -20.4893   16.6282 H   0  0  0  0  0  0
  -29.5201  -23.5948   21.3822 H   0  0  0  0  0  0
  -27.8113  -23.6278   21.6688 H   0  0  0  0  0  0
  -30.7412  -18.3631   19.6958 H   0  0  0  0  0  0
  -29.9726  -18.4178   21.2007 H   0  0  0  0  0  0
  -29.0421  -24.8705   19.0713 H   0  0  0  0  0  0
  -29.1836  -25.3801   20.7576 H   0  0  0  0  0  0
  -29.1389  -18.8816   17.3114 H   0  0  0  0  0  0
  -28.5677  -21.2377   15.8906 H   0  0  0  0  0  0
  -29.5371  -19.9750   15.5134 H   0  0  0  0  0  0
  -30.0315  -21.0521   16.6431 H   0  0  0  0  0  0
  1 25  1  0  0  0
  1 30  2  0  0  0
  1 84  1  0  0  0
  2  3  1  0  0  0
  2 25  1  0  0  0
  2 86  1  0  0  0
  2 87  1  0  0  0
  3  4  1  0  0  0
  3 88  1  0  0  0
  3 89  1  0  0  0
  4  5  1  0  0  0
  4 90  1  0  0  0
  4 91  1  0  0  0
  5  6  1  0  0  0
  5 26  1  0  0  0
  5 92  1  0  0  0
  6 25  1  0  0  0
  6 93  1  0  0  0
  6 94  1  0  0  0
  7  8  2  0  0  0
  7 26  1  0  0  0
  7 29  1  0  0  0
  8  9  1  0  0  0
  8 22  1  0  0  0
  9 10  1  0  0  0
  9 27  2  0  0  0
 10 11  2  0  0  0
 10 15  1  0  0  0
 11 12  1  0  0  0
 11 95  1  0  0  0
 12 13  2  0  0  0
 12 96  1  0  0  0
 13 14  1  0  0  0
 13 31  1  0  0  0
 14 15  2  0  0  0
 14 97  1  0  0  0
 15 98  1  0  0  0
 16 17  2  0  0  0
 16 21  1  0  0  0
 16 31  1  0  0  0
 17 18  1  0  0  0
 17 99  1  0  0  0
 18 19  2  0  0  0
 18100  1  0  0  0
 19 20  1  0  0  0
 19 24  1  0  0  0
 20 21  2  0  0  0
 20101  1  0  0  0
 21 23  1  0  0  0
 22 28  1  0  0  0
 22 32  2  0  0  0
 26 27  1  0  0  0
 28102  1  0  0  0
 28103  1  0  0  0
 29104  1  0  0  0
 29105  1  0  0  0
 33 34  1  0  0  0
 33 66  1  0  0  0
 33 70  2  0  0  0
 34 36  1  0  0  0
 34 59  1  0  0  0
 34106  1  0  0  0
 35 44  2  0  0  0
 35 45  1  0  0  0
 35 68  1  0  0  0
 36 56  1  0  0  0
 36107  1  0  0  0
 37 39  1  0  0  0
 37 47  1  0  0  0
 37 66  1  0  0  0
 37108  1  0  0  0
 38 43  2  0  0  0
 38 46  1  0  0  0
 38 47  1  0  0  0
 39 64  1  0  0  0
 39 67  2  0  0  0
 40 52  1  0  0  0
 40 53  2  0  0  0
 40 58  1  0  0  0
 41109  1  0  0  0
 41110  1  0  0  0
 41111  1  0  0  0
 41 48  1  0  0  0
 42 43  1  0  0  0
 42 66  1  0  0  0
 42112  1  0  0  0
 42113  1  0  0  0
 43 44  1  0  0  0
 44114  1  0  0  0
 45 46  2  0  0  0
 45115  1  0  0  0
 46116  1  0  0  0
 47117  1  0  0  0
 47118  1  0  0  0
 48 56  1  0  0  0
 48 65  1  0  0  0
 48119  1  0  0  0
 49 50  1  0  0  0
 49 53  1  0  0  0
 49 64  1  0  0  0
 49120  1  0  0  0
 50 51  1  0  0  0
 50121  1  0  0  0
 50122  1  0  0  0
 51 52  1  0  0  0
 51123  1  0  0  0
 51124  1  0  0  0
 52125  1  0  0  0
 52126  1  0  0  0
 53 54  1  0  0  0
 54 55  2  0  0  0
 54127  1  0  0  0
 55 57  1  0  0  0
 55128  1  0  0  0
 56 69  2  0  0  0
 57 58  2  0  0  0
 57129  1  0  0  0
 58130  1  0  0  0
 59 60  1  0  0  0
 59 61  1  0  0  0
 59 62  1  0  0  0
 60131  1  0  0  0
 60132  1  0  0  0
 60133  1  0  0  0
 61134  1  0  0  0
 61135  1  0  0  0
 61136  1  0  0  0
 62137  1  0  0  0
 62138  1  0  0  0
 62139  1  0  0  0
 63 65  1  0  0  0
 63140  1  0  0  0
 63141  1  0  0  0
 63142  1  0  0  0
 64143  1  0  0  0
 65144  1  0  0  0
 68 81  1  0  0  0
 71 73  1  0  0  0
 71 74  2  0  0  0
 71145  1  0  0  0
 72 73  2  0  0  0
 72 83  1  0  0  0
 72146  1  0  0  0
 73 79  1  0  0  0
 74 82  1  0  0  0
 74 83  1  0  0  0
 75 76  1  0  0  0
 75 77  1  0  0  0
 75147  1  0  0  0
 75148  1  0  0  0
 76 84  1  0  0  0
 76149  1  0  0  0
 76150  1  0  0  0
 77 80  1  0  0  0
 77 84  1  0  0  0
 77151  1  0  0  0
 78152  1  0  0  0
 78153  1  0  0  0
 78154  1  0  0  0
 78 82  1  0  0  0
 79 81  1  0  0  0
 79155  1  0  0  0
 79156  1  0  0  0
 80 83  1  0  0  0
 80157  1  0  0  0
 80158  1  0  0  0
 81159  1  0  0  0
 81160  1  0  0  0
 82 85  1  0  0  0
 82161  1  0  0  0
 85162  1  0  0  0
 85163  1  0  0  0
 85164  1  0  0  0
M  CHG  1  85   1
M  ISO  4   1 100  68 101  81 101  84 100
M  END
> <chiral flag>
0

> <version>
0

> <s_m_source_file>
/data/baiqing/PycharmProjects/Reinvent-master-3.2/result/LINK_invent/BTK/process_docking_weight1_custom_sum_contain_oxygen_bond_distance_aromatic_linkinvent_7_9_3/rearranged_h_0189.sdf

> <i_m_source_file_index>
57

> <r_mmod_Potential_Energy-OPLS-2005>
394.659790039062

> <r_mmod_Stretch_Energy-OPLS-2005>
147.299285888672

> <r_mmod_Bend_Energy-OPLS-2005>
433.048553466797

> <r_mmod_Torsional_Energy-OPLS-2005>
332.664337158203

> <r_mmod_Improper_Torsional_Energy-OPLS-2005>
27.4708003997803

> <r_mmod_Van_der_Waal_Energy-OPLS-2005>
125.461265563965

> <r_mmod_Electrostatic_Energy-OPLS-2005>
-286.763824462891

> <r_mmod_Solvation_Energy-OPLS-2005>
-493.497467041016

> <b_mmod_Minimization_Converged-OPLS-2005>
0

> <r_mmod_RMS_Derivative-OPLS-2005>
13.4251670837402

$$$$
58
                    3D
 Structure written by MMmdl.
171180  0  0  1  0            999 V2000
  -30.7991  -14.2858   20.7325 C   0  0  0  0  0  0
  -30.4137  -12.2685   19.3725 C   0  0  0  0  0  0
  -29.4752  -12.5312   18.1822 C   0  0  0  0  0  0
  -28.0028  -12.3841   18.6060 C   0  0  0  0  0  0
  -27.6699  -13.1963   19.8838 C   0  0  2  0  0  0
  -28.7058  -12.9113   20.9932 C   0  0  0  0  0  0
  -25.2624  -13.8153   20.5674 C   0  0  0  0  0  0
  -24.1853  -13.0447   20.9160 C   0  0  0  0  0  0
  -24.6383  -11.6905   20.8724 C   0  0  0  0  0  0
  -23.9043  -10.4295   21.0403 C   0  0  0  0  0  0
  -24.3595   -9.4215   21.9186 C   0  0  0  0  0  0
  -23.6274   -8.2251   22.0759 C   0  0  0  0  0  0
  -22.4262   -8.0279   21.3540 C   0  0  0  0  0  0
  -21.9896   -9.0247   20.4638 C   0  0  0  0  0  0
  -22.7218  -10.2131   20.3048 C   0  0  0  0  0  0
  -21.6849   -6.0733   22.5275 C   0  0  0  0  0  0
  -21.4013   -6.5637   23.8207 C   0  0  0  0  0  0
  -21.3657   -5.6791   24.9168 C   0  0  0  0  0  0
  -21.6043   -4.3053   24.7221 C   0  0  0  0  0  0
  -21.8820   -3.8142   23.4345 C   0  0  0  0  0  0
  -21.9191   -4.6960   22.3399 C   0  0  0  0  0  0
  -22.7875  -13.5260   21.1824 C   0  0  0  0  0  0
  -22.1665   -4.2148   21.0974 F   0  0  0  0  0  0
  -21.5624   -3.4538   25.7736 F   0  0  0  0  0  0
  -30.0570  -13.1837   20.4631 N   0  0  0  0  0  0
  -26.3059  -12.9304   20.3397 N   0  0  0  0  0  0
  -25.9307  -11.6471   20.5758 N   0  0  0  0  0  0
  -22.0494  -12.8248   22.0358 N   0  0  0  0  0  0
  -25.4378  -15.1868   20.4083 N   0  0  0  0  0  0
  -31.7625  -14.6516   20.0466 O   0  0  0  0  0  0
  -21.6630   -6.8874   21.4236 O   0  0  0  0  0  0
  -22.3580  -14.5583   20.6689 O   0  0  0  0  0  0
  -24.6094  -31.8721   23.2134 C   0  0  0  0  0  0
  -25.9011  -32.4841   23.8411 C   0  0  1  0  0  0
  -27.2387  -27.4868   20.0730 C   0  0  0  0  0  0
  -25.5887  -33.8638   24.2347 N   0  0  0  0  0  0
  -23.3932  -30.4953   21.5543 C   0  0  2  0  0  0
  -24.8359  -28.9639   20.1192 C   0  0  0  0  0  0
  -22.7369  -29.4680   22.5035 C   0  0  0  0  0  0
  -18.0263  -28.1371   22.8501 C   0  0  0  0  0  0
  -24.1481  -36.7315   23.2637 C   0  0  0  0  0  0
  -25.9160  -30.8511   21.3580 C   0  0  0  0  0  0
  -25.9923  -29.4876   20.7088 C   0  0  0  0  0  0
  -27.1929  -28.7534   20.6862 C   0  0  0  0  0  0
  -26.0600  -26.9573   19.4955 C   0  0  0  0  0  0
  -24.8612  -27.6943   19.5160 C   0  0  0  0  0  0
  -23.5965  -29.8253   20.1689 C   0  0  0  0  0  0
  -25.4107  -36.3124   24.0340 C   0  0  1  0  0  0
  -20.5849  -28.3646   23.1340 C   0  0  2  0  0  0
  -20.6756  -26.9392   22.5421 C   0  0  0  0  0  0
  -19.5737  -26.6390   21.5211 C   0  0  0  0  0  0
  -18.1910  -26.7927   22.1616 C   0  0  0  0  0  0
  -19.1511  -28.8826   23.2921 C   0  0  0  0  0  0
  -18.9442  -30.1436   23.8929 C   0  0  0  0  0  0
  -17.6447  -30.6581   24.0574 C   0  0  0  0  0  0
  -25.9036  -34.9489   23.5144 C   0  0  0  0  0  0
  -16.5341  -29.9086   23.6327 C   0  0  0  0  0  0
  -16.7257  -28.6504   23.0348 C   0  0  0  0  0  0
  -26.4457  -31.6603   25.0718 C   0  0  0  0  0  0
  -25.3740  -31.3669   26.1471 C   0  0  0  0  0  0
  -27.0292  -30.3067   24.6042 C   0  0  0  0  0  0
  -27.6033  -32.4314   25.7488 C   0  0  0  0  0  0
  -27.5587  -37.1815   24.8463 C   0  0  0  0  0  0
  -21.4109  -29.3027   22.3763 N   0  0  0  0  0  0
  -26.4291  -37.3809   23.9416 N   0  0  0  0  0  0
  -24.6579  -31.0858   22.1014 N   0  0  0  0  0  0
  -23.4166  -28.8232   23.3063 O   0  0  0  0  0  0
  -28.4529  -26.8462   20.0516 O   0  0  0  0  0  0
  -26.5598  -34.8929   22.4705 O   0  0  0  0  0  0
  -23.5302  -32.1454   23.7564 O   0  0  0  0  0  0
  -31.1038  -16.0206   23.8917 C   0  0  0  0  0  0
  -31.3574  -21.6737   20.3182 C   0  0  0  0  0  0
  -31.1262  -14.6994   23.1147 C   0  0  0  0  0  0
  -31.4243  -23.1190   19.8188 C   0  0  0  0  0  0
  -30.1108  -16.3651   21.7582 C   0  0  0  0  0  0
  -29.4914  -22.9715   21.0610 C   0  0  0  0  0  0
  -30.9989  -17.0620   22.7886 C   0  0  1  0  0  0
  -29.9681  -21.5246   20.9605 C   0  0  2  0  0  0
  -28.7247  -20.9244   23.0260 C   0  0  0  0  0  0
  -30.4799  -18.4439   23.2127 C   0  0  0  0  0  0
  -29.9430  -25.0233   19.8656 C   0  0  0  0  0  0
  -30.3014  -19.3434   21.9734 C   0  0  0  0  0  0
  -28.4945  -25.4900   19.6593 C   0  0  0  0  0  0
  -30.4340  -14.9477   21.8445 N   0  0  0  0  0  0
  -30.0373  -23.5679   19.8451 N   0  0  0  0  0  0
  -29.9803  -20.7667   22.2446 N   0  3  1  0  0  0
  -31.4556  -12.3758   19.0635 H   0  0  0  0  0  0
  -30.3131  -11.2373   19.7156 H   0  0  0  0  0  0
  -29.6991  -11.8410   17.3676 H   0  0  0  0  0  0
  -29.6467  -13.5348   17.7897 H   0  0  0  0  0  0
  -27.8092  -11.3249   18.7796 H   0  0  0  0  0  0
  -27.3446  -12.6829   17.7897 H   0  0  0  0  0  0
  -27.7383  -14.2533   19.6262 H   0  0  0  0  0  0
  -28.6517  -11.8657   21.3004 H   0  0  0  0  0  0
  -28.4564  -13.4851   21.8865 H   0  0  0  0  0  0
  -25.2735   -9.5699   22.4764 H   0  0  0  0  0  0
  -23.9977   -7.4654   22.7492 H   0  0  0  0  0  0
  -21.0829   -8.8756   19.8943 H   0  0  0  0  0  0
  -22.3672  -10.9665   19.6153 H   0  0  0  0  0  0
  -21.2008   -7.6144   23.9710 H   0  0  0  0  0  0
  -21.1476   -6.0518   25.9069 H   0  0  0  0  0  0
  -22.0601   -2.7605   23.2841 H   0  0  0  0  0  0
  -22.4082  -11.9889   22.4731 H   0  0  0  0  0  0
  -21.1109  -13.1282   22.2539 H   0  0  0  0  0  0
  -24.6767  -15.8478   20.5192 H   0  0  0  0  0  0
  -26.2995  -15.6218   20.1035 H   0  0  0  0  0  0
  -26.7082  -32.5569   23.1184 H   0  0  0  0  0  0
  -25.0046  -33.9813   25.0498 H   0  0  0  0  0  0
  -22.6801  -31.3106   21.4167 H   0  0  0  0  0  0
  -23.3762  -35.9624   23.3271 H   0  0  0  0  0  0
  -24.3584  -36.8962   22.2058 H   0  0  0  0  0  0
  -23.7194  -37.6493   23.6670 H   0  0  0  0  0  0
  -26.0178  -31.6173   20.5880 H   0  0  0  0  0  0
  -26.8087  -30.9082   21.9692 H   0  0  0  0  0  0
  -28.0908  -29.1612   21.1301 H   0  0  0  0  0  0
  -26.0476  -25.9909   19.0130 H   0  0  0  0  0  0
  -23.9694  -27.2837   19.0622 H   0  0  0  0  0  0
  -23.6987  -30.5983   19.4063 H   0  0  0  0  0  0
  -22.7221  -29.2403   19.8784 H   0  0  0  0  0  0
  -25.1282  -36.1998   25.0834 H   0  0  0  0  0  0
  -20.9939  -28.3196   24.1461 H   0  0  0  0  0  0
  -20.5660  -26.2250   23.3594 H   0  0  0  0  0  0
  -21.6626  -26.7440   22.1212 H   0  0  0  0  0  0
  -19.6897  -25.6310   21.1219 H   0  0  0  0  0  0
  -19.6684  -27.3224   20.6763 H   0  0  0  0  0  0
  -17.4189  -26.6697   21.4008 H   0  0  0  0  0  0
  -18.0298  -26.0052   22.8991 H   0  0  0  0  0  0
  -19.7917  -30.7248   24.2308 H   0  0  0  0  0  0
  -17.5000  -31.6261   24.5173 H   0  0  0  0  0  0
  -15.5343  -30.3002   23.7630 H   0  0  0  0  0  0
  -15.8654  -28.0838   22.7045 H   0  0  0  0  0  0
  -24.5908  -30.7030   25.7793 H   0  0  0  0  0  0
  -24.8938  -32.2808   26.4976 H   0  0  0  0  0  0
  -25.8109  -30.8787   27.0191 H   0  0  0  0  0  0
  -26.2820  -29.6827   24.1123 H   0  0  0  0  0  0
  -27.4129  -29.7295   25.4465 H   0  0  0  0  0  0
  -27.8618  -30.4424   23.9135 H   0  0  0  0  0  0
  -27.2663  -33.3624   26.2060 H   0  0  0  0  0  0
  -28.3855  -32.6853   25.0322 H   0  0  0  0  0  0
  -28.0676  -31.8431   26.5412 H   0  0  0  0  0  0
  -28.2579  -38.0139   24.7557 H   0  0  0  0  0  0
  -28.1111  -36.2673   24.6237 H   0  0  0  0  0  0
  -27.2305  -37.1406   25.8863 H   0  0  0  0  0  0
  -20.9262  -29.8752   21.6998 H   0  0  0  0  0  0
  -26.0182  -38.2880   24.1446 H   0  0  0  0  0  0
  -31.9838  -16.1551   24.5218 H   0  0  0  0  0  0
  -30.2227  -16.0572   24.5346 H   0  0  0  0  0  0
  -32.1722  -21.4948   21.0213 H   0  0  0  0  0  0
  -31.4760  -20.9672   19.4954 H   0  0  0  0  0  0
  -30.6421  -13.8969   23.6727 H   0  0  0  0  0  0
  -32.1591  -14.3941   22.9302 H   0  0  0  0  0  0
  -31.8623  -23.1991   18.8221 H   0  0  0  0  0  0
  -32.0347  -23.7144   20.5017 H   0  0  0  0  0  0
  -30.2577  -16.7728   20.7547 H   0  0  0  0  0  0
  -29.0541  -16.4811   22.0054 H   0  0  0  0  0  0
  -29.9061  -23.4590   21.9462 H   0  0  0  0  0  0
  -28.4035  -23.0307   21.1096 H   0  0  0  0  0  0
  -31.9932  -17.1817   22.3513 H   0  0  0  0  0  0
  -29.3059  -21.0170   20.2550 H   0  0  0  0  0  0
  -28.5220  -21.9668   23.2691 H   0  0  0  0  0  0
  -28.7783  -20.4081   23.9832 H   0  0  0  0  0  0
  -27.8671  -20.5322   22.4776 H   0  0  0  0  0  0
  -31.1817  -18.8967   23.9144 H   0  0  0  0  0  0
  -29.5340  -18.3236   23.7409 H   0  0  0  0  0  0
  -30.3358  -25.4090   20.8088 H   0  0  0  0  0  0
  -30.5638  -25.4492   19.0751 H   0  0  0  0  0  0
  -29.5140  -18.9383   21.3361 H   0  0  0  0  0  0
  -31.2211  -19.2891   21.3902 H   0  0  0  0  0  0
  -27.7916  -24.9274   20.2741 H   0  0  0  0  0  0
  -28.2069  -25.3690   18.6140 H   0  0  0  0  0  0
  -30.7224  -21.1495   22.8117 H   0  0  0  0  0  0
  1 25  1  0  0  0
  1 30  2  0  0  0
  1 84  1  0  0  0
  2  3  1  0  0  0
  2 25  1  0  0  0
  2 87  1  0  0  0
  2 88  1  0  0  0
  3  4  1  0  0  0
  3 89  1  0  0  0
  3 90  1  0  0  0
  4  5  1  0  0  0
  4 91  1  0  0  0
  4 92  1  0  0  0
  5  6  1  0  0  0
  5 26  1  0  0  0
  5 93  1  0  0  0
  6 25  1  0  0  0
  6 94  1  0  0  0
  6 95  1  0  0  0
  7  8  2  0  0  0
  7 26  1  0  0  0
  7 29  1  0  0  0
  8  9  1  0  0  0
  8 22  1  0  0  0
  9 10  1  0  0  0
  9 27  2  0  0  0
 10 11  2  0  0  0
 10 15  1  0  0  0
 11 12  1  0  0  0
 11 96  1  0  0  0
 12 13  2  0  0  0
 12 97  1  0  0  0
 13 14  1  0  0  0
 13 31  1  0  0  0
 14 15  2  0  0  0
 14 98  1  0  0  0
 15 99  1  0  0  0
 16 17  2  0  0  0
 16 21  1  0  0  0
 16 31  1  0  0  0
 17 18  1  0  0  0
 17100  1  0  0  0
 18 19  2  0  0  0
 18101  1  0  0  0
 19 20  1  0  0  0
 19 24  1  0  0  0
 20 21  2  0  0  0
 20102  1  0  0  0
 21 23  1  0  0  0
 22 28  1  0  0  0
 22 32  2  0  0  0
 26 27  1  0  0  0
 28103  1  0  0  0
 28104  1  0  0  0
 29105  1  0  0  0
 29106  1  0  0  0
 33 34  1  0  0  0
 33 66  1  0  0  0
 33 70  2  0  0  0
 34 36  1  0  0  0
 34 59  1  0  0  0
 34107  1  0  0  0
 35 44  2  0  0  0
 35 45  1  0  0  0
 35 68  1  0  0  0
 36 56  1  0  0  0
 36108  1  0  0  0
 37 39  1  0  0  0
 37 47  1  0  0  0
 37 66  1  0  0  0
 37109  1  0  0  0
 38 43  2  0  0  0
 38 46  1  0  0  0
 38 47  1  0  0  0
 39 64  1  0  0  0
 39 67  2  0  0  0
 40 52  1  0  0  0
 40 53  2  0  0  0
 40 58  1  0  0  0
 41110  1  0  0  0
 41111  1  0  0  0
 41112  1  0  0  0
 41 48  1  0  0  0
 42 43  1  0  0  0
 42 66  1  0  0  0
 42113  1  0  0  0
 42114  1  0  0  0
 43 44  1  0  0  0
 44115  1  0  0  0
 45 46  2  0  0  0
 45116  1  0  0  0
 46117  1  0  0  0
 47118  1  0  0  0
 47119  1  0  0  0
 48 56  1  0  0  0
 48 65  1  0  0  0
 48120  1  0  0  0
 49 50  1  0  0  0
 49 53  1  0  0  0
 49 64  1  0  0  0
 49121  1  0  0  0
 50 51  1  0  0  0
 50122  1  0  0  0
 50123  1  0  0  0
 51 52  1  0  0  0
 51124  1  0  0  0
 51125  1  0  0  0
 52126  1  0  0  0
 52127  1  0  0  0
 53 54  1  0  0  0
 54 55  2  0  0  0
 54128  1  0  0  0
 55 57  1  0  0  0
 55129  1  0  0  0
 56 69  2  0  0  0
 57 58  2  0  0  0
 57130  1  0  0  0
 58131  1  0  0  0
 59 60  1  0  0  0
 59 61  1  0  0  0
 59 62  1  0  0  0
 60132  1  0  0  0
 60133  1  0  0  0
 60134  1  0  0  0
 61135  1  0  0  0
 61136  1  0  0  0
 61137  1  0  0  0
 62138  1  0  0  0
 62139  1  0  0  0
 62140  1  0  0  0
 63 65  1  0  0  0
 63141  1  0  0  0
 63142  1  0  0  0
 63143  1  0  0  0
 64144  1  0  0  0
 65145  1  0  0  0
 68 83  1  0  0  0
 71 73  1  0  0  0
 71 77  1  0  0  0
 71146  1  0  0  0
 71147  1  0  0  0
 72 74  1  0  0  0
 72148  1  0  0  0
 72149  1  0  0  0
 72 78  1  0  0  0
 73 84  1  0  0  0
 73150  1  0  0  0
 73151  1  0  0  0
 74 85  1  0  0  0
 74152  1  0  0  0
 74153  1  0  0  0
 75 77  1  0  0  0
 75 84  1  0  0  0
 75154  1  0  0  0
 75155  1  0  0  0
 76 78  1  0  0  0
 76 85  1  0  0  0
 76156  1  0  0  0
 76157  1  0  0  0
 77 80  1  0  0  0
 77158  1  0  0  0
 78 86  1  0  0  0
 78159  1  0  0  0
 79160  1  0  0  0
 79161  1  0  0  0
 79162  1  0  0  0
 79 86  1  0  0  0
 80 82  1  0  0  0
 80163  1  0  0  0
 80164  1  0  0  0
 81 83  1  0  0  0
 81 85  1  0  0  0
 81165  1  0  0  0
 81166  1  0  0  0
 82 86  1  0  0  0
 82167  1  0  0  0
 82168  1  0  0  0
 83169  1  0  0  0
 83170  1  0  0  0
 86171  1  0  0  0
M  CHG  1  86   1
M  ISO  4   1 100  68 101  83 101  84 100
M  END
> <chiral flag>
0

> <version>
0

> <s_m_source_file>
/data/baiqing/PycharmProjects/Reinvent-master-3.2/result/LINK_invent/BTK/process_docking_weight1_custom_sum_contain_oxygen_bond_distance_aromatic_linkinvent_7_9_3/rearranged_h_0189.sdf

> <i_m_source_file_index>
58

> <r_mmod_Potential_Energy-OPLS-2005>
183.951919555664

> <r_mmod_Stretch_Energy-OPLS-2005>
31.1131191253662

> <r_mmod_Bend_Energy-OPLS-2005>
142.811065673828

> <r_mmod_Torsional_Energy-OPLS-2005>
393.342803955078

> <r_mmod_Improper_Torsional_Energy-OPLS-2005>
5.30524778366089

> <r_mmod_Van_der_Waal_Energy-OPLS-2005>
148.588027954102

> <r_mmod_Electrostatic_Energy-OPLS-2005>
-117.65258026123

> <r_mmod_Solvation_Energy-OPLS-2005>
-428.610687255859

> <b_mmod_Minimization_Converged-OPLS-2005>
0

> <r_mmod_RMS_Derivative-OPLS-2005>
0.783207714557648

$$$$
59
                    3D
 Structure written by MMmdl.
158167  0  0  1  0            999 V2000
  -30.5655  -15.0433   20.4142 C   0  0  0  0  0  0
  -30.4194  -12.6659   19.4996 C   0  0  0  0  0  0
  -29.5111  -12.5327   18.2584 C   0  0  0  0  0  0
  -28.0525  -12.3031   18.6884 C   0  0  0  0  0  0
  -27.6127  -13.2640   19.8241 C   0  0  2  0  0  0
  -28.6544  -13.3779   20.9557 C   0  0  0  0  0  0
  -25.2390  -13.8240   20.5743 C   0  0  0  0  0  0
  -24.1734  -13.0440   20.9259 C   0  0  0  0  0  0
  -24.6378  -11.6934   20.8775 C   0  0  0  0  0  0
  -23.9079  -10.4294   21.0416 C   0  0  0  0  0  0
  -24.3628   -9.4204   21.9188 C   0  0  0  0  0  0
  -23.6300   -8.2240   22.0754 C   0  0  0  0  0  0
  -22.4281   -8.0281   21.3544 C   0  0  0  0  0  0
  -21.9922   -9.0254   20.4646 C   0  0  0  0  0  0
  -22.7254  -10.2133   20.3059 C   0  0  0  0  0  0
  -21.6855   -6.0736   22.5277 C   0  0  0  0  0  0
  -21.4015   -6.5640   23.8210 C   0  0  0  0  0  0
  -21.3657   -5.6793   24.9173 C   0  0  0  0  0  0
  -21.6043   -4.3055   24.7225 C   0  0  0  0  0  0
  -21.8819   -3.8147   23.4346 C   0  0  0  0  0  0
  -21.9194   -4.6963   22.3401 C   0  0  0  0  0  0
  -22.7754  -13.5197   21.1901 C   0  0  0  0  0  0
  -22.1662   -4.2148   21.0978 F   0  0  0  0  0  0
  -21.5627   -3.4538   25.7738 F   0  0  0  0  0  0
  -29.9045  -13.8095   20.3212 N   0  0  0  0  0  0
  -26.2811  -12.9503   20.3238 N   0  0  0  0  0  0
  -25.9312  -11.6618   20.5754 N   0  0  0  0  0  0
  -22.0411  -12.8177   22.0455 N   0  0  0  0  0  0
  -25.4036  -15.1965   20.4159 N   0  0  0  0  0  0
  -31.7850  -14.9844   20.2170 O   0  0  0  0  0  0
  -21.6643   -6.8879   21.4239 O   0  0  0  0  0  0
  -22.3435  -14.5497   20.6741 O   0  0  0  0  0  0
  -24.6478  -31.8374   23.1810 C   0  0  0  0  0  0
  -25.9226  -32.4657   23.8224 C   0  0  1  0  0  0
  -27.2127  -27.0609   20.1781 C   0  0  0  0  0  0
  -25.5950  -33.8467   24.2140 N   0  0  0  0  0  0
  -23.4540  -30.4525   21.5275 C   0  0  2  0  0  0
  -24.9014  -28.8549   20.1165 C   0  0  0  0  0  0
  -22.7583  -29.4515   22.4839 C   0  0  0  0  0  0
  -18.0305  -28.1401   22.8472 C   0  0  0  0  0  0
  -24.1490  -36.7241   23.2646 C   0  0  0  0  0  0
  -26.0117  -30.6863   21.3896 C   0  0  0  0  0  0
  -26.0771  -29.2858   20.7424 C   0  0  0  0  0  0
  -27.2283  -28.4054   20.7529 C   0  0  0  0  0  0
  -26.0127  -26.7435   19.5071 C   0  0  0  0  0  0
  -24.8847  -27.5996   19.4842 C   0  0  0  0  0  0
  -23.6842  -29.7706   20.1509 C   0  0  0  0  0  0
  -25.4126  -36.3011   24.0310 C   0  0  1  0  0  0
  -20.5919  -28.3731   23.1227 C   0  0  2  0  0  0
  -20.6787  -26.9429   22.5406 C   0  0  0  0  0  0
  -19.5762  -26.6382   21.5215 C   0  0  0  0  0  0
  -18.1943  -26.7937   22.1621 C   0  0  0  0  0  0
  -19.1563  -28.8884   23.2839 C   0  0  0  0  0  0
  -18.9479  -30.1478   23.8868 C   0  0  0  0  0  0
  -17.6477  -30.6595   24.0560 C   0  0  0  0  0  0
  -25.9080  -34.9389   23.5040 C   0  0  0  0  0  0
  -16.5366  -29.9087   23.6340 C   0  0  0  0  0  0
  -16.7289  -28.6507   23.0357 C   0  0  0  0  0  0
  -26.4531  -31.6556   25.0696 C   0  0  0  0  0  0
  -25.3696  -31.3764   26.1378 C   0  0  0  0  0  0
  -27.0417  -30.2947   24.6325 C   0  0  0  0  0  0
  -27.6045  -32.4344   25.7486 C   0  0  0  0  0  0
  -27.5571  -37.1778   24.8465 C   0  0  0  0  0  0
  -21.4270  -29.3044   22.3590 N   0  0  0  0  0  0
  -26.4281  -37.3735   23.9409 N   0  0  0  0  0  0
  -24.7248  -31.0166   22.0874 N   0  0  0  0  0  0
  -23.4200  -28.8077   23.3023 O   0  0  0  0  0  0
  -28.3206  -26.1184   20.1771 O   0  0  0  0  0  0
  -26.5683  -34.8901   22.4630 O   0  0  0  0  0  0
  -23.5586  -32.1282   23.6996 O   0  0  0  0  0  0
  -27.5012  -22.4484   20.6539 C   0  0  0  0  0  0
  -29.7270  -22.6610   20.1514 C   0  0  0  0  0  0
  -28.7332  -21.6949   20.5262 C   0  0  0  0  0  0
  -28.3505  -24.6557   20.2177 C   0  0  0  0  0  0
  -28.7597  -17.1423   20.8643 C   0  0  0  0  0  0
  -30.6351  -17.7226   20.2650 C   0  0  0  0  0  0
  -29.2769  -18.5749   20.2926 C   0  0  0  0  0  0
  -30.2784  -21.1366   24.5538 C   0  0  0  0  0  0
  -29.9163  -20.1591   22.3036 C   0  0  0  0  0  0
  -28.9902  -20.0992   21.0629 C   0  0  1  0  0  0
  -27.3196  -23.8366   20.5284 N   0  0  0  0  0  0
  -29.5438  -24.0401   20.0268 N   0  0  0  0  0  0
  -29.9565  -16.3634   20.3594 N   0  0  0  0  0  0
  -29.4082  -21.0559   23.3641 N   0  3  0  0  0  0
  -31.4503  -12.8158   19.1759 H   0  0  0  0  0  0
  -30.4255  -11.7418   20.0798 H   0  0  0  0  0  0
  -29.8497  -11.7125   17.6240 H   0  0  0  0  0  0
  -29.5793  -13.4390   17.6546 H   0  0  0  0  0  0
  -27.9731  -11.2706   19.0309 H   0  0  0  0  0  0
  -27.3832  -12.3921   17.8319 H   0  0  0  0  0  0
  -27.5493  -14.2475   19.3565 H   0  0  0  0  0  0
  -28.7758  -12.4329   21.4874 H   0  0  0  0  0  0
  -28.3368  -14.1177   21.6925 H   0  0  0  0  0  0
  -25.2769   -9.5681   22.4769 H   0  0  0  0  0  0
  -24.0005   -7.4631   22.7474 H   0  0  0  0  0  0
  -21.0854   -8.8777   19.8949 H   0  0  0  0  0  0
  -22.3711  -10.9674   19.6171 H   0  0  0  0  0  0
  -21.2007   -7.6149   23.9713 H   0  0  0  0  0  0
  -21.1477   -6.0523   25.9075 H   0  0  0  0  0  0
  -22.0600   -2.7609   23.2847 H   0  0  0  0  0  0
  -22.4046  -11.9847   22.4843 H   0  0  0  0  0  0
  -21.1018  -13.1177   22.2653 H   0  0  0  0  0  0
  -24.6345  -15.8483   20.5257 H   0  0  0  0  0  0
  -26.2473  -15.6311   20.0671 H   0  0  0  0  0  0
  -26.7283  -32.5241   23.0939 H   0  0  0  0  0  0
  -25.0063  -33.9572   25.0265 H   0  0  0  0  0  0
  -22.7601  -31.2797   21.3650 H   0  0  0  0  0  0
  -23.3760  -35.9565   23.3289 H   0  0  0  0  0  0
  -24.3568  -36.8900   22.2064 H   0  0  0  0  0  0
  -23.7238  -37.6425   23.6703 H   0  0  0  0  0  0
  -26.1734  -31.4307   20.6090 H   0  0  0  0  0  0
  -26.8805  -30.7429   22.0337 H   0  0  0  0  0  0
  -28.1305  -28.7392   21.2456 H   0  0  0  0  0  0
  -25.9292  -25.7865   19.0119 H   0  0  0  0  0  0
  -23.9880  -27.2678   18.9790 H   0  0  0  0  0  0
  -23.8309  -30.5395   19.3916 H   0  0  0  0  0  0
  -22.7962  -29.2181   19.8384 H   0  0  0  0  0  0
  -25.1318  -36.1826   25.0801 H   0  0  0  0  0  0
  -21.0006  -28.3326   24.1351 H   0  0  0  0  0  0
  -20.5681  -26.2346   23.3631 H   0  0  0  0  0  0
  -21.6653  -26.7432   22.1205 H   0  0  0  0  0  0
  -19.6927  -25.6286   21.1262 H   0  0  0  0  0  0
  -19.6703  -27.3176   20.6732 H   0  0  0  0  0  0
  -17.4214  -26.6685   21.4020 H   0  0  0  0  0  0
  -18.0335  -26.0087   22.9023 H   0  0  0  0  0  0
  -19.7957  -30.7300   24.2225 H   0  0  0  0  0  0
  -17.5030  -31.6272   24.5168 H   0  0  0  0  0  0
  -15.5366  -30.2981   23.7681 H   0  0  0  0  0  0
  -15.8687  -28.0816   22.7090 H   0  0  0  0  0  0
  -24.5882  -30.7108   25.7690 H   0  0  0  0  0  0
  -24.8879  -32.2954   26.4728 H   0  0  0  0  0  0
  -25.7957  -30.8980   27.0205 H   0  0  0  0  0  0
  -26.3054  -29.6642   24.1327 H   0  0  0  0  0  0
  -27.4007  -29.7277   25.4926 H   0  0  0  0  0  0
  -27.8965  -30.4176   23.9672 H   0  0  0  0  0  0
  -27.2627  -33.3674   26.1979 H   0  0  0  0  0  0
  -28.3895  -32.6861   25.0343 H   0  0  0  0  0  0
  -28.0666  -31.8528   26.5474 H   0  0  0  0  0  0
  -28.2577  -38.0085   24.7514 H   0  0  0  0  0  0
  -28.1079  -36.2614   24.6288 H   0  0  0  0  0  0
  -27.2288  -37.1415   25.8867 H   0  0  0  0  0  0
  -20.9492  -29.8742   21.6747 H   0  0  0  0  0  0
  -26.0140  -38.2798   24.1416 H   0  0  0  0  0  0
  -26.6145  -21.9228   20.9766 H   0  0  0  0  0  0
  -30.7512  -22.3355   20.0433 H   0  0  0  0  0  0
  -27.8134  -16.8337   20.4210 H   0  0  0  0  0  0
  -28.6741  -17.1253   21.9523 H   0  0  0  0  0  0
  -31.2897  -17.9212   21.1151 H   0  0  0  0  0  0
  -31.1991  -17.8670   19.3424 H   0  0  0  0  0  0
  -28.9050  -18.6338   19.2686 H   0  0  0  0  0  0
  -29.8433  -21.8056   25.2967 H   0  0  0  0  0  0
  -31.2652  -21.5210   24.2941 H   0  0  0  0  0  0
  -30.4022  -20.1573   25.0171 H   0  0  0  0  0  0
  -30.9167  -20.4740   22.0035 H   0  0  0  0  0  0
  -30.0240  -19.1638   22.7365 H   0  0  0  0  0  0
  -28.0000  -19.9184   21.4842 H   0  0  0  0  0  0
  -29.2981  -21.9831   22.9911 H   0  0  0  0  0  0
  -28.5017  -20.7324   23.6620 H   0  0  0  0  0  0
  1 25  1  0  0  0
  1 30  2  0  0  0
  1 83  1  0  0  0
  2  3  1  0  0  0
  2 25  1  0  0  0
  2 85  1  0  0  0
  2 86  1  0  0  0
  3  4  1  0  0  0
  3 87  1  0  0  0
  3 88  1  0  0  0
  4  5  1  0  0  0
  4 89  1  0  0  0
  4 90  1  0  0  0
  5  6  1  0  0  0
  5 26  1  0  0  0
  5 91  1  0  0  0
  6 25  1  0  0  0
  6 92  1  0  0  0
  6 93  1  0  0  0
  7  8  2  0  0  0
  7 26  1  0  0  0
  7 29  1  0  0  0
  8  9  1  0  0  0
  8 22  1  0  0  0
  9 10  1  0  0  0
  9 27  2  0  0  0
 10 11  2  0  0  0
 10 15  1  0  0  0
 11 12  1  0  0  0
 11 94  1  0  0  0
 12 13  2  0  0  0
 12 95  1  0  0  0
 13 14  1  0  0  0
 13 31  1  0  0  0
 14 15  2  0  0  0
 14 96  1  0  0  0
 15 97  1  0  0  0
 16 17  2  0  0  0
 16 21  1  0  0  0
 16 31  1  0  0  0
 17 18  1  0  0  0
 17 98  1  0  0  0
 18 19  2  0  0  0
 18 99  1  0  0  0
 19 20  1  0  0  0
 19 24  1  0  0  0
 20 21  2  0  0  0
 20100  1  0  0  0
 21 23  1  0  0  0
 22 28  1  0  0  0
 22 32  2  0  0  0
 26 27  1  0  0  0
 28101  1  0  0  0
 28102  1  0  0  0
 29103  1  0  0  0
 29104  1  0  0  0
 33 34  1  0  0  0
 33 66  1  0  0  0
 33 70  2  0  0  0
 34 36  1  0  0  0
 34 59  1  0  0  0
 34105  1  0  0  0
 35 44  2  0  0  0
 35 45  1  0  0  0
 35 68  1  0  0  0
 36 56  1  0  0  0
 36106  1  0  0  0
 37 39  1  0  0  0
 37 47  1  0  0  0
 37 66  1  0  0  0
 37107  1  0  0  0
 38 43  2  0  0  0
 38 46  1  0  0  0
 38 47  1  0  0  0
 39 64  1  0  0  0
 39 67  2  0  0  0
 40 52  1  0  0  0
 40 53  2  0  0  0
 40 58  1  0  0  0
 41108  1  0  0  0
 41109  1  0  0  0
 41110  1  0  0  0
 41 48  1  0  0  0
 42 43  1  0  0  0
 42 66  1  0  0  0
 42111  1  0  0  0
 42112  1  0  0  0
 43 44  1  0  0  0
 44113  1  0  0  0
 45 46  2  0  0  0
 45114  1  0  0  0
 46115  1  0  0  0
 47116  1  0  0  0
 47117  1  0  0  0
 48 56  1  0  0  0
 48 65  1  0  0  0
 48118  1  0  0  0
 49 50  1  0  0  0
 49 53  1  0  0  0
 49 64  1  0  0  0
 49119  1  0  0  0
 50 51  1  0  0  0
 50120  1  0  0  0
 50121  1  0  0  0
 51 52  1  0  0  0
 51122  1  0  0  0
 51123  1  0  0  0
 52124  1  0  0  0
 52125  1  0  0  0
 53 54  1  0  0  0
 54 55  2  0  0  0
 54126  1  0  0  0
 55 57  1  0  0  0
 55127  1  0  0  0
 56 69  2  0  0  0
 57 58  2  0  0  0
 57128  1  0  0  0
 58129  1  0  0  0
 59 60  1  0  0  0
 59 61  1  0  0  0
 59 62  1  0  0  0
 60130  1  0  0  0
 60131  1  0  0  0
 60132  1  0  0  0
 61133  1  0  0  0
 61134  1  0  0  0
 61135  1  0  0  0
 62136  1  0  0  0
 62137  1  0  0  0
 62138  1  0  0  0
 63 65  1  0  0  0
 63139  1  0  0  0
 63140  1  0  0  0
 63141  1  0  0  0
 64142  1  0  0  0
 65143  1  0  0  0
 68 74  1  0  0  0
 71 73  2  0  0  0
 71 81  1  0  0  0
 71144  1  0  0  0
 72 73  1  0  0  0
 72 82  2  0  0  0
 72145  1  0  0  0
 73 80  1  0  0  0
 74 81  2  0  0  0
 74 82  1  0  0  0
 75 83  1  0  0  0
 75146  1  0  0  0
 75147  1  0  0  0
 75 77  1  0  0  0
 76 77  1  0  0  0
 76 83  1  0  0  0
 76148  1  0  0  0
 76149  1  0  0  0
 77 80  1  0  0  0
 77150  1  0  0  0
 78 84  1  0  0  0
 78151  1  0  0  0
 78152  1  0  0  0
 78153  1  0  0  0
 79 84  1  0  0  0
 79154  1  0  0  0
 79155  1  0  0  0
 79 80  1  0  0  0
 80156  1  0  0  0
 84157  1  0  0  0
 84158  1  0  0  0
M  CHG  1  84   1
M  ISO  4   1 100  68 101  74 101  83 100
M  END
> <chiral flag>
0

> <version>
0

> <s_m_source_file>
/data/baiqing/PycharmProjects/Reinvent-master-3.2/result/LINK_invent/BTK/process_docking_weight1_custom_sum_contain_oxygen_bond_distance_aromatic_linkinvent_7_9_3/rearranged_h_0189.sdf

> <i_m_source_file_index>
59

> <r_mmod_Potential_Energy-OPLS-2005>
227.96467590332

> <r_mmod_Stretch_Energy-OPLS-2005>
290.593872070312

> <r_mmod_Bend_Energy-OPLS-2005>
383.480865478516

> <r_mmod_Torsional_Energy-OPLS-2005>
285.218292236328

> <r_mmod_Improper_Torsional_Energy-OPLS-2005>
15.0165166854858

> <r_mmod_Van_der_Waal_Energy-OPLS-2005>
127.405624389648

> <r_mmod_Electrostatic_Energy-OPLS-2005>
-622.007568359375

> <r_mmod_Solvation_Energy-OPLS-2005>
-505.113189697266

> <b_mmod_Minimization_Converged-OPLS-2005>
0

> <r_mmod_RMS_Derivative-OPLS-2005>
0.403075069189072

$$$$
60
                    3D
 Structure written by MMmdl.
147155  0  0  1  0            999 V2000
  -30.4341  -15.2520   20.3763 C   0  0  0  0  0  0
  -30.4410  -12.8040   19.5096 C   0  0  0  0  0  0
  -29.5324  -12.5705   18.2768 C   0  0  0  0  0  0
  -28.0805  -12.2968   18.7086 C   0  0  0  0  0  0
  -27.6105  -13.2705   19.8181 C   0  0  2  0  0  0
  -28.6481  -13.4384   20.9469 C   0  0  0  0  0  0
  -25.2394  -13.8234   20.5744 C   0  0  0  0  0  0
  -24.1743  -13.0429   20.9261 C   0  0  0  0  0  0
  -24.6393  -11.6926   20.8759 C   0  0  0  0  0  0
  -23.9085  -10.4288   21.0404 C   0  0  0  0  0  0
  -24.3631   -9.4202   21.9182 C   0  0  0  0  0  0
  -23.6301   -8.2239   22.0752 C   0  0  0  0  0  0
  -22.4283   -8.0279   21.3542 C   0  0  0  0  0  0
  -21.9922   -9.0252   20.4643 C   0  0  0  0  0  0
  -22.7255  -10.2129   20.3053 C   0  0  0  0  0  0
  -21.6856   -6.0733   22.5277 C   0  0  0  0  0  0
  -21.4016   -6.5638   23.8210 C   0  0  0  0  0  0
  -21.3660   -5.6791   24.9173 C   0  0  0  0  0  0
  -21.6044   -4.3054   24.7223 C   0  0  0  0  0  0
  -21.8819   -3.8144   23.4345 C   0  0  0  0  0  0
  -21.9194   -4.6960   22.3401 C   0  0  0  0  0  0
  -22.7762  -13.5186   21.1909 C   0  0  0  0  0  0
  -22.1662   -4.2146   21.0979 F   0  0  0  0  0  0
  -21.5629   -3.4537   25.7736 F   0  0  0  0  0  0
  -29.8744  -13.9467   20.3116 N   0  0  0  0  0  0
  -26.2813  -12.9500   20.3202 N   0  0  0  0  0  0
  -25.9327  -11.6610   20.5712 N   0  0  0  0  0  0
  -22.0416  -12.8169   22.0460 N   0  0  0  0  0  0
  -25.4017  -15.1971   20.4179 N   0  0  0  0  0  0
  -31.6634  -15.2607   20.2210 O   0  0  0  0  0  0
  -21.6644   -6.8878   21.4241 O   0  0  0  0  0  0
  -22.3443  -14.5486   20.6745 O   0  0  0  0  0  0
  -24.6619  -31.8247   23.1701 C   0  0  0  0  0  0
  -25.9304  -32.4594   23.8165 C   0  0  1  0  0  0
  -27.2203  -26.9394   20.1921 C   0  0  0  0  0  0
  -25.5973  -33.8406   24.2074 N   0  0  0  0  0  0
  -23.4755  -30.4355   21.5200 C   0  0  2  0  0  0
  -24.9274  -28.8179   20.1193 C   0  0  0  0  0  0
  -22.7658  -29.4449   22.4796 C   0  0  0  0  0  0
  -18.0321  -28.1408   22.8469 C   0  0  0  0  0  0
  -24.1494  -36.7211   23.2648 C   0  0  0  0  0  0
  -26.0433  -30.6367   21.3955 C   0  0  0  0  0  0
  -26.1122  -29.2251   20.7453 C   0  0  0  0  0  0
  -27.2565  -28.3095   20.7492 C   0  0  0  0  0  0
  -26.0029  -26.6730   19.5294 C   0  0  0  0  0  0
  -24.8965  -27.5616   19.4910 C   0  0  0  0  0  0
  -23.7144  -29.7470   20.1481 C   0  0  0  0  0  0
  -25.4134  -36.2971   24.0301 C   0  0  1  0  0  0
  -20.5943  -28.3751   23.1197 C   0  0  2  0  0  0
  -20.6798  -26.9435   22.5404 C   0  0  0  0  0  0
  -19.5771  -26.6378   21.5216 C   0  0  0  0  0  0
  -18.1953  -26.7943   22.1624 C   0  0  0  0  0  0
  -19.1582  -28.8900   23.2820 C   0  0  0  0  0  0
  -18.9492  -30.1492   23.8851 C   0  0  0  0  0  0
  -17.6484  -30.6598   24.0556 C   0  0  0  0  0  0
  -25.9098  -34.9353   23.5011 C   0  0  0  0  0  0
  -16.5375  -29.9086   23.6342 C   0  0  0  0  0  0
  -16.7303  -28.6506   23.0359 C   0  0  0  0  0  0
  -26.4558  -31.6534   25.0690 C   0  0  0  0  0  0
  -25.3688  -31.3778   26.1349 C   0  0  0  0  0  0
  -27.0453  -30.2905   24.6407 C   0  0  0  0  0  0
  -27.6050  -32.4340   25.7494 C   0  0  0  0  0  0
  -27.5569  -37.1767   24.8468 C   0  0  0  0  0  0
  -21.4330  -29.3043   22.3547 N   0  0  0  0  0  0
  -26.4281  -37.3705   23.9406 N   0  0  0  0  0  0
  -24.7484  -30.9925   22.0824 N   0  0  0  0  0  0
  -23.4213  -28.8025   23.3037 O   0  0  0  0  0  0
  -28.2544  -25.8695   20.2006 O   0  0  0  0  0  0
  -26.5709  -34.8887   22.4607 O   0  0  0  0  0  0
  -23.5692  -32.1205   23.6808 O   0  0  0  0  0  0
  -29.5202  -23.7638   20.5935 C   0  0  0  0  0  0
  -28.7271  -22.6702   19.9092 C   0  0  2  0  0  0
  -28.0944  -24.2502   20.4825 C   0  0  2  0  0  0
  -29.8687  -18.1537   20.6548 C   0  0  0  0  0  0
  -29.0118  -19.6305   20.0694 C   0  0  0  0  0  0
  -29.6500  -16.5102   20.4170 N   0  0  0  0  0  0
  -29.0782  -21.2011   20.6298 N   0  3  0  0  0  0
  -31.4561  -13.0197   19.1738 H   0  0  0  0  0  0
  -30.5170  -11.8999   20.1160 H   0  0  0  0  0  0
  -29.9098  -11.7413   17.6768 H   0  0  0  0  0  0
  -29.5613  -13.4522   17.6348 H   0  0  0  0  0  0
  -28.0359  -11.2724   19.0798 H   0  0  0  0  0  0
  -27.4106  -12.3402   17.8490 H   0  0  0  0  0  0
  -27.5258  -14.2382   19.3224 H   0  0  0  0  0  0
  -28.8195  -12.5013   21.4785 H   0  0  0  0  0  0
  -28.2924  -14.1569   21.6873 H   0  0  0  0  0  0
  -25.2771   -9.5681   22.4763 H   0  0  0  0  0  0
  -24.0007   -7.4632   22.7475 H   0  0  0  0  0  0
  -21.0851   -8.8770   19.8951 H   0  0  0  0  0  0
  -22.3708  -10.9667   19.6164 H   0  0  0  0  0  0
  -21.2009   -7.6146   23.9713 H   0  0  0  0  0  0
  -21.1483   -6.0521   25.9076 H   0  0  0  0  0  0
  -22.0598   -2.7606   23.2845 H   0  0  0  0  0  0
  -22.4049  -11.9841   22.4854 H   0  0  0  0  0  0
  -21.1023  -13.1171   22.2654 H   0  0  0  0  0  0
  -24.6283  -15.8438   20.5306 H   0  0  0  0  0  0
  -26.2367  -15.6393   20.0581 H   0  0  0  0  0  0
  -26.7377  -32.5139   23.0884 H   0  0  0  0  0  0
  -25.0069  -33.9483   25.0191 H   0  0  0  0  0  0
  -22.7882  -31.2666   21.3481 H   0  0  0  0  0  0
  -23.3764  -35.9534   23.3285 H   0  0  0  0  0  0
  -24.3569  -36.8879   22.2067 H   0  0  0  0  0  0
  -23.7243  -37.6390   23.6719 H   0  0  0  0  0  0
  -26.2183  -31.3765   20.6131 H   0  0  0  0  0  0
  -26.9057  -30.6975   22.0477 H   0  0  0  0  0  0
  -28.1618  -28.6276   21.2469 H   0  0  0  0  0  0
  -25.8876  -25.7126   19.0470 H   0  0  0  0  0  0
  -23.9957  -27.2433   18.9845 H   0  0  0  0  0  0
  -23.8719  -30.5130   19.3878 H   0  0  0  0  0  0
  -22.8237  -29.2016   19.8310 H   0  0  0  0  0  0
  -25.1334  -36.1769   25.0793 H   0  0  0  0  0  0
  -21.0031  -28.3355   24.1320 H   0  0  0  0  0  0
  -20.5679  -26.2370   23.3643 H   0  0  0  0  0  0
  -21.6663  -26.7413   22.1209 H   0  0  0  0  0  0
  -19.6928  -25.6277   21.1274 H   0  0  0  0  0  0
  -19.6706  -27.3166   20.6728 H   0  0  0  0  0  0
  -17.4222  -26.6686   21.4027 H   0  0  0  0  0  0
  -18.0346  -26.0095   22.9030 H   0  0  0  0  0  0
  -19.7965  -30.7323   24.2197 H   0  0  0  0  0  0
  -17.5034  -31.6271   24.5170 H   0  0  0  0  0  0
  -15.5373  -30.2971   23.7691 H   0  0  0  0  0  0
  -15.8705  -28.0811   22.7096 H   0  0  0  0  0  0
  -24.5888  -30.7108   25.7660 H   0  0  0  0  0  0
  -24.8856  -32.2976   26.4654 H   0  0  0  0  0  0
  -25.7923  -30.9026   27.0205 H   0  0  0  0  0  0
  -26.3115  -29.6581   24.1398 H   0  0  0  0  0  0
  -27.3982  -29.7267   25.5053 H   0  0  0  0  0  0
  -27.9055  -30.4094   23.9816 H   0  0  0  0  0  0
  -27.2621  -33.3685   26.1946 H   0  0  0  0  0  0
  -28.3927  -32.6829   25.0371 H   0  0  0  0  0  0
  -28.0646  -31.8548   26.5512 H   0  0  0  0  0  0
  -28.2577  -38.0072   24.7505 H   0  0  0  0  0  0
  -28.1074  -36.2596   24.6308 H   0  0  0  0  0  0
  -27.2282  -37.1426   25.8870 H   0  0  0  0  0  0
  -20.9584  -29.8728   21.6671 H   0  0  0  0  0  0
  -26.0128  -38.2766   24.1404 H   0  0  0  0  0  0
  -30.2610  -24.2622   19.9709 H   0  0  0  0  0  0
  -29.8666  -23.5944   21.6113 H   0  0  0  0  0  0
  -28.8680  -22.5720   18.8349 H   0  0  0  0  0  0
  -27.4493  -24.1538   21.3538 H   0  0  0  0  0  0
  -29.8302  -18.2372   21.7409 H   0  0  0  0  0  0
  -30.9211  -18.3194   20.4223 H   0  0  0  0  0  0
  -27.9492  -19.3896   20.0732 H   0  0  0  0  0  0
  -29.2620  -19.7100   19.0119 H   0  0  0  0  0  0
  -28.6660  -16.2853   20.4021 H   0  0  0  0  0  0
  -28.5674  -21.1880   21.4966 H   0  0  0  0  0  0
  -30.0418  -21.2991   20.9001 H   0  0  0  0  0  0
  1 25  1  0  0  0
  1 30  2  0  0  0
  1 76  1  0  0  0
  2  3  1  0  0  0
  2 25  1  0  0  0
  2 78  1  0  0  0
  2 79  1  0  0  0
  3  4  1  0  0  0
  3 80  1  0  0  0
  3 81  1  0  0  0
  4  5  1  0  0  0
  4 82  1  0  0  0
  4 83  1  0  0  0
  5  6  1  0  0  0
  5 26  1  0  0  0
  5 84  1  0  0  0
  6 25  1  0  0  0
  6 85  1  0  0  0
  6 86  1  0  0  0
  7  8  2  0  0  0
  7 26  1  0  0  0
  7 29  1  0  0  0
  8  9  1  0  0  0
  8 22  1  0  0  0
  9 10  1  0  0  0
  9 27  2  0  0  0
 10 11  2  0  0  0
 10 15  1  0  0  0
 11 12  1  0  0  0
 11 87  1  0  0  0
 12 13  2  0  0  0
 12 88  1  0  0  0
 13 14  1  0  0  0
 13 31  1  0  0  0
 14 15  2  0  0  0
 14 89  1  0  0  0
 15 90  1  0  0  0
 16 17  2  0  0  0
 16 21  1  0  0  0
 16 31  1  0  0  0
 17 18  1  0  0  0
 17 91  1  0  0  0
 18 19  2  0  0  0
 18 92  1  0  0  0
 19 20  1  0  0  0
 19 24  1  0  0  0
 20 21  2  0  0  0
 20 93  1  0  0  0
 21 23  1  0  0  0
 22 28  1  0  0  0
 22 32  2  0  0  0
 26 27  1  0  0  0
 28 94  1  0  0  0
 28 95  1  0  0  0
 29 96  1  0  0  0
 29 97  1  0  0  0
 33 34  1  0  0  0
 33 66  1  0  0  0
 33 70  2  0  0  0
 34 36  1  0  0  0
 34 59  1  0  0  0
 34 98  1  0  0  0
 35 44  2  0  0  0
 35 45  1  0  0  0
 35 68  1  0  0  0
 36 56  1  0  0  0
 36 99  1  0  0  0
 37 39  1  0  0  0
 37 47  1  0  0  0
 37 66  1  0  0  0
 37100  1  0  0  0
 38 43  2  0  0  0
 38 46  1  0  0  0
 38 47  1  0  0  0
 39 64  1  0  0  0
 39 67  2  0  0  0
 40 52  1  0  0  0
 40 53  2  0  0  0
 40 58  1  0  0  0
 41101  1  0  0  0
 41102  1  0  0  0
 41103  1  0  0  0
 41 48  1  0  0  0
 42 43  1  0  0  0
 42 66  1  0  0  0
 42104  1  0  0  0
 42105  1  0  0  0
 43 44  1  0  0  0
 44106  1  0  0  0
 45 46  2  0  0  0
 45107  1  0  0  0
 46108  1  0  0  0
 47109  1  0  0  0
 47110  1  0  0  0
 48 56  1  0  0  0
 48 65  1  0  0  0
 48111  1  0  0  0
 49 50  1  0  0  0
 49 53  1  0  0  0
 49 64  1  0  0  0
 49112  1  0  0  0
 50 51  1  0  0  0
 50113  1  0  0  0
 50114  1  0  0  0
 51 52  1  0  0  0
 51115  1  0  0  0
 51116  1  0  0  0
 52117  1  0  0  0
 52118  1  0  0  0
 53 54  1  0  0  0
 54 55  2  0  0  0
 54119  1  0  0  0
 55 57  1  0  0  0
 55120  1  0  0  0
 56 69  2  0  0  0
 57 58  2  0  0  0
 57121  1  0  0  0
 58122  1  0  0  0
 59 60  1  0  0  0
 59 61  1  0  0  0
 59 62  1  0  0  0
 60123  1  0  0  0
 60124  1  0  0  0
 60125  1  0  0  0
 61126  1  0  0  0
 61127  1  0  0  0
 61128  1  0  0  0
 62129  1  0  0  0
 62130  1  0  0  0
 62131  1  0  0  0
 63 65  1  0  0  0
 63132  1  0  0  0
 63133  1  0  0  0
 63134  1  0  0  0
 64135  1  0  0  0
 65136  1  0  0  0
 68 73  1  0  0  0
 71 72  1  0  0  0
 71 73  1  0  0  0
 71137  1  0  0  0
 71138  1  0  0  0
 72 73  1  0  0  0
 72 77  1  0  0  0
 72139  1  0  0  0
 73140  1  0  0  0
 74 75  1  0  0  0
 74 76  1  0  0  0
 74141  1  0  0  0
 74142  1  0  0  0
 75 77  1  0  0  0
 75143  1  0  0  0
 75144  1  0  0  0
 76145  1  0  0  0
 77146  1  0  0  0
 77147  1  0  0  0
M  CHG  1  77   1
M  ISO  4   1 100  68 101  73 101  76 100
M  END
> <chiral flag>
0

> <version>
0

> <s_m_source_file>
/data/baiqing/PycharmProjects/Reinvent-master-3.2/result/LINK_invent/BTK/process_docking_weight1_custom_sum_contain_oxygen_bond_distance_aromatic_linkinvent_7_9_3/rearranged_h_0189.sdf

> <i_m_source_file_index>
60

> <r_mmod_Potential_Energy-OPLS-2005>
1038.94750976562

> <r_mmod_Stretch_Energy-OPLS-2005>
598.962585449219

> <r_mmod_Bend_Energy-OPLS-2005>
469.504333496094

> <r_mmod_Torsional_Energy-OPLS-2005>
257.216888427734

> <r_mmod_Improper_Torsional_Energy-OPLS-2005>
4.0886754989624

> <r_mmod_Van_der_Waal_Energy-OPLS-2005>
108.388031005859

> <r_mmod_Electrostatic_Energy-OPLS-2005>
-308.417877197266

> <r_mmod_Solvation_Energy-OPLS-2005>
-529.040649414062

> <b_mmod_Minimization_Converged-OPLS-2005>
0

> <r_mmod_RMS_Derivative-OPLS-2005>
0.363237410783768

$$$$
61
                    3D
 Structure written by MMmdl.
153162  0  0  1  0            999 V2000
  -30.6336  -14.9721   20.4093 C   0  0  0  0  0  0
  -30.4089  -12.6165   19.4962 C   0  0  0  0  0  0
  -29.5053  -12.5232   18.2506 C   0  0  0  0  0  0
  -28.0447  -12.3068   18.6783 C   0  0  0  0  0  0
  -27.6154  -13.2606   19.8238 C   0  0  2  0  0  0
  -28.6612  -13.3673   20.9554 C   0  0  0  0  0  0
  -25.2398  -13.8233   20.5746 C   0  0  0  0  0  0
  -24.1736  -13.0436   20.9250 C   0  0  0  0  0  0
  -24.6378  -11.6930   20.8770 C   0  0  0  0  0  0
  -23.9073  -10.4294   21.0419 C   0  0  0  0  0  0
  -24.3620   -9.4209   21.9192 C   0  0  0  0  0  0
  -23.6296   -8.2242   22.0758 C   0  0  0  0  0  0
  -22.4280   -8.0280   21.3548 C   0  0  0  0  0  0
  -21.9917   -9.0256   20.4652 C   0  0  0  0  0  0
  -22.7245  -10.2133   20.3066 C   0  0  0  0  0  0
  -21.6856   -6.0735   22.5276 C   0  0  0  0  0  0
  -21.4018   -6.5636   23.8210 C   0  0  0  0  0  0
  -21.3661   -5.6787   24.9169 C   0  0  0  0  0  0
  -21.6042   -4.3049   24.7222 C   0  0  0  0  0  0
  -21.8815   -3.8146   23.4344 C   0  0  0  0  0  0
  -21.9192   -4.6962   22.3399 C   0  0  0  0  0  0
  -22.7757  -13.5201   21.1890 C   0  0  0  0  0  0
  -22.1660   -4.2148   21.0978 F   0  0  0  0  0  0
  -21.5632   -3.4533   25.7738 F   0  0  0  0  0  0
  -29.9227  -13.7688   20.3227 N   0  0  0  0  0  0
  -26.2827  -12.9496   20.3246 N   0  0  0  0  0  0
  -25.9314  -11.6611   20.5755 N   0  0  0  0  0  0
  -22.0404  -12.8197   22.0445 N   0  0  0  0  0  0
  -25.4016  -15.1962   20.4176 N   0  0  0  0  0  0
  -31.8473  -14.8532   20.2083 O   0  0  0  0  0  0
  -21.6640   -6.8882   21.4242 O   0  0  0  0  0  0
  -22.3441  -14.5500   20.6726 O   0  0  0  0  0  0
  -24.6471  -31.8432   23.1885 C   0  0  0  0  0  0
  -25.9232  -32.4691   23.8277 C   0  0  1  0  0  0
  -27.2025  -27.1058   20.1464 C   0  0  0  0  0  0
  -25.5970  -33.8498   24.2190 N   0  0  0  0  0  0
  -23.4511  -30.4659   21.5349 C   0  0  2  0  0  0
  -24.8986  -28.8952   20.1074 C   0  0  0  0  0  0
  -22.7581  -29.4556   22.4840 C   0  0  0  0  0  0
  -18.0311  -28.1400   22.8478 C   0  0  0  0  0  0
  -24.1494  -36.7248   23.2643 C   0  0  0  0  0  0
  -26.0117  -30.7057   21.3954 C   0  0  0  0  0  0
  -26.0792  -29.3167   20.7322 C   0  0  0  0  0  0
  -27.2322  -28.4380   20.7377 C   0  0  0  0  0  0
  -25.9979  -26.8078   19.4672 C   0  0  0  0  0  0
  -24.8726  -27.6553   19.4588 C   0  0  0  0  0  0
  -23.6789  -29.8019   20.1527 C   0  0  0  0  0  0
  -25.4127  -36.3028   24.0315 C   0  0  1  0  0  0
  -20.5928  -28.3736   23.1218 C   0  0  2  0  0  0
  -20.6796  -26.9433   22.5397 C   0  0  0  0  0  0
  -19.5765  -26.6382   21.5211 C   0  0  0  0  0  0
  -18.1948  -26.7938   22.1624 C   0  0  0  0  0  0
  -19.1568  -28.8883   23.2842 C   0  0  0  0  0  0
  -18.9484  -30.1476   23.8871 C   0  0  0  0  0  0
  -17.6480  -30.6595   24.0558 C   0  0  0  0  0  0
  -25.9079  -34.9404   23.5059 C   0  0  0  0  0  0
  -16.5371  -29.9087   23.6337 C   0  0  0  0  0  0
  -16.7296  -28.6506   23.0360 C   0  0  0  0  0  0
  -26.4532  -31.6569   25.0735 C   0  0  0  0  0  0
  -25.3699  -31.3778   26.1419 C   0  0  0  0  0  0
  -27.0401  -30.2957   24.6355 C   0  0  0  0  0  0
  -27.6061  -32.4337   25.7519 C   0  0  0  0  0  0
  -27.5577  -37.1781   24.8461 C   0  0  0  0  0  0
  -21.4270  -29.3062   22.3585 N   0  0  0  0  0  0
  -26.4285  -37.3746   23.9408 N   0  0  0  0  0  0
  -24.7236  -31.0262   22.0944 N   0  0  0  0  0  0
  -23.4211  -28.8093   23.2996 O   0  0  0  0  0  0
  -28.2162  -26.0687   20.2328 O   0  0  0  0  0  0
  -26.5663  -34.8902   22.4636 O   0  0  0  0  0  0
  -23.5581  -32.1330   23.7081 O   0  0  0  0  0  0
  -30.3764  -21.9330   20.9865 C   0  0  0  0  0  0
  -29.9744  -23.2575   20.8674 C   0  0  0  0  0  0
  -29.3284  -21.0918   20.4899 C   0  0  0  0  0  0
  -30.7136  -18.9022   20.8207 C   0  0  0  0  0  0
  -28.4320  -18.5226   20.1991 C   0  0  0  0  0  0
  -30.9933  -17.4994   20.1000 C   0  0  0  0  0  0
  -28.7442  -16.9560   20.6485 C   0  0  0  0  0  0
  -27.8120  -24.6085   19.9688 C   0  0  0  0  0  0
  -28.3268  -21.9735   20.1021 N   0  0  0  0  0  0
  -28.7055  -23.3451   20.3205 N   0  0  0  0  0  0
  -29.4530  -19.5965   20.4558 N   0  0  0  0  0  0
  -30.1012  -16.3194   20.4089 N   0  0  0  0  0  0
  -31.4462  -12.7260   19.1781 H   0  0  0  0  0  0
  -30.3780  -11.6874   20.0680 H   0  0  0  0  0  0
  -29.8326  -11.7101   17.6009 H   0  0  0  0  0  0
  -29.5888  -13.4402   17.6646 H   0  0  0  0  0  0
  -27.9500  -11.2709   19.0061 H   0  0  0  0  0  0
  -27.3776  -12.4170   17.8220 H   0  0  0  0  0  0
  -27.5530  -14.2421   19.3549 H   0  0  0  0  0  0
  -28.7658  -12.4231   21.4928 H   0  0  0  0  0  0
  -28.3557  -14.1151   21.6888 H   0  0  0  0  0  0
  -25.2762   -9.5690   22.4766 H   0  0  0  0  0  0
  -24.0002   -7.4633   22.7475 H   0  0  0  0  0  0
  -21.0850   -8.8779   19.8960 H   0  0  0  0  0  0
  -22.3704  -10.9670   19.6176 H   0  0  0  0  0  0
  -21.2013   -7.6144   23.9712 H   0  0  0  0  0  0
  -21.1490   -6.0519   25.9070 H   0  0  0  0  0  0
  -22.0596   -2.7610   23.2841 H   0  0  0  0  0  0
  -22.4025  -11.9865   22.4846 H   0  0  0  0  0  0
  -21.1025  -13.1231   22.2649 H   0  0  0  0  0  0
  -24.6318  -15.8458   20.5370 H   0  0  0  0  0  0
  -26.2468  -15.6389   20.0846 H   0  0  0  0  0  0
  -26.7301  -32.5283   23.1003 H   0  0  0  0  0  0
  -25.0088  -33.9610   25.0319 H   0  0  0  0  0  0
  -22.7562  -31.2940   21.3824 H   0  0  0  0  0  0
  -23.3767  -35.9566   23.3282 H   0  0  0  0  0  0
  -24.3583  -36.8904   22.2062 H   0  0  0  0  0  0
  -23.7233  -37.6430   23.6694 H   0  0  0  0  0  0
  -26.1761  -31.4622   20.6267 H   0  0  0  0  0  0
  -26.8788  -30.7508   22.0425 H   0  0  0  0  0  0
  -28.1258  -28.7516   21.2582 H   0  0  0  0  0  0
  -25.8711  -25.8700   18.9498 H   0  0  0  0  0  0
  -23.9738  -27.3314   18.9525 H   0  0  0  0  0  0
  -23.8208  -30.5801   19.4022 H   0  0  0  0  0  0
  -22.7920  -29.2496   19.8367 H   0  0  0  0  0  0
  -25.1315  -36.1852   25.0807 H   0  0  0  0  0  0
  -21.0025  -28.3333   24.1338 H   0  0  0  0  0  0
  -20.5693  -26.2350   23.3625 H   0  0  0  0  0  0
  -21.6660  -26.7437   22.1195 H   0  0  0  0  0  0
  -19.6926  -25.6283   21.1265 H   0  0  0  0  0  0
  -19.6699  -27.3171   20.6723 H   0  0  0  0  0  0
  -17.4216  -26.6680   21.4030 H   0  0  0  0  0  0
  -18.0350  -26.0089   22.9030 H   0  0  0  0  0  0
  -19.7959  -30.7295   24.2234 H   0  0  0  0  0  0
  -17.5036  -31.6273   24.5161 H   0  0  0  0  0  0
  -15.5370  -30.2979   23.7674 H   0  0  0  0  0  0
  -15.8699  -28.0810   22.7093 H   0  0  0  0  0  0
  -24.5860  -30.7157   25.7723 H   0  0  0  0  0  0
  -24.8914  -32.2974   26.4800 H   0  0  0  0  0  0
  -25.7960  -30.8959   27.0228 H   0  0  0  0  0  0
  -26.3034  -29.6670   24.1347 H   0  0  0  0  0  0
  -27.3970  -29.7272   25.4952 H   0  0  0  0  0  0
  -27.8961  -30.4169   23.9715 H   0  0  0  0  0  0
  -27.2654  -33.3654   26.2044 H   0  0  0  0  0  0
  -28.3898  -32.6874   25.0369 H   0  0  0  0  0  0
  -28.0701  -31.8502   26.5478 H   0  0  0  0  0  0
  -28.2577  -38.0094   24.7525 H   0  0  0  0  0  0
  -28.1091  -36.2625   24.6266 H   0  0  0  0  0  0
  -27.2296  -37.1401   25.8863 H   0  0  0  0  0  0
  -20.9480  -29.8778   21.6767 H   0  0  0  0  0  0
  -26.0149  -38.2810   24.1421 H   0  0  0  0  0  0
  -31.3280  -21.6211   21.3899 H   0  0  0  0  0  0
  -30.5059  -24.1605   21.1330 H   0  0  0  0  0  0
  -31.5495  -19.5593   20.5812 H   0  0  0  0  0  0
  -30.7382  -18.7696   21.9035 H   0  0  0  0  0  0
  -27.4913  -18.8370   20.6546 H   0  0  0  0  0  0
  -28.2452  -18.5317   19.1243 H   0  0  0  0  0  0
  -32.0278  -17.2495   20.3393 H   0  0  0  0  0  0
  -30.9825  -17.6454   19.0185 H   0  0  0  0  0  0
  -27.9967  -16.3196   20.1813 H   0  0  0  0  0  0
  -28.5601  -16.8720   21.7206 H   0  0  0  0  0  0
  -26.8655  -24.4366   20.4826 H   0  0  0  0  0  0
  -27.6197  -24.5281   18.8985 H   0  0  0  0  0  0
  1 25  1  0  0  0
  1 30  2  0  0  0
  1 82  1  0  0  0
  2  3  1  0  0  0
  2 25  1  0  0  0
  2 83  1  0  0  0
  2 84  1  0  0  0
  3  4  1  0  0  0
  3 85  1  0  0  0
  3 86  1  0  0  0
  4  5  1  0  0  0
  4 87  1  0  0  0
  4 88  1  0  0  0
  5  6  1  0  0  0
  5 26  1  0  0  0
  5 89  1  0  0  0
  6 25  1  0  0  0
  6 90  1  0  0  0
  6 91  1  0  0  0
  7  8  2  0  0  0
  7 26  1  0  0  0
  7 29  1  0  0  0
  8  9  1  0  0  0
  8 22  1  0  0  0
  9 10  1  0  0  0
  9 27  2  0  0  0
 10 11  2  0  0  0
 10 15  1  0  0  0
 11 12  1  0  0  0
 11 92  1  0  0  0
 12 13  2  0  0  0
 12 93  1  0  0  0
 13 14  1  0  0  0
 13 31  1  0  0  0
 14 15  2  0  0  0
 14 94  1  0  0  0
 15 95  1  0  0  0
 16 17  2  0  0  0
 16 21  1  0  0  0
 16 31  1  0  0  0
 17 18  1  0  0  0
 17 96  1  0  0  0
 18 19  2  0  0  0
 18 97  1  0  0  0
 19 20  1  0  0  0
 19 24  1  0  0  0
 20 21  2  0  0  0
 20 98  1  0  0  0
 21 23  1  0  0  0
 22 28  1  0  0  0
 22 32  2  0  0  0
 26 27  1  0  0  0
 28 99  1  0  0  0
 28100  1  0  0  0
 29101  1  0  0  0
 29102  1  0  0  0
 33 34  1  0  0  0
 33 66  1  0  0  0
 33 70  2  0  0  0
 34 36  1  0  0  0
 34 59  1  0  0  0
 34103  1  0  0  0
 35 44  2  0  0  0
 35 45  1  0  0  0
 35 68  1  0  0  0
 36 56  1  0  0  0
 36104  1  0  0  0
 37 39  1  0  0  0
 37 47  1  0  0  0
 37 66  1  0  0  0
 37105  1  0  0  0
 38 43  2  0  0  0
 38 46  1  0  0  0
 38 47  1  0  0  0
 39 64  1  0  0  0
 39 67  2  0  0  0
 40 52  1  0  0  0
 40 53  2  0  0  0
 40 58  1  0  0  0
 41106  1  0  0  0
 41107  1  0  0  0
 41108  1  0  0  0
 41 48  1  0  0  0
 42 43  1  0  0  0
 42 66  1  0  0  0
 42109  1  0  0  0
 42110  1  0  0  0
 43 44  1  0  0  0
 44111  1  0  0  0
 45 46  2  0  0  0
 45112  1  0  0  0
 46113  1  0  0  0
 47114  1  0  0  0
 47115  1  0  0  0
 48 56  1  0  0  0
 48 65  1  0  0  0
 48116  1  0  0  0
 49 50  1  0  0  0
 49 53  1  0  0  0
 49 64  1  0  0  0
 49117  1  0  0  0
 50 51  1  0  0  0
 50118  1  0  0  0
 50119  1  0  0  0
 51 52  1  0  0  0
 51120  1  0  0  0
 51121  1  0  0  0
 52122  1  0  0  0
 52123  1  0  0  0
 53 54  1  0  0  0
 54 55  2  0  0  0
 54124  1  0  0  0
 55 57  1  0  0  0
 55125  1  0  0  0
 56 69  2  0  0  0
 57 58  2  0  0  0
 57126  1  0  0  0
 58127  1  0  0  0
 59 60  1  0  0  0
 59 61  1  0  0  0
 59 62  1  0  0  0
 60128  1  0  0  0
 60129  1  0  0  0
 60130  1  0  0  0
 61131  1  0  0  0
 61132  1  0  0  0
 61133  1  0  0  0
 62134  1  0  0  0
 62135  1  0  0  0
 62136  1  0  0  0
 63 65  1  0  0  0
 63137  1  0  0  0
 63138  1  0  0  0
 63139  1  0  0  0
 64140  1  0  0  0
 65141  1  0  0  0
 68 78  1  0  0  0
 71 72  2  0  0  0
 71 73  1  0  0  0
 71142  1  0  0  0
 72 80  1  0  0  0
 72143  1  0  0  0
 73 79  2  0  0  0
 73 81  1  0  0  0
 74 76  1  0  0  0
 74 81  1  0  0  0
 74144  1  0  0  0
 74145  1  0  0  0
 75 77  1  0  0  0
 75 81  1  0  0  0
 75146  1  0  0  0
 75147  1  0  0  0
 76 82  1  0  0  0
 76148  1  0  0  0
 76149  1  0  0  0
 77 82  1  0  0  0
 77150  1  0  0  0
 77151  1  0  0  0
 78 80  1  0  0  0
 78152  1  0  0  0
 78153  1  0  0  0
 79 80  1  0  0  0
M  ISO  4   1 100  68 101  78 101  82 100
M  END
> <chiral flag>
0

> <version>
0

> <s_m_source_file>
/data/baiqing/PycharmProjects/Reinvent-master-3.2/result/LINK_invent/BTK/process_docking_weight1_custom_sum_contain_oxygen_bond_distance_aromatic_linkinvent_7_9_3/rearranged_h_0189.sdf

> <i_m_source_file_index>
61

> <r_mmod_Potential_Energy-OPLS-2005>
618.958740234375

> <r_mmod_Stretch_Energy-OPLS-2005>
247.66633605957

> <r_mmod_Bend_Energy-OPLS-2005>
326.875335693359

> <r_mmod_Torsional_Energy-OPLS-2005>
321.891418457031

> <r_mmod_Improper_Torsional_Energy-OPLS-2005>
7.38963794708252

> <r_mmod_Van_der_Waal_Energy-OPLS-2005>
133.732055664062

> <r_mmod_Electrostatic_Energy-OPLS-2005>
-397.630554199219

> <r_mmod_Solvation_Energy-OPLS-2005>
-245.345016479492

> <b_mmod_Minimization_Converged-OPLS-2005>
0

> <r_mmod_RMS_Derivative-OPLS-2005>
0.99359142780304

$$$$
62
                    3D
 Structure written by MMmdl.
157165  0  0  1  0            999 V2000
  -30.6685  -14.5800   20.5268 C   0  0  0  0  0  0
  -30.4305  -12.3629   19.4425 C   0  0  0  0  0  0
  -29.5017  -12.4955   18.2174 C   0  0  0  0  0  0
  -28.0244  -12.3435   18.6314 C   0  0  0  0  0  0
  -27.6519  -13.2145   19.8606 C   0  0  2  0  0  0
  -28.6979  -13.0682   20.9887 C   0  0  0  0  0  0
  -25.2554  -13.8176   20.5686 C   0  0  0  0  0  0
  -24.1822  -13.0443   20.9199 C   0  0  0  0  0  0
  -24.6387  -11.6909   20.8746 C   0  0  0  0  0  0
  -23.9061  -10.4289   21.0412 C   0  0  0  0  0  0
  -24.3609   -9.4203   21.9186 C   0  0  0  0  0  0
  -23.6277   -8.2245   22.0757 C   0  0  0  0  0  0
  -22.4258   -8.0287   21.3553 C   0  0  0  0  0  0
  -21.9893   -9.0260   20.4659 C   0  0  0  0  0  0
  -22.7231  -10.2136   20.3064 C   0  0  0  0  0  0
  -21.6851   -6.0732   22.5276 C   0  0  0  0  0  0
  -21.4017   -6.5635   23.8213 C   0  0  0  0  0  0
  -21.3661   -5.6788   24.9173 C   0  0  0  0  0  0
  -21.6046   -4.3051   24.7220 C   0  0  0  0  0  0
  -21.8820   -3.8145   23.4342 C   0  0  0  0  0  0
  -21.9191   -4.6959   22.3400 C   0  0  0  0  0  0
  -22.7841  -13.5243   21.1845 C   0  0  0  0  0  0
  -22.1659   -4.2149   21.0975 F   0  0  0  0  0  0
  -21.5623   -3.4534   25.7732 F   0  0  0  0  0  0
  -30.0146  -13.3858   20.4184 N   0  0  0  0  0  0
  -26.2978  -12.9352   20.3315 N   0  0  0  0  0  0
  -25.9317  -11.6513   20.5765 N   0  0  0  0  0  0
  -22.0470  -12.8250   22.0404 N   0  0  0  0  0  0
  -25.4255  -15.1900   20.4077 N   0  0  0  0  0  0
  -31.8460  -14.7076   20.1807 O   0  0  0  0  0  0
  -21.6638   -6.8876   21.4240 O   0  0  0  0  0  0
  -22.3535  -14.5545   20.6682 O   0  0  0  0  0  0
  -24.6226  -31.8643   23.2068 C   0  0  0  0  0  0
  -25.9089  -32.4806   23.8382 C   0  0  1  0  0  0
  -27.2209  -27.3534   20.1100 C   0  0  0  0  0  0
  -25.5923  -33.8603   24.2314 N   0  0  0  0  0  0
  -23.4135  -30.4904   21.5493 C   0  0  2  0  0  0
  -24.8583  -28.9518   20.1142 C   0  0  0  0  0  0
  -22.7456  -29.4655   22.4955 C   0  0  0  0  0  0
  -18.0282  -28.1394   22.8491 C   0  0  0  0  0  0
  -24.1487  -36.7296   23.2635 C   0  0  0  0  0  0
  -25.9524  -30.8069   21.3718 C   0  0  0  0  0  0
  -26.0273  -29.4370   20.7143 C   0  0  0  0  0  0
  -27.2128  -28.6496   20.7025 C   0  0  0  0  0  0
  -26.0272  -26.9141   19.4890 C   0  0  0  0  0  0
  -24.8585  -27.6943   19.4953 C   0  0  0  0  0  0
  -23.6263  -29.8291   20.1635 C   0  0  0  0  0  0
  -25.4112  -36.3098   24.0334 C   0  0  1  0  0  0
  -20.5880  -28.3694   23.1298 C   0  0  2  0  0  0
  -20.6773  -26.9421   22.5417 C   0  0  0  0  0  0
  -19.5748  -26.6396   21.5217 C   0  0  0  0  0  0
  -18.1927  -26.7941   22.1624 C   0  0  0  0  0  0
  -19.1535  -28.8860   23.2893 C   0  0  0  0  0  0
  -18.9458  -30.1458   23.8916 C   0  0  0  0  0  0
  -17.6460  -30.6593   24.0571 C   0  0  0  0  0  0
  -25.9047  -34.9466   23.5123 C   0  0  0  0  0  0
  -16.5352  -29.9095   23.6330 C   0  0  0  0  0  0
  -16.7269  -28.6512   23.0354 C   0  0  0  0  0  0
  -26.4495  -31.6596   25.0728 C   0  0  0  0  0  0
  -25.3743  -31.3720   26.1464 C   0  0  0  0  0  0
  -27.0321  -30.3027   24.6136 C   0  0  0  0  0  0
  -27.6071  -32.4318   25.7488 C   0  0  0  0  0  0
  -27.5582  -37.1803   24.8464 C   0  0  0  0  0  0
  -21.4172  -29.3050   22.3695 N   0  0  0  0  0  0
  -26.4295  -37.3786   23.9408 N   0  0  0  0  0  0
  -24.6818  -31.0694   22.1001 N   0  0  0  0  0  0
  -23.4200  -28.8184   23.3011 O   0  0  0  0  0  0
  -28.3496  -26.5297   20.1450 O   0  0  0  0  0  0
  -26.5608  -34.8922   22.4683 O   0  0  0  0  0  0
  -23.5399  -32.1426   23.7418 O   0  0  0  0  0  0
  -31.3416  -17.2195   22.0021 C   0  0  0  0  0  0
  -31.2564  -19.5165   21.7259 C   0  0  0  0  0  0
  -30.2372  -19.3836   20.7450 C   0  0  0  0  0  0
  -30.3246  -17.0238   21.0347 C   0  0  0  0  0  0
  -31.8502  -20.8564   22.1192 C   0  0  0  0  0  0
  -29.7857  -20.5951   19.8686 C   0  0  0  0  0  0
  -28.6976  -21.6245   20.3657 C   0  0  0  0  0  0
  -29.3747  -24.1613   20.4437 C   0  0  0  0  0  0
  -28.1137  -25.0805   20.2406 C   0  0  0  0  0  0
  -31.7907  -18.4449   22.3572 N   0  0  0  0  0  0
  -29.7596  -18.1286   20.4337 N   0  0  0  0  0  0
  -29.8933  -15.6690   20.7909 N   0  0  0  0  0  0
  -29.1498  -22.8340   21.1403 N   0  3  0  0  0  0
  -31.4731  -12.4734   19.1390 H   0  0  0  0  0  0
  -30.3511  -11.3674   19.8825 H   0  0  0  0  0  0
  -29.7580  -11.7486   17.4652 H   0  0  0  0  0  0
  -29.6536  -13.4680   17.7460 H   0  0  0  0  0  0
  -27.8535  -11.2902   18.8597 H   0  0  0  0  0  0
  -27.3718  -12.5811   17.7910 H   0  0  0  0  0  0
  -27.6711  -14.2495   19.5183 H   0  0  0  0  0  0
  -28.6965  -12.0520   21.3844 H   0  0  0  0  0  0
  -28.4556  -13.7183   21.8309 H   0  0  0  0  0  0
  -25.2756   -9.5670   22.4763 H   0  0  0  0  0  0
  -23.9986   -7.4631   22.7469 H   0  0  0  0  0  0
  -21.0823   -8.8784   19.8962 H   0  0  0  0  0  0
  -22.3691  -10.9675   19.6173 H   0  0  0  0  0  0
  -21.2021   -7.6143   23.9715 H   0  0  0  0  0  0
  -21.1482   -6.0518   25.9079 H   0  0  0  0  0  0
  -22.0599   -2.7604   23.2843 H   0  0  0  0  0  0
  -22.4067  -11.9910   22.4804 H   0  0  0  0  0  0
  -21.1100  -13.1311   22.2624 H   0  0  0  0  0  0
  -24.6522  -15.8390   20.5094 H   0  0  0  0  0  0
  -26.2655  -15.6315   20.0564 H   0  0  0  0  0  0
  -26.7155  -32.5501   23.1134 H   0  0  0  0  0  0
  -25.0084  -33.9759   25.0469 H   0  0  0  0  0  0
  -22.7047  -31.3097   21.4099 H   0  0  0  0  0  0
  -23.3756  -35.9621   23.3306 H   0  0  0  0  0  0
  -24.3576  -36.8902   22.2046 H   0  0  0  0  0  0
  -23.7233  -37.6500   23.6648 H   0  0  0  0  0  0
  -26.0766  -31.5717   20.6035 H   0  0  0  0  0  0
  -26.8358  -30.8576   21.9972 H   0  0  0  0  0  0
  -28.1110  -29.0186   21.1782 H   0  0  0  0  0  0
  -25.9623  -25.9612   18.9883 H   0  0  0  0  0  0
  -23.9615  -27.3195   19.0214 H   0  0  0  0  0  0
  -23.7453  -30.6077   19.4095 H   0  0  0  0  0  0
  -22.7465  -29.2591   19.8593 H   0  0  0  0  0  0
  -25.1289  -36.1961   25.0827 H   0  0  0  0  0  0
  -20.9973  -28.3273   24.1420 H   0  0  0  0  0  0
  -20.5685  -26.2302   23.3612 H   0  0  0  0  0  0
  -21.6642  -26.7458   22.1206 H   0  0  0  0  0  0
  -19.6909  -25.6311   21.1236 H   0  0  0  0  0  0
  -19.6692  -27.3217   20.6758 H   0  0  0  0  0  0
  -17.4200  -26.6701   21.4021 H   0  0  0  0  0  0
  -18.0319  -26.0083   22.9016 H   0  0  0  0  0  0
  -19.7934  -30.7267   24.2303 H   0  0  0  0  0  0
  -17.5015  -31.6275   24.5167 H   0  0  0  0  0  0
  -15.5353  -30.3002   23.7646 H   0  0  0  0  0  0
  -15.8669  -28.0829   22.7069 H   0  0  0  0  0  0
  -24.5928  -30.7050   25.7806 H   0  0  0  0  0  0
  -24.8917  -32.2877   26.4891 H   0  0  0  0  0  0
  -25.8082  -30.8912   27.0238 H   0  0  0  0  0  0
  -26.2869  -29.6793   24.1179 H   0  0  0  0  0  0
  -27.4061  -29.7265   25.4608 H   0  0  0  0  0  0
  -27.8725  -30.4328   23.9313 H   0  0  0  0  0  0
  -27.2698  -33.3619   26.2074 H   0  0  0  0  0  0
  -28.3873  -32.6875   25.0307 H   0  0  0  0  0  0
  -28.0747  -31.8435   26.5392 H   0  0  0  0  0  0
  -28.2611  -38.0092   24.7512 H   0  0  0  0  0  0
  -28.1070  -36.2626   24.6293 H   0  0  0  0  0  0
  -27.2298  -37.1452   25.8867 H   0  0  0  0  0  0
  -20.9345  -29.8781   21.6916 H   0  0  0  0  0  0
  -26.0185  -38.2862   24.1420 H   0  0  0  0  0  0
  -31.7891  -16.3843   22.5215 H   0  0  0  0  0  0
  -32.1852  -21.4142   21.2456 H   0  0  0  0  0  0
  -32.7132  -20.7329   22.7748 H   0  0  0  0  0  0
  -31.1145  -21.4504   22.6586 H   0  0  0  0  0  0
  -29.3921  -20.1540   18.9524 H   0  0  0  0  0  0
  -30.6672  -21.1388   19.5295 H   0  0  0  0  0  0
  -27.9606  -21.0836   20.9602 H   0  0  0  0  0  0
  -28.1469  -21.9915   19.4994 H   0  0  0  0  0  0
  -30.0653  -24.7149   21.0802 H   0  0  0  0  0  0
  -29.9007  -24.0130   19.5001 H   0  0  0  0  0  0
  -27.4209  -24.9181   21.0677 H   0  0  0  0  0  0
  -27.6150  -24.7177   19.3424 H   0  0  0  0  0  0
  -28.9015  -15.5058   20.8374 H   0  0  0  0  0  0
  -29.9960  -22.5902   21.6275 H   0  0  0  0  0  0
  -28.4616  -22.9903   21.8621 H   0  0  0  0  0  0
  1 25  1  0  0  0
  1 30  2  0  0  0
  1 82  1  0  0  0
  2  3  1  0  0  0
  2 25  1  0  0  0
  2 84  1  0  0  0
  2 85  1  0  0  0
  3  4  1  0  0  0
  3 86  1  0  0  0
  3 87  1  0  0  0
  4  5  1  0  0  0
  4 88  1  0  0  0
  4 89  1  0  0  0
  5  6  1  0  0  0
  5 26  1  0  0  0
  5 90  1  0  0  0
  6 25  1  0  0  0
  6 91  1  0  0  0
  6 92  1  0  0  0
  7  8  2  0  0  0
  7 26  1  0  0  0
  7 29  1  0  0  0
  8  9  1  0  0  0
  8 22  1  0  0  0
  9 10  1  0  0  0
  9 27  2  0  0  0
 10 11  2  0  0  0
 10 15  1  0  0  0
 11 12  1  0  0  0
 11 93  1  0  0  0
 12 13  2  0  0  0
 12 94  1  0  0  0
 13 14  1  0  0  0
 13 31  1  0  0  0
 14 15  2  0  0  0
 14 95  1  0  0  0
 15 96  1  0  0  0
 16 17  2  0  0  0
 16 21  1  0  0  0
 16 31  1  0  0  0
 17 18  1  0  0  0
 17 97  1  0  0  0
 18 19  2  0  0  0
 18 98  1  0  0  0
 19 20  1  0  0  0
 19 24  1  0  0  0
 20 21  2  0  0  0
 20 99  1  0  0  0
 21 23  1  0  0  0
 22 28  1  0  0  0
 22 32  2  0  0  0
 26 27  1  0  0  0
 28100  1  0  0  0
 28101  1  0  0  0
 29102  1  0  0  0
 29103  1  0  0  0
 33 34  1  0  0  0
 33 66  1  0  0  0
 33 70  2  0  0  0
 34 36  1  0  0  0
 34 59  1  0  0  0
 34104  1  0  0  0
 35 44  2  0  0  0
 35 45  1  0  0  0
 35 68  1  0  0  0
 36 56  1  0  0  0
 36105  1  0  0  0
 37 39  1  0  0  0
 37 47  1  0  0  0
 37 66  1  0  0  0
 37106  1  0  0  0
 38 43  2  0  0  0
 38 46  1  0  0  0
 38 47  1  0  0  0
 39 64  1  0  0  0
 39 67  2  0  0  0
 40 52  1  0  0  0
 40 53  2  0  0  0
 40 58  1  0  0  0
 41107  1  0  0  0
 41108  1  0  0  0
 41109  1  0  0  0
 41 48  1  0  0  0
 42 43  1  0  0  0
 42 66  1  0  0  0
 42110  1  0  0  0
 42111  1  0  0  0
 43 44  1  0  0  0
 44112  1  0  0  0
 45 46  2  0  0  0
 45113  1  0  0  0
 46114  1  0  0  0
 47115  1  0  0  0
 47116  1  0  0  0
 48 56  1  0  0  0
 48 65  1  0  0  0
 48117  1  0  0  0
 49 50  1  0  0  0
 49 53  1  0  0  0
 49 64  1  0  0  0
 49118  1  0  0  0
 50 51  1  0  0  0
 50119  1  0  0  0
 50120  1  0  0  0
 51 52  1  0  0  0
 51121  1  0  0  0
 51122  1  0  0  0
 52123  1  0  0  0
 52124  1  0  0  0
 53 54  1  0  0  0
 54 55  2  0  0  0
 54125  1  0  0  0
 55 57  1  0  0  0
 55126  1  0  0  0
 56 69  2  0  0  0
 57 58  2  0  0  0
 57127  1  0  0  0
 58128  1  0  0  0
 59 60  1  0  0  0
 59 61  1  0  0  0
 59 62  1  0  0  0
 60129  1  0  0  0
 60130  1  0  0  0
 60131  1  0  0  0
 61132  1  0  0  0
 61133  1  0  0  0
 61134  1  0  0  0
 62135  1  0  0  0
 62136  1  0  0  0
 62137  1  0  0  0
 63 65  1  0  0  0
 63138  1  0  0  0
 63139  1  0  0  0
 63140  1  0  0  0
 64141  1  0  0  0
 65142  1  0  0  0
 68 79  1  0  0  0
 71 74  2  0  0  0
 71 80  1  0  0  0
 71143  1  0  0  0
 72 73  1  0  0  0
 72 75  1  0  0  0
 72 80  2  0  0  0
 73 76  1  0  0  0
 73 81  2  0  0  0
 74 81  1  0  0  0
 74 82  1  0  0  0
 75144  1  0  0  0
 75145  1  0  0  0
 75146  1  0  0  0
 76 77  1  0  0  0
 76147  1  0  0  0
 76148  1  0  0  0
 77 83  1  0  0  0
 77149  1  0  0  0
 77150  1  0  0  0
 78 79  1  0  0  0
 78 83  1  0  0  0
 78151  1  0  0  0
 78152  1  0  0  0
 79153  1  0  0  0
 79154  1  0  0  0
 82155  1  0  0  0
 83156  1  0  0  0
 83157  1  0  0  0
M  CHG  1  83   1
M  ISO  4   1 100  68 101  79 101  82 100
M  END
> <chiral flag>
0

> <version>
0

> <s_m_source_file>
/data/baiqing/PycharmProjects/Reinvent-master-3.2/result/LINK_invent/BTK/process_docking_weight1_custom_sum_contain_oxygen_bond_distance_aromatic_linkinvent_7_9_3/rearranged_h_0189.sdf

> <i_m_source_file_index>
62

> <r_mmod_Potential_Energy-OPLS-2005>
-101.721824645996

> <r_mmod_Stretch_Energy-OPLS-2005>
65.0732421875

> <r_mmod_Bend_Energy-OPLS-2005>
129.098587036133

> <r_mmod_Torsional_Energy-OPLS-2005>
261.582183837891

> <r_mmod_Improper_Torsional_Energy-OPLS-2005>
6.5148286819458

> <r_mmod_Van_der_Waal_Energy-OPLS-2005>
149.840133666992

> <r_mmod_Electrostatic_Energy-OPLS-2005>
-259.111602783203

> <r_mmod_Solvation_Energy-OPLS-2005>
-489.761505126953

> <b_mmod_Minimization_Converged-OPLS-2005>
0

> <r_mmod_RMS_Derivative-OPLS-2005>
1.32087099552155

$$$$
63
                    3D
 Structure written by MMmdl.
150158  0  0  1  0            999 V2000
  -30.4251  -15.2263   20.3784 C   0  0  0  0  0  0
  -30.4452  -12.7834   19.4980 C   0  0  0  0  0  0
  -29.5323  -12.5626   18.2655 C   0  0  0  0  0  0
  -28.0739  -12.3025   18.6871 C   0  0  0  0  0  0
  -27.6104  -13.2656   19.8096 C   0  0  2  0  0  0
  -28.6512  -13.4014   20.9386 C   0  0  0  0  0  0
  -25.2382  -13.8258   20.5679 C   0  0  0  0  0  0
  -24.1730  -13.0457   20.9271 C   0  0  0  0  0  0
  -24.6360  -11.6954   20.8735 C   0  0  0  0  0  0
  -23.9036  -10.4319   21.0368 C   0  0  0  0  0  0
  -24.3596   -9.4239   21.9139 C   0  0  0  0  0  0
  -23.6298   -8.2259   22.0730 C   0  0  0  0  0  0
  -22.4283   -8.0261   21.3522 C   0  0  0  0  0  0
  -21.9902   -9.0231   20.4621 C   0  0  0  0  0  0
  -22.7215  -10.2127   20.3018 C   0  0  0  0  0  0
  -21.6850   -6.0718   22.5272 C   0  0  0  0  0  0
  -21.4012   -6.5617   23.8206 C   0  0  0  0  0  0
  -21.3676   -5.6767   24.9163 C   0  0  0  0  0  0
  -21.6066   -4.3030   24.7224 C   0  0  0  0  0  0
  -21.8821   -3.8116   23.4339 C   0  0  0  0  0  0
  -21.9200   -4.6943   22.3393 C   0  0  0  0  0  0
  -22.7739  -13.5208   21.1928 C   0  0  0  0  0  0
  -22.1657   -4.2122   21.0978 F   0  0  0  0  0  0
  -21.5650   -3.4515   25.7733 F   0  0  0  0  0  0
  -29.8813  -13.9160   20.3144 N   0  0  0  0  0  0
  -26.2782  -12.9492   20.3103 N   0  0  0  0  0  0
  -25.9289  -11.6613   20.5662 N   0  0  0  0  0  0
  -22.0356  -12.8189   22.0468 N   0  0  0  0  0  0
  -25.4075  -15.1986   20.4078 N   0  0  0  0  0  0
  -31.6541  -15.2579   20.2256 O   0  0  0  0  0  0
  -21.6650   -6.8858   21.4228 O   0  0  0  0  0  0
  -22.3413  -14.5495   20.6757 O   0  0  0  0  0  0
  -24.6627  -31.8241   23.1700 C   0  0  0  0  0  0
  -25.9322  -32.4571   23.8163 C   0  0  1  0  0  0
  -27.2097  -26.9243   20.2082 C   0  0  0  0  0  0
  -25.5990  -33.8382   24.2064 N   0  0  0  0  0  0
  -23.4762  -30.4382   21.5174 C   0  0  2  0  0  0
  -24.9274  -28.8169   20.1217 C   0  0  0  0  0  0
  -22.7636  -29.4503   22.4764 C   0  0  0  0  0  0
  -18.0341  -28.1437   22.8481 C   0  0  0  0  0  0
  -24.1497  -36.7202   23.2645 C   0  0  0  0  0  0
  -26.0431  -30.6307   21.4012 C   0  0  0  0  0  0
  -26.1113  -29.2183   20.7535 C   0  0  0  0  0  0
  -27.2495  -28.2942   20.7681 C   0  0  0  0  0  0
  -25.9974  -26.6710   19.5322 C   0  0  0  0  0  0
  -24.8926  -27.5609   19.4938 C   0  0  0  0  0  0
  -23.7163  -29.7467   20.1472 C   0  0  0  0  0  0
  -25.4136  -36.2940   24.0289 C   0  0  1  0  0  0
  -20.5956  -28.3794   23.1172 C   0  0  2  0  0  0
  -20.6824  -26.9476   22.5399 C   0  0  0  0  0  0
  -19.5803  -26.6394   21.5223 C   0  0  0  0  0  0
  -18.1980  -26.7969   22.1625 C   0  0  0  0  0  0
  -19.1595  -28.8933   23.2821 C   0  0  0  0  0  0
  -18.9511  -30.1520   23.8855 C   0  0  0  0  0  0
  -17.6507  -30.6625   24.0569 C   0  0  0  0  0  0
  -25.9099  -34.9330   23.4993 C   0  0  0  0  0  0
  -16.5400  -29.9112   23.6360 C   0  0  0  0  0  0
  -16.7318  -28.6538   23.0365 C   0  0  0  0  0  0
  -26.4569  -31.6520   25.0694 C   0  0  0  0  0  0
  -25.3688  -31.3804   26.1348 C   0  0  0  0  0  0
  -27.0469  -30.2873   24.6457 C   0  0  0  0  0  0
  -27.6051  -32.4335   25.7518 C   0  0  0  0  0  0
  -27.5567  -37.1755   24.8464 C   0  0  0  0  0  0
  -21.4306  -29.3071   22.3483 N   0  0  0  0  0  0
  -26.4274  -37.3682   23.9397 N   0  0  0  0  0  0
  -24.7490  -30.9921   22.0825 N   0  0  0  0  0  0
  -23.4179  -28.8076   23.3020 O   0  0  0  0  0  0
  -28.2332  -25.8396   20.2023 O   0  0  0  0  0  0
  -26.5720  -34.8867   22.4584 O   0  0  0  0  0  0
  -23.5708  -32.1219   23.6803 O   0  0  0  0  0  0
  -28.4121  -18.6650   21.0839 C   0  0  0  0  0  0
  -29.7403  -18.0809   20.6669 C   0  0  2  0  0  0
  -29.0060  -19.6267   20.0909 C   0  0  2  0  0  0
  -28.4946  -24.3417   22.0900 C   0  0  0  0  0  0
  -28.7517  -22.6846   19.9970 C   0  0  0  0  0  0
  -28.0804  -24.2448   20.6161 C   0  0  2  0  0  0
  -29.6012  -16.4555   20.4210 N   0  0  0  0  0  0
  -28.8605  -21.1770   20.7138 N   0  3  0  0  0  0
  -31.4583  -13.0054   19.1595 H   0  0  0  0  0  0
  -30.5253  -11.8695   20.0916 H   0  0  0  0  0  0
  -29.9015  -11.7313   17.6635 H   0  0  0  0  0  0
  -29.5698  -13.4439   17.6224 H   0  0  0  0  0  0
  -28.0059  -11.2731   19.0395 H   0  0  0  0  0  0
  -27.4112  -12.3706   17.8227 H   0  0  0  0  0  0
  -27.5331  -14.2405   19.3257 H   0  0  0  0  0  0
  -28.8117  -12.4431   21.4359 H   0  0  0  0  0  0
  -28.3013  -14.0947   21.7052 H   0  0  0  0  0  0
  -25.2741   -9.5732   22.4704 H   0  0  0  0  0  0
  -24.0020   -7.4650   22.7447 H   0  0  0  0  0  0
  -21.0836   -8.8732   19.8923 H   0  0  0  0  0  0
  -22.3647  -10.9648   19.6117 H   0  0  0  0  0  0
  -21.1972   -7.6121   23.9697 H   0  0  0  0  0  0
  -21.1507   -6.0490   25.9068 H   0  0  0  0  0  0
  -22.0588   -2.7582   23.2844 H   0  0  0  0  0  0
  -22.3947  -11.9905   22.4974 H   0  0  0  0  0  0
  -21.0925  -13.1146   22.2569 H   0  0  0  0  0  0
  -24.6443  -15.8573   20.5235 H   0  0  0  0  0  0
  -26.2347  -15.6218   20.0107 H   0  0  0  0  0  0
  -26.7385  -32.5104   23.0882 H   0  0  0  0  0  0
  -25.0056  -33.9453   25.0157 H   0  0  0  0  0  0
  -22.7924  -31.2712   21.3418 H   0  0  0  0  0  0
  -23.3748  -35.9548   23.3297 H   0  0  0  0  0  0
  -24.3573  -36.8861   22.2062 H   0  0  0  0  0  0
  -23.7282  -37.6390   23.6719 H   0  0  0  0  0  0
  -26.2219  -31.3694   20.6204 H   0  0  0  0  0  0
  -26.9034  -30.6889   22.0558 H   0  0  0  0  0  0
  -28.1492  -28.6016   21.2807 H   0  0  0  0  0  0
  -25.8780  -25.7168   19.0383 H   0  0  0  0  0  0
  -23.9888  -27.2441   18.9906 H   0  0  0  0  0  0
  -23.8730  -30.5087   19.3829 H   0  0  0  0  0  0
  -22.8249  -29.1996   19.8347 H   0  0  0  0  0  0
  -25.1343  -36.1722   25.0784 H   0  0  0  0  0  0
  -21.0077  -28.3438   24.1289 H   0  0  0  0  0  0
  -20.5724  -26.2427   23.3647 H   0  0  0  0  0  0
  -21.6683  -26.7474   22.1199 H   0  0  0  0  0  0
  -19.6957  -25.6287   21.1304 H   0  0  0  0  0  0
  -19.6735  -27.3158   20.6714 H   0  0  0  0  0  0
  -17.4245  -26.6724   21.4028 H   0  0  0  0  0  0
  -18.0384  -26.0125   22.9038 H   0  0  0  0  0  0
  -19.7980  -30.7358   24.2182 H   0  0  0  0  0  0
  -17.5059  -31.6292   24.5184 H   0  0  0  0  0  0
  -15.5394  -30.2996   23.7705 H   0  0  0  0  0  0
  -15.8727  -28.0834   22.7091 H   0  0  0  0  0  0
  -24.5856  -30.7181   25.7656 H   0  0  0  0  0  0
  -24.8901  -32.3024   26.4654 H   0  0  0  0  0  0
  -25.7891  -30.9031   27.0208 H   0  0  0  0  0  0
  -26.3150  -29.6537   24.1437 H   0  0  0  0  0  0
  -27.3946  -29.7260   25.5142 H   0  0  0  0  0  0
  -27.9113  -30.4032   23.9920 H   0  0  0  0  0  0
  -27.2598  -33.3653   26.2018 H   0  0  0  0  0  0
  -28.3922  -32.6874   25.0406 H   0  0  0  0  0  0
  -28.0669  -31.8523   26.5513 H   0  0  0  0  0  0
  -28.2561  -38.0064   24.7472 H   0  0  0  0  0  0
  -28.1073  -36.2582   24.6330 H   0  0  0  0  0  0
  -27.2279  -37.1452   25.8864 H   0  0  0  0  0  0
  -20.9555  -29.8694   21.6557 H   0  0  0  0  0  0
  -26.0115  -38.2735   24.1382 H   0  0  0  0  0  0
  -28.3492  -18.9658   22.1283 H   0  0  0  0  0  0
  -27.5188  -18.1474   20.7380 H   0  0  0  0  0  0
  -30.6060  -18.3049   21.2917 H   0  0  0  0  0  0
  -28.5610  -19.6144   19.0979 H   0  0  0  0  0  0
  -28.2617  -23.4306   22.6387 H   0  0  0  0  0  0
  -27.9848  -25.1629   22.5953 H   0  0  0  0  0  0
  -29.5662  -24.5188   22.1729 H   0  0  0  0  0  0
  -29.7795  -22.9083   19.7192 H   0  0  0  0  0  0
  -28.2446  -22.5062   19.0496 H   0  0  0  0  0  0
  -27.0013  -24.0796   20.6234 H   0  0  0  0  0  0
  -28.6317  -16.1786   20.4320 H   0  0  0  0  0  0
  -29.5576  -21.2592   21.4358 H   0  0  0  0  0  0
  -27.9854  -21.1127   21.2112 H   0  0  0  0  0  0
  1 25  1  0  0  0
  1 30  2  0  0  0
  1 77  1  0  0  0
  2  3  1  0  0  0
  2 25  1  0  0  0
  2 79  1  0  0  0
  2 80  1  0  0  0
  3  4  1  0  0  0
  3 81  1  0  0  0
  3 82  1  0  0  0
  4  5  1  0  0  0
  4 83  1  0  0  0
  4 84  1  0  0  0
  5  6  1  0  0  0
  5 26  1  0  0  0
  5 85  1  0  0  0
  6 25  1  0  0  0
  6 86  1  0  0  0
  6 87  1  0  0  0
  7  8  2  0  0  0
  7 26  1  0  0  0
  7 29  1  0  0  0
  8  9  1  0  0  0
  8 22  1  0  0  0
  9 10  1  0  0  0
  9 27  2  0  0  0
 10 11  2  0  0  0
 10 15  1  0  0  0
 11 12  1  0  0  0
 11 88  1  0  0  0
 12 13  2  0  0  0
 12 89  1  0  0  0
 13 14  1  0  0  0
 13 31  1  0  0  0
 14 15  2  0  0  0
 14 90  1  0  0  0
 15 91  1  0  0  0
 16 17  2  0  0  0
 16 21  1  0  0  0
 16 31  1  0  0  0
 17 18  1  0  0  0
 17 92  1  0  0  0
 18 19  2  0  0  0
 18 93  1  0  0  0
 19 20  1  0  0  0
 19 24  1  0  0  0
 20 21  2  0  0  0
 20 94  1  0  0  0
 21 23  1  0  0  0
 22 28  1  0  0  0
 22 32  2  0  0  0
 26 27  1  0  0  0
 28 95  1  0  0  0
 28 96  1  0  0  0
 29 97  1  0  0  0
 29 98  1  0  0  0
 33 34  1  0  0  0
 33 66  1  0  0  0
 33 70  2  0  0  0
 34 36  1  0  0  0
 34 59  1  0  0  0
 34 99  1  0  0  0
 35 44  2  0  0  0
 35 45  1  0  0  0
 35 68  1  0  0  0
 36 56  1  0  0  0
 36100  1  0  0  0
 37 39  1  0  0  0
 37 47  1  0  0  0
 37 66  1  0  0  0
 37101  1  0  0  0
 38 43  2  0  0  0
 38 46  1  0  0  0
 38 47  1  0  0  0
 39 64  1  0  0  0
 39 67  2  0  0  0
 40 52  1  0  0  0
 40 53  2  0  0  0
 40 58  1  0  0  0
 41102  1  0  0  0
 41103  1  0  0  0
 41104  1  0  0  0
 41 48  1  0  0  0
 42 43  1  0  0  0
 42 66  1  0  0  0
 42105  1  0  0  0
 42106  1  0  0  0
 43 44  1  0  0  0
 44107  1  0  0  0
 45 46  2  0  0  0
 45108  1  0  0  0
 46109  1  0  0  0
 47110  1  0  0  0
 47111  1  0  0  0
 48 56  1  0  0  0
 48 65  1  0  0  0
 48112  1  0  0  0
 49 50  1  0  0  0
 49 53  1  0  0  0
 49 64  1  0  0  0
 49113  1  0  0  0
 50 51  1  0  0  0
 50114  1  0  0  0
 50115  1  0  0  0
 51 52  1  0  0  0
 51116  1  0  0  0
 51117  1  0  0  0
 52118  1  0  0  0
 52119  1  0  0  0
 53 54  1  0  0  0
 54 55  2  0  0  0
 54120  1  0  0  0
 55 57  1  0  0  0
 55121  1  0  0  0
 56 69  2  0  0  0
 57 58  2  0  0  0
 57122  1  0  0  0
 58123  1  0  0  0
 59 60  1  0  0  0
 59 61  1  0  0  0
 59 62  1  0  0  0
 60124  1  0  0  0
 60125  1  0  0  0
 60126  1  0  0  0
 61127  1  0  0  0
 61128  1  0  0  0
 61129  1  0  0  0
 62130  1  0  0  0
 62131  1  0  0  0
 62132  1  0  0  0
 63 65  1  0  0  0
 63133  1  0  0  0
 63134  1  0  0  0
 63135  1  0  0  0
 64136  1  0  0  0
 65137  1  0  0  0
 68 76  1  0  0  0
 71 72  1  0  0  0
 71 73  1  0  0  0
 71138  1  0  0  0
 71139  1  0  0  0
 72 73  1  0  0  0
 72 77  1  0  0  0
 72140  1  0  0  0
 73 78  1  0  0  0
 73141  1  0  0  0
 74142  1  0  0  0
 74143  1  0  0  0
 74144  1  0  0  0
 74 76  1  0  0  0
 75 76  1  0  0  0
 75 78  1  0  0  0
 75145  1  0  0  0
 75146  1  0  0  0
 76147  1  0  0  0
 77148  1  0  0  0
 78149  1  0  0  0
 78150  1  0  0  0
M  CHG  1  78   1
M  ISO  4   1 100  68 101  76 101  77 100
M  END
> <chiral flag>
0

> <version>
0

> <s_m_source_file>
/data/baiqing/PycharmProjects/Reinvent-master-3.2/result/LINK_invent/BTK/process_docking_weight1_custom_sum_contain_oxygen_bond_distance_aromatic_linkinvent_7_9_3/rearranged_h_0189.sdf

> <i_m_source_file_index>
63

> <r_mmod_Potential_Energy-OPLS-2005>
1161.88305664062

> <r_mmod_Stretch_Energy-OPLS-2005>
614.434936523438

> <r_mmod_Bend_Energy-OPLS-2005>
469.159332275391

> <r_mmod_Torsional_Energy-OPLS-2005>
296.180389404297

> <r_mmod_Improper_Torsional_Energy-OPLS-2005>
4.35306692123413

> <r_mmod_Van_der_Waal_Energy-OPLS-2005>
104.888824462891

> <r_mmod_Electrostatic_Energy-OPLS-2005>
-277.065856933594

> <r_mmod_Solvation_Energy-OPLS-2005>
-484.063507080078

> <b_mmod_Minimization_Converged-OPLS-2005>
0

> <r_mmod_RMS_Derivative-OPLS-2005>
3.77822494506836

$$$$
64
                    3D
 Structure written by MMmdl.
158167  0  0  1  0            999 V2000
  -30.6368  -14.7295   20.4686 C   0  0  0  0  0  0
  -30.4218  -12.4486   19.4780 C   0  0  0  0  0  0
  -29.5054  -12.4991   18.2392 C   0  0  0  0  0  0
  -28.0314  -12.3314   18.6560 C   0  0  0  0  0  0
  -27.6372  -13.2356   19.8549 C   0  0  2  0  0  0
  -28.6818  -13.1776   20.9881 C   0  0  0  0  0  0
  -25.2487  -13.8218   20.5743 C   0  0  0  0  0  0
  -24.1772  -13.0447   20.9215 C   0  0  0  0  0  0
  -24.6373  -11.6929   20.8750 C   0  0  0  0  0  0
  -23.9059  -10.4301   21.0417 C   0  0  0  0  0  0
  -24.3619   -9.4209   21.9190 C   0  0  0  0  0  0
  -23.6301   -8.2236   22.0757 C   0  0  0  0  0  0
  -22.4283   -8.0281   21.3539 C   0  0  0  0  0  0
  -21.9911   -9.0258   20.4644 C   0  0  0  0  0  0
  -22.7234  -10.2144   20.3063 C   0  0  0  0  0  0
  -21.6848   -6.0740   22.5277 C   0  0  0  0  0  0
  -21.4006   -6.5642   23.8212 C   0  0  0  0  0  0
  -21.3660   -5.6798   24.9175 C   0  0  0  0  0  0
  -21.6041   -4.3058   24.7227 C   0  0  0  0  0  0
  -21.8813   -3.8156   23.4348 C   0  0  0  0  0  0
  -21.9194   -4.6972   22.3406 C   0  0  0  0  0  0
  -22.7781  -13.5226   21.1887 C   0  0  0  0  0  0
  -22.1661   -4.2155   21.0983 F   0  0  0  0  0  0
  -21.5638   -3.4543   25.7744 F   0  0  0  0  0  0
  -29.9738  -13.5254   20.3913 N   0  0  0  0  0  0
  -26.2913  -12.9424   20.3324 N   0  0  0  0  0  0
  -25.9316  -11.6558   20.5769 N   0  0  0  0  0  0
  -22.0452  -12.8189   22.0435 N   0  0  0  0  0  0
  -25.4219  -15.1937   20.4209 N   0  0  0  0  0  0
  -31.8468  -14.7488   20.2189 O   0  0  0  0  0  0
  -21.6640   -6.8882   21.4236 O   0  0  0  0  0  0
  -22.3458  -14.5549   20.6782 O   0  0  0  0  0  0
  -24.6256  -31.8585   23.1982 C   0  0  0  0  0  0
  -25.9076  -32.4775   23.8339 C   0  0  1  0  0  0
  -27.2135  -27.2803   20.1383 C   0  0  0  0  0  0
  -25.5891  -33.8584   24.2257 N   0  0  0  0  0  0
  -23.4225  -30.4782   21.5433 C   0  0  2  0  0  0
  -24.8700  -28.9271   20.1082 C   0  0  0  0  0  0
  -22.7464  -29.4622   22.4944 C   0  0  0  0  0  0
  -18.0260  -28.1375   22.8523 C   0  0  0  0  0  0
  -24.1492  -36.7300   23.2645 C   0  0  0  0  0  0
  -25.9648  -30.7782   21.3720 C   0  0  0  0  0  0
  -26.0392  -29.4012   20.7166 C   0  0  0  0  0  0
  -27.2170  -28.5905   20.7183 C   0  0  0  0  0  0
  -26.0266  -26.8665   19.4988 C   0  0  0  0  0  0
  -24.8685  -27.6685   19.4855 C   0  0  0  0  0  0
  -23.6361  -29.8073   20.1592 C   0  0  0  0  0  0
  -25.4120  -36.3086   24.0321 C   0  0  1  0  0  0
  -20.5865  -28.3707   23.1268 C   0  0  2  0  0  0
  -20.6771  -26.9425   22.5393 C   0  0  0  0  0  0
  -19.5732  -26.6353   21.5225 C   0  0  0  0  0  0
  -18.1923  -26.7894   22.1693 C   0  0  0  0  0  0
  -19.1517  -28.8861   23.2882 C   0  0  0  0  0  0
  -18.9427  -30.1485   23.8861 C   0  0  0  0  0  0
  -17.6433  -30.6613   24.0521 C   0  0  0  0  0  0
  -25.9053  -34.9455   23.5102 C   0  0  0  0  0  0
  -16.5327  -29.9098   23.6325 C   0  0  0  0  0  0
  -16.7242  -28.6482   23.0406 C   0  0  0  0  0  0
  -26.4458  -31.6583   25.0717 C   0  0  0  0  0  0
  -25.3681  -31.3726   26.1440 C   0  0  0  0  0  0
  -27.0287  -30.3000   24.6155 C   0  0  0  0  0  0
  -27.6022  -32.4328   25.7475 C   0  0  0  0  0  0
  -27.5580  -37.1812   24.8466 C   0  0  0  0  0  0
  -21.4175  -29.3072   22.3676 N   0  0  0  0  0  0
  -26.4300  -37.3774   23.9400 N   0  0  0  0  0  0
  -24.6904  -31.0564   22.0956 N   0  0  0  0  0  0
  -23.4181  -28.8166   23.3031 O   0  0  0  0  0  0
  -28.3074  -26.3956   20.1967 O   0  0  0  0  0  0
  -26.5649  -34.8927   22.4690 O   0  0  0  0  0  0
  -23.5409  -32.1406   23.7281 O   0  0  0  0  0  0
  -29.7382  -20.4843   19.9969 C   0  0  0  0  0  0
  -28.7622  -18.2460   20.9917 C   0  0  0  0  0  0
  -30.7884  -18.2270   19.6724 C   0  0  0  0  0  0
  -29.2078  -16.7258   21.3399 C   0  0  0  0  0  0
  -30.2697  -16.8352   19.1857 C   0  0  0  0  0  0
  -28.1032  -23.8854   19.3170 C   0  0  0  0  0  0
  -29.1268  -24.0633   21.1249 C   0  0  0  0  0  0
  -28.0311  -24.9425   20.4559 C   0  0  2  0  0  0
  -28.6614  -21.5547   20.4478 C   0  0  0  0  0  0
  -29.7144  -19.0971   20.2137 N   0  0  0  0  0  0
  -29.9121  -15.9135   20.2893 N   0  0  0  0  0  0
  -29.0329  -23.0044   20.0816 N   0  3  1  0  0  0
  -30.6865  -20.9788   19.3760 O   0  0  0  0  0  0
  -31.4665  -12.5548   19.1778 H   0  0  0  0  0  0
  -30.3569  -11.4773   19.9695 H   0  0  0  0  0  0
  -29.7833  -11.7189   17.5304 H   0  0  0  0  0  0
  -29.6377  -13.4490   17.7197 H   0  0  0  0  0  0
  -27.8867  -11.2837   18.9236 H   0  0  0  0  0  0
  -27.3710  -12.5196   17.8081 H   0  0  0  0  0  0
  -27.6305  -14.2575   19.4760 H   0  0  0  0  0  0
  -28.7179  -12.1817   21.4325 H   0  0  0  0  0  0
  -28.4226  -13.8639   21.7955 H   0  0  0  0  0  0
  -25.2767   -9.5679   22.4762 H   0  0  0  0  0  0
  -24.0016   -7.4613   22.7470 H   0  0  0  0  0  0
  -21.0840   -8.8771   19.8946 H   0  0  0  0  0  0
  -22.3684  -10.9690   19.6184 H   0  0  0  0  0  0
  -21.1979   -7.6149   23.9705 H   0  0  0  0  0  0
  -21.1493   -6.0535   25.9074 H   0  0  0  0  0  0
  -22.0596   -2.7619   23.2850 H   0  0  0  0  0  0
  -22.4103  -11.9841   22.4759 H   0  0  0  0  0  0
  -21.1087  -13.1204   22.2730 H   0  0  0  0  0  0
  -24.6622  -15.8568   20.5317 H   0  0  0  0  0  0
  -26.2849  -15.6235   20.1114 H   0  0  0  0  0  0
  -26.7141  -32.5423   23.1088 H   0  0  0  0  0  0
  -24.9958  -33.9730   25.0342 H   0  0  0  0  0  0
  -22.7167  -31.2975   21.3983 H   0  0  0  0  0  0
  -23.3748  -35.9640   23.3309 H   0  0  0  0  0  0
  -24.3588  -36.8923   22.2064 H   0  0  0  0  0  0
  -23.7256  -37.6509   23.6665 H   0  0  0  0  0  0
  -26.0926  -31.5372   20.5993 H   0  0  0  0  0  0
  -26.8486  -30.8351   21.9969 H   0  0  0  0  0  0
  -28.1125  -28.9465   21.2070 H   0  0  0  0  0  0
  -25.9765  -25.9007   19.0179 H   0  0  0  0  0  0
  -23.9747  -27.3024   19.0010 H   0  0  0  0  0  0
  -23.7442  -30.5810   19.3988 H   0  0  0  0  0  0
  -22.7550  -29.2293   19.8682 H   0  0  0  0  0  0
  -25.1304  -36.1947   25.0809 H   0  0  0  0  0  0
  -20.9930  -28.3256   24.1407 H   0  0  0  0  0  0
  -20.5705  -26.2301   23.3582 H   0  0  0  0  0  0
  -21.6636  -26.7469   22.1177 H   0  0  0  0  0  0
  -19.6895  -25.6254   21.1263 H   0  0  0  0  0  0
  -19.6630  -27.3159   20.6747 H   0  0  0  0  0  0
  -17.4176  -26.6545   21.4135 H   0  0  0  0  0  0
  -18.0393  -26.0097   22.9168 H   0  0  0  0  0  0
  -19.7906  -30.7320   24.2186 H   0  0  0  0  0  0
  -17.4995  -31.6334   24.5051 H   0  0  0  0  0  0
  -15.5328  -30.3012   23.7657 H   0  0  0  0  0  0
  -15.8616  -28.0792   22.7169 H   0  0  0  0  0  0
  -24.5864  -30.7071   25.7762 H   0  0  0  0  0  0
  -24.8860  -32.2892   26.4846 H   0  0  0  0  0  0
  -25.7995  -30.8919   27.0225 H   0  0  0  0  0  0
  -26.2857  -29.6797   24.1125 H   0  0  0  0  0  0
  -27.3929  -29.7215   25.4655 H   0  0  0  0  0  0
  -27.8752  -30.4301   23.9409 H   0  0  0  0  0  0
  -27.2625  -33.3634   26.2032 H   0  0  0  0  0  0
  -28.3813  -32.6879   25.0282 H   0  0  0  0  0  0
  -28.0687  -31.8465   26.5395 H   0  0  0  0  0  0
  -28.2607  -38.0098   24.7488 H   0  0  0  0  0  0
  -28.1066  -36.2632   24.6316 H   0  0  0  0  0  0
  -27.2301  -37.1491   25.8870 H   0  0  0  0  0  0
  -20.9378  -29.8763   21.6856 H   0  0  0  0  0  0
  -26.0180  -38.2856   24.1376 H   0  0  0  0  0  0
  -28.5084  -18.7608   21.9185 H   0  0  0  0  0  0
  -27.8320  -18.2093   20.4210 H   0  0  0  0  0  0
  -31.2812  -18.6973   18.8201 H   0  0  0  0  0  0
  -31.5644  -18.1069   20.4294 H   0  0  0  0  0  0
  -28.3261  -16.1781   21.6726 H   0  0  0  0  0  0
  -29.8721  -16.7643   22.2048 H   0  0  0  0  0  0
  -29.3950  -16.9682   18.5472 H   0  0  0  0  0  0
  -31.0252  -16.3887   18.5354 H   0  0  0  0  0  0
  -28.5735  -24.2750   18.4130 H   0  0  0  0  0  0
  -27.1403  -23.4302   19.0910 H   0  0  0  0  0  0
  -28.8551  -23.7189   22.1230 H   0  0  0  0  0  0
  -30.1096  -24.5334   21.1267 H   0  0  0  0  0  0
  -27.1037  -24.8253   21.0225 H   0  0  0  0  0  0
  -28.5104  -21.4705   21.5218 H   0  0  0  0  0  0
  -27.7135  -21.2957   19.9764 H   0  0  0  0  0  0
  -29.9124  -22.9348   19.5844 H   0  0  0  0  0  0
  1 25  1  0  0  0
  1 30  2  0  0  0
  1 81  1  0  0  0
  2  3  1  0  0  0
  2 25  1  0  0  0
  2 84  1  0  0  0
  2 85  1  0  0  0
  3  4  1  0  0  0
  3 86  1  0  0  0
  3 87  1  0  0  0
  4  5  1  0  0  0
  4 88  1  0  0  0
  4 89  1  0  0  0
  5  6  1  0  0  0
  5 26  1  0  0  0
  5 90  1  0  0  0
  6 25  1  0  0  0
  6 91  1  0  0  0
  6 92  1  0  0  0
  7  8  2  0  0  0
  7 26  1  0  0  0
  7 29  1  0  0  0
  8  9  1  0  0  0
  8 22  1  0  0  0
  9 10  1  0  0  0
  9 27  2  0  0  0
 10 11  2  0  0  0
 10 15  1  0  0  0
 11 12  1  0  0  0
 11 93  1  0  0  0
 12 13  2  0  0  0
 12 94  1  0  0  0
 13 14  1  0  0  0
 13 31  1  0  0  0
 14 15  2  0  0  0
 14 95  1  0  0  0
 15 96  1  0  0  0
 16 17  2  0  0  0
 16 21  1  0  0  0
 16 31  1  0  0  0
 17 18  1  0  0  0
 17 97  1  0  0  0
 18 19  2  0  0  0
 18 98  1  0  0  0
 19 20  1  0  0  0
 19 24  1  0  0  0
 20 21  2  0  0  0
 20 99  1  0  0  0
 21 23  1  0  0  0
 22 28  1  0  0  0
 22 32  2  0  0  0
 26 27  1  0  0  0
 28100  1  0  0  0
 28101  1  0  0  0
 29102  1  0  0  0
 29103  1  0  0  0
 33 34  1  0  0  0
 33 66  1  0  0  0
 33 70  2  0  0  0
 34 36  1  0  0  0
 34 59  1  0  0  0
 34104  1  0  0  0
 35 44  2  0  0  0
 35 45  1  0  0  0
 35 68  1  0  0  0
 36 56  1  0  0  0
 36105  1  0  0  0
 37 39  1  0  0  0
 37 47  1  0  0  0
 37 66  1  0  0  0
 37106  1  0  0  0
 38 43  2  0  0  0
 38 46  1  0  0  0
 38 47  1  0  0  0
 39 64  1  0  0  0
 39 67  2  0  0  0
 40 52  1  0  0  0
 40 53  2  0  0  0
 40 58  1  0  0  0
 41107  1  0  0  0
 41108  1  0  0  0
 41109  1  0  0  0
 41 48  1  0  0  0
 42 43  1  0  0  0
 42 66  1  0  0  0
 42110  1  0  0  0
 42111  1  0  0  0
 43 44  1  0  0  0
 44112  1  0  0  0
 45 46  2  0  0  0
 45113  1  0  0  0
 46114  1  0  0  0
 47115  1  0  0  0
 47116  1  0  0  0
 48 56  1  0  0  0
 48 65  1  0  0  0
 48117  1  0  0  0
 49 50  1  0  0  0
 49 53  1  0  0  0
 49 64  1  0  0  0
 49118  1  0  0  0
 50 51  1  0  0  0
 50119  1  0  0  0
 50120  1  0  0  0
 51 52  1  0  0  0
 51121  1  0  0  0
 51122  1  0  0  0
 52123  1  0  0  0
 52124  1  0  0  0
 53 54  1  0  0  0
 54 55  2  0  0  0
 54125  1  0  0  0
 55 57  1  0  0  0
 55126  1  0  0  0
 56 69  2  0  0  0
 57 58  2  0  0  0
 57127  1  0  0  0
 58128  1  0  0  0
 59 60  1  0  0  0
 59 61  1  0  0  0
 59 62  1  0  0  0
 60129  1  0  0  0
 60130  1  0  0  0
 60131  1  0  0  0
 61132  1  0  0  0
 61133  1  0  0  0
 61134  1  0  0  0
 62135  1  0  0  0
 62136  1  0  0  0
 62137  1  0  0  0
 63 65  1  0  0  0
 63138  1  0  0  0
 63139  1  0  0  0
 63140  1  0  0  0
 64141  1  0  0  0
 65142  1  0  0  0
 68 78  1  0  0  0
 71 79  1  0  0  0
 71 80  1  0  0  0
 71 83  2  0  0  0
 72 74  1  0  0  0
 72 80  1  0  0  0
 72143  1  0  0  0
 72144  1  0  0  0
 73 75  1  0  0  0
 73 80  1  0  0  0
 73145  1  0  0  0
 73146  1  0  0  0
 74 81  1  0  0  0
 74147  1  0  0  0
 74148  1  0  0  0
 75 81  1  0  0  0
 75149  1  0  0  0
 75150  1  0  0  0
 76 78  1  0  0  0
 76 82  1  0  0  0
 76151  1  0  0  0
 76152  1  0  0  0
 77 78  1  0  0  0
 77 82  1  0  0  0
 77153  1  0  0  0
 77154  1  0  0  0
 78155  1  0  0  0
 79156  1  0  0  0
 79157  1  0  0  0
 79 82  1  0  0  0
 82158  1  0  0  0
M  CHG  1  82   1
M  ISO  4   1 100  68 101  78 101  81 100
M  END
> <chiral flag>
0

> <version>
0

> <s_m_source_file>
/data/baiqing/PycharmProjects/Reinvent-master-3.2/result/LINK_invent/BTK/process_docking_weight1_custom_sum_contain_oxygen_bond_distance_aromatic_linkinvent_7_9_3/rearranged_h_0189.sdf

> <i_m_source_file_index>
64

> <r_mmod_Potential_Energy-OPLS-2005>
128.218856811523

> <r_mmod_Stretch_Energy-OPLS-2005>
110.457542419434

> <r_mmod_Bend_Energy-OPLS-2005>
192.938049316406

> <r_mmod_Torsional_Energy-OPLS-2005>
429.277984619141

> <r_mmod_Improper_Torsional_Energy-OPLS-2005>
19.4189605712891

> <r_mmod_Van_der_Waal_Energy-OPLS-2005>
135.722763061523

> <r_mmod_Electrostatic_Energy-OPLS-2005>
-363.441833496094

> <r_mmod_Solvation_Energy-OPLS-2005>
-476.308532714844

> <b_mmod_Minimization_Converged-OPLS-2005>
0

> <r_mmod_RMS_Derivative-OPLS-2005>
2.7497410774231

$$$$
65
                    3D
 Structure written by MMmdl.
151160  0  0  1  0            999 V2000
  -30.4573  -15.1359   20.4534 C   0  0  0  0  0  0
  -30.4420  -12.7271   19.5270 C   0  0  0  0  0  0
  -29.5406  -12.5794   18.2768 C   0  0  0  0  0  0
  -28.0788  -12.3263   18.6843 C   0  0  0  0  0  0
  -27.6250  -13.2590   19.8377 C   0  0  2  0  0  0
  -28.6532  -13.3467   20.9834 C   0  0  0  0  0  0
  -25.2460  -13.8220   20.5680 C   0  0  0  0  0  0
  -24.1780  -13.0449   20.9220 C   0  0  0  0  0  0
  -24.6387  -11.6928   20.8718 C   0  0  0  0  0  0
  -23.9083  -10.4283   21.0361 C   0  0  0  0  0  0
  -24.3647   -9.4215   21.9150 C   0  0  0  0  0  0
  -23.6297   -8.2256   22.0720 C   0  0  0  0  0  0
  -22.4289   -8.0264   21.3499 C   0  0  0  0  0  0
  -21.9917   -9.0261   20.4627 C   0  0  0  0  0  0
  -22.7253  -10.2137   20.3007 C   0  0  0  0  0  0
  -21.6849   -6.0729   22.5257 C   0  0  0  0  0  0
  -21.4027   -6.5628   23.8208 C   0  0  0  0  0  0
  -21.3672   -5.6766   24.9164 C   0  0  0  0  0  0
  -21.6028   -4.3029   24.7199 C   0  0  0  0  0  0
  -21.8843   -3.8135   23.4324 C   0  0  0  0  0  0
  -21.9221   -4.6956   22.3378 C   0  0  0  0  0  0
  -22.7811  -13.5215   21.1868 C   0  0  0  0  0  0
  -22.1674   -4.2146   21.0946 F   0  0  0  0  0  0
  -21.5642   -3.4511   25.7719 F   0  0  0  0  0  0
  -29.8958  -13.8414   20.3792 N   0  0  0  0  0  0
  -26.2866  -12.9446   20.3216 N   0  0  0  0  0  0
  -25.9323  -11.6585   20.5707 N   0  0  0  0  0  0
  -22.0445  -12.8237   22.0429 N   0  0  0  0  0  0
  -25.4171  -15.1923   20.4012 N   0  0  0  0  0  0
  -31.6674  -15.1754   20.1958 O   0  0  0  0  0  0
  -21.6636   -6.8867   21.4208 O   0  0  0  0  0  0
  -22.3513  -14.5507   20.6711 O   0  0  0  0  0  0
  -24.6558  -31.8313   23.1713 C   0  0  0  0  0  0
  -25.9260  -32.4659   23.8148 C   0  0  1  0  0  0
  -27.1910  -26.9824   20.2347 C   0  0  0  0  0  0
  -25.5957  -33.8466   24.2064 N   0  0  0  0  0  0
  -23.4655  -30.4528   21.5145 C   0  0  2  0  0  0
  -24.9149  -28.8435   20.1147 C   0  0  0  0  0  0
  -22.7630  -29.4542   22.4712 C   0  0  0  0  0  0
  -18.0344  -28.1473   22.8473 C   0  0  0  0  0  0
  -24.1459  -36.7286   23.2655 C   0  0  0  0  0  0
  -26.0293  -30.6649   21.3853 C   0  0  0  0  0  0
  -26.0921  -29.2554   20.7496 C   0  0  0  0  0  0
  -27.2337  -28.3510   20.7739 C   0  0  0  0  0  0
  -25.9922  -26.6990   19.5472 C   0  0  0  0  0  0
  -24.8873  -27.5859   19.4876 C   0  0  0  0  0  0
  -23.7029  -29.7724   20.1359 C   0  0  0  0  0  0
  -25.4098  -36.3011   24.0291 C   0  0  1  0  0  0
  -20.5979  -28.3826   23.1179 C   0  0  2  0  0  0
  -20.6868  -26.9503   22.5397 C   0  0  0  0  0  0
  -19.5814  -26.6424   21.5241 C   0  0  0  0  0  0
  -18.1991  -26.8001   22.1619 C   0  0  0  0  0  0
  -19.1600  -28.8944   23.2854 C   0  0  0  0  0  0
  -18.9526  -30.1535   23.8903 C   0  0  0  0  0  0
  -17.6528  -30.6658   24.0577 C   0  0  0  0  0  0
  -25.9071  -34.9393   23.4996 C   0  0  0  0  0  0
  -16.5433  -29.9157   23.6348 C   0  0  0  0  0  0
  -16.7332  -28.6578   23.0362 C   0  0  0  0  0  0
  -26.4514  -31.6565   25.0662 C   0  0  0  0  0  0
  -25.3629  -31.3905   26.1312 C   0  0  0  0  0  0
  -27.0395  -30.2929   24.6383 C   0  0  0  0  0  0
  -27.6018  -32.4340   25.7501 C   0  0  0  0  0  0
  -27.5546  -37.1774   24.8465 C   0  0  0  0  0  0
  -21.4301  -29.3135   22.3520 N   0  0  0  0  0  0
  -26.4240  -37.3742   23.9434 N   0  0  0  0  0  0
  -24.7391  -31.0074   22.0798 N   0  0  0  0  0  0
  -23.4240  -28.8131   23.2917 O   0  0  0  0  0  0
  -28.2303  -25.9388   20.2305 O   0  0  0  0  0  0
  -26.5700  -34.8924   22.4617 O   0  0  0  0  0  0
  -23.5626  -32.1247   23.6852 O   0  0  0  0  0  0
  -25.9988  -22.3984   19.6848 C   0  0  0  0  0  0
  -25.9898  -21.4196   20.6988 C   0  0  0  0  0  0
  -28.2193  -22.8867   20.1418 C   0  0  0  0  0  0
  -28.3035  -21.4354   20.7296 C   0  0  0  0  0  0
  -29.6266  -17.5509   19.5613 C   0  0  0  0  0  0
  -29.7982  -17.5761   21.5360 C   0  0  0  0  0  0
  -28.9901  -18.6185   20.5959 C   0  0  0  0  0  0
  -28.2002  -24.4418   20.8697 C   0  0  0  0  0  0
  -27.1345  -23.0621   19.3400 N   0  0  0  0  0  0
  -27.1421  -20.9197   21.2041 N   0  0  0  0  0  0
  -29.6695  -16.3783   20.5606 N   0  0  0  0  0  0
  -29.2193  -20.2307   20.4958 N   0  0  0  0  0  0
  -31.4634  -12.9337   19.2045 H   0  0  0  0  0  0
  -30.4941  -11.7903   20.0868 H   0  0  0  0  0  0
  -29.9050  -11.7702   17.6461 H   0  0  0  0  0  0
  -29.6045  -13.4894   17.6767 H   0  0  0  0  0  0
  -28.0042  -11.2844   19.0015 H   0  0  0  0  0  0
  -27.4205  -12.4381   17.8242 H   0  0  0  0  0  0
  -27.5744  -14.2566   19.3993 H   0  0  0  0  0  0
  -28.7880  -12.3802   21.4753 H   0  0  0  0  0  0
  -28.3056  -14.0401   21.7526 H   0  0  0  0  0  0
  -25.2797   -9.5713   22.4748 H   0  0  0  0  0  0
  -24.0034   -7.4632   22.7432 H   0  0  0  0  0  0
  -21.0854   -8.8776   19.8909 H   0  0  0  0  0  0
  -22.3693  -10.9692   19.6135 H   0  0  0  0  0  0
  -21.1997   -7.6139   23.9715 H   0  0  0  0  0  0
  -21.1467   -6.0485   25.9077 H   0  0  0  0  0  0
  -22.0617   -2.7595   23.2809 H   0  0  0  0  0  0
  -22.4095  -11.9953   22.4879 H   0  0  0  0  0  0
  -21.1023  -13.1226   22.2526 H   0  0  0  0  0  0
  -24.6595  -15.8590   20.4919 H   0  0  0  0  0  0
  -26.2772  -15.6113   20.0689 H   0  0  0  0  0  0
  -26.7354  -32.5208   23.0885 H   0  0  0  0  0  0
  -25.0018  -33.9557   25.0157 H   0  0  0  0  0  0
  -22.7785  -31.2888   21.3430 H   0  0  0  0  0  0
  -23.3710  -35.9643   23.3303 H   0  0  0  0  0  0
  -24.3550  -36.8941   22.2084 H   0  0  0  0  0  0
  -23.7212  -37.6468   23.6714 H   0  0  0  0  0  0
  -26.1920  -31.3947   20.5918 H   0  0  0  0  0  0
  -26.9026  -30.7298   22.0209 H   0  0  0  0  0  0
  -28.1371  -28.6859   21.2627 H   0  0  0  0  0  0
  -25.8936  -25.7341   19.0738 H   0  0  0  0  0  0
  -23.9934  -27.2722   18.9647 H   0  0  0  0  0  0
  -23.8723  -30.5424   19.3831 H   0  0  0  0  0  0
  -22.8117  -29.2321   19.8083 H   0  0  0  0  0  0
  -25.1276  -36.1813   25.0770 H   0  0  0  0  0  0
  -21.0109  -28.3473   24.1276 H   0  0  0  0  0  0
  -20.5840  -26.2459   23.3666 H   0  0  0  0  0  0
  -21.6730  -26.7555   22.1127 H   0  0  0  0  0  0
  -19.7020  -25.6314   21.1313 H   0  0  0  0  0  0
  -19.6744  -27.3242   20.6786 H   0  0  0  0  0  0
  -17.4279  -26.6792   21.4016 H   0  0  0  0  0  0
  -18.0317  -26.0166   22.9027 H   0  0  0  0  0  0
  -19.8028  -30.7360   24.2235 H   0  0  0  0  0  0
  -17.5112  -31.6301   24.5250 H   0  0  0  0  0  0
  -15.5443  -30.3088   23.7679 H   0  0  0  0  0  0
  -15.8738  -28.0940   22.7038 H   0  0  0  0  0  0
  -24.5794  -30.7275   25.7625 H   0  0  0  0  0  0
  -24.8838  -32.3139   26.4536 H   0  0  0  0  0  0
  -25.7775  -30.9183   27.0206 H   0  0  0  0  0  0
  -26.3036  -29.6636   24.1359 H   0  0  0  0  0  0
  -27.3915  -29.7274   25.5009 H   0  0  0  0  0  0
  -27.8962  -30.4130   23.9773 H   0  0  0  0  0  0
  -27.2609  -33.3729   26.1889 H   0  0  0  0  0  0
  -28.3937  -32.6747   25.0402 H   0  0  0  0  0  0
  -28.0539  -31.8565   26.5551 H   0  0  0  0  0  0
  -28.2522  -38.0098   24.7478 H   0  0  0  0  0  0
  -28.1022  -36.2604   24.6264 H   0  0  0  0  0  0
  -27.2268  -37.1425   25.8862 H   0  0  0  0  0  0
  -20.9568  -29.8831   21.6654 H   0  0  0  0  0  0
  -26.0095  -38.2802   24.1460 H   0  0  0  0  0  0
  -25.0796  -22.6879   19.1961 H   0  0  0  0  0  0
  -25.0596  -20.9791   21.0319 H   0  0  0  0  0  0
  -28.9782  -17.3686   18.7048 H   0  0  0  0  0  0
  -30.6163  -17.8363   19.1930 H   0  0  0  0  0  0
  -29.3008  -17.4163   22.4931 H   0  0  0  0  0  0
  -30.8368  -17.8562   21.7307 H   0  0  0  0  0  0
  -27.9222  -18.4282   20.6896 H   0  0  0  0  0  0
  -27.3691  -24.4406   21.5799 H   0  0  0  0  0  0
  -29.0804  -24.4212   21.5142 H   0  0  0  0  0  0
  -30.0734  -20.4784   20.0007 H   0  0  0  0  0  0
  1 25  1  0  0  0
  1 30  2  0  0  0
  1 81  1  0  0  0
  2  3  1  0  0  0
  2 25  1  0  0  0
  2 83  1  0  0  0
  2 84  1  0  0  0
  3  4  1  0  0  0
  3 85  1  0  0  0
  3 86  1  0  0  0
  4  5  1  0  0  0
  4 87  1  0  0  0
  4 88  1  0  0  0
  5  6  1  0  0  0
  5 26  1  0  0  0
  5 89  1  0  0  0
  6 25  1  0  0  0
  6 90  1  0  0  0
  6 91  1  0  0  0
  7  8  2  0  0  0
  7 26  1  0  0  0
  7 29  1  0  0  0
  8  9  1  0  0  0
  8 22  1  0  0  0
  9 10  1  0  0  0
  9 27  2  0  0  0
 10 11  2  0  0  0
 10 15  1  0  0  0
 11 12  1  0  0  0
 11 92  1  0  0  0
 12 13  2  0  0  0
 12 93  1  0  0  0
 13 14  1  0  0  0
 13 31  1  0  0  0
 14 15  2  0  0  0
 14 94  1  0  0  0
 15 95  1  0  0  0
 16 17  2  0  0  0
 16 21  1  0  0  0
 16 31  1  0  0  0
 17 18  1  0  0  0
 17 96  1  0  0  0
 18 19  2  0  0  0
 18 97  1  0  0  0
 19 20  1  0  0  0
 19 24  1  0  0  0
 20 21  2  0  0  0
 20 98  1  0  0  0
 21 23  1  0  0  0
 22 28  1  0  0  0
 22 32  2  0  0  0
 26 27  1  0  0  0
 28 99  1  0  0  0
 28100  1  0  0  0
 29101  1  0  0  0
 29102  1  0  0  0
 33 34  1  0  0  0
 33 66  1  0  0  0
 33 70  2  0  0  0
 34 36  1  0  0  0
 34 59  1  0  0  0
 34103  1  0  0  0
 35 44  2  0  0  0
 35 45  1  0  0  0
 35 68  1  0  0  0
 36 56  1  0  0  0
 36104  1  0  0  0
 37 39  1  0  0  0
 37 47  1  0  0  0
 37 66  1  0  0  0
 37105  1  0  0  0
 38 43  2  0  0  0
 38 46  1  0  0  0
 38 47  1  0  0  0
 39 64  1  0  0  0
 39 67  2  0  0  0
 40 52  1  0  0  0
 40 53  2  0  0  0
 40 58  1  0  0  0
 41106  1  0  0  0
 41107  1  0  0  0
 41108  1  0  0  0
 41 48  1  0  0  0
 42 43  1  0  0  0
 42 66  1  0  0  0
 42109  1  0  0  0
 42110  1  0  0  0
 43 44  1  0  0  0
 44111  1  0  0  0
 45 46  2  0  0  0
 45112  1  0  0  0
 46113  1  0  0  0
 47114  1  0  0  0
 47115  1  0  0  0
 48 56  1  0  0  0
 48 65  1  0  0  0
 48116  1  0  0  0
 49 50  1  0  0  0
 49 53  1  0  0  0
 49 64  1  0  0  0
 49117  1  0  0  0
 50 51  1  0  0  0
 50118  1  0  0  0
 50119  1  0  0  0
 51 52  1  0  0  0
 51120  1  0  0  0
 51121  1  0  0  0
 52122  1  0  0  0
 52123  1  0  0  0
 53 54  1  0  0  0
 54 55  2  0  0  0
 54124  1  0  0  0
 55 57  1  0  0  0
 55125  1  0  0  0
 56 69  2  0  0  0
 57 58  2  0  0  0
 57126  1  0  0  0
 58127  1  0  0  0
 59 60  1  0  0  0
 59 61  1  0  0  0
 59 62  1  0  0  0
 60128  1  0  0  0
 60129  1  0  0  0
 60130  1  0  0  0
 61131  1  0  0  0
 61132  1  0  0  0
 61133  1  0  0  0
 62134  1  0  0  0
 62135  1  0  0  0
 62136  1  0  0  0
 63 65  1  0  0  0
 63137  1  0  0  0
 63138  1  0  0  0
 63139  1  0  0  0
 64140  1  0  0  0
 65141  1  0  0  0
 68 78  1  0  0  0
 71 72  2  0  0  0
 71 79  1  0  0  0
 71142  1  0  0  0
 72 80  1  0  0  0
 72143  1  0  0  0
 73 74  1  0  0  0
 73 78  1  0  0  0
 73 79  2  0  0  0
 74 80  2  0  0  0
 74 82  1  0  0  0
 75 77  1  0  0  0
 75 81  1  0  0  0
 75144  1  0  0  0
 75145  1  0  0  0
 76 77  1  0  0  0
 76 81  1  0  0  0
 76146  1  0  0  0
 76147  1  0  0  0
 77 82  1  0  0  0
 77148  1  0  0  0
 78149  1  0  0  0
 78150  1  0  0  0
 82151  1  0  0  0
M  ISO  4   1 100  68 101  78 101  81 100
M  END
> <chiral flag>
0

> <version>
0

> <s_m_source_file>
/data/baiqing/PycharmProjects/Reinvent-master-3.2/result/LINK_invent/BTK/process_docking_weight1_custom_sum_contain_oxygen_bond_distance_aromatic_linkinvent_7_9_3/rearranged_h_0189.sdf

> <i_m_source_file_index>
65

> <r_mmod_Potential_Energy-OPLS-2005>
1306.365234375

> <r_mmod_Stretch_Energy-OPLS-2005>
445.793243408203

> <r_mmod_Bend_Energy-OPLS-2005>
440.374938964844

> <r_mmod_Torsional_Energy-OPLS-2005>
431.860443115234

> <r_mmod_Improper_Torsional_Energy-OPLS-2005>
31.6479892730713

> <r_mmod_Van_der_Waal_Energy-OPLS-2005>
128.675720214844

> <r_mmod_Electrostatic_Energy-OPLS-2005>
-285.343841552734

> <r_mmod_Solvation_Energy-OPLS-2005>
-231.640365600586

> <b_mmod_Minimization_Converged-OPLS-2005>
0

> <r_mmod_RMS_Derivative-OPLS-2005>
7.28466606140137

$$$$
66
                    3D
 Structure written by MMmdl.
162171  0  0  1  0            999 V2000
  -30.5727  -14.7958   20.4864 C   0  0  0  0  0  0
  -30.4343  -12.4942   19.4848 C   0  0  0  0  0  0
  -29.5148  -12.5414   18.2438 C   0  0  0  0  0  0
  -28.0354  -12.3726   18.6472 C   0  0  0  0  0  0
  -27.6427  -13.2406   19.8734 C   0  0  2  0  0  0
  -28.6886  -13.1378   21.0041 C   0  0  0  0  0  0
  -25.2502  -13.8231   20.5754 C   0  0  0  0  0  0
  -24.1774  -13.0457   20.9164 C   0  0  0  0  0  0
  -24.6387  -11.6933   20.8743 C   0  0  0  0  0  0
  -23.9069  -10.4300   21.0398 C   0  0  0  0  0  0
  -24.3606   -9.4202   21.9175 C   0  0  0  0  0  0
  -23.6265   -8.2247   22.0736 C   0  0  0  0  0  0
  -22.4243   -8.0290   21.3527 C   0  0  0  0  0  0
  -21.9912   -9.0271   20.4629 C   0  0  0  0  0  0
  -22.7252  -10.2143   20.3038 C   0  0  0  0  0  0
  -21.6860   -6.0737   22.5265 C   0  0  0  0  0  0
  -21.4038   -6.5639   23.8213 C   0  0  0  0  0  0
  -21.3647   -5.6783   24.9168 C   0  0  0  0  0  0
  -21.6025   -4.3053   24.7214 C   0  0  0  0  0  0
  -21.8828   -3.8145   23.4331 C   0  0  0  0  0  0
  -21.9194   -4.6973   22.3389 C   0  0  0  0  0  0
  -22.7811  -13.5239   21.1818 C   0  0  0  0  0  0
  -22.1660   -4.2159   21.0971 F   0  0  0  0  0  0
  -21.5589   -3.4531   25.7725 F   0  0  0  0  0  0
  -29.9710  -13.5487   20.4246 N   0  0  0  0  0  0
  -26.2935  -12.9449   20.3433 N   0  0  0  0  0  0
  -25.9327  -11.6577   20.5813 N   0  0  0  0  0  0
  -22.0454  -12.8221   22.0382 N   0  0  0  0  0  0
  -25.4244  -15.1958   20.4208 N   0  0  0  0  0  0
  -31.7457  -14.8875   20.1023 O   0  0  0  0  0  0
  -21.6610   -6.8885   21.4226 O   0  0  0  0  0  0
  -22.3502  -14.5552   20.6691 O   0  0  0  0  0  0
  -24.6349  -31.8500   23.1945 C   0  0  0  0  0  0
  -25.9160  -32.4736   23.8301 C   0  0  1  0  0  0
  -27.2149  -27.2047   20.1378 C   0  0  0  0  0  0
  -25.5957  -33.8538   24.2221 N   0  0  0  0  0  0
  -23.4365  -30.4663   21.5406 C   0  0  2  0  0  0
  -24.8832  -28.9047   20.1062 C   0  0  0  0  0  0
  -22.7526  -29.4569   22.4927 C   0  0  0  0  0  0
  -18.0291  -28.1418   22.8511 C   0  0  0  0  0  0
  -24.1478  -36.7245   23.2635 C   0  0  0  0  0  0
  -25.9840  -30.7399   21.3824 C   0  0  0  0  0  0
  -26.0523  -29.3563   20.7287 C   0  0  0  0  0  0
  -27.2135  -28.5124   20.7451 C   0  0  0  0  0  0
  -26.0278  -26.8375   19.4689 C   0  0  0  0  0  0
  -24.8793  -27.6561   19.4637 C   0  0  0  0  0  0
  -23.6547  -29.7938   20.1579 C   0  0  0  0  0  0
  -25.4117  -36.3044   24.0307 C   0  0  1  0  0  0
  -20.5892  -28.3733   23.1292 C   0  0  2  0  0  0
  -20.6802  -26.9455   22.5438 C   0  0  0  0  0  0
  -19.5765  -26.6410   21.5254 C   0  0  0  0  0  0
  -18.1931  -26.7966   22.1640 C   0  0  0  0  0  0
  -19.1544  -28.8884   23.2889 C   0  0  0  0  0  0
  -18.9453  -30.1484   23.8904 C   0  0  0  0  0  0
  -17.6445  -30.6613   24.0583 C   0  0  0  0  0  0
  -25.9072  -34.9421   23.5065 C   0  0  0  0  0  0
  -16.5341  -29.9103   23.6358 C   0  0  0  0  0  0
  -16.7267  -28.6518   23.0383 C   0  0  0  0  0  0
  -26.4505  -31.6589   25.0706 C   0  0  0  0  0  0
  -25.3698  -31.3708   26.1388 C   0  0  0  0  0  0
  -27.0380  -30.3007   24.6239 C   0  0  0  0  0  0
  -27.6031  -32.4345   25.7500 C   0  0  0  0  0  0
  -27.5567  -37.1775   24.8466 C   0  0  0  0  0  0
  -21.4225  -29.3049   22.3669 N   0  0  0  0  0  0
  -26.4277  -37.3760   23.9409 N   0  0  0  0  0  0
  -24.7057  -31.0392   22.0950 N   0  0  0  0  0  0
  -23.4178  -28.8117   23.3062 O   0  0  0  0  0  0
  -28.2890  -26.2789   20.2699 O   0  0  0  0  0  0
  -26.5644  -34.8916   22.4631 O   0  0  0  0  0  0
  -23.5482  -32.1383   23.7177 O   0  0  0  0  0  0
  -27.1796  -22.8567   20.5417 C   0  0  0  0  0  0
  -28.3054  -23.5308   20.0976 C   0  0  0  0  0  0
  -28.7006  -21.2496   20.4054 C   0  0  0  0  0  0
  -28.9664  -17.8952   21.9560 C   0  0  0  0  0  0
  -29.0455  -16.3373   21.8466 C   0  0  0  0  0  0
  -29.9725  -17.2965   19.9118 C   0  0  0  0  0  0
  -29.0260  -18.4442   20.5260 C   0  0  2  0  0  0
  -25.7979  -23.4083   20.7355 C   0  0  0  0  0  0
  -31.4241  -23.5628   20.6722 C   0  0  0  0  0  0
  -28.4595  -25.0063   19.4634 C   0  0  0  0  0  0
  -30.6776  -22.6460   19.6888 C   0  0  0  0  0  0
  -27.4261  -21.4721   20.7205 N   0  0  0  0  0  0
  -29.2860  -22.4661   20.0754 N   0  0  0  0  0  0
  -29.7934  -15.9631   20.6303 N   0  0  0  0  0  0
  -29.3569  -19.9385   20.3825 N   0  0  0  0  0  0
  -31.4728  -12.6341   19.1784 H   0  0  0  0  0  0
  -30.3970  -11.5125   19.9598 H   0  0  0  0  0  0
  -29.7971  -11.7648   17.5324 H   0  0  0  0  0  0
  -29.6549  -13.4955   17.7331 H   0  0  0  0  0  0
  -27.8703  -11.3170   18.8670 H   0  0  0  0  0  0
  -27.3904  -12.6137   17.8015 H   0  0  0  0  0  0
  -27.6442  -14.2745   19.5265 H   0  0  0  0  0  0
  -28.7432  -12.1155   21.3815 H   0  0  0  0  0  0
  -28.4130  -13.7449   21.8625 H   0  0  0  0  0  0
  -25.2748   -9.5652   22.4780 H   0  0  0  0  0  0
  -23.9955   -7.4639   22.7457 H   0  0  0  0  0  0
  -21.0842   -8.8791   19.8935 H   0  0  0  0  0  0
  -22.3710  -10.9675   19.6148 H   0  0  0  0  0  0
  -21.2067   -7.6152   23.9730 H   0  0  0  0  0  0
  -21.1448   -6.0498   25.9066 H   0  0  0  0  0  0
  -22.0623   -2.7601   23.2826 H   0  0  0  0  0  0
  -22.4110  -11.9885   22.4748 H   0  0  0  0  0  0
  -21.1082  -13.1264   22.2644 H   0  0  0  0  0  0
  -24.6600  -15.8614   20.4786 H   0  0  0  0  0  0
  -26.3063  -15.6308   20.1816 H   0  0  0  0  0  0
  -26.7224  -32.5357   23.1039 H   0  0  0  0  0  0
  -25.0140  -33.9689   25.0397 H   0  0  0  0  0  0
  -22.7377  -31.2911   21.3898 H   0  0  0  0  0  0
  -23.3771  -35.9552   23.3298 H   0  0  0  0  0  0
  -24.3551  -36.8887   22.2054 H   0  0  0  0  0  0
  -23.7231  -37.6431   23.6681 H   0  0  0  0  0  0
  -26.1265  -31.4917   20.6056 H   0  0  0  0  0  0
  -26.8616  -30.7955   22.0153 H   0  0  0  0  0  0
  -28.0971  -28.8416   21.2732 H   0  0  0  0  0  0
  -25.9428  -25.8762   18.9885 H   0  0  0  0  0  0
  -23.9815  -27.3061   18.9709 H   0  0  0  0  0  0
  -23.7776  -30.5677   19.3994 H   0  0  0  0  0  0
  -22.7738  -29.2226   19.8586 H   0  0  0  0  0  0
  -25.1315  -36.1877   25.0803 H   0  0  0  0  0  0
  -20.9961  -28.3334   24.1419 H   0  0  0  0  0  0
  -20.5773  -26.2337   23.3645 H   0  0  0  0  0  0
  -21.6664  -26.7534   22.1187 H   0  0  0  0  0  0
  -19.6952  -25.6319   21.1286 H   0  0  0  0  0  0
  -19.6712  -27.3221   20.6781 H   0  0  0  0  0  0
  -17.4235  -26.6750   21.4007 H   0  0  0  0  0  0
  -18.0279  -26.0100   22.9007 H   0  0  0  0  0  0
  -19.7910  -30.7336   24.2257 H   0  0  0  0  0  0
  -17.4983  -31.6288   24.5212 H   0  0  0  0  0  0
  -15.5333  -30.3005   23.7691 H   0  0  0  0  0  0
  -15.8670  -28.0842   22.7103 H   0  0  0  0  0  0
  -24.5996  -30.6916   25.7702 H   0  0  0  0  0  0
  -24.8721  -32.2835   26.4663 H   0  0  0  0  0  0
  -25.7985  -30.9029   27.0268 H   0  0  0  0  0  0
  -26.2983  -29.6720   24.1256 H   0  0  0  0  0  0
  -27.4064  -29.7277   25.4769 H   0  0  0  0  0  0
  -27.8852  -30.4285   23.9492 H   0  0  0  0  0  0
  -27.2662  -33.3703   26.1966 H   0  0  0  0  0  0
  -28.3897  -32.6820   25.0355 H   0  0  0  0  0  0
  -28.0655  -31.8561   26.5521 H   0  0  0  0  0  0
  -28.2573  -38.0074   24.7532 H   0  0  0  0  0  0
  -28.1066  -36.2614   24.6277 H   0  0  0  0  0  0
  -27.2273  -37.1409   25.8858 H   0  0  0  0  0  0
  -20.9429  -29.8705   21.6816 H   0  0  0  0  0  0
  -26.0142  -38.2820   24.1437 H   0  0  0  0  0  0
  -29.8251  -18.2548   22.5238 H   0  0  0  0  0  0
  -28.0730  -18.2255   22.4898 H   0  0  0  0  0  0
  -28.0370  -15.9314   21.7731 H   0  0  0  0  0  0
  -29.5106  -15.9141   22.7374 H   0  0  0  0  0  0
  -31.0239  -17.5746   19.9845 H   0  0  0  0  0  0
  -29.7548  -17.1508   18.8519 H   0  0  0  0  0  0
  -28.0367  -18.3098   20.0833 H   0  0  0  0  0  0
  -25.2591  -23.4761   19.7897 H   0  0  0  0  0  0
  -25.8271  -24.4079   21.1688 H   0  0  0  0  0  0
  -25.2028  -22.7841   21.4026 H   0  0  0  0  0  0
  -32.4676  -23.6733   20.3767 H   0  0  0  0  0  0
  -31.4052  -23.1513   21.6826 H   0  0  0  0  0  0
  -30.9887  -24.5612   20.7209 H   0  0  0  0  0  0
  -27.8600  -25.0592   18.5570 H   0  0  0  0  0  0
  -29.4722  -25.0879   19.0732 H   0  0  0  0  0  0
  -31.1761  -21.6783   19.6525 H   0  0  0  0  0  0
  -30.7087  -23.0458   18.6750 H   0  0  0  0  0  0
  -30.3403  -20.0508   20.1617 H   0  0  0  0  0  0
  1 25  1  0  0  0
  1 30  2  0  0  0
  1 84  1  0  0  0
  2  3  1  0  0  0
  2 25  1  0  0  0
  2 86  1  0  0  0
  2 87  1  0  0  0
  3  4  1  0  0  0
  3 88  1  0  0  0
  3 89  1  0  0  0
  4  5  1  0  0  0
  4 90  1  0  0  0
  4 91  1  0  0  0
  5  6  1  0  0  0
  5 26  1  0  0  0
  5 92  1  0  0  0
  6 25  1  0  0  0
  6 93  1  0  0  0
  6 94  1  0  0  0
  7  8  2  0  0  0
  7 26  1  0  0  0
  7 29  1  0  0  0
  8  9  1  0  0  0
  8 22  1  0  0  0
  9 10  1  0  0  0
  9 27  2  0  0  0
 10 11  2  0  0  0
 10 15  1  0  0  0
 11 12  1  0  0  0
 11 95  1  0  0  0
 12 13  2  0  0  0
 12 96  1  0  0  0
 13 14  1  0  0  0
 13 31  1  0  0  0
 14 15  2  0  0  0
 14 97  1  0  0  0
 15 98  1  0  0  0
 16 17  2  0  0  0
 16 21  1  0  0  0
 16 31  1  0  0  0
 17 18  1  0  0  0
 17 99  1  0  0  0
 18 19  2  0  0  0
 18100  1  0  0  0
 19 20  1  0  0  0
 19 24  1  0  0  0
 20 21  2  0  0  0
 20101  1  0  0  0
 21 23  1  0  0  0
 22 28  1  0  0  0
 22 32  2  0  0  0
 26 27  1  0  0  0
 28102  1  0  0  0
 28103  1  0  0  0
 29104  1  0  0  0
 29105  1  0  0  0
 33 34  1  0  0  0
 33 66  1  0  0  0
 33 70  2  0  0  0
 34 36  1  0  0  0
 34 59  1  0  0  0
 34106  1  0  0  0
 35 44  2  0  0  0
 35 45  1  0  0  0
 35 68  1  0  0  0
 36 56  1  0  0  0
 36107  1  0  0  0
 37 39  1  0  0  0
 37 47  1  0  0  0
 37 66  1  0  0  0
 37108  1  0  0  0
 38 43  2  0  0  0
 38 46  1  0  0  0
 38 47  1  0  0  0
 39 64  1  0  0  0
 39 67  2  0  0  0
 40 52  1  0  0  0
 40 53  2  0  0  0
 40 58  1  0  0  0
 41109  1  0  0  0
 41110  1  0  0  0
 41111  1  0  0  0
 41 48  1  0  0  0
 42 43  1  0  0  0
 42 66  1  0  0  0
 42112  1  0  0  0
 42113  1  0  0  0
 43 44  1  0  0  0
 44114  1  0  0  0
 45 46  2  0  0  0
 45115  1  0  0  0
 46116  1  0  0  0
 47117  1  0  0  0
 47118  1  0  0  0
 48 56  1  0  0  0
 48 65  1  0  0  0
 48119  1  0  0  0
 49 50  1  0  0  0
 49 53  1  0  0  0
 49 64  1  0  0  0
 49120  1  0  0  0
 50 51  1  0  0  0
 50121  1  0  0  0
 50122  1  0  0  0
 51 52  1  0  0  0
 51123  1  0  0  0
 51124  1  0  0  0
 52125  1  0  0  0
 52126  1  0  0  0
 53 54  1  0  0  0
 54 55  2  0  0  0
 54127  1  0  0  0
 55 57  1  0  0  0
 55128  1  0  0  0
 56 69  2  0  0  0
 57 58  2  0  0  0
 57129  1  0  0  0
 58130  1  0  0  0
 59 60  1  0  0  0
 59 61  1  0  0  0
 59 62  1  0  0  0
 60131  1  0  0  0
 60132  1  0  0  0
 60133  1  0  0  0
 61134  1  0  0  0
 61135  1  0  0  0
 61136  1  0  0  0
 62137  1  0  0  0
 62138  1  0  0  0
 62139  1  0  0  0
 63 65  1  0  0  0
 63140  1  0  0  0
 63141  1  0  0  0
 63142  1  0  0  0
 64143  1  0  0  0
 65144  1  0  0  0
 68 80  1  0  0  0
 71 72  2  0  0  0
 71 78  1  0  0  0
 71 82  1  0  0  0
 72 80  1  0  0  0
 72 83  1  0  0  0
 73 82  2  0  0  0
 73 83  1  0  0  0
 73 85  1  0  0  0
 74 75  1  0  0  0
 74 77  1  0  0  0
 74145  1  0  0  0
 74146  1  0  0  0
 75 84  1  0  0  0
 75147  1  0  0  0
 75148  1  0  0  0
 76 77  1  0  0  0
 76 84  1  0  0  0
 76149  1  0  0  0
 76150  1  0  0  0
 77 85  1  0  0  0
 77151  1  0  0  0
 78152  1  0  0  0
 78153  1  0  0  0
 78154  1  0  0  0
 79 81  1  0  0  0
 79155  1  0  0  0
 79156  1  0  0  0
 79157  1  0  0  0
 80158  1  0  0  0
 80159  1  0  0  0
 81 83  1  0  0  0
 81160  1  0  0  0
 81161  1  0  0  0
 85162  1  0  0  0
M  ISO  4   1 100  68 101  80 101  84 100
M  END
> <chiral flag>
0

> <version>
0

> <s_m_source_file>
/data/baiqing/PycharmProjects/Reinvent-master-3.2/result/LINK_invent/BTK/process_docking_weight1_custom_sum_contain_oxygen_bond_distance_aromatic_linkinvent_7_9_3/rearranged_h_0189.sdf

> <i_m_source_file_index>
66

> <r_mmod_Potential_Energy-OPLS-2005>
326.024291992188

> <r_mmod_Stretch_Energy-OPLS-2005>
151.205062866211

> <r_mmod_Bend_Energy-OPLS-2005>
236.989532470703

> <r_mmod_Torsional_Energy-OPLS-2005>
327.297515869141

> <r_mmod_Improper_Torsional_Energy-OPLS-2005>
12.7891464233398

> <r_mmod_Van_der_Waal_Energy-OPLS-2005>
103.701667785645

> <r_mmod_Electrostatic_Energy-OPLS-2005>
-393.542877197266

> <r_mmod_Solvation_Energy-OPLS-2005>
-227.108703613281

> <b_mmod_Minimization_Converged-OPLS-2005>
0

> <r_mmod_RMS_Derivative-OPLS-2005>
4.05892705917358

$$$$
67
                    3D
 Structure written by MMmdl.
157166  0  0  1  0            999 V2000
  -30.4442  -15.2795   20.4004 C   0  0  0  0  0  0
  -30.4223  -12.8160   19.5515 C   0  0  0  0  0  0
  -29.5401  -12.5872   18.2993 C   0  0  0  0  0  0
  -28.0857  -12.3082   18.7191 C   0  0  0  0  0  0
  -27.6082  -13.2766   19.8328 C   0  0  2  0  0  0
  -28.6300  -13.4612   20.9746 C   0  0  0  0  0  0
  -25.2389  -13.8262   20.5811 C   0  0  0  0  0  0
  -24.1700  -13.0483   20.9280 C   0  0  0  0  0  0
  -24.6325  -11.6972   20.8752 C   0  0  0  0  0  0
  -23.9007  -10.4347   21.0373 C   0  0  0  0  0  0
  -24.3546   -9.4286   21.9168 C   0  0  0  0  0  0
  -23.6270   -8.2305   22.0731 C   0  0  0  0  0  0
  -22.4285   -8.0267   21.3523 C   0  0  0  0  0  0
  -21.9883   -9.0240   20.4639 C   0  0  0  0  0  0
  -22.7162  -10.2164   20.3047 C   0  0  0  0  0  0
  -21.6880   -6.0702   22.5263 C   0  0  0  0  0  0
  -21.4032   -6.5607   23.8200 C   0  0  0  0  0  0
  -21.3672   -5.6752   24.9154 C   0  0  0  0  0  0
  -21.6049   -4.3023   24.7206 C   0  0  0  0  0  0
  -21.8819   -3.8114   23.4328 C   0  0  0  0  0  0
  -21.9212   -4.6939   22.3400 C   0  0  0  0  0  0
  -22.7729  -13.5292   21.1876 C   0  0  0  0  0  0
  -22.1658   -4.2117   21.0967 F   0  0  0  0  0  0
  -21.5657   -3.4494   25.7704 F   0  0  0  0  0  0
  -29.8608  -13.9741   20.3543 N   0  0  0  0  0  0
  -26.2780  -12.9516   20.3242 N   0  0  0  0  0  0
  -25.9262  -11.6632   20.5712 N   0  0  0  0  0  0
  -22.0281  -12.8352   22.0411 N   0  0  0  0  0  0
  -25.4172  -15.1966   20.4241 N   0  0  0  0  0  0
  -31.6523  -15.2326   20.1233 O   0  0  0  0  0  0
  -21.6683   -6.8839   21.4220 O   0  0  0  0  0  0
  -22.3475  -14.5595   20.6672 O   0  0  0  0  0  0
  -24.6639  -31.8239   23.1703 C   0  0  0  0  0  0
  -25.9311  -32.4583   23.8165 C   0  0  1  0  0  0
  -27.2126  -26.8792   20.2159 C   0  0  0  0  0  0
  -25.5985  -33.8412   24.2076 N   0  0  0  0  0  0
  -23.4790  -30.4306   21.5229 C   0  0  2  0  0  0
  -24.9327  -28.8068   20.1154 C   0  0  0  0  0  0
  -22.7661  -29.4444   22.4841 C   0  0  0  0  0  0
  -18.0317  -28.1384   22.8478 C   0  0  0  0  0  0
  -24.1497  -36.7187   23.2653 C   0  0  0  0  0  0
  -26.0472  -30.6210   21.3995 C   0  0  0  0  0  0
  -26.1178  -29.2025   20.7507 C   0  0  0  0  0  0
  -27.2492  -28.2603   20.7709 C   0  0  0  0  0  0
  -26.0047  -26.6537   19.5180 C   0  0  0  0  0  0
  -24.9069  -27.5559   19.4773 C   0  0  0  0  0  0
  -23.7140  -29.7366   20.1524 C   0  0  0  0  0  0
  -25.4143  -36.2965   24.0301 C   0  0  1  0  0  0
  -20.5941  -28.3734   23.1191 C   0  0  2  0  0  0
  -20.6791  -26.9421   22.5404 C   0  0  0  0  0  0
  -19.5766  -26.6364   21.5213 C   0  0  0  0  0  0
  -18.1948  -26.7923   22.1621 C   0  0  0  0  0  0
  -19.1581  -28.8888   23.2817 C   0  0  0  0  0  0
  -18.9484  -30.1482   23.8821 C   0  0  0  0  0  0
  -17.6470  -30.6583   24.0538 C   0  0  0  0  0  0
  -25.9118  -34.9344   23.5009 C   0  0  0  0  0  0
  -16.5361  -29.9047   23.6352 C   0  0  0  0  0  0
  -16.7298  -28.6475   23.0376 C   0  0  0  0  0  0
  -26.4566  -31.6519   25.0677 C   0  0  0  0  0  0
  -25.3700  -31.3716   26.1329 C   0  0  0  0  0  0
  -27.0479  -30.2900   24.6390 C   0  0  0  0  0  0
  -27.6078  -32.4308   25.7468 C   0  0  0  0  0  0
  -27.5569  -37.1750   24.8470 C   0  0  0  0  0  0
  -21.4323  -29.3019   22.3542 N   0  0  0  0  0  0
  -26.4290  -37.3686   23.9399 N   0  0  0  0  0  0
  -24.7516  -30.9863   22.0837 N   0  0  0  0  0  0
  -23.4183  -28.8053   23.3130 O   0  0  0  0  0  0
  -28.1943  -25.7420   20.3275 O   0  0  0  0  0  0
  -26.5732  -34.8884   22.4608 O   0  0  0  0  0  0
  -23.5710  -32.1221   23.6787 O   0  0  0  0  0  0
  -27.1255  -21.5833   22.1443 C   0  0  0  0  0  0
  -28.3917  -22.4511   22.1523 C   0  0  0  0  0  0
  -29.9223  -18.9949   21.8418 C   0  0  0  0  0  0
  -30.4662  -17.4814   21.7573 C   0  0  0  0  0  0
  -29.0587  -17.8515   20.0237 C   0  0  0  0  0  0
  -27.2113  -20.6729   20.9083 C   0  0  0  0  0  0
  -29.4449  -19.4938   20.4538 C   0  0  1  0  0  0
  -28.7987  -22.5326   20.6794 C   0  0  2  0  0  0
  -27.9763  -24.0865   20.1222 C   0  0  0  0  0  0
  -29.8100  -16.6030   20.7345 N   0  0  0  0  0  0
  -28.5244  -20.9123   20.2815 N   0  3  2  0  0  0
  -31.4552  -12.9858   19.2443 H   0  0  0  0  0  0
  -30.4618  -11.9071   20.1533 H   0  0  0  0  0  0
  -29.9308  -11.7582   17.7041 H   0  0  0  0  0  0
  -29.5761  -13.4768   17.6671 H   0  0  0  0  0  0
  -28.0363  -11.2834   19.0861 H   0  0  0  0  0  0
  -27.4234  -12.3552   17.8531 H   0  0  0  0  0  0
  -27.5292  -14.2481   19.3432 H   0  0  0  0  0  0
  -28.7959  -12.5280   21.5159 H   0  0  0  0  0  0
  -28.2599  -14.1814   21.7059 H   0  0  0  0  0  0
  -25.2634   -9.5852   22.4791 H   0  0  0  0  0  0
  -23.9992   -7.4728   22.7479 H   0  0  0  0  0  0
  -21.0818   -8.8740   19.8965 H   0  0  0  0  0  0
  -22.3533  -10.9699   19.6197 H   0  0  0  0  0  0
  -21.2008   -7.6097   23.9693 H   0  0  0  0  0  0
  -21.1501   -6.0474   25.9063 H   0  0  0  0  0  0
  -22.0597   -2.7583   23.2838 H   0  0  0  0  0  0
  -22.3728  -12.0035   22.4953 H   0  0  0  0  0  0
  -21.0892  -13.1480   22.2438 H   0  0  0  0  0  0
  -24.6714  -15.8689   20.5534 H   0  0  0  0  0  0
  -26.2756  -15.6194   20.0956 H   0  0  0  0  0  0
  -26.7382  -32.5121   23.0890 H   0  0  0  0  0  0
  -25.0033  -33.9471   25.0156 H   0  0  0  0  0  0
  -22.7915  -31.2623   21.3528 H   0  0  0  0  0  0
  -23.3776  -35.9499   23.3295 H   0  0  0  0  0  0
  -24.3572  -36.8848   22.2070 H   0  0  0  0  0  0
  -23.7234  -37.6364   23.6719 H   0  0  0  0  0  0
  -26.2218  -31.3623   20.6182 H   0  0  0  0  0  0
  -26.9091  -30.6866   22.0522 H   0  0  0  0  0  0
  -28.1418  -28.5697   21.2968 H   0  0  0  0  0  0
  -25.8716  -25.6998   19.0340 H   0  0  0  0  0  0
  -24.0084  -27.2422   18.9634 H   0  0  0  0  0  0
  -23.8426  -30.4997   19.3841 H   0  0  0  0  0  0
  -22.8232  -29.1800   19.8567 H   0  0  0  0  0  0
  -25.1349  -36.1761   25.0792 H   0  0  0  0  0  0
  -21.0025  -28.3336   24.1316 H   0  0  0  0  0  0
  -20.5678  -26.2348   23.3644 H   0  0  0  0  0  0
  -21.6653  -26.7396   22.1206 H   0  0  0  0  0  0
  -19.6925  -25.6270   21.1271 H   0  0  0  0  0  0
  -19.6707  -27.3149   20.6726 H   0  0  0  0  0  0
  -17.4235  -26.6689   21.4015 H   0  0  0  0  0  0
  -18.0321  -26.0051   22.9002 H   0  0  0  0  0  0
  -19.7959  -30.7339   24.2129 H   0  0  0  0  0  0
  -17.5015  -31.6263   24.5132 H   0  0  0  0  0  0
  -15.5358  -30.2914   23.7719 H   0  0  0  0  0  0
  -15.8700  -28.0755   22.7128 H   0  0  0  0  0  0
  -24.5881  -30.7097   25.7586 H   0  0  0  0  0  0
  -24.8894  -32.2893   26.4734 H   0  0  0  0  0  0
  -25.7924  -30.8854   27.0133 H   0  0  0  0  0  0
  -26.3156  -29.6572   24.1368 H   0  0  0  0  0  0
  -27.4004  -29.7251   25.5035 H   0  0  0  0  0  0
  -27.9088  -30.4109   23.9806 H   0  0  0  0  0  0
  -27.2677  -33.3641   26.1968 H   0  0  0  0  0  0
  -28.3918  -32.6824   25.0306 H   0  0  0  0  0  0
  -28.0726  -31.8487   26.5438 H   0  0  0  0  0  0
  -28.2589  -38.0047   24.7519 H   0  0  0  0  0  0
  -28.1068  -36.2581   24.6308 H   0  0  0  0  0  0
  -27.2282  -37.1380   25.8871 H   0  0  0  0  0  0
  -20.9584  -29.8603   21.6574 H   0  0  0  0  0  0
  -26.0146  -38.2755   24.1375 H   0  0  0  0  0  0
  -26.2249  -22.1971   22.0997 H   0  0  0  0  0  0
  -27.0643  -20.9937   23.0579 H   0  0  0  0  0  0
  -29.1574  -21.9484   22.7439 H   0  0  0  0  0  0
  -28.2163  -23.4226   22.6116 H   0  0  0  0  0  0
  -30.6858  -19.6552   22.2534 H   0  0  0  0  0  0
  -29.0889  -19.0230   22.5428 H   0  0  0  0  0  0
  -30.3785  -17.0064   22.7351 H   0  0  0  0  0  0
  -31.5369  -17.5095   21.5445 H   0  0  0  0  0  0
  -29.0677  -17.7240   18.9405 H   0  0  0  0  0  0
  -28.0172  -17.6881   20.3115 H   0  0  0  0  0  0
  -26.4405  -20.9339   20.1821 H   0  0  0  0  0  0
  -27.0538  -19.6297   21.1837 H   0  0  0  0  0  0
  -30.3542  -19.7214   19.8972 H   0  0  0  0  0  0
  -29.8711  -22.6968   20.5852 H   0  0  0  0  0  0
  -26.9537  -23.9551   20.4780 H   0  0  0  0  0  0
  -27.8814  -23.9799   19.0415 H   0  0  0  0  0  0
  -28.3590  -20.9265   19.2847 H   0  0  0  0  0  0
  1 25  1  0  0  0
  1 30  2  0  0  0
  1 80  1  0  0  0
  2  3  1  0  0  0
  2 25  1  0  0  0
  2 82  1  0  0  0
  2 83  1  0  0  0
  3  4  1  0  0  0
  3 84  1  0  0  0
  3 85  1  0  0  0
  4  5  1  0  0  0
  4 86  1  0  0  0
  4 87  1  0  0  0
  5  6  1  0  0  0
  5 26  1  0  0  0
  5 88  1  0  0  0
  6 25  1  0  0  0
  6 89  1  0  0  0
  6 90  1  0  0  0
  7  8  2  0  0  0
  7 26  1  0  0  0
  7 29  1  0  0  0
  8  9  1  0  0  0
  8 22  1  0  0  0
  9 10  1  0  0  0
  9 27  2  0  0  0
 10 11  2  0  0  0
 10 15  1  0  0  0
 11 12  1  0  0  0
 11 91  1  0  0  0
 12 13  2  0  0  0
 12 92  1  0  0  0
 13 14  1  0  0  0
 13 31  1  0  0  0
 14 15  2  0  0  0
 14 93  1  0  0  0
 15 94  1  0  0  0
 16 17  2  0  0  0
 16 21  1  0  0  0
 16 31  1  0  0  0
 17 18  1  0  0  0
 17 95  1  0  0  0
 18 19  2  0  0  0
 18 96  1  0  0  0
 19 20  1  0  0  0
 19 24  1  0  0  0
 20 21  2  0  0  0
 20 97  1  0  0  0
 21 23  1  0  0  0
 22 28  1  0  0  0
 22 32  2  0  0  0
 26 27  1  0  0  0
 28 98  1  0  0  0
 28 99  1  0  0  0
 29100  1  0  0  0
 29101  1  0  0  0
 33 34  1  0  0  0
 33 66  1  0  0  0
 33 70  2  0  0  0
 34 36  1  0  0  0
 34 59  1  0  0  0
 34102  1  0  0  0
 35 44  2  0  0  0
 35 45  1  0  0  0
 35 68  1  0  0  0
 36 56  1  0  0  0
 36103  1  0  0  0
 37 39  1  0  0  0
 37 47  1  0  0  0
 37 66  1  0  0  0
 37104  1  0  0  0
 38 43  2  0  0  0
 38 46  1  0  0  0
 38 47  1  0  0  0
 39 64  1  0  0  0
 39 67  2  0  0  0
 40 52  1  0  0  0
 40 53  2  0  0  0
 40 58  1  0  0  0
 41105  1  0  0  0
 41106  1  0  0  0
 41107  1  0  0  0
 41 48  1  0  0  0
 42 43  1  0  0  0
 42 66  1  0  0  0
 42108  1  0  0  0
 42109  1  0  0  0
 43 44  1  0  0  0
 44110  1  0  0  0
 45 46  2  0  0  0
 45111  1  0  0  0
 46112  1  0  0  0
 47113  1  0  0  0
 47114  1  0  0  0
 48 56  1  0  0  0
 48 65  1  0  0  0
 48115  1  0  0  0
 49 50  1  0  0  0
 49 53  1  0  0  0
 49 64  1  0  0  0
 49116  1  0  0  0
 50 51  1  0  0  0
 50117  1  0  0  0
 50118  1  0  0  0
 51 52  1  0  0  0
 51119  1  0  0  0
 51120  1  0  0  0
 52121  1  0  0  0
 52122  1  0  0  0
 53 54  1  0  0  0
 54 55  2  0  0  0
 54123  1  0  0  0
 55 57  1  0  0  0
 55124  1  0  0  0
 56 69  2  0  0  0
 57 58  2  0  0  0
 57125  1  0  0  0
 58126  1  0  0  0
 59 60  1  0  0  0
 59 61  1  0  0  0
 59 62  1  0  0  0
 60127  1  0  0  0
 60128  1  0  0  0
 60129  1  0  0  0
 61130  1  0  0  0
 61131  1  0  0  0
 61132  1  0  0  0
 62133  1  0  0  0
 62134  1  0  0  0
 62135  1  0  0  0
 63 65  1  0  0  0
 63136  1  0  0  0
 63137  1  0  0  0
 63138  1  0  0  0
 64139  1  0  0  0
 65140  1  0  0  0
 68 79  1  0  0  0
 71 72  1  0  0  0
 71 76  1  0  0  0
 71141  1  0  0  0
 71142  1  0  0  0
 72 78  1  0  0  0
 72143  1  0  0  0
 72144  1  0  0  0
 73 74  1  0  0  0
 73145  1  0  0  0
 73146  1  0  0  0
 73 77  1  0  0  0
 74 80  1  0  0  0
 74147  1  0  0  0
 74148  1  0  0  0
 75 77  1  0  0  0
 75 80  1  0  0  0
 75149  1  0  0  0
 75150  1  0  0  0
 76151  1  0  0  0
 76152  1  0  0  0
 76 81  1  0  0  0
 77 81  1  0  0  0
 77153  1  0  0  0
 78 79  1  0  0  0
 78 81  1  0  0  0
 78154  1  0  0  0
 79155  1  0  0  0
 79156  1  0  0  0
 81157  1  0  0  0
M  CHG  1  81   1
M  ISO  4   1 100  68 101  79 101  80 100
M  END
> <chiral flag>
0

> <version>
0

> <s_m_source_file>
/data/baiqing/PycharmProjects/Reinvent-master-3.2/result/LINK_invent/BTK/process_docking_weight1_custom_sum_contain_oxygen_bond_distance_aromatic_linkinvent_7_9_3/rearranged_h_0189.sdf

> <i_m_source_file_index>
67

> <r_mmod_Potential_Energy-OPLS-2005>
1678.279296875

> <r_mmod_Stretch_Energy-OPLS-2005>
655.223083496094

> <r_mmod_Bend_Energy-OPLS-2005>
582.284912109375

> <r_mmod_Torsional_Energy-OPLS-2005>
416.110504150391

> <r_mmod_Improper_Torsional_Energy-OPLS-2005>
4.90669822692871

> <r_mmod_Van_der_Waal_Energy-OPLS-2005>
102.084945678711

> <r_mmod_Electrostatic_Energy-OPLS-2005>
-144.801651000977

> <r_mmod_Solvation_Energy-OPLS-2005>
-431.87109375

> <b_mmod_Minimization_Converged-OPLS-2005>
0

> <r_mmod_RMS_Derivative-OPLS-2005>
5.36031007766724

$$$$
68
                    3D
 Structure written by MMmdl.
160169  0  0  1  0            999 V2000
  -30.6380  -14.5425   20.4803 C   0  0  0  0  0  0
  -30.4293  -12.3217   19.4419 C   0  0  0  0  0  0
  -29.5044  -12.4802   18.2166 C   0  0  0  0  0  0
  -28.0219  -12.3450   18.6228 C   0  0  0  0  0  0
  -27.6524  -13.2053   19.8603 C   0  0  2  0  0  0
  -28.6939  -13.0379   20.9895 C   0  0  0  0  0  0
  -25.2566  -13.8152   20.5683 C   0  0  0  0  0  0
  -24.1821  -13.0442   20.9174 C   0  0  0  0  0  0
  -24.6369  -11.6900   20.8729 C   0  0  0  0  0  0
  -23.9039  -10.4294   21.0403 C   0  0  0  0  0  0
  -24.3599   -9.4211   21.9174 C   0  0  0  0  0  0
  -23.6287   -8.2244   22.0740 C   0  0  0  0  0  0
  -22.4266   -8.0270   21.3536 C   0  0  0  0  0  0
  -21.9896   -9.0249   20.4653 C   0  0  0  0  0  0
  -22.7214  -10.2131   20.3059 C   0  0  0  0  0  0
  -21.6857   -6.0724   22.5274 C   0  0  0  0  0  0
  -21.4025   -6.5630   23.8208 C   0  0  0  0  0  0
  -21.3666   -5.6781   24.9168 C   0  0  0  0  0  0
  -21.6038   -4.3042   24.7221 C   0  0  0  0  0  0
  -21.8824   -3.8134   23.4343 C   0  0  0  0  0  0
  -21.9200   -4.6952   22.3401 C   0  0  0  0  0  0
  -22.7850  -13.5243   21.1853 C   0  0  0  0  0  0
  -22.1661   -4.2140   21.0977 F   0  0  0  0  0  0
  -21.5628   -3.4521   25.7735 F   0  0  0  0  0  0
  -30.0174  -13.3335   20.4233 N   0  0  0  0  0  0
  -26.2978  -12.9306   20.3310 N   0  0  0  0  0  0
  -25.9288  -11.6464   20.5734 N   0  0  0  0  0  0
  -22.0479  -12.8267   22.0419 N   0  0  0  0  0  0
  -25.4324  -15.1880   20.4147 N   0  0  0  0  0  0
  -31.8291  -14.6934   20.1936 O   0  0  0  0  0  0
  -21.6631   -6.8864   21.4230 O   0  0  0  0  0  0
  -22.3540  -14.5538   20.6668 O   0  0  0  0  0  0
  -24.6170  -31.8654   23.2066 C   0  0  0  0  0  0
  -25.9053  -32.4807   23.8365 C   0  0  1  0  0  0
  -27.2303  -27.4064   20.1101 C   0  0  0  0  0  0
  -25.5902  -33.8603   24.2309 N   0  0  0  0  0  0
  -23.4074  -30.4881   21.5481 C   0  0  2  0  0  0
  -24.8542  -28.9477   20.1161 C   0  0  0  0  0  0
  -22.7426  -29.4660   22.4972 C   0  0  0  0  0  0
  -18.0274  -28.1403   22.8490 C   0  0  0  0  0  0
  -24.1490  -36.7303   23.2637 C   0  0  0  0  0  0
  -25.9378  -30.8234   21.3643 C   0  0  0  0  0  0
  -26.0153  -29.4548   20.7146 C   0  0  0  0  0  0
  -27.2099  -28.6944   20.7065 C   0  0  0  0  0  0
  -26.0555  -26.9236   19.4997 C   0  0  0  0  0  0
  -24.8703  -27.6826   19.5039 C   0  0  0  0  0  0
  -23.6181  -29.8183   20.1632 C   0  0  0  0  0  0
  -25.4107  -36.3095   24.0343 C   0  0  1  0  0  0
  -20.5867  -28.3686   23.1308 C   0  0  2  0  0  0
  -20.6756  -26.9418   22.5427 C   0  0  0  0  0  0
  -19.5733  -26.6399   21.5217 C   0  0  0  0  0  0
  -18.1911  -26.7945   22.1623 C   0  0  0  0  0  0
  -19.1529  -28.8855   23.2898 C   0  0  0  0  0  0
  -18.9462  -30.1457   23.8910 C   0  0  0  0  0  0
  -17.6467  -30.6596   24.0581 C   0  0  0  0  0  0
  -25.9039  -34.9469   23.5126 C   0  0  0  0  0  0
  -16.5353  -29.9112   23.6334 C   0  0  0  0  0  0
  -16.7263  -28.6539   23.0335 C   0  0  0  0  0  0
  -26.4496  -31.6582   25.0687 C   0  0  0  0  0  0
  -25.3797  -31.3758   26.1490 C   0  0  0  0  0  0
  -27.0317  -30.3001   24.6120 C   0  0  0  0  0  0
  -27.6086  -32.4303   25.7410 C   0  0  0  0  0  0
  -27.5578  -37.1812   24.8470 C   0  0  0  0  0  0
  -21.4148  -29.3050   22.3712 N   0  0  0  0  0  0
  -26.4299  -37.3775   23.9397 N   0  0  0  0  0  0
  -24.6726  -31.0736   22.0977 N   0  0  0  0  0  0
  -23.4198  -28.8208   23.3018 O   0  0  0  0  0  0
  -28.3581  -26.6029   20.0645 O   0  0  0  0  0  0
  -26.5581  -34.8933   22.4680 O   0  0  0  0  0  0
  -23.5357  -32.1424   23.7432 O   0  0  0  0  0  0
  -29.1712  -25.7403   23.2884 C   0  0  0  0  0  0
  -28.9029  -23.8450   22.1357 C   0  0  0  0  0  0
  -28.5942  -25.8320   21.1585 C   0  0  0  0  0  0
  -29.8028  -16.5744   19.2962 C   0  0  0  0  0  0
  -29.5390  -16.6778   21.3704 C   0  0  0  0  0  0
  -30.0230  -17.6901   20.3195 C   0  0  0  0  0  0
  -29.4907  -26.4513   24.5838 C   0  0  0  0  0  0
  -28.8643  -22.3044   22.2260 C   0  0  0  0  0  0
  -29.3901  -19.0942   20.0697 C   0  0  0  0  0  0
  -29.3355  -20.0549   21.2938 C   0  0  0  0  0  0
  -29.1965  -24.4171   23.3019 N   0  0  0  0  0  0
  -28.8808  -26.5089   22.2595 N   0  0  0  0  0  0
  -28.6083  -24.4960   20.9992 N   0  0  0  0  0  0
  -29.7734  -15.5920   20.3960 N   0  0  0  0  0  0
  -29.0431  -21.4983   20.9932 N   0  3  0  0  0  0
  -31.4740  -12.4320   19.1452 H   0  0  0  0  0  0
  -30.3397  -11.3238   19.8713 H   0  0  0  0  0  0
  -29.7532  -11.7300   17.4653 H   0  0  0  0  0  0
  -29.6714  -13.4499   17.7456 H   0  0  0  0  0  0
  -27.8342  -11.2926   18.8357 H   0  0  0  0  0  0
  -27.3791  -12.6022   17.7809 H   0  0  0  0  0  0
  -27.6730  -14.2422   19.5280 H   0  0  0  0  0  0
  -28.6746  -12.0229   21.3883 H   0  0  0  0  0  0
  -28.4650  -13.7011   21.8251 H   0  0  0  0  0  0
  -25.2741   -9.5687   22.4740 H   0  0  0  0  0  0
  -24.0002   -7.4633   22.7452 H   0  0  0  0  0  0
  -21.0819   -8.8761   19.8980 H   0  0  0  0  0  0
  -22.3655  -10.9658   19.6167 H   0  0  0  0  0  0
  -21.2012   -7.6132   23.9714 H   0  0  0  0  0  0
  -21.1486   -6.0502   25.9073 H   0  0  0  0  0  0
  -22.0601   -2.7594   23.2840 H   0  0  0  0  0  0
  -22.4074  -11.9953   22.4865 H   0  0  0  0  0  0
  -21.1092  -13.1306   22.2597 H   0  0  0  0  0  0
  -24.6721  -15.8495   20.5329 H   0  0  0  0  0  0
  -26.3011  -15.6246   20.1311 H   0  0  0  0  0  0
  -26.7108  -32.5520   23.1105 H   0  0  0  0  0  0
  -25.0072  -33.9757   25.0468 H   0  0  0  0  0  0
  -22.6964  -31.3040   21.4065 H   0  0  0  0  0  0
  -23.3737  -35.9661   23.3328 H   0  0  0  0  0  0
  -24.3568  -36.8876   22.2044 H   0  0  0  0  0  0
  -23.7264  -37.6529   23.6621 H   0  0  0  0  0  0
  -26.0533  -31.5872   20.5935 H   0  0  0  0  0  0
  -26.8256  -30.8755   21.9836 H   0  0  0  0  0  0
  -28.1066  -29.0790   21.1719 H   0  0  0  0  0  0
  -26.0577  -25.9512   19.0282 H   0  0  0  0  0  0
  -23.9804  -27.2865   19.0356 H   0  0  0  0  0  0
  -23.7311  -30.5925   19.4023 H   0  0  0  0  0  0
  -22.7415  -29.2399   19.8655 H   0  0  0  0  0  0
  -25.1285  -36.1957   25.0836 H   0  0  0  0  0  0
  -20.9959  -28.3264   24.1422 H   0  0  0  0  0  0
  -20.5629  -26.2304   23.3620 H   0  0  0  0  0  0
  -21.6631  -26.7442   22.1235 H   0  0  0  0  0  0
  -19.6892  -25.6313   21.1230 H   0  0  0  0  0  0
  -19.6675  -27.3220   20.6752 H   0  0  0  0  0  0
  -17.4184  -26.6694   21.4020 H   0  0  0  0  0  0
  -18.0313  -26.0094   22.9023 H   0  0  0  0  0  0
  -19.7941  -30.7269   24.2275 H   0  0  0  0  0  0
  -17.5029  -31.6263   24.5206 H   0  0  0  0  0  0
  -15.5356  -30.3021   23.7651 H   0  0  0  0  0  0
  -15.8664  -28.0871   22.7022 H   0  0  0  0  0  0
  -24.5904  -30.7148   25.7886 H   0  0  0  0  0  0
  -24.9097  -32.2963   26.4971 H   0  0  0  0  0  0
  -25.8181  -30.8904   27.0226 H   0  0  0  0  0  0
  -26.2873  -29.6731   24.1203 H   0  0  0  0  0  0
  -27.4078  -29.7279   25.4610 H   0  0  0  0  0  0
  -27.8716  -30.4268   23.9286 H   0  0  0  0  0  0
  -27.2689  -33.3541   26.2104 H   0  0  0  0  0  0
  -28.3801  -32.6982   25.0186 H   0  0  0  0  0  0
  -28.0859  -31.8371   26.5221 H   0  0  0  0  0  0
  -28.2632  -38.0073   24.7473 H   0  0  0  0  0  0
  -28.1043  -36.2610   24.6356 H   0  0  0  0  0  0
  -27.2295  -37.1521   25.8873 H   0  0  0  0  0  0
  -20.9305  -29.8798   21.6961 H   0  0  0  0  0  0
  -26.0193  -38.2865   24.1344 H   0  0  0  0  0  0
  -30.6232  -16.4629   18.5840 H   0  0  0  0  0  0
  -28.8510  -16.6472   18.7683 H   0  0  0  0  0  0
  -28.4868  -16.7921   21.6378 H   0  0  0  0  0  0
  -30.1666  -16.6414   22.2628 H   0  0  0  0  0  0
  -31.0988  -17.8032   20.4664 H   0  0  0  0  0  0
  -30.1208  -25.8378   25.2280 H   0  0  0  0  0  0
  -28.5722  -26.6845   25.1208 H   0  0  0  0  0  0
  -30.0154  -27.3874   24.3888 H   0  0  0  0  0  0
  -27.9300  -22.0163   22.7094 H   0  0  0  0  0  0
  -29.6579  -22.0136   22.9171 H   0  0  0  0  0  0
  -28.3837  -18.9811   19.6644 H   0  0  0  0  0  0
  -29.9598  -19.5835   19.2786 H   0  0  0  0  0  0
  -30.2891  -19.9990   21.8211 H   0  0  0  0  0  0
  -28.5789  -19.6761   21.9850 H   0  0  0  0  0  0
  -29.7962  -21.9160   20.4732 H   0  0  0  0  0  0
  -28.2024  -21.6067   20.4518 H   0  0  0  0  0  0
  1 25  1  0  0  0
  1 30  2  0  0  0
  1 84  1  0  0  0
  2  3  1  0  0  0
  2 25  1  0  0  0
  2 86  1  0  0  0
  2 87  1  0  0  0
  3  4  1  0  0  0
  3 88  1  0  0  0
  3 89  1  0  0  0
  4  5  1  0  0  0
  4 90  1  0  0  0
  4 91  1  0  0  0
  5  6  1  0  0  0
  5 26  1  0  0  0
  5 92  1  0  0  0
  6 25  1  0  0  0
  6 93  1  0  0  0
  6 94  1  0  0  0
  7  8  2  0  0  0
  7 26  1  0  0  0
  7 29  1  0  0  0
  8  9  1  0  0  0
  8 22  1  0  0  0
  9 10  1  0  0  0
  9 27  2  0  0  0
 10 11  2  0  0  0
 10 15  1  0  0  0
 11 12  1  0  0  0
 11 95  1  0  0  0
 12 13  2  0  0  0
 12 96  1  0  0  0
 13 14  1  0  0  0
 13 31  1  0  0  0
 14 15  2  0  0  0
 14 97  1  0  0  0
 15 98  1  0  0  0
 16 17  2  0  0  0
 16 21  1  0  0  0
 16 31  1  0  0  0
 17 18  1  0  0  0
 17 99  1  0  0  0
 18 19  2  0  0  0
 18100  1  0  0  0
 19 20  1  0  0  0
 19 24  1  0  0  0
 20 21  2  0  0  0
 20101  1  0  0  0
 21 23  1  0  0  0
 22 28  1  0  0  0
 22 32  2  0  0  0
 26 27  1  0  0  0
 28102  1  0  0  0
 28103  1  0  0  0
 29104  1  0  0  0
 29105  1  0  0  0
 33 34  1  0  0  0
 33 66  1  0  0  0
 33 70  2  0  0  0
 34 36  1  0  0  0
 34 59  1  0  0  0
 34106  1  0  0  0
 35 44  2  0  0  0
 35 45  1  0  0  0
 35 68  1  0  0  0
 36 56  1  0  0  0
 36107  1  0  0  0
 37 39  1  0  0  0
 37 47  1  0  0  0
 37 66  1  0  0  0
 37108  1  0  0  0
 38 43  2  0  0  0
 38 46  1  0  0  0
 38 47  1  0  0  0
 39 64  1  0  0  0
 39 67  2  0  0  0
 40 52  1  0  0  0
 40 53  2  0  0  0
 40 58  1  0  0  0
 41109  1  0  0  0
 41110  1  0  0  0
 41111  1  0  0  0
 41 48  1  0  0  0
 42 43  1  0  0  0
 42 66  1  0  0  0
 42112  1  0  0  0
 42113  1  0  0  0
 43 44  1  0  0  0
 44114  1  0  0  0
 45 46  2  0  0  0
 45115  1  0  0  0
 46116  1  0  0  0
 47117  1  0  0  0
 47118  1  0  0  0
 48 56  1  0  0  0
 48 65  1  0  0  0
 48119  1  0  0  0
 49 50  1  0  0  0
 49 53  1  0  0  0
 49 64  1  0  0  0
 49120  1  0  0  0
 50 51  1  0  0  0
 50121  1  0  0  0
 50122  1  0  0  0
 51 52  1  0  0  0
 51123  1  0  0  0
 51124  1  0  0  0
 52125  1  0  0  0
 52126  1  0  0  0
 53 54  1  0  0  0
 54 55  2  0  0  0
 54127  1  0  0  0
 55 57  1  0  0  0
 55128  1  0  0  0
 56 69  2  0  0  0
 57 58  2  0  0  0
 57129  1  0  0  0
 58130  1  0  0  0
 59 60  1  0  0  0
 59 61  1  0  0  0
 59 62  1  0  0  0
 60131  1  0  0  0
 60132  1  0  0  0
 60133  1  0  0  0
 61134  1  0  0  0
 61135  1  0  0  0
 61136  1  0  0  0
 62137  1  0  0  0
 62138  1  0  0  0
 62139  1  0  0  0
 63 65  1  0  0  0
 63140  1  0  0  0
 63141  1  0  0  0
 63142  1  0  0  0
 64143  1  0  0  0
 65144  1  0  0  0
 68 73  1  0  0  0
 71 77  1  0  0  0
 71 81  2  0  0  0
 71 82  1  0  0  0
 72 78  1  0  0  0
 72 81  1  0  0  0
 72 83  2  0  0  0
 73 82  2  0  0  0
 73 83  1  0  0  0
 74 76  1  0  0  0
 74 84  1  0  0  0
 74145  1  0  0  0
 74146  1  0  0  0
 75 76  1  0  0  0
 75 84  1  0  0  0
 75147  1  0  0  0
 75148  1  0  0  0
 76 79  1  0  0  0
 76149  1  0  0  0
 77150  1  0  0  0
 77151  1  0  0  0
 77152  1  0  0  0
 78 85  1  0  0  0
 78153  1  0  0  0
 78154  1  0  0  0
 79 80  1  0  0  0
 79155  1  0  0  0
 79156  1  0  0  0
 80 85  1  0  0  0
 80157  1  0  0  0
 80158  1  0  0  0
 85159  1  0  0  0
 85160  1  0  0  0
M  CHG  1  85   1
M  ISO  4   1 100  68 101  73 101  84 100
M  END
> <chiral flag>
0

> <version>
0

> <s_m_source_file>
/data/baiqing/PycharmProjects/Reinvent-master-3.2/result/LINK_invent/BTK/process_docking_weight1_custom_sum_contain_oxygen_bond_distance_aromatic_linkinvent_7_9_3/rearranged_h_0189.sdf

> <i_m_source_file_index>
68

> <r_mmod_Potential_Energy-OPLS-2005>
-840.34521484375

> <r_mmod_Stretch_Energy-OPLS-2005>
42.5642967224121

> <r_mmod_Bend_Energy-OPLS-2005>
117.32984161377

> <r_mmod_Torsional_Energy-OPLS-2005>
306.558502197266

> <r_mmod_Improper_Torsional_Energy-OPLS-2005>
20.6159801483154

> <r_mmod_Van_der_Waal_Energy-OPLS-2005>
160.803146362305

> <r_mmod_Electrostatic_Energy-OPLS-2005>
-1029.01318359375

> <r_mmod_Solvation_Energy-OPLS-2005>
-484.302307128906

> <b_mmod_Minimization_Converged-OPLS-2005>
0

> <r_mmod_RMS_Derivative-OPLS-2005>
2.51787519454956

$$$$
69
                    3D
 Structure written by MMmdl.
159168  0  0  1  0            999 V2000
  -30.6863  -14.6386   20.4703 C   0  0  0  0  0  0
  -30.4318  -12.3977   19.4433 C   0  0  0  0  0  0
  -29.5145  -12.4967   18.2060 C   0  0  0  0  0  0
  -28.0354  -12.2904   18.6031 C   0  0  0  0  0  0
  -27.6422  -13.1726   19.8197 C   0  0  2  0  0  0
  -28.6892  -13.0767   20.9519 C   0  0  0  0  0  0
  -25.2623  -13.7974   20.5651 C   0  0  0  0  0  0
  -24.1871  -13.0355   20.9150 C   0  0  0  0  0  0
  -24.6351  -11.6789   20.8700 C   0  0  0  0  0  0
  -23.8968  -10.4237   21.0357 C   0  0  0  0  0  0
  -24.3470   -9.4191   21.9177 C   0  0  0  0  0  0
  -23.6235   -8.2208   22.0776 C   0  0  0  0  0  0
  -22.4209   -8.0251   21.3562 C   0  0  0  0  0  0
  -21.9833   -9.0234   20.4661 C   0  0  0  0  0  0
  -22.7136  -10.2120   20.3055 C   0  0  0  0  0  0
  -21.6805   -6.0700   22.5306 C   0  0  0  0  0  0
  -21.3996   -6.5601   23.8232 C   0  0  0  0  0  0
  -21.3700   -5.6746   24.9201 C   0  0  0  0  0  0
  -21.6051   -4.3024   24.7223 C   0  0  0  0  0  0
  -21.8805   -3.8119   23.4335 C   0  0  0  0  0  0
  -21.9139   -4.6922   22.3398 C   0  0  0  0  0  0
  -22.7869  -13.5233   21.1750 C   0  0  0  0  0  0
  -22.1591   -4.2146   21.0962 F   0  0  0  0  0  0
  -21.5685   -3.4461   25.7708 F   0  0  0  0  0  0
  -29.9893  -13.4571   20.3752 N   0  0  0  0  0  0
  -26.2948  -12.9093   20.3112 N   0  0  0  0  0  0
  -25.9252  -11.6290   20.5673 N   0  0  0  0  0  0
  -22.0363  -12.8432   22.0287 N   0  0  0  0  0  0
  -25.4371  -15.1725   20.4186 N   0  0  0  0  0  0
  -31.8963  -14.6415   20.2226 O   0  0  0  0  0  0
  -21.6603   -6.8841   21.4283 O   0  0  0  0  0  0
  -22.3663  -14.5545   20.6523 O   0  0  0  0  0  0
  -24.6269  -31.8637   23.2058 C   0  0  0  0  0  0
  -25.9174  -32.4777   23.8357 C   0  0  1  0  0  0
  -27.2126  -27.3867   20.1100 C   0  0  0  0  0  0
  -25.6058  -33.8567   24.2349 N   0  0  0  0  0  0
  -23.4072  -30.4950   21.5481 C   0  0  2  0  0  0
  -24.8424  -28.9562   20.1079 C   0  0  0  0  0  0
  -22.7431  -29.4723   22.4982 C   0  0  0  0  0  0
  -18.0268  -28.1307   22.8483 C   0  0  0  0  0  0
  -24.1496  -36.7288   23.2655 C   0  0  0  0  0  0
  -25.9465  -30.8142   21.3615 C   0  0  0  0  0  0
  -26.0108  -29.4512   20.7028 C   0  0  0  0  0  0
  -27.2065  -28.6881   20.6759 C   0  0  0  0  0  0
  -26.0184  -26.9152   19.5176 C   0  0  0  0  0  0
  -24.8482  -27.6907   19.4997 C   0  0  0  0  0  0
  -23.6023  -29.8169   20.1656 C   0  0  0  0  0  0
  -25.4123  -36.3081   24.0362 C   0  0  1  0  0  0
  -20.5869  -28.3638   23.1248 C   0  0  2  0  0  0
  -20.6737  -26.9353   22.5366 C   0  0  0  0  0  0
  -19.5676  -26.6294   21.5195 C   0  0  0  0  0  0
  -18.1866  -26.7879   22.1591 C   0  0  0  0  0  0
  -19.1527  -28.8789   23.2844 C   0  0  0  0  0  0
  -18.9471  -30.1427   23.8795 C   0  0  0  0  0  0
  -17.6475  -30.6534   24.0523 C   0  0  0  0  0  0
  -25.9057  -34.9434   23.5134 C   0  0  0  0  0  0
  -16.5354  -29.9010   23.6354 C   0  0  0  0  0  0
  -16.7267  -28.6416   23.0390 C   0  0  0  0  0  0
  -26.4579  -31.6594   25.0729 C   0  0  0  0  0  0
  -25.3832  -31.3750   26.1471 C   0  0  0  0  0  0
  -27.0532  -30.3034   24.6254 C   0  0  0  0  0  0
  -27.6076  -32.4379   25.7580 C   0  0  0  0  0  0
  -27.5577  -37.1807   24.8463 C   0  0  0  0  0  0
  -21.4152  -29.3055   22.3696 N   0  0  0  0  0  0
  -26.4305  -37.3763   23.9388 N   0  0  0  0  0  0
  -24.6805  -31.0731   22.0961 N   0  0  0  0  0  0
  -23.4201  -28.8220   23.3005 O   0  0  0  0  0  0
  -28.3604  -26.6015   20.1176 O   0  0  0  0  0  0
  -26.5477  -34.8935   22.4621 O   0  0  0  0  0  0
  -23.5471  -32.1385   23.7486 O   0  0  0  0  0  0
  -30.4562  -20.2145   18.4017 C   0  0  0  0  0  0
  -30.2953  -21.5818   18.4952 C   0  0  0  0  0  0
  -29.5908  -21.7057   19.7387 C   0  0  0  0  0  0
  -28.6534  -17.8142   20.9166 C   0  0  0  0  0  0
  -28.7002  -16.2766   20.9243 C   0  0  0  0  0  0
  -30.7006  -17.1168   19.9262 C   0  0  0  0  0  0
  -29.5558  -18.1537   19.7200 C   0  0  2  0  0  0
  -30.7275  -22.6249   17.4638 C   0  0  0  0  0  0
  -29.3677  -24.2557   20.0727 C   0  0  0  0  0  0
  -28.1806  -25.1956   20.4401 C   0  0  0  0  0  0
  -29.3708  -20.5450   20.3326 N   0  0  0  0  0  0
  -29.8710  -19.5929   19.5042 N   0  0  0  0  0  0
  -30.0384  -15.8671   20.4273 N   0  0  0  0  0  0
  -29.0402  -22.8474   20.3409 N   0  0  0  0  0  0
  -31.4791  -12.4982   19.1507 H   0  0  0  0  0  0
  -30.3498  -11.4113   19.9020 H   0  0  0  0  0  0
  -29.8335  -11.7809   17.4448 H   0  0  0  0  0  0
  -29.6230  -13.4861   17.7594 H   0  0  0  0  0  0
  -27.8819  -11.2351   18.8308 H   0  0  0  0  0  0
  -27.3936  -12.4925   17.7430 H   0  0  0  0  0  0
  -27.6347  -14.1705   19.3977 H   0  0  0  0  0  0
  -28.7308  -12.0450   21.3108 H   0  0  0  0  0  0
  -28.4221  -13.6673   21.8257 H   0  0  0  0  0  0
  -25.2559   -9.5730   22.4793 H   0  0  0  0  0  0
  -23.9927   -7.4617   22.7511 H   0  0  0  0  0  0
  -21.0747   -8.8715   19.9023 H   0  0  0  0  0  0
  -22.3519  -10.9635   19.6156 H   0  0  0  0  0  0
  -21.1991   -7.6117   23.9765 H   0  0  0  0  0  0
  -21.1553   -6.0461   25.9105 H   0  0  0  0  0  0
  -22.0524   -2.7598   23.2845 H   0  0  0  0  0  0
  -22.3646  -12.0062   22.4864 H   0  0  0  0  0  0
  -21.1005  -13.1772   22.2268 H   0  0  0  0  0  0
  -24.6839  -15.8358   20.5532 H   0  0  0  0  0  0
  -26.3229  -15.6060   20.1925 H   0  0  0  0  0  0
  -26.7246  -32.5437   23.1104 H   0  0  0  0  0  0
  -25.0607  -33.9682   25.0759 H   0  0  0  0  0  0
  -22.7013  -31.3188   21.4114 H   0  0  0  0  0  0
  -23.3769  -35.9596   23.3287 H   0  0  0  0  0  0
  -24.3638  -36.8898   22.2072 H   0  0  0  0  0  0
  -23.7167  -37.6490   23.6640 H   0  0  0  0  0  0
  -26.0841  -31.5761   20.5923 H   0  0  0  0  0  0
  -26.8317  -30.8509   21.9904 H   0  0  0  0  0  0
  -28.1120  -29.0791   21.1186 H   0  0  0  0  0  0
  -25.9547  -25.9444   19.0513 H   0  0  0  0  0  0
  -23.9556  -27.3008   19.0316 H   0  0  0  0  0  0
  -23.6663  -30.5759   19.3866 H   0  0  0  0  0  0
  -22.7322  -29.2097   19.9078 H   0  0  0  0  0  0
  -25.1287  -36.1999   25.0849 H   0  0  0  0  0  0
  -21.0014  -28.3169   24.1348 H   0  0  0  0  0  0
  -20.5620  -26.2247   23.3564 H   0  0  0  0  0  0
  -21.6590  -26.7319   22.1146 H   0  0  0  0  0  0
  -19.6809  -25.6197   21.1212 H   0  0  0  0  0  0
  -19.6609  -27.3093   20.6721 H   0  0  0  0  0  0
  -17.4179  -26.6744   21.3942 H   0  0  0  0  0  0
  -18.0169  -25.9963   22.8909 H   0  0  0  0  0  0
  -19.7991  -30.7275   24.2041 H   0  0  0  0  0  0
  -17.5066  -31.6254   24.5066 H   0  0  0  0  0  0
  -15.5355  -30.2893   23.7748 H   0  0  0  0  0  0
  -15.8677  -28.0743   22.7134 H   0  0  0  0  0  0
  -24.5974  -30.7133   25.7839 H   0  0  0  0  0  0
  -24.9087  -32.2941   26.4912 H   0  0  0  0  0  0
  -25.8183  -30.8922   27.0233 H   0  0  0  0  0  0
  -26.3185  -29.6641   24.1359 H   0  0  0  0  0  0
  -27.4352  -29.7434   25.4818 H   0  0  0  0  0  0
  -27.8967  -30.4364   23.9466 H   0  0  0  0  0  0
  -27.2619  -33.3687   26.2107 H   0  0  0  0  0  0
  -28.3978  -32.6929   25.0501 H   0  0  0  0  0  0
  -28.0655  -31.8536   26.5579 H   0  0  0  0  0  0
  -28.2588  -38.0126   24.7568 H   0  0  0  0  0  0
  -28.1091  -36.2652   24.6246 H   0  0  0  0  0  0
  -27.2290  -37.1387   25.8868 H   0  0  0  0  0  0
  -20.9297  -29.8899   21.7034 H   0  0  0  0  0  0
  -26.0222  -38.2886   24.1272 H   0  0  0  0  0  0
  -30.8861  -19.6341   17.5951 H   0  0  0  0  0  0
  -29.0567  -18.2098   21.8499 H   0  0  0  0  0  0
  -27.6326  -18.1986   20.8396 H   0  0  0  0  0  0
  -27.9445  -15.9983   20.1978 H   0  0  0  0  0  0
  -28.4049  -15.8714   21.8947 H   0  0  0  0  0  0
  -31.4259  -17.4662   20.6734 H   0  0  0  0  0  0
  -31.2644  -16.9518   19.0028 H   0  0  0  0  0  0
  -29.0135  -17.8457   18.8201 H   0  0  0  0  0  0
  -31.1481  -22.1834   16.5534 H   0  0  0  0  0  0
  -31.5134  -23.2856   17.8396 H   0  0  0  0  0  0
  -29.9030  -23.2497   17.1073 H   0  0  0  0  0  0
  -30.2535  -24.5201   20.6529 H   0  0  0  0  0  0
  -29.6212  -24.4019   19.0293 H   0  0  0  0  0  0
  -27.9545  -25.1259   21.5070 H   0  0  0  0  0  0
  -27.3166  -24.7576   19.9495 H   0  0  0  0  0  0
  -28.4305  -22.6663   21.1348 H   0  0  0  0  0  0
  1 25  1  0  0  0
  1 30  2  0  0  0
  1 83  1  0  0  0
  2  3  1  0  0  0
  2 25  1  0  0  0
  2 85  1  0  0  0
  2 86  1  0  0  0
  3  4  1  0  0  0
  3 87  1  0  0  0
  3 88  1  0  0  0
  4  5  1  0  0  0
  4 89  1  0  0  0
  4 90  1  0  0  0
  5  6  1  0  0  0
  5 26  1  0  0  0
  5 91  1  0  0  0
  6 25  1  0  0  0
  6 92  1  0  0  0
  6 93  1  0  0  0
  7  8  2  0  0  0
  7 26  1  0  0  0
  7 29  1  0  0  0
  8  9  1  0  0  0
  8 22  1  0  0  0
  9 10  1  0  0  0
  9 27  2  0  0  0
 10 11  2  0  0  0
 10 15  1  0  0  0
 11 12  1  0  0  0
 11 94  1  0  0  0
 12 13  2  0  0  0
 12 95  1  0  0  0
 13 14  1  0  0  0
 13 31  1  0  0  0
 14 15  2  0  0  0
 14 96  1  0  0  0
 15 97  1  0  0  0
 16 17  2  0  0  0
 16 21  1  0  0  0
 16 31  1  0  0  0
 17 18  1  0  0  0
 17 98  1  0  0  0
 18 19  2  0  0  0
 18 99  1  0  0  0
 19 20  1  0  0  0
 19 24  1  0  0  0
 20 21  2  0  0  0
 20100  1  0  0  0
 21 23  1  0  0  0
 22 28  1  0  0  0
 22 32  2  0  0  0
 26 27  1  0  0  0
 28101  1  0  0  0
 28102  1  0  0  0
 29103  1  0  0  0
 29104  1  0  0  0
 33 34  1  0  0  0
 33 66  1  0  0  0
 33 70  2  0  0  0
 34 36  1  0  0  0
 34 59  1  0  0  0
 34105  1  0  0  0
 35 44  2  0  0  0
 35 45  1  0  0  0
 35 68  1  0  0  0
 36 56  1  0  0  0
 36106  1  0  0  0
 37 39  1  0  0  0
 37 47  1  0  0  0
 37 66  1  0  0  0
 37107  1  0  0  0
 38 43  2  0  0  0
 38 46  1  0  0  0
 38 47  1  0  0  0
 39 64  1  0  0  0
 39 67  2  0  0  0
 40 52  1  0  0  0
 40 53  2  0  0  0
 40 58  1  0  0  0
 41108  1  0  0  0
 41109  1  0  0  0
 41110  1  0  0  0
 41 48  1  0  0  0
 42 43  1  0  0  0
 42 66  1  0  0  0
 42111  1  0  0  0
 42112  1  0  0  0
 43 44  1  0  0  0
 44113  1  0  0  0
 45 46  2  0  0  0
 45114  1  0  0  0
 46115  1  0  0  0
 47116  1  0  0  0
 47117  1  0  0  0
 48 56  1  0  0  0
 48 65  1  0  0  0
 48118  1  0  0  0
 49 50  1  0  0  0
 49 53  1  0  0  0
 49 64  1  0  0  0
 49119  1  0  0  0
 50 51  1  0  0  0
 50120  1  0  0  0
 50121  1  0  0  0
 51 52  1  0  0  0
 51122  1  0  0  0
 51123  1  0  0  0
 52124  1  0  0  0
 52125  1  0  0  0
 53 54  1  0  0  0
 54 55  2  0  0  0
 54126  1  0  0  0
 55 57  1  0  0  0
 55127  1  0  0  0
 56 69  2  0  0  0
 57 58  2  0  0  0
 57128  1  0  0  0
 58129  1  0  0  0
 59 60  1  0  0  0
 59 61  1  0  0  0
 59 62  1  0  0  0
 60130  1  0  0  0
 60131  1  0  0  0
 60132  1  0  0  0
 61133  1  0  0  0
 61134  1  0  0  0
 61135  1  0  0  0
 62136  1  0  0  0
 62137  1  0  0  0
 62138  1  0  0  0
 63 65  1  0  0  0
 63139  1  0  0  0
 63140  1  0  0  0
 63141  1  0  0  0
 64142  1  0  0  0
 65143  1  0  0  0
 68 80  1  0  0  0
 71 72  2  0  0  0
 71 82  1  0  0  0
 71144  1  0  0  0
 72 73  1  0  0  0
 72 78  1  0  0  0
 73 81  2  0  0  0
 73 84  1  0  0  0
 74 75  1  0  0  0
 74 77  1  0  0  0
 74145  1  0  0  0
 74146  1  0  0  0
 75 83  1  0  0  0
 75147  1  0  0  0
 75148  1  0  0  0
 76 77  1  0  0  0
 76 83  1  0  0  0
 76149  1  0  0  0
 76150  1  0  0  0
 77 82  1  0  0  0
 77151  1  0  0  0
 78152  1  0  0  0
 78153  1  0  0  0
 78154  1  0  0  0
 79 80  1  0  0  0
 79 84  1  0  0  0
 79155  1  0  0  0
 79156  1  0  0  0
 80157  1  0  0  0
 80158  1  0  0  0
 81 82  1  0  0  0
 84159  1  0  0  0
M  ISO  4   1 100  68 101  80 101  83 100
M  END
> <chiral flag>
0

> <version>
0

> <s_m_source_file>
/data/baiqing/PycharmProjects/Reinvent-master-3.2/result/LINK_invent/BTK/process_docking_weight1_custom_sum_contain_oxygen_bond_distance_aromatic_linkinvent_7_9_3/rearranged_h_0189.sdf

> <i_m_source_file_index>
69

> <r_mmod_Potential_Energy-OPLS-2005>
141.758560180664

> <r_mmod_Stretch_Energy-OPLS-2005>
57.716178894043

> <r_mmod_Bend_Energy-OPLS-2005>
202.383102416992

> <r_mmod_Torsional_Energy-OPLS-2005>
332.627746582031

> <r_mmod_Improper_Torsional_Energy-OPLS-2005>
13.0435838699341

> <r_mmod_Van_der_Waal_Energy-OPLS-2005>
129.159332275391

> <r_mmod_Electrostatic_Energy-OPLS-2005>
-411.1962890625

> <r_mmod_Solvation_Energy-OPLS-2005>
-226.049346923828

> <b_mmod_Minimization_Converged-OPLS-2005>
0

> <r_mmod_RMS_Derivative-OPLS-2005>
10.0226564407349

$$$$
70
                    3D
 Structure written by MMmdl.
158167  0  0  1  0            999 V2000
  -30.6550  -14.6104   20.5212 C   0  0  0  0  0  0
  -30.4255  -12.3816   19.4521 C   0  0  0  0  0  0
  -29.4998  -12.5050   18.2233 C   0  0  0  0  0  0
  -28.0243  -12.3465   18.6377 C   0  0  0  0  0  0
  -27.6496  -13.2192   19.8660 C   0  0  2  0  0  0
  -28.6928  -13.0825   20.9974 C   0  0  0  0  0  0
  -25.2534  -13.8184   20.5708 C   0  0  0  0  0  0
  -24.1807  -13.0439   20.9204 C   0  0  0  0  0  0
  -24.6387  -11.6915   20.8754 C   0  0  0  0  0  0
  -23.9062  -10.4295   21.0415 C   0  0  0  0  0  0
  -24.3614   -9.4210   21.9189 C   0  0  0  0  0  0
  -23.6296   -8.2242   22.0754 C   0  0  0  0  0  0
  -22.4277   -8.0281   21.3545 C   0  0  0  0  0  0
  -21.9914   -9.0252   20.4643 C   0  0  0  0  0  0
  -22.7238  -10.2136   20.3058 C   0  0  0  0  0  0
  -21.6850   -6.0742   22.5282 C   0  0  0  0  0  0
  -21.4010   -6.5644   23.8216 C   0  0  0  0  0  0
  -21.3661   -5.6795   24.9178 C   0  0  0  0  0  0
  -21.6044   -4.3059   24.7227 C   0  0  0  0  0  0
  -21.8817   -3.8153   23.4346 C   0  0  0  0  0  0
  -21.9190   -4.6970   22.3401 C   0  0  0  0  0  0
  -22.7833  -13.5229   21.1865 C   0  0  0  0  0  0
  -22.1659   -4.2158   21.0977 F   0  0  0  0  0  0
  -21.5631   -3.4540   25.7741 F   0  0  0  0  0  0
  -30.0078  -13.4076   20.4281 N   0  0  0  0  0  0
  -26.2964  -12.9370   20.3348 N   0  0  0  0  0  0
  -25.9311  -11.6521   20.5779 N   0  0  0  0  0  0
  -22.0480  -12.8219   22.0420 N   0  0  0  0  0  0
  -25.4240  -15.1904   20.4144 N   0  0  0  0  0  0
  -31.7981  -14.7598   20.0801 O   0  0  0  0  0  0
  -21.6633   -6.8883   21.4245 O   0  0  0  0  0  0
  -22.3528  -14.5543   20.6723 O   0  0  0  0  0  0
  -24.6229  -31.8592   23.2042 C   0  0  0  0  0  0
  -25.9086  -32.4773   23.8357 C   0  0  1  0  0  0
  -27.2300  -27.3444   20.1052 C   0  0  0  0  0  0
  -25.5915  -33.8573   24.2291 N   0  0  0  0  0  0
  -23.4147  -30.4828   21.5452 C   0  0  2  0  0  0
  -24.8609  -28.9372   20.1094 C   0  0  0  0  0  0
  -22.7447  -29.4621   22.4943 C   0  0  0  0  0  0
  -18.0276  -28.1381   22.8501 C   0  0  0  0  0  0
  -24.1485  -36.7286   23.2645 C   0  0  0  0  0  0
  -25.9524  -30.7961   21.3726 C   0  0  0  0  0  0
  -26.0252  -29.4252   20.7147 C   0  0  0  0  0  0
  -27.2079  -28.6362   20.7083 C   0  0  0  0  0  0
  -26.0402  -26.8912   19.4925 C   0  0  0  0  0  0
  -24.8684  -27.6747   19.4932 C   0  0  0  0  0  0
  -23.6272  -29.8138   20.1604 C   0  0  0  0  0  0
  -25.4109  -36.3077   24.0336 C   0  0  1  0  0  0
  -20.5871  -28.3681   23.1294 C   0  0  2  0  0  0
  -20.6761  -26.9410   22.5414 C   0  0  0  0  0  0
  -19.5731  -26.6381   21.5221 C   0  0  0  0  0  0
  -18.1907  -26.7934   22.1623 C   0  0  0  0  0  0
  -19.1530  -28.8851   23.2891 C   0  0  0  0  0  0
  -18.9454  -30.1453   23.8911 C   0  0  0  0  0  0
  -17.6458  -30.6597   24.0559 C   0  0  0  0  0  0
  -25.9041  -34.9447   23.5113 C   0  0  0  0  0  0
  -16.5348  -29.9095   23.6335 C   0  0  0  0  0  0
  -16.7266  -28.6502   23.0381 C   0  0  0  0  0  0
  -26.4504  -31.6589   25.0718 C   0  0  0  0  0  0
  -25.3753  -31.3706   26.1452 C   0  0  0  0  0  0
  -27.0379  -30.3027   24.6170 C   0  0  0  0  0  0
  -27.6053  -32.4346   25.7487 C   0  0  0  0  0  0
  -27.5580  -37.1784   24.8468 C   0  0  0  0  0  0
  -21.4162  -29.3031   22.3688 N   0  0  0  0  0  0
  -26.4290  -37.3770   23.9416 N   0  0  0  0  0  0
  -24.6816  -31.0625   22.0974 N   0  0  0  0  0  0
  -23.4181  -28.8162   23.3020 O   0  0  0  0  0  0
  -28.3845  -26.5604   20.1679 O   0  0  0  0  0  0
  -26.5604  -34.8910   22.4674 O   0  0  0  0  0  0
  -23.5399  -32.1394   23.7379 O   0  0  0  0  0  0
  -28.1890  -23.9726   20.2511 C   0  0  0  0  0  0
  -29.0976  -20.6832   21.3837 C   0  0  0  0  0  0
  -28.8718  -20.2210   19.3727 C   0  0  0  0  0  0
  -30.2962  -16.2713   22.2731 C   0  0  0  0  0  0
  -29.9354  -17.7759   22.2585 C   0  0  0  0  0  0
  -29.6045  -16.8904   20.1437 C   0  0  0  0  0  0
  -28.3194  -21.3970   20.2451 C   0  0  2  0  0  0
  -28.8119  -19.3281   20.6506 C   0  0  1  0  0  0
  -28.5304  -25.2850   19.4484 C   0  0  0  0  0  0
  -29.9388  -15.6900   20.9729 N   0  0  0  0  0  0
  -28.7413  -22.7841   19.8549 N   0  0  0  0  0  0
  -29.8164  -18.1988   20.8496 N   0  3  1  0  0  0
  -27.3952  -24.0259   21.1941 O   0  0  0  0  0  0
  -31.4689  -12.4922   19.1512 H   0  0  0  0  0  0
  -30.3474  -11.3879   19.8959 H   0  0  0  0  0  0
  -29.7611  -11.7535   17.4771 H   0  0  0  0  0  0
  -29.6456  -13.4750   17.7453 H   0  0  0  0  0  0
  -27.8590  -11.2942   18.8702 H   0  0  0  0  0  0
  -27.3685  -12.5780   17.7977 H   0  0  0  0  0  0
  -27.6680  -14.2544   19.5253 H   0  0  0  0  0  0
  -28.6968  -12.0677   21.3989 H   0  0  0  0  0  0
  -28.4404  -13.7380   21.8334 H   0  0  0  0  0  0
  -25.2763   -9.5685   22.4767 H   0  0  0  0  0  0
  -24.0008   -7.4631   22.7475 H   0  0  0  0  0  0
  -21.0850   -8.8776   19.8945 H   0  0  0  0  0  0
  -22.3706  -10.9678   19.6169 H   0  0  0  0  0  0
  -21.2000   -7.6151   23.9723 H   0  0  0  0  0  0
  -21.1486   -6.0524   25.9082 H   0  0  0  0  0  0
  -22.0594   -2.7616   23.2842 H   0  0  0  0  0  0
  -22.4084  -11.9865   22.4791 H   0  0  0  0  0  0
  -21.1098  -13.1250   22.2644 H   0  0  0  0  0  0
  -24.6565  -15.8440   20.5253 H   0  0  0  0  0  0
  -26.2721  -15.6297   20.0840 H   0  0  0  0  0  0
  -26.7147  -32.5456   23.1099 H   0  0  0  0  0  0
  -25.0096  -33.9721   25.0462 H   0  0  0  0  0  0
  -22.7077  -31.3023   21.4015 H   0  0  0  0  0  0
  -23.3751  -35.9610   23.3299 H   0  0  0  0  0  0
  -24.3585  -36.8926   22.2062 H   0  0  0  0  0  0
  -23.7222  -37.6474   23.6682 H   0  0  0  0  0  0
  -26.0813  -31.5602   20.6055 H   0  0  0  0  0  0
  -26.8334  -30.8446   22.0015 H   0  0  0  0  0  0
  -28.1031  -29.0036   21.1909 H   0  0  0  0  0  0
  -25.9827  -25.9154   19.0347 H   0  0  0  0  0  0
  -23.9720  -27.2926   19.0246 H   0  0  0  0  0  0
  -23.7405  -30.5878   19.4004 H   0  0  0  0  0  0
  -22.7497  -29.2367   19.8629 H   0  0  0  0  0  0
  -25.1287  -36.1934   25.0827 H   0  0  0  0  0  0
  -20.9971  -28.3263   24.1413 H   0  0  0  0  0  0
  -20.5674  -26.2296   23.3606 H   0  0  0  0  0  0
  -21.6625  -26.7439   22.1202 H   0  0  0  0  0  0
  -19.6887  -25.6287   21.1255 H   0  0  0  0  0  0
  -19.6678  -27.3187   20.6747 H   0  0  0  0  0  0
  -17.4183  -26.6714   21.4013 H   0  0  0  0  0  0
  -18.0286  -26.0063   22.9007 H   0  0  0  0  0  0
  -19.7929  -30.7254   24.2307 H   0  0  0  0  0  0
  -17.5016  -31.6290   24.5133 H   0  0  0  0  0  0
  -15.5349  -30.3002   23.7656 H   0  0  0  0  0  0
  -15.8661  -28.0810   22.7133 H   0  0  0  0  0  0
  -24.5952  -30.7026   25.7788 H   0  0  0  0  0  0
  -24.8904  -32.2858   26.4854 H   0  0  0  0  0  0
  -25.8092  -30.8914   27.0239 H   0  0  0  0  0  0
  -26.2962  -29.6730   24.1244 H   0  0  0  0  0  0
  -27.4163  -29.7324   25.4666 H   0  0  0  0  0  0
  -27.8785  -30.4339   23.9351 H   0  0  0  0  0  0
  -27.2663  -33.3667   26.2024 H   0  0  0  0  0  0
  -28.3875  -32.6883   25.0319 H   0  0  0  0  0  0
  -28.0711  -31.8505   26.5436 H   0  0  0  0  0  0
  -28.2576  -38.0105   24.7550 H   0  0  0  0  0  0
  -28.1107  -36.2635   24.6263 H   0  0  0  0  0  0
  -27.2303  -37.1397   25.8872 H   0  0  0  0  0  0
  -20.9348  -29.8758   21.6897 H   0  0  0  0  0  0
  -26.0178  -38.2842   24.1435 H   0  0  0  0  0  0
  -28.6367  -20.7732   22.3678 H   0  0  0  0  0  0
  -30.1550  -20.9557   21.4196 H   0  0  0  0  0  0
  -29.8844  -20.3915   19.0005 H   0  0  0  0  0  0
  -28.2057  -19.9015   18.5698 H   0  0  0  0  0  0
  -29.7825  -15.7524   23.0840 H   0  0  0  0  0  0
  -31.3683  -16.1623   22.4535 H   0  0  0  0  0  0
  -30.6620  -18.3843   22.7976 H   0  0  0  0  0  0
  -28.9734  -17.9101   22.7566 H   0  0  0  0  0  0
  -28.5534  -16.8075   19.8650 H   0  0  0  0  0  0
  -30.1667  -16.8956   19.2079 H   0  0  0  0  0  0
  -27.2384  -21.3111   20.3872 H   0  0  0  0  0  0
  -27.7948  -18.9806   20.8486 H   0  0  0  0  0  0
  -27.9952  -25.2901   18.4995 H   0  0  0  0  0  0
  -29.5829  -25.2180   19.1729 H   0  0  0  0  0  0
  -29.3926  -22.8521   19.0832 H   0  0  0  0  0  0
  -30.7300  -18.5260   20.5701 H   0  0  0  0  0  0
  1 25  1  0  0  0
  1 30  2  0  0  0
  1 80  1  0  0  0
  2  3  1  0  0  0
  2 25  1  0  0  0
  2 84  1  0  0  0
  2 85  1  0  0  0
  3  4  1  0  0  0
  3 86  1  0  0  0
  3 87  1  0  0  0
  4  5  1  0  0  0
  4 88  1  0  0  0
  4 89  1  0  0  0
  5  6  1  0  0  0
  5 26  1  0  0  0
  5 90  1  0  0  0
  6 25  1  0  0  0
  6 91  1  0  0  0
  6 92  1  0  0  0
  7  8  2  0  0  0
  7 26  1  0  0  0
  7 29  1  0  0  0
  8  9  1  0  0  0
  8 22  1  0  0  0
  9 10  1  0  0  0
  9 27  2  0  0  0
 10 11  2  0  0  0
 10 15  1  0  0  0
 11 12  1  0  0  0
 11 93  1  0  0  0
 12 13  2  0  0  0
 12 94  1  0  0  0
 13 14  1  0  0  0
 13 31  1  0  0  0
 14 15  2  0  0  0
 14 95  1  0  0  0
 15 96  1  0  0  0
 16 17  2  0  0  0
 16 21  1  0  0  0
 16 31  1  0  0  0
 17 18  1  0  0  0
 17 97  1  0  0  0
 18 19  2  0  0  0
 18 98  1  0  0  0
 19 20  1  0  0  0
 19 24  1  0  0  0
 20 21  2  0  0  0
 20 99  1  0  0  0
 21 23  1  0  0  0
 22 28  1  0  0  0
 22 32  2  0  0  0
 26 27  1  0  0  0
 28100  1  0  0  0
 28101  1  0  0  0
 29102  1  0  0  0
 29103  1  0  0  0
 33 34  1  0  0  0
 33 66  1  0  0  0
 33 70  2  0  0  0
 34 36  1  0  0  0
 34 59  1  0  0  0
 34104  1  0  0  0
 35 44  2  0  0  0
 35 45  1  0  0  0
 35 68  1  0  0  0
 36 56  1  0  0  0
 36105  1  0  0  0
 37 39  1  0  0  0
 37 47  1  0  0  0
 37 66  1  0  0  0
 37106  1  0  0  0
 38 43  2  0  0  0
 38 46  1  0  0  0
 38 47  1  0  0  0
 39 64  1  0  0  0
 39 67  2  0  0  0
 40 52  1  0  0  0
 40 53  2  0  0  0
 40 58  1  0  0  0
 41107  1  0  0  0
 41108  1  0  0  0
 41109  1  0  0  0
 41 48  1  0  0  0
 42 43  1  0  0  0
 42 66  1  0  0  0
 42110  1  0  0  0
 42111  1  0  0  0
 43 44  1  0  0  0
 44112  1  0  0  0
 45 46  2  0  0  0
 45113  1  0  0  0
 46114  1  0  0  0
 47115  1  0  0  0
 47116  1  0  0  0
 48 56  1  0  0  0
 48 65  1  0  0  0
 48117  1  0  0  0
 49 50  1  0  0  0
 49 53  1  0  0  0
 49 64  1  0  0  0
 49118  1  0  0  0
 50 51  1  0  0  0
 50119  1  0  0  0
 50120  1  0  0  0
 51 52  1  0  0  0
 51121  1  0  0  0
 51122  1  0  0  0
 52123  1  0  0  0
 52124  1  0  0  0
 53 54  1  0  0  0
 54 55  2  0  0  0
 54125  1  0  0  0
 55 57  1  0  0  0
 55126  1  0  0  0
 56 69  2  0  0  0
 57 58  2  0  0  0
 57127  1  0  0  0
 58128  1  0  0  0
 59 60  1  0  0  0
 59 61  1  0  0  0
 59 62  1  0  0  0
 60129  1  0  0  0
 60130  1  0  0  0
 60131  1  0  0  0
 61132  1  0  0  0
 61133  1  0  0  0
 61134  1  0  0  0
 62135  1  0  0  0
 62136  1  0  0  0
 62137  1  0  0  0
 63 65  1  0  0  0
 63138  1  0  0  0
 63139  1  0  0  0
 63140  1  0  0  0
 64141  1  0  0  0
 65142  1  0  0  0
 68 79  1  0  0  0
 71 79  1  0  0  0
 71 81  1  0  0  0
 71 83  2  0  0  0
 72 77  1  0  0  0
 72143  1  0  0  0
 72144  1  0  0  0
 72 78  1  0  0  0
 73 77  1  0  0  0
 73 78  1  0  0  0
 73145  1  0  0  0
 73146  1  0  0  0
 74 75  1  0  0  0
 74 80  1  0  0  0
 74147  1  0  0  0
 74148  1  0  0  0
 75149  1  0  0  0
 75150  1  0  0  0
 75 82  1  0  0  0
 76 80  1  0  0  0
 76 82  1  0  0  0
 76151  1  0  0  0
 76152  1  0  0  0
 77 81  1  0  0  0
 77153  1  0  0  0
 78 82  1  0  0  0
 78154  1  0  0  0
 79155  1  0  0  0
 79156  1  0  0  0
 81157  1  0  0  0
 82158  1  0  0  0
M  CHG  1  82   1
M  ISO  4   1 100  68 101  79 101  80 100
M  END
> <chiral flag>
0

> <version>
0

> <s_m_source_file>
/data/baiqing/PycharmProjects/Reinvent-master-3.2/result/LINK_invent/BTK/process_docking_weight1_custom_sum_contain_oxygen_bond_distance_aromatic_linkinvent_7_9_3/rearranged_h_0189.sdf

> <i_m_source_file_index>
70

> <r_mmod_Potential_Energy-OPLS-2005>
40.4369812011719

> <r_mmod_Stretch_Energy-OPLS-2005>
67.5847091674805

> <r_mmod_Bend_Energy-OPLS-2005>
188.55712890625

> <r_mmod_Torsional_Energy-OPLS-2005>
355.782165527344

> <r_mmod_Improper_Torsional_Energy-OPLS-2005>
8.39410591125488

> <r_mmod_Van_der_Waal_Energy-OPLS-2005>
118.373497009277

> <r_mmod_Electrostatic_Energy-OPLS-2005>
-237.260055541992

> <r_mmod_Solvation_Energy-OPLS-2005>
-498.661254882812

> <b_mmod_Minimization_Converged-OPLS-2005>
0

> <r_mmod_RMS_Derivative-OPLS-2005>
1.31717896461487

$$$$
71
                    3D
 Structure written by MMmdl.
150158  0  0  1  0            999 V2000
  -30.3967  -15.3784   20.3357 C   0  0  0  0  0  0
  -30.4320  -12.8767   19.5546 C   0  0  0  0  0  0
  -29.5451  -12.6049   18.3110 C   0  0  0  0  0  0
  -28.0972  -12.3086   18.7324 C   0  0  0  0  0  0
  -27.6077  -13.2897   19.8250 C   0  0  2  0  0  0
  -28.6315  -13.5078   20.9625 C   0  0  0  0  0  0
  -25.2360  -13.8273   20.5768 C   0  0  0  0  0  0
  -24.1726  -13.0441   20.9272 C   0  0  0  0  0  0
  -24.6400  -11.6943   20.8756 C   0  0  0  0  0  0
  -23.9099  -10.4291   21.0394 C   0  0  0  0  0  0
  -24.3639   -9.4202   21.9172 C   0  0  0  0  0  0
  -23.6306   -8.2244   22.0745 C   0  0  0  0  0  0
  -22.4286   -8.0282   21.3542 C   0  0  0  0  0  0
  -21.9930   -9.0255   20.4638 C   0  0  0  0  0  0
  -22.7267  -10.2131   20.3043 C   0  0  0  0  0  0
  -21.6861   -6.0731   22.5272 C   0  0  0  0  0  0
  -21.4019   -6.5632   23.8206 C   0  0  0  0  0  0
  -21.3665   -5.6784   24.9168 C   0  0  0  0  0  0
  -21.6048   -4.3046   24.7217 C   0  0  0  0  0  0
  -21.8819   -3.8138   23.4336 C   0  0  0  0  0  0
  -21.9195   -4.6957   22.3394 C   0  0  0  0  0  0
  -22.7737  -13.5181   21.1911 C   0  0  0  0  0  0
  -22.1660   -4.2141   21.0972 F   0  0  0  0  0  0
  -21.5638   -3.4530   25.7730 F   0  0  0  0  0  0
  -29.8574  -14.0428   20.3432 N   0  0  0  0  0  0
  -26.2794  -12.9572   20.3222 N   0  0  0  0  0  0
  -25.9340  -11.6661   20.5704 N   0  0  0  0  0  0
  -22.0399  -12.8164   22.0468 N   0  0  0  0  0  0
  -25.3998  -15.2010   20.4208 N   0  0  0  0  0  0
  -31.6123  -15.3416   20.0703 O   0  0  0  0  0  0
  -21.6650   -6.8878   21.4236 O   0  0  0  0  0  0
  -22.3411  -14.5479   20.6748 O   0  0  0  0  0  0
  -24.6688  -31.8159   23.1637 C   0  0  0  0  0  0
  -25.9338  -32.4547   23.8127 C   0  0  1  0  0  0
  -27.2210  -26.8542   20.1917 C   0  0  0  0  0  0
  -25.5981  -33.8368   24.2028 N   0  0  0  0  0  0
  -23.4876  -30.4228   21.5145 C   0  0  2  0  0  0
  -24.9436  -28.7962   20.1085 C   0  0  0  0  0  0
  -22.7702  -29.4392   22.4762 C   0  0  0  0  0  0
  -18.0327  -28.1420   22.8465 C   0  0  0  0  0  0
  -24.1500  -36.7188   23.2651 C   0  0  0  0  0  0
  -26.0596  -30.5977   21.4064 C   0  0  0  0  0  0
  -26.1265  -29.1798   20.7509 C   0  0  0  0  0  0
  -27.2536  -28.2298   20.7686 C   0  0  0  0  0  0
  -26.0125  -26.6448   19.4875 C   0  0  0  0  0  0
  -24.9171  -27.5522   19.4548 C   0  0  0  0  0  0
  -23.7312  -29.7313   20.1430 C   0  0  0  0  0  0
  -25.4146  -36.2944   24.0294 C   0  0  1  0  0  0
  -20.5955  -28.3764   23.1183 C   0  0  2  0  0  0
  -20.6801  -26.9440   22.5413 C   0  0  0  0  0  0
  -19.5776  -26.6379   21.5226 C   0  0  0  0  0  0
  -18.1956  -26.7952   22.1625 C   0  0  0  0  0  0
  -19.1590  -28.8915   23.2806 C   0  0  0  0  0  0
  -18.9496  -30.1503   23.8844 C   0  0  0  0  0  0
  -17.6486  -30.6601   24.0554 C   0  0  0  0  0  0
  -25.9115  -34.9331   23.4988 C   0  0  0  0  0  0
  -16.5376  -29.9083   23.6349 C   0  0  0  0  0  0
  -16.7309  -28.6508   23.0362 C   0  0  0  0  0  0
  -26.4570  -31.6524   25.0688 C   0  0  0  0  0  0
  -25.3671  -31.3789   26.1324 C   0  0  0  0  0  0
  -27.0477  -30.2879   24.6478 C   0  0  0  0  0  0
  -27.6053  -32.4347   25.7492 C   0  0  0  0  0  0
  -27.5572  -37.1753   24.8466 C   0  0  0  0  0  0
  -21.4365  -29.3034   22.3517 N   0  0  0  0  0  0
  -26.4284  -37.3686   23.9401 N   0  0  0  0  0  0
  -24.7603  -30.9745   22.0816 N   0  0  0  0  0  0
  -23.4218  -28.7986   23.3049 O   0  0  0  0  0  0
  -28.2104  -25.7172   20.3196 O   0  0  0  0  0  0
  -26.5735  -34.8876   22.4592 O   0  0  0  0  0  0
  -23.5744  -32.1167   23.6687 O   0  0  0  0  0  0
  -29.6175  -20.7517   18.7265 C   0  0  0  0  0  0
  -29.0985  -20.8157   20.0268 C   0  0  0  0  0  0
  -30.1110  -19.5410   18.1892 C   0  0  0  0  0  0
  -29.6627  -18.2005   20.0598 C   0  0  0  0  0  0
  -30.2123  -20.4731   15.9115 C   0  0  0  0  0  0
  -28.7075  -22.4501   20.6372 C   0  0  0  0  0  0
  -28.1546  -24.0719   19.9258 C   0  0  0  0  0  0
  -29.1395  -19.4506   20.6469 N   0  0  0  0  0  0
  -30.1435  -18.3499   18.8263 N   0  0  0  0  0  0
  -30.6362  -19.4862   16.8976 N   0  0  0  0  0  0
  -29.6531  -16.6814   20.5268 N   0  0  0  0  0  0
  -31.4530  -13.0737   19.2261 H   0  0  0  0  0  0
  -30.5039  -11.9830   20.1769 H   0  0  0  0  0  0
  -29.9463  -11.7735   17.7293 H   0  0  0  0  0  0
  -29.5631  -13.4775   17.6562 H   0  0  0  0  0  0
  -28.0670  -11.2889   19.1180 H   0  0  0  0  0  0
  -27.4331  -12.3305   17.8673 H   0  0  0  0  0  0
  -27.5103  -14.2462   19.3103 H   0  0  0  0  0  0
  -28.8170  -12.5867   21.5169 H   0  0  0  0  0  0
  -28.2467  -14.2294   21.6848 H   0  0  0  0  0  0
  -25.2781   -9.5677   22.4746 H   0  0  0  0  0  0
  -24.0009   -7.4636   22.7466 H   0  0  0  0  0  0
  -21.0865   -8.8777   19.8943 H   0  0  0  0  0  0
  -22.3727  -10.9664   19.6148 H   0  0  0  0  0  0
  -21.2008   -7.6140   23.9710 H   0  0  0  0  0  0
  -21.1495   -6.0510   25.9073 H   0  0  0  0  0  0
  -22.0595   -2.7597   23.2838 H   0  0  0  0  0  0
  -22.4043  -11.9844   22.4866 H   0  0  0  0  0  0
  -21.0999  -13.1145   22.2651 H   0  0  0  0  0  0
  -24.6311  -15.8522   20.5382 H   0  0  0  0  0  0
  -26.2359  -15.6373   20.0551 H   0  0  0  0  0  0
  -26.7412  -32.5063   23.0841 H   0  0  0  0  0  0
  -25.0048  -33.9433   25.0126 H   0  0  0  0  0  0
  -22.8044  -31.2563   21.3375 H   0  0  0  0  0  0
  -23.3776  -35.9502   23.3282 H   0  0  0  0  0  0
  -24.3571  -36.8868   22.2069 H   0  0  0  0  0  0
  -23.7243  -37.6360   23.6732 H   0  0  0  0  0  0
  -26.2489  -31.3360   20.6257 H   0  0  0  0  0  0
  -26.9157  -30.6567   22.0665 H   0  0  0  0  0  0
  -28.1429  -28.5194   21.3106 H   0  0  0  0  0  0
  -25.8721  -25.6969   18.9894 H   0  0  0  0  0  0
  -24.0208  -27.2544   18.9281 H   0  0  0  0  0  0
  -23.8891  -30.4965   19.3822 H   0  0  0  0  0  0
  -22.8396  -29.1872   19.8262 H   0  0  0  0  0  0
  -25.1354  -36.1731   25.0784 H   0  0  0  0  0  0
  -21.0039  -28.3380   24.1308 H   0  0  0  0  0  0
  -20.5688  -26.2386   23.3662 H   0  0  0  0  0  0
  -21.6663  -26.7414   22.1215 H   0  0  0  0  0  0
  -19.6932  -25.6276   21.1289 H   0  0  0  0  0  0
  -19.6715  -27.3164   20.6736 H   0  0  0  0  0  0
  -17.4230  -26.6704   21.4019 H   0  0  0  0  0  0
  -18.0332  -26.0108   22.9033 H   0  0  0  0  0  0
  -19.7966  -30.7335   24.2194 H   0  0  0  0  0  0
  -17.5030  -31.6278   24.5164 H   0  0  0  0  0  0
  -15.5371  -30.2960   23.7707 H   0  0  0  0  0  0
  -15.8711  -28.0805   22.7105 H   0  0  0  0  0  0
  -24.5880  -30.7119   25.7615 H   0  0  0  0  0  0
  -24.8833  -32.2993   26.4602 H   0  0  0  0  0  0
  -25.7877  -30.9043   27.0198 H   0  0  0  0  0  0
  -26.3158  -29.6531   24.1473 H   0  0  0  0  0  0
  -27.3966  -29.7275   25.5163 H   0  0  0  0  0  0
  -27.9119  -30.4040   23.9932 H   0  0  0  0  0  0
  -27.2622  -33.3703   26.1919 H   0  0  0  0  0  0
  -28.3938  -32.6817   25.0370 H   0  0  0  0  0  0
  -28.0640  -31.8572   26.5529 H   0  0  0  0  0  0
  -28.2575  -38.0064   24.7509 H   0  0  0  0  0  0
  -28.1085  -36.2588   24.6307 H   0  0  0  0  0  0
  -27.2283  -37.1406   25.8868 H   0  0  0  0  0  0
  -20.9648  -29.8684   21.6598 H   0  0  0  0  0  0
  -26.0132  -38.2744   24.1397 H   0  0  0  0  0  0
  -29.6713  -21.6703   18.1603 H   0  0  0  0  0  0
  -30.7277  -21.4216   16.0672 H   0  0  0  0  0  0
  -29.1370  -20.6508   15.9655 H   0  0  0  0  0  0
  -30.4441  -20.1286   14.9032 H   0  0  0  0  0  0
  -29.6391  -22.7100   21.1377 H   0  0  0  0  0  0
  -28.0233  -22.2583   21.4630 H   0  0  0  0  0  0
  -27.1161  -23.8978   19.6486 H   0  0  0  0  0  0
  -28.6696  -24.0873   18.9653 H   0  0  0  0  0  0
  -30.8745  -18.5599   16.5581 H   0  0  0  0  0  0
  -28.7965  -16.4879   21.0186 H   0  0  0  0  0  0
  1 25  1  0  0  0
  1 30  2  0  0  0
  1 81  1  0  0  0
  2  3  1  0  0  0
  2 25  1  0  0  0
  2 82  1  0  0  0
  2 83  1  0  0  0
  3  4  1  0  0  0
  3 84  1  0  0  0
  3 85  1  0  0  0
  4  5  1  0  0  0
  4 86  1  0  0  0
  4 87  1  0  0  0
  5  6  1  0  0  0
  5 26  1  0  0  0
  5 88  1  0  0  0
  6 25  1  0  0  0
  6 89  1  0  0  0
  6 90  1  0  0  0
  7  8  2  0  0  0
  7 26  1  0  0  0
  7 29  1  0  0  0
  8  9  1  0  0  0
  8 22  1  0  0  0
  9 10  1  0  0  0
  9 27  2  0  0  0
 10 11  2  0  0  0
 10 15  1  0  0  0
 11 12  1  0  0  0
 11 91  1  0  0  0
 12 13  2  0  0  0
 12 92  1  0  0  0
 13 14  1  0  0  0
 13 31  1  0  0  0
 14 15  2  0  0  0
 14 93  1  0  0  0
 15 94  1  0  0  0
 16 17  2  0  0  0
 16 21  1  0  0  0
 16 31  1  0  0  0
 17 18  1  0  0  0
 17 95  1  0  0  0
 18 19  2  0  0  0
 18 96  1  0  0  0
 19 20  1  0  0  0
 19 24  1  0  0  0
 20 21  2  0  0  0
 20 97  1  0  0  0
 21 23  1  0  0  0
 22 28  1  0  0  0
 22 32  2  0  0  0
 26 27  1  0  0  0
 28 98  1  0  0  0
 28 99  1  0  0  0
 29100  1  0  0  0
 29101  1  0  0  0
 33 34  1  0  0  0
 33 66  1  0  0  0
 33 70  2  0  0  0
 34 36  1  0  0  0
 34 59  1  0  0  0
 34102  1  0  0  0
 35 44  2  0  0  0
 35 45  1  0  0  0
 35 68  1  0  0  0
 36 56  1  0  0  0
 36103  1  0  0  0
 37 39  1  0  0  0
 37 47  1  0  0  0
 37 66  1  0  0  0
 37104  1  0  0  0
 38 43  2  0  0  0
 38 46  1  0  0  0
 38 47  1  0  0  0
 39 64  1  0  0  0
 39 67  2  0  0  0
 40 52  1  0  0  0
 40 53  2  0  0  0
 40 58  1  0  0  0
 41105  1  0  0  0
 41106  1  0  0  0
 41107  1  0  0  0
 41 48  1  0  0  0
 42 43  1  0  0  0
 42 66  1  0  0  0
 42108  1  0  0  0
 42109  1  0  0  0
 43 44  1  0  0  0
 44110  1  0  0  0
 45 46  2  0  0  0
 45111  1  0  0  0
 46112  1  0  0  0
 47113  1  0  0  0
 47114  1  0  0  0
 48 56  1  0  0  0
 48 65  1  0  0  0
 48115  1  0  0  0
 49 50  1  0  0  0
 49 53  1  0  0  0
 49 64  1  0  0  0
 49116  1  0  0  0
 50 51  1  0  0  0
 50117  1  0  0  0
 50118  1  0  0  0
 51 52  1  0  0  0
 51119  1  0  0  0
 51120  1  0  0  0
 52121  1  0  0  0
 52122  1  0  0  0
 53 54  1  0  0  0
 54 55  2  0  0  0
 54123  1  0  0  0
 55 57  1  0  0  0
 55124  1  0  0  0
 56 69  2  0  0  0
 57 58  2  0  0  0
 57125  1  0  0  0
 58126  1  0  0  0
 59 60  1  0  0  0
 59 61  1  0  0  0
 59 62  1  0  0  0
 60127  1  0  0  0
 60128  1  0  0  0
 60129  1  0  0  0
 61130  1  0  0  0
 61131  1  0  0  0
 61132  1  0  0  0
 62133  1  0  0  0
 62134  1  0  0  0
 62135  1  0  0  0
 63 65  1  0  0  0
 63136  1  0  0  0
 63137  1  0  0  0
 63138  1  0  0  0
 64139  1  0  0  0
 65140  1  0  0  0
 68 77  1  0  0  0
 71 72  2  0  0  0
 71 73  1  0  0  0
 71141  1  0  0  0
 72 76  1  0  0  0
 72 78  1  0  0  0
 73 79  2  0  0  0
 73 80  1  0  0  0
 74 78  2  0  0  0
 74 79  1  0  0  0
 74 81  1  0  0  0
 75 80  1  0  0  0
 75142  1  0  0  0
 75143  1  0  0  0
 75144  1  0  0  0
 76 77  1  0  0  0
 76145  1  0  0  0
 76146  1  0  0  0
 77147  1  0  0  0
 77148  1  0  0  0
 80149  1  0  0  0
 81150  1  0  0  0
M  ISO  4   1 100  68 101  77 101  81 100
M  END
> <chiral flag>
0

> <version>
0

> <s_m_source_file>
/data/baiqing/PycharmProjects/Reinvent-master-3.2/result/LINK_invent/BTK/process_docking_weight1_custom_sum_contain_oxygen_bond_distance_aromatic_linkinvent_7_9_3/rearranged_h_0189.sdf

> <i_m_source_file_index>
71

> <r_mmod_Potential_Energy-OPLS-2005>
1062.25415039062

> <r_mmod_Stretch_Energy-OPLS-2005>
717.764892578125

> <r_mmod_Bend_Energy-OPLS-2005>
507.929382324219

> <r_mmod_Torsional_Energy-OPLS-2005>
220.007369995117

> <r_mmod_Improper_Torsional_Energy-OPLS-2005>
5.75265836715698

> <r_mmod_Van_der_Waal_Energy-OPLS-2005>
132.791320800781

> <r_mmod_Electrostatic_Energy-OPLS-2005>
-829.95166015625

> <r_mmod_Solvation_Energy-OPLS-2005>
-268.843444824219

> <b_mmod_Minimization_Converged-OPLS-2005>
0

> <r_mmod_RMS_Derivative-OPLS-2005>
0.971948206424713

$$$$
72
                    3D
 Structure written by MMmdl.
166176  0  0  1  0            999 V2000
  -30.6513  -14.6714   20.4727 C   0  0  0  0  0  0
  -30.4277  -12.4077   19.4668 C   0  0  0  0  0  0
  -29.5079  -12.5004   18.2307 C   0  0  0  0  0  0
  -28.0325  -12.3386   18.6438 C   0  0  0  0  0  0
  -27.6477  -13.2271   19.8576 C   0  0  2  0  0  0
  -28.6935  -13.1384   20.9910 C   0  0  0  0  0  0
  -25.2552  -13.8199   20.5710 C   0  0  0  0  0  0
  -24.1817  -13.0451   20.9192 C   0  0  0  0  0  0
  -24.6394  -11.6925   20.8744 C   0  0  0  0  0  0
  -23.9067  -10.4305   21.0414 C   0  0  0  0  0  0
  -24.3618   -9.4218   21.9188 C   0  0  0  0  0  0
  -23.6297   -8.2248   22.0755 C   0  0  0  0  0  0
  -22.4280   -8.0286   21.3545 C   0  0  0  0  0  0
  -21.9914   -9.0258   20.4646 C   0  0  0  0  0  0
  -22.7239  -10.2140   20.3067 C   0  0  0  0  0  0
  -21.6853   -6.0742   22.5281 C   0  0  0  0  0  0
  -21.4012   -6.5642   23.8213 C   0  0  0  0  0  0
  -21.3659   -5.6795   24.9176 C   0  0  0  0  0  0
  -21.6048   -4.3059   24.7224 C   0  0  0  0  0  0
  -21.8819   -3.8149   23.4345 C   0  0  0  0  0  0
  -21.9189   -4.6970   22.3402 C   0  0  0  0  0  0
  -22.7837  -13.5243   21.1843 C   0  0  0  0  0  0
  -22.1662   -4.2153   21.0984 F   0  0  0  0  0  0
  -21.5629   -3.4544   25.7736 F   0  0  0  0  0  0
  -30.0008  -13.4640   20.4086 N   0  0  0  0  0  0
  -26.2975  -12.9393   20.3331 N   0  0  0  0  0  0
  -25.9328  -11.6540   20.5773 N   0  0  0  0  0  0
  -22.0476  -12.8241   22.0409 N   0  0  0  0  0  0
  -25.4294  -15.1917   20.4143 N   0  0  0  0  0  0
  -31.8339  -14.7572   20.1281 O   0  0  0  0  0  0
  -21.6640   -6.8890   21.4244 O   0  0  0  0  0  0
  -22.3518  -14.5544   20.6689 O   0  0  0  0  0  0
  -24.6286  -31.8586   23.2030 C   0  0  0  0  0  0
  -25.9128  -32.4767   23.8358 C   0  0  1  0  0  0
  -27.2176  -27.2960   20.1135 C   0  0  0  0  0  0
  -25.5941  -33.8570   24.2284 N   0  0  0  0  0  0
  -23.4232  -30.4846   21.5462 C   0  0  2  0  0  0
  -24.8685  -28.9423   20.1116 C   0  0  0  0  0  0
  -22.7487  -29.4625   22.4925 C   0  0  0  0  0  0
  -18.0290  -28.1380   22.8487 C   0  0  0  0  0  0
  -24.1496  -36.7285   23.2640 C   0  0  0  0  0  0
  -25.9691  -30.7811   21.3810 C   0  0  0  0  0  0
  -26.0412  -29.4094   20.7179 C   0  0  0  0  0  0
  -27.2188  -28.5979   20.7114 C   0  0  0  0  0  0
  -26.0178  -26.8977   19.4740 C   0  0  0  0  0  0
  -24.8591  -27.6911   19.4830 C   0  0  0  0  0  0
  -23.6391  -29.8244   20.1611 C   0  0  0  0  0  0
  -25.4120  -36.3073   24.0330 C   0  0  1  0  0  0
  -20.5891  -28.3691   23.1276 C   0  0  2  0  0  0
  -20.6778  -26.9408   22.5415 C   0  0  0  0  0  0
  -19.5759  -26.6380   21.5213 C   0  0  0  0  0  0
  -18.1934  -26.7929   22.1611 C   0  0  0  0  0  0
  -19.1542  -28.8854   23.2875 C   0  0  0  0  0  0
  -18.9464  -30.1456   23.8890 C   0  0  0  0  0  0
  -17.6464  -30.6583   24.0561 C   0  0  0  0  0  0
  -25.9059  -34.9444   23.5105 C   0  0  0  0  0  0
  -16.5355  -29.9078   23.6331 C   0  0  0  0  0  0
  -16.7277  -28.6494   23.0356 C   0  0  0  0  0  0
  -26.4514  -31.6572   25.0728 C   0  0  0  0  0  0
  -25.3751  -31.3711   26.1454 C   0  0  0  0  0  0
  -27.0362  -30.2990   24.6202 C   0  0  0  0  0  0
  -27.6076  -32.4311   25.7487 C   0  0  0  0  0  0
  -27.5592  -37.1786   24.8457 C   0  0  0  0  0  0
  -21.4198  -29.3042   22.3664 N   0  0  0  0  0  0
  -26.4294  -37.3770   23.9413 N   0  0  0  0  0  0
  -24.6924  -31.0583   22.0994 N   0  0  0  0  0  0
  -23.4203  -28.8163   23.3010 O   0  0  0  0  0  0
  -28.3133  -26.4080   20.1792 O   0  0  0  0  0  0
  -26.5623  -34.8912   22.4668 O   0  0  0  0  0  0
  -23.5447  -32.1395   23.7345 O   0  0  0  0  0  0
  -30.4128  -23.9100   20.5703 C   0  0  0  0  0  0
  -29.0594  -23.8351   20.3050 C   0  0  0  0  0  0
  -29.8461  -21.7509   20.5784 C   0  0  0  0  0  0
  -32.1693  -25.3837   21.8544 C   0  0  0  0  0  0
  -31.0019  -26.2855   21.5414 C   0  0  0  0  0  0
  -29.8805  -18.0554   21.8200 C   0  0  0  0  0  0
  -30.0772  -18.1754   19.3880 C   0  0  0  0  0  0
  -29.4592  -16.5371   21.7310 C   0  0  0  0  0  0
  -29.6553  -16.6625   19.2949 C   0  0  0  0  0  0
  -31.3095  -25.1111   20.6401 C   0  0  0  0  0  0
  -29.5152  -18.9629   20.6031 C   0  0  0  0  0  0
  -32.2722  -22.2153   21.0008 C   0  0  0  0  0  0
  -28.0274  -24.9599   19.9618 C   0  0  0  0  0  0
  -28.7202  -22.4417   20.3143 N   0  0  0  0  0  0
  -30.8914  -22.5960   20.7278 N   0  0  0  0  0  0
  -29.8763  -15.8204   20.5020 N   0  0  0  0  0  0
  -30.0908  -20.3436   20.7196 N   0  0  0  0  0  0
  -31.4723  -12.5108   19.1674 H   0  0  0  0  0  0
  -30.3477  -11.4264   19.9367 H   0  0  0  0  0  0
  -29.7783  -11.7373   17.4991 H   0  0  0  0  0  0
  -29.6491  -13.4633   17.7375 H   0  0  0  0  0  0
  -27.8754  -11.2878   18.8904 H   0  0  0  0  0  0
  -27.3782  -12.5527   17.7980 H   0  0  0  0  0  0
  -27.6497  -14.2535   19.4910 H   0  0  0  0  0  0
  -28.7100  -12.1412   21.4315 H   0  0  0  0  0  0
  -28.4428  -13.8253   21.7998 H   0  0  0  0  0  0
  -25.2766   -9.5688   22.4750 H   0  0  0  0  0  0
  -24.0005   -7.4639   22.7471 H   0  0  0  0  0  0
  -21.0846   -8.8784   19.8949 H   0  0  0  0  0  0
  -22.3707  -10.9677   19.6174 H   0  0  0  0  0  0
  -21.2009   -7.6147   23.9722 H   0  0  0  0  0  0
  -21.1482   -6.0524   25.9080 H   0  0  0  0  0  0
  -22.0598   -2.7609   23.2847 H   0  0  0  0  0  0
  -22.4089  -11.9904   22.4800 H   0  0  0  0  0  0
  -21.1093  -13.1279   22.2615 H   0  0  0  0  0  0
  -24.6701  -15.8547   20.5260 H   0  0  0  0  0  0
  -26.2959  -15.6264   20.1229 H   0  0  0  0  0  0
  -26.7191  -32.5431   23.1096 H   0  0  0  0  0  0
  -25.0086  -33.9713   25.0426 H   0  0  0  0  0  0
  -22.7181  -31.3064   21.4032 H   0  0  0  0  0  0
  -23.3766  -35.9607   23.3279 H   0  0  0  0  0  0
  -24.3592  -36.8933   22.2060 H   0  0  0  0  0  0
  -23.7239  -37.6475   23.6679 H   0  0  0  0  0  0
  -26.1113  -31.5475   20.6182 H   0  0  0  0  0  0
  -26.8456  -30.8224   22.0156 H   0  0  0  0  0  0
  -28.1149  -28.9471   21.2050 H   0  0  0  0  0  0
  -25.9284  -25.9488   18.9687 H   0  0  0  0  0  0
  -23.9589  -27.3272   19.0070 H   0  0  0  0  0  0
  -23.7641  -30.6025   19.4071 H   0  0  0  0  0  0
  -22.7584  -29.2570   19.8550 H   0  0  0  0  0  0
  -25.1299  -36.1921   25.0823 H   0  0  0  0  0  0
  -20.9986  -28.3270   24.1394 H   0  0  0  0  0  0
  -20.5670  -26.2302   23.3616 H   0  0  0  0  0  0
  -21.6650  -26.7424   22.1219 H   0  0  0  0  0  0
  -19.6921  -25.6289   21.1246 H   0  0  0  0  0  0
  -19.6708  -27.3187   20.6741 H   0  0  0  0  0  0
  -17.4213  -26.6698   21.3998 H   0  0  0  0  0  0
  -18.0310  -26.0058   22.8991 H   0  0  0  0  0  0
  -19.7941  -30.7277   24.2251 H   0  0  0  0  0  0
  -17.5016  -31.6266   24.5160 H   0  0  0  0  0  0
  -15.5355  -30.2980   23.7654 H   0  0  0  0  0  0
  -15.8677  -28.0811   22.7074 H   0  0  0  0  0  0
  -24.5929  -30.7052   25.7786 H   0  0  0  0  0  0
  -24.8938  -32.2878   26.4877 H   0  0  0  0  0  0
  -25.8085  -30.8895   27.0229 H   0  0  0  0  0  0
  -26.2942  -29.6722   24.1241 H   0  0  0  0  0  0
  -27.4064  -29.7263   25.4717 H   0  0  0  0  0  0
  -27.8815  -30.4261   23.9432 H   0  0  0  0  0  0
  -27.2682  -33.3599   26.2082 H   0  0  0  0  0  0
  -28.3865  -32.6889   25.0298 H   0  0  0  0  0  0
  -28.0767  -31.8428   26.5381 H   0  0  0  0  0  0
  -28.2586  -38.0106   24.7534 H   0  0  0  0  0  0
  -28.1113  -36.2640   24.6238 H   0  0  0  0  0  0
  -27.2317  -37.1381   25.8860 H   0  0  0  0  0  0
  -20.9372  -29.8774   21.6882 H   0  0  0  0  0  0
  -26.0176  -38.2840   24.1436 H   0  0  0  0  0  0
  -32.0711  -24.7169   22.7095 H   0  0  0  0  0  0
  -33.1726  -25.7654   21.6753 H   0  0  0  0  0  0
  -31.2200  -27.2803   21.1575 H   0  0  0  0  0  0
  -30.1339  -26.2176   22.1945 H   0  0  0  0  0  0
  -30.9609  -18.0878   21.9680 H   0  0  0  0  0  0
  -29.4499  -18.4856   22.7253 H   0  0  0  0  0  0
  -29.7761  -18.6804   18.4687 H   0  0  0  0  0  0
  -31.1668  -18.2219   19.4047 H   0  0  0  0  0  0
  -28.3733  -16.4641   21.7989 H   0  0  0  0  0  0
  -29.8461  -16.0105   22.6057 H   0  0  0  0  0  0
  -30.1534  -16.2114   18.4342 H   0  0  0  0  0  0
  -28.5905  -16.6142   19.0660 H   0  0  0  0  0  0
  -31.7398  -25.3318   19.6646 H   0  0  0  0  0  0
  -28.4307  -19.0434   20.5186 H   0  0  0  0  0  0
  -32.9591  -23.0095   20.7144 H   0  0  0  0  0  0
  -32.5456  -21.3292   20.4285 H   0  0  0  0  0  0
  -32.3918  -22.0088   22.0644 H   0  0  0  0  0  0
  -27.1145  -24.7195   20.5088 H   0  0  0  0  0  0
  -27.7854  -24.8458   18.9052 H   0  0  0  0  0  0
  -31.0654  -20.2444   20.9774 H   0  0  0  0  0  0
  1 25  1  0  0  0
  1 30  2  0  0  0
  1 86  1  0  0  0
  2  3  1  0  0  0
  2 25  1  0  0  0
  2 88  1  0  0  0
  2 89  1  0  0  0
  3  4  1  0  0  0
  3 90  1  0  0  0
  3 91  1  0  0  0
  4  5  1  0  0  0
  4 92  1  0  0  0
  4 93  1  0  0  0
  5  6  1  0  0  0
  5 26  1  0  0  0
  5 94  1  0  0  0
  6 25  1  0  0  0
  6 95  1  0  0  0
  6 96  1  0  0  0
  7  8  2  0  0  0
  7 26  1  0  0  0
  7 29  1  0  0  0
  8  9  1  0  0  0
  8 22  1  0  0  0
  9 10  1  0  0  0
  9 27  2  0  0  0
 10 11  2  0  0  0
 10 15  1  0  0  0
 11 12  1  0  0  0
 11 97  1  0  0  0
 12 13  2  0  0  0
 12 98  1  0  0  0
 13 14  1  0  0  0
 13 31  1  0  0  0
 14 15  2  0  0  0
 14 99  1  0  0  0
 15100  1  0  0  0
 16 17  2  0  0  0
 16 21  1  0  0  0
 16 31  1  0  0  0
 17 18  1  0  0  0
 17101  1  0  0  0
 18 19  2  0  0  0
 18102  1  0  0  0
 19 20  1  0  0  0
 19 24  1  0  0  0
 20 21  2  0  0  0
 20103  1  0  0  0
 21 23  1  0  0  0
 22 28  1  0  0  0
 22 32  2  0  0  0
 26 27  1  0  0  0
 28104  1  0  0  0
 28105  1  0  0  0
 29106  1  0  0  0
 29107  1  0  0  0
 33 34  1  0  0  0
 33 66  1  0  0  0
 33 70  2  0  0  0
 34 36  1  0  0  0
 34 59  1  0  0  0
 34108  1  0  0  0
 35 44  2  0  0  0
 35 45  1  0  0  0
 35 68  1  0  0  0
 36 56  1  0  0  0
 36109  1  0  0  0
 37 39  1  0  0  0
 37 47  1  0  0  0
 37 66  1  0  0  0
 37110  1  0  0  0
 38 43  2  0  0  0
 38 46  1  0  0  0
 38 47  1  0  0  0
 39 64  1  0  0  0
 39 67  2  0  0  0
 40 52  1  0  0  0
 40 53  2  0  0  0
 40 58  1  0  0  0
 41111  1  0  0  0
 41112  1  0  0  0
 41113  1  0  0  0
 41 48  1  0  0  0
 42 43  1  0  0  0
 42 66  1  0  0  0
 42114  1  0  0  0
 42115  1  0  0  0
 43 44  1  0  0  0
 44116  1  0  0  0
 45 46  2  0  0  0
 45117  1  0  0  0
 46118  1  0  0  0
 47119  1  0  0  0
 47120  1  0  0  0
 48 56  1  0  0  0
 48 65  1  0  0  0
 48121  1  0  0  0
 49 50  1  0  0  0
 49 53  1  0  0  0
 49 64  1  0  0  0
 49122  1  0  0  0
 50 51  1  0  0  0
 50123  1  0  0  0
 50124  1  0  0  0
 51 52  1  0  0  0
 51125  1  0  0  0
 51126  1  0  0  0
 52127  1  0  0  0
 52128  1  0  0  0
 53 54  1  0  0  0
 54 55  2  0  0  0
 54129  1  0  0  0
 55 57  1  0  0  0
 55130  1  0  0  0
 56 69  2  0  0  0
 57 58  2  0  0  0
 57131  1  0  0  0
 58132  1  0  0  0
 59 60  1  0  0  0
 59 61  1  0  0  0
 59 62  1  0  0  0
 60133  1  0  0  0
 60134  1  0  0  0
 60135  1  0  0  0
 61136  1  0  0  0
 61137  1  0  0  0
 61138  1  0  0  0
 62139  1  0  0  0
 62140  1  0  0  0
 62141  1  0  0  0
 63 65  1  0  0  0
 63142  1  0  0  0
 63143  1  0  0  0
 63144  1  0  0  0
 64145  1  0  0  0
 65146  1  0  0  0
 68 83  1  0  0  0
 71 72  2  0  0  0
 71 85  1  0  0  0
 71 80  1  0  0  0
 72 83  1  0  0  0
 72 84  1  0  0  0
 73 84  2  0  0  0
 73 85  1  0  0  0
 73 87  1  0  0  0
 74 75  1  0  0  0
 74 80  1  0  0  0
 74147  1  0  0  0
 74148  1  0  0  0
 75 80  1  0  0  0
 75149  1  0  0  0
 75150  1  0  0  0
 76 78  1  0  0  0
 76 81  1  0  0  0
 76151  1  0  0  0
 76152  1  0  0  0
 77 79  1  0  0  0
 77 81  1  0  0  0
 77153  1  0  0  0
 77154  1  0  0  0
 78 86  1  0  0  0
 78155  1  0  0  0
 78156  1  0  0  0
 79 86  1  0  0  0
 79157  1  0  0  0
 79158  1  0  0  0
 80159  1  0  0  0
 81 87  1  0  0  0
 81160  1  0  0  0
 82 85  1  0  0  0
 82161  1  0  0  0
 82162  1  0  0  0
 82163  1  0  0  0
 83164  1  0  0  0
 83165  1  0  0  0
 87166  1  0  0  0
M  ISO  4   1 100  68 101  83 101  86 100
M  END
> <chiral flag>
0

> <version>
0

> <s_m_source_file>
/data/baiqing/PycharmProjects/Reinvent-master-3.2/result/LINK_invent/BTK/process_docking_weight1_custom_sum_contain_oxygen_bond_distance_aromatic_linkinvent_7_9_3/rearranged_h_0189.sdf

> <i_m_source_file_index>
72

> <r_mmod_Potential_Energy-OPLS-2005>
236.668395996094

> <r_mmod_Stretch_Energy-OPLS-2005>
84.9799194335938

> <r_mmod_Bend_Energy-OPLS-2005>
165.864730834961

> <r_mmod_Torsional_Energy-OPLS-2005>
358.267547607422

> <r_mmod_Improper_Torsional_Energy-OPLS-2005>
13.0708150863647

> <r_mmod_Van_der_Waal_Energy-OPLS-2005>
119.374328613281

> <r_mmod_Electrostatic_Energy-OPLS-2005>
-347.808929443359

> <r_mmod_Solvation_Energy-OPLS-2005>
-220.008850097656

> <b_mmod_Minimization_Converged-OPLS-2005>
0

> <r_mmod_RMS_Derivative-OPLS-2005>
1.17782521247864

$$$$
73
                    3D
 Structure written by MMmdl.
156164  0  0  1  0            999 V2000
  -30.3527  -15.4987   20.3692 C   0  0  0  0  0  0
  -30.4232  -12.9830   19.5470 C   0  0  0  0  0  0
  -29.5484  -12.6314   18.3146 C   0  0  0  0  0  0
  -28.1113  -12.3014   18.7470 C   0  0  0  0  0  0
  -27.6001  -13.2950   19.8199 C   0  0  2  0  0  0
  -28.6167  -13.5645   20.9504 C   0  0  0  0  0  0
  -25.2377  -13.8283   20.5784 C   0  0  0  0  0  0
  -24.1739  -13.0461   20.9261 C   0  0  0  0  0  0
  -24.6405  -11.6959   20.8765 C   0  0  0  0  0  0
  -23.9106  -10.4312   21.0421 C   0  0  0  0  0  0
  -24.3652   -9.4225   21.9196 C   0  0  0  0  0  0
  -23.6303   -8.2260   22.0755 C   0  0  0  0  0  0
  -22.4282   -8.0295   21.3544 C   0  0  0  0  0  0
  -21.9935   -9.0281   20.4652 C   0  0  0  0  0  0
  -22.7273  -10.2150   20.3067 C   0  0  0  0  0  0
  -21.6859   -6.0746   22.5275 C   0  0  0  0  0  0
  -21.4018   -6.5642   23.8206 C   0  0  0  0  0  0
  -21.3660   -5.6788   24.9168 C   0  0  0  0  0  0
  -21.6036   -4.3053   24.7212 C   0  0  0  0  0  0
  -21.8828   -3.8151   23.4330 C   0  0  0  0  0  0
  -21.9192   -4.6972   22.3393 C   0  0  0  0  0  0
  -22.7759  -13.5221   21.1880 C   0  0  0  0  0  0
  -22.1668   -4.2167   21.0967 F   0  0  0  0  0  0
  -21.5622   -3.4538   25.7725 F   0  0  0  0  0  0
  -29.8035  -14.1579   20.3041 N   0  0  0  0  0  0
  -26.2776  -12.9571   20.3214 N   0  0  0  0  0  0
  -25.9340  -11.6668   20.5703 N   0  0  0  0  0  0
  -22.0372  -12.8225   22.0423 N   0  0  0  0  0  0
  -25.4092  -15.2005   20.4257 N   0  0  0  0  0  0
  -31.5789  -15.4266   20.1550 O   0  0  0  0  0  0
  -21.6642   -6.8889   21.4236 O   0  0  0  0  0  0
  -22.3462  -14.5523   20.6698 O   0  0  0  0  0  0
  -24.6767  -31.8089   23.1590 C   0  0  0  0  0  0
  -25.9410  -32.4517   23.8067 C   0  0  1  0  0  0
  -27.2116  -26.7759   20.2177 C   0  0  0  0  0  0
  -25.6039  -33.8322   24.2001 N   0  0  0  0  0  0
  -23.4962  -30.4164   21.5098 C   0  0  2  0  0  0
  -24.9507  -28.7712   20.1165 C   0  0  0  0  0  0
  -22.7718  -29.4371   22.4727 C   0  0  0  0  0  0
  -18.0330  -28.1415   22.8455 C   0  0  0  0  0  0
  -24.1497  -36.7141   23.2645 C   0  0  0  0  0  0
  -26.0718  -30.5693   21.4080 C   0  0  0  0  0  0
  -26.1375  -29.1405   20.7614 C   0  0  0  0  0  0
  -27.2588  -28.1689   20.7818 C   0  0  0  0  0  0
  -25.9932  -26.5980   19.5160 C   0  0  0  0  0  0
  -24.9131  -27.5248   19.4694 C   0  0  0  0  0  0
  -23.7470  -29.7225   20.1403 C   0  0  0  0  0  0
  -25.4145  -36.2903   24.0287 C   0  0  1  0  0  0
  -20.5957  -28.3765   23.1160 C   0  0  2  0  0  0
  -20.6790  -26.9432   22.5398 C   0  0  0  0  0  0
  -19.5768  -26.6370   21.5203 C   0  0  0  0  0  0
  -18.1953  -26.7938   22.1613 C   0  0  0  0  0  0
  -19.1592  -28.8909   23.2789 C   0  0  0  0  0  0
  -18.9501  -30.1488   23.8840 C   0  0  0  0  0  0
  -17.6492  -30.6601   24.0544 C   0  0  0  0  0  0
  -25.9114  -34.9299   23.4961 C   0  0  0  0  0  0
  -16.5391  -29.9080   23.6352 C   0  0  0  0  0  0
  -16.7305  -28.6495   23.0360 C   0  0  0  0  0  0
  -26.4618  -31.6497   25.0644 C   0  0  0  0  0  0
  -25.3722  -31.3810   26.1290 C   0  0  0  0  0  0
  -27.0503  -30.2841   24.6449 C   0  0  0  0  0  0
  -27.6081  -32.4322   25.7476 C   0  0  0  0  0  0
  -27.5558  -37.1741   24.8467 C   0  0  0  0  0  0
  -21.4369  -29.3040   22.3499 N   0  0  0  0  0  0
  -26.4273  -37.3659   23.9403 N   0  0  0  0  0  0
  -24.7712  -30.9610   22.0801 N   0  0  0  0  0  0
  -23.4212  -28.7948   23.3013 O   0  0  0  0  0  0
  -28.1866  -25.5993   20.2822 O   0  0  0  0  0  0
  -26.5690  -34.8867   22.4544 O   0  0  0  0  0  0
  -23.5817  -32.1119   23.6609 O   0  0  0  0  0  0
  -29.9094  -18.0717   19.3483 C   0  0  0  0  0  0
  -29.3559  -19.6234   21.4611 C   0  0  0  0  0  0
  -29.2072  -17.8879   21.4689 C   0  0  1  0  0  0
  -29.0418  -19.5664   19.1874 C   0  0  1  0  0  0
  -27.7876  -17.5149   21.9393 C   0  0  0  0  0  0
  -27.7197  -19.2906   18.4434 C   0  0  0  0  0  0
  -28.9964  -22.2984   20.2911 C   0  0  0  0  0  0
  -27.9586  -23.8839   20.2779 C   0  0  0  0  0  0
  -29.6484  -16.8772   20.3352 N   0  0  0  0  0  0
  -28.7511  -20.5711   20.3646 N   0  3  2  0  0  0
  -31.4312  -13.2162   19.2023 H   0  0  0  0  0  0
  -30.5434  -12.1131   20.1961 H   0  0  0  0  0  0
  -29.9784  -11.7947   17.7628 H   0  0  0  0  0  0
  -29.5399  -13.4815   17.6296 H   0  0  0  0  0  0
  -28.1144  -11.2909   19.1604 H   0  0  0  0  0  0
  -27.4476  -12.2872   17.8818 H   0  0  0  0  0  0
  -27.4853  -14.2357   19.2800 H   0  0  0  0  0  0
  -28.8464  -12.6562   21.5112 H   0  0  0  0  0  0
  -28.2051  -14.2706   21.6720 H   0  0  0  0  0  0
  -25.2789   -9.5704   22.4784 H   0  0  0  0  0  0
  -24.0006   -7.4655   22.7487 H   0  0  0  0  0  0
  -21.0852   -8.8819   19.8954 H   0  0  0  0  0  0
  -22.3735  -10.9703   19.6187 H   0  0  0  0  0  0
  -21.2018   -7.6148   23.9719 H   0  0  0  0  0  0
  -21.1465   -6.0514   25.9070 H   0  0  0  0  0  0
  -22.0601   -2.7610   23.2829 H   0  0  0  0  0  0
  -22.3969  -11.9911   22.4880 H   0  0  0  0  0  0
  -21.0987  -13.1276   22.2569 H   0  0  0  0  0  0
  -24.6556  -15.8647   20.5572 H   0  0  0  0  0  0
  -26.2691  -15.6333   20.1166 H   0  0  0  0  0  0
  -26.7471  -32.5025   23.0752 H   0  0  0  0  0  0
  -25.0247  -33.9368   25.0200 H   0  0  0  0  0  0
  -22.8181  -31.2531   21.3285 H   0  0  0  0  0  0
  -23.3781  -35.9450   23.3270 H   0  0  0  0  0  0
  -24.3567  -36.8805   22.2064 H   0  0  0  0  0  0
  -23.7228  -37.6313   23.6715 H   0  0  0  0  0  0
  -26.2539  -31.2979   20.6167 H   0  0  0  0  0  0
  -26.9317  -30.6434   22.0616 H   0  0  0  0  0  0
  -28.1530  -28.4503   21.3188 H   0  0  0  0  0  0
  -25.8392  -25.6527   19.0156 H   0  0  0  0  0  0
  -24.0153  -27.2368   18.9397 H   0  0  0  0  0  0
  -23.9269  -30.4856   19.3821 H   0  0  0  0  0  0
  -22.8512  -29.1926   19.8148 H   0  0  0  0  0  0
  -25.1353  -36.1670   25.0773 H   0  0  0  0  0  0
  -21.0041  -28.3377   24.1285 H   0  0  0  0  0  0
  -20.5631  -26.2389   23.3647 H   0  0  0  0  0  0
  -21.6654  -26.7362   22.1238 H   0  0  0  0  0  0
  -19.6912  -25.6261   21.1272 H   0  0  0  0  0  0
  -19.6714  -27.3140   20.6700 H   0  0  0  0  0  0
  -17.4218  -26.6678   21.4018 H   0  0  0  0  0  0
  -18.0338  -26.0108   22.9038 H   0  0  0  0  0  0
  -19.7978  -30.7303   24.2199 H   0  0  0  0  0  0
  -17.5052  -31.6284   24.5129 H   0  0  0  0  0  0
  -15.5382  -30.2956   23.7702 H   0  0  0  0  0  0
  -15.8707  -28.0789   22.7117 H   0  0  0  0  0  0
  -24.5931  -30.7109   25.7624 H   0  0  0  0  0  0
  -24.8907  -32.3041   26.4533 H   0  0  0  0  0  0
  -25.7970  -30.9116   27.0175 H   0  0  0  0  0  0
  -26.3178  -29.6508   24.1437 H   0  0  0  0  0  0
  -27.3935  -29.7229   25.5151 H   0  0  0  0  0  0
  -27.9159  -30.3960   23.9916 H   0  0  0  0  0  0
  -27.2631  -33.3679   26.1885 H   0  0  0  0  0  0
  -28.4019  -32.6789   25.0409 H   0  0  0  0  0  0
  -28.0599  -31.8550   26.5558 H   0  0  0  0  0  0
  -28.2570  -38.0042   24.7493 H   0  0  0  0  0  0
  -28.1051  -36.2562   24.6324 H   0  0  0  0  0  0
  -27.2255  -37.1409   25.8864 H   0  0  0  0  0  0
  -20.9637  -29.8768   21.6652 H   0  0  0  0  0  0
  -26.0094  -38.2703   24.1420 H   0  0  0  0  0  0
  -30.9560  -18.3385   19.5071 H   0  0  0  0  0  0
  -29.9176  -17.6181   18.3554 H   0  0  0  0  0  0
  -30.4218  -19.8499   21.4861 H   0  0  0  0  0  0
  -28.9881  -19.9930   22.4202 H   0  0  0  0  0  0
  -29.8556  -17.5948   22.2979 H   0  0  0  0  0  0
  -29.6449  -20.1568   18.4967 H   0  0  0  0  0  0
  -27.0437  -17.6894   21.1620 H   0  0  0  0  0  0
  -27.4918  -18.0981   22.8129 H   0  0  0  0  0  0
  -27.7183  -16.4691   22.2338 H   0  0  0  0  0  0
  -27.0553  -18.6498   19.0229 H   0  0  0  0  0  0
  -27.8999  -18.7913   17.4912 H   0  0  0  0  0  0
  -27.1794  -20.2112   18.2193 H   0  0  0  0  0  0
  -29.6789  -22.4612   21.1252 H   0  0  0  0  0  0
  -29.6403  -22.4065   19.4197 H   0  0  0  0  0  0
  -27.3266  -23.7639   21.1574 H   0  0  0  0  0  0
  -27.2698  -23.7412   19.4466 H   0  0  0  0  0  0
  -27.7579  -20.4928   20.5237 H   0  0  0  0  0  0
  1 25  1  0  0  0
  1 30  2  0  0  0
  1 79  1  0  0  0
  2  3  1  0  0  0
  2 25  1  0  0  0
  2 81  1  0  0  0
  2 82  1  0  0  0
  3  4  1  0  0  0
  3 83  1  0  0  0
  3 84  1  0  0  0
  4  5  1  0  0  0
  4 85  1  0  0  0
  4 86  1  0  0  0
  5  6  1  0  0  0
  5 26  1  0  0  0
  5 87  1  0  0  0
  6 25  1  0  0  0
  6 88  1  0  0  0
  6 89  1  0  0  0
  7  8  2  0  0  0
  7 26  1  0  0  0
  7 29  1  0  0  0
  8  9  1  0  0  0
  8 22  1  0  0  0
  9 10  1  0  0  0
  9 27  2  0  0  0
 10 11  2  0  0  0
 10 15  1  0  0  0
 11 12  1  0  0  0
 11 90  1  0  0  0
 12 13  2  0  0  0
 12 91  1  0  0  0
 13 14  1  0  0  0
 13 31  1  0  0  0
 14 15  2  0  0  0
 14 92  1  0  0  0
 15 93  1  0  0  0
 16 17  2  0  0  0
 16 21  1  0  0  0
 16 31  1  0  0  0
 17 18  1  0  0  0
 17 94  1  0  0  0
 18 19  2  0  0  0
 18 95  1  0  0  0
 19 20  1  0  0  0
 19 24  1  0  0  0
 20 21  2  0  0  0
 20 96  1  0  0  0
 21 23  1  0  0  0
 22 28  1  0  0  0
 22 32  2  0  0  0
 26 27  1  0  0  0
 28 97  1  0  0  0
 28 98  1  0  0  0
 29 99  1  0  0  0
 29100  1  0  0  0
 33 34  1  0  0  0
 33 66  1  0  0  0
 33 70  2  0  0  0
 34 36  1  0  0  0
 34 59  1  0  0  0
 34101  1  0  0  0
 35 44  2  0  0  0
 35 45  1  0  0  0
 35 68  1  0  0  0
 36 56  1  0  0  0
 36102  1  0  0  0
 37 39  1  0  0  0
 37 47  1  0  0  0
 37 66  1  0  0  0
 37103  1  0  0  0
 38 43  2  0  0  0
 38 46  1  0  0  0
 38 47  1  0  0  0
 39 64  1  0  0  0
 39 67  2  0  0  0
 40 52  1  0  0  0
 40 53  2  0  0  0
 40 58  1  0  0  0
 41104  1  0  0  0
 41105  1  0  0  0
 41106  1  0  0  0
 41 48  1  0  0  0
 42 43  1  0  0  0
 42 66  1  0  0  0
 42107  1  0  0  0
 42108  1  0  0  0
 43 44  1  0  0  0
 44109  1  0  0  0
 45 46  2  0  0  0
 45110  1  0  0  0
 46111  1  0  0  0
 47112  1  0  0  0
 47113  1  0  0  0
 48 56  1  0  0  0
 48 65  1  0  0  0
 48114  1  0  0  0
 49 50  1  0  0  0
 49 53  1  0  0  0
 49 64  1  0  0  0
 49115  1  0  0  0
 50 51  1  0  0  0
 50116  1  0  0  0
 50117  1  0  0  0
 51 52  1  0  0  0
 51118  1  0  0  0
 51119  1  0  0  0
 52120  1  0  0  0
 52121  1  0  0  0
 53 54  1  0  0  0
 54 55  2  0  0  0
 54122  1  0  0  0
 55 57  1  0  0  0
 55123  1  0  0  0
 56 69  2  0  0  0
 57 58  2  0  0  0
 57124  1  0  0  0
 58125  1  0  0  0
 59 60  1  0  0  0
 59 61  1  0  0  0
 59 62  1  0  0  0
 60126  1  0  0  0
 60127  1  0  0  0
 60128  1  0  0  0
 61129  1  0  0  0
 61130  1  0  0  0
 61131  1  0  0  0
 62132  1  0  0  0
 62133  1  0  0  0
 62134  1  0  0  0
 63 65  1  0  0  0
 63135  1  0  0  0
 63136  1  0  0  0
 63137  1  0  0  0
 64138  1  0  0  0
 65139  1  0  0  0
 68 78  1  0  0  0
 71 74  1  0  0  0
 71 79  1  0  0  0
 71140  1  0  0  0
 71141  1  0  0  0
 72 73  1  0  0  0
 72 80  1  0  0  0
 72142  1  0  0  0
 72143  1  0  0  0
 73 75  1  0  0  0
 73 79  1  0  0  0
 73144  1  0  0  0
 74 76  1  0  0  0
 74 80  1  0  0  0
 74145  1  0  0  0
 75146  1  0  0  0
 75147  1  0  0  0
 75148  1  0  0  0
 76149  1  0  0  0
 76150  1  0  0  0
 76151  1  0  0  0
 77 78  1  0  0  0
 77152  1  0  0  0
 77153  1  0  0  0
 77 80  1  0  0  0
 78154  1  0  0  0
 78155  1  0  0  0
 80156  1  0  0  0
M  CHG  1  80   1
M  ISO  4   1 100  68 101  78 101  79 100
M  END
> <chiral flag>
0

> <version>
0

> <s_m_source_file>
/data/baiqing/PycharmProjects/Reinvent-master-3.2/result/LINK_invent/BTK/process_docking_weight1_custom_sum_contain_oxygen_bond_distance_aromatic_linkinvent_7_9_3/rearranged_h_0189.sdf

> <i_m_source_file_index>
73

> <r_mmod_Potential_Energy-OPLS-2005>
2134.9912109375

> <r_mmod_Stretch_Energy-OPLS-2005>
838.932983398438

> <r_mmod_Bend_Energy-OPLS-2005>
642.673522949219

> <r_mmod_Torsional_Energy-OPLS-2005>
419.169738769531

> <r_mmod_Improper_Torsional_Energy-OPLS-2005>
12.2008514404297

> <r_mmod_Van_der_Waal_Energy-OPLS-2005>
112.377372741699

> <r_mmod_Electrostatic_Energy-OPLS-2005>
-186.920150756836

> <r_mmod_Solvation_Energy-OPLS-2005>
-423.848785400391

> <b_mmod_Minimization_Converged-OPLS-2005>
0

> <r_mmod_RMS_Derivative-OPLS-2005>
3.08284425735474

$$$$
74
                    3D
 Structure written by MMmdl.
159168  0  0  1  0            999 V2000
  -30.5927  -14.7870   20.5278 C   0  0  0  0  0  0
  -30.4374  -12.4923   19.5003 C   0  0  0  0  0  0
  -29.5201  -12.5001   18.2544 C   0  0  0  0  0  0
  -28.0475  -12.3013   18.6610 C   0  0  0  0  0  0
  -27.6382  -13.2232   19.8389 C   0  0  2  0  0  0
  -28.6637  -13.1678   20.9856 C   0  0  0  0  0  0
  -25.2524  -13.8197   20.5657 C   0  0  0  0  0  0
  -24.1787  -13.0439   20.9168 C   0  0  0  0  0  0
  -24.6382  -11.6922   20.8741 C   0  0  0  0  0  0
  -23.9084  -10.4279   21.0429 C   0  0  0  0  0  0
  -24.3634   -9.4211   21.9218 C   0  0  0  0  0  0
  -23.6294   -8.2249   22.0775 C   0  0  0  0  0  0
  -22.4280   -8.0274   21.3559 C   0  0  0  0  0  0
  -21.9921   -9.0249   20.4682 C   0  0  0  0  0  0
  -22.7244  -10.2123   20.3099 C   0  0  0  0  0  0
  -21.6850   -6.0711   22.5292 C   0  0  0  0  0  0
  -21.3980   -6.5635   23.8215 C   0  0  0  0  0  0
  -21.3671   -5.6814   24.9193 C   0  0  0  0  0  0
  -21.6082   -4.3071   24.7250 C   0  0  0  0  0  0
  -21.8813   -3.8129   23.4376 C   0  0  0  0  0  0
  -21.9191   -4.6934   22.3422 C   0  0  0  0  0  0
  -22.7820  -13.5221   21.1849 C   0  0  0  0  0  0
  -22.1646   -4.2119   21.0991 F   0  0  0  0  0  0
  -21.5698   -3.4578   25.7776 F   0  0  0  0  0  0
  -29.9769  -13.5475   20.4414 N   0  0  0  0  0  0
  -26.2892  -12.9366   20.3168 N   0  0  0  0  0  0
  -25.9306  -11.6538   20.5734 N   0  0  0  0  0  0
  -22.0487  -12.8180   22.0430 N   0  0  0  0  0  0
  -25.4308  -15.1901   20.4147 N   0  0  0  0  0  0
  -31.7104  -14.9326   20.0190 O   0  0  0  0  0  0
  -21.6654   -6.8855   21.4242 O   0  0  0  0  0  0
  -22.3513  -14.5530   20.6728 O   0  0  0  0  0  0
  -24.6365  -31.8460   23.1941 C   0  0  0  0  0  0
  -25.9169  -32.4709   23.8290 C   0  0  1  0  0  0
  -27.2193  -27.2046   20.1373 C   0  0  0  0  0  0
  -25.5932  -33.8511   24.2202 N   0  0  0  0  0  0
  -23.4373  -30.4694   21.5371 C   0  0  2  0  0  0
  -24.8855  -28.8982   20.1216 C   0  0  0  0  0  0
  -22.7526  -29.4578   22.4909 C   0  0  0  0  0  0
  -18.0291  -28.1387   22.8481 C   0  0  0  0  0  0
  -24.1492  -36.7273   23.2644 C   0  0  0  0  0  0
  -25.9899  -30.7438   21.3802 C   0  0  0  0  0  0
  -26.0630  -29.3613   20.7222 C   0  0  0  0  0  0
  -27.2376  -28.5295   20.7125 C   0  0  0  0  0  0
  -26.0185  -26.8211   19.5082 C   0  0  0  0  0  0
  -24.8686  -27.6363   19.5068 C   0  0  0  0  0  0
  -23.6632  -29.7963   20.1579 C   0  0  0  0  0  0
  -25.4118  -36.3042   24.0319 C   0  0  1  0  0  0
  -20.5903  -28.3727   23.1322 C   0  0  2  0  0  0
  -20.6768  -26.9398   22.5582 C   0  0  0  0  0  0
  -19.5778  -26.6307   21.5327 C   0  0  0  0  0  0
  -18.1965  -26.7873   22.1711 C   0  0  0  0  0  0
  -19.1537  -28.8882   23.2840 C   0  0  0  0  0  0
  -18.9478  -30.1501   23.8816 C   0  0  0  0  0  0
  -17.6489  -30.6613   24.0557 C   0  0  0  0  0  0
  -25.9045  -34.9411   23.5056 C   0  0  0  0  0  0
  -16.5385  -29.9071   23.6333 C   0  0  0  0  0  0
  -16.7272  -28.6473   23.0348 C   0  0  0  0  0  0
  -26.4512  -31.6562   25.0720 C   0  0  0  0  0  0
  -25.3728  -31.3759   26.1443 C   0  0  0  0  0  0
  -27.0372  -30.2966   24.6278 C   0  0  0  0  0  0
  -27.6037  -32.4341   25.7503 C   0  0  0  0  0  0
  -27.5576  -37.1797   24.8474 C   0  0  0  0  0  0
  -21.4227  -29.3025   22.3649 N   0  0  0  0  0  0
  -26.4294  -37.3756   23.9395 N   0  0  0  0  0  0
  -24.7084  -31.0386   22.0947 N   0  0  0  0  0  0
  -23.4185  -28.8147   23.3057 O   0  0  0  0  0  0
  -28.2842  -26.2586   20.1302 O   0  0  0  0  0  0
  -26.5655  -34.8891   22.4648 O   0  0  0  0  0  0
  -23.5511  -32.1304   23.7211 O   0  0  0  0  0  0
  -27.9545  -22.0221   18.3584 C   0  0  0  0  0  0
  -28.4015  -23.4326   20.0495 C   0  0  0  0  0  0
  -28.9364  -21.1424   20.1513 C   0  0  0  0  0  0
  -29.2708  -17.0652   23.1492 C   0  0  0  0  0  0
  -28.3174  -17.3711   22.0061 C   0  0  0  0  0  0
  -30.0423  -15.8449   22.6531 C   0  0  0  0  0  0
  -29.1938  -17.1545   20.7622 C   0  0  1  0  0  0
  -27.2318  -21.7705   17.0511 C   0  0  0  0  0  0
  -28.0620  -24.8698   20.7385 C   0  0  0  0  0  0
  -29.9269  -18.5789   20.3706 C   0  0  0  0  0  0
  -27.9156  -23.2725   18.8208 N   0  0  0  0  0  0
  -28.4611  -20.9351   18.9412 N   0  0  0  0  0  0
  -28.9159  -22.3654   20.7679 N   0  0  0  0  0  0
  -29.9579  -15.8569   21.1817 N   0  0  0  0  0  0
  -29.3878  -19.9500   20.8395 N   0  0  0  0  0  0
  -31.4769  -12.6323   19.1978 H   0  0  0  0  0  0
  -30.4028  -11.5208   19.9943 H   0  0  0  0  0  0
  -29.8211  -11.7134   17.5606 H   0  0  0  0  0  0
  -29.6316  -13.4424   17.7200 H   0  0  0  0  0  0
  -27.9229  -11.2561   18.9535 H   0  0  0  0  0  0
  -27.3905  -12.4556   17.8028 H   0  0  0  0  0  0
  -27.6352  -14.2405   19.4447 H   0  0  0  0  0  0
  -28.6955  -12.1739   21.4334 H   0  0  0  0  0  0
  -28.3299  -13.8441   21.7686 H   0  0  0  0  0  0
  -25.2770   -9.5667   22.4806 H   0  0  0  0  0  0
  -24.0035   -7.4625   22.7472 H   0  0  0  0  0  0
  -21.0895   -8.8749   19.8966 H   0  0  0  0  0  0
  -22.3710  -10.9669   19.6212 H   0  0  0  0  0  0
  -21.1900   -7.6130   23.9689 H   0  0  0  0  0  0
  -21.1534   -6.0554   25.9104 H   0  0  0  0  0  0
  -22.0573   -2.7589   23.2904 H   0  0  0  0  0  0
  -22.4086  -11.9770   22.4692 H   0  0  0  0  0  0
  -21.1110  -13.1181   22.2720 H   0  0  0  0  0  0
  -24.6774  -15.8588   20.5321 H   0  0  0  0  0  0
  -26.3032  -15.6194   20.1356 H   0  0  0  0  0  0
  -26.7256  -32.5344   23.1034 H   0  0  0  0  0  0
  -25.0028  -33.9640   25.0317 H   0  0  0  0  0  0
  -22.7377  -31.2922   21.3836 H   0  0  0  0  0  0
  -23.3745  -35.9628   23.3329 H   0  0  0  0  0  0
  -24.3575  -36.8884   22.2063 H   0  0  0  0  0  0
  -23.7276  -37.6484   23.6661 H   0  0  0  0  0  0
  -26.1365  -31.5043   20.6116 H   0  0  0  0  0  0
  -26.8629  -30.7928   22.0170 H   0  0  0  0  0  0
  -28.1443  -28.8816   21.1849 H   0  0  0  0  0  0
  -25.9629  -25.8532   19.0291 H   0  0  0  0  0  0
  -23.9643  -27.2685   19.0430 H   0  0  0  0  0  0
  -23.8050  -30.5702   19.4025 H   0  0  0  0  0  0
  -22.7798  -29.2375   19.8455 H   0  0  0  0  0  0
  -25.1317  -36.1884   25.0829 H   0  0  0  0  0  0
  -21.0001  -28.3355   24.1438 H   0  0  0  0  0  0
  -21.6660  -26.7380   22.1489 H   0  0  0  0  0  0
  -20.5607  -26.2432   23.3906 H   0  0  0  0  0  0
  -19.6923  -25.6195   21.1457 H   0  0  0  0  0  0
  -19.6783  -27.3043   20.6801 H   0  0  0  0  0  0
  -17.4205  -26.6500   21.4127 H   0  0  0  0  0  0
  -18.0357  -26.0100   22.9181 H   0  0  0  0  0  0
  -19.7964  -30.7336   24.2120 H   0  0  0  0  0  0
  -17.5076  -31.6305   24.5108 H   0  0  0  0  0  0
  -15.5372  -30.2965   23.7702 H   0  0  0  0  0  0
  -15.8673  -28.0752   22.7139 H   0  0  0  0  0  0
  -24.5891  -30.7103   25.7808 H   0  0  0  0  0  0
  -24.8912  -32.2945   26.4818 H   0  0  0  0  0  0
  -25.8032  -30.8992   27.0250 H   0  0  0  0  0  0
  -26.2970  -29.6692   24.1286 H   0  0  0  0  0  0
  -27.4011  -29.7269   25.4833 H   0  0  0  0  0  0
  -27.8869  -30.4233   23.9560 H   0  0  0  0  0  0
  -27.2610  -33.3650   26.2031 H   0  0  0  0  0  0
  -28.3856  -32.6893   25.0338 H   0  0  0  0  0  0
  -28.0675  -31.8495   26.5456 H   0  0  0  0  0  0
  -28.2615  -38.0067   24.7452 H   0  0  0  0  0  0
  -28.1030  -36.2581   24.6363 H   0  0  0  0  0  0
  -27.2266  -37.1541   25.8873 H   0  0  0  0  0  0
  -20.9419  -29.8660   21.6760 H   0  0  0  0  0  0
  -26.0157  -38.2836   24.1353 H   0  0  0  0  0  0
  -29.9567  -17.9023   23.2863 H   0  0  0  0  0  0
  -28.7615  -16.8982   24.0979 H   0  0  0  0  0  0
  -27.8528  -18.3519   22.0855 H   0  0  0  0  0  0
  -27.4984  -16.6502   22.0126 H   0  0  0  0  0  0
  -29.6012  -14.9392   23.0721 H   0  0  0  0  0  0
  -31.0746  -15.8636   23.0056 H   0  0  0  0  0  0
  -28.5412  -16.8908   19.9272 H   0  0  0  0  0  0
  -27.8951  -21.2996   16.3258 H   0  0  0  0  0  0
  -26.8389  -22.6848   16.6081 H   0  0  0  0  0  0
  -26.3791  -21.1084   17.2178 H   0  0  0  0  0  0
  -28.5783  -24.8824   21.6973 H   0  0  0  0  0  0
  -27.0058  -24.7961   21.0040 H   0  0  0  0  0  0
  -30.0681  -18.6188   19.2905 H   0  0  0  0  0  0
  -30.9387  -18.5134   20.7720 H   0  0  0  0  0  0
  -29.6649  -20.1529   21.7931 H   0  0  0  0  0  0
  1 25  1  0  0  0
  1 30  2  0  0  0
  1 84  1  0  0  0
  2  3  1  0  0  0
  2 25  1  0  0  0
  2 86  1  0  0  0
  2 87  1  0  0  0
  3  4  1  0  0  0
  3 88  1  0  0  0
  3 89  1  0  0  0
  4  5  1  0  0  0
  4 90  1  0  0  0
  4 91  1  0  0  0
  5  6  1  0  0  0
  5 26  1  0  0  0
  5 92  1  0  0  0
  6 25  1  0  0  0
  6 93  1  0  0  0
  6 94  1  0  0  0
  7  8  2  0  0  0
  7 26  1  0  0  0
  7 29  1  0  0  0
  8  9  1  0  0  0
  8 22  1  0  0  0
  9 10  1  0  0  0
  9 27  2  0  0  0
 10 11  2  0  0  0
 10 15  1  0  0  0
 11 12  1  0  0  0
 11 95  1  0  0  0
 12 13  2  0  0  0
 12 96  1  0  0  0
 13 14  1  0  0  0
 13 31  1  0  0  0
 14 15  2  0  0  0
 14 97  1  0  0  0
 15 98  1  0  0  0
 16 17  2  0  0  0
 16 21  1  0  0  0
 16 31  1  0  0  0
 17 18  1  0  0  0
 17 99  1  0  0  0
 18 19  2  0  0  0
 18100  1  0  0  0
 19 20  1  0  0  0
 19 24  1  0  0  0
 20 21  2  0  0  0
 20101  1  0  0  0
 21 23  1  0  0  0
 22 28  1  0  0  0
 22 32  2  0  0  0
 26 27  1  0  0  0
 28102  1  0  0  0
 28103  1  0  0  0
 29104  1  0  0  0
 29105  1  0  0  0
 33 34  1  0  0  0
 33 66  1  0  0  0
 33 70  2  0  0  0
 34 36  1  0  0  0
 34 59  1  0  0  0
 34106  1  0  0  0
 35 44  2  0  0  0
 35 45  1  0  0  0
 35 68  1  0  0  0
 36 56  1  0  0  0
 36107  1  0  0  0
 37 39  1  0  0  0
 37 47  1  0  0  0
 37 66  1  0  0  0
 37108  1  0  0  0
 38 43  2  0  0  0
 38 46  1  0  0  0
 38 47  1  0  0  0
 39 64  1  0  0  0
 39 67  2  0  0  0
 40 52  1  0  0  0
 40 53  2  0  0  0
 40 58  1  0  0  0
 41109  1  0  0  0
 41110  1  0  0  0
 41111  1  0  0  0
 41 48  1  0  0  0
 42 43  1  0  0  0
 42 66  1  0  0  0
 42112  1  0  0  0
 42113  1  0  0  0
 43 44  1  0  0  0
 44114  1  0  0  0
 45 46  2  0  0  0
 45115  1  0  0  0
 46116  1  0  0  0
 47117  1  0  0  0
 47118  1  0  0  0
 48 56  1  0  0  0
 48 65  1  0  0  0
 48119  1  0  0  0
 49 50  1  0  0  0
 49 53  1  0  0  0
 49 64  1  0  0  0
 49120  1  0  0  0
 50 51  1  0  0  0
 50121  1  0  0  0
 50122  1  0  0  0
 51 52  1  0  0  0
 51123  1  0  0  0
 51124  1  0  0  0
 52125  1  0  0  0
 52126  1  0  0  0
 53 54  1  0  0  0
 54 55  2  0  0  0
 54127  1  0  0  0
 55 57  1  0  0  0
 55128  1  0  0  0
 56 69  2  0  0  0
 57 58  2  0  0  0
 57129  1  0  0  0
 58130  1  0  0  0
 59 60  1  0  0  0
 59 61  1  0  0  0
 59 62  1  0  0  0
 60131  1  0  0  0
 60132  1  0  0  0
 60133  1  0  0  0
 61134  1  0  0  0
 61135  1  0  0  0
 61136  1  0  0  0
 62137  1  0  0  0
 62138  1  0  0  0
 62139  1  0  0  0
 63 65  1  0  0  0
 63140  1  0  0  0
 63141  1  0  0  0
 63142  1  0  0  0
 64143  1  0  0  0
 65144  1  0  0  0
 68 79  1  0  0  0
 71 78  1  0  0  0
 71 81  2  0  0  0
 71 82  1  0  0  0
 72 79  1  0  0  0
 72 81  1  0  0  0
 72 83  2  0  0  0
 73 82  2  0  0  0
 73 83  1  0  0  0
 73 85  1  0  0  0
 74 75  1  0  0  0
 74 76  1  0  0  0
 74145  1  0  0  0
 74146  1  0  0  0
 75 77  1  0  0  0
 75147  1  0  0  0
 75148  1  0  0  0
 76 84  1  0  0  0
 76149  1  0  0  0
 76150  1  0  0  0
 77 80  1  0  0  0
 77 84  1  0  0  0
 77151  1  0  0  0
 78152  1  0  0  0
 78153  1  0  0  0
 78154  1  0  0  0
 79155  1  0  0  0
 79156  1  0  0  0
 80 85  1  0  0  0
 80157  1  0  0  0
 80158  1  0  0  0
 85159  1  0  0  0
M  ISO  4   1 100  68 101  79 101  84 100
M  END
> <chiral flag>
0

> <version>
0

> <s_m_source_file>
/data/baiqing/PycharmProjects/Reinvent-master-3.2/result/LINK_invent/BTK/process_docking_weight1_custom_sum_contain_oxygen_bond_distance_aromatic_linkinvent_7_9_3/rearranged_h_0189.sdf

> <i_m_source_file_index>
74

> <r_mmod_Potential_Energy-OPLS-2005>
-212.777114868164

> <r_mmod_Stretch_Energy-OPLS-2005>
173.575408935547

> <r_mmod_Bend_Energy-OPLS-2005>
256.930877685547

> <r_mmod_Torsional_Energy-OPLS-2005>
388.569976806641

> <r_mmod_Improper_Torsional_Energy-OPLS-2005>
5.08976221084595

> <r_mmod_Van_der_Waal_Energy-OPLS-2005>
144.664093017578

> <r_mmod_Electrostatic_Energy-OPLS-2005>
-1066.63256835938

> <r_mmod_Solvation_Energy-OPLS-2005>
-228.960037231445

> <b_mmod_Minimization_Converged-OPLS-2005>
0

> <r_mmod_RMS_Derivative-OPLS-2005>
5.29740333557129

$$$$
75
                    3D
 Structure written by MMmdl.
159168  0  0  1  0            999 V2000
  -30.6949  -14.4672   20.5303 C   0  0  0  0  0  0
  -30.4215  -12.2882   19.4258 C   0  0  0  0  0  0
  -29.4984  -12.4846   18.2060 C   0  0  0  0  0  0
  -28.0158  -12.3574   18.6131 C   0  0  0  0  0  0
  -27.6586  -13.2012   19.8682 C   0  0  2  0  0  0
  -28.7005  -13.0003   20.9925 C   0  0  0  0  0  0
  -25.2599  -13.8141   20.5685 C   0  0  0  0  0  0
  -24.1845  -13.0438   20.9187 C   0  0  0  0  0  0
  -24.6381  -11.6898   20.8734 C   0  0  0  0  0  0
  -23.9038  -10.4293   21.0388 C   0  0  0  0  0  0
  -24.3606   -9.4216   21.9165 C   0  0  0  0  0  0
  -23.6292   -8.2247   22.0739 C   0  0  0  0  0  0
  -22.4272   -8.0278   21.3540 C   0  0  0  0  0  0
  -21.9893   -9.0245   20.4636 C   0  0  0  0  0  0
  -22.7209  -10.2130   20.3041 C   0  0  0  0  0  0
  -21.6852   -6.0734   22.5278 C   0  0  0  0  0  0
  -21.4017   -6.5632   23.8214 C   0  0  0  0  0  0
  -21.3669   -5.6783   24.9175 C   0  0  0  0  0  0
  -21.6051   -4.3046   24.7218 C   0  0  0  0  0  0
  -21.8821   -3.8140   23.4337 C   0  0  0  0  0  0
  -21.9193   -4.6965   22.3400 C   0  0  0  0  0  0
  -22.7872  -13.5248   21.1838 C   0  0  0  0  0  0
  -22.1655   -4.2152   21.0975 F   0  0  0  0  0  0
  -21.5643   -3.4523   25.7724 F   0  0  0  0  0  0
  -30.0304  -13.2860   20.4306 N   0  0  0  0  0  0
  -26.3016  -12.9298   20.3330 N   0  0  0  0  0  0
  -25.9301  -11.6472   20.5752 N   0  0  0  0  0  0
  -22.0494  -12.8264   22.0395 N   0  0  0  0  0  0
  -25.4359  -15.1860   20.4118 N   0  0  0  0  0  0
  -31.8527  -14.6240   20.1323 O   0  0  0  0  0  0
  -21.6645   -6.8866   21.4235 O   0  0  0  0  0  0
  -22.3565  -14.5543   20.6659 O   0  0  0  0  0  0
  -24.6112  -31.8689   23.2133 C   0  0  0  0  0  0
  -25.9008  -32.4837   23.8428 C   0  0  1  0  0  0
  -27.2253  -27.4228   20.0986 C   0  0  0  0  0  0
  -25.5883  -33.8643   24.2356 N   0  0  0  0  0  0
  -23.4007  -30.4924   21.5529 C   0  0  2  0  0  0
  -24.8461  -28.9610   20.1162 C   0  0  0  0  0  0
  -22.7397  -29.4656   22.4999 C   0  0  0  0  0  0
  -18.0286  -28.1375   22.8500 C   0  0  0  0  0  0
  -24.1484  -36.7309   23.2641 C   0  0  0  0  0  0
  -25.9308  -30.8270   21.3744 C   0  0  0  0  0  0
  -26.0068  -29.4630   20.7187 C   0  0  0  0  0  0
  -27.1987  -28.6999   20.7084 C   0  0  0  0  0  0
  -26.0450  -26.9477   19.4781 C   0  0  0  0  0  0
  -24.8604  -27.7040   19.4945 C   0  0  0  0  0  0
  -23.6092  -29.8271   20.1669 C   0  0  0  0  0  0
  -25.4111  -36.3119   24.0341 C   0  0  1  0  0  0
  -20.5873  -28.3668   23.1318 C   0  0  2  0  0  0
  -20.6775  -26.9412   22.5398 C   0  0  0  0  0  0
  -19.5750  -26.6394   21.5198 C   0  0  0  0  0  0
  -18.1934  -26.7930   22.1615 C   0  0  0  0  0  0
  -19.1531  -28.8838   23.2914 C   0  0  0  0  0  0
  -18.9458  -30.1449   23.8919 C   0  0  0  0  0  0
  -17.6457  -30.6586   24.0569 C   0  0  0  0  0  0
  -25.9033  -34.9486   23.5145 C   0  0  0  0  0  0
  -16.5353  -29.9079   23.6333 C   0  0  0  0  0  0
  -16.7277  -28.6491   23.0368 C   0  0  0  0  0  0
  -26.4466  -31.6617   25.0742 C   0  0  0  0  0  0
  -25.3728  -31.3724   26.1486 C   0  0  0  0  0  0
  -27.0321  -30.3066   24.6124 C   0  0  0  0  0  0
  -27.6054  -32.4337   25.7486 C   0  0  0  0  0  0
  -27.5592  -37.1807   24.8469 C   0  0  0  0  0  0
  -21.4131  -29.3031   22.3716 N   0  0  0  0  0  0
  -26.4309  -37.3789   23.9404 N   0  0  0  0  0  0
  -24.6654  -31.0767   22.1056 N   0  0  0  0  0  0
  -23.4166  -28.8209   23.3054 O   0  0  0  0  0  0
  -28.3846  -26.6670   20.1251 O   0  0  0  0  0  0
  -26.5593  -34.8922   22.4704 O   0  0  0  0  0  0
  -23.5296  -32.1475   23.7507 O   0  0  0  0  0  0
  -28.2238  -22.3013   21.0853 C   0  0  0  0  0  0
  -29.7819  -20.9619   20.8182 C   0  0  0  0  0  0
  -29.8171  -16.1487   22.0711 C   0  0  0  0  0  0
  -29.7358  -16.5058   19.6154 C   0  0  0  0  0  0
  -30.4392  -17.5651   22.0975 C   0  0  0  0  0  0
  -29.0866  -17.8522   20.0216 C   0  0  0  0  0  0
  -30.5956  -19.6935   20.8012 C   0  0  0  0  0  0
  -29.4766  -24.4696   20.5631 C   0  0  0  0  0  0
  -28.2083  -25.2364   20.1218 C   0  0  0  0  0  0
  -28.4601  -20.9915   21.1766 N   0  0  0  0  0  0
  -30.3208  -22.1521   20.5269 N   0  0  0  0  0  0
  -29.2832  -23.0196   20.6936 N   0  0  0  0  0  0
  -29.9044  -15.5502   20.7324 N   0  0  0  0  0  0
  -29.7658  -18.5133   21.1686 N   0  3  0  0  0  0
  -31.4684  -12.3790   19.1298 H   0  0  0  0  0  0
  -30.3133  -11.2816   19.8337 H   0  0  0  0  0  0
  -29.7364  -11.7485   17.4361 H   0  0  0  0  0  0
  -29.6763  -13.4648   17.7599 H   0  0  0  0  0  0
  -27.8199  -11.3023   18.8093 H   0  0  0  0  0  0
  -27.3714  -12.6342   17.7767 H   0  0  0  0  0  0
  -27.6939  -14.2462   19.5641 H   0  0  0  0  0  0
  -28.6707  -11.9745   21.3632 H   0  0  0  0  0  0
  -28.4707  -13.6347   21.8494 H   0  0  0  0  0  0
  -25.2752   -9.5716   22.4734 H   0  0  0  0  0  0
  -24.0025   -7.4638   22.7454 H   0  0  0  0  0  0
  -21.0829   -8.8743   19.8933 H   0  0  0  0  0  0
  -22.3648  -10.9672   19.6155 H   0  0  0  0  0  0
  -21.1996   -7.6134   23.9720 H   0  0  0  0  0  0
  -21.1499   -6.0506   25.9082 H   0  0  0  0  0  0
  -22.0591   -2.7605   23.2827 H   0  0  0  0  0  0
  -22.4077  -11.9952   22.4847 H   0  0  0  0  0  0
  -21.1097  -13.1289   22.2529 H   0  0  0  0  0  0
  -24.6738  -15.8441   20.5283 H   0  0  0  0  0  0
  -26.2934  -15.6205   20.0973 H   0  0  0  0  0  0
  -26.7061  -32.5549   23.1175 H   0  0  0  0  0  0
  -25.0042  -33.9837   25.0508 H   0  0  0  0  0  0
  -22.6895  -31.3096   21.4155 H   0  0  0  0  0  0
  -23.3743  -35.9641   23.3322 H   0  0  0  0  0  0
  -24.3570  -36.8899   22.2047 H   0  0  0  0  0  0
  -23.7235  -37.6519   23.6649 H   0  0  0  0  0  0
  -26.0470  -31.5954   20.6093 H   0  0  0  0  0  0
  -26.8144  -30.8752   21.9981 H   0  0  0  0  0  0
  -28.0914  -29.0757   21.1896 H   0  0  0  0  0  0
  -26.0144  -25.9951   18.9703 H   0  0  0  0  0  0
  -23.9692  -27.3177   19.0188 H   0  0  0  0  0  0
  -23.7138  -30.6002   19.4045 H   0  0  0  0  0  0
  -22.7347  -29.2413   19.8764 H   0  0  0  0  0  0
  -25.1282  -36.1992   25.0833 H   0  0  0  0  0  0
  -20.9982  -28.3227   24.1429 H   0  0  0  0  0  0
  -20.5688  -26.2273   23.3577 H   0  0  0  0  0  0
  -21.6651  -26.7459   22.1184 H   0  0  0  0  0  0
  -19.6908  -25.6302   21.1225 H   0  0  0  0  0  0
  -19.6699  -27.3201   20.6726 H   0  0  0  0  0  0
  -17.4210  -26.6703   21.4012 H   0  0  0  0  0  0
  -18.0348  -26.0058   22.8995 H   0  0  0  0  0  0
  -19.7941  -30.7261   24.2297 H   0  0  0  0  0  0
  -17.5017  -31.6269   24.5161 H   0  0  0  0  0  0
  -15.5357  -30.2984   23.7638 H   0  0  0  0  0  0
  -15.8684  -28.0791   22.7101 H   0  0  0  0  0  0
  -24.5845  -30.7163   25.7779 H   0  0  0  0  0  0
  -24.8993  -32.2894   26.5004 H   0  0  0  0  0  0
  -25.8039  -30.8790   27.0206 H   0  0  0  0  0  0
  -26.2885  -29.6801   24.1182 H   0  0  0  0  0  0
  -27.4116  -29.7324   25.4588 H   0  0  0  0  0  0
  -27.8711  -30.4408   23.9287 H   0  0  0  0  0  0
  -27.2685  -33.3600   26.2156 H   0  0  0  0  0  0
  -28.3804  -32.6960   25.0269 H   0  0  0  0  0  0
  -28.0809  -31.8415   26.5315 H   0  0  0  0  0  0
  -28.2609  -38.0105   24.7508 H   0  0  0  0  0  0
  -28.1093  -36.2632   24.6308 H   0  0  0  0  0  0
  -27.2321  -37.1472   25.8878 H   0  0  0  0  0  0
  -20.9293  -29.8718   21.6904 H   0  0  0  0  0  0
  -26.0202  -38.2873   24.1376 H   0  0  0  0  0  0
  -27.2648  -22.7394   21.3253 H   0  0  0  0  0  0
  -28.7676  -16.1909   22.3646 H   0  0  0  0  0  0
  -30.3100  -15.5189   22.8155 H   0  0  0  0  0  0
  -30.7033  -16.7127   19.1539 H   0  0  0  0  0  0
  -29.1309  -16.0372   18.8379 H   0  0  0  0  0  0
  -31.4921  -17.4794   21.8222 H   0  0  0  0  0  0
  -30.4155  -17.9742   23.1078 H   0  0  0  0  0  0
  -28.0558  -17.6633   20.3253 H   0  0  0  0  0  0
  -29.0133  -18.5219   19.1625 H   0  0  0  0  0  0
  -31.4100  -19.8221   21.5145 H   0  0  0  0  0  0
  -31.0598  -19.5563   19.8241 H   0  0  0  0  0  0
  -29.8177  -24.8442   21.5285 H   0  0  0  0  0  0
  -30.2789  -24.6535   19.8474 H   0  0  0  0  0  0
  -27.3928  -24.9822   20.8021 H   0  0  0  0  0  0
  -27.9225  -24.8966   19.1260 H   0  0  0  0  0  0
  -29.0186  -18.9656   21.6825 H   0  0  0  0  0  0
  1 25  1  0  0  0
  1 30  2  0  0  0
  1 83  1  0  0  0
  2  3  1  0  0  0
  2 25  1  0  0  0
  2 85  1  0  0  0
  2 86  1  0  0  0
  3  4  1  0  0  0
  3 87  1  0  0  0
  3 88  1  0  0  0
  4  5  1  0  0  0
  4 89  1  0  0  0
  4 90  1  0  0  0
  5  6  1  0  0  0
  5 26  1  0  0  0
  5 91  1  0  0  0
  6 25  1  0  0  0
  6 92  1  0  0  0
  6 93  1  0  0  0
  7  8  2  0  0  0
  7 26  1  0  0  0
  7 29  1  0  0  0
  8  9  1  0  0  0
  8 22  1  0  0  0
  9 10  1  0  0  0
  9 27  2  0  0  0
 10 11  2  0  0  0
 10 15  1  0  0  0
 11 12  1  0  0  0
 11 94  1  0  0  0
 12 13  2  0  0  0
 12 95  1  0  0  0
 13 14  1  0  0  0
 13 31  1  0  0  0
 14 15  2  0  0  0
 14 96  1  0  0  0
 15 97  1  0  0  0
 16 17  2  0  0  0
 16 21  1  0  0  0
 16 31  1  0  0  0
 17 18  1  0  0  0
 17 98  1  0  0  0
 18 19  2  0  0  0
 18 99  1  0  0  0
 19 20  1  0  0  0
 19 24  1  0  0  0
 20 21  2  0  0  0
 20100  1  0  0  0
 21 23  1  0  0  0
 22 28  1  0  0  0
 22 32  2  0  0  0
 26 27  1  0  0  0
 28101  1  0  0  0
 28102  1  0  0  0
 29103  1  0  0  0
 29104  1  0  0  0
 33 34  1  0  0  0
 33 66  1  0  0  0
 33 70  2  0  0  0
 34 36  1  0  0  0
 34 59  1  0  0  0
 34105  1  0  0  0
 35 44  2  0  0  0
 35 45  1  0  0  0
 35 68  1  0  0  0
 36 56  1  0  0  0
 36106  1  0  0  0
 37 39  1  0  0  0
 37 47  1  0  0  0
 37 66  1  0  0  0
 37107  1  0  0  0
 38 43  2  0  0  0
 38 46  1  0  0  0
 38 47  1  0  0  0
 39 64  1  0  0  0
 39 67  2  0  0  0
 40 52  1  0  0  0
 40 53  2  0  0  0
 40 58  1  0  0  0
 41108  1  0  0  0
 41109  1  0  0  0
 41110  1  0  0  0
 41 48  1  0  0  0
 42 43  1  0  0  0
 42 66  1  0  0  0
 42111  1  0  0  0
 42112  1  0  0  0
 43 44  1  0  0  0
 44113  1  0  0  0
 45 46  2  0  0  0
 45114  1  0  0  0
 46115  1  0  0  0
 47116  1  0  0  0
 47117  1  0  0  0
 48 56  1  0  0  0
 48 65  1  0  0  0
 48118  1  0  0  0
 49 50  1  0  0  0
 49 53  1  0  0  0
 49 64  1  0  0  0
 49119  1  0  0  0
 50 51  1  0  0  0
 50120  1  0  0  0
 50121  1  0  0  0
 51 52  1  0  0  0
 51122  1  0  0  0
 51123  1  0  0  0
 52124  1  0  0  0
 52125  1  0  0  0
 53 54  1  0  0  0
 54 55  2  0  0  0
 54126  1  0  0  0
 55 57  1  0  0  0
 55127  1  0  0  0
 56 69  2  0  0  0
 57 58  2  0  0  0
 57128  1  0  0  0
 58129  1  0  0  0
 59 60  1  0  0  0
 59 61  1  0  0  0
 59 62  1  0  0  0
 60130  1  0  0  0
 60131  1  0  0  0
 60132  1  0  0  0
 61133  1  0  0  0
 61134  1  0  0  0
 61135  1  0  0  0
 62136  1  0  0  0
 62137  1  0  0  0
 62138  1  0  0  0
 63 65  1  0  0  0
 63139  1  0  0  0
 63140  1  0  0  0
 63141  1  0  0  0
 64142  1  0  0  0
 65143  1  0  0  0
 68 79  1  0  0  0
 71 80  2  0  0  0
 71 82  1  0  0  0
 71144  1  0  0  0
 72 77  1  0  0  0
 72 80  1  0  0  0
 72 81  2  0  0  0
 73 75  1  0  0  0
 73 83  1  0  0  0
 73145  1  0  0  0
 73146  1  0  0  0
 74 76  1  0  0  0
 74 83  1  0  0  0
 74147  1  0  0  0
 74148  1  0  0  0
 75 84  1  0  0  0
 75149  1  0  0  0
 75150  1  0  0  0
 76 84  1  0  0  0
 76151  1  0  0  0
 76152  1  0  0  0
 77153  1  0  0  0
 77154  1  0  0  0
 77 84  1  0  0  0
 78 79  1  0  0  0
 78 82  1  0  0  0
 78155  1  0  0  0
 78156  1  0  0  0
 79157  1  0  0  0
 79158  1  0  0  0
 81 82  1  0  0  0
 84159  1  0  0  0
M  CHG  1  84   1
M  ISO  4   1 100  68 101  79 101  83 100
M  END
> <chiral flag>
0

> <version>
0

> <s_m_source_file>
/data/baiqing/PycharmProjects/Reinvent-master-3.2/result/LINK_invent/BTK/process_docking_weight1_custom_sum_contain_oxygen_bond_distance_aromatic_linkinvent_7_9_3/rearranged_h_0189.sdf

> <i_m_source_file_index>
75

> <r_mmod_Potential_Energy-OPLS-2005>
-33.3702583312988

> <r_mmod_Stretch_Energy-OPLS-2005>
38.7655410766602

> <r_mmod_Bend_Energy-OPLS-2005>
100.78645324707

> <r_mmod_Torsional_Energy-OPLS-2005>
411.746795654297

> <r_mmod_Improper_Torsional_Energy-OPLS-2005>
12.5396480560303

> <r_mmod_Van_der_Waal_Energy-OPLS-2005>
143.602951049805

> <r_mmod_Electrostatic_Energy-OPLS-2005>
-315.939483642578

> <r_mmod_Solvation_Energy-OPLS-2005>
-440.766540527344

> <b_mmod_Minimization_Converged-OPLS-2005>
0

> <r_mmod_RMS_Derivative-OPLS-2005>
2.13318157196045

$$$$
76
                    3D
 Structure written by MMmdl.
160169  0  0  1  0            999 V2000
  -30.4836  -15.0489   20.4138 C   0  0  0  0  0  0
  -30.4469  -12.6633   19.4838 C   0  0  0  0  0  0
  -29.5201  -12.5312   18.2514 C   0  0  0  0  0  0
  -28.0598  -12.2946   18.6837 C   0  0  0  0  0  0
  -27.6208  -13.2471   19.8250 C   0  0  2  0  0  0
  -28.6662  -13.3172   20.9553 C   0  0  0  0  0  0
  -25.2443  -13.8201   20.5718 C   0  0  0  0  0  0
  -24.1767  -13.0426   20.9249 C   0  0  0  0  0  0
  -24.6385  -11.6912   20.8769 C   0  0  0  0  0  0
  -23.9074  -10.4282   21.0420 C   0  0  0  0  0  0
  -24.3623   -9.4199   21.9195 C   0  0  0  0  0  0
  -23.6294   -8.2237   22.0759 C   0  0  0  0  0  0
  -22.4280   -8.0275   21.3544 C   0  0  0  0  0  0
  -21.9914   -9.0253   20.4649 C   0  0  0  0  0  0
  -22.7249  -10.2132   20.3064 C   0  0  0  0  0  0
  -21.6850   -6.0734   22.5280 C   0  0  0  0  0  0
  -21.4011   -6.5642   23.8212 C   0  0  0  0  0  0
  -21.3655   -5.6796   24.9172 C   0  0  0  0  0  0
  -21.6044   -4.3058   24.7225 C   0  0  0  0  0  0
  -21.8817   -3.8148   23.4347 C   0  0  0  0  0  0
  -21.9193   -4.6963   22.3403 C   0  0  0  0  0  0
  -22.7787  -13.5200   21.1896 C   0  0  0  0  0  0
  -22.1660   -4.2148   21.0983 F   0  0  0  0  0  0
  -21.5627   -3.4541   25.7739 F   0  0  0  0  0  0
  -29.9170  -13.7704   20.3331 N   0  0  0  0  0  0
  -26.2849  -12.9427   20.3215 N   0  0  0  0  0  0
  -25.9313  -11.6561   20.5740 N   0  0  0  0  0  0
  -22.0437  -12.8187   22.0451 N   0  0  0  0  0  0
  -25.4100  -15.1930   20.4129 N   0  0  0  0  0  0
  -31.7095  -15.1120   20.2651 O   0  0  0  0  0  0
  -21.6641   -6.8875   21.4242 O   0  0  0  0  0  0
  -22.3472  -14.5505   20.6735 O   0  0  0  0  0  0
  -24.6493  -31.8371   23.1800 C   0  0  0  0  0  0
  -25.9236  -32.4659   23.8212 C   0  0  1  0  0  0
  -27.2178  -27.0700   20.1847 C   0  0  0  0  0  0
  -25.5962  -33.8465   24.2133 N   0  0  0  0  0  0
  -23.4557  -30.4528   21.5266 C   0  0  2  0  0  0
  -24.9047  -28.8544   20.1231 C   0  0  0  0  0  0
  -22.7586  -29.4526   22.4837 C   0  0  0  0  0  0
  -18.0305  -28.1407   22.8472 C   0  0  0  0  0  0
  -24.1495  -36.7232   23.2648 C   0  0  0  0  0  0
  -26.0147  -30.6916   21.3853 C   0  0  0  0  0  0
  -26.0838  -29.2915   20.7394 C   0  0  0  0  0  0
  -27.2437  -28.4200   20.7395 C   0  0  0  0  0  0
  -26.0093  -26.7360   19.5420 C   0  0  0  0  0  0
  -24.8822  -27.5916   19.5075 C   0  0  0  0  0  0
  -23.6867  -29.7686   20.1520 C   0  0  0  0  0  0
  -25.4127  -36.2999   24.0314 C   0  0  1  0  0  0
  -20.5924  -28.3741   23.1219 C   0  0  2  0  0  0
  -20.6792  -26.9440   22.5400 C   0  0  0  0  0  0
  -19.5764  -26.6386   21.5214 C   0  0  0  0  0  0
  -18.1945  -26.7947   22.1618 C   0  0  0  0  0  0
  -19.1566  -28.8891   23.2840 C   0  0  0  0  0  0
  -18.9479  -30.1486   23.8868 C   0  0  0  0  0  0
  -17.6478  -30.6603   24.0562 C   0  0  0  0  0  0
  -25.9083  -34.9388   23.5031 C   0  0  0  0  0  0
  -16.5367  -29.9092   23.6343 C   0  0  0  0  0  0
  -16.7290  -28.6515   23.0361 C   0  0  0  0  0  0
  -26.4536  -31.6552   25.0685 C   0  0  0  0  0  0
  -25.3701  -31.3751   26.1368 C   0  0  0  0  0  0
  -27.0419  -30.2940   24.6314 C   0  0  0  0  0  0
  -27.6057  -32.4334   25.7466 C   0  0  0  0  0  0
  -27.5570  -37.1760   24.8465 C   0  0  0  0  0  0
  -21.4276  -29.3057   22.3582 N   0  0  0  0  0  0
  -26.4271  -37.3730   23.9424 N   0  0  0  0  0  0
  -24.7269  -31.0180   22.0851 N   0  0  0  0  0  0
  -23.4206  -28.8090   23.3023 O   0  0  0  0  0  0
  -28.3018  -26.1062   20.1185 O   0  0  0  0  0  0
  -26.5684  -34.8908   22.4618 O   0  0  0  0  0  0
  -23.5596  -32.1264   23.6991 O   0  0  0  0  0  0
  -30.1649  -21.7674   19.0977 C   0  0  0  0  0  0
  -30.8270  -20.5605   18.7146 C   0  0  0  0  0  0
  -29.1053  -21.6816   20.0343 C   0  0  0  0  0  0
  -29.6490  -19.2199   20.1964 C   0  0  0  0  0  0
  -31.6127  -20.9966   16.2381 C   0  0  0  0  0  0
  -31.7572  -19.5214   16.4903 C   0  0  0  0  0  0
  -31.8831  -20.4981   17.6440 C   0  0  0  0  0  0
  -31.8792  -23.4501   18.6933 C   0  0  0  0  0  0
  -28.1051  -23.0306   20.1803 C   0  0  0  0  0  0
  -29.7509  -17.7397   20.9716 C   0  0  0  0  0  0
  -28.3849  -24.6426   20.7261 C   0  0  0  0  0  0
  -30.5680  -19.3494   19.2553 N   0  0  0  0  0  0
  -28.9037  -20.3638   20.5793 N   0  0  0  0  0  0
  -30.4915  -23.0202   18.5425 N   0  0  0  0  0  0
  -29.6576  -16.2232   20.4533 N   0  0  0  0  0  0
  -31.4689  -12.8629   19.1574 H   0  0  0  0  0  0
  -30.4872  -11.7282   20.0451 H   0  0  0  0  0  0
  -29.8568  -11.7164   17.6089 H   0  0  0  0  0  0
  -29.5798  -13.4400   17.6506 H   0  0  0  0  0  0
  -27.9830  -11.2609   19.0233 H   0  0  0  0  0  0
  -27.3871  -12.3841   17.8298 H   0  0  0  0  0  0
  -27.5667  -14.2365   19.3701 H   0  0  0  0  0  0
  -28.7900  -12.3501   21.4451 H   0  0  0  0  0  0
  -28.3504  -14.0196   21.7283 H   0  0  0  0  0  0
  -25.2762   -9.5674   22.4775 H   0  0  0  0  0  0
  -23.9996   -7.4627   22.7479 H   0  0  0  0  0  0
  -21.0844   -8.8776   19.8953 H   0  0  0  0  0  0
  -22.3707  -10.9673   19.6174 H   0  0  0  0  0  0
  -21.2004   -7.6151   23.9713 H   0  0  0  0  0  0
  -21.1475   -6.0528   25.9076 H   0  0  0  0  0  0
  -22.0600   -2.7609   23.2852 H   0  0  0  0  0  0
  -22.4056  -11.9850   22.4836 H   0  0  0  0  0  0
  -21.1052  -13.1209   22.2662 H   0  0  0  0  0  0
  -24.6367  -15.8404   20.5191 H   0  0  0  0  0  0
  -26.2445  -15.6336   20.0506 H   0  0  0  0  0  0
  -26.7298  -32.5245   23.0930 H   0  0  0  0  0  0
  -25.0084  -33.9561   25.0265 H   0  0  0  0  0  0
  -22.7630  -31.2807   21.3614 H   0  0  0  0  0  0
  -23.3772  -35.9545   23.3271 H   0  0  0  0  0  0
  -24.3576  -36.8902   22.2068 H   0  0  0  0  0  0
  -23.7232  -37.6406   23.6716 H   0  0  0  0  0  0
  -26.1766  -31.4367   20.6051 H   0  0  0  0  0  0
  -26.8838  -30.7463   22.0293 H   0  0  0  0  0  0
  -28.1544  -28.7651   21.2077 H   0  0  0  0  0  0
  -25.9303  -25.7707   19.0623 H   0  0  0  0  0  0
  -23.9826  -27.2503   19.0133 H   0  0  0  0  0  0
  -23.8332  -30.5355   19.3907 H   0  0  0  0  0  0
  -22.8001  -29.2140   19.8396 H   0  0  0  0  0  0
  -25.1316  -36.1795   25.0804 H   0  0  0  0  0  0
  -21.0007  -28.3334   24.1342 H   0  0  0  0  0  0
  -20.5690  -26.2361   23.3630 H   0  0  0  0  0  0
  -21.6659  -26.7445   22.1193 H   0  0  0  0  0  0
  -19.6936  -25.6287   21.1266 H   0  0  0  0  0  0
  -19.6705  -27.3184   20.6739 H   0  0  0  0  0  0
  -17.4215  -26.6696   21.4021 H   0  0  0  0  0  0
  -18.0334  -26.0097   22.9019 H   0  0  0  0  0  0
  -19.7962  -30.7309   24.2227 H   0  0  0  0  0  0
  -17.5035  -31.6286   24.5166 H   0  0  0  0  0  0
  -15.5369  -30.2988   23.7702 H   0  0  0  0  0  0
  -15.8687  -28.0832   22.7095 H   0  0  0  0  0  0
  -24.5892  -30.7098   25.7662 H   0  0  0  0  0  0
  -24.8898  -32.2944   26.4725 H   0  0  0  0  0  0
  -25.7966  -30.8945   27.0183 H   0  0  0  0  0  0
  -26.3048  -29.6630   24.1338 H   0  0  0  0  0  0
  -27.4026  -29.7276   25.4911 H   0  0  0  0  0  0
  -27.8951  -30.4161   23.9640 H   0  0  0  0  0  0
  -27.2652  -33.3680   26.1929 H   0  0  0  0  0  0
  -28.3914  -32.6813   25.0318 H   0  0  0  0  0  0
  -28.0672  -31.8533   26.5466 H   0  0  0  0  0  0
  -28.2551  -38.0093   24.7537 H   0  0  0  0  0  0
  -28.1093  -36.2617   24.6238 H   0  0  0  0  0  0
  -27.2293  -37.1330   25.8868 H   0  0  0  0  0  0
  -20.9506  -29.8745   21.6723 H   0  0  0  0  0  0
  -26.0123  -38.2780   24.1456 H   0  0  0  0  0  0
  -30.6152  -21.3772   16.0248 H   0  0  0  0  0  0
  -32.4270  -21.4953   15.7163 H   0  0  0  0  0  0
  -32.6662  -19.0442   16.1310 H   0  0  0  0  0  0
  -30.8550  -18.9146   16.4364 H   0  0  0  0  0  0
  -32.8740  -20.6629   18.0628 H   0  0  0  0  0  0
  -31.9186  -24.5003   18.9883 H   0  0  0  0  0  0
  -32.4191  -23.3566   17.7501 H   0  0  0  0  0  0
  -32.4141  -22.8785   19.4543 H   0  0  0  0  0  0
  -27.2869  -22.6672   20.8012 H   0  0  0  0  0  0
  -27.6389  -23.1309   19.2005 H   0  0  0  0  0  0
  -28.9934  -17.7996   21.7528 H   0  0  0  0  0  0
  -30.6917  -17.7842   21.5201 H   0  0  0  0  0  0
  -29.4023  -24.6087   21.1157 H   0  0  0  0  0  0
  -27.7899  -24.7246   21.6367 H   0  0  0  0  0  0
  -29.8235  -23.7667   18.7256 H   0  0  0  0  0  0
  -28.6911  -15.9766   20.3167 H   0  0  0  0  0  0
  1 25  1  0  0  0
  1 30  2  0  0  0
  1 85  1  0  0  0
  2  3  1  0  0  0
  2 25  1  0  0  0
  2 86  1  0  0  0
  2 87  1  0  0  0
  3  4  1  0  0  0
  3 88  1  0  0  0
  3 89  1  0  0  0
  4  5  1  0  0  0
  4 90  1  0  0  0
  4 91  1  0  0  0
  5  6  1  0  0  0
  5 26  1  0  0  0
  5 92  1  0  0  0
  6 25  1  0  0  0
  6 93  1  0  0  0
  6 94  1  0  0  0
  7  8  2  0  0  0
  7 26  1  0  0  0
  7 29  1  0  0  0
  8  9  1  0  0  0
  8 22  1  0  0  0
  9 10  1  0  0  0
  9 27  2  0  0  0
 10 11  2  0  0  0
 10 15  1  0  0  0
 11 12  1  0  0  0
 11 95  1  0  0  0
 12 13  2  0  0  0
 12 96  1  0  0  0
 13 14  1  0  0  0
 13 31  1  0  0  0
 14 15  2  0  0  0
 14 97  1  0  0  0
 15 98  1  0  0  0
 16 17  2  0  0  0
 16 21  1  0  0  0
 16 31  1  0  0  0
 17 18  1  0  0  0
 17 99  1  0  0  0
 18 19  2  0  0  0
 18100  1  0  0  0
 19 20  1  0  0  0
 19 24  1  0  0  0
 20 21  2  0  0  0
 20101  1  0  0  0
 21 23  1  0  0  0
 22 28  1  0  0  0
 22 32  2  0  0  0
 26 27  1  0  0  0
 28102  1  0  0  0
 28103  1  0  0  0
 29104  1  0  0  0
 29105  1  0  0  0
 33 34  1  0  0  0
 33 66  1  0  0  0
 33 70  2  0  0  0
 34 36  1  0  0  0
 34 59  1  0  0  0
 34106  1  0  0  0
 35 44  2  0  0  0
 35 45  1  0  0  0
 35 68  1  0  0  0
 36 56  1  0  0  0
 36107  1  0  0  0
 37 39  1  0  0  0
 37 47  1  0  0  0
 37 66  1  0  0  0
 37108  1  0  0  0
 38 43  2  0  0  0
 38 46  1  0  0  0
 38 47  1  0  0  0
 39 64  1  0  0  0
 39 67  2  0  0  0
 40 52  1  0  0  0
 40 53  2  0  0  0
 40 58  1  0  0  0
 41109  1  0  0  0
 41110  1  0  0  0
 41111  1  0  0  0
 41 48  1  0  0  0
 42 43  1  0  0  0
 42 66  1  0  0  0
 42112  1  0  0  0
 42113  1  0  0  0
 43 44  1  0  0  0
 44114  1  0  0  0
 45 46  2  0  0  0
 45115  1  0  0  0
 46116  1  0  0  0
 47117  1  0  0  0
 47118  1  0  0  0
 48 56  1  0  0  0
 48 65  1  0  0  0
 48119  1  0  0  0
 49 50  1  0  0  0
 49 53  1  0  0  0
 49 64  1  0  0  0
 49120  1  0  0  0
 50 51  1  0  0  0
 50121  1  0  0  0
 50122  1  0  0  0
 51 52  1  0  0  0
 51123  1  0  0  0
 51124  1  0  0  0
 52125  1  0  0  0
 52126  1  0  0  0
 53 54  1  0  0  0
 54 55  2  0  0  0
 54127  1  0  0  0
 55 57  1  0  0  0
 55128  1  0  0  0
 56 69  2  0  0  0
 57 58  2  0  0  0
 57129  1  0  0  0
 58130  1  0  0  0
 59 60  1  0  0  0
 59 61  1  0  0  0
 59 62  1  0  0  0
 60131  1  0  0  0
 60132  1  0  0  0
 60133  1  0  0  0
 61134  1  0  0  0
 61135  1  0  0  0
 61136  1  0  0  0
 62137  1  0  0  0
 62138  1  0  0  0
 62139  1  0  0  0
 63 65  1  0  0  0
 63140  1  0  0  0
 63141  1  0  0  0
 63142  1  0  0  0
 64143  1  0  0  0
 65144  1  0  0  0
 68 81  1  0  0  0
 71 72  2  0  0  0
 71 73  1  0  0  0
 71 84  1  0  0  0
 72 82  1  0  0  0
 72 77  1  0  0  0
 73 79  1  0  0  0
 73 83  2  0  0  0
 74 80  1  0  0  0
 74 82  2  0  0  0
 74 83  1  0  0  0
 75 76  1  0  0  0
 75 77  1  0  0  0
 75145  1  0  0  0
 75146  1  0  0  0
 76 77  1  0  0  0
 76147  1  0  0  0
 76148  1  0  0  0
 77149  1  0  0  0
 78 84  1  0  0  0
 78150  1  0  0  0
 78151  1  0  0  0
 78152  1  0  0  0
 79 81  1  0  0  0
 79153  1  0  0  0
 79154  1  0  0  0
 80 85  1  0  0  0
 80155  1  0  0  0
 80156  1  0  0  0
 81157  1  0  0  0
 81158  1  0  0  0
 84159  1  0  0  0
 85160  1  0  0  0
M  ISO  4   1 100  68 101  81 101  85 100
M  END
> <chiral flag>
0

> <version>
0

> <s_m_source_file>
/data/baiqing/PycharmProjects/Reinvent-master-3.2/result/LINK_invent/BTK/process_docking_weight1_custom_sum_contain_oxygen_bond_distance_aromatic_linkinvent_7_9_3/rearranged_h_0189.sdf

> <i_m_source_file_index>
76

> <r_mmod_Potential_Energy-OPLS-2005>
377.708251953125

> <r_mmod_Stretch_Energy-OPLS-2005>
330.064147949219

> <r_mmod_Bend_Energy-OPLS-2005>
375.85302734375

> <r_mmod_Torsional_Energy-OPLS-2005>
285.162567138672

> <r_mmod_Improper_Torsional_Energy-OPLS-2005>
12.3764429092407

> <r_mmod_Van_der_Waal_Energy-OPLS-2005>
127.789535522461

> <r_mmod_Electrostatic_Energy-OPLS-2005>
-752.65087890625

> <r_mmod_Solvation_Energy-OPLS-2005>
-259.11328125

> <b_mmod_Minimization_Converged-OPLS-2005>
0

> <r_mmod_RMS_Derivative-OPLS-2005>
1.25824177265167

$$$$
77
                    3D
 Structure written by MMmdl.
152160  0  0  1  0            999 V2000
  -30.4303  -15.1984   20.3780 C   0  0  0  0  0  0
  -30.4465  -12.7529   19.5278 C   0  0  0  0  0  0
  -29.5372  -12.5696   18.2857 C   0  0  0  0  0  0
  -28.0805  -12.3036   18.7074 C   0  0  0  0  0  0
  -27.6195  -13.2639   19.8319 C   0  0  2  0  0  0
  -28.6546  -13.3895   20.9704 C   0  0  0  0  0  0
  -25.2410  -13.8228   20.5721 C   0  0  0  0  0  0
  -24.1751  -13.0433   20.9244 C   0  0  0  0  0  0
  -24.6386  -11.6923   20.8748 C   0  0  0  0  0  0
  -23.9072  -10.4286   21.0391 C   0  0  0  0  0  0
  -24.3622   -9.4207   21.9174 C   0  0  0  0  0  0
  -23.6292   -8.2244   22.0751 C   0  0  0  0  0  0
  -22.4277   -8.0275   21.3542 C   0  0  0  0  0  0
  -21.9909   -9.0247   20.4642 C   0  0  0  0  0  0
  -22.7240  -10.2125   20.3044 C   0  0  0  0  0  0
  -21.6856   -6.0726   22.5273 C   0  0  0  0  0  0
  -21.4024   -6.5630   23.8205 C   0  0  0  0  0  0
  -21.3663   -5.6787   24.9170 C   0  0  0  0  0  0
  -21.6043   -4.3048   24.7223 C   0  0  0  0  0  0
  -21.8819   -3.8137   23.4347 C   0  0  0  0  0  0
  -21.9197   -4.6949   22.3400 C   0  0  0  0  0  0
  -22.7771  -13.5192   21.1896 C   0  0  0  0  0  0
  -22.1660   -4.2130   21.0979 F   0  0  0  0  0  0
  -21.5627   -3.4535   25.7742 F   0  0  0  0  0  0
  -29.9006  -13.8815   20.3609 N   0  0  0  0  0  0
  -26.2841  -12.9482   20.3226 N   0  0  0  0  0  0
  -25.9325  -11.6597   20.5721 N   0  0  0  0  0  0
  -22.0434  -12.8177   22.0457 N   0  0  0  0  0  0
  -25.4038  -15.1963   20.4128 N   0  0  0  0  0  0
  -31.6413  -15.2467   20.1110 O   0  0  0  0  0  0
  -21.6645   -6.8871   21.4235 O   0  0  0  0  0  0
  -22.3446  -14.5492   20.6737 O   0  0  0  0  0  0
  -24.6583  -31.8276   23.1731 C   0  0  0  0  0  0
  -25.9287  -32.4606   23.8170 C   0  0  1  0  0  0
  -27.2233  -26.9731   20.1815 C   0  0  0  0  0  0
  -25.5973  -33.8416   24.2083 N   0  0  0  0  0  0
  -23.4709  -30.4390   21.5216 C   0  0  2  0  0  0
  -24.9249  -28.8322   20.1121 C   0  0  0  0  0  0
  -22.7638  -29.4454   22.4793 C   0  0  0  0  0  0
  -18.0315  -28.1402   22.8449 C   0  0  0  0  0  0
  -24.1494  -36.7224   23.2643 C   0  0  0  0  0  0
  -26.0366  -30.6491   21.3954 C   0  0  0  0  0  0
  -26.1071  -29.2432   20.7398 C   0  0  0  0  0  0
  -27.2530  -28.3348   20.7478 C   0  0  0  0  0  0
  -26.0113  -26.6997   19.5098 C   0  0  0  0  0  0
  -24.8995  -27.5800   19.4763 C   0  0  0  0  0  0
  -23.7085  -29.7551   20.1474 C   0  0  0  0  0  0
  -25.4130  -36.2975   24.0297 C   0  0  1  0  0  0
  -20.5936  -28.3744   23.1190 C   0  0  2  0  0  0
  -20.6795  -26.9429   22.5400 C   0  0  0  0  0  0
  -19.5780  -26.6372   21.5203 C   0  0  0  0  0  0
  -18.1955  -26.7932   22.1608 C   0  0  0  0  0  0
  -19.1577  -28.8892   23.2804 C   0  0  0  0  0  0
  -18.9489  -30.1482   23.8840 C   0  0  0  0  0  0
  -17.6488  -30.6594   24.0547 C   0  0  0  0  0  0
  -25.9092  -34.9357   23.5012 C   0  0  0  0  0  0
  -16.5379  -29.9082   23.6339 C   0  0  0  0  0  0
  -16.7302  -28.6505   23.0348 C   0  0  0  0  0  0
  -26.4555  -31.6535   25.0682 C   0  0  0  0  0  0
  -25.3688  -31.3786   26.1342 C   0  0  0  0  0  0
  -27.0437  -30.2896   24.6398 C   0  0  0  0  0  0
  -27.6036  -32.4357   25.7490 C   0  0  0  0  0  0
  -27.5576  -37.1763   24.8459 C   0  0  0  0  0  0
  -21.4313  -29.3040   22.3545 N   0  0  0  0  0  0
  -26.4278  -37.3709   23.9412 N   0  0  0  0  0  0
  -24.7427  -30.9975   22.0843 N   0  0  0  0  0  0
  -23.4196  -28.8015   23.3015 O   0  0  0  0  0  0
  -28.2464  -25.9037   20.2600 O   0  0  0  0  0  0
  -26.5703  -34.8884   22.4606 O   0  0  0  0  0  0
  -23.5670  -32.1229   23.6859 O   0  0  0  0  0  0
  -28.4091  -18.7516   20.9755 C   0  0  0  0  0  0
  -28.2085  -20.2212   20.9446 C   0  0  0  0  0  0
  -29.1162  -21.1736   20.3342 C   0  0  0  0  0  0
  -30.2079  -20.3415   19.8104 C   0  0  0  0  0  0
  -29.5319  -17.9919   20.4457 C   0  0  0  0  0  0
  -26.9850  -20.7843   21.6404 C   0  0  0  0  0  0
  -31.3661  -21.0412   19.1269 C   0  0  0  0  0  0
  -29.1208  -22.9222   20.4235 C   0  0  0  0  0  0
  -28.0200  -24.2889   20.1419 C   0  0  0  0  0  0
  -30.3875  -18.9249   19.8631 N   0  0  0  0  0  0
  -29.5843  -16.3892   20.5494 N   0  0  0  0  0  0
  -31.4687  -12.9518   19.2034 H   0  0  0  0  0  0
  -30.4995  -11.8309   20.1096 H   0  0  0  0  0  0
  -29.9036  -11.7539   17.6610 H   0  0  0  0  0  0
  -29.5781  -13.4702   17.6722 H   0  0  0  0  0  0
  -28.0219  -11.2730   19.0600 H   0  0  0  0  0  0
  -27.4141  -12.3702   17.8460 H   0  0  0  0  0  0
  -27.5507  -14.2428   19.3564 H   0  0  0  0  0  0
  -28.8012  -12.4364   21.4810 H   0  0  0  0  0  0
  -28.3058  -14.0927   21.7285 H   0  0  0  0  0  0
  -25.2761   -9.5688   22.4752 H   0  0  0  0  0  0
  -23.9998   -7.4638   22.7474 H   0  0  0  0  0  0
  -21.0843   -8.8760   19.8946 H   0  0  0  0  0  0
  -22.3689  -10.9661   19.6152 H   0  0  0  0  0  0
  -21.2022   -7.6138   23.9704 H   0  0  0  0  0  0
  -21.1485   -6.0518   25.9071 H   0  0  0  0  0  0
  -22.0596   -2.7595   23.2854 H   0  0  0  0  0  0
  -22.4077  -11.9854   22.4855 H   0  0  0  0  0  0
  -21.1038  -13.1167   22.2657 H   0  0  0  0  0  0
  -24.6219  -15.8357   20.5058 H   0  0  0  0  0  0
  -26.2251  -15.6349   20.0192 H   0  0  0  0  0  0
  -26.7345  -32.5155   23.0877 H   0  0  0  0  0  0
  -25.0050  -33.9500   25.0187 H   0  0  0  0  0  0
  -22.7809  -31.2687   21.3529 H   0  0  0  0  0  0
  -23.3762  -35.9549   23.3264 H   0  0  0  0  0  0
  -24.3572  -36.8925   22.2066 H   0  0  0  0  0  0
  -23.7249  -37.6398   23.6733 H   0  0  0  0  0  0
  -26.2090  -31.3931   20.6164 H   0  0  0  0  0  0
  -26.8990  -30.7060   22.0479 H   0  0  0  0  0  0
  -28.1511  -28.6492   21.2613 H   0  0  0  0  0  0
  -25.8912  -25.7400   19.0287 H   0  0  0  0  0  0
  -23.9996  -27.2584   18.9706 H   0  0  0  0  0  0
  -23.8597  -30.5247   19.3895 H   0  0  0  0  0  0
  -22.8190  -29.2080   19.8309 H   0  0  0  0  0  0
  -25.1324  -36.1769   25.0785 H   0  0  0  0  0  0
  -21.0016  -28.3356   24.1318 H   0  0  0  0  0  0
  -20.5689  -26.2352   23.3634 H   0  0  0  0  0  0
  -21.6659  -26.7417   22.1205 H   0  0  0  0  0  0
  -19.6943  -25.6270   21.1275 H   0  0  0  0  0  0
  -19.6736  -27.3139   20.6698 H   0  0  0  0  0  0
  -17.4226  -26.6662   21.4013 H   0  0  0  0  0  0
  -18.0359  -26.0091   22.9022 H   0  0  0  0  0  0
  -19.7972  -30.7299   24.2193 H   0  0  0  0  0  0
  -17.5048  -31.6272   24.5156 H   0  0  0  0  0  0
  -15.5378  -30.2964   23.7708 H   0  0  0  0  0  0
  -15.8698  -28.0817   22.7089 H   0  0  0  0  0  0
  -24.5876  -30.7127   25.7653 H   0  0  0  0  0  0
  -24.8860  -32.2988   26.4642 H   0  0  0  0  0  0
  -25.7911  -30.9034   27.0204 H   0  0  0  0  0  0
  -26.3086  -29.6581   24.1396 H   0  0  0  0  0  0
  -27.3954  -29.7253   25.5047 H   0  0  0  0  0  0
  -27.9035  -30.4059   23.9797 H   0  0  0  0  0  0
  -27.2584  -33.3704   26.1924 H   0  0  0  0  0  0
  -28.3913  -32.6866   25.0371 H   0  0  0  0  0  0
  -28.0626  -31.8590   26.5535 H   0  0  0  0  0  0
  -28.2547  -38.0100   24.7521 H   0  0  0  0  0  0
  -28.1124  -36.2627   24.6263 H   0  0  0  0  0  0
  -27.2297  -37.1366   25.8861 H   0  0  0  0  0  0
  -20.9557  -29.8738   21.6686 H   0  0  0  0  0  0
  -26.0131  -38.2765   24.1438 H   0  0  0  0  0  0
  -27.6414  -18.1703   21.4679 H   0  0  0  0  0  0
  -26.2878  -19.9999   21.9357 H   0  0  0  0  0  0
  -26.4526  -21.4752   20.9871 H   0  0  0  0  0  0
  -27.2823  -21.3259   22.5388 H   0  0  0  0  0  0
  -31.0040  -21.6778   18.3193 H   0  0  0  0  0  0
  -32.0707  -20.3307   18.6930 H   0  0  0  0  0  0
  -31.9109  -21.6606   19.8388 H   0  0  0  0  0  0
  -29.9870  -23.2038   19.8278 H   0  0  0  0  0  0
  -29.4598  -23.0874   21.4458 H   0  0  0  0  0  0
  -27.1603  -24.0990   20.7841 H   0  0  0  0  0  0
  -27.6425  -24.1458   19.1293 H   0  0  0  0  0  0
  -28.6777  -16.0495   20.8253 H   0  0  0  0  0  0
  1 25  1  0  0  0
  1 30  2  0  0  0
  1 81  1  0  0  0
  2  3  1  0  0  0
  2 25  1  0  0  0
  2 82  1  0  0  0
  2 83  1  0  0  0
  3  4  1  0  0  0
  3 84  1  0  0  0
  3 85  1  0  0  0
  4  5  1  0  0  0
  4 86  1  0  0  0
  4 87  1  0  0  0
  5  6  1  0  0  0
  5 26  1  0  0  0
  5 88  1  0  0  0
  6 25  1  0  0  0
  6 89  1  0  0  0
  6 90  1  0  0  0
  7  8  2  0  0  0
  7 26  1  0  0  0
  7 29  1  0  0  0
  8  9  1  0  0  0
  8 22  1  0  0  0
  9 10  1  0  0  0
  9 27  2  0  0  0
 10 11  2  0  0  0
 10 15  1  0  0  0
 11 12  1  0  0  0
 11 91  1  0  0  0
 12 13  2  0  0  0
 12 92  1  0  0  0
 13 14  1  0  0  0
 13 31  1  0  0  0
 14 15  2  0  0  0
 14 93  1  0  0  0
 15 94  1  0  0  0
 16 17  2  0  0  0
 16 21  1  0  0  0
 16 31  1  0  0  0
 17 18  1  0  0  0
 17 95  1  0  0  0
 18 19  2  0  0  0
 18 96  1  0  0  0
 19 20  1  0  0  0
 19 24  1  0  0  0
 20 21  2  0  0  0
 20 97  1  0  0  0
 21 23  1  0  0  0
 22 28  1  0  0  0
 22 32  2  0  0  0
 26 27  1  0  0  0
 28 98  1  0  0  0
 28 99  1  0  0  0
 29100  1  0  0  0
 29101  1  0  0  0
 33 34  1  0  0  0
 33 66  1  0  0  0
 33 70  2  0  0  0
 34 36  1  0  0  0
 34 59  1  0  0  0
 34102  1  0  0  0
 35 44  2  0  0  0
 35 45  1  0  0  0
 35 68  1  0  0  0
 36 56  1  0  0  0
 36103  1  0  0  0
 37 39  1  0  0  0
 37 47  1  0  0  0
 37 66  1  0  0  0
 37104  1  0  0  0
 38 43  2  0  0  0
 38 46  1  0  0  0
 38 47  1  0  0  0
 39 64  1  0  0  0
 39 67  2  0  0  0
 40 52  1  0  0  0
 40 53  2  0  0  0
 40 58  1  0  0  0
 41105  1  0  0  0
 41106  1  0  0  0
 41107  1  0  0  0
 41 48  1  0  0  0
 42 43  1  0  0  0
 42 66  1  0  0  0
 42108  1  0  0  0
 42109  1  0  0  0
 43 44  1  0  0  0
 44110  1  0  0  0
 45 46  2  0  0  0
 45111  1  0  0  0
 46112  1  0  0  0
 47113  1  0  0  0
 47114  1  0  0  0
 48 56  1  0  0  0
 48 65  1  0  0  0
 48115  1  0  0  0
 49 50  1  0  0  0
 49 53  1  0  0  0
 49 64  1  0  0  0
 49116  1  0  0  0
 50 51  1  0  0  0
 50117  1  0  0  0
 50118  1  0  0  0
 51 52  1  0  0  0
 51119  1  0  0  0
 51120  1  0  0  0
 52121  1  0  0  0
 52122  1  0  0  0
 53 54  1  0  0  0
 54 55  2  0  0  0
 54123  1  0  0  0
 55 57  1  0  0  0
 55124  1  0  0  0
 56 69  2  0  0  0
 57 58  2  0  0  0
 57125  1  0  0  0
 58126  1  0  0  0
 59 60  1  0  0  0
 59 61  1  0  0  0
 59 62  1  0  0  0
 60127  1  0  0  0
 60128  1  0  0  0
 60129  1  0  0  0
 61130  1  0  0  0
 61131  1  0  0  0
 61132  1  0  0  0
 62133  1  0  0  0
 62134  1  0  0  0
 62135  1  0  0  0
 63 65  1  0  0  0
 63136  1  0  0  0
 63137  1  0  0  0
 63138  1  0  0  0
 64139  1  0  0  0
 65140  1  0  0  0
 68 79  1  0  0  0
 71 72  2  0  0  0
 71 75  1  0  0  0
 71141  1  0  0  0
 72 73  1  0  0  0
 72 76  1  0  0  0
 73 74  2  0  0  0
 73 78  1  0  0  0
 74 77  1  0  0  0
 74 80  1  0  0  0
 75 80  2  0  0  0
 75 81  1  0  0  0
 76142  1  0  0  0
 76143  1  0  0  0
 76144  1  0  0  0
 77145  1  0  0  0
 77146  1  0  0  0
 77147  1  0  0  0
 78 79  1  0  0  0
 78148  1  0  0  0
 78149  1  0  0  0
 79150  1  0  0  0
 79151  1  0  0  0
 81152  1  0  0  0
M  ISO  4   1 100  68 101  79 101  81 100
M  END
> <chiral flag>
0

> <version>
0

> <s_m_source_file>
/data/baiqing/PycharmProjects/Reinvent-master-3.2/result/LINK_invent/BTK/process_docking_weight1_custom_sum_contain_oxygen_bond_distance_aromatic_linkinvent_7_9_3/rearranged_h_0189.sdf

> <i_m_source_file_index>
77

> <r_mmod_Potential_Energy-OPLS-2005>
873.646423339844

> <r_mmod_Stretch_Energy-OPLS-2005>
469.356811523438

> <r_mmod_Bend_Energy-OPLS-2005>
418.096466064453

> <r_mmod_Torsional_Energy-OPLS-2005>
206.963500976562

> <r_mmod_Improper_Torsional_Energy-OPLS-2005>
4.85232353210449

> <r_mmod_Van_der_Waal_Energy-OPLS-2005>
129.341293334961

> <r_mmod_Electrostatic_Energy-OPLS-2005>
-508.470947265625

> <r_mmod_Solvation_Energy-OPLS-2005>
-236.605758666992

> <b_mmod_Minimization_Converged-OPLS-2005>
0

> <r_mmod_RMS_Derivative-OPLS-2005>
1.04177498817444

$$$$
78
                    3D
 Structure written by MMmdl.
148157  0  0  1  0            999 V2000
  -30.3805  -15.4336   20.3565 C   0  0  0  0  0  0
  -30.4347  -12.9378   19.5164 C   0  0  0  0  0  0
  -29.5389  -12.6055   18.2940 C   0  0  0  0  0  0
  -28.0993  -12.2928   18.7355 C   0  0  0  0  0  0
  -27.6019  -13.2874   19.8114 C   0  0  2  0  0  0
  -28.6328  -13.5408   20.9323 C   0  0  0  0  0  0
  -25.2360  -13.8256   20.5772 C   0  0  0  0  0  0
  -24.1729  -13.0430   20.9278 C   0  0  0  0  0  0
  -24.6403  -11.6933   20.8768 C   0  0  0  0  0  0
  -23.9101  -10.4290   21.0405 C   0  0  0  0  0  0
  -24.3642   -9.4203   21.9184 C   0  0  0  0  0  0
  -23.6307   -8.2242   22.0755 C   0  0  0  0  0  0
  -22.4288   -8.0283   21.3544 C   0  0  0  0  0  0
  -21.9932   -9.0258   20.4645 C   0  0  0  0  0  0
  -22.7271  -10.2132   20.3054 C   0  0  0  0  0  0
  -21.6856   -6.0739   22.5279 C   0  0  0  0  0  0
  -21.4016   -6.5641   23.8213 C   0  0  0  0  0  0
  -21.3660   -5.6793   24.9174 C   0  0  0  0  0  0
  -21.6044   -4.3056   24.7224 C   0  0  0  0  0  0
  -21.8819   -3.8149   23.4345 C   0  0  0  0  0  0
  -21.9194   -4.6966   22.3402 C   0  0  0  0  0  0
  -22.7744  -13.5175   21.1917 C   0  0  0  0  0  0
  -22.1662   -4.2151   21.0979 F   0  0  0  0  0  0
  -21.5628   -3.4539   25.7736 F   0  0  0  0  0  0
  -29.8307  -14.1040   20.2785 N   0  0  0  0  0  0
  -26.2789  -12.9550   20.3211 N   0  0  0  0  0  0
  -25.9341  -11.6644   20.5708 N   0  0  0  0  0  0
  -22.0404  -12.8153   22.0468 N   0  0  0  0  0  0
  -25.3971  -15.1995   20.4214 N   0  0  0  0  0  0
  -31.6169  -15.3955   20.2408 O   0  0  0  0  0  0
  -21.6645   -6.8884   21.4242 O   0  0  0  0  0  0
  -22.3422  -14.5475   20.6754 O   0  0  0  0  0  0
  -24.6736  -31.8128   23.1619 C   0  0  0  0  0  0
  -25.9369  -32.4533   23.8122 C   0  0  1  0  0  0
  -27.2197  -26.8177   20.2057 C   0  0  0  0  0  0
  -25.5992  -33.8352   24.2019 N   0  0  0  0  0  0
  -23.4937  -30.4204   21.5142 C   0  0  2  0  0  0
  -24.9482  -28.7837   20.1218 C   0  0  0  0  0  0
  -22.7717  -29.4387   22.4756 C   0  0  0  0  0  0
  -18.0331  -28.1415   22.8462 C   0  0  0  0  0  0
  -24.1494  -36.7180   23.2649 C   0  0  0  0  0  0
  -26.0697  -30.5845   21.4082 C   0  0  0  0  0  0
  -26.1374  -29.1609   20.7587 C   0  0  0  0  0  0
  -27.2672  -28.2048   20.7670 C   0  0  0  0  0  0
  -25.9976  -26.6209   19.5201 C   0  0  0  0  0  0
  -24.9100  -27.5360   19.4799 C   0  0  0  0  0  0
  -23.7410  -29.7266   20.1461 C   0  0  0  0  0  0
  -25.4140  -36.2933   24.0291 C   0  0  1  0  0  0
  -20.5961  -28.3768   23.1166 C   0  0  2  0  0  0
  -20.6803  -26.9439   22.5401 C   0  0  0  0  0  0
  -19.5776  -26.6376   21.5215 C   0  0  0  0  0  0
  -18.1960  -26.7945   22.1623 C   0  0  0  0  0  0
  -19.1594  -28.8914   23.2798 C   0  0  0  0  0  0
  -18.9501  -30.1501   23.8838 C   0  0  0  0  0  0
  -17.6492  -30.6601   24.0553 C   0  0  0  0  0  0
  -25.9113  -34.9320   23.4983 C   0  0  0  0  0  0
  -16.5382  -29.9085   23.6347 C   0  0  0  0  0  0
  -16.7311  -28.6506   23.0365 C   0  0  0  0  0  0
  -26.4582  -31.6518   25.0694 C   0  0  0  0  0  0
  -25.3678  -31.3801   26.1329 C   0  0  0  0  0  0
  -27.0495  -30.2870   24.6505 C   0  0  0  0  0  0
  -27.6051  -32.4351   25.7508 C   0  0  0  0  0  0
  -27.5566  -37.1749   24.8467 C   0  0  0  0  0  0
  -21.4376  -29.3040   22.3503 N   0  0  0  0  0  0
  -26.4275  -37.3682   23.9408 N   0  0  0  0  0  0
  -24.7682  -30.9689   22.0812 N   0  0  0  0  0  0
  -23.4213  -28.7969   23.3046 O   0  0  0  0  0  0
  -28.2031  -25.6549   20.2100 O   0  0  0  0  0  0
  -26.5735  -34.8875   22.4588 O   0  0  0  0  0  0
  -23.5781  -32.1146   23.6646 O   0  0  0  0  0  0
  -28.8589  -21.7429   18.8644 C   0  0  0  0  0  0
  -28.6044  -22.3561   20.1630 C   0  0  0  0  0  0
  -28.9221  -21.0582   20.8261 C   0  0  0  0  0  0
  -29.0634  -20.4470   22.1987 C   0  0  0  0  0  0
  -29.4513  -18.8825   22.0926 C   0  0  0  0  0  0
  -29.8516  -18.4331   20.6382 C   0  0  2  0  0  0
  -27.9054  -24.0130   20.5279 C   0  0  0  0  0  0
  -29.2359  -20.4069   18.7873 N   0  0  0  0  0  0
  -29.2419  -19.8663   20.0384 N   0  0  0  0  0  0
  -29.6206  -16.7498   20.3687 N   0  0  0  0  0  0
  -31.4381  -13.1790   19.1633 H   0  0  0  0  0  0
  -30.5550  -12.0654   20.1609 H   0  0  0  0  0  0
  -29.9525  -11.7663   17.7331 H   0  0  0  0  0  0
  -29.5320  -13.4572   17.6121 H   0  0  0  0  0  0
  -28.0913  -11.2816   19.1440 H   0  0  0  0  0  0
  -27.4270  -12.2828   17.8767 H   0  0  0  0  0  0
  -27.4888  -14.2313   19.2765 H   0  0  0  0  0  0
  -28.8509  -12.6320   21.4952 H   0  0  0  0  0  0
  -28.2408  -14.2644   21.6489 H   0  0  0  0  0  0
  -25.2782   -9.5677   22.4767 H   0  0  0  0  0  0
  -24.0010   -7.4633   22.7477 H   0  0  0  0  0  0
  -21.0862   -8.8783   19.8950 H   0  0  0  0  0  0
  -22.3730  -10.9673   19.6166 H   0  0  0  0  0  0
  -21.2010   -7.6150   23.9716 H   0  0  0  0  0  0
  -21.1482   -6.0524   25.9077 H   0  0  0  0  0  0
  -22.0597   -2.7611   23.2845 H   0  0  0  0  0  0
  -22.4041  -11.9826   22.4860 H   0  0  0  0  0  0
  -21.1012  -13.1152   22.2668 H   0  0  0  0  0  0
  -24.6246  -15.8468   20.5354 H   0  0  0  0  0  0
  -26.2348  -15.6425   20.0690 H   0  0  0  0  0  0
  -26.7444  -32.5041   23.0837 H   0  0  0  0  0  0
  -25.0072  -33.9410   25.0126 H   0  0  0  0  0  0
  -22.8129  -31.2548   21.3338 H   0  0  0  0  0  0
  -23.3771  -35.9495   23.3273 H   0  0  0  0  0  0
  -24.3566  -36.8871   22.2071 H   0  0  0  0  0  0
  -23.7238  -37.6348   23.6738 H   0  0  0  0  0  0
  -26.2596  -31.3166   20.6222 H   0  0  0  0  0  0
  -26.9259  -30.6487   22.0676 H   0  0  0  0  0  0
  -28.1704  -28.5014   21.2815 H   0  0  0  0  0  0
  -25.8527  -25.6758   19.0169 H   0  0  0  0  0  0
  -24.0108  -27.2403   18.9569 H   0  0  0  0  0  0
  -23.9089  -30.4901   19.3857 H   0  0  0  0  0  0
  -22.8478  -29.1882   19.8242 H   0  0  0  0  0  0
  -25.1344  -36.1713   25.0781 H   0  0  0  0  0  0
  -21.0046  -28.3382   24.1291 H   0  0  0  0  0  0
  -20.5677  -26.2389   23.3651 H   0  0  0  0  0  0
  -21.6665  -26.7400   22.1212 H   0  0  0  0  0  0
  -19.6933  -25.6272   21.1282 H   0  0  0  0  0  0
  -19.6715  -27.3154   20.6719 H   0  0  0  0  0  0
  -17.4227  -26.6685   21.4029 H   0  0  0  0  0  0
  -18.0355  -26.0103   22.9035 H   0  0  0  0  0  0
  -19.7975  -30.7336   24.2179 H   0  0  0  0  0  0
  -17.5042  -31.6274   24.5167 H   0  0  0  0  0  0
  -15.5380  -30.2966   23.7705 H   0  0  0  0  0  0
  -15.8713  -28.0804   22.7114 H   0  0  0  0  0  0
  -24.5879  -30.7132   25.7634 H   0  0  0  0  0  0
  -24.8849  -32.3012   26.4598 H   0  0  0  0  0  0
  -25.7883  -30.9067   27.0211 H   0  0  0  0  0  0
  -26.3188  -29.6518   24.1488 H   0  0  0  0  0  0
  -27.3958  -29.7273   25.5204 H   0  0  0  0  0  0
  -27.9156  -30.4023   23.9986 H   0  0  0  0  0  0
  -27.2605  -33.3709   26.1921 H   0  0  0  0  0  0
  -28.3950  -32.6821   25.0403 H   0  0  0  0  0  0
  -28.0621  -31.8588   26.5562 H   0  0  0  0  0  0
  -28.2560  -38.0066   24.7514 H   0  0  0  0  0  0
  -28.1086  -36.2590   24.6297 H   0  0  0  0  0  0
  -27.2281  -37.1391   25.8868 H   0  0  0  0  0  0
  -20.9655  -29.8711   21.6600 H   0  0  0  0  0  0
  -26.0112  -38.2734   24.1418 H   0  0  0  0  0  0
  -28.7522  -22.2496   17.9152 H   0  0  0  0  0  0
  -28.1435  -20.5751   22.7693 H   0  0  0  0  0  0
  -29.8437  -20.9784   22.7437 H   0  0  0  0  0  0
  -28.5673  -18.3122   22.3790 H   0  0  0  0  0  0
  -30.2213  -18.6179   22.8176 H   0  0  0  0  0  0
  -30.9321  -18.5503   20.5458 H   0  0  0  0  0  0
  -27.8216  -24.0410   21.6143 H   0  0  0  0  0  0
  -26.8630  -23.9321   20.2220 H   0  0  0  0  0  0
  -28.6339  -16.5555   20.2885 H   0  0  0  0  0  0
  1 25  1  0  0  0
  1 30  2  0  0  0
  1 80  1  0  0  0
  2  3  1  0  0  0
  2 25  1  0  0  0
  2 81  1  0  0  0
  2 82  1  0  0  0
  3  4  1  0  0  0
  3 83  1  0  0  0
  3 84  1  0  0  0
  4  5  1  0  0  0
  4 85  1  0  0  0
  4 86  1  0  0  0
  5  6  1  0  0  0
  5 26  1  0  0  0
  5 87  1  0  0  0
  6 25  1  0  0  0
  6 88  1  0  0  0
  6 89  1  0  0  0
  7  8  2  0  0  0
  7 26  1  0  0  0
  7 29  1  0  0  0
  8  9  1  0  0  0
  8 22  1  0  0  0
  9 10  1  0  0  0
  9 27  2  0  0  0
 10 11  2  0  0  0
 10 15  1  0  0  0
 11 12  1  0  0  0
 11 90  1  0  0  0
 12 13  2  0  0  0
 12 91  1  0  0  0
 13 14  1  0  0  0
 13 31  1  0  0  0
 14 15  2  0  0  0
 14 92  1  0  0  0
 15 93  1  0  0  0
 16 17  2  0  0  0
 16 21  1  0  0  0
 16 31  1  0  0  0
 17 18  1  0  0  0
 17 94  1  0  0  0
 18 19  2  0  0  0
 18 95  1  0  0  0
 19 20  1  0  0  0
 19 24  1  0  0  0
 20 21  2  0  0  0
 20 96  1  0  0  0
 21 23  1  0  0  0
 22 28  1  0  0  0
 22 32  2  0  0  0
 26 27  1  0  0  0
 28 97  1  0  0  0
 28 98  1  0  0  0
 29 99  1  0  0  0
 29100  1  0  0  0
 33 34  1  0  0  0
 33 66  1  0  0  0
 33 70  2  0  0  0
 34 36  1  0  0  0
 34 59  1  0  0  0
 34101  1  0  0  0
 35 44  2  0  0  0
 35 45  1  0  0  0
 35 68  1  0  0  0
 36 56  1  0  0  0
 36102  1  0  0  0
 37 39  1  0  0  0
 37 47  1  0  0  0
 37 66  1  0  0  0
 37103  1  0  0  0
 38 43  2  0  0  0
 38 46  1  0  0  0
 38 47  1  0  0  0
 39 64  1  0  0  0
 39 67  2  0  0  0
 40 52  1  0  0  0
 40 53  2  0  0  0
 40 58  1  0  0  0
 41104  1  0  0  0
 41105  1  0  0  0
 41106  1  0  0  0
 41 48  1  0  0  0
 42 43  1  0  0  0
 42 66  1  0  0  0
 42107  1  0  0  0
 42108  1  0  0  0
 43 44  1  0  0  0
 44109  1  0  0  0
 45 46  2  0  0  0
 45110  1  0  0  0
 46111  1  0  0  0
 47112  1  0  0  0
 47113  1  0  0  0
 48 56  1  0  0  0
 48 65  1  0  0  0
 48114  1  0  0  0
 49 50  1  0  0  0
 49 53  1  0  0  0
 49 64  1  0  0  0
 49115  1  0  0  0
 50 51  1  0  0  0
 50116  1  0  0  0
 50117  1  0  0  0
 51 52  1  0  0  0
 51118  1  0  0  0
 51119  1  0  0  0
 52120  1  0  0  0
 52121  1  0  0  0
 53 54  1  0  0  0
 54 55  2  0  0  0
 54122  1  0  0  0
 55 57  1  0  0  0
 55123  1  0  0  0
 56 69  2  0  0  0
 57 58  2  0  0  0
 57124  1  0  0  0
 58125  1  0  0  0
 59 60  1  0  0  0
 59 61  1  0  0  0
 59 62  1  0  0  0
 60126  1  0  0  0
 60127  1  0  0  0
 60128  1  0  0  0
 61129  1  0  0  0
 61130  1  0  0  0
 61131  1  0  0  0
 62132  1  0  0  0
 62133  1  0  0  0
 62134  1  0  0  0
 63 65  1  0  0  0
 63135  1  0  0  0
 63136  1  0  0  0
 63137  1  0  0  0
 64138  1  0  0  0
 65139  1  0  0  0
 68 77  1  0  0  0
 71 72  1  0  0  0
 71 78  2  0  0  0
 71140  1  0  0  0
 72 73  2  0  0  0
 72 77  1  0  0  0
 73 74  1  0  0  0
 73 79  1  0  0  0
 74 75  1  0  0  0
 74141  1  0  0  0
 74142  1  0  0  0
 75 76  1  0  0  0
 75143  1  0  0  0
 75144  1  0  0  0
 76 79  1  0  0  0
 76 80  1  0  0  0
 76145  1  0  0  0
 77146  1  0  0  0
 77147  1  0  0  0
 78 79  1  0  0  0
 80148  1  0  0  0
M  ISO  4   1 100  68 101  77 101  80 100
M  END
> <chiral flag>
0

> <version>
0

> <s_m_source_file>
/data/baiqing/PycharmProjects/Reinvent-master-3.2/result/LINK_invent/BTK/process_docking_weight1_custom_sum_contain_oxygen_bond_distance_aromatic_linkinvent_7_9_3/rearranged_h_0189.sdf

> <i_m_source_file_index>
78

> <r_mmod_Potential_Energy-OPLS-2005>
1704.94140625

> <r_mmod_Stretch_Energy-OPLS-2005>
707.011047363281

> <r_mmod_Bend_Energy-OPLS-2005>
615.570922851562

> <r_mmod_Torsional_Energy-OPLS-2005>
267.140441894531

> <r_mmod_Improper_Torsional_Energy-OPLS-2005>
8.52398586273193

> <r_mmod_Van_der_Waal_Energy-OPLS-2005>
103.102653503418

> <r_mmod_Electrostatic_Energy-OPLS-2005>
-406.537384033203

> <r_mmod_Solvation_Energy-OPLS-2005>
-235.937683105469

> <b_mmod_Minimization_Converged-OPLS-2005>
0

> <r_mmod_RMS_Derivative-OPLS-2005>
0.107682339847088

$$$$
79
                    3D
 Structure written by MMmdl.
159167  0  0  1  0            999 V2000
  -30.6411  -14.7444   20.4884 C   0  0  0  0  0  0
  -30.4256  -12.4716   19.4590 C   0  0  0  0  0  0
  -29.5031  -12.5134   18.2227 C   0  0  0  0  0  0
  -28.0299  -12.3251   18.6366 C   0  0  0  0  0  0
  -27.6354  -13.2188   19.8416 C   0  0  2  0  0  0
  -28.6856  -13.1376   20.9748 C   0  0  0  0  0  0
  -25.2440  -13.8142   20.5585 C   0  0  0  0  0  0
  -24.1760  -13.0405   20.9188 C   0  0  0  0  0  0
  -24.6359  -11.6890   20.8747 C   0  0  0  0  0  0
  -23.9050  -10.4270   21.0388 C   0  0  0  0  0  0
  -24.3615   -9.4197   21.9162 C   0  0  0  0  0  0
  -23.6299   -8.2234   22.0745 C   0  0  0  0  0  0
  -22.4281   -8.0253   21.3535 C   0  0  0  0  0  0
  -21.9900   -9.0224   20.4639 C   0  0  0  0  0  0
  -22.7219  -10.2111   20.3038 C   0  0  0  0  0  0
  -21.6856   -6.0718   22.5280 C   0  0  0  0  0  0
  -21.4009   -6.5629   23.8215 C   0  0  0  0  0  0
  -21.3654   -5.6786   24.9176 C   0  0  0  0  0  0
  -21.6055   -4.3049   24.7226 C   0  0  0  0  0  0
  -21.8826   -3.8128   23.4349 C   0  0  0  0  0  0
  -21.9185   -4.6947   22.3404 C   0  0  0  0  0  0
  -22.7793  -13.5206   21.1858 C   0  0  0  0  0  0
  -22.1666   -4.2137   21.0982 F   0  0  0  0  0  0
  -21.5632   -3.4529   25.7736 F   0  0  0  0  0  0
  -29.9721  -13.5371   20.3902 N   0  0  0  0  0  0
  -26.2884  -12.9345   20.3220 N   0  0  0  0  0  0
  -25.9290  -11.6498   20.5748 N   0  0  0  0  0  0
  -22.0454  -12.8207   22.0436 N   0  0  0  0  0  0
  -25.3972  -15.1860   20.3842 N   0  0  0  0  0  0
  -31.8328  -14.7737   20.1616 O   0  0  0  0  0  0
  -21.6650   -6.8852   21.4235 O   0  0  0  0  0  0
  -22.3477  -14.5502   20.6679 O   0  0  0  0  0  0
  -24.6275  -31.8566   23.1992 C   0  0  0  0  0  0
  -25.9111  -32.4765   23.8332 C   0  0  1  0  0  0
  -27.2262  -27.2978   20.1298 C   0  0  0  0  0  0
  -25.5921  -33.8566   24.2247 N   0  0  0  0  0  0
  -23.4226  -30.4766   21.5423 C   0  0  2  0  0  0
  -24.8703  -28.9190   20.1184 C   0  0  0  0  0  0
  -22.7473  -29.4602   22.4940 C   0  0  0  0  0  0
  -18.0281  -28.1379   22.8486 C   0  0  0  0  0  0
  -24.1485  -36.7288   23.2635 C   0  0  0  0  0  0
  -25.9647  -30.7789   21.3742 C   0  0  0  0  0  0
  -26.0398  -29.4040   20.7185 C   0  0  0  0  0  0
  -27.2246  -28.6073   20.7068 C   0  0  0  0  0  0
  -26.0353  -26.8583   19.5180 C   0  0  0  0  0  0
  -24.8702  -27.6519   19.5095 C   0  0  0  0  0  0
  -23.6400  -29.8036   20.1613 C   0  0  0  0  0  0
  -25.4109  -36.3073   24.0324 C   0  0  1  0  0  0
  -20.5879  -28.3680   23.1291 C   0  0  2  0  0  0
  -20.6764  -26.9405   22.5414 C   0  0  0  0  0  0
  -19.5748  -26.6378   21.5208 C   0  0  0  0  0  0
  -18.1927  -26.7926   22.1615 C   0  0  0  0  0  0
  -19.1530  -28.8845   23.2881 C   0  0  0  0  0  0
  -18.9458  -30.1450   23.8891 C   0  0  0  0  0  0
  -17.6457  -30.6583   24.0562 C   0  0  0  0  0  0
  -25.9056  -34.9449   23.5090 C   0  0  0  0  0  0
  -16.5351  -29.9080   23.6329 C   0  0  0  0  0  0
  -16.7264  -28.6500   23.0348 C   0  0  0  0  0  0
  -26.4490  -31.6599   25.0724 C   0  0  0  0  0  0
  -25.3720  -31.3764   26.1454 C   0  0  0  0  0  0
  -27.0336  -30.3009   24.6230 C   0  0  0  0  0  0
  -27.6034  -32.4353   25.7504 C   0  0  0  0  0  0
  -27.5591  -37.1775   24.8439 C   0  0  0  0  0  0
  -21.4186  -29.3035   22.3682 N   0  0  0  0  0  0
  -26.4275  -37.3782   23.9433 N   0  0  0  0  0  0
  -24.6902  -31.0555   22.0955 N   0  0  0  0  0  0
  -23.4186  -28.8144   23.3034 O   0  0  0  0  0  0
  -28.3531  -26.4626   20.0995 O   0  0  0  0  0  0
  -26.5631  -34.8921   22.4660 O   0  0  0  0  0  0
  -23.5437  -32.1387   23.7312 O   0  0  0  0  0  0
  -28.3384  -17.7898   20.9115 C   0  0  0  0  0  0
  -28.6999  -16.3201   21.2720 C   0  0  0  0  0  0
  -30.5392  -17.3158   20.2136 C   0  0  0  0  0  0
  -29.6699  -18.5145   20.7875 C   0  0  1  0  0  0
  -29.4376  -25.1242   21.7508 C   0  0  0  0  0  0
  -29.7080  -19.9570   20.0544 C   0  0  0  0  0  0
  -28.7833  -21.2091   20.4970 C   0  0  0  0  0  0
  -28.3538  -23.7848   19.7950 C   0  0  0  0  0  0
  -28.3036  -25.1070   20.7184 C   0  0  2  0  0  0
  -29.9678  -15.9726   20.6074 N   0  0  0  0  0  0
  -29.2900  -22.6141   20.1466 N   0  3  0  0  0  0
  -31.4629  -12.5977   19.1460 H   0  0  0  0  0  0
  -30.3828  -11.4927   19.9394 H   0  0  0  0  0  0
  -29.7946  -11.7424   17.5094 H   0  0  0  0  0  0
  -29.6263  -13.4673   17.7058 H   0  0  0  0  0  0
  -27.8903  -11.2739   18.8939 H   0  0  0  0  0  0
  -27.3737  -12.5209   17.7869 H   0  0  0  0  0  0
  -27.6289  -14.2318   19.4440 H   0  0  0  0  0  0
  -28.7444  -12.1221   21.3670 H   0  0  0  0  0  0
  -28.4190  -13.7510   21.8329 H   0  0  0  0  0  0
  -25.2755   -9.5707   22.4738 H   0  0  0  0  0  0
  -24.0016   -7.4635   22.7466 H   0  0  0  0  0  0
  -21.0826   -8.8728   19.8968 H   0  0  0  0  0  0
  -22.3647  -10.9638   19.6150 H   0  0  0  0  0  0
  -21.1999   -7.6138   23.9716 H   0  0  0  0  0  0
  -21.1480   -6.0511   25.9087 H   0  0  0  0  0  0
  -22.0603   -2.7585   23.2852 H   0  0  0  0  0  0
  -22.4069  -11.9889   22.4864 H   0  0  0  0  0  0
  -21.1059  -13.1203   22.2601 H   0  0  0  0  0  0
  -24.6203  -15.8286   20.4920 H   0  0  0  0  0  0
  -26.2331  -15.6338   20.0349 H   0  0  0  0  0  0
  -26.7177  -32.5415   23.1072 H   0  0  0  0  0  0
  -25.0042  -33.9705   25.0377 H   0  0  0  0  0  0
  -22.7188  -31.2979   21.3937 H   0  0  0  0  0  0
  -23.3773  -35.9591   23.3234 H   0  0  0  0  0  0
  -24.3593  -36.8983   22.2064 H   0  0  0  0  0  0
  -23.7198  -37.6448   23.6710 H   0  0  0  0  0  0
  -26.1026  -31.5426   20.6078 H   0  0  0  0  0  0
  -26.8416  -30.8243   22.0091 H   0  0  0  0  0  0
  -28.1291  -28.9815   21.1651 H   0  0  0  0  0  0
  -26.0046  -25.8870   19.0431 H   0  0  0  0  0  0
  -23.9738  -27.2752   19.0366 H   0  0  0  0  0  0
  -23.7652  -30.5760   19.4025 H   0  0  0  0  0  0
  -22.7589  -29.2352   19.8578 H   0  0  0  0  0  0
  -25.1290  -36.1899   25.0814 H   0  0  0  0  0  0
  -20.9968  -28.3248   24.1412 H   0  0  0  0  0  0
  -20.5651  -26.2291   23.3611 H   0  0  0  0  0  0
  -21.6635  -26.7429   22.1212 H   0  0  0  0  0  0
  -19.6911  -25.6290   21.1233 H   0  0  0  0  0  0
  -19.6697  -27.3185   20.6741 H   0  0  0  0  0  0
  -17.4205  -26.6681   21.4012 H   0  0  0  0  0  0
  -18.0324  -26.0063   22.9001 H   0  0  0  0  0  0
  -19.7937  -30.7262   24.2261 H   0  0  0  0  0  0
  -17.5017  -31.6268   24.5156 H   0  0  0  0  0  0
  -15.5351  -30.2975   23.7667 H   0  0  0  0  0  0
  -15.8665  -28.0814   22.7066 H   0  0  0  0  0  0
  -24.5840  -30.7184   25.7777 H   0  0  0  0  0  0
  -24.8985  -32.2951   26.4930 H   0  0  0  0  0  0
  -25.8025  -30.8875   27.0203 H   0  0  0  0  0  0
  -26.2927  -29.6754   24.1236 H   0  0  0  0  0  0
  -27.3978  -29.7285   25.4775 H   0  0  0  0  0  0
  -27.8825  -30.4273   23.9505 H   0  0  0  0  0  0
  -27.2609  -33.3629   26.2111 H   0  0  0  0  0  0
  -28.3830  -32.6964   25.0333 H   0  0  0  0  0  0
  -28.0727  -31.8474   26.5405 H   0  0  0  0  0  0
  -28.2527  -38.0154   24.7606 H   0  0  0  0  0  0
  -28.1170  -36.2692   24.6103 H   0  0  0  0  0  0
  -27.2339  -37.1219   25.8844 H   0  0  0  0  0  0
  -20.9360  -29.8764   21.6897 H   0  0  0  0  0  0
  -26.0144  -38.2840   24.1509 H   0  0  0  0  0  0
  -27.6837  -18.2490   21.6535 H   0  0  0  0  0  0
  -27.8159  -17.8176   19.9546 H   0  0  0  0  0  0
  -27.8765  -15.6826   20.9892 H   0  0  0  0  0  0
  -28.8354  -16.2189   22.3498 H   0  0  0  0  0  0
  -31.5782  -17.4104   20.5355 H   0  0  0  0  0  0
  -30.5473  -17.3620   19.1237 H   0  0  0  0  0  0
  -30.0135  -18.6875   21.8092 H   0  0  0  0  0  0
  -29.4211  -24.2365   22.3824 H   0  0  0  0  0  0
  -29.3371  -25.9866   22.4106 H   0  0  0  0  0  0
  -30.4128  -25.1900   21.2688 H   0  0  0  0  0  0
  -29.5409  -19.7913   18.9891 H   0  0  0  0  0  0
  -30.7442  -20.2889   20.1217 H   0  0  0  0  0  0
  -28.6306  -21.1792   21.5766 H   0  0  0  0  0  0
  -27.7947  -21.0725   20.0559 H   0  0  0  0  0  0
  -28.6747  -24.1165   18.8070 H   0  0  0  0  0  0
  -27.3406  -23.4110   19.6447 H   0  0  0  0  0  0
  -27.3789  -25.0452   21.2957 H   0  0  0  0  0  0
  -29.8509  -22.4907   19.3179 H   0  0  0  0  0  0
  -29.9341  -22.9081   20.8644 H   0  0  0  0  0  0
  1 25  1  0  0  0
  1 30  2  0  0  0
  1 80  1  0  0  0
  2  3  1  0  0  0
  2 25  1  0  0  0
  2 82  1  0  0  0
  2 83  1  0  0  0
  3  4  1  0  0  0
  3 84  1  0  0  0
  3 85  1  0  0  0
  4  5  1  0  0  0
  4 86  1  0  0  0
  4 87  1  0  0  0
  5  6  1  0  0  0
  5 26  1  0  0  0
  5 88  1  0  0  0
  6 25  1  0  0  0
  6 89  1  0  0  0
  6 90  1  0  0  0
  7  8  2  0  0  0
  7 26  1  0  0  0
  7 29  1  0  0  0
  8  9  1  0  0  0
  8 22  1  0  0  0
  9 10  1  0  0  0
  9 27  2  0  0  0
 10 11  2  0  0  0
 10 15  1  0  0  0
 11 12  1  0  0  0
 11 91  1  0  0  0
 12 13  2  0  0  0
 12 92  1  0  0  0
 13 14  1  0  0  0
 13 31  1  0  0  0
 14 15  2  0  0  0
 14 93  1  0  0  0
 15 94  1  0  0  0
 16 17  2  0  0  0
 16 21  1  0  0  0
 16 31  1  0  0  0
 17 18  1  0  0  0
 17 95  1  0  0  0
 18 19  2  0  0  0
 18 96  1  0  0  0
 19 20  1  0  0  0
 19 24  1  0  0  0
 20 21  2  0  0  0
 20 97  1  0  0  0
 21 23  1  0  0  0
 22 28  1  0  0  0
 22 32  2  0  0  0
 26 27  1  0  0  0
 28 98  1  0  0  0
 28 99  1  0  0  0
 29100  1  0  0  0
 29101  1  0  0  0
 33 34  1  0  0  0
 33 66  1  0  0  0
 33 70  2  0  0  0
 34 36  1  0  0  0
 34 59  1  0  0  0
 34102  1  0  0  0
 35 44  2  0  0  0
 35 45  1  0  0  0
 35 68  1  0  0  0
 36 56  1  0  0  0
 36103  1  0  0  0
 37 39  1  0  0  0
 37 47  1  0  0  0
 37 66  1  0  0  0
 37104  1  0  0  0
 38 43  2  0  0  0
 38 46  1  0  0  0
 38 47  1  0  0  0
 39 64  1  0  0  0
 39 67  2  0  0  0
 40 52  1  0  0  0
 40 53  2  0  0  0
 40 58  1  0  0  0
 41105  1  0  0  0
 41106  1  0  0  0
 41107  1  0  0  0
 41 48  1  0  0  0
 42 43  1  0  0  0
 42 66  1  0  0  0
 42108  1  0  0  0
 42109  1  0  0  0
 43 44  1  0  0  0
 44110  1  0  0  0
 45 46  2  0  0  0
 45111  1  0  0  0
 46112  1  0  0  0
 47113  1  0  0  0
 47114  1  0  0  0
 48 56  1  0  0  0
 48 65  1  0  0  0
 48115  1  0  0  0
 49 50  1  0  0  0
 49 53  1  0  0  0
 49 64  1  0  0  0
 49116  1  0  0  0
 50 51  1  0  0  0
 50117  1  0  0  0
 50118  1  0  0  0
 51 52  1  0  0  0
 51119  1  0  0  0
 51120  1  0  0  0
 52121  1  0  0  0
 52122  1  0  0  0
 53 54  1  0  0  0
 54 55  2  0  0  0
 54123  1  0  0  0
 55 57  1  0  0  0
 55124  1  0  0  0
 56 69  2  0  0  0
 57 58  2  0  0  0
 57125  1  0  0  0
 58126  1  0  0  0
 59 60  1  0  0  0
 59 61  1  0  0  0
 59 62  1  0  0  0
 60127  1  0  0  0
 60128  1  0  0  0
 60129  1  0  0  0
 61130  1  0  0  0
 61131  1  0  0  0
 61132  1  0  0  0
 62133  1  0  0  0
 62134  1  0  0  0
 62135  1  0  0  0
 63 65  1  0  0  0
 63136  1  0  0  0
 63137  1  0  0  0
 63138  1  0  0  0
 64139  1  0  0  0
 65140  1  0  0  0
 68 79  1  0  0  0
 71 72  1  0  0  0
 71 74  1  0  0  0
 71141  1  0  0  0
 71142  1  0  0  0
 72 80  1  0  0  0
 72143  1  0  0  0
 72144  1  0  0  0
 73 74  1  0  0  0
 73 80  1  0  0  0
 73145  1  0  0  0
 73146  1  0  0  0
 74 76  1  0  0  0
 74147  1  0  0  0
 75148  1  0  0  0
 75149  1  0  0  0
 75150  1  0  0  0
 75 79  1  0  0  0
 76 77  1  0  0  0
 76151  1  0  0  0
 76152  1  0  0  0
 77 81  1  0  0  0
 77153  1  0  0  0
 77154  1  0  0  0
 78 79  1  0  0  0
 78 81  1  0  0  0
 78155  1  0  0  0
 78156  1  0  0  0
 79157  1  0  0  0
 81158  1  0  0  0
 81159  1  0  0  0
M  CHG  1  81   1
M  ISO  4   1 100  68 101  79 101  80 100
M  END
> <chiral flag>
0

> <version>
0

> <s_m_source_file>
/data/baiqing/PycharmProjects/Reinvent-master-3.2/result/LINK_invent/BTK/process_docking_weight1_custom_sum_contain_oxygen_bond_distance_aromatic_linkinvent_7_9_3/rearranged_h_0189.sdf

> <i_m_source_file_index>
79

> <r_mmod_Potential_Energy-OPLS-2005>
255.517776489258

> <r_mmod_Stretch_Energy-OPLS-2005>
110.288887023926

> <r_mmod_Bend_Energy-OPLS-2005>
213.194717407227

> <r_mmod_Torsional_Energy-OPLS-2005>
359.435424804688

> <r_mmod_Improper_Torsional_Energy-OPLS-2005>
8.90265941619873

> <r_mmod_Van_der_Waal_Energy-OPLS-2005>
115.837715148926

> <r_mmod_Electrostatic_Energy-OPLS-2005>
-182.693420410156

> <r_mmod_Solvation_Energy-OPLS-2005>
-440.063842773438

> <b_mmod_Minimization_Converged-OPLS-2005>
0

> <r_mmod_RMS_Derivative-OPLS-2005>
2.04767346382141

$$$$
80
                    3D
 Structure written by MMmdl.
160169  0  0  1  0            999 V2000
  -30.6465  -14.5620   20.5123 C   0  0  0  0  0  0
  -30.4316  -12.3432   19.4531 C   0  0  0  0  0  0
  -29.5074  -12.5048   18.2259 C   0  0  0  0  0  0
  -28.0287  -12.3472   18.6314 C   0  0  0  0  0  0
  -27.6571  -13.2066   19.8695 C   0  0  2  0  0  0
  -28.6968  -13.0286   20.9997 C   0  0  0  0  0  0
  -25.2579  -13.8153   20.5671 C   0  0  0  0  0  0
  -24.1828  -13.0434   20.9186 C   0  0  0  0  0  0
  -24.6374  -11.6899   20.8743 C   0  0  0  0  0  0
  -23.9049  -10.4284   21.0411 C   0  0  0  0  0  0
  -24.3608   -9.4205   21.9186 C   0  0  0  0  0  0
  -23.6280   -8.2245   22.0755 C   0  0  0  0  0  0
  -22.4263   -8.0284   21.3547 C   0  0  0  0  0  0
  -21.9906   -9.0256   20.4645 C   0  0  0  0  0  0
  -22.7232  -10.2129   20.3052 C   0  0  0  0  0  0
  -21.6846   -6.0743   22.5279 C   0  0  0  0  0  0
  -21.4013   -6.5640   23.8219 C   0  0  0  0  0  0
  -21.3665   -5.6793   24.9179 C   0  0  0  0  0  0
  -21.6043   -4.3054   24.7225 C   0  0  0  0  0  0
  -21.8821   -3.8150   23.4346 C   0  0  0  0  0  0
  -21.9191   -4.6973   22.3403 C   0  0  0  0  0  0
  -22.7853  -13.5246   21.1851 C   0  0  0  0  0  0
  -22.1654   -4.2157   21.0983 F   0  0  0  0  0  0
  -21.5635   -3.4532   25.7738 F   0  0  0  0  0  0
  -30.0249  -13.3486   20.4512 N   0  0  0  0  0  0
  -26.2990  -12.9310   20.3319 N   0  0  0  0  0  0
  -25.9293  -11.6472   20.5740 N   0  0  0  0  0  0
  -22.0488  -12.8225   22.0396 N   0  0  0  0  0  0
  -25.4339  -15.1867   20.4071 N   0  0  0  0  0  0
  -31.7956  -14.7278   20.0943 O   0  0  0  0  0  0
  -21.6631   -6.8879   21.4238 O   0  0  0  0  0  0
  -22.3545  -14.5561   20.6709 O   0  0  0  0  0  0
  -24.6196  -31.8638   23.2092 C   0  0  0  0  0  0
  -25.9065  -32.4812   23.8410 C   0  0  1  0  0  0
  -27.2270  -27.3821   20.1157 C   0  0  0  0  0  0
  -25.5888  -33.8602   24.2314 N   0  0  0  0  0  0
  -23.4116  -30.4876   21.5486 C   0  0  2  0  0  0
  -24.8608  -28.9525   20.1124 C   0  0  0  0  0  0
  -22.7444  -29.4622   22.4953 C   0  0  0  0  0  0
  -18.0269  -28.1404   22.8489 C   0  0  0  0  0  0
  -24.1455  -36.7277   23.2655 C   0  0  0  0  0  0
  -25.9468  -30.8151   21.3734 C   0  0  0  0  0  0
  -26.0248  -29.4475   20.7159 C   0  0  0  0  0  0
  -27.2152  -28.6719   20.7087 C   0  0  0  0  0  0
  -26.0481  -26.9192   19.4940 C   0  0  0  0  0  0
  -24.8707  -27.6905   19.4944 C   0  0  0  0  0  0
  -23.6256  -29.8266   20.1614 C   0  0  0  0  0  0
  -25.4089  -36.3085   24.0335 C   0  0  1  0  0  0
  -20.5867  -28.3671   23.1285 C   0  0  2  0  0  0
  -20.6736  -26.9390   22.5416 C   0  0  0  0  0  0
  -19.5714  -26.6378   21.5217 C   0  0  0  0  0  0
  -18.1896  -26.7940   22.1622 C   0  0  0  0  0  0
  -19.1531  -28.8854   23.2881 C   0  0  0  0  0  0
  -18.9470  -30.1465   23.8887 C   0  0  0  0  0  0
  -17.6472  -30.6603   24.0567 C   0  0  0  0  0  0
  -25.9033  -34.9460   23.5133 C   0  0  0  0  0  0
  -16.5352  -29.9115   23.6337 C   0  0  0  0  0  0
  -16.7259  -28.6539   23.0351 C   0  0  0  0  0  0
  -26.4472  -31.6641   25.0779 C   0  0  0  0  0  0
  -25.3718  -31.3750   26.1523 C   0  0  0  0  0  0
  -27.0376  -30.3099   24.6233 C   0  0  0  0  0  0
  -27.6029  -32.4414   25.7521 C   0  0  0  0  0  0
  -27.5549  -37.1787   24.8468 C   0  0  0  0  0  0
  -21.4166  -29.3031   22.3691 N   0  0  0  0  0  0
  -26.4256  -37.3781   23.9424 N   0  0  0  0  0  0
  -24.6777  -31.0704   22.1016 N   0  0  0  0  0  0
  -23.4191  -28.8141   23.3000 O   0  0  0  0  0  0
  -28.3554  -26.5743   20.1212 O   0  0  0  0  0  0
  -26.5594  -34.8913   22.4696 O   0  0  0  0  0  0
  -23.5367  -32.1403   23.7454 O   0  0  0  0  0  0
  -30.4654  -21.6038   22.6059 C   0  0  0  0  0  0
  -30.3624  -23.7164   22.3126 C   0  0  0  0  0  0
  -29.8049  -21.7985   21.4086 C   0  0  0  0  0  0
  -30.9119  -17.4634   19.3064 C   0  0  0  0  0  0
  -30.5910  -18.9620   19.1434 C   0  0  0  0  0  0
  -29.6866  -18.2227   21.2336 C   0  0  0  0  0  0
  -29.8088  -17.0037   20.2628 C   0  0  1  0  0  0
  -29.3050  -20.6922   20.4794 C   0  0  0  0  0  0
  -29.0809  -24.0862   20.2271 C   0  0  0  0  0  0
  -28.2032  -25.2800   20.7779 C   0  0  0  0  0  0
  -30.8359  -22.8189   23.1645 N   0  0  0  0  0  0
  -29.6837  -23.2152   21.2668 N   0  0  0  0  0  0
  -29.8423  -15.6130   20.8267 N   0  0  0  0  0  0
  -30.1535  -19.4389   20.4789 N   0  3  2  0  0  0
  -31.4767  -12.4518   19.1572 H   0  0  0  0  0  0
  -30.3477  -11.3398   19.8736 H   0  0  0  0  0  0
  -29.7674  -11.7723   17.4602 H   0  0  0  0  0  0
  -29.6581  -13.4881   17.7770 H   0  0  0  0  0  0
  -27.8576  -11.2914   18.8468 H   0  0  0  0  0  0
  -27.3781  -12.5944   17.7916 H   0  0  0  0  0  0
  -27.6870  -14.2470   19.5449 H   0  0  0  0  0  0
  -28.6862  -11.9996   21.3624 H   0  0  0  0  0  0
  -28.4512  -13.6489   21.8628 H   0  0  0  0  0  0
  -25.2758   -9.5679   22.4751 H   0  0  0  0  0  0
  -24.0004   -7.4634   22.7457 H   0  0  0  0  0  0
  -21.0856   -8.8760   19.8929 H   0  0  0  0  0  0
  -22.3704  -10.9664   19.6148 H   0  0  0  0  0  0
  -21.1996   -7.6145   23.9722 H   0  0  0  0  0  0
  -21.1485   -6.0520   25.9084 H   0  0  0  0  0  0
  -22.0596   -2.7609   23.2839 H   0  0  0  0  0  0
  -22.4080  -11.9861   22.4753 H   0  0  0  0  0  0
  -21.1104  -13.1238   22.2588 H   0  0  0  0  0  0
  -24.6731  -15.8485   20.5214 H   0  0  0  0  0  0
  -26.2782  -15.6144   20.0483 H   0  0  0  0  0  0
  -26.7138  -32.5512   23.1177 H   0  0  0  0  0  0
  -25.0017  -33.9749   25.0441 H   0  0  0  0  0  0
  -22.7047  -31.3081   21.4083 H   0  0  0  0  0  0
  -23.3724  -35.9603   23.3350 H   0  0  0  0  0  0
  -24.3535  -36.8875   22.2061 H   0  0  0  0  0  0
  -23.7187  -37.6479   23.6662 H   0  0  0  0  0  0
  -26.0741  -31.5865   20.6115 H   0  0  0  0  0  0
  -26.8253  -30.8581   22.0054 H   0  0  0  0  0  0
  -28.1141  -29.0411   21.1829 H   0  0  0  0  0  0
  -26.0375  -25.9508   19.0141 H   0  0  0  0  0  0
  -23.9777  -27.3080   19.0182 H   0  0  0  0  0  0
  -23.7424  -30.6063   19.4073 H   0  0  0  0  0  0
  -22.7468  -29.2549   19.8575 H   0  0  0  0  0  0
  -25.1261  -36.1952   25.0820 H   0  0  0  0  0  0
  -20.9953  -28.3254   24.1406 H   0  0  0  0  0  0
  -20.5629  -26.2274   23.3615 H   0  0  0  0  0  0
  -21.6601  -26.7405   22.1209 H   0  0  0  0  0  0
  -19.6852  -25.6289   21.1259 H   0  0  0  0  0  0
  -19.6668  -27.3171   20.6739 H   0  0  0  0  0  0
  -17.4146  -26.6696   21.4036 H   0  0  0  0  0  0
  -18.0287  -26.0096   22.9031 H   0  0  0  0  0  0
  -19.7961  -30.7277   24.2241 H   0  0  0  0  0  0
  -17.5050  -31.6291   24.5167 H   0  0  0  0  0  0
  -15.5365  -30.3024   23.7694 H   0  0  0  0  0  0
  -15.8651  -28.0885   22.7053 H   0  0  0  0  0  0
  -24.5866  -30.7135   25.7847 H   0  0  0  0  0  0
  -24.8930  -32.2902   26.5021 H   0  0  0  0  0  0
  -25.8038  -30.8872   27.0277 H   0  0  0  0  0  0
  -26.2957  -29.6798   24.1319 H   0  0  0  0  0  0
  -27.4169  -29.7419   25.4744 H   0  0  0  0  0  0
  -27.8769  -30.4435   23.9402 H   0  0  0  0  0  0
  -27.2639  -33.3719   26.2092 H   0  0  0  0  0  0
  -28.3809  -32.6999   25.0325 H   0  0  0  0  0  0
  -28.0745  -31.8585   26.5449 H   0  0  0  0  0  0
  -28.2578  -38.0076   24.7518 H   0  0  0  0  0  0
  -28.1020  -36.2602   24.6282 H   0  0  0  0  0  0
  -27.2271  -37.1436   25.8874 H   0  0  0  0  0  0
  -20.9336  -29.8798   21.6951 H   0  0  0  0  0  0
  -26.0147  -38.2847   24.1494 H   0  0  0  0  0  0
  -30.7352  -20.6780   23.0948 H   0  0  0  0  0  0
  -30.5084  -24.7786   22.4574 H   0  0  0  0  0  0
  -31.8964  -17.3403   19.7580 H   0  0  0  0  0  0
  -30.9053  -16.9289   18.3561 H   0  0  0  0  0  0
  -29.7767  -19.0760   18.4251 H   0  0  0  0  0  0
  -31.4385  -19.5355   18.7655 H   0  0  0  0  0  0
  -30.3342  -18.0889   22.1000 H   0  0  0  0  0  0
  -28.6688  -18.3332   21.6094 H   0  0  0  0  0  0
  -28.8929  -17.0039   19.6685 H   0  0  0  0  0  0
  -29.2706  -21.0948   19.4666 H   0  0  0  0  0  0
  -28.2720  -20.4435   20.7247 H   0  0  0  0  0  0
  -28.4955  -23.4745   19.5410 H   0  0  0  0  0  0
  -29.9052  -24.4965   19.6419 H   0  0  0  0  0  0
  -28.4348  -25.4683   21.8254 H   0  0  0  0  0  0
  -27.1639  -24.9511   20.8030 H   0  0  0  0  0  0
  -28.9703  -15.3218   21.2461 H   0  0  0  0  0  0
  -31.0128  -19.7112   20.9304 H   0  0  0  0  0  0
  1 25  1  0  0  0
  1 30  2  0  0  0
  1 83  1  0  0  0
  2  3  1  0  0  0
  2 25  1  0  0  0
  2 85  1  0  0  0
  2 86  1  0  0  0
  3  4  1  0  0  0
  3 87  1  0  0  0
  3 88  1  0  0  0
  4  5  1  0  0  0
  4 89  1  0  0  0
  4 90  1  0  0  0
  5  6  1  0  0  0
  5 26  1  0  0  0
  5 91  1  0  0  0
  6 25  1  0  0  0
  6 92  1  0  0  0
  6 93  1  0  0  0
  7  8  2  0  0  0
  7 26  1  0  0  0
  7 29  1  0  0  0
  8  9  1  0  0  0
  8 22  1  0  0  0
  9 10  1  0  0  0
  9 27  2  0  0  0
 10 11  2  0  0  0
 10 15  1  0  0  0
 11 12  1  0  0  0
 11 94  1  0  0  0
 12 13  2  0  0  0
 12 95  1  0  0  0
 13 14  1  0  0  0
 13 31  1  0  0  0
 14 15  2  0  0  0
 14 96  1  0  0  0
 15 97  1  0  0  0
 16 17  2  0  0  0
 16 21  1  0  0  0
 16 31  1  0  0  0
 17 18  1  0  0  0
 17 98  1  0  0  0
 18 19  2  0  0  0
 18 99  1  0  0  0
 19 20  1  0  0  0
 19 24  1  0  0  0
 20 21  2  0  0  0
 20100  1  0  0  0
 21 23  1  0  0  0
 22 28  1  0  0  0
 22 32  2  0  0  0
 26 27  1  0  0  0
 28101  1  0  0  0
 28102  1  0  0  0
 29103  1  0  0  0
 29104  1  0  0  0
 33 34  1  0  0  0
 33 66  1  0  0  0
 33 70  2  0  0  0
 34 36  1  0  0  0
 34 59  1  0  0  0
 34105  1  0  0  0
 35 44  2  0  0  0
 35 45  1  0  0  0
 35 68  1  0  0  0
 36 56  1  0  0  0
 36106  1  0  0  0
 37 39  1  0  0  0
 37 47  1  0  0  0
 37 66  1  0  0  0
 37107  1  0  0  0
 38 43  2  0  0  0
 38 46  1  0  0  0
 38 47  1  0  0  0
 39 64  1  0  0  0
 39 67  2  0  0  0
 40 52  1  0  0  0
 40 53  2  0  0  0
 40 58  1  0  0  0
 41108  1  0  0  0
 41109  1  0  0  0
 41110  1  0  0  0
 41 48  1  0  0  0
 42 43  1  0  0  0
 42 66  1  0  0  0
 42111  1  0  0  0
 42112  1  0  0  0
 43 44  1  0  0  0
 44113  1  0  0  0
 45 46  2  0  0  0
 45114  1  0  0  0
 46115  1  0  0  0
 47116  1  0  0  0
 47117  1  0  0  0
 48 56  1  0  0  0
 48 65  1  0  0  0
 48118  1  0  0  0
 49 50  1  0  0  0
 49 53  1  0  0  0
 49 64  1  0  0  0
 49119  1  0  0  0
 50 51  1  0  0  0
 50120  1  0  0  0
 50121  1  0  0  0
 51 52  1  0  0  0
 51122  1  0  0  0
 51123  1  0  0  0
 52124  1  0  0  0
 52125  1  0  0  0
 53 54  1  0  0  0
 54 55  2  0  0  0
 54126  1  0  0  0
 55 57  1  0  0  0
 55127  1  0  0  0
 56 69  2  0  0  0
 57 58  2  0  0  0
 57128  1  0  0  0
 58129  1  0  0  0
 59 60  1  0  0  0
 59 61  1  0  0  0
 59 62  1  0  0  0
 60130  1  0  0  0
 60131  1  0  0  0
 60132  1  0  0  0
 61133  1  0  0  0
 61134  1  0  0  0
 61135  1  0  0  0
 62136  1  0  0  0
 62137  1  0  0  0
 62138  1  0  0  0
 63 65  1  0  0  0
 63139  1  0  0  0
 63140  1  0  0  0
 63141  1  0  0  0
 64142  1  0  0  0
 65143  1  0  0  0
 68 80  1  0  0  0
 71 73  2  0  0  0
 71 81  1  0  0  0
 71144  1  0  0  0
 72 81  2  0  0  0
 72 82  1  0  0  0
 72145  1  0  0  0
 73 78  1  0  0  0
 73 82  1  0  0  0
 74 75  1  0  0  0
 74 77  1  0  0  0
 74146  1  0  0  0
 74147  1  0  0  0
 75 84  1  0  0  0
 75148  1  0  0  0
 75149  1  0  0  0
 76 77  1  0  0  0
 76 84  1  0  0  0
 76150  1  0  0  0
 76151  1  0  0  0
 77 83  1  0  0  0
 77152  1  0  0  0
 78153  1  0  0  0
 78154  1  0  0  0
 78 84  1  0  0  0
 79 80  1  0  0  0
 79 82  1  0  0  0
 79155  1  0  0  0
 79156  1  0  0  0
 80157  1  0  0  0
 80158  1  0  0  0
 83159  1  0  0  0
 84160  1  0  0  0
M  CHG  1  84   1
M  ISO  4   1 100  68 101  80 101  83 100
M  END
> <chiral flag>
0

> <version>
0

> <s_m_source_file>
/data/baiqing/PycharmProjects/Reinvent-master-3.2/result/LINK_invent/BTK/process_docking_weight1_custom_sum_contain_oxygen_bond_distance_aromatic_linkinvent_7_9_3/rearranged_h_0189.sdf

> <i_m_source_file_index>
80

> <r_mmod_Potential_Energy-OPLS-2005>
-61.9928550720215

> <r_mmod_Stretch_Energy-OPLS-2005>
58.6797981262207

> <r_mmod_Bend_Energy-OPLS-2005>
168.267593383789

> <r_mmod_Torsional_Energy-OPLS-2005>
309.312622070312

> <r_mmod_Improper_Torsional_Energy-OPLS-2005>
7.46976184844971

> <r_mmod_Van_der_Waal_Energy-OPLS-2005>
122.039039611816

> <r_mmod_Electrostatic_Energy-OPLS-2005>
-266.831268310547

> <r_mmod_Solvation_Energy-OPLS-2005>
-487.792663574219

> <b_mmod_Minimization_Converged-OPLS-2005>
0

> <r_mmod_RMS_Derivative-OPLS-2005>
2.18109726905823

$$$$
81
                    3D
 Structure written by MMmdl.
150159  0  0  1  0            999 V2000
  -30.6708  -14.7867   20.4489 C   0  0  0  0  0  0
  -30.4126  -12.4953   19.4751 C   0  0  0  0  0  0
  -29.4979  -12.4971   18.2347 C   0  0  0  0  0  0
  -28.0306  -12.3129   18.6602 C   0  0  0  0  0  0
  -27.6274  -13.2437   19.8354 C   0  0  2  0  0  0
  -28.6764  -13.2577   20.9681 C   0  0  0  0  0  0
  -25.2443  -13.8216   20.5716 C   0  0  0  0  0  0
  -24.1765  -13.0437   20.9240 C   0  0  0  0  0  0
  -24.6386  -11.6925   20.8776 C   0  0  0  0  0  0
  -23.9075  -10.4295   21.0421 C   0  0  0  0  0  0
  -24.3626   -9.4205   21.9192 C   0  0  0  0  0  0
  -23.6299   -8.2240   22.0756 C   0  0  0  0  0  0
  -22.4279   -8.0282   21.3545 C   0  0  0  0  0  0
  -21.9920   -9.0259   20.4649 C   0  0  0  0  0  0
  -22.7252  -10.2138   20.3063 C   0  0  0  0  0  0
  -21.6853   -6.0743   22.5280 C   0  0  0  0  0  0
  -21.4012   -6.5643   23.8217 C   0  0  0  0  0  0
  -21.3658   -5.6793   24.9177 C   0  0  0  0  0  0
  -21.6042   -4.3056   24.7224 C   0  0  0  0  0  0
  -21.8816   -3.8150   23.4345 C   0  0  0  0  0  0
  -21.9192   -4.6970   22.3403 C   0  0  0  0  0  0
  -22.7786  -13.5205   21.1885 C   0  0  0  0  0  0
  -22.1661   -4.2152   21.0979 F   0  0  0  0  0  0
  -21.5628   -3.4540   25.7739 F   0  0  0  0  0  0
  -29.9605  -13.6051   20.3532 N   0  0  0  0  0  0
  -26.2876  -12.9453   20.3271 N   0  0  0  0  0  0
  -25.9318  -11.6585   20.5784 N   0  0  0  0  0  0
  -22.0437  -12.8200   22.0448 N   0  0  0  0  0  0
  -25.4066  -15.1934   20.4101 N   0  0  0  0  0  0
  -31.8797  -14.7548   20.2097 O   0  0  0  0  0  0
  -21.6636   -6.8883   21.4242 O   0  0  0  0  0  0
  -22.3472  -14.5510   20.6728 O   0  0  0  0  0  0
  -24.6357  -31.8513   23.1963 C   0  0  0  0  0  0
  -25.9165  -32.4734   23.8317 C   0  0  1  0  0  0
  -27.2153  -27.2203   20.1195 C   0  0  0  0  0  0
  -25.5946  -33.8539   24.2235 N   0  0  0  0  0  0
  -23.4340  -30.4761   21.5399 C   0  0  2  0  0  0
  -24.8798  -28.9218   20.1059 C   0  0  0  0  0  0
  -22.7529  -29.4586   22.4883 C   0  0  0  0  0  0
  -18.0296  -28.1387   22.8480 C   0  0  0  0  0  0
  -24.1488  -36.7267   23.2640 C   0  0  0  0  0  0
  -25.9849  -30.7508   21.3837 C   0  0  0  0  0  0
  -26.0541  -29.3720   20.7201 C   0  0  0  0  0  0
  -27.2201  -28.5328   20.7191 C   0  0  0  0  0  0
  -26.0049  -26.8453   19.4898 C   0  0  0  0  0  0
  -24.8633  -27.6682   19.4811 C   0  0  0  0  0  0
  -23.6538  -29.8137   20.1552 C   0  0  0  0  0  0
  -25.4117  -36.3052   24.0320 C   0  0  1  0  0  0
  -20.5904  -28.3702   23.1251 C   0  0  2  0  0  0
  -20.6781  -26.9414   22.5401 C   0  0  0  0  0  0
  -19.5753  -26.6380   21.5211 C   0  0  0  0  0  0
  -18.1933  -26.7929   22.1623 C   0  0  0  0  0  0
  -19.1552  -28.8861   23.2858 C   0  0  0  0  0  0
  -18.9474  -30.1462   23.8876 C   0  0  0  0  0  0
  -17.6472  -30.6587   24.0561 C   0  0  0  0  0  0
  -25.9062  -34.9427   23.5078 C   0  0  0  0  0  0
  -16.5361  -29.9084   23.6337 C   0  0  0  0  0  0
  -16.7283  -28.6503   23.0356 C   0  0  0  0  0  0
  -26.4518  -31.6579   25.0726 C   0  0  0  0  0  0
  -25.3724  -31.3744   26.1436 C   0  0  0  0  0  0
  -27.0384  -30.2987   24.6261 C   0  0  0  0  0  0
  -27.6055  -32.4344   25.7503 C   0  0  0  0  0  0
  -27.5577  -37.1783   24.8461 C   0  0  0  0  0  0
  -21.4228  -29.3047   22.3634 N   0  0  0  0  0  0
  -26.4282  -37.3759   23.9416 N   0  0  0  0  0  0
  -24.7039  -31.0451   22.0954 N   0  0  0  0  0  0
  -23.4210  -28.8119   23.2992 O   0  0  0  0  0  0
  -28.2978  -26.2992   20.2209 O   0  0  0  0  0  0
  -26.5641  -34.8908   22.4653 O   0  0  0  0  0  0
  -23.5496  -32.1360   23.7234 O   0  0  0  0  0  0
  -29.1965  -21.2697   19.3347 C   0  0  0  0  0  0
  -28.6276  -21.7815   21.5307 C   0  0  0  0  0  0
  -29.0033  -20.7324   20.6328 C   0  0  0  0  0  0
  -28.6595  -23.5109   19.9444 C   0  0  0  0  0  0
  -30.7573  -17.3924   20.4401 C   0  0  0  0  0  0
  -28.8087  -16.7532   20.8236 C   0  0  0  0  0  0
  -29.3900  -18.1235   20.2775 C   0  0  0  0  0  0
  -28.3928  -25.0201   19.4087 C   0  0  0  0  0  0
  -29.0291  -22.5987   19.0198 N   0  0  0  0  0  0
  -28.4538  -23.1117   21.2077 N   0  0  0  0  0  0
  -30.0791  -16.0602   20.4785 N   0  0  0  0  0  0
  -29.1448  -19.3696   21.0838 O   0  0  0  0  0  0
  -31.4530  -12.5979   19.1629 H   0  0  0  0  0  0
  -30.3548  -11.5407   20.0007 H   0  0  0  0  0  0
  -29.7898  -11.7039   17.5450 H   0  0  0  0  0  0
  -29.6114  -13.4364   17.6912 H   0  0  0  0  0  0
  -27.9076  -11.2710   18.9578 H   0  0  0  0  0  0
  -27.3656  -12.4644   17.8090 H   0  0  0  0  0  0
  -27.5976  -14.2468   19.4111 H   0  0  0  0  0  0
  -28.7329  -12.2896   21.4680 H   0  0  0  0  0  0
  -28.4083  -13.9900   21.7312 H   0  0  0  0  0  0
  -25.2768   -9.5678   22.4774 H   0  0  0  0  0  0
  -24.0005   -7.4627   22.7474 H   0  0  0  0  0  0
  -21.0852   -8.8785   19.8953 H   0  0  0  0  0  0
  -22.3712  -10.9683   19.6177 H   0  0  0  0  0  0
  -21.2004   -7.6150   23.9721 H   0  0  0  0  0  0
  -21.1480   -6.0525   25.9081 H   0  0  0  0  0  0
  -22.0596   -2.7613   23.2845 H   0  0  0  0  0  0
  -22.4062  -11.9865   22.4837 H   0  0  0  0  0  0
  -21.1053  -13.1225   22.2654 H   0  0  0  0  0  0
  -24.6335  -15.8417   20.5134 H   0  0  0  0  0  0
  -26.2464  -15.6317   20.0579 H   0  0  0  0  0  0
  -26.7228  -32.5364   23.1049 H   0  0  0  0  0  0
  -25.0085  -33.9671   25.0376 H   0  0  0  0  0  0
  -22.7322  -31.2993   21.3935 H   0  0  0  0  0  0
  -23.3753  -35.9594   23.3289 H   0  0  0  0  0  0
  -24.3573  -36.8914   22.2057 H   0  0  0  0  0  0
  -23.7245  -37.6460   23.6683 H   0  0  0  0  0  0
  -26.1331  -31.5128   20.6170 H   0  0  0  0  0  0
  -26.8585  -30.7946   22.0228 H   0  0  0  0  0  0
  -28.1151  -28.8709   21.2226 H   0  0  0  0  0  0
  -25.8688  -25.8777   19.0376 H   0  0  0  0  0  0
  -23.9594  -27.3119   19.0058 H   0  0  0  0  0  0
  -23.7835  -30.5917   19.4020 H   0  0  0  0  0  0
  -22.7707  -29.2516   19.8466 H   0  0  0  0  0  0
  -25.1301  -36.1879   25.0810 H   0  0  0  0  0  0
  -20.9999  -28.3287   24.1369 H   0  0  0  0  0  0
  -20.5680  -26.2313   23.3613 H   0  0  0  0  0  0
  -21.6647  -26.7429   22.1195 H   0  0  0  0  0  0
  -19.6913  -25.6288   21.1249 H   0  0  0  0  0  0
  -19.6689  -27.3182   20.6734 H   0  0  0  0  0  0
  -17.4204  -26.6675   21.4025 H   0  0  0  0  0  0
  -18.0327  -26.0070   22.9020 H   0  0  0  0  0  0
  -19.7951  -30.7285   24.2234 H   0  0  0  0  0  0
  -17.5029  -31.6267   24.5164 H   0  0  0  0  0  0
  -15.5363  -30.2984   23.7675 H   0  0  0  0  0  0
  -15.8680  -28.0825   22.7077 H   0  0  0  0  0  0
  -24.5897  -30.7100   25.7761 H   0  0  0  0  0  0
  -24.8918  -32.2920   26.4839 H   0  0  0  0  0  0
  -25.8023  -30.8934   27.0230 H   0  0  0  0  0  0
  -26.2993  -29.6709   24.1274 H   0  0  0  0  0  0
  -27.4033  -29.7282   25.4813 H   0  0  0  0  0  0
  -27.8882  -30.4248   23.9548 H   0  0  0  0  0  0
  -27.2647  -33.3657   26.2040 H   0  0  0  0  0  0
  -28.3880  -32.6892   25.0342 H   0  0  0  0  0  0
  -28.0705  -31.8500   26.5453 H   0  0  0  0  0  0
  -28.2570  -38.0101   24.7534 H   0  0  0  0  0  0
  -28.1098  -36.2634   24.6254 H   0  0  0  0  0  0
  -27.2295  -37.1393   25.8860 H   0  0  0  0  0  0
  -20.9415  -29.8785   21.6849 H   0  0  0  0  0  0
  -26.0147  -38.2820   24.1446 H   0  0  0  0  0  0
  -29.4936  -20.6266   18.5195 H   0  0  0  0  0  0
  -28.4430  -21.5393   22.5671 H   0  0  0  0  0  0
  -31.2676  -17.6415   21.3720 H   0  0  0  0  0  0
  -31.4239  -17.5358   19.5886 H   0  0  0  0  0  0
  -27.9416  -16.4136   20.2612 H   0  0  0  0  0  0
  -28.5998  -16.7666   21.8943 H   0  0  0  0  0  0
  -29.1356  -18.2560   19.2243 H   0  0  0  0  0  0
  -27.6030  -24.9358   18.6692 H   0  0  0  0  0  0
  -29.2630  -25.2169   18.7823 H   0  0  0  0  0  0
  1 25  1  0  0  0
  1 30  2  0  0  0
  1 81  1  0  0  0
  2  3  1  0  0  0
  2 25  1  0  0  0
  2 83  1  0  0  0
  2 84  1  0  0  0
  3  4  1  0  0  0
  3 85  1  0  0  0
  3 86  1  0  0  0
  4  5  1  0  0  0
  4 87  1  0  0  0
  4 88  1  0  0  0
  5  6  1  0  0  0
  5 26  1  0  0  0
  5 89  1  0  0  0
  6 25  1  0  0  0
  6 90  1  0  0  0
  6 91  1  0  0  0
  7  8  2  0  0  0
  7 26  1  0  0  0
  7 29  1  0  0  0
  8  9  1  0  0  0
  8 22  1  0  0  0
  9 10  1  0  0  0
  9 27  2  0  0  0
 10 11  2  0  0  0
 10 15  1  0  0  0
 11 12  1  0  0  0
 11 92  1  0  0  0
 12 13  2  0  0  0
 12 93  1  0  0  0
 13 14  1  0  0  0
 13 31  1  0  0  0
 14 15  2  0  0  0
 14 94  1  0  0  0
 15 95  1  0  0  0
 16 17  2  0  0  0
 16 21  1  0  0  0
 16 31  1  0  0  0
 17 18  1  0  0  0
 17 96  1  0  0  0
 18 19  2  0  0  0
 18 97  1  0  0  0
 19 20  1  0  0  0
 19 24  1  0  0  0
 20 21  2  0  0  0
 20 98  1  0  0  0
 21 23  1  0  0  0
 22 28  1  0  0  0
 22 32  2  0  0  0
 26 27  1  0  0  0
 28 99  1  0  0  0
 28100  1  0  0  0
 29101  1  0  0  0
 29102  1  0  0  0
 33 34  1  0  0  0
 33 66  1  0  0  0
 33 70  2  0  0  0
 34 36  1  0  0  0
 34 59  1  0  0  0
 34103  1  0  0  0
 35 44  2  0  0  0
 35 45  1  0  0  0
 35 68  1  0  0  0
 36 56  1  0  0  0
 36104  1  0  0  0
 37 39  1  0  0  0
 37 47  1  0  0  0
 37 66  1  0  0  0
 37105  1  0  0  0
 38 43  2  0  0  0
 38 46  1  0  0  0
 38 47  1  0  0  0
 39 64  1  0  0  0
 39 67  2  0  0  0
 40 52  1  0  0  0
 40 53  2  0  0  0
 40 58  1  0  0  0
 41106  1  0  0  0
 41107  1  0  0  0
 41108  1  0  0  0
 41 48  1  0  0  0
 42 43  1  0  0  0
 42 66  1  0  0  0
 42109  1  0  0  0
 42110  1  0  0  0
 43 44  1  0  0  0
 44111  1  0  0  0
 45 46  2  0  0  0
 45112  1  0  0  0
 46113  1  0  0  0
 47114  1  0  0  0
 47115  1  0  0  0
 48 56  1  0  0  0
 48 65  1  0  0  0
 48116  1  0  0  0
 49 50  1  0  0  0
 49 53  1  0  0  0
 49 64  1  0  0  0
 49117  1  0  0  0
 50 51  1  0  0  0
 50118  1  0  0  0
 50119  1  0  0  0
 51 52  1  0  0  0
 51120  1  0  0  0
 51121  1  0  0  0
 52122  1  0  0  0
 52123  1  0  0  0
 53 54  1  0  0  0
 54 55  2  0  0  0
 54124  1  0  0  0
 55 57  1  0  0  0
 55125  1  0  0  0
 56 69  2  0  0  0
 57 58  2  0  0  0
 57126  1  0  0  0
 58127  1  0  0  0
 59 60  1  0  0  0
 59 61  1  0  0  0
 59 62  1  0  0  0
 60128  1  0  0  0
 60129  1  0  0  0
 60130  1  0  0  0
 61131  1  0  0  0
 61132  1  0  0  0
 61133  1  0  0  0
 62134  1  0  0  0
 62135  1  0  0  0
 62136  1  0  0  0
 63 65  1  0  0  0
 63137  1  0  0  0
 63138  1  0  0  0
 63139  1  0  0  0
 64140  1  0  0  0
 65141  1  0  0  0
 68 78  1  0  0  0
 71 73  2  0  0  0
 71 79  1  0  0  0
 71142  1  0  0  0
 72 73  1  0  0  0
 72 80  2  0  0  0
 72143  1  0  0  0
 73 82  1  0  0  0
 74 78  1  0  0  0
 74 79  2  0  0  0
 74 80  1  0  0  0
 75 77  1  0  0  0
 75 81  1  0  0  0
 75144  1  0  0  0
 75145  1  0  0  0
 76 77  1  0  0  0
 76 81  1  0  0  0
 76146  1  0  0  0
 76147  1  0  0  0
 77 82  1  0  0  0
 77148  1  0  0  0
 78149  1  0  0  0
 78150  1  0  0  0
M  ISO  4   1 100  68 101  78 101  81 100
M  END
> <chiral flag>
0

> <version>
0

> <s_m_source_file>
/data/baiqing/PycharmProjects/Reinvent-master-3.2/result/LINK_invent/BTK/process_docking_weight1_custom_sum_contain_oxygen_bond_distance_aromatic_linkinvent_7_9_3/rearranged_h_0189.sdf

> <i_m_source_file_index>
81

> <r_mmod_Potential_Energy-OPLS-2005>
53.8701171875

> <r_mmod_Stretch_Energy-OPLS-2005>
134.662231445312

> <r_mmod_Bend_Energy-OPLS-2005>
276.15771484375

> <r_mmod_Torsional_Energy-OPLS-2005>
252.535247802734

> <r_mmod_Improper_Torsional_Energy-OPLS-2005>
9.23167896270752

> <r_mmod_Van_der_Waal_Energy-OPLS-2005>
141.309234619141

> <r_mmod_Electrostatic_Energy-OPLS-2005>
-632.50927734375

> <r_mmod_Solvation_Energy-OPLS-2005>
-244.038146972656

> <b_mmod_Minimization_Converged-OPLS-2005>
0

> <r_mmod_RMS_Derivative-OPLS-2005>
0.794468343257904

$$$$
82
                    3D
 Structure written by MMmdl.
154163  0  0  1  0            999 V2000
  -30.5458  -15.1547   20.3699 C   0  0  0  0  0  0
  -30.4220  -12.7395   19.5115 C   0  0  0  0  0  0
  -29.5221  -12.5541   18.2708 C   0  0  0  0  0  0
  -28.0716  -12.2944   18.7062 C   0  0  0  0  0  0
  -27.6101  -13.2733   19.8167 C   0  0  2  0  0  0
  -28.6476  -13.4501   20.9461 C   0  0  0  0  0  0
  -25.2390  -13.8255   20.5732 C   0  0  0  0  0  0
  -24.1744  -13.0440   20.9250 C   0  0  0  0  0  0
  -24.6404  -11.6936   20.8762 C   0  0  0  0  0  0
  -23.9104  -10.4300   21.0400 C   0  0  0  0  0  0
  -24.3650   -9.4209   21.9166 C   0  0  0  0  0  0
  -23.6315   -8.2249   22.0740 C   0  0  0  0  0  0
  -22.4301   -8.0281   21.3522 C   0  0  0  0  0  0
  -21.9941   -9.0268   20.4637 C   0  0  0  0  0  0
  -22.7273  -10.2141   20.3052 C   0  0  0  0  0  0
  -21.6871   -6.0738   22.5279 C   0  0  0  0  0  0
  -21.4023   -6.5631   23.8213 C   0  0  0  0  0  0
  -21.3672   -5.6777   24.9170 C   0  0  0  0  0  0
  -21.6052   -4.3040   24.7215 C   0  0  0  0  0  0
  -21.8818   -3.8139   23.4333 C   0  0  0  0  0  0
  -21.9198   -4.6960   22.3393 C   0  0  0  0  0  0
  -22.7761  -13.5193   21.1876 C   0  0  0  0  0  0
  -22.1657   -4.2154   21.0964 F   0  0  0  0  0  0
  -21.5635   -3.4510   25.7722 F   0  0  0  0  0  0
  -29.8908  -13.9031   20.3063 N   0  0  0  0  0  0
  -26.2818  -12.9534   20.3202 N   0  0  0  0  0  0
  -25.9344  -11.6640   20.5724 N   0  0  0  0  0  0
  -22.0411  -12.8214   22.0456 N   0  0  0  0  0  0
  -25.4025  -15.1974   20.4175 N   0  0  0  0  0  0
  -31.7716  -15.0543   20.2097 O   0  0  0  0  0  0
  -21.6652   -6.8884   21.4241 O   0  0  0  0  0  0
  -22.3457  -14.5473   20.6670 O   0  0  0  0  0  0
  -24.6576  -31.8288   23.1767 C   0  0  0  0  0  0
  -25.9294  -32.4604   23.8196 C   0  0  1  0  0  0
  -27.2105  -26.9979   20.1652 C   0  0  0  0  0  0
  -25.5988  -33.8417   24.2106 N   0  0  0  0  0  0
  -23.4670  -30.4450   21.5247 C   0  0  2  0  0  0
  -24.9162  -28.8451   20.1076 C   0  0  0  0  0  0
  -22.7621  -29.4474   22.4802 C   0  0  0  0  0  0
  -18.0306  -28.1405   22.8460 C   0  0  0  0  0  0
  -24.1502  -36.7228   23.2650 C   0  0  0  0  0  0
  -26.0314  -30.6584   21.3949 C   0  0  0  0  0  0
  -26.0983  -29.2560   20.7377 C   0  0  0  0  0  0
  -27.2428  -28.3501   20.7445 C   0  0  0  0  0  0
  -26.0006  -26.7200   19.4934 C   0  0  0  0  0  0
  -24.8881  -27.5964   19.4685 C   0  0  0  0  0  0
  -23.7009  -29.7667   20.1475 C   0  0  0  0  0  0
  -25.4138  -36.2986   24.0308 C   0  0  1  0  0  0
  -20.5928  -28.3747   23.1206 C   0  0  2  0  0  0
  -20.6797  -26.9434   22.5414 C   0  0  0  0  0  0
  -19.5777  -26.6374   21.5216 C   0  0  0  0  0  0
  -18.1952  -26.7942   22.1608 C   0  0  0  0  0  0
  -19.1566  -28.8897   23.2823 C   0  0  0  0  0  0
  -18.9473  -30.1490   23.8856 C   0  0  0  0  0  0
  -17.6470  -30.6598   24.0556 C   0  0  0  0  0  0
  -25.9091  -34.9361   23.5020 C   0  0  0  0  0  0
  -16.5364  -29.9085   23.6342 C   0  0  0  0  0  0
  -16.7293  -28.6509   23.0357 C   0  0  0  0  0  0
  -26.4564  -31.6528   25.0699 C   0  0  0  0  0  0
  -25.3710  -31.3765   26.1372 C   0  0  0  0  0  0
  -27.0455  -30.2902   24.6399 C   0  0  0  0  0  0
  -27.6073  -32.4318   25.7494 C   0  0  0  0  0  0
  -27.5580  -37.1771   24.8461 C   0  0  0  0  0  0
  -21.4298  -29.3043   22.3553 N   0  0  0  0  0  0
  -26.4288  -37.3714   23.9406 N   0  0  0  0  0  0
  -24.7395  -31.0025   22.0866 N   0  0  0  0  0  0
  -23.4204  -28.8036   23.3016 O   0  0  0  0  0  0
  -28.2262  -25.9314   20.2408 O   0  0  0  0  0  0
  -26.5689  -34.8887   22.4609 O   0  0  0  0  0  0
  -23.5664  -32.1224   23.6911 O   0  0  0  0  0  0
  -29.2909  -19.8560   20.4472 C   0  0  0  0  0  0
  -28.6393  -18.8361   19.7735 C   0  0  0  0  0  0
  -28.7147  -21.2396   20.0712 C   0  0  0  0  0  0
  -30.3596  -19.1828   21.3426 C   0  0  0  0  0  0
  -28.7986  -17.2160   19.8095 C   0  0  0  0  0  0
  -30.8821  -17.6741   20.9356 C   0  0  0  0  0  0
  -26.7952  -19.0036   18.0378 C   0  0  0  0  0  0
  -28.9684  -22.9186   20.3528 C   0  0  0  0  0  0
  -27.9689  -24.3416   20.0428 C   0  0  0  0  0  0
  -27.7995  -20.9213   19.1481 N   0  0  0  0  0  0
  -27.7445  -19.5501   18.9876 N   0  0  0  0  0  0
  -29.9724  -16.5075   20.5247 N   0  0  0  0  0  0
  -31.4507  -12.8918   19.1831 H   0  0  0  0  0  0
  -30.4417  -11.8308   20.1136 H   0  0  0  0  0  0
  -29.8881  -11.7333   17.6514 H   0  0  0  0  0  0
  -29.5645  -13.4517   17.6523 H   0  0  0  0  0  0
  -28.0229  -11.2700   19.0771 H   0  0  0  0  0  0
  -27.4019  -12.3387   17.8468 H   0  0  0  0  0  0
  -27.5259  -14.2400   19.3189 H   0  0  0  0  0  0
  -28.7930  -12.5287   21.5122 H   0  0  0  0  0  0
  -28.3049  -14.2035   21.6561 H   0  0  0  0  0  0
  -25.2796   -9.5681   22.4733 H   0  0  0  0  0  0
  -24.0023   -7.4647   22.7459 H   0  0  0  0  0  0
  -21.0867   -8.8808   19.8948 H   0  0  0  0  0  0
  -22.3743  -10.9684   19.6160 H   0  0  0  0  0  0
  -21.2026   -7.6142   23.9731 H   0  0  0  0  0  0
  -21.1485   -6.0489   25.9075 H   0  0  0  0  0  0
  -22.0594   -2.7606   23.2826 H   0  0  0  0  0  0
  -22.4052  -11.9924   22.4914 H   0  0  0  0  0  0
  -21.1010  -13.1227   22.2594 H   0  0  0  0  0  0
  -24.6317  -15.8455   20.5357 H   0  0  0  0  0  0
  -26.2497  -15.6398   20.0902 H   0  0  0  0  0  0
  -26.7364  -32.5164   23.0913 H   0  0  0  0  0  0
  -25.0093  -33.9486   25.0230 H   0  0  0  0  0  0
  -22.7784  -31.2768   21.3615 H   0  0  0  0  0  0
  -23.3762  -35.9557   23.3276 H   0  0  0  0  0  0
  -24.3591  -36.8901   22.2071 H   0  0  0  0  0  0
  -23.7249  -37.6409   23.6714 H   0  0  0  0  0  0
  -26.2029  -31.4042   20.6173 H   0  0  0  0  0  0
  -26.8957  -30.7110   22.0454 H   0  0  0  0  0  0
  -28.1393  -28.6588   21.2644 H   0  0  0  0  0  0
  -25.8826  -25.7657   19.0018 H   0  0  0  0  0  0
  -23.9883  -27.2785   18.9596 H   0  0  0  0  0  0
  -23.8465  -30.5367   19.3884 H   0  0  0  0  0  0
  -22.8111  -29.2173   19.8350 H   0  0  0  0  0  0
  -25.1330  -36.1788   25.0798 H   0  0  0  0  0  0
  -21.0019  -28.3358   24.1324 H   0  0  0  0  0  0
  -20.5665  -26.2365   23.3645 H   0  0  0  0  0  0
  -21.6666  -26.7414   22.1227 H   0  0  0  0  0  0
  -19.6942  -25.6268   21.1279 H   0  0  0  0  0  0
  -19.6737  -27.3152   20.6718 H   0  0  0  0  0  0
  -17.4236  -26.6684   21.4002 H   0  0  0  0  0  0
  -18.0343  -26.0086   22.9001 H   0  0  0  0  0  0
  -19.7956  -30.7313   24.2202 H   0  0  0  0  0  0
  -17.5027  -31.6265   24.5170 H   0  0  0  0  0  0
  -15.5365  -30.2973   23.7694 H   0  0  0  0  0  0
  -15.8690  -28.0817   22.7090 H   0  0  0  0  0  0
  -24.5894  -30.7110   25.7687 H   0  0  0  0  0  0
  -24.8896  -32.2962   26.4704 H   0  0  0  0  0  0
  -25.7955  -30.8988   27.0212 H   0  0  0  0  0  0
  -26.3114  -29.6576   24.1399 H   0  0  0  0  0  0
  -27.4000  -29.7260   25.5038 H   0  0  0  0  0  0
  -27.9046  -30.4089   23.9794 H   0  0  0  0  0  0
  -27.2651  -33.3638   26.2003 H   0  0  0  0  0  0
  -28.3921  -32.6845   25.0351 H   0  0  0  0  0  0
  -28.0710  -31.8493   26.5466 H   0  0  0  0  0  0
  -28.2583  -38.0082   24.7511 H   0  0  0  0  0  0
  -28.1091  -36.2610   24.6273 H   0  0  0  0  0  0
  -27.2309  -37.1402   25.8868 H   0  0  0  0  0  0
  -20.9537  -29.8729   21.6685 H   0  0  0  0  0  0
  -26.0141  -38.2778   24.1397 H   0  0  0  0  0  0
  -29.9744  -19.1209   22.3619 H   0  0  0  0  0  0
  -31.2325  -19.8320   21.4239 H   0  0  0  0  0  0
  -28.8014  -16.8545   18.7802 H   0  0  0  0  0  0
  -27.8910  -16.8025   20.2469 H   0  0  0  0  0  0
  -31.5265  -17.3218   21.7431 H   0  0  0  0  0  0
  -31.5570  -17.8077   20.0882 H   0  0  0  0  0  0
  -26.2150  -18.2072   18.5078 H   0  0  0  0  0  0
  -27.3300  -18.5909   17.1810 H   0  0  0  0  0  0
  -26.1106  -19.7769   17.6879 H   0  0  0  0  0  0
  -29.9089  -23.1459   19.8497 H   0  0  0  0  0  0
  -29.2282  -22.9992   21.4082 H   0  0  0  0  0  0
  -27.0321  -24.1499   20.5669 H   0  0  0  0  0  0
  -27.7103  -24.2602   18.9867 H   0  0  0  0  0  0
  1 25  1  0  0  0
  1 30  2  0  0  0
  1 82  1  0  0  0
  2  3  1  0  0  0
  2 25  1  0  0  0
  2 83  1  0  0  0
  2 84  1  0  0  0
  3  4  1  0  0  0
  3 85  1  0  0  0
  3 86  1  0  0  0
  4  5  1  0  0  0
  4 87  1  0  0  0
  4 88  1  0  0  0
  5  6  1  0  0  0
  5 26  1  0  0  0
  5 89  1  0  0  0
  6 25  1  0  0  0
  6 90  1  0  0  0
  6 91  1  0  0  0
  7  8  2  0  0  0
  7 26  1  0  0  0
  7 29  1  0  0  0
  8  9  1  0  0  0
  8 22  1  0  0  0
  9 10  1  0  0  0
  9 27  2  0  0  0
 10 11  2  0  0  0
 10 15  1  0  0  0
 11 12  1  0  0  0
 11 92  1  0  0  0
 12 13  2  0  0  0
 12 93  1  0  0  0
 13 14  1  0  0  0
 13 31  1  0  0  0
 14 15  2  0  0  0
 14 94  1  0  0  0
 15 95  1  0  0  0
 16 17  2  0  0  0
 16 21  1  0  0  0
 16 31  1  0  0  0
 17 18  1  0  0  0
 17 96  1  0  0  0
 18 19  2  0  0  0
 18 97  1  0  0  0
 19 20  1  0  0  0
 19 24  1  0  0  0
 20 21  2  0  0  0
 20 98  1  0  0  0
 21 23  1  0  0  0
 22 28  1  0  0  0
 22 32  2  0  0  0
 26 27  1  0  0  0
 28 99  1  0  0  0
 28100  1  0  0  0
 29101  1  0  0  0
 29102  1  0  0  0
 33 34  1  0  0  0
 33 66  1  0  0  0
 33 70  2  0  0  0
 34 36  1  0  0  0
 34 59  1  0  0  0
 34103  1  0  0  0
 35 44  2  0  0  0
 35 45  1  0  0  0
 35 68  1  0  0  0
 36 56  1  0  0  0
 36104  1  0  0  0
 37 39  1  0  0  0
 37 47  1  0  0  0
 37 66  1  0  0  0
 37105  1  0  0  0
 38 43  2  0  0  0
 38 46  1  0  0  0
 38 47  1  0  0  0
 39 64  1  0  0  0
 39 67  2  0  0  0
 40 52  1  0  0  0
 40 53  2  0  0  0
 40 58  1  0  0  0
 41106  1  0  0  0
 41107  1  0  0  0
 41108  1  0  0  0
 41 48  1  0  0  0
 42 43  1  0  0  0
 42 66  1  0  0  0
 42109  1  0  0  0
 42110  1  0  0  0
 43 44  1  0  0  0
 44111  1  0  0  0
 45 46  2  0  0  0
 45112  1  0  0  0
 46113  1  0  0  0
 47114  1  0  0  0
 47115  1  0  0  0
 48 56  1  0  0  0
 48 65  1  0  0  0
 48116  1  0  0  0
 49 50  1  0  0  0
 49 53  1  0  0  0
 49 64  1  0  0  0
 49117  1  0  0  0
 50 51  1  0  0  0
 50118  1  0  0  0
 50119  1  0  0  0
 51 52  1  0  0  0
 51120  1  0  0  0
 51121  1  0  0  0
 52122  1  0  0  0
 52123  1  0  0  0
 53 54  1  0  0  0
 54 55  2  0  0  0
 54124  1  0  0  0
 55 57  1  0  0  0
 55125  1  0  0  0
 56 69  2  0  0  0
 57 58  2  0  0  0
 57126  1  0  0  0
 58127  1  0  0  0
 59 60  1  0  0  0
 59 61  1  0  0  0
 59 62  1  0  0  0
 60128  1  0  0  0
 60129  1  0  0  0
 60130  1  0  0  0
 61131  1  0  0  0
 61132  1  0  0  0
 61133  1  0  0  0
 62134  1  0  0  0
 62135  1  0  0  0
 62136  1  0  0  0
 63 65  1  0  0  0
 63137  1  0  0  0
 63138  1  0  0  0
 63139  1  0  0  0
 64140  1  0  0  0
 65141  1  0  0  0
 68 79  1  0  0  0
 71 72  2  0  0  0
 71 73  1  0  0  0
 71 74  1  0  0  0
 72 75  1  0  0  0
 72 81  1  0  0  0
 73 78  1  0  0  0
 73 80  2  0  0  0
 74 76  1  0  0  0
 74142  1  0  0  0
 74143  1  0  0  0
 75 82  1  0  0  0
 75144  1  0  0  0
 75145  1  0  0  0
 76 82  1  0  0  0
 76146  1  0  0  0
 76147  1  0  0  0
 77 81  1  0  0  0
 77148  1  0  0  0
 77149  1  0  0  0
 77150  1  0  0  0
 78 79  1  0  0  0
 78151  1  0  0  0
 78152  1  0  0  0
 79153  1  0  0  0
 79154  1  0  0  0
 80 81  1  0  0  0
M  ISO  4   1 100  68 101  79 101  82 100
M  END
> <chiral flag>
0

> <version>
0

> <s_m_source_file>
/data/baiqing/PycharmProjects/Reinvent-master-3.2/result/LINK_invent/BTK/process_docking_weight1_custom_sum_contain_oxygen_bond_distance_aromatic_linkinvent_7_9_3/rearranged_h_0189.sdf

> <i_m_source_file_index>
82

> <r_mmod_Potential_Energy-OPLS-2005>
1012.61834716797

> <r_mmod_Stretch_Energy-OPLS-2005>
417.915802001953

> <r_mmod_Bend_Energy-OPLS-2005>
409.322235107422

> <r_mmod_Torsional_Energy-OPLS-2005>
281.858123779297

> <r_mmod_Improper_Torsional_Energy-OPLS-2005>
4.24068307876587

> <r_mmod_Van_der_Waal_Energy-OPLS-2005>
110.301177978516

> <r_mmod_Electrostatic_Energy-OPLS-2005>
-337.43359375

> <r_mmod_Solvation_Energy-OPLS-2005>
-228.355529785156

> <b_mmod_Minimization_Converged-OPLS-2005>
0

> <r_mmod_RMS_Derivative-OPLS-2005>
2.23061060905457

$$$$
83
                    3D
 Structure written by MMmdl.
152160  0  0  1  0            999 V2000
  -30.5018  -15.0602   20.4032 C   0  0  0  0  0  0
  -30.4427  -12.6666   19.5004 C   0  0  0  0  0  0
  -29.5255  -12.5398   18.2612 C   0  0  0  0  0  0
  -28.0634  -12.3060   18.6846 C   0  0  0  0  0  0
  -27.6219  -13.2554   19.8284 C   0  0  2  0  0  0
  -28.6639  -13.3368   20.9625 C   0  0  0  0  0  0
  -25.2436  -13.8223   20.5719 C   0  0  0  0  0  0
  -24.1766  -13.0436   20.9241 C   0  0  0  0  0  0
  -24.6394  -11.6925   20.8756 C   0  0  0  0  0  0
  -23.9083  -10.4292   21.0407 C   0  0  0  0  0  0
  -24.3632   -9.4208   21.9184 C   0  0  0  0  0  0
  -23.6302   -8.2244   22.0755 C   0  0  0  0  0  0
  -22.4283   -8.0284   21.3544 C   0  0  0  0  0  0
  -21.9922   -9.0261   20.4647 C   0  0  0  0  0  0
  -22.7254  -10.2137   20.3057 C   0  0  0  0  0  0
  -21.6858   -6.0738   22.5279 C   0  0  0  0  0  0
  -21.4016   -6.5640   23.8212 C   0  0  0  0  0  0
  -21.3661   -5.6790   24.9174 C   0  0  0  0  0  0
  -21.6045   -4.3052   24.7223 C   0  0  0  0  0  0
  -21.8818   -3.8146   23.4345 C   0  0  0  0  0  0
  -21.9195   -4.6963   22.3403 C   0  0  0  0  0  0
  -22.7784  -13.5202   21.1890 C   0  0  0  0  0  0
  -22.1663   -4.2150   21.0979 F   0  0  0  0  0  0
  -21.5629   -3.4535   25.7736 F   0  0  0  0  0  0
  -29.9207  -13.7839   20.3475 N   0  0  0  0  0  0
  -26.2856  -12.9463   20.3217 N   0  0  0  0  0  0
  -25.9324  -11.6586   20.5721 N   0  0  0  0  0  0
  -22.0437  -12.8193   22.0447 N   0  0  0  0  0  0
  -25.4074  -15.1957   20.4140 N   0  0  0  0  0  0
  -31.7198  -15.1022   20.1931 O   0  0  0  0  0  0
  -21.6645   -6.8883   21.4240 O   0  0  0  0  0  0
  -22.3465  -14.5503   20.6728 O   0  0  0  0  0  0
  -24.6510  -31.8368   23.1814 C   0  0  0  0  0  0
  -25.9247  -32.4659   23.8233 C   0  0  1  0  0  0
  -27.2148  -27.0537   20.1690 C   0  0  0  0  0  0
  -25.5964  -33.8468   24.2145 N   0  0  0  0  0  0
  -23.4584  -30.4533   21.5288 C   0  0  2  0  0  0
  -24.9082  -28.8627   20.1147 C   0  0  0  0  0  0
  -22.7604  -29.4510   22.4831 C   0  0  0  0  0  0
  -18.0310  -28.1403   22.8473 C   0  0  0  0  0  0
  -24.1492  -36.7239   23.2644 C   0  0  0  0  0  0
  -26.0201  -30.6842   21.3923 C   0  0  0  0  0  0
  -26.0893  -29.2863   20.7369 C   0  0  0  0  0  0
  -27.2425  -28.4013   20.7401 C   0  0  0  0  0  0
  -26.0063  -26.7517   19.5035 C   0  0  0  0  0  0
  -24.8844  -27.6120   19.4802 C   0  0  0  0  0  0
  -23.6903  -29.7768   20.1513 C   0  0  0  0  0  0
  -25.4129  -36.3010   24.0307 C   0  0  1  0  0  0
  -20.5926  -28.3736   23.1217 C   0  0  2  0  0  0
  -20.6793  -26.9431   22.5404 C   0  0  0  0  0  0
  -19.5767  -26.6380   21.5214 C   0  0  0  0  0  0
  -18.1948  -26.7938   22.1624 C   0  0  0  0  0  0
  -19.1569  -28.8888   23.2834 C   0  0  0  0  0  0
  -18.9483  -30.1480   23.8866 C   0  0  0  0  0  0
  -17.6478  -30.6595   24.0558 C   0  0  0  0  0  0
  -25.9086  -34.9388   23.5038 C   0  0  0  0  0  0
  -16.5369  -29.9087   23.6338 C   0  0  0  0  0  0
  -16.7293  -28.6507   23.0358 C   0  0  0  0  0  0
  -26.4539  -31.6556   25.0710 C   0  0  0  0  0  0
  -25.3696  -31.3770   26.1387 C   0  0  0  0  0  0
  -27.0419  -30.2940   24.6353 C   0  0  0  0  0  0
  -27.6052  -32.4343   25.7506 C   0  0  0  0  0  0
  -27.5574  -37.1777   24.8465 C   0  0  0  0  0  0
  -21.4288  -29.3049   22.3582 N   0  0  0  0  0  0
  -26.4285  -37.3732   23.9405 N   0  0  0  0  0  0
  -24.7302  -31.0150   22.0887 N   0  0  0  0  0  0
  -23.4208  -28.8069   23.3021 O   0  0  0  0  0  0
  -28.2643  -26.0372   20.2045 O   0  0  0  0  0  0
  -26.5681  -34.8899   22.4624 O   0  0  0  0  0  0
  -23.5609  -32.1282   23.6982 O   0  0  0  0  0  0
  -31.1676  -23.0794   19.0778 C   0  0  0  0  0  0
  -30.2528  -24.0319   19.4247 C   0  0  0  0  0  0
  -29.4840  -21.9976   19.9714 C   0  0  0  0  0  0
  -30.2170  -18.1275   22.1370 C   0  0  0  0  0  0
  -29.0127  -19.1234   20.0291 C   0  0  0  0  0  0
  -27.9794  -24.4981   20.3350 C   0  0  0  0  0  0
  -30.0050  -17.8557   20.6417 C   0  0  2  0  0  0
  -30.6762  -21.8304   19.4048 N   0  0  0  0  0  0
  -29.1229  -23.4355   19.9857 N   0  0  0  0  0  0
  -28.9252  -20.6782   20.4047 N   0  0  0  0  0  0
  -29.7154  -16.2705   20.4962 N   0  0  0  0  0  0
  -31.4700  -12.8483   19.1803 H   0  0  0  0  0  0
  -30.4683  -11.7320   20.0631 H   0  0  0  0  0  0
  -29.8646  -11.7248   17.6198 H   0  0  0  0  0  0
  -29.5936  -13.4500   17.6633 H   0  0  0  0  0  0
  -27.9808  -11.2702   19.0156 H   0  0  0  0  0  0
  -27.3977  -12.4053   17.8266 H   0  0  0  0  0  0
  -27.5669  -14.2449   19.3739 H   0  0  0  0  0  0
  -28.7826  -12.3751   21.4639 H   0  0  0  0  0  0
  -28.3441  -14.0486   21.7252 H   0  0  0  0  0  0
  -25.2777   -9.5683   22.4757 H   0  0  0  0  0  0
  -24.0012   -7.4634   22.7471 H   0  0  0  0  0  0
  -21.0854   -8.8780   19.8953 H   0  0  0  0  0  0
  -22.3712  -10.9676   19.6166 H   0  0  0  0  0  0
  -21.2007   -7.6146   23.9717 H   0  0  0  0  0  0
  -21.1486   -6.0520   25.9077 H   0  0  0  0  0  0
  -22.0595   -2.7608   23.2846 H   0  0  0  0  0  0
  -22.4066  -11.9872   22.4857 H   0  0  0  0  0  0
  -21.1045  -13.1198   22.2634 H   0  0  0  0  0  0
  -24.6337  -15.8420   20.5265 H   0  0  0  0  0  0
  -26.2415  -15.6395   20.0530 H   0  0  0  0  0  0
  -26.7313  -32.5235   23.0953 H   0  0  0  0  0  0
  -25.0077  -33.9571   25.0271 H   0  0  0  0  0  0
  -22.7650  -31.2811   21.3677 H   0  0  0  0  0  0
  -23.3762  -35.9562   23.3289 H   0  0  0  0  0  0
  -24.3573  -36.8897   22.2062 H   0  0  0  0  0  0
  -23.7242  -37.6424   23.6701 H   0  0  0  0  0  0
  -26.1848  -31.4329   20.6161 H   0  0  0  0  0  0
  -26.8868  -30.7376   22.0394 H   0  0  0  0  0  0
  -28.1437  -28.7249   21.2418 H   0  0  0  0  0  0
  -25.8977  -25.8050   18.9977 H   0  0  0  0  0  0
  -23.9862  -27.2843   18.9748 H   0  0  0  0  0  0
  -23.8373  -30.5487   19.3951 H   0  0  0  0  0  0
  -22.8024  -29.2256   19.8370 H   0  0  0  0  0  0
  -25.1322  -36.1825   25.0800 H   0  0  0  0  0  0
  -21.0014  -28.3333   24.1340 H   0  0  0  0  0  0
  -20.5687  -26.2352   23.3631 H   0  0  0  0  0  0
  -21.6657  -26.7431   22.1202 H   0  0  0  0  0  0
  -19.6930  -25.6281   21.1268 H   0  0  0  0  0  0
  -19.6706  -27.3169   20.6727 H   0  0  0  0  0  0
  -17.4217  -26.6677   21.4028 H   0  0  0  0  0  0
  -18.0348  -26.0089   22.9031 H   0  0  0  0  0  0
  -19.7958  -30.7304   24.2224 H   0  0  0  0  0  0
  -17.5031  -31.6274   24.5165 H   0  0  0  0  0  0
  -15.5369  -30.2980   23.7681 H   0  0  0  0  0  0
  -15.8692  -28.0815   22.7092 H   0  0  0  0  0  0
  -24.5878  -30.7123   25.7694 H   0  0  0  0  0  0
  -24.8886  -32.2963   26.4741 H   0  0  0  0  0  0
  -25.7953  -30.8980   27.0212 H   0  0  0  0  0  0
  -26.3056  -29.6644   24.1344 H   0  0  0  0  0  0
  -27.3981  -29.7271   25.4965 H   0  0  0  0  0  0
  -27.8985  -30.4159   23.9721 H   0  0  0  0  0  0
  -27.2629  -33.3665   26.2012 H   0  0  0  0  0  0
  -28.3900  -32.6870   25.0364 H   0  0  0  0  0  0
  -28.0678  -31.8518   26.5483 H   0  0  0  0  0  0
  -28.2579  -38.0084   24.7510 H   0  0  0  0  0  0
  -28.1081  -36.2612   24.6293 H   0  0  0  0  0  0
  -27.2288  -37.1423   25.8867 H   0  0  0  0  0  0
  -20.9517  -29.8751   21.6740 H   0  0  0  0  0  0
  -26.0144  -38.2795   24.1413 H   0  0  0  0  0  0
  -32.1380  -23.2012   18.6165 H   0  0  0  0  0  0
  -30.3170  -25.1021   19.2948 H   0  0  0  0  0  0
  -30.5694  -19.1465   22.3011 H   0  0  0  0  0  0
  -30.9606  -17.4551   22.5655 H   0  0  0  0  0  0
  -29.2895  -18.0047   22.6969 H   0  0  0  0  0  0
  -27.9913  -18.7761   20.1868 H   0  0  0  0  0  0
  -29.1275  -19.1000   18.9446 H   0  0  0  0  0  0
  -27.6782  -24.3055   21.3650 H   0  0  0  0  0  0
  -27.1340  -24.2246   19.7069 H   0  0  0  0  0  0
  -30.9772  -17.9982   20.1668 H   0  0  0  0  0  0
  -28.0800  -20.8431   20.9438 H   0  0  0  0  0  0
  -28.7306  -16.0575   20.5501 H   0  0  0  0  0  0
  1 25  1  0  0  0
  1 30  2  0  0  0
  1 81  1  0  0  0
  2  3  1  0  0  0
  2 25  1  0  0  0
  2 82  1  0  0  0
  2 83  1  0  0  0
  3  4  1  0  0  0
  3 84  1  0  0  0
  3 85  1  0  0  0
  4  5  1  0  0  0
  4 86  1  0  0  0
  4 87  1  0  0  0
  5  6  1  0  0  0
  5 26  1  0  0  0
  5 88  1  0  0  0
  6 25  1  0  0  0
  6 89  1  0  0  0
  6 90  1  0  0  0
  7  8  2  0  0  0
  7 26  1  0  0  0
  7 29  1  0  0  0
  8  9  1  0  0  0
  8 22  1  0  0  0
  9 10  1  0  0  0
  9 27  2  0  0  0
 10 11  2  0  0  0
 10 15  1  0  0  0
 11 12  1  0  0  0
 11 91  1  0  0  0
 12 13  2  0  0  0
 12 92  1  0  0  0
 13 14  1  0  0  0
 13 31  1  0  0  0
 14 15  2  0  0  0
 14 93  1  0  0  0
 15 94  1  0  0  0
 16 17  2  0  0  0
 16 21  1  0  0  0
 16 31  1  0  0  0
 17 18  1  0  0  0
 17 95  1  0  0  0
 18 19  2  0  0  0
 18 96  1  0  0  0
 19 20  1  0  0  0
 19 24  1  0  0  0
 20 21  2  0  0  0
 20 97  1  0  0  0
 21 23  1  0  0  0
 22 28  1  0  0  0
 22 32  2  0  0  0
 26 27  1  0  0  0
 28 98  1  0  0  0
 28 99  1  0  0  0
 29100  1  0  0  0
 29101  1  0  0  0
 33 34  1  0  0  0
 33 66  1  0  0  0
 33 70  2  0  0  0
 34 36  1  0  0  0
 34 59  1  0  0  0
 34102  1  0  0  0
 35 44  2  0  0  0
 35 45  1  0  0  0
 35 68  1  0  0  0
 36 56  1  0  0  0
 36103  1  0  0  0
 37 39  1  0  0  0
 37 47  1  0  0  0
 37 66  1  0  0  0
 37104  1  0  0  0
 38 43  2  0  0  0
 38 46  1  0  0  0
 38 47  1  0  0  0
 39 64  1  0  0  0
 39 67  2  0  0  0
 40 52  1  0  0  0
 40 53  2  0  0  0
 40 58  1  0  0  0
 41105  1  0  0  0
 41106  1  0  0  0
 41107  1  0  0  0
 41 48  1  0  0  0
 42 43  1  0  0  0
 42 66  1  0  0  0
 42108  1  0  0  0
 42109  1  0  0  0
 43 44  1  0  0  0
 44110  1  0  0  0
 45 46  2  0  0  0
 45111  1  0  0  0
 46112  1  0  0  0
 47113  1  0  0  0
 47114  1  0  0  0
 48 56  1  0  0  0
 48 65  1  0  0  0
 48115  1  0  0  0
 49 50  1  0  0  0
 49 53  1  0  0  0
 49 64  1  0  0  0
 49116  1  0  0  0
 50 51  1  0  0  0
 50117  1  0  0  0
 50118  1  0  0  0
 51 52  1  0  0  0
 51119  1  0  0  0
 51120  1  0  0  0
 52121  1  0  0  0
 52122  1  0  0  0
 53 54  1  0  0  0
 54 55  2  0  0  0
 54123  1  0  0  0
 55 57  1  0  0  0
 55124  1  0  0  0
 56 69  2  0  0  0
 57 58  2  0  0  0
 57125  1  0  0  0
 58126  1  0  0  0
 59 60  1  0  0  0
 59 61  1  0  0  0
 59 62  1  0  0  0
 60127  1  0  0  0
 60128  1  0  0  0
 60129  1  0  0  0
 61130  1  0  0  0
 61131  1  0  0  0
 61132  1  0  0  0
 62133  1  0  0  0
 62134  1  0  0  0
 62135  1  0  0  0
 63 65  1  0  0  0
 63136  1  0  0  0
 63137  1  0  0  0
 63138  1  0  0  0
 64139  1  0  0  0
 65140  1  0  0  0
 68 76  1  0  0  0
 71 72  2  0  0  0
 71 78  1  0  0  0
 71141  1  0  0  0
 72 79  1  0  0  0
 72142  1  0  0  0
 73 78  2  0  0  0
 73 79  1  0  0  0
 73 80  1  0  0  0
 74143  1  0  0  0
 74144  1  0  0  0
 74145  1  0  0  0
 74 77  1  0  0  0
 75 77  1  0  0  0
 75 80  1  0  0  0
 75146  1  0  0  0
 75147  1  0  0  0
 76 79  1  0  0  0
 76148  1  0  0  0
 76149  1  0  0  0
 77 81  1  0  0  0
 77150  1  0  0  0
 80151  1  0  0  0
 81152  1  0  0  0
M  ISO  4   1 100  68 101  76 101  81 100
M  END
> <chiral flag>
0

> <version>
0

> <s_m_source_file>
/data/baiqing/PycharmProjects/Reinvent-master-3.2/result/LINK_invent/BTK/process_docking_weight1_custom_sum_contain_oxygen_bond_distance_aromatic_linkinvent_7_9_3/rearranged_h_0189.sdf

> <i_m_source_file_index>
83

> <r_mmod_Potential_Energy-OPLS-2005>
620.482360839844

> <r_mmod_Stretch_Energy-OPLS-2005>
365.340270996094

> <r_mmod_Bend_Energy-OPLS-2005>
375.3154296875

> <r_mmod_Torsional_Energy-OPLS-2005>
214.763473510742

> <r_mmod_Improper_Torsional_Energy-OPLS-2005>
4.99132251739502

> <r_mmod_Van_der_Waal_Energy-OPLS-2005>
108.474235534668

> <r_mmod_Electrostatic_Energy-OPLS-2005>
-466.478332519531

> <r_mmod_Solvation_Energy-OPLS-2005>
-256.087860107422

> <b_mmod_Minimization_Converged-OPLS-2005>
0

> <r_mmod_RMS_Derivative-OPLS-2005>
0.589983105659485

$$$$
84
                    3D
 Structure written by MMmdl.
162171  0  0  1  0            999 V2000
  -30.6340  -14.6635   20.5469 C   0  0  0  0  0  0
  -30.4359  -12.4193   19.4649 C   0  0  0  0  0  0
  -29.5111  -12.5223   18.2307 C   0  0  0  0  0  0
  -28.0323  -12.3556   18.6349 C   0  0  0  0  0  0
  -27.6516  -13.2198   19.8661 C   0  0  2  0  0  0
  -28.6910  -13.0653   20.9955 C   0  0  0  0  0  0
  -25.2540  -13.8171   20.5698 C   0  0  0  0  0  0
  -24.1814  -13.0433   20.9199 C   0  0  0  0  0  0
  -24.6386  -11.6906   20.8738 C   0  0  0  0  0  0
  -23.9062  -10.4289   21.0403 C   0  0  0  0  0  0
  -24.3611   -9.4202   21.9177 C   0  0  0  0  0  0
  -23.6286   -8.2239   22.0748 C   0  0  0  0  0  0
  -22.4265   -8.0281   21.3543 C   0  0  0  0  0  0
  -21.9906   -9.0253   20.4642 C   0  0  0  0  0  0
  -22.7237  -10.2130   20.3053 C   0  0  0  0  0  0
  -21.6848   -6.0731   22.5276 C   0  0  0  0  0  0
  -21.4013   -6.5635   23.8213 C   0  0  0  0  0  0
  -21.3661   -5.6785   24.9173 C   0  0  0  0  0  0
  -21.6047   -4.3049   24.7222 C   0  0  0  0  0  0
  -21.8816   -3.8140   23.4340 C   0  0  0  0  0  0
  -21.9191   -4.6961   22.3400 C   0  0  0  0  0  0
  -22.7837  -13.5226   21.1857 C   0  0  0  0  0  0
  -22.1658   -4.2147   21.0976 F   0  0  0  0  0  0
  -21.5633   -3.4532   25.7734 F   0  0  0  0  0  0
  -30.0038  -13.4414   20.4465 N   0  0  0  0  0  0
  -26.2969  -12.9360   20.3317 N   0  0  0  0  0  0
  -25.9311  -11.6510   20.5734 N   0  0  0  0  0  0
  -22.0474  -12.8221   22.0412 N   0  0  0  0  0  0
  -25.4252  -15.1895   20.4117 N   0  0  0  0  0  0
  -31.7539  -14.8224   20.0484 O   0  0  0  0  0  0
  -21.6628   -6.8880   21.4241 O   0  0  0  0  0  0
  -22.3533  -14.5532   20.6704 O   0  0  0  0  0  0
  -24.6262  -31.8577   23.1995 C   0  0  0  0  0  0
  -25.9104  -32.4769   23.8329 C   0  0  1  0  0  0
  -27.2323  -27.3076   20.1132 C   0  0  0  0  0  0
  -25.5916  -33.8569   24.2259 N   0  0  0  0  0  0
  -23.4201  -30.4791   21.5422 C   0  0  2  0  0  0
  -24.8672  -28.9278   20.1103 C   0  0  0  0  0  0
  -22.7470  -29.4615   22.4937 C   0  0  0  0  0  0
  -18.0280  -28.1384   22.8493 C   0  0  0  0  0  0
  -24.1486  -36.7289   23.2640 C   0  0  0  0  0  0
  -25.9600  -30.7849   21.3698 C   0  0  0  0  0  0
  -26.0339  -29.4094   20.7148 C   0  0  0  0  0  0
  -27.2138  -28.6093   20.7076 C   0  0  0  0  0  0
  -26.0355  -26.8714   19.4994 C   0  0  0  0  0  0
  -24.8706  -27.6651   19.4963 C   0  0  0  0  0  0
  -23.6347  -29.8086   20.1590 C   0  0  0  0  0  0
  -25.4113  -36.3078   24.0329 C   0  0  1  0  0  0
  -20.5881  -28.3687   23.1291 C   0  0  2  0  0  0
  -20.6769  -26.9408   22.5419 C   0  0  0  0  0  0
  -19.5746  -26.6389   21.5212 C   0  0  0  0  0  0
  -18.1924  -26.7928   22.1629 C   0  0  0  0  0  0
  -19.1533  -28.8853   23.2886 C   0  0  0  0  0  0
  -18.9459  -30.1458   23.8901 C   0  0  0  0  0  0
  -17.6460  -30.6592   24.0562 C   0  0  0  0  0  0
  -25.9053  -34.9449   23.5097 C   0  0  0  0  0  0
  -16.5351  -29.9093   23.6328 C   0  0  0  0  0  0
  -16.7267  -28.6506   23.0357 C   0  0  0  0  0  0
  -26.4486  -31.6585   25.0704 C   0  0  0  0  0  0
  -25.3718  -31.3726   26.1431 C   0  0  0  0  0  0
  -27.0326  -30.3008   24.6159 C   0  0  0  0  0  0
  -27.6045  -32.4320   25.7477 C   0  0  0  0  0  0
  -27.5575  -37.1800   24.8466 C   0  0  0  0  0  0
  -21.4183  -29.3034   22.3678 N   0  0  0  0  0  0
  -26.4287  -37.3775   23.9408 N   0  0  0  0  0  0
  -24.6877  -31.0583   22.0944 N   0  0  0  0  0  0
  -23.4192  -28.8164   23.3024 O   0  0  0  0  0  0
  -28.3833  -26.5031   20.1776 O   0  0  0  0  0  0
  -26.5627  -34.8919   22.4668 O   0  0  0  0  0  0
  -23.5424  -32.1383   23.7323 O   0  0  0  0  0  0
  -30.1122  -17.1751   23.0376 C   0  0  0  0  0  0
  -29.4466  -18.3933   22.3916 C   0  0  0  0  0  0
  -29.5855  -15.8716   22.4180 C   0  0  0  0  0  0
  -29.6352  -17.0312   20.1884 C   0  0  0  0  0  0
  -27.5226  -20.7270   21.1431 C   0  0  0  0  0  0
  -29.7660  -18.4809   20.8885 C   0  0  1  0  0  0
  -28.8875  -21.2520   20.6984 C   0  0  1  0  0  0
  -29.0971  -19.7547   20.1415 C   0  0  2  0  0  0
  -28.5321  -23.8392   20.5333 C   0  0  0  0  0  0
  -28.4954  -25.1408   19.5968 C   0  0  0  0  0  0
  -29.9012  -15.7587   20.9857 N   0  0  0  0  0  0
  -28.9118  -22.5399   19.8695 N   0  0  0  0  0  0
  -27.6353  -19.6734   20.1371 N   0  3  0  0  0  0
  -31.4783  -12.5425   19.1673 H   0  0  0  0  0  0
  -30.3765  -11.4235   19.9062 H   0  0  0  0  0  0
  -29.7829  -11.7699   17.4891 H   0  0  0  0  0  0
  -29.6508  -13.4904   17.7477 H   0  0  0  0  0  0
  -27.8691  -11.3008   18.8599 H   0  0  0  0  0  0
  -27.3806  -12.5897   17.7924 H   0  0  0  0  0  0
  -27.6732  -14.2593   19.5376 H   0  0  0  0  0  0
  -28.4025  -13.6570   21.8600 H   0  0  0  0  0  0
  -28.7155  -12.0345   21.3508 H   0  0  0  0  0  0
  -25.2761   -9.5672   22.4743 H   0  0  0  0  0  0
  -23.9991   -7.4631   22.7469 H   0  0  0  0  0  0
  -21.0831   -8.8779   19.8948 H   0  0  0  0  0  0
  -22.3703  -10.9667   19.6158 H   0  0  0  0  0  0
  -21.2005   -7.6140   23.9723 H   0  0  0  0  0  0
  -21.1489   -6.0508   25.9080 H   0  0  0  0  0  0
  -22.0593   -2.7602   23.2839 H   0  0  0  0  0  0
  -22.4083  -11.9890   22.4821 H   0  0  0  0  0  0
  -21.1093  -13.1257   22.2610 H   0  0  0  0  0  0
  -24.6567  -15.8425   20.5181 H   0  0  0  0  0  0
  -26.2721  -15.6173   20.0638 H   0  0  0  0  0  0
  -26.7171  -32.5434   23.1073 H   0  0  0  0  0  0
  -25.0035  -33.9704   25.0386 H   0  0  0  0  0  0
  -22.7140  -31.2997   21.3964 H   0  0  0  0  0  0
  -23.3748  -35.9621   23.3305 H   0  0  0  0  0  0
  -24.3573  -36.8907   22.2053 H   0  0  0  0  0  0
  -23.7242  -37.6492   23.6661 H   0  0  0  0  0  0
  -26.0886  -31.5463   20.5990 H   0  0  0  0  0  0
  -26.8414  -30.8377   21.9977 H   0  0  0  0  0  0
  -28.1105  -28.9765   21.1872 H   0  0  0  0  0  0
  -25.9582  -25.9015   19.0351 H   0  0  0  0  0  0
  -23.9725  -27.2863   19.0280 H   0  0  0  0  0  0
  -23.7524  -30.5817   19.3986 H   0  0  0  0  0  0
  -22.7543  -29.2367   19.8595 H   0  0  0  0  0  0
  -25.1296  -36.1924   25.0822 H   0  0  0  0  0  0
  -20.9977  -28.3264   24.1410 H   0  0  0  0  0  0
  -20.5666  -26.2292   23.3618 H   0  0  0  0  0  0
  -21.6640  -26.7431   22.1216 H   0  0  0  0  0  0
  -19.6907  -25.6302   21.1231 H   0  0  0  0  0  0
  -19.6684  -27.3205   20.6748 H   0  0  0  0  0  0
  -17.4193  -26.6673   21.4032 H   0  0  0  0  0  0
  -18.0328  -26.0067   22.9027 H   0  0  0  0  0  0
  -19.7933  -30.7275   24.2277 H   0  0  0  0  0  0
  -17.5014  -31.6273   24.5160 H   0  0  0  0  0  0
  -15.5354  -30.3003   23.7650 H   0  0  0  0  0  0
  -15.8661  -28.0831   22.7081 H   0  0  0  0  0  0
  -24.5901  -30.7062   25.7762 H   0  0  0  0  0  0
  -24.8896  -32.2893   26.4838 H   0  0  0  0  0  0
  -25.8043  -30.8920   27.0216 H   0  0  0  0  0  0
  -26.2896  -29.6763   24.1183 H   0  0  0  0  0  0
  -27.4021  -29.7259   25.4661 H   0  0  0  0  0  0
  -27.8765  -30.4288   23.9376 H   0  0  0  0  0  0
  -27.2655  -33.3623   26.2044 H   0  0  0  0  0  0
  -28.3860  -32.6875   25.0308 H   0  0  0  0  0  0
  -28.0706  -31.8450   26.5400 H   0  0  0  0  0  0
  -28.2600  -38.0090   24.7505 H   0  0  0  0  0  0
  -28.1063  -36.2621   24.6303 H   0  0  0  0  0  0
  -27.2289  -37.1463   25.8867 H   0  0  0  0  0  0
  -20.9368  -29.8755   21.6884 H   0  0  0  0  0  0
  -26.0169  -38.2849   24.1412 H   0  0  0  0  0  0
  -29.9044  -17.1773   24.1084 H   0  0  0  0  0  0
  -31.1976  -17.2324   22.9382 H   0  0  0  0  0  0
  -29.7795  -19.3015   22.8966 H   0  0  0  0  0  0
  -28.3730  -18.3164   22.5572 H   0  0  0  0  0  0
  -28.5031  -15.8205   22.5442 H   0  0  0  0  0  0
  -29.9987  -15.0292   22.9785 H   0  0  0  0  0  0
  -30.2628  -17.0230   19.2957 H   0  0  0  0  0  0
  -28.6182  -16.9211   19.8134 H   0  0  0  0  0  0
  -26.6806  -21.3965   20.9657 H   0  0  0  0  0  0
  -27.5091  -20.3520   22.1662 H   0  0  0  0  0  0
  -30.8398  -18.6738   20.8650 H   0  0  0  0  0  0
  -29.5343  -21.4227   21.5612 H   0  0  0  0  0  0
  -29.4409  -19.8026   19.1077 H   0  0  0  0  0  0
  -27.5525  -23.7266   21.0000 H   0  0  0  0  0  0
  -29.2353  -24.0145   21.3485 H   0  0  0  0  0  0
  -27.7909  -24.9849   18.7830 H   0  0  0  0  0  0
  -29.4583  -25.1632   19.0856 H   0  0  0  0  0  0
  -28.3661  -22.4447   19.0162 H   0  0  0  0  0  0
  -27.2520  -19.9740   19.2565 H   0  0  0  0  0  0
  -27.2461  -18.7921   20.4262 H   0  0  0  0  0  0
  1 25  1  0  0  0
  1 30  2  0  0  0
  1 81  1  0  0  0
  2  3  1  0  0  0
  2 25  1  0  0  0
  2 84  1  0  0  0
  2 85  1  0  0  0
  3  4  1  0  0  0
  3 86  1  0  0  0
  3 87  1  0  0  0
  4  5  1  0  0  0
  4 88  1  0  0  0
  4 89  1  0  0  0
  5  6  1  0  0  0
  5 26  1  0  0  0
  5 90  1  0  0  0
  6 25  1  0  0  0
  6 91  1  0  0  0
  6 92  1  0  0  0
  7  8  2  0  0  0
  7 26  1  0  0  0
  7 29  1  0  0  0
  8  9  1  0  0  0
  8 22  1  0  0  0
  9 10  1  0  0  0
  9 27  2  0  0  0
 10 11  2  0  0  0
 10 15  1  0  0  0
 11 12  1  0  0  0
 11 93  1  0  0  0
 12 13  2  0  0  0
 12 94  1  0  0  0
 13 14  1  0  0  0
 13 31  1  0  0  0
 14 15  2  0  0  0
 14 95  1  0  0  0
 15 96  1  0  0  0
 16 17  2  0  0  0
 16 21  1  0  0  0
 16 31  1  0  0  0
 17 18  1  0  0  0
 17 97  1  0  0  0
 18 19  2  0  0  0
 18 98  1  0  0  0
 19 20  1  0  0  0
 19 24  1  0  0  0
 20 21  2  0  0  0
 20 99  1  0  0  0
 21 23  1  0  0  0
 22 28  1  0  0  0
 22 32  2  0  0  0
 26 27  1  0  0  0
 28100  1  0  0  0
 28101  1  0  0  0
 29102  1  0  0  0
 29103  1  0  0  0
 33 34  1  0  0  0
 33 66  1  0  0  0
 33 70  2  0  0  0
 34 36  1  0  0  0
 34 59  1  0  0  0
 34104  1  0  0  0
 35 44  2  0  0  0
 35 45  1  0  0  0
 35 68  1  0  0  0
 36 56  1  0  0  0
 36105  1  0  0  0
 37 39  1  0  0  0
 37 47  1  0  0  0
 37 66  1  0  0  0
 37106  1  0  0  0
 38 43  2  0  0  0
 38 46  1  0  0  0
 38 47  1  0  0  0
 39 64  1  0  0  0
 39 67  2  0  0  0
 40 52  1  0  0  0
 40 53  2  0  0  0
 40 58  1  0  0  0
 41107  1  0  0  0
 41108  1  0  0  0
 41109  1  0  0  0
 41 48  1  0  0  0
 42 43  1  0  0  0
 42 66  1  0  0  0
 42110  1  0  0  0
 42111  1  0  0  0
 43 44  1  0  0  0
 44112  1  0  0  0
 45 46  2  0  0  0
 45113  1  0  0  0
 46114  1  0  0  0
 47115  1  0  0  0
 47116  1  0  0  0
 48 56  1  0  0  0
 48 65  1  0  0  0
 48117  1  0  0  0
 49 50  1  0  0  0
 49 53  1  0  0  0
 49 64  1  0  0  0
 49118  1  0  0  0
 50 51  1  0  0  0
 50119  1  0  0  0
 50120  1  0  0  0
 51 52  1  0  0  0
 51121  1  0  0  0
 51122  1  0  0  0
 52123  1  0  0  0
 52124  1  0  0  0
 53 54  1  0  0  0
 54 55  2  0  0  0
 54125  1  0  0  0
 55 57  1  0  0  0
 55126  1  0  0  0
 56 69  2  0  0  0
 57 58  2  0  0  0
 57127  1  0  0  0
 58128  1  0  0  0
 59 60  1  0  0  0
 59 61  1  0  0  0
 59 62  1  0  0  0
 60129  1  0  0  0
 60130  1  0  0  0
 60131  1  0  0  0
 61132  1  0  0  0
 61133  1  0  0  0
 61134  1  0  0  0
 62135  1  0  0  0
 62136  1  0  0  0
 62137  1  0  0  0
 63 65  1  0  0  0
 63138  1  0  0  0
 63139  1  0  0  0
 63140  1  0  0  0
 64141  1  0  0  0
 65142  1  0  0  0
 68 80  1  0  0  0
 71 72  1  0  0  0
 71 73  1  0  0  0
 71143  1  0  0  0
 71144  1  0  0  0
 72145  1  0  0  0
 72146  1  0  0  0
 72 76  1  0  0  0
 73 81  1  0  0  0
 73147  1  0  0  0
 73148  1  0  0  0
 74 76  1  0  0  0
 74 81  1  0  0  0
 74149  1  0  0  0
 74150  1  0  0  0
 75 77  1  0  0  0
 75 83  1  0  0  0
 75151  1  0  0  0
 75152  1  0  0  0
 76 78  1  0  0  0
 76153  1  0  0  0
 77 78  1  0  0  0
 77 82  1  0  0  0
 77154  1  0  0  0
 78 83  1  0  0  0
 78155  1  0  0  0
 79 80  1  0  0  0
 79 82  1  0  0  0
 79156  1  0  0  0
 79157  1  0  0  0
 80158  1  0  0  0
 80159  1  0  0  0
 82160  1  0  0  0
 83161  1  0  0  0
 83162  1  0  0  0
M  CHG  1  83   1
M  ISO  4   1 100  68 101  80 101  81 100
M  END
> <chiral flag>
0

> <version>
0

> <s_m_source_file>
/data/baiqing/PycharmProjects/Reinvent-master-3.2/result/LINK_invent/BTK/process_docking_weight1_custom_sum_contain_oxygen_bond_distance_aromatic_linkinvent_7_9_3/rearranged_h_0189.sdf

> <i_m_source_file_index>
84

> <r_mmod_Potential_Energy-OPLS-2005>
179.947326660156

> <r_mmod_Stretch_Energy-OPLS-2005>
109.633110046387

> <r_mmod_Bend_Energy-OPLS-2005>
181.293060302734

> <r_mmod_Torsional_Energy-OPLS-2005>
341.775024414062

> <r_mmod_Improper_Torsional_Energy-OPLS-2005>
6.16361331939697

> <r_mmod_Van_der_Waal_Energy-OPLS-2005>
124.205307006836

> <r_mmod_Electrostatic_Energy-OPLS-2005>
-142.018524169922

> <r_mmod_Solvation_Energy-OPLS-2005>
-491.626831054688

> <b_mmod_Minimization_Converged-OPLS-2005>
0

> <r_mmod_RMS_Derivative-OPLS-2005>
0.982875823974609

$$$$
85
                    3D
 Structure written by MMmdl.
156165  0  0  1  0            999 V2000
  -30.5770  -14.7047   20.4658 C   0  0  0  0  0  0
  -30.4348  -12.4297   19.4351 C   0  0  0  0  0  0
  -29.5011  -12.5115   18.2043 C   0  0  0  0  0  0
  -28.0277  -12.3456   18.6228 C   0  0  0  0  0  0
  -27.6442  -13.2187   19.8457 C   0  0  2  0  0  0
  -28.6933  -13.0958   20.9675 C   0  0  0  0  0  0
  -25.2534  -13.8122   20.5719 C   0  0  0  0  0  0
  -24.1796  -13.0376   20.9168 C   0  0  0  0  0  0
  -24.6385  -11.6858   20.8705 C   0  0  0  0  0  0
  -23.9063  -10.4245   21.0383 C   0  0  0  0  0  0
  -24.3596   -9.4158   21.9178 C   0  0  0  0  0  0
  -23.6258   -8.2200   22.0760 C   0  0  0  0  0  0
  -22.4264   -8.0241   21.3517 C   0  0  0  0  0  0
  -21.9883   -9.0237   20.4651 C   0  0  0  0  0  0
  -22.7214  -10.2077   20.3051 C   0  0  0  0  0  0
  -21.6838   -6.0699   22.5284 C   0  0  0  0  0  0
  -21.4027   -6.5623   23.8202 C   0  0  0  0  0  0
  -21.3652   -5.6767   24.9164 C   0  0  0  0  0  0
  -21.6054   -4.3029   24.7212 C   0  0  0  0  0  0
  -21.8832   -3.8120   23.4353 C   0  0  0  0  0  0
  -21.9187   -4.6950   22.3400 C   0  0  0  0  0  0
  -22.7832  -13.5219   21.1824 C   0  0  0  0  0  0
  -22.1665   -4.2129   21.0992 F   0  0  0  0  0  0
  -21.5609   -3.4518   25.7738 F   0  0  0  0  0  0
  -29.9881  -13.4690   20.3846 N   0  0  0  0  0  0
  -26.2948  -12.9311   20.3234 N   0  0  0  0  0  0
  -25.9296  -11.6455   20.5651 N   0  0  0  0  0  0
  -22.0482  -12.8191   22.0408 N   0  0  0  0  0  0
  -25.4154  -15.1859   20.4273 N   0  0  0  0  0  0
  -31.7774  -14.8560   20.2201 O   0  0  0  0  0  0
  -21.6614   -6.8842   21.4233 O   0  0  0  0  0  0
  -22.3540  -14.5526   20.6638 O   0  0  0  0  0  0
  -24.6335  -31.8578   23.2053 C   0  0  0  0  0  0
  -25.9168  -32.4771   23.8396 C   0  0  1  0  0  0
  -27.2076  -27.3082   20.0518 C   0  0  0  0  0  0
  -25.5973  -33.8582   24.2313 N   0  0  0  0  0  0
  -23.4220  -30.4885   21.5533 C   0  0  2  0  0  0
  -24.8486  -28.9401   20.1036 C   0  0  0  0  0  0
  -22.7468  -29.4654   22.4960 C   0  0  0  0  0  0
  -18.0308  -28.1341   22.8497 C   0  0  0  0  0  0
  -24.1474  -36.7278   23.2632 C   0  0  0  0  0  0
  -25.9663  -30.7722   21.3810 C   0  0  0  0  0  0
  -26.0261  -29.4081   20.6998 C   0  0  0  0  0  0
  -27.2041  -28.6027   20.6622 C   0  0  0  0  0  0
  -25.9893  -26.8778   19.4754 C   0  0  0  0  0  0
  -24.8298  -27.6748   19.4946 C   0  0  0  0  0  0
  -23.6254  -29.8347   20.1642 C   0  0  0  0  0  0
  -25.4099  -36.3118   24.0368 C   0  0  1  0  0  0
  -20.5915  -28.3687   23.1249 C   0  0  2  0  0  0
  -20.6785  -26.9398   22.5394 C   0  0  0  0  0  0
  -19.5762  -26.6360   21.5187 C   0  0  0  0  0  0
  -18.1948  -26.7898   22.1609 C   0  0  0  0  0  0
  -19.1562  -28.8825   23.2871 C   0  0  0  0  0  0
  -18.9462  -30.1420   23.8903 C   0  0  0  0  0  0
  -17.6461  -30.6555   24.0562 C   0  0  0  0  0  0
  -25.9055  -34.9472   23.5148 C   0  0  0  0  0  0
  -16.5357  -29.9051   23.6309 C   0  0  0  0  0  0
  -16.7291  -28.6450   23.0371 C   0  0  0  0  0  0
  -26.4517  -31.6601   25.0794 C   0  0  0  0  0  0
  -25.3732  -31.3736   26.1511 C   0  0  0  0  0  0
  -27.0337  -30.3022   24.6270 C   0  0  0  0  0  0
  -27.6096  -32.4318   25.7527 C   0  0  0  0  0  0
  -27.5599  -37.1792   24.8473 C   0  0  0  0  0  0
  -21.4180  -29.3074   22.3645 N   0  0  0  0  0  0
  -26.4289  -37.3816   23.9445 N   0  0  0  0  0  0
  -24.6954  -31.0524   22.1066 N   0  0  0  0  0  0
  -23.4168  -28.8172   23.3050 O   0  0  0  0  0  0
  -28.3455  -26.4808   20.0940 O   0  0  0  0  0  0
  -26.5566  -34.8944   22.4685 O   0  0  0  0  0  0
  -23.5493  -32.1413   23.7368 O   0  0  0  0  0  0
  -29.0462  -21.8552   19.9227 C   0  0  0  0  0  0
  -27.7782  -23.3545   20.7160 C   0  0  0  0  0  0
  -28.7857  -18.2617   20.5566 C   0  0  0  0  0  0
  -30.7524  -18.2075   20.0694 C   0  0  0  0  0  0
  -29.9144  -17.2516   20.9482 C   0  0  2  0  0  0
  -26.6716  -24.0346   21.4497 C   0  0  0  0  0  0
  -29.6753  -20.4853   19.5064 C   0  0  0  0  0  0
  -28.4973  -25.3638   19.1815 C   0  0  0  0  0  0
  -28.0645  -22.0444   20.8625 N   0  0  0  0  0  0
  -29.3522  -22.9991   19.2674 N   0  0  0  0  0  0
  -28.5348  -23.9810   19.7995 N   0  0  0  0  0  0
  -29.7223  -15.7785   20.6082 N   0  0  0  0  0  0
  -29.8295  -19.3232   20.4809 N   0  3  1  0  0  0
  -31.4760  -12.5642   19.1340 H   0  0  0  0  0  0
  -30.3635  -11.4406   19.8928 H   0  0  0  0  0  0
  -29.7651  -11.7456   17.4740 H   0  0  0  0  0  0
  -29.6358  -13.4699   17.6998 H   0  0  0  0  0  0
  -27.8692  -11.2962   18.8646 H   0  0  0  0  0  0
  -27.3661  -12.5650   17.7826 H   0  0  0  0  0  0
  -27.6450  -14.2487   19.4929 H   0  0  0  0  0  0
  -28.7309  -12.0747   21.3472 H   0  0  0  0  0  0
  -28.4425  -13.7226   21.8229 H   0  0  0  0  0  0
  -25.2732   -9.5624   22.4761 H   0  0  0  0  0  0
  -23.9967   -7.4581   22.7508 H   0  0  0  0  0  0
  -21.0797   -8.8757   19.8978 H   0  0  0  0  0  0
  -22.3691  -10.9619   19.6182 H   0  0  0  0  0  0
  -21.2047   -7.6129   23.9707 H   0  0  0  0  0  0
  -21.1458   -6.0503   25.9067 H   0  0  0  0  0  0
  -22.0616   -2.7596   23.2863 H   0  0  0  0  0  0
  -22.4132  -11.9853   22.4776 H   0  0  0  0  0  0
  -21.1108  -13.1235   22.2611 H   0  0  0  0  0  0
  -24.6319  -15.8187   20.5615 H   0  0  0  0  0  0
  -26.2399  -15.6448   20.0627 H   0  0  0  0  0  0
  -26.7221  -32.5330   23.1109 H   0  0  0  0  0  0
  -25.0247  -33.9691   25.0555 H   0  0  0  0  0  0
  -22.7249  -31.3218   21.4242 H   0  0  0  0  0  0
  -23.3813  -35.9544   23.3284 H   0  0  0  0  0  0
  -24.3575  -36.8865   22.2048 H   0  0  0  0  0  0
  -23.7136  -37.6456   23.6612 H   0  0  0  0  0  0
  -26.1139  -31.5499   20.6312 H   0  0  0  0  0  0
  -26.8418  -30.7931   22.0192 H   0  0  0  0  0  0
  -28.1195  -28.9600   21.1121 H   0  0  0  0  0  0
  -25.8757  -25.9038   19.0246 H   0  0  0  0  0  0
  -23.9175  -27.2930   19.0523 H   0  0  0  0  0  0
  -23.7501  -30.6235   19.4195 H   0  0  0  0  0  0
  -22.7321  -29.2883   19.8596 H   0  0  0  0  0  0
  -25.1271  -36.2025   25.0871 H   0  0  0  0  0  0
  -21.0015  -28.3252   24.1368 H   0  0  0  0  0  0
  -20.5612  -26.2304   23.3596 H   0  0  0  0  0  0
  -21.6659  -26.7376   22.1230 H   0  0  0  0  0  0
  -19.6923  -25.6264   21.1220 H   0  0  0  0  0  0
  -19.6709  -27.3167   20.6700 H   0  0  0  0  0  0
  -17.4222  -26.6680   21.4010 H   0  0  0  0  0  0
  -18.0352  -26.0005   22.8957 H   0  0  0  0  0  0
  -19.7935  -30.7232   24.2291 H   0  0  0  0  0  0
  -17.5013  -31.6251   24.5144 H   0  0  0  0  0  0
  -15.5360  -30.2956   23.7603 H   0  0  0  0  0  0
  -15.8691  -28.0741   22.7116 H   0  0  0  0  0  0
  -24.5972  -30.6995   25.7878 H   0  0  0  0  0  0
  -24.8826  -32.2861   26.4905 H   0  0  0  0  0  0
  -25.8060  -30.8986   27.0320 H   0  0  0  0  0  0
  -26.2923  -29.6791   24.1254 H   0  0  0  0  0  0
  -27.3975  -29.7288   25.4807 H   0  0  0  0  0  0
  -27.8842  -30.4327   23.9573 H   0  0  0  0  0  0
  -27.2801  -33.3673   26.2066 H   0  0  0  0  0  0
  -28.3924  -32.6761   25.0332 H   0  0  0  0  0  0
  -28.0762  -31.8449   26.5443 H   0  0  0  0  0  0
  -28.2627  -38.0082   24.7575 H   0  0  0  0  0  0
  -28.1080  -36.2625   24.6254 H   0  0  0  0  0  0
  -27.2297  -37.1401   25.8861 H   0  0  0  0  0  0
  -20.9331  -29.8840   21.6905 H   0  0  0  0  0  0
  -26.0211  -38.2915   24.1453 H   0  0  0  0  0  0
  -28.0429  -18.4411   21.3372 H   0  0  0  0  0  0
  -28.3033  -18.0538   19.5962 H   0  0  0  0  0  0
  -30.7303  -17.9739   19.0031 H   0  0  0  0  0  0
  -31.7795  -18.3401   20.4128 H   0  0  0  0  0  0
  -30.1710  -17.3725   22.0042 H   0  0  0  0  0  0
  -26.3132  -23.3861   22.2492 H   0  0  0  0  0  0
  -25.8412  -24.2310   20.7682 H   0  0  0  0  0  0
  -27.0132  -24.9738   21.8856 H   0  0  0  0  0  0
  -30.6890  -20.7281   19.1738 H   0  0  0  0  0  0
  -29.1508  -20.1282   18.6192 H   0  0  0  0  0  0
  -27.7675  -25.3543   18.3741 H   0  0  0  0  0  0
  -29.4606  -25.5111   18.6870 H   0  0  0  0  0  0
  -28.7527  -15.5037   20.6024 H   0  0  0  0  0  0
  -30.0624  -19.6645   21.4020 H   0  0  0  0  0  0
  1 25  1  0  0  0
  1 30  2  0  0  0
  1 82  1  0  0  0
  2  3  1  0  0  0
  2 25  1  0  0  0
  2 84  1  0  0  0
  2 85  1  0  0  0
  3  4  1  0  0  0
  3 86  1  0  0  0
  3 87  1  0  0  0
  4  5  1  0  0  0
  4 88  1  0  0  0
  4 89  1  0  0  0
  5  6  1  0  0  0
  5 26  1  0  0  0
  5 90  1  0  0  0
  6 25  1  0  0  0
  6 91  1  0  0  0
  6 92  1  0  0  0
  7  8  2  0  0  0
  7 26  1  0  0  0
  7 29  1  0  0  0
  8  9  1  0  0  0
  8 22  1  0  0  0
  9 10  1  0  0  0
  9 27  2  0  0  0
 10 11  2  0  0  0
 10 15  1  0  0  0
 11 12  1  0  0  0
 11 93  1  0  0  0
 12 13  2  0  0  0
 12 94  1  0  0  0
 13 14  1  0  0  0
 13 31  1  0  0  0
 14 15  2  0  0  0
 14 95  1  0  0  0
 15 96  1  0  0  0
 16 17  2  0  0  0
 16 21  1  0  0  0
 16 31  1  0  0  0
 17 18  1  0  0  0
 17 97  1  0  0  0
 18 19  2  0  0  0
 18 98  1  0  0  0
 19 20  1  0  0  0
 19 24  1  0  0  0
 20 21  2  0  0  0
 20 99  1  0  0  0
 21 23  1  0  0  0
 22 28  1  0  0  0
 22 32  2  0  0  0
 26 27  1  0  0  0
 28100  1  0  0  0
 28101  1  0  0  0
 29102  1  0  0  0
 29103  1  0  0  0
 33 34  1  0  0  0
 33 66  1  0  0  0
 33 70  2  0  0  0
 34 36  1  0  0  0
 34 59  1  0  0  0
 34104  1  0  0  0
 35 44  2  0  0  0
 35 45  1  0  0  0
 35 68  1  0  0  0
 36 56  1  0  0  0
 36105  1  0  0  0
 37 39  1  0  0  0
 37 47  1  0  0  0
 37 66  1  0  0  0
 37106  1  0  0  0
 38 43  2  0  0  0
 38 46  1  0  0  0
 38 47  1  0  0  0
 39 64  1  0  0  0
 39 67  2  0  0  0
 40 52  1  0  0  0
 40 53  2  0  0  0
 40 58  1  0  0  0
 41107  1  0  0  0
 41108  1  0  0  0
 41109  1  0  0  0
 41 48  1  0  0  0
 42 43  1  0  0  0
 42 66  1  0  0  0
 42110  1  0  0  0
 42111  1  0  0  0
 43 44  1  0  0  0
 44112  1  0  0  0
 45 46  2  0  0  0
 45113  1  0  0  0
 46114  1  0  0  0
 47115  1  0  0  0
 47116  1  0  0  0
 48 56  1  0  0  0
 48 65  1  0  0  0
 48117  1  0  0  0
 49 50  1  0  0  0
 49 53  1  0  0  0
 49 64  1  0  0  0
 49118  1  0  0  0
 50 51  1  0  0  0
 50119  1  0  0  0
 50120  1  0  0  0
 51 52  1  0  0  0
 51121  1  0  0  0
 51122  1  0  0  0
 52123  1  0  0  0
 52124  1  0  0  0
 53 54  1  0  0  0
 54 55  2  0  0  0
 54125  1  0  0  0
 55 57  1  0  0  0
 55126  1  0  0  0
 56 69  2  0  0  0
 57 58  2  0  0  0
 57127  1  0  0  0
 58128  1  0  0  0
 59 60  1  0  0  0
 59 61  1  0  0  0
 59 62  1  0  0  0
 60129  1  0  0  0
 60130  1  0  0  0
 60131  1  0  0  0
 61132  1  0  0  0
 61133  1  0  0  0
 61134  1  0  0  0
 62135  1  0  0  0
 62136  1  0  0  0
 62137  1  0  0  0
 63 65  1  0  0  0
 63138  1  0  0  0
 63139  1  0  0  0
 63140  1  0  0  0
 64141  1  0  0  0
 65142  1  0  0  0
 68 78  1  0  0  0
 71 77  1  0  0  0
 71 79  1  0  0  0
 71 80  2  0  0  0
 72 76  1  0  0  0
 72 79  2  0  0  0
 72 81  1  0  0  0
 73 75  1  0  0  0
 73 83  1  0  0  0
 73143  1  0  0  0
 73144  1  0  0  0
 74 75  1  0  0  0
 74 83  1  0  0  0
 74145  1  0  0  0
 74146  1  0  0  0
 75 82  1  0  0  0
 75147  1  0  0  0
 76148  1  0  0  0
 76149  1  0  0  0
 76150  1  0  0  0
 77151  1  0  0  0
 77152  1  0  0  0
 77 83  1  0  0  0
 78 81  1  0  0  0
 78153  1  0  0  0
 78154  1  0  0  0
 80 81  1  0  0  0
 82155  1  0  0  0
 83156  1  0  0  0
M  CHG  1  83   1
M  ISO  4   1 100  68 101  78 101  82 100
M  END
> <chiral flag>
0

> <version>
0

> <s_m_source_file>
/data/baiqing/PycharmProjects/Reinvent-master-3.2/result/LINK_invent/BTK/process_docking_weight1_custom_sum_contain_oxygen_bond_distance_aromatic_linkinvent_7_9_3/rearranged_h_0189.sdf

> <i_m_source_file_index>
85

> <r_mmod_Potential_Energy-OPLS-2005>
-127.937950134277

> <r_mmod_Stretch_Energy-OPLS-2005>
88.9339599609375

> <r_mmod_Bend_Energy-OPLS-2005>
197.875640869141

> <r_mmod_Torsional_Energy-OPLS-2005>
239.766555786133

> <r_mmod_Improper_Torsional_Energy-OPLS-2005>
6.2837061882019

> <r_mmod_Van_der_Waal_Energy-OPLS-2005>
115.905372619629

> <r_mmod_Electrostatic_Energy-OPLS-2005>
-363.211944580078

> <r_mmod_Solvation_Energy-OPLS-2005>
-480.134490966797

> <b_mmod_Minimization_Converged-OPLS-2005>
0

> <r_mmod_RMS_Derivative-OPLS-2005>
6.40199089050293

$$$$
86
                    3D
 Structure written by MMmdl.
160169  0  0  1  0            999 V2000
  -30.6839  -14.6697   20.5141 C   0  0  0  0  0  0
  -30.4246  -12.4251   19.4584 C   0  0  0  0  0  0
  -29.5005  -12.5116   18.2251 C   0  0  0  0  0  0
  -28.0255  -12.3460   18.6388 C   0  0  0  0  0  0
  -27.6466  -13.2254   19.8603 C   0  0  2  0  0  0
  -28.6962  -13.1028   20.9868 C   0  0  0  0  0  0
  -25.2509  -13.8182   20.5675 C   0  0  0  0  0  0
  -24.1801  -13.0432   20.9203 C   0  0  0  0  0  0
  -24.6393  -11.6911   20.8757 C   0  0  0  0  0  0
  -23.9070  -10.4289   21.0412 C   0  0  0  0  0  0
  -24.3620   -9.4204   21.9187 C   0  0  0  0  0  0
  -23.6294   -8.2239   22.0755 C   0  0  0  0  0  0
  -22.4276   -8.0279   21.3544 C   0  0  0  0  0  0
  -21.9913   -9.0254   20.4647 C   0  0  0  0  0  0
  -22.7243  -10.2132   20.3059 C   0  0  0  0  0  0
  -21.6853   -6.0735   22.5278 C   0  0  0  0  0  0
  -21.4013   -6.5640   23.8211 C   0  0  0  0  0  0
  -21.3660   -5.6793   24.9173 C   0  0  0  0  0  0
  -21.6044   -4.3055   24.7224 C   0  0  0  0  0  0
  -21.8819   -3.8146   23.4345 C   0  0  0  0  0  0
  -21.9193   -4.6963   22.3402 C   0  0  0  0  0  0
  -22.7821  -13.5217   21.1859 C   0  0  0  0  0  0
  -22.1662   -4.2148   21.0979 F   0  0  0  0  0  0
  -21.5630   -3.4539   25.7737 F   0  0  0  0  0  0
  -29.9954  -13.4781   20.4103 N   0  0  0  0  0  0
  -26.2957  -12.9389   20.3333 N   0  0  0  0  0  0
  -25.9326  -11.6534   20.5785 N   0  0  0  0  0  0
  -22.0471  -12.8209   22.0420 N   0  0  0  0  0  0
  -25.4151  -15.1899   20.4023 N   0  0  0  0  0  0
  -31.8600  -14.7123   20.1392 O   0  0  0  0  0  0
  -21.6639   -6.8877   21.4239 O   0  0  0  0  0  0
  -22.3503  -14.5521   20.6707 O   0  0  0  0  0  0
  -24.6301  -31.8604   23.2061 C   0  0  0  0  0  0
  -25.9143  -32.4780   23.8381 C   0  0  1  0  0  0
  -27.2056  -27.2896   20.1071 C   0  0  0  0  0  0
  -25.5953  -33.8582   24.2299 N   0  0  0  0  0  0
  -23.4235  -30.4904   21.5502 C   0  0  2  0  0  0
  -24.8667  -28.9576   20.1072 C   0  0  0  0  0  0
  -22.7496  -29.4635   22.4927 C   0  0  0  0  0  0
  -18.0293  -28.1385   22.8485 C   0  0  0  0  0  0
  -24.1491  -36.7290   23.2635 C   0  0  0  0  0  0
  -25.9720  -30.7796   21.3875 C   0  0  0  0  0  0
  -26.0414  -29.4091   20.7226 C   0  0  0  0  0  0
  -27.2133  -28.5858   20.7207 C   0  0  0  0  0  0
  -26.0077  -26.9277   19.4369 C   0  0  0  0  0  0
  -24.8540  -27.7223   19.4555 C   0  0  0  0  0  0
  -23.6386  -29.8403   20.1616 C   0  0  0  0  0  0
  -25.4115  -36.3083   24.0331 C   0  0  1  0  0  0
  -20.5897  -28.3698   23.1268 C   0  0  2  0  0  0
  -20.6784  -26.9418   22.5401 C   0  0  0  0  0  0
  -19.5755  -26.6385   21.5209 C   0  0  0  0  0  0
  -18.1937  -26.7928   22.1625 C   0  0  0  0  0  0
  -19.1546  -28.8858   23.2873 C   0  0  0  0  0  0
  -18.9466  -30.1458   23.8892 C   0  0  0  0  0  0
  -17.6465  -30.6587   24.0561 C   0  0  0  0  0  0
  -25.9058  -34.9452   23.5110 C   0  0  0  0  0  0
  -16.5357  -29.9083   23.6332 C   0  0  0  0  0  0
  -16.7279  -28.6500   23.0354 C   0  0  0  0  0  0
  -26.4512  -31.6586   25.0753 C   0  0  0  0  0  0
  -25.3735  -31.3730   26.1471 C   0  0  0  0  0  0
  -27.0356  -30.2999   24.6234 C   0  0  0  0  0  0
  -27.6068  -32.4322   25.7523 C   0  0  0  0  0  0
  -27.5583  -37.1800   24.8462 C   0  0  0  0  0  0
  -21.4207  -29.3053   22.3664 N   0  0  0  0  0  0
  -26.4290  -37.3780   23.9412 N   0  0  0  0  0  0
  -24.6942  -31.0597   22.1036 N   0  0  0  0  0  0
  -23.4212  -28.8154   23.2997 O   0  0  0  0  0  0
  -28.2734  -26.3618   20.1887 O   0  0  0  0  0  0
  -26.5616  -34.8916   22.4670 O   0  0  0  0  0  0
  -23.5456  -32.1421   23.7367 O   0  0  0  0  0  0
  -30.4525  -22.1629   21.0843 C   0  0  0  0  0  0
  -29.9456  -23.4859   20.8762 C   0  0  0  0  0  0
  -28.7003  -23.6237   20.2087 C   0  0  0  0  0  0
  -29.7219  -21.0253   20.6376 C   0  0  0  0  0  0
  -28.9452  -17.7623   21.8129 C   0  0  0  0  0  0
  -28.9378  -16.2244   21.6049 C   0  0  0  0  0  0
  -30.5538  -17.1914   20.1779 C   0  0  0  0  0  0
  -29.5914  -18.3739   20.5679 C   0  0  2  0  0  0
  -30.2393  -25.1819   22.7349 C   0  0  0  0  0  0
  -30.7284  -24.6911   21.3670 C   0  0  0  0  0  0
  -27.9050  -24.9486   19.8662 C   0  0  0  0  0  0
  -28.0536  -22.4788   19.8105 N   0  0  0  0  0  0
  -28.5331  -21.2283   20.0135 N   0  0  0  0  0  0
  -30.0132  -15.8793   20.6656 N   0  0  0  0  0  0
  -30.2425  -19.7008   20.8138 N   0  0  0  0  0  0
  -31.4655  -12.5295   19.1481 H   0  0  0  0  0  0
  -30.3584  -11.4391   19.9211 H   0  0  0  0  0  0
  -29.7717  -11.7488   17.4939 H   0  0  0  0  0  0
  -29.6371  -13.4740   17.7290 H   0  0  0  0  0  0
  -27.8682  -11.2939   18.8793 H   0  0  0  0  0  0
  -27.3687  -12.5654   17.7962 H   0  0  0  0  0  0
  -27.6565  -14.2564   19.5070 H   0  0  0  0  0  0
  -28.7310  -12.0785   21.3605 H   0  0  0  0  0  0
  -28.4303  -13.7057   21.8509 H   0  0  0  0  0  0
  -25.2764   -9.5679   22.4765 H   0  0  0  0  0  0
  -24.0002   -7.4629   22.7474 H   0  0  0  0  0  0
  -21.0845   -8.8774   19.8951 H   0  0  0  0  0  0
  -22.3703  -10.9673   19.6169 H   0  0  0  0  0  0
  -21.2005   -7.6148   23.9714 H   0  0  0  0  0  0
  -21.1483   -6.0522   25.9076 H   0  0  0  0  0  0
  -22.0599   -2.7608   23.2844 H   0  0  0  0  0  0
  -22.4093  -11.9872   22.4806 H   0  0  0  0  0  0
  -21.1089  -13.1231   22.2630 H   0  0  0  0  0  0
  -24.6438  -15.8401   20.5062 H   0  0  0  0  0  0
  -26.2598  -15.6292   20.0605 H   0  0  0  0  0  0
  -26.7208  -32.5436   23.1123 H   0  0  0  0  0  0
  -25.0109  -33.9730   25.0450 H   0  0  0  0  0  0
  -22.7184  -31.3131   21.4134 H   0  0  0  0  0  0
  -23.3756  -35.9620   23.3294 H   0  0  0  0  0  0
  -24.3586  -36.8912   22.2051 H   0  0  0  0  0  0
  -23.7241  -37.6492   23.6655 H   0  0  0  0  0  0
  -26.1149  -31.5450   20.6235 H   0  0  0  0  0  0
  -26.8489  -30.8198   22.0219 H   0  0  0  0  0  0
  -28.1055  -28.9207   21.2312 H   0  0  0  0  0  0
  -25.8984  -26.0023   18.8937 H   0  0  0  0  0  0
  -23.9592  -27.3765   18.9561 H   0  0  0  0  0  0
  -23.7622  -30.6241   19.4135 H   0  0  0  0  0  0
  -22.7564  -29.2767   19.8524 H   0  0  0  0  0  0
  -25.1291  -36.1936   25.0823 H   0  0  0  0  0  0
  -20.9990  -28.3271   24.1388 H   0  0  0  0  0  0
  -20.5690  -26.2308   23.3604 H   0  0  0  0  0  0
  -21.6650  -26.7448   22.1189 H   0  0  0  0  0  0
  -19.6917  -25.6295   21.1241 H   0  0  0  0  0  0
  -19.6688  -27.3193   20.6737 H   0  0  0  0  0  0
  -17.4204  -26.6672   21.4030 H   0  0  0  0  0  0
  -18.0342  -26.0071   22.9024 H   0  0  0  0  0  0
  -19.7942  -30.7277   24.2259 H   0  0  0  0  0  0
  -17.5019  -31.6267   24.5162 H   0  0  0  0  0  0
  -15.5357  -30.2983   23.7659 H   0  0  0  0  0  0
  -15.8679  -28.0817   22.7072 H   0  0  0  0  0  0
  -24.5919  -30.7067   25.7800 H   0  0  0  0  0  0
  -24.8915  -32.2896   26.4881 H   0  0  0  0  0  0
  -25.8053  -30.8921   27.0257 H   0  0  0  0  0  0
  -26.2944  -29.6751   24.1238 H   0  0  0  0  0  0
  -27.4013  -29.7257   25.4756 H   0  0  0  0  0  0
  -27.8837  -30.4268   23.9501 H   0  0  0  0  0  0
  -27.2680  -33.3624   26.2095 H   0  0  0  0  0  0
  -28.3882  -32.6876   25.0353 H   0  0  0  0  0  0
  -28.0733  -31.8450   26.5444 H   0  0  0  0  0  0
  -28.2587  -38.0110   24.7527 H   0  0  0  0  0  0
  -28.1092  -36.2643   24.6263 H   0  0  0  0  0  0
  -27.2305  -37.1417   25.8866 H   0  0  0  0  0  0
  -20.9383  -29.8795   21.6891 H   0  0  0  0  0  0
  -26.0170  -38.2853   24.1421 H   0  0  0  0  0  0
  -31.4000  -22.0272   21.5844 H   0  0  0  0  0  0
  -29.5481  -17.9905   22.6935 H   0  0  0  0  0  0
  -27.9460  -18.1592   21.9982 H   0  0  0  0  0  0
  -27.9834  -15.9191   21.1808 H   0  0  0  0  0  0
  -29.0635  -15.7153   22.5614 H   0  0  0  0  0  0
  -31.5323  -17.3392   20.6386 H   0  0  0  0  0  0
  -30.7139  -17.1602   19.0989 H   0  0  0  0  0  0
  -28.8322  -18.4790   19.7905 H   0  0  0  0  0  0
  -30.8184  -26.0437   23.0675 H   0  0  0  0  0  0
  -30.3391  -24.4034   23.4920 H   0  0  0  0  0  0
  -29.1918  -25.4830   22.6996 H   0  0  0  0  0  0
  -30.6636  -25.4940   20.6320 H   0  0  0  0  0  0
  -31.7861  -24.4321   21.4292 H   0  0  0  0  0  0
  -26.9433  -24.7484   20.3418 H   0  0  0  0  0  0
  -27.7524  -24.9027   18.7871 H   0  0  0  0  0  0
  -31.1503  -19.6636   21.2643 H   0  0  0  0  0  0
  1 25  1  0  0  0
  1 30  2  0  0  0
  1 84  1  0  0  0
  2  3  1  0  0  0
  2 25  1  0  0  0
  2 86  1  0  0  0
  2 87  1  0  0  0
  3  4  1  0  0  0
  3 88  1  0  0  0
  3 89  1  0  0  0
  4  5  1  0  0  0
  4 90  1  0  0  0
  4 91  1  0  0  0
  5  6  1  0  0  0
  5 26  1  0  0  0
  5 92  1  0  0  0
  6 25  1  0  0  0
  6 93  1  0  0  0
  6 94  1  0  0  0
  7  8  2  0  0  0
  7 26  1  0  0  0
  7 29  1  0  0  0
  8  9  1  0  0  0
  8 22  1  0  0  0
  9 10  1  0  0  0
  9 27  2  0  0  0
 10 11  2  0  0  0
 10 15  1  0  0  0
 11 12  1  0  0  0
 11 95  1  0  0  0
 12 13  2  0  0  0
 12 96  1  0  0  0
 13 14  1  0  0  0
 13 31  1  0  0  0
 14 15  2  0  0  0
 14 97  1  0  0  0
 15 98  1  0  0  0
 16 17  2  0  0  0
 16 21  1  0  0  0
 16 31  1  0  0  0
 17 18  1  0  0  0
 17 99  1  0  0  0
 18 19  2  0  0  0
 18100  1  0  0  0
 19 20  1  0  0  0
 19 24  1  0  0  0
 20 21  2  0  0  0
 20101  1  0  0  0
 21 23  1  0  0  0
 22 28  1  0  0  0
 22 32  2  0  0  0
 26 27  1  0  0  0
 28102  1  0  0  0
 28103  1  0  0  0
 29104  1  0  0  0
 29105  1  0  0  0
 33 34  1  0  0  0
 33 66  1  0  0  0
 33 70  2  0  0  0
 34 36  1  0  0  0
 34 59  1  0  0  0
 34106  1  0  0  0
 35 44  2  0  0  0
 35 45  1  0  0  0
 35 68  1  0  0  0
 36 56  1  0  0  0
 36107  1  0  0  0
 37 39  1  0  0  0
 37 47  1  0  0  0
 37 66  1  0  0  0
 37108  1  0  0  0
 38 43  2  0  0  0
 38 46  1  0  0  0
 38 47  1  0  0  0
 39 64  1  0  0  0
 39 67  2  0  0  0
 40 52  1  0  0  0
 40 53  2  0  0  0
 40 58  1  0  0  0
 41109  1  0  0  0
 41110  1  0  0  0
 41111  1  0  0  0
 41 48  1  0  0  0
 42 43  1  0  0  0
 42 66  1  0  0  0
 42112  1  0  0  0
 42113  1  0  0  0
 43 44  1  0  0  0
 44114  1  0  0  0
 45 46  2  0  0  0
 45115  1  0  0  0
 46116  1  0  0  0
 47117  1  0  0  0
 47118  1  0  0  0
 48 56  1  0  0  0
 48 65  1  0  0  0
 48119  1  0  0  0
 49 50  1  0  0  0
 49 53  1  0  0  0
 49 64  1  0  0  0
 49120  1  0  0  0
 50 51  1  0  0  0
 50121  1  0  0  0
 50122  1  0  0  0
 51 52  1  0  0  0
 51123  1  0  0  0
 51124  1  0  0  0
 52125  1  0  0  0
 52126  1  0  0  0
 53 54  1  0  0  0
 54 55  2  0  0  0
 54127  1  0  0  0
 55 57  1  0  0  0
 55128  1  0  0  0
 56 69  2  0  0  0
 57 58  2  0  0  0
 57129  1  0  0  0
 58130  1  0  0  0
 59 60  1  0  0  0
 59 61  1  0  0  0
 59 62  1  0  0  0
 60131  1  0  0  0
 60132  1  0  0  0
 60133  1  0  0  0
 61134  1  0  0  0
 61135  1  0  0  0
 61136  1  0  0  0
 62137  1  0  0  0
 62138  1  0  0  0
 62139  1  0  0  0
 63 65  1  0  0  0
 63140  1  0  0  0
 63141  1  0  0  0
 63142  1  0  0  0
 64143  1  0  0  0
 65144  1  0  0  0
 68 81  1  0  0  0
 71 72  2  0  0  0
 71 74  1  0  0  0
 71145  1  0  0  0
 72 73  1  0  0  0
 72 80  1  0  0  0
 73 81  1  0  0  0
 73 82  2  0  0  0
 74 83  2  0  0  0
 74 85  1  0  0  0
 75 76  1  0  0  0
 75 78  1  0  0  0
 75146  1  0  0  0
 75147  1  0  0  0
 76 84  1  0  0  0
 76148  1  0  0  0
 76149  1  0  0  0
 77 78  1  0  0  0
 77 84  1  0  0  0
 77150  1  0  0  0
 77151  1  0  0  0
 78 85  1  0  0  0
 78152  1  0  0  0
 79 80  1  0  0  0
 79153  1  0  0  0
 79154  1  0  0  0
 79155  1  0  0  0
 80156  1  0  0  0
 80157  1  0  0  0
 81158  1  0  0  0
 81159  1  0  0  0
 82 83  1  0  0  0
 85160  1  0  0  0
M  ISO  4   1 100  68 101  81 101  84 100
M  END
> <chiral flag>
0

> <version>
0

> <s_m_source_file>
/data/baiqing/PycharmProjects/Reinvent-master-3.2/result/LINK_invent/BTK/process_docking_weight1_custom_sum_contain_oxygen_bond_distance_aromatic_linkinvent_7_9_3/rearranged_h_0189.sdf

> <i_m_source_file_index>
86

> <r_mmod_Potential_Energy-OPLS-2005>
289.744232177734

> <r_mmod_Stretch_Energy-OPLS-2005>
90.6806030273438

> <r_mmod_Bend_Energy-OPLS-2005>
216.714309692383

> <r_mmod_Torsional_Energy-OPLS-2005>
301.435729980469

> <r_mmod_Improper_Torsional_Energy-OPLS-2005>
11.1363306045532

> <r_mmod_Van_der_Waal_Energy-OPLS-2005>
150.031448364258

> <r_mmod_Electrostatic_Energy-OPLS-2005>
-318.603973388672

> <r_mmod_Solvation_Energy-OPLS-2005>
-228.181579589844

> <b_mmod_Minimization_Converged-OPLS-2005>
0

> <r_mmod_RMS_Derivative-OPLS-2005>
0.183313801884651

$$$$
87
                    3D
 Structure written by MMmdl.
155163  0  0  1  0            999 V2000
  -30.5785  -14.9887   20.4353 C   0  0  0  0  0  0
  -30.4321  -12.6249   19.4999 C   0  0  0  0  0  0
  -29.5158  -12.5303   18.2586 C   0  0  0  0  0  0
  -28.0549  -12.2961   18.6831 C   0  0  0  0  0  0
  -27.6225  -13.2416   19.8316 C   0  0  2  0  0  0
  -28.6691  -13.3036   20.9690 C   0  0  0  0  0  0
  -25.2370  -13.8161   20.5654 C   0  0  0  0  0  0
  -24.1727  -13.0388   20.9240 C   0  0  0  0  0  0
  -24.6372  -11.6890   20.8783 C   0  0  0  0  0  0
  -23.9066  -10.4266   21.0425 C   0  0  0  0  0  0
  -24.3617   -9.4183   21.9199 C   0  0  0  0  0  0
  -23.6290   -8.2221   22.0759 C   0  0  0  0  0  0
  -22.4273   -8.0268   21.3545 C   0  0  0  0  0  0
  -21.9911   -9.0242   20.4647 C   0  0  0  0  0  0
  -22.7244  -10.2117   20.3064 C   0  0  0  0  0  0
  -21.6848   -6.0729   22.5280 C   0  0  0  0  0  0
  -21.4012   -6.5635   23.8213 C   0  0  0  0  0  0
  -21.3660   -5.6789   24.9175 C   0  0  0  0  0  0
  -21.6044   -4.3052   24.7226 C   0  0  0  0  0  0
  -21.8820   -3.8143   23.4348 C   0  0  0  0  0  0
  -21.9191   -4.6958   22.3404 C   0  0  0  0  0  0
  -22.7752  -13.5167   21.1891 C   0  0  0  0  0  0
  -22.1660   -4.2145   21.0981 F   0  0  0  0  0  0
  -21.5628   -3.4538   25.7740 F   0  0  0  0  0  0
  -29.9333  -13.7443   20.3608 N   0  0  0  0  0  0
  -26.2834  -12.9414   20.3229 N   0  0  0  0  0  0
  -25.9304  -11.6551   20.5774 N   0  0  0  0  0  0
  -22.0408  -12.8170   22.0460 N   0  0  0  0  0  0
  -25.3840  -15.1880   20.3948 N   0  0  0  0  0  0
  -31.7838  -14.9769   20.1582 O   0  0  0  0  0  0
  -21.6633   -6.8870   21.4241 O   0  0  0  0  0  0
  -22.3440  -14.5474   20.6732 O   0  0  0  0  0  0
  -24.6448  -31.8424   23.1869 C   0  0  0  0  0  0
  -25.9211  -32.4688   23.8264 C   0  0  1  0  0  0
  -27.2167  -27.1154   20.1604 C   0  0  0  0  0  0
  -25.5949  -33.8495   24.2176 N   0  0  0  0  0  0
  -23.4498  -30.4611   21.5331 C   0  0  2  0  0  0
  -24.9000  -28.8830   20.1144 C   0  0  0  0  0  0
  -22.7575  -29.4537   22.4855 C   0  0  0  0  0  0
  -18.0305  -28.1397   22.8476 C   0  0  0  0  0  0
  -24.1492  -36.7256   23.2643 C   0  0  0  0  0  0
  -26.0078  -30.7091   21.3903 C   0  0  0  0  0  0
  -26.0785  -29.3178   20.7340 C   0  0  0  0  0  0
  -27.2388  -28.4518   20.7369 C   0  0  0  0  0  0
  -26.0144  -26.7915   19.4940 C   0  0  0  0  0  0
  -24.8818  -27.6337   19.4779 C   0  0  0  0  0  0
  -23.6782  -29.7884   20.1538 C   0  0  0  0  0  0
  -25.4125  -36.3028   24.0311 C   0  0  1  0  0  0
  -20.5919  -28.3723   23.1231 C   0  0  2  0  0  0
  -20.6788  -26.9424   22.5404 C   0  0  0  0  0  0
  -19.5762  -26.6380   21.5212 C   0  0  0  0  0  0
  -18.1943  -26.7934   22.1623 C   0  0  0  0  0  0
  -19.1562  -28.8878   23.2845 C   0  0  0  0  0  0
  -18.9479  -30.1474   23.8872 C   0  0  0  0  0  0
  -17.6475  -30.6593   24.0558 C   0  0  0  0  0  0
  -25.9076  -34.9403   23.5054 C   0  0  0  0  0  0
  -16.5365  -29.9085   23.6338 C   0  0  0  0  0  0
  -16.7289  -28.6504   23.0358 C   0  0  0  0  0  0
  -26.4521  -31.6569   25.0720 C   0  0  0  0  0  0
  -25.3695  -31.3770   26.1407 C   0  0  0  0  0  0
  -27.0394  -30.2960   24.6330 C   0  0  0  0  0  0
  -27.6039  -32.4347   25.7511 C   0  0  0  0  0  0
  -27.5575  -37.1784   24.8464 C   0  0  0  0  0  0
  -21.4266  -29.3047   22.3603 N   0  0  0  0  0  0
  -26.4286  -37.3742   23.9406 N   0  0  0  0  0  0
  -24.7207  -31.0259   22.0915 N   0  0  0  0  0  0
  -23.4208  -28.8084   23.3013 O   0  0  0  0  0  0
  -28.2698  -26.1226   20.1957 O   0  0  0  0  0  0
  -26.5669  -34.8902   22.4639 O   0  0  0  0  0  0
  -23.5563  -32.1311   23.7074 O   0  0  0  0  0  0
  -28.1859  -18.1015   20.6763 C   0  0  0  0  0  0
  -28.5631  -16.6056   21.0252 C   0  0  0  0  0  0
  -30.4373  -17.6933   20.1924 C   0  0  0  0  0  0
  -29.4813  -18.9218   20.7268 C   0  0  1  0  0  0
  -28.6764  -21.6514   20.6378 C   0  0  0  0  0  0
  -27.9839  -24.5992   20.4410 C   0  0  0  0  0  0
  -28.9599  -23.2456   20.1130 C   0  0  1  0  0  0
  -29.9115  -16.2680   20.5243 N   0  0  0  0  0  0
  -30.2919  -23.5941   20.5813 N   0  0  0  0  0  0
  -29.5026  -20.3996   20.1154 N   0  3  0  0  0  0
  -31.4632  -12.7750   19.1773 H   0  0  0  0  0  0
  -30.4350  -11.6834   20.0517 H   0  0  0  0  0  0
  -29.8485  -11.7263   17.6008 H   0  0  0  0  0  0
  -29.5874  -13.4520   17.6788 H   0  0  0  0  0  0
  -27.9694  -11.2589   19.0095 H   0  0  0  0  0  0
  -27.3871  -12.4024   17.8272 H   0  0  0  0  0  0
  -27.5705  -14.2220   19.3621 H   0  0  0  0  0  0
  -28.7799  -12.3304   21.4500 H   0  0  0  0  0  0
  -28.3569  -13.9893   21.7563 H   0  0  0  0  0  0
  -25.2757   -9.5660   22.4782 H   0  0  0  0  0  0
  -23.9992   -7.4611   22.7480 H   0  0  0  0  0  0
  -21.0841   -8.8766   19.8954 H   0  0  0  0  0  0
  -22.3704  -10.9661   19.6178 H   0  0  0  0  0  0
  -21.2004   -7.6144   23.9715 H   0  0  0  0  0  0
  -21.1482   -6.0519   25.9078 H   0  0  0  0  0  0
  -22.0598   -2.7605   23.2848 H   0  0  0  0  0  0
  -22.4027  -11.9837   22.4856 H   0  0  0  0  0  0
  -21.1027  -13.1197   22.2670 H   0  0  0  0  0  0
  -24.6009  -15.8240   20.4983 H   0  0  0  0  0  0
  -26.2103  -15.6358   20.0232 H   0  0  0  0  0  0
  -26.7277  -32.5285   23.0991 H   0  0  0  0  0  0
  -25.0053  -33.9608   25.0293 H   0  0  0  0  0  0
  -22.7533  -31.2875   21.3767 H   0  0  0  0  0  0
  -23.3756  -35.9585   23.3292 H   0  0  0  0  0  0
  -24.3575  -36.8905   22.2060 H   0  0  0  0  0  0
  -23.7244  -37.6445   23.6694 H   0  0  0  0  0  0
  -26.1675  -31.4617   20.6169 H   0  0  0  0  0  0
  -26.8764  -30.7592   22.0353 H   0  0  0  0  0  0
  -28.1380  -28.7826   21.2376 H   0  0  0  0  0  0
  -25.9221  -25.8484   18.9777 H   0  0  0  0  0  0
  -23.9855  -27.2990   18.9738 H   0  0  0  0  0  0
  -23.8185  -30.5619   19.3980 H   0  0  0  0  0  0
  -22.7925  -29.2324   19.8414 H   0  0  0  0  0  0
  -25.1315  -36.1852   25.0804 H   0  0  0  0  0  0
  -21.0010  -28.3314   24.1353 H   0  0  0  0  0  0
  -20.5680  -26.2335   23.3623 H   0  0  0  0  0  0
  -21.6653  -26.7426   22.1202 H   0  0  0  0  0  0
  -19.6922  -25.6284   21.1257 H   0  0  0  0  0  0
  -19.6700  -27.3176   20.6731 H   0  0  0  0  0  0
  -17.4211  -26.6677   21.4029 H   0  0  0  0  0  0
  -18.0345  -26.0084   22.9029 H   0  0  0  0  0  0
  -19.7954  -30.7297   24.2229 H   0  0  0  0  0  0
  -17.5028  -31.6271   24.5164 H   0  0  0  0  0  0
  -15.5364  -30.2978   23.7678 H   0  0  0  0  0  0
  -15.8689  -28.0814   22.7088 H   0  0  0  0  0  0
  -24.5875  -30.7121   25.7722 H   0  0  0  0  0  0
  -24.8883  -32.2960   26.4767 H   0  0  0  0  0  0
  -25.7962  -30.8980   27.0227 H   0  0  0  0  0  0
  -26.3022  -29.6674   24.1320 H   0  0  0  0  0  0
  -27.3973  -29.7271   25.4921 H   0  0  0  0  0  0
  -27.8944  -30.4186   23.9677 H   0  0  0  0  0  0
  -27.2617  -33.3664   26.2027 H   0  0  0  0  0  0
  -28.3880  -32.6885   25.0367 H   0  0  0  0  0  0
  -28.0675  -31.8520   26.5480 H   0  0  0  0  0  0
  -28.2581  -38.0091   24.7508 H   0  0  0  0  0  0
  -28.1081  -36.2618   24.6293 H   0  0  0  0  0  0
  -27.2291  -37.1433   25.8866 H   0  0  0  0  0  0
  -20.9478  -29.8761   21.6781 H   0  0  0  0  0  0
  -26.0151  -38.2809   24.1410 H   0  0  0  0  0  0
  -27.4249  -18.4962   21.3505 H   0  0  0  0  0  0
  -27.7713  -18.1413   19.6680 H   0  0  0  0  0  0
  -27.8195  -15.9416   20.6120 H   0  0  0  0  0  0
  -28.5575  -16.4628   22.1069 H   0  0  0  0  0  0
  -31.4478  -17.8085   20.5862 H   0  0  0  0  0  0
  -30.5261  -17.7526   19.1071 H   0  0  0  0  0  0
  -29.7244  -19.0581   21.7818 H   0  0  0  0  0  0
  -27.6310  -21.4230   20.4266 H   0  0  0  0  0  0
  -28.7457  -21.6401   21.7258 H   0  0  0  0  0  0
  -27.7612  -24.5500   21.5074 H   0  0  0  0  0  0
  -27.0320  -24.3591   19.9735 H   0  0  0  0  0  0
  -29.0179  -23.1945   19.0247 H   0  0  0  0  0  0
  -30.2547  -23.7448   21.5851 H   0  0  0  0  0  0
  -30.5122  -24.5167   20.2159 H   0  0  0  0  0  0
  -29.3118  -20.3252   19.1304 H   0  0  0  0  0  0
  -30.4595  -20.7089   20.1828 H   0  0  0  0  0  0
  1 25  1  0  0  0
  1 30  2  0  0  0
  1 78  1  0  0  0
  2  3  1  0  0  0
  2 25  1  0  0  0
  2 81  1  0  0  0
  2 82  1  0  0  0
  3  4  1  0  0  0
  3 83  1  0  0  0
  3 84  1  0  0  0
  4  5  1  0  0  0
  4 85  1  0  0  0
  4 86  1  0  0  0
  5  6  1  0  0  0
  5 26  1  0  0  0
  5 87  1  0  0  0
  6 25  1  0  0  0
  6 88  1  0  0  0
  6 89  1  0  0  0
  7  8  2  0  0  0
  7 26  1  0  0  0
  7 29  1  0  0  0
  8  9  1  0  0  0
  8 22  1  0  0  0
  9 10  1  0  0  0
  9 27  2  0  0  0
 10 11  2  0  0  0
 10 15  1  0  0  0
 11 12  1  0  0  0
 11 90  1  0  0  0
 12 13  2  0  0  0
 12 91  1  0  0  0
 13 14  1  0  0  0
 13 31  1  0  0  0
 14 15  2  0  0  0
 14 92  1  0  0  0
 15 93  1  0  0  0
 16 17  2  0  0  0
 16 21  1  0  0  0
 16 31  1  0  0  0
 17 18  1  0  0  0
 17 94  1  0  0  0
 18 19  2  0  0  0
 18 95  1  0  0  0
 19 20  1  0  0  0
 19 24  1  0  0  0
 20 21  2  0  0  0
 20 96  1  0  0  0
 21 23  1  0  0  0
 22 28  1  0  0  0
 22 32  2  0  0  0
 26 27  1  0  0  0
 28 97  1  0  0  0
 28 98  1  0  0  0
 29 99  1  0  0  0
 29100  1  0  0  0
 33 34  1  0  0  0
 33 66  1  0  0  0
 33 70  2  0  0  0
 34 36  1  0  0  0
 34 59  1  0  0  0
 34101  1  0  0  0
 35 44  2  0  0  0
 35 45  1  0  0  0
 35 68  1  0  0  0
 36 56  1  0  0  0
 36102  1  0  0  0
 37 39  1  0  0  0
 37 47  1  0  0  0
 37 66  1  0  0  0
 37103  1  0  0  0
 38 43  2  0  0  0
 38 46  1  0  0  0
 38 47  1  0  0  0
 39 64  1  0  0  0
 39 67  2  0  0  0
 40 52  1  0  0  0
 40 53  2  0  0  0
 40 58  1  0  0  0
 41104  1  0  0  0
 41105  1  0  0  0
 41106  1  0  0  0
 41 48  1  0  0  0
 42 43  1  0  0  0
 42 66  1  0  0  0
 42107  1  0  0  0
 42108  1  0  0  0
 43 44  1  0  0  0
 44109  1  0  0  0
 45 46  2  0  0  0
 45110  1  0  0  0
 46111  1  0  0  0
 47112  1  0  0  0
 47113  1  0  0  0
 48 56  1  0  0  0
 48 65  1  0  0  0
 48114  1  0  0  0
 49 50  1  0  0  0
 49 53  1  0  0  0
 49 64  1  0  0  0
 49115  1  0  0  0
 50 51  1  0  0  0
 50116  1  0  0  0
 50117  1  0  0  0
 51 52  1  0  0  0
 51118  1  0  0  0
 51119  1  0  0  0
 52120  1  0  0  0
 52121  1  0  0  0
 53 54  1  0  0  0
 54 55  2  0  0  0
 54122  1  0  0  0
 55 57  1  0  0  0
 55123  1  0  0  0
 56 69  2  0  0  0
 57 58  2  0  0  0
 57124  1  0  0  0
 58125  1  0  0  0
 59 60  1  0  0  0
 59 61  1  0  0  0
 59 62  1  0  0  0
 60126  1  0  0  0
 60127  1  0  0  0
 60128  1  0  0  0
 61129  1  0  0  0
 61130  1  0  0  0
 61131  1  0  0  0
 62132  1  0  0  0
 62133  1  0  0  0
 62134  1  0  0  0
 63 65  1  0  0  0
 63135  1  0  0  0
 63136  1  0  0  0
 63137  1  0  0  0
 64138  1  0  0  0
 65139  1  0  0  0
 68 76  1  0  0  0
 71 72  1  0  0  0
 71 74  1  0  0  0
 71140  1  0  0  0
 71141  1  0  0  0
 72 78  1  0  0  0
 72142  1  0  0  0
 72143  1  0  0  0
 73 74  1  0  0  0
 73 78  1  0  0  0
 73144  1  0  0  0
 73145  1  0  0  0
 74 80  1  0  0  0
 74146  1  0  0  0
 75 77  1  0  0  0
 75 80  1  0  0  0
 75147  1  0  0  0
 75148  1  0  0  0
 76 77  1  0  0  0
 76149  1  0  0  0
 76150  1  0  0  0
 77 79  1  0  0  0
 77151  1  0  0  0
 79152  1  0  0  0
 79153  1  0  0  0
 80154  1  0  0  0
 80155  1  0  0  0
M  CHG  1  80   1
M  ISO  4   1 100  68 101  76 101  78 100
M  END
> <chiral flag>
0

> <version>
0

> <s_m_source_file>
/data/baiqing/PycharmProjects/Reinvent-master-3.2/result/LINK_invent/BTK/process_docking_weight1_custom_sum_contain_oxygen_bond_distance_aromatic_linkinvent_7_9_3/rearranged_h_0189.sdf

> <i_m_source_file_index>
87

> <r_mmod_Potential_Energy-OPLS-2005>
520.281799316406

> <r_mmod_Stretch_Energy-OPLS-2005>
275.367462158203

> <r_mmod_Bend_Energy-OPLS-2005>
310.360565185547

> <r_mmod_Torsional_Energy-OPLS-2005>
321.876007080078

> <r_mmod_Improper_Torsional_Energy-OPLS-2005>
6.73347043991089

> <r_mmod_Van_der_Waal_Energy-OPLS-2005>
112.619400024414

> <r_mmod_Electrostatic_Energy-OPLS-2005>
-247.81770324707

> <r_mmod_Solvation_Energy-OPLS-2005>
-470.420288085938

> <b_mmod_Minimization_Converged-OPLS-2005>
0

> <r_mmod_RMS_Derivative-OPLS-2005>
0.316127210855484

$$$$
88
                    3D
 Structure written by MMmdl.
164173  0  0  1  0            999 V2000
  -30.7595  -14.3660   20.6582 C   0  0  0  0  0  0
  -30.4138  -12.2711   19.4027 C   0  0  0  0  0  0
  -29.4861  -12.5179   18.1974 C   0  0  0  0  0  0
  -28.0082  -12.3830   18.6106 C   0  0  0  0  0  0
  -27.6678  -13.2013   19.8841 C   0  0  2  0  0  0
  -28.7046  -12.9345   20.9988 C   0  0  0  0  0  0
  -25.2608  -13.8155   20.5678 C   0  0  0  0  0  0
  -24.1845  -13.0438   20.9159 C   0  0  0  0  0  0
  -24.6392  -11.6904   20.8726 C   0  0  0  0  0  0
  -23.9057  -10.4293   21.0400 C   0  0  0  0  0  0
  -24.3612   -9.4209   21.9179 C   0  0  0  0  0  0
  -23.6291   -8.2243   22.0753 C   0  0  0  0  0  0
  -22.4272   -8.0280   21.3543 C   0  0  0  0  0  0
  -21.9904   -9.0252   20.4645 C   0  0  0  0  0  0
  -22.7229  -10.2132   20.3052 C   0  0  0  0  0  0
  -21.6851   -6.0736   22.5282 C   0  0  0  0  0  0
  -21.4013   -6.5640   23.8214 C   0  0  0  0  0  0
  -21.3659   -5.6793   24.9176 C   0  0  0  0  0  0
  -21.6044   -4.3057   24.7226 C   0  0  0  0  0  0
  -21.8819   -3.8148   23.4348 C   0  0  0  0  0  0
  -21.9193   -4.6964   22.3405 C   0  0  0  0  0  0
  -22.7870  -13.5242   21.1835 C   0  0  0  0  0  0
  -22.1661   -4.2151   21.0982 F   0  0  0  0  0  0
  -21.5629   -3.4540   25.7738 F   0  0  0  0  0  0
  -30.0500  -13.2221   20.4640 N   0  0  0  0  0  0
  -26.3050  -12.9320   20.3401 N   0  0  0  0  0  0
  -25.9319  -11.6482   20.5769 N   0  0  0  0  0  0
  -22.0513  -12.8232   22.0392 N   0  0  0  0  0  0
  -25.4353  -15.1871   20.4101 N   0  0  0  0  0  0
  -31.8092  -14.5969   20.0445 O   0  0  0  0  0  0
  -21.6637   -6.8876   21.4242 O   0  0  0  0  0  0
  -22.3557  -14.5555   20.6696 O   0  0  0  0  0  0
  -24.6097  -31.8711   23.2129 C   0  0  0  0  0  0
  -25.9010  -32.4839   23.8409 C   0  0  1  0  0  0
  -27.2356  -27.4749   20.0854 C   0  0  0  0  0  0
  -25.5881  -33.8636   24.2344 N   0  0  0  0  0  0
  -23.3948  -30.4947   21.5529 C   0  0  2  0  0  0
  -24.8395  -28.9645   20.1155 C   0  0  0  0  0  0
  -22.7381  -29.4672   22.5010 C   0  0  0  0  0  0
  -18.0263  -28.1372   22.8493 C   0  0  0  0  0  0
  -24.1485  -36.7322   23.2638 C   0  0  0  0  0  0
  -25.9189  -30.8487   21.3593 C   0  0  0  0  0  0
  -25.9960  -29.4859   20.7071 C   0  0  0  0  0  0
  -27.1962  -28.7482   20.6878 C   0  0  0  0  0  0
  -26.0625  -26.9578   19.4880 C   0  0  0  0  0  0
  -24.8655  -27.6976   19.5057 C   0  0  0  0  0  0
  -23.5995  -29.8262   20.1669 C   0  0  0  0  0  0
  -25.4104  -36.3122   24.0343 C   0  0  1  0  0  0
  -20.5851  -28.3646   23.1333 C   0  0  2  0  0  0
  -20.6754  -26.9388   22.5421 C   0  0  0  0  0  0
  -19.5739  -26.6382   21.5210 C   0  0  0  0  0  0
  -18.1913  -26.7923   22.1618 C   0  0  0  0  0  0
  -19.1512  -28.8825   23.2913 C   0  0  0  0  0  0
  -18.9446  -30.1434   23.8921 C   0  0  0  0  0  0
  -17.6451  -30.6580   24.0566 C   0  0  0  0  0  0
  -25.9026  -34.9485   23.5140 C   0  0  0  0  0  0
  -16.5339  -29.9088   23.6323 C   0  0  0  0  0  0
  -16.7255  -28.6503   23.0344 C   0  0  0  0  0  0
  -26.4454  -31.6607   25.0719 C   0  0  0  0  0  0
  -25.3739  -31.3710   26.1483 C   0  0  0  0  0  0
  -27.0275  -30.3057   24.6062 C   0  0  0  0  0  0
  -27.6041  -32.4315   25.7474 C   0  0  0  0  0  0
  -27.5584  -37.1811   24.8463 C   0  0  0  0  0  0
  -21.4112  -29.3025   22.3749 N   0  0  0  0  0  0
  -26.4294  -37.3802   23.9411 N   0  0  0  0  0  0
  -24.6593  -31.0847   22.1009 N   0  0  0  0  0  0
  -23.4179  -28.8211   23.3028 O   0  0  0  0  0  0
  -28.4313  -26.7990   20.0867 O   0  0  0  0  0  0
  -26.5588  -34.8929   22.4701 O   0  0  0  0  0  0
  -23.5304  -32.1438   23.7555 O   0  0  0  0  0  0
  -29.4175  -18.5922   21.9122 C   0  0  0  0  0  0
  -30.6515  -19.2416   21.7275 C   0  0  0  0  0  0
  -31.7742  -18.3988   21.6066 C   0  0  0  0  0  0
  -30.4122  -16.5518   21.6933 C   0  0  0  0  0  0
  -30.1328  -21.2222   20.2502 C   0  0  0  0  0  0
  -30.0709  -21.5297   22.7472 C   0  0  0  0  0  0
  -30.2252  -22.7473   20.0853 C   0  0  0  0  0  0
  -30.1733  -23.0521   22.5274 C   0  0  0  0  0  0
  -30.7365  -20.7620   21.5893 C   0  0  1  0  0  0
  -33.1879  -18.9148   21.4155 C   0  0  0  0  0  0
  -29.5483  -24.9265   21.0380 C   0  0  0  0  0  0
  -28.3853  -25.3787   20.1425 C   0  0  0  0  0  0
  -29.3053  -17.2517   21.8980 N   0  0  0  0  0  0
  -31.6377  -17.0625   21.6069 N   0  0  0  0  0  0
  -30.2227  -15.2090   21.5555 N   0  0  0  0  0  0
  -29.5791  -23.4531   21.2235 N   0  3  1  0  0  0
  -31.4592  -12.3547   19.0994 H   0  0  0  0  0  0
  -30.2985  -11.2493   19.7679 H   0  0  0  0  0  0
  -29.7146  -11.8136   17.3964 H   0  0  0  0  0  0
  -29.6654  -13.5141   17.7902 H   0  0  0  0  0  0
  -27.8069  -11.3253   18.7845 H   0  0  0  0  0  0
  -27.3586  -12.6828   17.7875 H   0  0  0  0  0  0
  -27.7287  -14.2564   19.6165 H   0  0  0  0  0  0
  -28.6617  -11.8883   21.3061 H   0  0  0  0  0  0
  -28.4545  -13.5002   21.8965 H   0  0  0  0  0  0
  -25.2758   -9.5687   22.4748 H   0  0  0  0  0  0
  -24.0006   -7.4634   22.7468 H   0  0  0  0  0  0
  -21.0836   -8.8766   19.8949 H   0  0  0  0  0  0
  -22.3689  -10.9668   19.6158 H   0  0  0  0  0  0
  -21.2002   -7.6148   23.9718 H   0  0  0  0  0  0
  -21.1482   -6.0523   25.9079 H   0  0  0  0  0  0
  -22.0598   -2.7611   23.2847 H   0  0  0  0  0  0
  -22.4124  -11.9884   22.4768 H   0  0  0  0  0  0
  -21.1133  -13.1260   22.2608 H   0  0  0  0  0  0
  -24.6748  -15.8479   20.5256 H   0  0  0  0  0  0
  -26.3013  -15.6272   20.1244 H   0  0  0  0  0  0
  -26.7080  -32.5564   23.1178 H   0  0  0  0  0  0
  -25.0037  -33.9806   25.0493 H   0  0  0  0  0  0
  -22.6815  -31.3101   21.4161 H   0  0  0  0  0  0
  -23.3745  -35.9658   23.3309 H   0  0  0  0  0  0
  -24.3581  -36.8924   22.2051 H   0  0  0  0  0  0
  -23.7239  -37.6533   23.6640 H   0  0  0  0  0  0
  -26.0249  -31.6166   20.5919 H   0  0  0  0  0  0
  -26.8097  -30.9022   21.9738 H   0  0  0  0  0  0
  -28.0925  -29.1513   21.1389 H   0  0  0  0  0  0
  -26.0616  -25.9968   18.9933 H   0  0  0  0  0  0
  -23.9763  -27.2926   19.0423 H   0  0  0  0  0  0
  -23.7023  -30.6006   19.4059 H   0  0  0  0  0  0
  -22.7249  -29.2425   19.8743 H   0  0  0  0  0  0
  -25.1280  -36.1994   25.0839 H   0  0  0  0  0  0
  -20.9939  -28.3203   24.1456 H   0  0  0  0  0  0
  -20.5647  -26.2253   23.3599 H   0  0  0  0  0  0
  -21.6628  -26.7432   22.1218 H   0  0  0  0  0  0
  -19.6903  -25.6301   21.1219 H   0  0  0  0  0  0
  -19.6688  -27.3207   20.6755 H   0  0  0  0  0  0
  -17.4186  -26.6669   21.4015 H   0  0  0  0  0  0
  -18.0313  -26.0059   22.9008 H   0  0  0  0  0  0
  -19.7926  -30.7235   24.2301 H   0  0  0  0  0  0
  -17.5013  -31.6265   24.5157 H   0  0  0  0  0  0
  -15.5344  -30.3001   23.7642 H   0  0  0  0  0  0
  -15.8649  -28.0834   22.7052 H   0  0  0  0  0  0
  -24.5899  -30.7067   25.7830 H   0  0  0  0  0  0
  -24.8945  -32.2868   26.4950 H   0  0  0  0  0  0
  -25.8105  -30.8868   27.0229 H   0  0  0  0  0  0
  -26.2803  -29.6831   24.1126 H   0  0  0  0  0  0
  -27.4073  -29.7275   25.4497 H   0  0  0  0  0  0
  -27.8626  -30.4390   23.9180 H   0  0  0  0  0  0
  -27.2662  -33.3597   26.2096 H   0  0  0  0  0  0
  -28.3825  -32.6905   25.0284 H   0  0  0  0  0  0
  -28.0737  -31.8415   26.5354 H   0  0  0  0  0  0
  -28.2604  -38.0107   24.7511 H   0  0  0  0  0  0
  -28.1078  -36.2638   24.6284 H   0  0  0  0  0  0
  -27.2303  -37.1458   25.8867 H   0  0  0  0  0  0
  -20.9251  -29.8760   21.6994 H   0  0  0  0  0  0
  -26.0191  -38.2885   24.1414 H   0  0  0  0  0  0
  -28.4975  -19.1478   22.0180 H   0  0  0  0  0  0
  -30.6543  -20.7418   19.4212 H   0  0  0  0  0  0
  -29.0892  -20.9137   20.1732 H   0  0  0  0  0  0
  -29.0202  -21.2564   22.8473 H   0  0  0  0  0  0
  -30.5475  -21.2683   23.6932 H   0  0  0  0  0  0
  -29.7549  -23.0308   19.1435 H   0  0  0  0  0  0
  -31.2714  -23.0491   20.0114 H   0  0  0  0  0  0
  -31.2167  -23.3687   22.5674 H   0  0  0  0  0  0
  -29.6609  -23.5636   23.3433 H   0  0  0  0  0  0
  -31.7853  -21.0585   21.5889 H   0  0  0  0  0  0
  -33.4779  -19.5549   22.2484 H   0  0  0  0  0  0
  -33.2631  -19.4873   20.4912 H   0  0  0  0  0  0
  -33.9074  -18.0974   21.3598 H   0  0  0  0  0  0
  -29.4209  -25.4143   22.0054 H   0  0  0  0  0  0
  -30.5006  -25.2821   20.6421 H   0  0  0  0  0  0
  -27.4516  -25.0144   20.5752 H   0  0  0  0  0  0
  -28.4672  -24.9764   19.1325 H   0  0  0  0  0  0
  -29.3710  -14.8702   21.9673 H   0  0  0  0  0  0
  -28.6158  -23.1502   21.2566 H   0  0  0  0  0  0
  1 25  1  0  0  0
  1 30  2  0  0  0
  1 85  1  0  0  0
  2  3  1  0  0  0
  2 25  1  0  0  0
  2 87  1  0  0  0
  2 88  1  0  0  0
  3  4  1  0  0  0
  3 89  1  0  0  0
  3 90  1  0  0  0
  4  5  1  0  0  0
  4 91  1  0  0  0
  4 92  1  0  0  0
  5  6  1  0  0  0
  5 26  1  0  0  0
  5 93  1  0  0  0
  6 25  1  0  0  0
  6 94  1  0  0  0
  6 95  1  0  0  0
  7  8  2  0  0  0
  7 26  1  0  0  0
  7 29  1  0  0  0
  8  9  1  0  0  0
  8 22  1  0  0  0
  9 10  1  0  0  0
  9 27  2  0  0  0
 10 11  2  0  0  0
 10 15  1  0  0  0
 11 12  1  0  0  0
 11 96  1  0  0  0
 12 13  2  0  0  0
 12 97  1  0  0  0
 13 14  1  0  0  0
 13 31  1  0  0  0
 14 15  2  0  0  0
 14 98  1  0  0  0
 15 99  1  0  0  0
 16 17  2  0  0  0
 16 21  1  0  0  0
 16 31  1  0  0  0
 17 18  1  0  0  0
 17100  1  0  0  0
 18 19  2  0  0  0
 18101  1  0  0  0
 19 20  1  0  0  0
 19 24  1  0  0  0
 20 21  2  0  0  0
 20102  1  0  0  0
 21 23  1  0  0  0
 22 28  1  0  0  0
 22 32  2  0  0  0
 26 27  1  0  0  0
 28103  1  0  0  0
 28104  1  0  0  0
 29105  1  0  0  0
 29106  1  0  0  0
 33 34  1  0  0  0
 33 66  1  0  0  0
 33 70  2  0  0  0
 34 36  1  0  0  0
 34 59  1  0  0  0
 34107  1  0  0  0
 35 44  2  0  0  0
 35 45  1  0  0  0
 35 68  1  0  0  0
 36 56  1  0  0  0
 36108  1  0  0  0
 37 39  1  0  0  0
 37 47  1  0  0  0
 37 66  1  0  0  0
 37109  1  0  0  0
 38 43  2  0  0  0
 38 46  1  0  0  0
 38 47  1  0  0  0
 39 64  1  0  0  0
 39 67  2  0  0  0
 40 52  1  0  0  0
 40 53  2  0  0  0
 40 58  1  0  0  0
 41110  1  0  0  0
 41111  1  0  0  0
 41112  1  0  0  0
 41 48  1  0  0  0
 42 43  1  0  0  0
 42 66  1  0  0  0
 42113  1  0  0  0
 42114  1  0  0  0
 43 44  1  0  0  0
 44115  1  0  0  0
 45 46  2  0  0  0
 45116  1  0  0  0
 46117  1  0  0  0
 47118  1  0  0  0
 47119  1  0  0  0
 48 56  1  0  0  0
 48 65  1  0  0  0
 48120  1  0  0  0
 49 50  1  0  0  0
 49 53  1  0  0  0
 49 64  1  0  0  0
 49121  1  0  0  0
 50 51  1  0  0  0
 50122  1  0  0  0
 50123  1  0  0  0
 51 52  1  0  0  0
 51124  1  0  0  0
 51125  1  0  0  0
 52126  1  0  0  0
 52127  1  0  0  0
 53 54  1  0  0  0
 54 55  2  0  0  0
 54128  1  0  0  0
 55 57  1  0  0  0
 55129  1  0  0  0
 56 69  2  0  0  0
 57 58  2  0  0  0
 57130  1  0  0  0
 58131  1  0  0  0
 59 60  1  0  0  0
 59 61  1  0  0  0
 59 62  1  0  0  0
 60132  1  0  0  0
 60133  1  0  0  0
 60134  1  0  0  0
 61135  1  0  0  0
 61136  1  0  0  0
 61137  1  0  0  0
 62138  1  0  0  0
 62139  1  0  0  0
 62140  1  0  0  0
 63 65  1  0  0  0
 63141  1  0  0  0
 63142  1  0  0  0
 63143  1  0  0  0
 64144  1  0  0  0
 65145  1  0  0  0
 68 82  1  0  0  0
 71 72  2  0  0  0
 71 83  1  0  0  0
 71146  1  0  0  0
 72 73  1  0  0  0
 72 79  1  0  0  0
 73 80  1  0  0  0
 73 84  2  0  0  0
 74 83  2  0  0  0
 74 84  1  0  0  0
 74 85  1  0  0  0
 75 77  1  0  0  0
 75 79  1  0  0  0
 75147  1  0  0  0
 75148  1  0  0  0
 76 78  1  0  0  0
 76 79  1  0  0  0
 76149  1  0  0  0
 76150  1  0  0  0
 77 86  1  0  0  0
 77151  1  0  0  0
 77152  1  0  0  0
 78 86  1  0  0  0
 78153  1  0  0  0
 78154  1  0  0  0
 79155  1  0  0  0
 80156  1  0  0  0
 80157  1  0  0  0
 80158  1  0  0  0
 81 82  1  0  0  0
 81159  1  0  0  0
 81160  1  0  0  0
 81 86  1  0  0  0
 82161  1  0  0  0
 82162  1  0  0  0
 85163  1  0  0  0
 86164  1  0  0  0
M  CHG  1  86   1
M  ISO  4   1 100  68 101  82 101  85 100
M  END
> <chiral flag>
0

> <version>
0

> <s_m_source_file>
/data/baiqing/PycharmProjects/Reinvent-master-3.2/result/LINK_invent/BTK/process_docking_weight1_custom_sum_contain_oxygen_bond_distance_aromatic_linkinvent_7_9_3/rearranged_h_0189.sdf

> <i_m_source_file_index>
88

> <r_mmod_Potential_Energy-OPLS-2005>
-484.340118408203

> <r_mmod_Stretch_Energy-OPLS-2005>
31.8227634429932

> <r_mmod_Bend_Energy-OPLS-2005>
101.589111328125

> <r_mmod_Torsional_Energy-OPLS-2005>
243.62126159668

> <r_mmod_Improper_Torsional_Energy-OPLS-2005>
3.09358310699463

> <r_mmod_Van_der_Waal_Energy-OPLS-2005>
175.389953613281

> <r_mmod_Electrostatic_Energy-OPLS-2005>
-586.787841796875

> <r_mmod_Solvation_Energy-OPLS-2005>
-460.906372070312

> <b_mmod_Minimization_Converged-OPLS-2005>
0

> <r_mmod_RMS_Derivative-OPLS-2005>
0.51510101556778

$$$$
89
                    3D
 Structure written by MMmdl.
164174  0  0  1  0            999 V2000
  -30.7023  -14.5353   20.4775 C   0  0  0  0  0  0
  -30.4221  -12.3283   19.4096 C   0  0  0  0  0  0
  -29.4706  -12.4171   18.1956 C   0  0  0  0  0  0
  -27.9990  -12.3105   18.6316 C   0  0  0  0  0  0
  -27.6485  -13.2057   19.8502 C   0  0  2  0  0  0
  -28.7058  -13.0599   20.9636 C   0  0  0  0  0  0
  -25.2562  -13.8154   20.5691 C   0  0  0  0  0  0
  -24.1824  -13.0439   20.9221 C   0  0  0  0  0  0
  -24.6379  -11.6909   20.8792 C   0  0  0  0  0  0
  -23.9049  -10.4293   21.0438 C   0  0  0  0  0  0
  -24.3604   -9.4202   21.9208 C   0  0  0  0  0  0
  -23.6283   -8.2234   22.0765 C   0  0  0  0  0  0
  -22.4265   -8.0277   21.3550 C   0  0  0  0  0  0
  -21.9900   -9.0254   20.4658 C   0  0  0  0  0  0
  -22.7228  -10.2136   20.3076 C   0  0  0  0  0  0
  -21.6853   -6.0728   22.5279 C   0  0  0  0  0  0
  -21.4010   -6.5634   23.8212 C   0  0  0  0  0  0
  -21.3658   -5.6788   24.9177 C   0  0  0  0  0  0
  -21.6043   -4.3050   24.7228 C   0  0  0  0  0  0
  -21.8821   -3.8143   23.4350 C   0  0  0  0  0  0
  -21.9191   -4.6957   22.3404 C   0  0  0  0  0  0
  -22.7850  -13.5248   21.1851 C   0  0  0  0  0  0
  -22.1666   -4.2145   21.0984 F   0  0  0  0  0  0
  -21.5624   -3.4532   25.7737 F   0  0  0  0  0  0
  -30.0125  -13.3651   20.3673 N   0  0  0  0  0  0
  -26.2982  -12.9330   20.3351 N   0  0  0  0  0  0
  -25.9304  -11.6498   20.5841 N   0  0  0  0  0  0
  -22.0475  -12.8256   22.0403 N   0  0  0  0  0  0
  -25.4261  -15.1857   20.4019 N   0  0  0  0  0  0
  -31.9212  -14.5932   20.3002 O   0  0  0  0  0  0
  -21.6635   -6.8869   21.4239 O   0  0  0  0  0  0
  -22.3552  -14.5555   20.6687 O   0  0  0  0  0  0
  -24.6145  -31.8681   23.2105 C   0  0  0  0  0  0
  -25.9040  -32.4819   23.8404 C   0  0  1  0  0  0
  -27.2288  -27.4277   20.1078 C   0  0  0  0  0  0
  -25.5898  -33.8619   24.2335 N   0  0  0  0  0  0
  -23.4031  -30.4916   21.5499 C   0  0  2  0  0  0
  -24.8497  -28.9552   20.1169 C   0  0  0  0  0  0
  -22.7410  -29.4660   22.4985 C   0  0  0  0  0  0
  -18.0272  -28.1377   22.8495 C   0  0  0  0  0  0
  -24.1486  -36.7317   23.2640 C   0  0  0  0  0  0
  -25.9327  -30.8328   21.3639 C   0  0  0  0  0  0
  -26.0099  -29.4665   20.7125 C   0  0  0  0  0  0
  -27.2058  -28.7110   20.7015 C   0  0  0  0  0  0
  -26.0538  -26.9305   19.5067 C   0  0  0  0  0  0
  -24.8666  -27.6870   19.5101 C   0  0  0  0  0  0
  -23.6119  -29.8228   20.1647 C   0  0  0  0  0  0
  -25.4106  -36.3114   24.0343 C   0  0  1  0  0  0
  -20.5864  -28.3663   23.1321 C   0  0  2  0  0  0
  -20.6763  -26.9398   22.5423 C   0  0  0  0  0  0
  -19.5741  -26.6386   21.5217 C   0  0  0  0  0  0
  -18.1919  -26.7925   22.1625 C   0  0  0  0  0  0
  -19.1525  -28.8836   23.2902 C   0  0  0  0  0  0
  -18.9450  -30.1442   23.8910 C   0  0  0  0  0  0
  -17.6454  -30.6579   24.0568 C   0  0  0  0  0  0
  -25.9029  -34.9475   23.5135 C   0  0  0  0  0  0
  -16.5343  -29.9084   23.6326 C   0  0  0  0  0  0
  -16.7263  -28.6502   23.0343 C   0  0  0  0  0  0
  -26.4466  -31.6599   25.0733 C   0  0  0  0  0  0
  -25.3733  -31.3720   26.1483 C   0  0  0  0  0  0
  -27.0286  -30.3037   24.6111 C   0  0  0  0  0  0
  -27.6051  -32.4309   25.7483 C   0  0  0  0  0  0
  -27.5581  -37.1813   24.8463 C   0  0  0  0  0  0
  -21.4138  -29.3034   22.3729 N   0  0  0  0  0  0
  -26.4296  -37.3795   23.9405 N   0  0  0  0  0  0
  -24.6681  -31.0785   22.0998 N   0  0  0  0  0  0
  -23.4186  -28.8208   23.3026 O   0  0  0  0  0  0
  -28.3826  -26.6745   20.1041 O   0  0  0  0  0  0
  -26.5582  -34.8930   22.4691 O   0  0  0  0  0  0
  -23.5337  -32.1431   23.7504 O   0  0  0  0  0  0
  -30.6024  -16.4425   16.6223 C   0  0  0  0  0  0
  -30.0321  -17.7119   16.5027 C   0  0  0  0  0  0
  -30.5955  -15.8000   17.8680 C   0  0  0  0  0  0
  -29.4921  -18.3395   17.6350 C   0  0  0  0  0  0
  -30.0211  -16.3959   19.0276 C   0  0  0  0  0  0
  -29.4934  -17.7278   18.9190 C   0  0  0  0  0  0
  -28.1837  -24.1851   20.0374 C   0  0  0  0  0  0
  -27.6902  -20.4955   20.9919 C   0  0  0  0  0  0
  -29.0251  -20.9473   19.4615 C   0  0  0  0  0  0
  -29.4968  -16.4192   21.4566 C   0  0  0  0  0  0
  -28.4733  -17.5073   21.0709 C   0  0  0  0  0  0
  -28.2106  -19.6653   19.7917 C   0  0  1  0  0  0
  -27.8284  -21.7153   20.0495 C   0  0  2  0  0  0
  -28.3355  -25.4648   20.8933 C   0  0  0  0  0  0
  -29.9786  -15.6753   20.2857 N   0  0  0  0  0  0
  -28.9811  -18.4266   20.0519 N   0  0  0  0  0  0
  -28.1568  -23.0009   20.6838 N   0  0  0  0  0  0
  -28.0705  -24.2625   18.8100 O   0  0  0  0  0  0
  -31.4569  -12.4462   19.0834 H   0  0  0  0  0  0
  -30.3622  -11.3425   19.8740 H   0  0  0  0  0  0
  -29.7020  -11.6216   17.4856 H   0  0  0  0  0  0
  -29.6020  -13.3431   17.6455 H   0  0  0  0  0  0
  -27.8165  -11.2643   18.8796 H   0  0  0  0  0  0
  -27.3390  -12.5409   17.7942 H   0  0  0  0  0  0
  -27.6701  -14.2380   19.5006 H   0  0  0  0  0  0
  -28.7076  -12.0439   21.3619 H   0  0  0  0  0  0
  -28.4768  -13.7091   21.8062 H   0  0  0  0  0  0
  -25.2745   -9.5672   22.4791 H   0  0  0  0  0  0
  -23.9994   -7.4614   22.7476 H   0  0  0  0  0  0
  -21.0833   -8.8767   19.8963 H   0  0  0  0  0  0
  -22.3687  -10.9674   19.6187 H   0  0  0  0  0  0
  -21.2011   -7.6143   23.9714 H   0  0  0  0  0  0
  -21.1477   -6.0522   25.9079 H   0  0  0  0  0  0
  -22.0602   -2.7608   23.2852 H   0  0  0  0  0  0
  -22.4072  -11.9926   22.4816 H   0  0  0  0  0  0
  -21.1093  -13.1304   22.2575 H   0  0  0  0  0  0
  -24.6499  -15.8325   20.4875 H   0  0  0  0  0  0
  -26.2627  -15.6116   20.0262 H   0  0  0  0  0  0
  -26.7116  -32.5532   23.1173 H   0  0  0  0  0  0
  -25.0069  -33.9781   25.0496 H   0  0  0  0  0  0
  -22.6922  -31.3087   21.4109 H   0  0  0  0  0  0
  -23.3742  -35.9656   23.3317 H   0  0  0  0  0  0
  -24.3586  -36.8908   22.2052 H   0  0  0  0  0  0
  -23.7247  -37.6537   23.6636 H   0  0  0  0  0  0
  -26.0453  -31.5979   20.5949 H   0  0  0  0  0  0
  -26.8205  -30.8867   21.9819 H   0  0  0  0  0  0
  -28.1029  -29.1000   21.1622 H   0  0  0  0  0  0
  -26.0521  -25.9602   19.0311 H   0  0  0  0  0  0
  -23.9749  -27.2883   19.0457 H   0  0  0  0  0  0
  -23.7228  -30.5968   19.4046 H   0  0  0  0  0  0
  -22.7362  -29.2427   19.8668 H   0  0  0  0  0  0
  -25.1282  -36.1989   25.0838 H   0  0  0  0  0  0
  -20.9954  -28.3221   24.1441 H   0  0  0  0  0  0
  -20.5673  -26.2264   23.3608 H   0  0  0  0  0  0
  -21.6633  -26.7445   22.1210 H   0  0  0  0  0  0
  -19.6901  -25.6303   21.1230 H   0  0  0  0  0  0
  -19.6683  -27.3212   20.6762 H   0  0  0  0  0  0
  -17.4197  -26.6683   21.4017 H   0  0  0  0  0  0
  -18.0307  -26.0061   22.9012 H   0  0  0  0  0  0
  -19.7926  -30.7254   24.2285 H   0  0  0  0  0  0
  -17.5010  -31.6260   24.5166 H   0  0  0  0  0  0
  -15.5345  -30.2991   23.7644 H   0  0  0  0  0  0
  -15.8660  -28.0831   22.7044 H   0  0  0  0  0  0
  -24.5901  -30.7063   25.7833 H   0  0  0  0  0  0
  -24.8925  -32.2882   26.4920 H   0  0  0  0  0  0
  -25.8084  -30.8905   27.0248 H   0  0  0  0  0  0
  -26.2831  -29.6812   24.1143 H   0  0  0  0  0  0
  -27.4029  -29.7259   25.4572 H   0  0  0  0  0  0
  -27.8682  -30.4352   23.9280 H   0  0  0  0  0  0
  -27.2682  -33.3598   26.2094 H   0  0  0  0  0  0
  -28.3837  -32.6877   25.0289 H   0  0  0  0  0  0
  -28.0745  -31.8409   26.5366 H   0  0  0  0  0  0
  -28.2610  -38.0097   24.7492 H   0  0  0  0  0  0
  -28.1061  -36.2628   24.6302 H   0  0  0  0  0  0
  -27.2299  -37.1478   25.8866 H   0  0  0  0  0  0
  -20.9302  -29.8759   21.6953 H   0  0  0  0  0  0
  -26.0187  -38.2880   24.1394 H   0  0  0  0  0  0
  -31.0415  -15.9574   15.7613 H   0  0  0  0  0  0
  -30.0183  -18.2148   15.5457 H   0  0  0  0  0  0
  -31.0718  -14.8338   17.8994 H   0  0  0  0  0  0
  -29.0699  -19.3115   17.4581 H   0  0  0  0  0  0
  -28.3655  -20.5185   21.8500 H   0  0  0  0  0  0
  -26.6658  -20.2664   21.2904 H   0  0  0  0  0  0
  -29.2029  -21.1766   18.4116 H   0  0  0  0  0  0
  -29.9415  -21.0497   20.0482 H   0  0  0  0  0  0
  -29.0482  -15.7565   22.1949 H   0  0  0  0  0  0
  -30.3536  -16.8817   21.9489 H   0  0  0  0  0  0
  -28.2009  -18.0661   21.9671 H   0  0  0  0  0  0
  -27.5526  -17.0492   20.7079 H   0  0  0  0  0  0
  -27.4100  -19.4865   19.0688 H   0  0  0  0  0  0
  -26.9932  -21.7830   19.3455 H   0  0  0  0  0  0
  -29.2670  -25.3924   21.4557 H   0  0  0  0  0  0
  -27.5331  -25.5000   21.6325 H   0  0  0  0  0  0
  -28.2666  -23.0191   21.6895 H   0  0  0  0  0  0
  1 25  1  0  0  0
  1 30  2  0  0  0
  1 85  1  0  0  0
  2  3  1  0  0  0
  2 25  1  0  0  0
  2 89  1  0  0  0
  2 90  1  0  0  0
  3  4  1  0  0  0
  3 91  1  0  0  0
  3 92  1  0  0  0
  4  5  1  0  0  0
  4 93  1  0  0  0
  4 94  1  0  0  0
  5  6  1  0  0  0
  5 26  1  0  0  0
  5 95  1  0  0  0
  6 25  1  0  0  0
  6 96  1  0  0  0
  6 97  1  0  0  0
  7  8  2  0  0  0
  7 26  1  0  0  0
  7 29  1  0  0  0
  8  9  1  0  0  0
  8 22  1  0  0  0
  9 10  1  0  0  0
  9 27  2  0  0  0
 10 11  2  0  0  0
 10 15  1  0  0  0
 11 12  1  0  0  0
 11 98  1  0  0  0
 12 13  2  0  0  0
 12 99  1  0  0  0
 13 14  1  0  0  0
 13 31  1  0  0  0
 14 15  2  0  0  0
 14100  1  0  0  0
 15101  1  0  0  0
 16 17  2  0  0  0
 16 21  1  0  0  0
 16 31  1  0  0  0
 17 18  1  0  0  0
 17102  1  0  0  0
 18 19  2  0  0  0
 18103  1  0  0  0
 19 20  1  0  0  0
 19 24  1  0  0  0
 20 21  2  0  0  0
 20104  1  0  0  0
 21 23  1  0  0  0
 22 28  1  0  0  0
 22 32  2  0  0  0
 26 27  1  0  0  0
 28105  1  0  0  0
 28106  1  0  0  0
 29107  1  0  0  0
 29108  1  0  0  0
 33 34  1  0  0  0
 33 66  1  0  0  0
 33 70  2  0  0  0
 34 36  1  0  0  0
 34 59  1  0  0  0
 34109  1  0  0  0
 35 44  2  0  0  0
 35 45  1  0  0  0
 35 68  1  0  0  0
 36 56  1  0  0  0
 36110  1  0  0  0
 37 39  1  0  0  0
 37 47  1  0  0  0
 37 66  1  0  0  0
 37111  1  0  0  0
 38 43  2  0  0  0
 38 46  1  0  0  0
 38 47  1  0  0  0
 39 64  1  0  0  0
 39 67  2  0  0  0
 40 52  1  0  0  0
 40 53  2  0  0  0
 40 58  1  0  0  0
 41112  1  0  0  0
 41113  1  0  0  0
 41114  1  0  0  0
 41 48  1  0  0  0
 42 43  1  0  0  0
 42 66  1  0  0  0
 42115  1  0  0  0
 42116  1  0  0  0
 43 44  1  0  0  0
 44117  1  0  0  0
 45 46  2  0  0  0
 45118  1  0  0  0
 46119  1  0  0  0
 47120  1  0  0  0
 47121  1  0  0  0
 48 56  1  0  0  0
 48 65  1  0  0  0
 48122  1  0  0  0
 49 50  1  0  0  0
 49 53  1  0  0  0
 49 64  1  0  0  0
 49123  1  0  0  0
 50 51  1  0  0  0
 50124  1  0  0  0
 50125  1  0  0  0
 51 52  1  0  0  0
 51126  1  0  0  0
 51127  1  0  0  0
 52128  1  0  0  0
 52129  1  0  0  0
 53 54  1  0  0  0
 54 55  2  0  0  0
 54130  1  0  0  0
 55 57  1  0  0  0
 55131  1  0  0  0
 56 69  2  0  0  0
 57 58  2  0  0  0
 57132  1  0  0  0
 58133  1  0  0  0
 59 60  1  0  0  0
 59 61  1  0  0  0
 59 62  1  0  0  0
 60134  1  0  0  0
 60135  1  0  0  0
 60136  1  0  0  0
 61137  1  0  0  0
 61138  1  0  0  0
 61139  1  0  0  0
 62140  1  0  0  0
 62141  1  0  0  0
 62142  1  0  0  0
 63 65  1  0  0  0
 63143  1  0  0  0
 63144  1  0  0  0
 63145  1  0  0  0
 64146  1  0  0  0
 65147  1  0  0  0
 68 84  1  0  0  0
 71 72  2  0  0  0
 71 73  1  0  0  0
 71148  1  0  0  0
 72 74  1  0  0  0
 72149  1  0  0  0
 73 75  2  0  0  0
 73150  1  0  0  0
 74 76  2  0  0  0
 74151  1  0  0  0
 75 76  1  0  0  0
 75 85  1  0  0  0
 76 86  1  0  0  0
 77 84  1  0  0  0
 77 87  1  0  0  0
 77 88  2  0  0  0
 78 82  1  0  0  0
 78 83  1  0  0  0
 78152  1  0  0  0
 78153  1  0  0  0
 79 82  1  0  0  0
 79 83  1  0  0  0
 79154  1  0  0  0
 79155  1  0  0  0
 80 81  1  0  0  0
 80 85  1  0  0  0
 80156  1  0  0  0
 80157  1  0  0  0
 81 86  1  0  0  0
 81158  1  0  0  0
 81159  1  0  0  0
 82 86  1  0  0  0
 82160  1  0  0  0
 83 87  1  0  0  0
 83161  1  0  0  0
 84162  1  0  0  0
 84163  1  0  0  0
 87164  1  0  0  0
M  ISO  4   1 100  68 101  84 101  85 100
M  END
> <chiral flag>
0

> <version>
0

> <s_m_source_file>
/data/baiqing/PycharmProjects/Reinvent-master-3.2/result/LINK_invent/BTK/process_docking_weight1_custom_sum_contain_oxygen_bond_distance_aromatic_linkinvent_7_9_3/rearranged_h_0189.sdf

> <i_m_source_file_index>
89

> <r_mmod_Potential_Energy-OPLS-2005>
182.162948608398

> <r_mmod_Stretch_Energy-OPLS-2005>
49.7341270446777

> <r_mmod_Bend_Energy-OPLS-2005>
136.204025268555

> <r_mmod_Torsional_Energy-OPLS-2005>
339.392272949219

> <r_mmod_Improper_Torsional_Energy-OPLS-2005>
19.7566871643066

> <r_mmod_Van_der_Waal_Energy-OPLS-2005>
170.834838867188

> <r_mmod_Electrostatic_Energy-OPLS-2005>
-327.64794921875

> <r_mmod_Solvation_Energy-OPLS-2005>
-237.678283691406

> <b_mmod_Minimization_Converged-OPLS-2005>
0

> <r_mmod_RMS_Derivative-OPLS-2005>
1.22363352775574

$$$$
90
                    3D
 Structure written by MMmdl.
155163  0  0  1  0            999 V2000
  -30.6525  -14.5657   20.5503 C   0  0  0  0  0  0
  -30.4263  -12.3610   19.4535 C   0  0  0  0  0  0
  -29.5089  -12.5101   18.2206 C   0  0  0  0  0  0
  -28.0234  -12.3719   18.6196 C   0  0  0  0  0  0
  -27.6513  -13.2208   19.8637 C   0  0  2  0  0  0
  -28.6896  -13.0466   20.9943 C   0  0  0  0  0  0
  -25.2558  -13.8211   20.5658 C   0  0  0  0  0  0
  -24.1805  -13.0455   20.9166 C   0  0  0  0  0  0
  -24.6355  -11.6944   20.8678 C   0  0  0  0  0  0
  -23.9024  -10.4304   21.0369 C   0  0  0  0  0  0
  -24.3589   -9.4215   21.9148 C   0  0  0  0  0  0
  -23.6288   -8.2237   22.0714 C   0  0  0  0  0  0
  -22.4271   -8.0242   21.3511 C   0  0  0  0  0  0
  -21.9891   -9.0224   20.4618 C   0  0  0  0  0  0
  -22.7195  -10.2130   20.3024 C   0  0  0  0  0  0
  -21.6851   -6.0679   22.5253 C   0  0  0  0  0  0
  -21.4015   -6.5600   23.8183 C   0  0  0  0  0  0
  -21.3684   -5.6768   24.9156 C   0  0  0  0  0  0
  -21.6059   -4.3029   24.7218 C   0  0  0  0  0  0
  -21.8843   -3.8106   23.4343 C   0  0  0  0  0  0
  -21.9198   -4.6901   22.3390 C   0  0  0  0  0  0
  -22.7836  -13.5223   21.1871 C   0  0  0  0  0  0
  -22.1674   -4.2092   21.0969 F   0  0  0  0  0  0
  -21.5625   -3.4532   25.7743 F   0  0  0  0  0  0
  -30.0141  -13.3672   20.4470 N   0  0  0  0  0  0
  -26.2953  -12.9394   20.3280 N   0  0  0  0  0  0
  -25.9288  -11.6552   20.5711 N   0  0  0  0  0  0
  -22.0484  -12.8179   22.0437 N   0  0  0  0  0  0
  -25.4318  -15.1907   20.4076 N   0  0  0  0  0  0
  -31.8077  -14.7247   20.1365 O   0  0  0  0  0  0
  -21.6622   -6.8833   21.4227 O   0  0  0  0  0  0
  -22.3504  -14.5521   20.6713 O   0  0  0  0  0  0
  -24.6172  -31.8669   23.2033 C   0  0  0  0  0  0
  -25.9066  -32.4806   23.8380 C   0  0  1  0  0  0
  -27.2168  -27.3563   20.1403 C   0  0  0  0  0  0
  -25.5903  -33.8619   24.2294 N   0  0  0  0  0  0
  -23.4131  -30.4825   21.5443 C   0  0  2  0  0  0
  -24.8635  -28.9443   20.1091 C   0  0  0  0  0  0
  -22.7459  -29.4631   22.4954 C   0  0  0  0  0  0
  -18.0290  -28.1366   22.8516 C   0  0  0  0  0  0
  -24.1483  -36.7311   23.2634 C   0  0  0  0  0  0
  -25.9486  -30.8051   21.3756 C   0  0  0  0  0  0
  -26.0252  -29.4346   20.7217 C   0  0  0  0  0  0
  -27.2110  -28.6475   20.7338 C   0  0  0  0  0  0
  -26.0473  -26.9121   19.4963 C   0  0  0  0  0  0
  -24.8739  -27.6864   19.4833 C   0  0  0  0  0  0
  -23.6311  -29.8195   20.1574 C   0  0  0  0  0  0
  -25.4105  -36.3120   24.0339 C   0  0  1  0  0  0
  -20.5881  -28.3677   23.1295 C   0  0  2  0  0  0
  -20.6765  -26.9419   22.5390 C   0  0  0  0  0  0
  -19.5740  -26.6399   21.5195 C   0  0  0  0  0  0
  -18.1934  -26.7909   22.1642 C   0  0  0  0  0  0
  -19.1535  -28.8842   23.2898 C   0  0  0  0  0  0
  -18.9474  -30.1464   23.8894 C   0  0  0  0  0  0
  -17.6472  -30.6590   24.0567 C   0  0  0  0  0  0
  -25.9043  -34.9495   23.5111 C   0  0  0  0  0  0
  -16.5360  -29.9086   23.6331 C   0  0  0  0  0  0
  -16.7276  -28.6497   23.0375 C   0  0  0  0  0  0
  -26.4460  -31.6579   25.0726 C   0  0  0  0  0  0
  -25.3702  -31.3733   26.1459 C   0  0  0  0  0  0
  -27.0240  -30.2996   24.6124 C   0  0  0  0  0  0
  -27.6041  -32.4289   25.7474 C   0  0  0  0  0  0
  -27.5576  -37.1812   24.8479 C   0  0  0  0  0  0
  -21.4182  -29.3026   22.3700 N   0  0  0  0  0  0
  -26.4290  -37.3802   23.9415 N   0  0  0  0  0  0
  -24.6771  -31.0679   22.0981 N   0  0  0  0  0  0
  -23.4197  -28.8233   23.3076 O   0  0  0  0  0  0
  -28.3125  -26.5009   20.1755 O   0  0  0  0  0  0
  -26.5619  -34.8960   22.4688 O   0  0  0  0  0  0
  -23.5363  -32.1511   23.7365 O   0  0  0  0  0  0
  -30.7938  -21.1399   19.8031 C   0  0  0  0  0  0
  -28.9659  -20.7941   20.9479 C   0  0  0  0  0  0
  -29.6890  -21.8378   20.3962 C   0  0  0  0  0  0
  -27.0746  -23.5903   19.7707 C   0  0  0  0  0  0
  -29.2078  -18.1794   21.0097 C   0  0  0  0  0  0
  -30.3050  -17.0671   20.7729 C   0  0  0  0  0  0
  -28.2495  -25.4429   21.1882 C   0  0  0  0  0  0
  -28.1729  -23.9018   20.7913 C   0  0  2  0  0  0
  -30.7447  -19.8188   19.9695 N   0  0  0  0  0  0
  -29.6150  -19.5786   20.6805 N   0  0  0  0  0  0
  -29.4508  -23.2751   20.3911 N   0  0  0  0  0  0
  -29.9034  -15.6341   20.9370 N   0  0  0  0  0  0
  -31.4696  -12.4737   19.1603 H   0  0  0  0  0  0
  -30.3433  -11.3575   19.8725 H   0  0  0  0  0  0
  -29.7644  -11.7551   17.4762 H   0  0  0  0  0  0
  -29.6780  -13.4738   17.7387 H   0  0  0  0  0  0
  -27.8359  -11.3179   18.8271 H   0  0  0  0  0  0
  -27.3836  -12.6445   17.7794 H   0  0  0  0  0  0
  -27.6798  -14.2605   19.5406 H   0  0  0  0  0  0
  -28.6798  -12.0234   21.3696 H   0  0  0  0  0  0
  -28.4463  -13.6819   21.8445 H   0  0  0  0  0  0
  -25.2761   -9.5691   22.4685 H   0  0  0  0  0  0
  -24.0003   -7.4628   22.7426 H   0  0  0  0  0  0
  -21.0799   -8.8735   19.8950 H   0  0  0  0  0  0
  -22.3636  -10.9640   19.6095 H   0  0  0  0  0  0
  -21.2022   -7.6116   23.9678 H   0  0  0  0  0  0
  -21.1489   -6.0488   25.9054 H   0  0  0  0  0  0
  -22.0610   -2.7561   23.2860 H   0  0  0  0  0  0
  -22.4153  -11.9876   22.4865 H   0  0  0  0  0  0
  -21.1093  -13.1175   22.2636 H   0  0  0  0  0  0
  -24.6791  -15.8625   20.5089 H   0  0  0  0  0  0
  -26.2815  -15.6078   20.0519 H   0  0  0  0  0  0
  -26.7124  -32.5506   23.1135 H   0  0  0  0  0  0
  -25.0004  -33.9762   25.0409 H   0  0  0  0  0  0
  -22.7041  -31.2994   21.3976 H   0  0  0  0  0  0
  -23.3743  -35.9637   23.3327 H   0  0  0  0  0  0
  -24.3575  -36.8902   22.2035 H   0  0  0  0  0  0
  -23.7235  -37.6537   23.6621 H   0  0  0  0  0  0
  -26.0743  -31.5697   20.6087 H   0  0  0  0  0  0
  -26.8288  -30.8566   22.0026 H   0  0  0  0  0  0
  -28.1037  -29.0060   21.2283 H   0  0  0  0  0  0
  -26.0307  -25.9488   19.0121 H   0  0  0  0  0  0
  -23.9871  -27.3017   18.9958 H   0  0  0  0  0  0
  -23.7649  -30.6011   19.4081 H   0  0  0  0  0  0
  -22.7514  -29.2515   19.8462 H   0  0  0  0  0  0
  -25.1269  -36.1984   25.0823 H   0  0  0  0  0  0
  -20.9952  -28.3240   24.1425 H   0  0  0  0  0  0
  -20.5659  -26.2310   23.3586 H   0  0  0  0  0  0
  -21.6640  -26.7459   22.1194 H   0  0  0  0  0  0
  -19.6923  -25.6314   21.1235 H   0  0  0  0  0  0
  -19.6649  -27.3198   20.6709 H   0  0  0  0  0  0
  -17.4190  -26.6673   21.4071 H   0  0  0  0  0  0
  -18.0373  -26.0017   22.9009 H   0  0  0  0  0  0
  -19.7966  -30.7289   24.2239 H   0  0  0  0  0  0
  -17.5039  -31.6263   24.5180 H   0  0  0  0  0  0
  -15.5372  -30.2987   23.7645 H   0  0  0  0  0  0
  -15.8687  -28.0804   22.7069 H   0  0  0  0  0  0
  -24.5858  -30.7093   25.7817 H   0  0  0  0  0  0
  -24.8899  -32.2893   26.4906 H   0  0  0  0  0  0
  -25.8045  -30.8915   27.0221 H   0  0  0  0  0  0
  -26.2777  -29.6803   24.1125 H   0  0  0  0  0  0
  -27.3923  -29.7208   25.4602 H   0  0  0  0  0  0
  -27.8673  -30.4282   23.9335 H   0  0  0  0  0  0
  -27.2692  -33.3638   26.1980 H   0  0  0  0  0  0
  -28.3869  -32.6753   25.0290 H   0  0  0  0  0  0
  -28.0648  -31.8426   26.5428 H   0  0  0  0  0  0
  -28.2608  -38.0099   24.7495 H   0  0  0  0  0  0
  -28.1060  -36.2626   24.6324 H   0  0  0  0  0  0
  -27.2296  -37.1486   25.8890 H   0  0  0  0  0  0
  -20.9361  -29.8744   21.6898 H   0  0  0  0  0  0
  -26.0194  -38.2891   24.1410 H   0  0  0  0  0  0
  -31.6353  -21.5461   19.2504 H   0  0  0  0  0  0
  -28.0363  -20.8060   21.5051 H   0  0  0  0  0  0
  -27.2670  -24.0931   18.8239 H   0  0  0  0  0  0
  -26.0871  -23.8857   20.1317 H   0  0  0  0  0  0
  -27.0177  -22.5223   19.5662 H   0  0  0  0  0  0
  -28.8865  -18.1729   22.0541 H   0  0  0  0  0  0
  -28.3173  -17.9492   20.4191 H   0  0  0  0  0  0
  -30.6839  -17.1810   19.7556 H   0  0  0  0  0  0
  -31.1405  -17.2542   21.4494 H   0  0  0  0  0  0
  -27.3958  -25.6407   21.8425 H   0  0  0  0  0  0
  -29.1179  -25.5735   21.8370 H   0  0  0  0  0  0
  -27.8935  -23.3836   21.7117 H   0  0  0  0  0  0
  -30.0879  -23.8784   19.8751 H   0  0  0  0  0  0
  -28.9718  -15.4379   21.2727 H   0  0  0  0  0  0
  1 25  1  0  0  0
  1 30  2  0  0  0
  1 82  1  0  0  0
  2  3  1  0  0  0
  2 25  1  0  0  0
  2 83  1  0  0  0
  2 84  1  0  0  0
  3  4  1  0  0  0
  3 85  1  0  0  0
  3 86  1  0  0  0
  4  5  1  0  0  0
  4 87  1  0  0  0
  4 88  1  0  0  0
  5  6  1  0  0  0
  5 26  1  0  0  0
  5 89  1  0  0  0
  6 25  1  0  0  0
  6 90  1  0  0  0
  6 91  1  0  0  0
  7  8  2  0  0  0
  7 26  1  0  0  0
  7 29  1  0  0  0
  8  9  1  0  0  0
  8 22  1  0  0  0
  9 10  1  0  0  0
  9 27  2  0  0  0
 10 11  2  0  0  0
 10 15  1  0  0  0
 11 12  1  0  0  0
 11 92  1  0  0  0
 12 13  2  0  0  0
 12 93  1  0  0  0
 13 14  1  0  0  0
 13 31  1  0  0  0
 14 15  2  0  0  0
 14 94  1  0  0  0
 15 95  1  0  0  0
 16 17  2  0  0  0
 16 21  1  0  0  0
 16 31  1  0  0  0
 17 18  1  0  0  0
 17 96  1  0  0  0
 18 19  2  0  0  0
 18 97  1  0  0  0
 19 20  1  0  0  0
 19 24  1  0  0  0
 20 21  2  0  0  0
 20 98  1  0  0  0
 21 23  1  0  0  0
 22 28  1  0  0  0
 22 32  2  0  0  0
 26 27  1  0  0  0
 28 99  1  0  0  0
 28100  1  0  0  0
 29101  1  0  0  0
 29102  1  0  0  0
 33 34  1  0  0  0
 33 66  1  0  0  0
 33 70  2  0  0  0
 34 36  1  0  0  0
 34 59  1  0  0  0
 34103  1  0  0  0
 35 44  2  0  0  0
 35 45  1  0  0  0
 35 68  1  0  0  0
 36 56  1  0  0  0
 36104  1  0  0  0
 37 39  1  0  0  0
 37 47  1  0  0  0
 37 66  1  0  0  0
 37105  1  0  0  0
 38 43  2  0  0  0
 38 46  1  0  0  0
 38 47  1  0  0  0
 39 64  1  0  0  0
 39 67  2  0  0  0
 40 52  1  0  0  0
 40 53  2  0  0  0
 40 58  1  0  0  0
 41106  1  0  0  0
 41107  1  0  0  0
 41108  1  0  0  0
 41 48  1  0  0  0
 42 43  1  0  0  0
 42 66  1  0  0  0
 42109  1  0  0  0
 42110  1  0  0  0
 43 44  1  0  0  0
 44111  1  0  0  0
 45 46  2  0  0  0
 45112  1  0  0  0
 46113  1  0  0  0
 47114  1  0  0  0
 47115  1  0  0  0
 48 56  1  0  0  0
 48 65  1  0  0  0
 48116  1  0  0  0
 49 50  1  0  0  0
 49 53  1  0  0  0
 49 64  1  0  0  0
 49117  1  0  0  0
 50 51  1  0  0  0
 50118  1  0  0  0
 50119  1  0  0  0
 51 52  1  0  0  0
 51120  1  0  0  0
 51121  1  0  0  0
 52122  1  0  0  0
 52123  1  0  0  0
 53 54  1  0  0  0
 54 55  2  0  0  0
 54124  1  0  0  0
 55 57  1  0  0  0
 55125  1  0  0  0
 56 69  2  0  0  0
 57 58  2  0  0  0
 57126  1  0  0  0
 58127  1  0  0  0
 59 60  1  0  0  0
 59 61  1  0  0  0
 59 62  1  0  0  0
 60128  1  0  0  0
 60129  1  0  0  0
 60130  1  0  0  0
 61131  1  0  0  0
 61132  1  0  0  0
 61133  1  0  0  0
 62134  1  0  0  0
 62135  1  0  0  0
 62136  1  0  0  0
 63 65  1  0  0  0
 63137  1  0  0  0
 63138  1  0  0  0
 63139  1  0  0  0
 64140  1  0  0  0
 65141  1  0  0  0
 68 77  1  0  0  0
 71 73  1  0  0  0
 71 79  2  0  0  0
 71142  1  0  0  0
 72 73  2  0  0  0
 72 80  1  0  0  0
 72143  1  0  0  0
 73 81  1  0  0  0
 74144  1  0  0  0
 74145  1  0  0  0
 74146  1  0  0  0
 74 78  1  0  0  0
 75 76  1  0  0  0
 75 80  1  0  0  0
 75147  1  0  0  0
 75148  1  0  0  0
 76 82  1  0  0  0
 76149  1  0  0  0
 76150  1  0  0  0
 77 78  1  0  0  0
 77151  1  0  0  0
 77152  1  0  0  0
 78 81  1  0  0  0
 78153  1  0  0  0
 79 80  1  0  0  0
 81154  1  0  0  0
 82155  1  0  0  0
M  ISO  4   1 100  68 101  77 101  82 100
M  END
> <chiral flag>
0

> <version>
0

> <s_m_source_file>
/data/baiqing/PycharmProjects/Reinvent-master-3.2/result/LINK_invent/BTK/process_docking_weight1_custom_sum_contain_oxygen_bond_distance_aromatic_linkinvent_7_9_3/rearranged_h_0189.sdf

> <i_m_source_file_index>
90

> <r_mmod_Potential_Energy-OPLS-2005>
13.7193984985352

> <r_mmod_Stretch_Energy-OPLS-2005>
60.4579315185547

> <r_mmod_Bend_Energy-OPLS-2005>
126.994354248047

> <r_mmod_Torsional_Energy-OPLS-2005>
243.118392944336

> <r_mmod_Improper_Torsional_Energy-OPLS-2005>
5.28643655776978

> <r_mmod_Van_der_Waal_Energy-OPLS-2005>
120.719841003418

> <r_mmod_Electrostatic_Energy-OPLS-2005>
-334.354919433594

> <r_mmod_Solvation_Energy-OPLS-2005>
-242.74235534668

> <b_mmod_Minimization_Converged-OPLS-2005>
0

> <r_mmod_RMS_Derivative-OPLS-2005>
5.71863174438477

$$$$
91
                    3D
 Structure written by MMmdl.
159168  0  0  1  0            999 V2000
  -30.6255  -14.7260   20.4999 C   0  0  0  0  0  0
  -30.4302  -12.4513   19.4706 C   0  0  0  0  0  0
  -29.5062  -12.5089   18.2347 C   0  0  0  0  0  0
  -28.0343  -12.3312   18.6528 C   0  0  0  0  0  0
  -27.6441  -13.2290   19.8575 C   0  0  2  0  0  0
  -28.6873  -13.1509   20.9927 C   0  0  0  0  0  0
  -25.2519  -13.8186   20.5710 C   0  0  0  0  0  0
  -24.1804  -13.0436   20.9208 C   0  0  0  0  0  0
  -24.6394  -11.6916   20.8757 C   0  0  0  0  0  0
  -23.9073  -10.4294   21.0408 C   0  0  0  0  0  0
  -24.3622   -9.4209   21.9188 C   0  0  0  0  0  0
  -23.6293   -8.2248   22.0761 C   0  0  0  0  0  0
  -22.4275   -8.0284   21.3546 C   0  0  0  0  0  0
  -21.9914   -9.0261   20.4648 C   0  0  0  0  0  0
  -22.7249  -10.2139   20.3057 C   0  0  0  0  0  0
  -21.6852   -6.0741   22.5278 C   0  0  0  0  0  0
  -21.4010   -6.5643   23.8213 C   0  0  0  0  0  0
  -21.3658   -5.6796   24.9173 C   0  0  0  0  0  0
  -21.6043   -4.3059   24.7223 C   0  0  0  0  0  0
  -21.8817   -3.8150   23.4343 C   0  0  0  0  0  0
  -21.9192   -4.6968   22.3400 C   0  0  0  0  0  0
  -22.7826  -13.5229   21.1863 C   0  0  0  0  0  0
  -22.1662   -4.2158   21.0977 F   0  0  0  0  0  0
  -21.5631   -3.4537   25.7733 F   0  0  0  0  0  0
  -29.9889  -13.5064   20.4139 N   0  0  0  0  0  0
  -26.2945  -12.9394   20.3319 N   0  0  0  0  0  0
  -25.9326  -11.6537   20.5773 N   0  0  0  0  0  0
  -22.0472  -12.8213   22.0412 N   0  0  0  0  0  0
  -25.4229  -15.1901   20.4123 N   0  0  0  0  0  0
  -31.7741  -14.8439   20.0628 O   0  0  0  0  0  0
  -21.6638   -6.8883   21.4239 O   0  0  0  0  0  0
  -22.3525  -14.5546   20.6724 O   0  0  0  0  0  0
  -24.6294  -31.8535   23.1958 C   0  0  0  0  0  0
  -25.9115  -32.4749   23.8310 C   0  0  1  0  0  0
  -27.2270  -27.2672   20.1267 C   0  0  0  0  0  0
  -25.5916  -33.8550   24.2244 N   0  0  0  0  0  0
  -23.4269  -30.4731   21.5393 C   0  0  2  0  0  0
  -24.8735  -28.9159   20.1074 C   0  0  0  0  0  0
  -22.7494  -29.4585   22.4923 C   0  0  0  0  0  0
  -18.0281  -28.1391   22.8502 C   0  0  0  0  0  0
  -24.1488  -36.7275   23.2649 C   0  0  0  0  0  0
  -25.9687  -30.7686   21.3720 C   0  0  0  0  0  0
  -26.0413  -29.3900   20.7167 C   0  0  0  0  0  0
  -27.2157  -28.5761   20.7164 C   0  0  0  0  0  0
  -26.0345  -26.8476   19.4990 C   0  0  0  0  0  0
  -24.8748  -27.6530   19.4901 C   0  0  0  0  0  0
  -23.6426  -29.8021   20.1562 C   0  0  0  0  0  0
  -25.4115  -36.3066   24.0332 C   0  0  1  0  0  0
  -20.5889  -28.3688   23.1292 C   0  0  2  0  0  0
  -20.6779  -26.9409   22.5426 C   0  0  0  0  0  0
  -19.5751  -26.6384   21.5232 C   0  0  0  0  0  0
  -18.1926  -26.7941   22.1630 C   0  0  0  0  0  0
  -19.1540  -28.8855   23.2891 C   0  0  0  0  0  0
  -18.9462  -30.1460   23.8900 C   0  0  0  0  0  0
  -17.6463  -30.6596   24.0564 C   0  0  0  0  0  0
  -25.9056  -34.9436   23.5091 C   0  0  0  0  0  0
  -16.5351  -29.9099   23.6336 C   0  0  0  0  0  0
  -16.7270  -28.6512   23.0360 C   0  0  0  0  0  0
  -26.4491  -31.6578   25.0700 C   0  0  0  0  0  0
  -25.3713  -31.3720   26.1418 C   0  0  0  0  0  0
  -27.0355  -30.3009   24.6171 C   0  0  0  0  0  0
  -27.6048  -32.4318   25.7470 C   0  0  0  0  0  0
  -27.5577  -37.1792   24.8467 C   0  0  0  0  0  0
  -21.4202  -29.3031   22.3673 N   0  0  0  0  0  0
  -26.4287  -37.3766   23.9416 N   0  0  0  0  0  0
  -24.6942  -31.0504   22.0930 N   0  0  0  0  0  0
  -23.4195  -28.8137   23.3028 O   0  0  0  0  0  0
  -28.3570  -26.4264   20.2124 O   0  0  0  0  0  0
  -26.5638  -34.8916   22.4666 O   0  0  0  0  0  0
  -23.5442  -32.1347   23.7261 O   0  0  0  0  0  0
  -30.5148  -20.6534   20.7343 C   0  0  0  0  0  0
  -30.9089  -17.3711   21.9376 C   0  0  0  0  0  0
  -30.2518  -22.1802   20.5222 C   0  0  0  0  0  0
  -30.0428  -16.1826   22.3549 C   0  0  0  0  0  0
  -28.2419  -21.0369   20.3486 C   0  0  0  0  0  0
  -29.3345  -19.8998   20.1115 C   0  0  2  0  0  0
  -30.1401  -17.3540   20.6183 C   0  0  1  0  0  0
  -28.2158  -23.6801   20.4983 C   0  0  0  0  0  0
  -28.4681  -25.0392   19.6492 C   0  0  0  0  0  0
  -29.9078  -15.8481   20.9266 N   0  0  0  0  0  0
  -28.8680  -22.3714   20.0535 N   0  0  0  0  0  0
  -29.0572  -18.4634   20.6178 N   0  3  0  0  0  0
  -31.4717  -12.5715   19.1668 H   0  0  0  0  0  0
  -30.3746  -11.4721   19.9486 H   0  0  0  0  0  0
  -29.7860  -11.7350   17.5187 H   0  0  0  0  0  0
  -29.6322  -13.4638   17.7216 H   0  0  0  0  0  0
  -27.8936  -11.2817   18.9154 H   0  0  0  0  0  0
  -27.3738  -12.5245   17.8066 H   0  0  0  0  0  0
  -27.6448  -14.2538   19.4848 H   0  0  0  0  0  0
  -28.7216  -12.1498   21.4243 H   0  0  0  0  0  0
  -28.4164  -13.8244   21.8072 H   0  0  0  0  0  0
  -25.2767   -9.5686   22.4767 H   0  0  0  0  0  0
  -23.9998   -7.4639   22.7485 H   0  0  0  0  0  0
  -21.0848   -8.8781   19.8951 H   0  0  0  0  0  0
  -22.3709  -10.9678   19.6165 H   0  0  0  0  0  0
  -21.1992   -7.6152   23.9718 H   0  0  0  0  0  0
  -21.1482   -6.0526   25.9080 H   0  0  0  0  0  0
  -22.0592   -2.7613   23.2838 H   0  0  0  0  0  0
  -22.4082  -11.9854   22.4765 H   0  0  0  0  0  0
  -21.1093  -13.1238   22.2634 H   0  0  0  0  0  0
  -24.6538  -15.8443   20.5093 H   0  0  0  0  0  0
  -26.2723  -15.6197   20.0712 H   0  0  0  0  0  0
  -26.7180  -32.5396   23.1047 H   0  0  0  0  0  0
  -25.0067  -33.9692   25.0391 H   0  0  0  0  0  0
  -22.7236  -31.2948   21.3923 H   0  0  0  0  0  0
  -23.3766  -35.9593   23.3298 H   0  0  0  0  0  0
  -24.3595  -36.8898   22.2069 H   0  0  0  0  0  0
  -23.7217  -37.6464   23.6677 H   0  0  0  0  0  0
  -26.1027  -31.5282   20.6004 H   0  0  0  0  0  0
  -26.8483  -30.8208   22.0023 H   0  0  0  0  0  0
  -28.1106  -28.9352   21.2061 H   0  0  0  0  0  0
  -25.9665  -25.8739   19.0381 H   0  0  0  0  0  0
  -23.9766  -27.2815   19.0154 H   0  0  0  0  0  0
  -23.7634  -30.5760   19.3972 H   0  0  0  0  0  0
  -22.7618  -29.2325   19.8552 H   0  0  0  0  0  0
  -25.1295  -36.1912   25.0824 H   0  0  0  0  0  0
  -20.9976  -28.3256   24.1412 H   0  0  0  0  0  0
  -20.5696  -26.2294   23.3625 H   0  0  0  0  0  0
  -21.6643  -26.7449   22.1197 H   0  0  0  0  0  0
  -19.6920  -25.6296   21.1251 H   0  0  0  0  0  0
  -19.6695  -27.3210   20.6773 H   0  0  0  0  0  0
  -17.4206  -26.6708   21.4013 H   0  0  0  0  0  0
  -18.0297  -26.0077   22.9010 H   0  0  0  0  0  0
  -19.7936  -30.7280   24.2266 H   0  0  0  0  0  0
  -17.5017  -31.6281   24.5164 H   0  0  0  0  0  0
  -15.5353  -30.3002   23.7672 H   0  0  0  0  0  0
  -15.8666  -28.0836   22.7076 H   0  0  0  0  0  0
  -24.5914  -30.7037   25.7748 H   0  0  0  0  0  0
  -24.8873  -32.2885   26.4803 H   0  0  0  0  0  0
  -25.8027  -30.8935   27.0216 H   0  0  0  0  0  0
  -26.2939  -29.6746   24.1203 H   0  0  0  0  0  0
  -27.4079  -29.7274   25.4668 H   0  0  0  0  0  0
  -27.8784  -30.4322   23.9384 H   0  0  0  0  0  0
  -27.2671  -33.3640   26.2005 H   0  0  0  0  0  0
  -28.3876  -32.6829   25.0303 H   0  0  0  0  0  0
  -28.0697  -31.8464   26.5411 H   0  0  0  0  0  0
  -28.2578  -38.0105   24.7526 H   0  0  0  0  0  0
  -28.1075  -36.2631   24.6260 H   0  0  0  0  0  0
  -27.2299  -37.1385   25.8871 H   0  0  0  0  0  0
  -20.9388  -29.8744   21.6870 H   0  0  0  0  0  0
  -26.0160  -38.2832   24.1432 H   0  0  0  0  0  0
  -30.5617  -20.4570   21.8058 H   0  0  0  0  0  0
  -31.4691  -20.3389   20.3091 H   0  0  0  0  0  0
  -31.9642  -17.1136   21.8222 H   0  0  0  0  0  0
  -30.7892  -18.2534   22.5661 H   0  0  0  0  0  0
  -30.9433  -22.5996   19.7889 H   0  0  0  0  0  0
  -30.4281  -22.7094   21.4609 H   0  0  0  0  0  0
  -29.1024  -16.4606   22.8347 H   0  0  0  0  0  0
  -30.5837  -15.4596   22.9708 H   0  0  0  0  0  0
  -27.9203  -21.0227   21.3921 H   0  0  0  0  0  0
  -27.3528  -20.8794   19.7363 H   0  0  0  0  0  0
  -29.5109  -19.8232   19.0377 H   0  0  0  0  0  0
  -30.8064  -17.5051   19.7669 H   0  0  0  0  0  0
  -27.1366  -23.5220   20.5182 H   0  0  0  0  0  0
  -28.4892  -23.8590   21.5392 H   0  0  0  0  0  0
  -27.9243  -24.9783   18.7069 H   0  0  0  0  0  0
  -29.5116  -24.9914   19.3377 H   0  0  0  0  0  0
  -28.3114  -18.1311   20.0277 H   0  0  0  0  0  0
  -28.6626  -18.5307   21.5405 H   0  0  0  0  0  0
  1 25  1  0  0  0
  1 30  2  0  0  0
  1 80  1  0  0  0
  2  3  1  0  0  0
  2 25  1  0  0  0
  2 83  1  0  0  0
  2 84  1  0  0  0
  3  4  1  0  0  0
  3 85  1  0  0  0
  3 86  1  0  0  0
  4  5  1  0  0  0
  4 87  1  0  0  0
  4 88  1  0  0  0
  5  6  1  0  0  0
  5 26  1  0  0  0
  5 89  1  0  0  0
  6 25  1  0  0  0
  6 90  1  0  0  0
  6 91  1  0  0  0
  7  8  2  0  0  0
  7 26  1  0  0  0
  7 29  1  0  0  0
  8  9  1  0  0  0
  8 22  1  0  0  0
  9 10  1  0  0  0
  9 27  2  0  0  0
 10 11  2  0  0  0
 10 15  1  0  0  0
 11 12  1  0  0  0
 11 92  1  0  0  0
 12 13  2  0  0  0
 12 93  1  0  0  0
 13 14  1  0  0  0
 13 31  1  0  0  0
 14 15  2  0  0  0
 14 94  1  0  0  0
 15 95  1  0  0  0
 16 17  2  0  0  0
 16 21  1  0  0  0
 16 31  1  0  0  0
 17 18  1  0  0  0
 17 96  1  0  0  0
 18 19  2  0  0  0
 18 97  1  0  0  0
 19 20  1  0  0  0
 19 24  1  0  0  0
 20 21  2  0  0  0
 20 98  1  0  0  0
 21 23  1  0  0  0
 22 28  1  0  0  0
 22 32  2  0  0  0
 26 27  1  0  0  0
 28 99  1  0  0  0
 28100  1  0  0  0
 29101  1  0  0  0
 29102  1  0  0  0
 33 34  1  0  0  0
 33 66  1  0  0  0
 33 70  2  0  0  0
 34 36  1  0  0  0
 34 59  1  0  0  0
 34103  1  0  0  0
 35 44  2  0  0  0
 35 45  1  0  0  0
 35 68  1  0  0  0
 36 56  1  0  0  0
 36104  1  0  0  0
 37 39  1  0  0  0
 37 47  1  0  0  0
 37 66  1  0  0  0
 37105  1  0  0  0
 38 43  2  0  0  0
 38 46  1  0  0  0
 38 47  1  0  0  0
 39 64  1  0  0  0
 39 67  2  0  0  0
 40 52  1  0  0  0
 40 53  2  0  0  0
 40 58  1  0  0  0
 41106  1  0  0  0
 41107  1  0  0  0
 41108  1  0  0  0
 41 48  1  0  0  0
 42 43  1  0  0  0
 42 66  1  0  0  0
 42109  1  0  0  0
 42110  1  0  0  0
 43 44  1  0  0  0
 44111  1  0  0  0
 45 46  2  0  0  0
 45112  1  0  0  0
 46113  1  0  0  0
 47114  1  0  0  0
 47115  1  0  0  0
 48 56  1  0  0  0
 48 65  1  0  0  0
 48116  1  0  0  0
 49 50  1  0  0  0
 49 53  1  0  0  0
 49 64  1  0  0  0
 49117  1  0  0  0
 50 51  1  0  0  0
 50118  1  0  0  0
 50119  1  0  0  0
 51 52  1  0  0  0
 51120  1  0  0  0
 51121  1  0  0  0
 52122  1  0  0  0
 52123  1  0  0  0
 53 54  1  0  0  0
 54 55  2  0  0  0
 54124  1  0  0  0
 55 57  1  0  0  0
 55125  1  0  0  0
 56 69  2  0  0  0
 57 58  2  0  0  0
 57126  1  0  0  0
 58127  1  0  0  0
 59 60  1  0  0  0
 59 61  1  0  0  0
 59 62  1  0  0  0
 60128  1  0  0  0
 60129  1  0  0  0
 60130  1  0  0  0
 61131  1  0  0  0
 61132  1  0  0  0
 61133  1  0  0  0
 62134  1  0  0  0
 62135  1  0  0  0
 62136  1  0  0  0
 63 65  1  0  0  0
 63137  1  0  0  0
 63138  1  0  0  0
 63139  1  0  0  0
 64140  1  0  0  0
 65141  1  0  0  0
 68 79  1  0  0  0
 71 73  1  0  0  0
 71 76  1  0  0  0
 71142  1  0  0  0
 71143  1  0  0  0
 72 74  1  0  0  0
 72 77  1  0  0  0
 72144  1  0  0  0
 72145  1  0  0  0
 73 81  1  0  0  0
 73146  1  0  0  0
 73147  1  0  0  0
 74 80  1  0  0  0
 74148  1  0  0  0
 74149  1  0  0  0
 75 76  1  0  0  0
 75 81  1  0  0  0
 75150  1  0  0  0
 75151  1  0  0  0
 76 82  1  0  0  0
 76152  1  0  0  0
 77 80  1  0  0  0
 77 82  1  0  0  0
 77153  1  0  0  0
 78 79  1  0  0  0
 78 81  1  0  0  0
 78154  1  0  0  0
 78155  1  0  0  0
 79156  1  0  0  0
 79157  1  0  0  0
 82158  1  0  0  0
 82159  1  0  0  0
M  CHG  1  82   1
M  ISO  4   1 100  68 101  79 101  80 100
M  END
> <chiral flag>
0

> <version>
0

> <s_m_source_file>
/data/baiqing/PycharmProjects/Reinvent-master-3.2/result/LINK_invent/BTK/process_docking_weight1_custom_sum_contain_oxygen_bond_distance_aromatic_linkinvent_7_9_3/rearranged_h_0189.sdf

> <i_m_source_file_index>
91

> <r_mmod_Potential_Energy-OPLS-2005>
211.951812744141

> <r_mmod_Stretch_Energy-OPLS-2005>
128.888046264648

> <r_mmod_Bend_Energy-OPLS-2005>
226.160171508789

> <r_mmod_Torsional_Energy-OPLS-2005>
327.435882568359

> <r_mmod_Improper_Torsional_Energy-OPLS-2005>
10.8748426437378

> <r_mmod_Van_der_Waal_Energy-OPLS-2005>
119.392250061035

> <r_mmod_Electrostatic_Energy-OPLS-2005>
-184.820419311523

> <r_mmod_Solvation_Energy-OPLS-2005>
-491.690338134766

> <b_mmod_Minimization_Converged-OPLS-2005>
0

> <r_mmod_RMS_Derivative-OPLS-2005>
1.27296710014343

$$$$
92
                    3D
 Structure written by MMmdl.
166175  0  0  1  0            999 V2000
  -30.6046  -14.7080   20.4953 C   0  0  0  0  0  0
  -30.4346  -12.4454   19.4454 C   0  0  0  0  0  0
  -29.5045  -12.4944   18.2144 C   0  0  0  0  0  0
  -28.0281  -12.3244   18.6305 C   0  0  0  0  0  0
  -27.6351  -13.2218   19.8355 C   0  0  2  0  0  0
  -28.6806  -13.1410   20.9661 C   0  0  0  0  0  0
  -25.2489  -13.8177   20.5662 C   0  0  0  0  0  0
  -24.1785  -13.0433   20.9190 C   0  0  0  0  0  0
  -24.6358  -11.6913   20.8733 C   0  0  0  0  0  0
  -23.9044  -10.4287   21.0420 C   0  0  0  0  0  0
  -24.3598   -9.4197   21.9192 C   0  0  0  0  0  0
  -23.6277   -8.2232   22.0755 C   0  0  0  0  0  0
  -22.4251   -8.0272   21.3538 C   0  0  0  0  0  0
  -21.9893   -9.0244   20.4630 C   0  0  0  0  0  0
  -22.7222  -10.2126   20.3046 C   0  0  0  0  0  0
  -21.6851   -6.0722   22.5281 C   0  0  0  0  0  0
  -21.4019   -6.5633   23.8218 C   0  0  0  0  0  0
  -21.3654   -5.6776   24.9174 C   0  0  0  0  0  0
  -21.6051   -4.3042   24.7214 C   0  0  0  0  0  0
  -21.8824   -3.8132   23.4333 C   0  0  0  0  0  0
  -21.9189   -4.6953   22.3393 C   0  0  0  0  0  0
  -22.7795  -13.5225   21.1850 C   0  0  0  0  0  0
  -22.1657   -4.2137   21.0968 F   0  0  0  0  0  0
  -21.5624   -3.4518   25.7728 F   0  0  0  0  0  0
  -29.9743  -13.4980   20.3724 N   0  0  0  0  0  0
  -26.2892  -12.9354   20.3186 N   0  0  0  0  0  0
  -25.9283  -11.6509   20.5701 N   0  0  0  0  0  0
  -22.0411  -12.8243   22.0406 N   0  0  0  0  0  0
  -25.4152  -15.1910   20.4092 N   0  0  0  0  0  0
  -31.8162  -14.8129   20.2868 O   0  0  0  0  0  0
  -21.6623   -6.8864   21.4239 O   0  0  0  0  0  0
  -22.3492  -14.5515   20.6674 O   0  0  0  0  0  0
  -24.6280  -31.8558   23.1995 C   0  0  0  0  0  0
  -25.9105  -32.4767   23.8328 C   0  0  1  0  0  0
  -27.2222  -27.2792   20.1340 C   0  0  0  0  0  0
  -25.5907  -33.8569   24.2255 N   0  0  0  0  0  0
  -23.4248  -30.4809   21.5389 C   0  0  2  0  0  0
  -24.8764  -28.9352   20.1063 C   0  0  0  0  0  0
  -22.7462  -29.4628   22.4878 C   0  0  0  0  0  0
  -18.0285  -28.1397   22.8492 C   0  0  0  0  0  0
  -24.1491  -36.7273   23.2638 C   0  0  0  0  0  0
  -25.9705  -30.7784   21.3794 C   0  0  0  0  0  0
  -26.0461  -29.4041   20.7189 C   0  0  0  0  0  0
  -27.2222  -28.5876   20.7231 C   0  0  0  0  0  0
  -26.0345  -26.8898   19.4710 C   0  0  0  0  0  0
  -24.8760  -27.6872   19.4717 C   0  0  0  0  0  0
  -23.6437  -29.8138   20.1554 C   0  0  0  0  0  0
  -25.4121  -36.3072   24.0322 C   0  0  1  0  0  0
  -20.5885  -28.3693   23.1262 C   0  0  2  0  0  0
  -20.6785  -26.9408   22.5396 C   0  0  0  0  0  0
  -19.5757  -26.6382   21.5204 C   0  0  0  0  0  0
  -18.1932  -26.7938   22.1613 C   0  0  0  0  0  0
  -19.1536  -28.8861   23.2882 C   0  0  0  0  0  0
  -18.9460  -30.1463   23.8894 C   0  0  0  0  0  0
  -17.6462  -30.6601   24.0560 C   0  0  0  0  0  0
  -25.9035  -34.9445   23.5080 C   0  0  0  0  0  0
  -16.5351  -29.9093   23.6350 C   0  0  0  0  0  0
  -16.7263  -28.6509   23.0370 C   0  0  0  0  0  0
  -26.4521  -31.6568   25.0684 C   0  0  0  0  0  0
  -25.3765  -31.3681   26.1405 C   0  0  0  0  0  0
  -27.0390  -30.2988   24.6174 C   0  0  0  0  0  0
  -27.6083  -32.4303   25.7462 C   0  0  0  0  0  0
  -27.5589  -37.1799   24.8465 C   0  0  0  0  0  0
  -21.4165  -29.3046   22.3638 N   0  0  0  0  0  0
  -26.4309  -37.3761   23.9397 N   0  0  0  0  0  0
  -24.6927  -31.0559   22.0953 N   0  0  0  0  0  0
  -23.4177  -28.8179   23.2969 O   0  0  0  0  0  0
  -28.3069  -26.3747   20.2218 O   0  0  0  0  0  0
  -26.5598  -34.8912   22.4648 O   0  0  0  0  0  0
  -23.5427  -32.1369   23.7296 O   0  0  0  0  0  0
  -29.0450  -18.8528   23.0295 C   0  0  0  0  0  0
  -30.1346  -19.2310   24.0542 C   0  0  0  0  0  0
  -31.9771  -18.1884   22.7715 C   0  0  0  0  0  0
  -31.0542  -17.9650   21.5762 C   0  0  1  0  0  0
  -29.9964  -16.9046   21.6343 C   0  0  1  0  0  0
  -29.6152  -18.4770   21.6590 C   0  0  1  0  0  0
  -32.1535  -18.4423   25.2220 C   0  0  0  0  0  0
  -29.1524  -19.5887   20.6032 C   0  0  0  0  0  0
  -29.5320  -21.1512   20.8936 C   0  0  0  0  0  0
  -29.0334  -23.7522   20.6007 C   0  0  0  0  0  0
  -28.0344  -24.9035   20.0585 C   0  0  0  0  0  0
  -29.8185  -15.8353   20.6352 N   0  0  0  0  0  0
  -31.2481  -18.2482   24.0691 N   0  3  1  0  0  0
  -28.6773  -22.2817   20.2958 N   0  3  0  0  0  0
  -31.4715  -12.5923   19.1380 H   0  0  0  0  0  0
  -30.3916  -11.4670   19.9276 H   0  0  0  0  0  0
  -29.7850  -11.7127   17.5077 H   0  0  0  0  0  0
  -29.6351  -13.4435   17.6915 H   0  0  0  0  0  0
  -27.8866  -11.2756   18.8956 H   0  0  0  0  0  0
  -27.3664  -12.5125   17.7822 H   0  0  0  0  0  0
  -27.6295  -14.2454   19.4613 H   0  0  0  0  0  0
  -28.7145  -12.1382   21.3949 H   0  0  0  0  0  0
  -28.4179  -13.8140   21.7846 H   0  0  0  0  0  0
  -25.2745   -9.5682   22.4761 H   0  0  0  0  0  0
  -23.9979   -7.4633   22.7494 H   0  0  0  0  0  0
  -21.0807   -8.8755   19.8955 H   0  0  0  0  0  0
  -22.3676  -10.9651   19.6143 H   0  0  0  0  0  0
  -21.2020   -7.6143   23.9716 H   0  0  0  0  0  0
  -21.1478   -6.0504   25.9080 H   0  0  0  0  0  0
  -22.0607   -2.7596   23.2825 H   0  0  0  0  0  0
  -22.3960  -11.9911   22.4865 H   0  0  0  0  0  0
  -21.1021  -13.1312   22.2550 H   0  0  0  0  0  0
  -24.6390  -15.8349   20.5127 H   0  0  0  0  0  0
  -26.2514  -15.6384   20.0608 H   0  0  0  0  0  0
  -26.7178  -32.5459   23.1083 H   0  0  0  0  0  0
  -25.0160  -33.9722   25.0475 H   0  0  0  0  0  0
  -22.7216  -31.3035   21.3922 H   0  0  0  0  0  0
  -23.3768  -35.9588   23.3289 H   0  0  0  0  0  0
  -24.3595  -36.8890   22.2052 H   0  0  0  0  0  0
  -23.7231  -37.6467   23.6665 H   0  0  0  0  0  0
  -26.1102  -31.5448   20.6165 H   0  0  0  0  0  0
  -26.8458  -30.8230   22.0152 H   0  0  0  0  0  0
  -28.1136  -28.9412   21.2240 H   0  0  0  0  0  0
  -25.9640  -25.9461   18.9544 H   0  0  0  0  0  0
  -23.9859  -27.3273   18.9736 H   0  0  0  0  0  0
  -23.7552  -30.5869   19.3937 H   0  0  0  0  0  0
  -22.7692  -29.2327   19.8575 H   0  0  0  0  0  0
  -25.1319  -36.1926   25.0821 H   0  0  0  0  0  0
  -21.0000  -28.3277   24.1369 H   0  0  0  0  0  0
  -20.5669  -26.2302   23.3599 H   0  0  0  0  0  0
  -21.6674  -26.7438   22.1214 H   0  0  0  0  0  0
  -19.6906  -25.6281   21.1260 H   0  0  0  0  0  0
  -19.6728  -27.3179   20.6724 H   0  0  0  0  0  0
  -17.4218  -26.6682   21.3999 H   0  0  0  0  0  0
  -18.0329  -26.0078   22.9002 H   0  0  0  0  0  0
  -19.7931  -30.7284   24.2259 H   0  0  0  0  0  0
  -17.5014  -31.6281   24.5150 H   0  0  0  0  0  0
  -15.5345  -30.3001   23.7679 H   0  0  0  0  0  0
  -15.8658  -28.0826   22.7096 H   0  0  0  0  0  0
  -24.5982  -30.6988   25.7718 H   0  0  0  0  0  0
  -24.8936  -32.2840   26.4808 H   0  0  0  0  0  0
  -25.8110  -30.8882   27.0178 H   0  0  0  0  0  0
  -26.2966  -29.6706   24.1247 H   0  0  0  0  0  0
  -27.4117  -29.7278   25.4684 H   0  0  0  0  0  0
  -27.8823  -30.4247   23.9387 H   0  0  0  0  0  0
  -27.2701  -33.3615   26.2017 H   0  0  0  0  0  0
  -28.3928  -32.6822   25.0313 H   0  0  0  0  0  0
  -28.0727  -31.8432   26.5401 H   0  0  0  0  0  0
  -28.2606  -38.0092   24.7537 H   0  0  0  0  0  0
  -28.1087  -36.2638   24.6294 H   0  0  0  0  0  0
  -27.2298  -37.1434   25.8858 H   0  0  0  0  0  0
  -20.9294  -29.8786   21.6902 H   0  0  0  0  0  0
  -26.0183  -38.2827   24.1409 H   0  0  0  0  0  0
  -28.3132  -19.6585   22.9525 H   0  0  0  0  0  0
  -28.4711  -18.0061   23.4084 H   0  0  0  0  0  0
  -29.6786  -19.2846   25.0434 H   0  0  0  0  0  0
  -30.5302  -20.2266   23.8494 H   0  0  0  0  0  0
  -32.5243  -19.1184   22.6192 H   0  0  0  0  0  0
  -32.7125  -17.3821   22.7985 H   0  0  0  0  0  0
  -31.5570  -18.0729   20.6164 H   0  0  0  0  0  0
  -29.8993  -16.4449   22.6166 H   0  0  0  0  0  0
  -31.5965  -18.4328   26.1612 H   0  0  0  0  0  0
  -32.6770  -19.3961   25.1475 H   0  0  0  0  0  0
  -32.8982  -17.6465   25.2756 H   0  0  0  0  0  0
  -28.0659  -19.5166   20.5360 H   0  0  0  0  0  0
  -29.5187  -19.3033   19.6151 H   0  0  0  0  0  0
  -30.5616  -21.3121   20.5699 H   0  0  0  0  0  0
  -29.5397  -21.3289   21.9684 H   0  0  0  0  0  0
  -29.1089  -23.8545   21.6834 H   0  0  0  0  0  0
  -30.0339  -23.9449   20.2120 H   0  0  0  0  0  0
  -27.0728  -24.6988   20.5308 H   0  0  0  0  0  0
  -27.8862  -24.7244   18.9936 H   0  0  0  0  0  0
  -28.8461  -15.6480   20.4395 H   0  0  0  0  0  0
  -30.8304  -17.3425   24.2230 H   0  0  0  0  0  0
  -27.7288  -22.1328   20.6025 H   0  0  0  0  0  0
  -28.6709  -22.1687   19.2941 H   0  0  0  0  0  0
  1 25  1  0  0  0
  1 30  2  0  0  0
  1 82  1  0  0  0
  2  3  1  0  0  0
  2 25  1  0  0  0
  2 85  1  0  0  0
  2 86  1  0  0  0
  3  4  1  0  0  0
  3 87  1  0  0  0
  3 88  1  0  0  0
  4  5  1  0  0  0
  4 89  1  0  0  0
  4 90  1  0  0  0
  5  6  1  0  0  0
  5 26  1  0  0  0
  5 91  1  0  0  0
  6 25  1  0  0  0
  6 92  1  0  0  0
  6 93  1  0  0  0
  7  8  2  0  0  0
  7 26  1  0  0  0
  7 29  1  0  0  0
  8  9  1  0  0  0
  8 22  1  0  0  0
  9 10  1  0  0  0
  9 27  2  0  0  0
 10 11  2  0  0  0
 10 15  1  0  0  0
 11 12  1  0  0  0
 11 94  1  0  0  0
 12 13  2  0  0  0
 12 95  1  0  0  0
 13 14  1  0  0  0
 13 31  1  0  0  0
 14 15  2  0  0  0
 14 96  1  0  0  0
 15 97  1  0  0  0
 16 17  2  0  0  0
 16 21  1  0  0  0
 16 31  1  0  0  0
 17 18  1  0  0  0
 17 98  1  0  0  0
 18 19  2  0  0  0
 18 99  1  0  0  0
 19 20  1  0  0  0
 19 24  1  0  0  0
 20 21  2  0  0  0
 20100  1  0  0  0
 21 23  1  0  0  0
 22 28  1  0  0  0
 22 32  2  0  0  0
 26 27  1  0  0  0
 28101  1  0  0  0
 28102  1  0  0  0
 29103  1  0  0  0
 29104  1  0  0  0
 33 34  1  0  0  0
 33 66  1  0  0  0
 33 70  2  0  0  0
 34 36  1  0  0  0
 34 59  1  0  0  0
 34105  1  0  0  0
 35 44  2  0  0  0
 35 45  1  0  0  0
 35 68  1  0  0  0
 36 56  1  0  0  0
 36106  1  0  0  0
 37 39  1  0  0  0
 37 47  1  0  0  0
 37 66  1  0  0  0
 37107  1  0  0  0
 38 43  2  0  0  0
 38 46  1  0  0  0
 38 47  1  0  0  0
 39 64  1  0  0  0
 39 67  2  0  0  0
 40 52  1  0  0  0
 40 53  2  0  0  0
 40 58  1  0  0  0
 41108  1  0  0  0
 41109  1  0  0  0
 41110  1  0  0  0
 41 48  1  0  0  0
 42 43  1  0  0  0
 42 66  1  0  0  0
 42111  1  0  0  0
 42112  1  0  0  0
 43 44  1  0  0  0
 44113  1  0  0  0
 45 46  2  0  0  0
 45114  1  0  0  0
 46115  1  0  0  0
 47116  1  0  0  0
 47117  1  0  0  0
 48 56  1  0  0  0
 48 65  1  0  0  0
 48118  1  0  0  0
 49 50  1  0  0  0
 49 53  1  0  0  0
 49 64  1  0  0  0
 49119  1  0  0  0
 50 51  1  0  0  0
 50120  1  0  0  0
 50121  1  0  0  0
 51 52  1  0  0  0
 51122  1  0  0  0
 51123  1  0  0  0
 52124  1  0  0  0
 52125  1  0  0  0
 53 54  1  0  0  0
 54 55  2  0  0  0
 54126  1  0  0  0
 55 57  1  0  0  0
 55127  1  0  0  0
 56 69  2  0  0  0
 57 58  2  0  0  0
 57128  1  0  0  0
 58129  1  0  0  0
 59 60  1  0  0  0
 59 61  1  0  0  0
 59 62  1  0  0  0
 60130  1  0  0  0
 60131  1  0  0  0
 60132  1  0  0  0
 61133  1  0  0  0
 61134  1  0  0  0
 61135  1  0  0  0
 62136  1  0  0  0
 62137  1  0  0  0
 62138  1  0  0  0
 63 65  1  0  0  0
 63139  1  0  0  0
 63140  1  0  0  0
 63141  1  0  0  0
 64142  1  0  0  0
 65143  1  0  0  0
 68 81  1  0  0  0
 71 72  1  0  0  0
 71 76  1  0  0  0
 71144  1  0  0  0
 71145  1  0  0  0
 72 83  1  0  0  0
 72146  1  0  0  0
 72147  1  0  0  0
 73 83  1  0  0  0
 73148  1  0  0  0
 73149  1  0  0  0
 73 74  1  0  0  0
 74 75  1  0  0  0
 74 76  1  0  0  0
 74150  1  0  0  0
 75 76  1  0  0  0
 75 82  1  0  0  0
 75151  1  0  0  0
 76 78  1  0  0  0
 77152  1  0  0  0
 77153  1  0  0  0
 77154  1  0  0  0
 77 83  1  0  0  0
 78 79  1  0  0  0
 78155  1  0  0  0
 78156  1  0  0  0
 79 84  1  0  0  0
 79157  1  0  0  0
 79158  1  0  0  0
 80 81  1  0  0  0
 80 84  1  0  0  0
 80159  1  0  0  0
 80160  1  0  0  0
 81161  1  0  0  0
 81162  1  0  0  0
 82163  1  0  0  0
 83164  1  0  0  0
 84165  1  0  0  0
 84166  1  0  0  0
M  CHG  2  83   1  84   1
M  ISO  4   1 100  68 101  81 101  82 100
M  END
> <chiral flag>
0

> <version>
0

> <s_m_source_file>
/data/baiqing/PycharmProjects/Reinvent-master-3.2/result/LINK_invent/BTK/process_docking_weight1_custom_sum_contain_oxygen_bond_distance_aromatic_linkinvent_7_9_3/rearranged_h_0189.sdf

> <i_m_source_file_index>
92

> <r_mmod_Potential_Energy-OPLS-2005>
103.82479095459

> <r_mmod_Stretch_Energy-OPLS-2005>
122.843246459961

> <r_mmod_Bend_Energy-OPLS-2005>
204.608261108398

> <r_mmod_Torsional_Energy-OPLS-2005>
402.646789550781

> <r_mmod_Improper_Torsional_Energy-OPLS-2005>
7.45358467102051

> <r_mmod_Van_der_Waal_Energy-OPLS-2005>
126.589134216309

> <r_mmod_Electrostatic_Energy-OPLS-2005>
79.8002471923828

> <r_mmod_Solvation_Energy-OPLS-2005>
-921.494384765625

> <b_mmod_Minimization_Converged-OPLS-2005>
0

> <r_mmod_RMS_Derivative-OPLS-2005>
3.53029990196228

$$$$
93
                    3D
 Structure written by MMmdl.
150159  0  0  1  0            999 V2000
  -30.6263  -14.7472   20.4688 C   0  0  0  0  0  0
  -30.4327  -12.4606   19.4726 C   0  0  0  0  0  0
  -29.5095  -12.5076   18.2355 C   0  0  0  0  0  0
  -28.0367  -12.3299   18.6514 C   0  0  0  0  0  0
  -27.6419  -13.2332   19.8502 C   0  0  2  0  0  0
  -28.6881  -13.1751   20.9850 C   0  0  0  0  0  0
  -25.2512  -13.8199   20.5700 C   0  0  0  0  0  0
  -24.1805  -13.0442   20.9213 C   0  0  0  0  0  0
  -24.6398  -11.6920   20.8752 C   0  0  0  0  0  0
  -23.9075  -10.4295   21.0409 C   0  0  0  0  0  0
  -24.3624   -9.4208   21.9186 C   0  0  0  0  0  0
  -23.6296   -8.2244   22.0754 C   0  0  0  0  0  0
  -22.4279   -8.0283   21.3544 C   0  0  0  0  0  0
  -21.9916   -9.0258   20.4647 C   0  0  0  0  0  0
  -22.7247  -10.2136   20.3057 C   0  0  0  0  0  0
  -21.6854   -6.0737   22.5279 C   0  0  0  0  0  0
  -21.4015   -6.5641   23.8212 C   0  0  0  0  0  0
  -21.3659   -5.6793   24.9174 C   0  0  0  0  0  0
  -21.6043   -4.3056   24.7224 C   0  0  0  0  0  0
  -21.8819   -3.8148   23.4345 C   0  0  0  0  0  0
  -21.9193   -4.6965   22.3402 C   0  0  0  0  0  0
  -22.7825  -13.5222   21.1870 C   0  0  0  0  0  0
  -22.1662   -4.2151   21.0979 F   0  0  0  0  0  0
  -21.5628   -3.4539   25.7737 F   0  0  0  0  0  0
  -29.9881  -13.5273   20.4001 N   0  0  0  0  0  0
  -26.2941  -12.9410   20.3287 N   0  0  0  0  0  0
  -25.9331  -11.6551   20.5759 N   0  0  0  0  0  0
  -22.0471  -12.8210   22.0424 N   0  0  0  0  0  0
  -25.4191  -15.1925   20.4105 N   0  0  0  0  0  0
  -31.8151  -14.8326   20.1502 O   0  0  0  0  0  0
  -21.6641   -6.8881   21.4240 O   0  0  0  0  0  0
  -22.3509  -14.5527   20.6716 O   0  0  0  0  0  0
  -24.6348  -31.8552   23.2006 C   0  0  0  0  0  0
  -25.9167  -32.4754   23.8348 C   0  0  1  0  0  0
  -27.2083  -27.2368   20.1200 C   0  0  0  0  0  0
  -25.5955  -33.8557   24.2264 N   0  0  0  0  0  0
  -23.4317  -30.4826   21.5452 C   0  0  2  0  0  0
  -24.8773  -28.9384   20.1077 C   0  0  0  0  0  0
  -22.7522  -29.4609   22.4901 C   0  0  0  0  0  0
  -18.0297  -28.1390   22.8483 C   0  0  0  0  0  0
  -24.1491  -36.7279   23.2639 C   0  0  0  0  0  0
  -25.9838  -30.7588   21.3887 C   0  0  0  0  0  0
  -26.0537  -29.3829   20.7246 C   0  0  0  0  0  0
  -27.2215  -28.5449   20.7242 C   0  0  0  0  0  0
  -26.0069  -26.8894   19.4518 C   0  0  0  0  0  0
  -24.8613  -27.7000   19.4599 C   0  0  0  0  0  0
  -23.6508  -29.8276   20.1588 C   0  0  0  0  0  0
  -25.4118  -36.3067   24.0325 C   0  0  1  0  0  0
  -20.5905  -28.3708   23.1255 C   0  0  2  0  0  0
  -20.6787  -26.9422   22.5400 C   0  0  0  0  0  0
  -19.5757  -26.6384   21.5210 C   0  0  0  0  0  0
  -18.1939  -26.7931   22.1625 C   0  0  0  0  0  0
  -19.1552  -28.8866   23.2864 C   0  0  0  0  0  0
  -18.9471  -30.1465   23.8885 C   0  0  0  0  0  0
  -17.6469  -30.6590   24.0561 C   0  0  0  0  0  0
  -25.9063  -34.9438   23.5093 C   0  0  0  0  0  0
  -16.5360  -29.9085   23.6335 C   0  0  0  0  0  0
  -16.7283  -28.6503   23.0356 C   0  0  0  0  0  0
  -26.4516  -31.6583   25.0746 C   0  0  0  0  0  0
  -25.3725  -31.3745   26.1455 C   0  0  0  0  0  0
  -27.0370  -30.2991   24.6265 C   0  0  0  0  0  0
  -27.6062  -32.4332   25.7522 C   0  0  0  0  0  0
  -27.5578  -37.1797   24.8465 C   0  0  0  0  0  0
  -21.4226  -29.3055   22.3644 N   0  0  0  0  0  0
  -26.4290  -37.3768   23.9409 N   0  0  0  0  0  0
  -24.7028  -31.0499   22.1002 N   0  0  0  0  0  0
  -23.4214  -28.8132   23.2994 O   0  0  0  0  0  0
  -28.2620  -26.2778   20.2029 O   0  0  0  0  0  0
  -26.5629  -34.8913   22.4659 O   0  0  0  0  0  0
  -23.5491  -32.1389   23.7282 O   0  0  0  0  0  0
  -28.6023  -22.7602   21.4439 C   0  0  0  0  0  0
  -28.7048  -23.4954   20.2297 C   0  0  0  0  0  0
  -29.4625  -20.7873   20.4722 C   0  0  0  0  0  0
  -29.6177  -18.4083   21.6096 C   0  0  0  0  0  0
  -29.9103  -18.3469   19.5673 C   0  0  0  0  0  0
  -30.3577  -17.3536   20.7038 C   0  0  0  0  0  0
  -27.8799  -24.8376   19.9208 C   0  0  0  0  0  0
  -28.9871  -21.4391   21.5529 N   0  0  0  0  0  0
  -29.2067  -22.7761   19.1768 N   0  0  0  0  0  0
  -29.5855  -21.4681   19.3029 N   0  0  0  0  0  0
  -30.0008  -19.4095   20.5928 N   0  0  0  0  0  0
  -29.8813  -15.8956   20.6974 N   0  0  0  0  0  0
  -31.4732  -12.5834   19.1671 H   0  0  0  0  0  0
  -30.3785  -11.4857   19.9597 H   0  0  0  0  0  0
  -29.7927  -11.7325   17.5222 H   0  0  0  0  0  0
  -29.6335  -13.4605   17.7183 H   0  0  0  0  0  0
  -27.8967  -11.2818   18.9184 H   0  0  0  0  0  0
  -27.3776  -12.5171   17.8028 H   0  0  0  0  0  0
  -27.6341  -14.2534   19.4659 H   0  0  0  0  0  0
  -28.7257  -12.1796   21.4298 H   0  0  0  0  0  0
  -28.4227  -13.8605   21.7915 H   0  0  0  0  0  0
  -25.2768   -9.5684   22.4762 H   0  0  0  0  0  0
  -24.0005   -7.4635   22.7473 H   0  0  0  0  0  0
  -21.0848   -8.8778   19.8952 H   0  0  0  0  0  0
  -22.3706  -10.9676   19.6167 H   0  0  0  0  0  0
  -21.2008   -7.6149   23.9716 H   0  0  0  0  0  0
  -21.1481   -6.0523   25.9077 H   0  0  0  0  0  0
  -22.0598   -2.7610   23.2845 H   0  0  0  0  0  0
  -22.4091  -11.9873   22.4811 H   0  0  0  0  0  0
  -21.1088  -13.1230   22.2630 H   0  0  0  0  0  0
  -24.6468  -15.8419   20.5140 H   0  0  0  0  0  0
  -26.2575  -15.6313   20.0529 H   0  0  0  0  0  0
  -26.7232  -32.5392   23.1085 H   0  0  0  0  0  0
  -25.0104  -33.9695   25.0411 H   0  0  0  0  0  0
  -22.7293  -31.3066   21.4033 H   0  0  0  0  0  0
  -23.3756  -35.9608   23.3298 H   0  0  0  0  0  0
  -24.3581  -36.8905   22.2054 H   0  0  0  0  0  0
  -23.7240  -37.6477   23.6666 H   0  0  0  0  0  0
  -26.1323  -31.5214   20.6229 H   0  0  0  0  0  0
  -26.8580  -30.8010   22.0267 H   0  0  0  0  0  0
  -28.1145  -28.8758   21.2356 H   0  0  0  0  0  0
  -25.8911  -25.9575   18.9219 H   0  0  0  0  0  0
  -23.9650  -27.3583   18.9605 H   0  0  0  0  0  0
  -23.7792  -30.6092   19.4092 H   0  0  0  0  0  0
  -22.7675  -29.2666   19.8482 H   0  0  0  0  0  0
  -25.1299  -36.1912   25.0817 H   0  0  0  0  0  0
  -20.9998  -28.3288   24.1375 H   0  0  0  0  0  0
  -20.5691  -26.2319   23.3609 H   0  0  0  0  0  0
  -21.6652  -26.7445   22.1190 H   0  0  0  0  0  0
  -19.6919  -25.6291   21.1247 H   0  0  0  0  0  0
  -19.6690  -27.3188   20.6735 H   0  0  0  0  0  0
  -17.4206  -26.6675   21.4031 H   0  0  0  0  0  0
  -18.0343  -26.0075   22.9025 H   0  0  0  0  0  0
  -19.7947  -30.7285   24.2248 H   0  0  0  0  0  0
  -17.5023  -31.6269   24.5164 H   0  0  0  0  0  0
  -15.5360  -30.2983   23.7666 H   0  0  0  0  0  0
  -15.8682  -28.0817   22.7081 H   0  0  0  0  0  0
  -24.5907  -30.7086   25.7781 H   0  0  0  0  0  0
  -24.8909  -32.2919   26.4851 H   0  0  0  0  0  0
  -25.8029  -30.8941   27.0251 H   0  0  0  0  0  0
  -26.2971  -29.6731   24.1264 H   0  0  0  0  0  0
  -27.4004  -29.7264   25.4808 H   0  0  0  0  0  0
  -27.8872  -30.4248   23.9557 H   0  0  0  0  0  0
  -27.2665  -33.3643   26.2070 H   0  0  0  0  0  0
  -28.3889  -32.6874   25.0362 H   0  0  0  0  0  0
  -28.0712  -31.8477   26.5463 H   0  0  0  0  0  0
  -28.2592  -38.0098   24.7515 H   0  0  0  0  0  0
  -28.1079  -36.2629   24.6290 H   0  0  0  0  0  0
  -27.2296  -37.1442   25.8868 H   0  0  0  0  0  0
  -20.9414  -29.8791   21.6858 H   0  0  0  0  0  0
  -26.0166  -38.2841   24.1411 H   0  0  0  0  0  0
  -28.1297  -23.2008   22.3095 H   0  0  0  0  0  0
  -30.0763  -18.5713   22.5856 H   0  0  0  0  0  0
  -28.5364  -18.2731   21.6801 H   0  0  0  0  0  0
  -28.8914  -18.1959   19.2042 H   0  0  0  0  0  0
  -30.6263  -18.4561   18.7518 H   0  0  0  0  0  0
  -31.4383  -17.4163   20.8596 H   0  0  0  0  0  0
  -26.9294  -24.6536   20.4238 H   0  0  0  0  0  0
  -27.6742  -24.7845   18.8511 H   0  0  0  0  0  0
  -28.9039  -15.7467   20.8963 H   0  0  0  0  0  0
  1 25  1  0  0  0
  1 30  2  0  0  0
  1 82  1  0  0  0
  2  3  1  0  0  0
  2 25  1  0  0  0
  2 83  1  0  0  0
  2 84  1  0  0  0
  3  4  1  0  0  0
  3 85  1  0  0  0
  3 86  1  0  0  0
  4  5  1  0  0  0
  4 87  1  0  0  0
  4 88  1  0  0  0
  5  6  1  0  0  0
  5 26  1  0  0  0
  5 89  1  0  0  0
  6 25  1  0  0  0
  6 90  1  0  0  0
  6 91  1  0  0  0
  7  8  2  0  0  0
  7 26  1  0  0  0
  7 29  1  0  0  0
  8  9  1  0  0  0
  8 22  1  0  0  0
  9 10  1  0  0  0
  9 27  2  0  0  0
 10 11  2  0  0  0
 10 15  1  0  0  0
 11 12  1  0  0  0
 11 92  1  0  0  0
 12 13  2  0  0  0
 12 93  1  0  0  0
 13 14  1  0  0  0
 13 31  1  0  0  0
 14 15  2  0  0  0
 14 94  1  0  0  0
 15 95  1  0  0  0
 16 17  2  0  0  0
 16 21  1  0  0  0
 16 31  1  0  0  0
 17 18  1  0  0  0
 17 96  1  0  0  0
 18 19  2  0  0  0
 18 97  1  0  0  0
 19 20  1  0  0  0
 19 24  1  0  0  0
 20 21  2  0  0  0
 20 98  1  0  0  0
 21 23  1  0  0  0
 22 28  1  0  0  0
 22 32  2  0  0  0
 26 27  1  0  0  0
 28 99  1  0  0  0
 28100  1  0  0  0
 29101  1  0  0  0
 29102  1  0  0  0
 33 34  1  0  0  0
 33 66  1  0  0  0
 33 70  2  0  0  0
 34 36  1  0  0  0
 34 59  1  0  0  0
 34103  1  0  0  0
 35 44  2  0  0  0
 35 45  1  0  0  0
 35 68  1  0  0  0
 36 56  1  0  0  0
 36104  1  0  0  0
 37 39  1  0  0  0
 37 47  1  0  0  0
 37 66  1  0  0  0
 37105  1  0  0  0
 38 43  2  0  0  0
 38 46  1  0  0  0
 38 47  1  0  0  0
 39 64  1  0  0  0
 39 67  2  0  0  0
 40 52  1  0  0  0
 40 53  2  0  0  0
 40 58  1  0  0  0
 41106  1  0  0  0
 41107  1  0  0  0
 41108  1  0  0  0
 41 48  1  0  0  0
 42 43  1  0  0  0
 42 66  1  0  0  0
 42109  1  0  0  0
 42110  1  0  0  0
 43 44  1  0  0  0
 44111  1  0  0  0
 45 46  2  0  0  0
 45112  1  0  0  0
 46113  1  0  0  0
 47114  1  0  0  0
 47115  1  0  0  0
 48 56  1  0  0  0
 48 65  1  0  0  0
 48116  1  0  0  0
 49 50  1  0  0  0
 49 53  1  0  0  0
 49 64  1  0  0  0
 49117  1  0  0  0
 50 51  1  0  0  0
 50118  1  0  0  0
 50119  1  0  0  0
 51 52  1  0  0  0
 51120  1  0  0  0
 51121  1  0  0  0
 52122  1  0  0  0
 52123  1  0  0  0
 53 54  1  0  0  0
 54 55  2  0  0  0
 54124  1  0  0  0
 55 57  1  0  0  0
 55125  1  0  0  0
 56 69  2  0  0  0
 57 58  2  0  0  0
 57126  1  0  0  0
 58127  1  0  0  0
 59 60  1  0  0  0
 59 61  1  0  0  0
 59 62  1  0  0  0
 60128  1  0  0  0
 60129  1  0  0  0
 60130  1  0  0  0
 61131  1  0  0  0
 61132  1  0  0  0
 61133  1  0  0  0
 62134  1  0  0  0
 62135  1  0  0  0
 62136  1  0  0  0
 63 65  1  0  0  0
 63137  1  0  0  0
 63138  1  0  0  0
 63139  1  0  0  0
 64140  1  0  0  0
 65141  1  0  0  0
 68 77  1  0  0  0
 71 72  2  0  0  0
 71 78  1  0  0  0
 71142  1  0  0  0
 72 77  1  0  0  0
 72 79  1  0  0  0
 73 78  2  0  0  0
 73 80  1  0  0  0
 73 81  1  0  0  0
 74 76  1  0  0  0
 74 81  1  0  0  0
 74143  1  0  0  0
 74144  1  0  0  0
 75 76  1  0  0  0
 75 81  1  0  0  0
 75145  1  0  0  0
 75146  1  0  0  0
 76 82  1  0  0  0
 76147  1  0  0  0
 77148  1  0  0  0
 77149  1  0  0  0
 79 80  2  0  0  0
 82150  1  0  0  0
M  ISO  4   1 100  68 101  77 101  82 100
M  END
> <chiral flag>
0

> <version>
0

> <s_m_source_file>
/data/baiqing/PycharmProjects/Reinvent-master-3.2/result/LINK_invent/BTK/process_docking_weight1_custom_sum_contain_oxygen_bond_distance_aromatic_linkinvent_7_9_3/rearranged_h_0189.sdf

> <i_m_source_file_index>
93

> <r_mmod_Potential_Energy-OPLS-2005>
153.912506103516

> <r_mmod_Stretch_Energy-OPLS-2005>
122.285926818848

> <r_mmod_Bend_Energy-OPLS-2005>
245.769287109375

> <r_mmod_Torsional_Energy-OPLS-2005>
239.07958984375

> <r_mmod_Improper_Torsional_Energy-OPLS-2005>
15.0198526382446

> <r_mmod_Van_der_Waal_Energy-OPLS-2005>
156.433181762695

> <r_mmod_Electrostatic_Energy-OPLS-2005>
-459.281280517578

> <r_mmod_Solvation_Energy-OPLS-2005>
-264.311157226562

> <b_mmod_Minimization_Converged-OPLS-2005>
0

> <r_mmod_RMS_Derivative-OPLS-2005>
0.121356032788754

$$$$
94
                    3D
 Structure written by MMmdl.
169179  0  0  1  0            999 V2000
  -30.7136  -14.5143   20.5229 C   0  0  0  0  0  0
  -30.4082  -12.3187   19.4397 C   0  0  0  0  0  0
  -29.5002  -12.5170   18.2090 C   0  0  0  0  0  0
  -28.0175  -12.3860   18.6157 C   0  0  0  0  0  0
  -27.6555  -13.2261   19.8703 C   0  0  2  0  0  0
  -28.6980  -13.0544   20.9967 C   0  0  0  0  0  0
  -25.2548  -13.8195   20.5729 C   0  0  0  0  0  0
  -24.1808  -13.0446   20.9181 C   0  0  0  0  0  0
  -24.6381  -11.6925   20.8685 C   0  0  0  0  0  0
  -23.9059  -10.4285   21.0382 C   0  0  0  0  0  0
  -24.3604   -9.4209   21.9173 C   0  0  0  0  0  0
  -23.6281   -8.2240   22.0755 C   0  0  0  0  0  0
  -22.4260   -8.0254   21.3540 C   0  0  0  0  0  0
  -21.9891   -9.0238   20.4655 C   0  0  0  0  0  0
  -22.7226  -10.2115   20.3055 C   0  0  0  0  0  0
  -21.6850   -6.0707   22.5269 C   0  0  0  0  0  0
  -21.4024   -6.5620   23.8196 C   0  0  0  0  0  0
  -21.3682   -5.6781   24.9163 C   0  0  0  0  0  0
  -21.6051   -4.3036   24.7224 C   0  0  0  0  0  0
  -21.8827   -3.8129   23.4340 C   0  0  0  0  0  0
  -21.9196   -4.6940   22.3395 C   0  0  0  0  0  0
  -22.7836  -13.5237   21.1854 C   0  0  0  0  0  0
  -22.1675   -4.2118   21.0978 F   0  0  0  0  0  0
  -21.5627   -3.4533   25.7746 F   0  0  0  0  0  0
  -30.0259  -13.3401   20.4281 N   0  0  0  0  0  0
  -26.2981  -12.9400   20.3342 N   0  0  0  0  0  0
  -25.9308  -11.6528   20.5703 N   0  0  0  0  0  0
  -22.0493  -12.8228   22.0408 N   0  0  0  0  0  0
  -25.4306  -15.1915   20.4271 N   0  0  0  0  0  0
  -31.8510  -14.6499   20.0600 O   0  0  0  0  0  0
  -21.6636   -6.8849   21.4226 O   0  0  0  0  0  0
  -22.3544  -14.5566   20.6739 O   0  0  0  0  0  0
  -24.6202  -31.8646   23.2076 C   0  0  0  0  0  0
  -25.9088  -32.4783   23.8358 C   0  0  1  0  0  0
  -27.2314  -27.3714   20.0855 C   0  0  0  0  0  0
  -25.5946  -33.8580   24.2299 N   0  0  0  0  0  0
  -23.4094  -30.4913   21.5513 C   0  0  2  0  0  0
  -24.8532  -28.9531   20.1134 C   0  0  0  0  0  0
  -22.7430  -29.4662   22.4974 C   0  0  0  0  0  0
  -18.0275  -28.1395   22.8464 C   0  0  0  0  0  0
  -24.1493  -36.7283   23.2630 C   0  0  0  0  0  0
  -25.9472  -30.8046   21.3757 C   0  0  0  0  0  0
  -26.0176  -29.4373   20.7173 C   0  0  0  0  0  0
  -27.2048  -28.6543   20.7019 C   0  0  0  0  0  0
  -26.0404  -26.9350   19.4572 C   0  0  0  0  0  0
  -24.8624  -27.7020   19.4822 C   0  0  0  0  0  0
  -23.6203  -29.8290   20.1639 C   0  0  0  0  0  0
  -25.4115  -36.3079   24.0325 C   0  0  1  0  0  0
  -20.5873  -28.3672   23.1295 C   0  0  2  0  0  0
  -20.6747  -26.9384   22.5434 C   0  0  0  0  0  0
  -19.5741  -26.6384   21.5209 C   0  0  0  0  0  0
  -18.1908  -26.7939   22.1584 C   0  0  0  0  0  0
  -19.1535  -28.8842   23.2872 C   0  0  0  0  0  0
  -18.9474  -30.1448   23.8885 C   0  0  0  0  0  0
  -17.6483  -30.6582   24.0579 C   0  0  0  0  0  0
  -25.9063  -34.9449   23.5103 C   0  0  0  0  0  0
  -16.5364  -29.9095   23.6353 C   0  0  0  0  0  0
  -16.7273  -28.6528   23.0337 C   0  0  0  0  0  0
  -26.4469  -31.6581   25.0715 C   0  0  0  0  0  0
  -25.3706  -31.3721   26.1459 C   0  0  0  0  0  0
  -27.0306  -30.2997   24.6167 C   0  0  0  0  0  0
  -27.6046  -32.4297   25.7480 C   0  0  0  0  0  0
  -27.5573  -37.1800   24.8457 C   0  0  0  0  0  0
  -21.4167  -29.3015   22.3673 N   0  0  0  0  0  0
  -26.4282  -37.3780   23.9407 N   0  0  0  0  0  0
  -24.6761  -31.0711   22.1007 N   0  0  0  0  0  0
  -23.4184  -28.8215   23.3055 O   0  0  0  0  0  0
  -28.3944  -26.5924   20.1194 O   0  0  0  0  0  0
  -26.5626  -34.8902   22.4674 O   0  0  0  0  0  0
  -23.5389  -32.1452   23.7452 O   0  0  0  0  0  0
  -27.3349  -22.5355   21.2298 C   0  0  0  0  0  0
  -28.6359  -22.7502   20.6995 C   0  0  0  0  0  0
  -26.9156  -21.1922   21.2936 C   0  0  0  0  0  0
  -28.9698  -20.4512   20.6371 C   0  0  0  0  0  0
  -26.8844  -24.7354   22.6685 C   0  0  0  0  0  0
  -25.9399  -23.6653   23.1459 C   0  0  0  0  0  0
  -30.4781  -17.6243   22.2149 C   0  0  0  0  0  0
  -30.2825  -16.0990   22.3136 C   0  0  0  0  0  0
  -29.8676  -16.8095   20.0919 C   0  0  0  0  0  0
  -26.4285  -23.6481   21.7132 C   0  0  0  0  0  0
  -29.5949  -18.0050   21.0330 C   0  0  2  0  0  0
  -25.2536  -19.4524   21.8851 C   0  0  0  0  0  0
  -29.2259  -24.1748   20.4956 C   0  0  0  0  0  0
  -28.3761  -25.2005   19.6578 C   0  0  0  0  0  0
  -29.4476  -21.6823   20.4265 N   0  0  0  0  0  0
  -27.7340  -20.1743   20.9996 N   0  0  0  0  0  0
  -30.0274  -15.6059   20.9524 N   0  0  0  0  0  0
  -25.6125  -20.8525   21.6715 N   0  0  0  0  0  0
  -29.8310  -19.3617   20.4793 N   0  0  0  0  0  0
  -31.4591  -12.3794   19.1531 H   0  0  0  0  0  0
  -30.2733  -11.3217   19.8591 H   0  0  0  0  0  0
  -29.7468  -11.7880   17.4352 H   0  0  0  0  0  0
  -29.6809  -13.4994   17.7674 H   0  0  0  0  0  0
  -27.8274  -11.3309   18.8110 H   0  0  0  0  0  0
  -27.3744  -12.6677   17.7807 H   0  0  0  0  0  0
  -27.6848  -14.2714   19.5606 H   0  0  0  0  0  0
  -28.6705  -12.0421   21.4040 H   0  0  0  0  0  0
  -28.4567  -13.7192   21.8277 H   0  0  0  0  0  0
  -25.2740   -9.5690   22.4752 H   0  0  0  0  0  0
  -23.9990   -7.4644   22.7471 H   0  0  0  0  0  0
  -21.0824   -8.8776   19.8961 H   0  0  0  0  0  0
  -22.3686  -10.9655   19.6166 H   0  0  0  0  0  0
  -21.2026   -7.6129   23.9689 H   0  0  0  0  0  0
  -21.1506   -6.0512   25.9065 H   0  0  0  0  0  0
  -22.0584   -2.7585   23.2863 H   0  0  0  0  0  0
  -22.4114  -11.9899   22.4803 H   0  0  0  0  0  0
  -21.1115  -13.1276   22.2628 H   0  0  0  0  0  0
  -24.6744  -15.8532   20.5598 H   0  0  0  0  0  0
  -26.2987  -15.6245   20.1443 H   0  0  0  0  0  0
  -26.7156  -32.5453   23.1106 H   0  0  0  0  0  0
  -25.0041  -33.9705   25.0402 H   0  0  0  0  0  0
  -22.6998  -31.3119   21.4160 H   0  0  0  0  0  0
  -23.3735  -35.9639   23.3298 H   0  0  0  0  0  0
  -24.3570  -36.8901   22.2041 H   0  0  0  0  0  0
  -23.7267  -37.6490   23.6651 H   0  0  0  0  0  0
  -26.0807  -31.5751   20.6148 H   0  0  0  0  0  0
  -26.8247  -30.8455   22.0086 H   0  0  0  0  0  0
  -28.1007  -29.0267   21.1760 H   0  0  0  0  0  0
  -25.9697  -26.0058   18.9193 H   0  0  0  0  0  0
  -23.9740  -27.3272   18.9961 H   0  0  0  0  0  0
  -23.7353  -30.6105   19.4119 H   0  0  0  0  0  0
  -22.7384  -29.2606   19.8592 H   0  0  0  0  0  0
  -25.1297  -36.1923   25.0816 H   0  0  0  0  0  0
  -20.9950  -28.3256   24.1434 H   0  0  0  0  0  0
  -20.5594  -26.2277   23.3639 H   0  0  0  0  0  0
  -21.6624  -26.7375   22.1261 H   0  0  0  0  0  0
  -19.6895  -25.6304   21.1233 H   0  0  0  0  0  0
  -19.6715  -27.3175   20.6739 H   0  0  0  0  0  0
  -17.4199  -26.6721   21.3967 H   0  0  0  0  0  0
  -18.0278  -26.0062   22.8963 H   0  0  0  0  0  0
  -19.7959  -30.7259   24.2242 H   0  0  0  0  0  0
  -17.5059  -31.6248   24.5208 H   0  0  0  0  0  0
  -15.5372  -30.2997   23.7728 H   0  0  0  0  0  0
  -15.8675  -28.0864   22.7045 H   0  0  0  0  0  0
  -24.5883  -30.7061   25.7794 H   0  0  0  0  0  0
  -24.8863  -32.2877   26.4864 H   0  0  0  0  0  0
  -25.8027  -30.8916   27.0248 H   0  0  0  0  0  0
  -26.2878  -29.6752   24.1187 H   0  0  0  0  0  0
  -27.3985  -29.7257   25.4681 H   0  0  0  0  0  0
  -27.8763  -30.4252   23.9406 H   0  0  0  0  0  0
  -27.2671  -33.3596   26.2077 H   0  0  0  0  0  0
  -28.3844  -32.6868   25.0292 H   0  0  0  0  0  0
  -28.0725  -31.8397   26.5376 H   0  0  0  0  0  0
  -28.2603  -38.0086   24.7499 H   0  0  0  0  0  0
  -28.1070  -36.2617   24.6302 H   0  0  0  0  0  0
  -27.2293  -37.1475   25.8862 H   0  0  0  0  0  0
  -20.9326  -29.8701   21.6860 H   0  0  0  0  0  0
  -26.0161  -38.2854   24.1414 H   0  0  0  0  0  0
  -27.8936  -24.7080   23.0739 H   0  0  0  0  0  0
  -26.4663  -25.7321   22.5364 H   0  0  0  0  0  0
  -24.9125  -23.9696   23.3385 H   0  0  0  0  0  0
  -26.3374  -22.9229   23.8352 H   0  0  0  0  0  0
  -31.5273  -17.8410   21.9991 H   0  0  0  0  0  0
  -30.2222  -18.1397   23.1408 H   0  0  0  0  0  0
  -29.4183  -15.8606   22.9372 H   0  0  0  0  0  0
  -31.1493  -15.6185   22.7767 H   0  0  0  0  0  0
  -30.7885  -16.9806   19.5299 H   0  0  0  0  0  0
  -29.0677  -16.6767   19.3628 H   0  0  0  0  0  0
  -25.6966  -23.9169   20.9522 H   0  0  0  0  0  0
  -28.5640  -17.9250   21.3766 H   0  0  0  0  0  0
  -24.2179  -19.3617   22.2124 H   0  0  0  0  0  0
  -25.8937  -19.0064   22.6478 H   0  0  0  0  0  0
  -25.3709  -18.8833   20.9630 H   0  0  0  0  0  0
  -30.2014  -24.0811   20.0170 H   0  0  0  0  0  0
  -29.4334  -24.5808   21.4835 H   0  0  0  0  0  0
  -27.3801  -24.7847   19.6126 H   0  0  0  0  0  0
  -28.7186  -25.1910   18.6226 H   0  0  0  0  0  0
  -24.9969  -21.5872   22.0030 H   0  0  0  0  0  0
  -30.7711  -19.5965   20.1847 H   0  0  0  0  0  0
  1 25  1  0  0  0
  1 30  2  0  0  0
  1 87  1  0  0  0
  2  3  1  0  0  0
  2 25  1  0  0  0
  2 90  1  0  0  0
  2 91  1  0  0  0
  3  4  1  0  0  0
  3 92  1  0  0  0
  3 93  1  0  0  0
  4  5  1  0  0  0
  4 94  1  0  0  0
  4 95  1  0  0  0
  5  6  1  0  0  0
  5 26  1  0  0  0
  5 96  1  0  0  0
  6 25  1  0  0  0
  6 97  1  0  0  0
  6 98  1  0  0  0
  7  8  2  0  0  0
  7 26  1  0  0  0
  7 29  1  0  0  0
  8  9  1  0  0  0
  8 22  1  0  0  0
  9 10  1  0  0  0
  9 27  2  0  0  0
 10 11  2  0  0  0
 10 15  1  0  0  0
 11 12  1  0  0  0
 11 99  1  0  0  0
 12 13  2  0  0  0
 12100  1  0  0  0
 13 14  1  0  0  0
 13 31  1  0  0  0
 14 15  2  0  0  0
 14101  1  0  0  0
 15102  1  0  0  0
 16 17  2  0  0  0
 16 21  1  0  0  0
 16 31  1  0  0  0
 17 18  1  0  0  0
 17103  1  0  0  0
 18 19  2  0  0  0
 18104  1  0  0  0
 19 20  1  0  0  0
 19 24  1  0  0  0
 20 21  2  0  0  0
 20105  1  0  0  0
 21 23  1  0  0  0
 22 28  1  0  0  0
 22 32  2  0  0  0
 26 27  1  0  0  0
 28106  1  0  0  0
 28107  1  0  0  0
 29108  1  0  0  0
 29109  1  0  0  0
 33 34  1  0  0  0
 33 66  1  0  0  0
 33 70  2  0  0  0
 34 36  1  0  0  0
 34 59  1  0  0  0
 34110  1  0  0  0
 35 44  2  0  0  0
 35 45  1  0  0  0
 35 68  1  0  0  0
 36 56  1  0  0  0
 36111  1  0  0  0
 37 39  1  0  0  0
 37 47  1  0  0  0
 37 66  1  0  0  0
 37112  1  0  0  0
 38 43  2  0  0  0
 38 46  1  0  0  0
 38 47  1  0  0  0
 39 64  1  0  0  0
 39 67  2  0  0  0
 40 52  1  0  0  0
 40 53  2  0  0  0
 40 58  1  0  0  0
 41113  1  0  0  0
 41114  1  0  0  0
 41115  1  0  0  0
 41 48  1  0  0  0
 42 43  1  0  0  0
 42 66  1  0  0  0
 42116  1  0  0  0
 42117  1  0  0  0
 43 44  1  0  0  0
 44118  1  0  0  0
 45 46  2  0  0  0
 45119  1  0  0  0
 46120  1  0  0  0
 47121  1  0  0  0
 47122  1  0  0  0
 48 56  1  0  0  0
 48 65  1  0  0  0
 48123  1  0  0  0
 49 50  1  0  0  0
 49 53  1  0  0  0
 49 64  1  0  0  0
 49124  1  0  0  0
 50 51  1  0  0  0
 50125  1  0  0  0
 50126  1  0  0  0
 51 52  1  0  0  0
 51127  1  0  0  0
 51128  1  0  0  0
 52129  1  0  0  0
 52130  1  0  0  0
 53 54  1  0  0  0
 54 55  2  0  0  0
 54131  1  0  0  0
 55 57  1  0  0  0
 55132  1  0  0  0
 56 69  2  0  0  0
 57 58  2  0  0  0
 57133  1  0  0  0
 58134  1  0  0  0
 59 60  1  0  0  0
 59 61  1  0  0  0
 59 62  1  0  0  0
 60135  1  0  0  0
 60136  1  0  0  0
 60137  1  0  0  0
 61138  1  0  0  0
 61139  1  0  0  0
 61140  1  0  0  0
 62141  1  0  0  0
 62142  1  0  0  0
 62143  1  0  0  0
 63 65  1  0  0  0
 63144  1  0  0  0
 63145  1  0  0  0
 63146  1  0  0  0
 64147  1  0  0  0
 65148  1  0  0  0
 68 84  1  0  0  0
 71 72  1  0  0  0
 71 73  2  0  0  0
 71 80  1  0  0  0
 72 83  1  0  0  0
 72 85  2  0  0  0
 73 86  1  0  0  0
 73 88  1  0  0  0
 74 85  1  0  0  0
 74 86  2  0  0  0
 74 89  1  0  0  0
 75 76  1  0  0  0
 75 80  1  0  0  0
 75149  1  0  0  0
 75150  1  0  0  0
 76 80  1  0  0  0
 76151  1  0  0  0
 76152  1  0  0  0
 77 78  1  0  0  0
 77 81  1  0  0  0
 77153  1  0  0  0
 77154  1  0  0  0
 78 87  1  0  0  0
 78155  1  0  0  0
 78156  1  0  0  0
 79 81  1  0  0  0
 79 87  1  0  0  0
 79157  1  0  0  0
 79158  1  0  0  0
 80159  1  0  0  0
 81 89  1  0  0  0
 81160  1  0  0  0
 82 88  1  0  0  0
 82161  1  0  0  0
 82162  1  0  0  0
 82163  1  0  0  0
 83 84  1  0  0  0
 83164  1  0  0  0
 83165  1  0  0  0
 84166  1  0  0  0
 84167  1  0  0  0
 88168  1  0  0  0
 89169  1  0  0  0
M  ISO  4   1 100  68 101  84 101  87 100
M  END
> <chiral flag>
0

> <version>
0

> <s_m_source_file>
/data/baiqing/PycharmProjects/Reinvent-master-3.2/result/LINK_invent/BTK/process_docking_weight1_custom_sum_contain_oxygen_bond_distance_aromatic_linkinvent_7_9_3/rearranged_h_0189.sdf

> <i_m_source_file_index>
94

> <r_mmod_Potential_Energy-OPLS-2005>
-322.253021240234

> <r_mmod_Stretch_Energy-OPLS-2005>
55.2336196899414

> <r_mmod_Bend_Energy-OPLS-2005>
164.661239624023

> <r_mmod_Torsional_Energy-OPLS-2005>
344.012847900391

> <r_mmod_Improper_Torsional_Energy-OPLS-2005>
10.0620746612549

> <r_mmod_Van_der_Waal_Energy-OPLS-2005>
161.667144775391

> <r_mmod_Electrostatic_Energy-OPLS-2005>
-849.839477539062

> <r_mmod_Solvation_Energy-OPLS-2005>
-231.627792358398

> <b_mmod_Minimization_Converged-OPLS-2005>
0

> <r_mmod_RMS_Derivative-OPLS-2005>
4.47039222717285

$$$$
95
                    3D
 Structure written by MMmdl.
155164  0  0  1  0            999 V2000
  -30.5835  -14.7829   20.4490 C   0  0  0  0  0  0
  -30.4400  -12.4750   19.4826 C   0  0  0  0  0  0
  -29.5165  -12.5115   18.2435 C   0  0  0  0  0  0
  -28.0429  -12.3288   18.6553 C   0  0  0  0  0  0
  -27.6436  -13.2319   19.8527 C   0  0  2  0  0  0
  -28.6872  -13.1699   20.9904 C   0  0  0  0  0  0
  -25.2525  -13.8196   20.5694 C   0  0  0  0  0  0
  -24.1811  -13.0439   20.9199 C   0  0  0  0  0  0
  -24.6403  -11.6916   20.8748 C   0  0  0  0  0  0
  -23.9076  -10.4294   21.0401 C   0  0  0  0  0  0
  -24.3624   -9.4208   21.9179 C   0  0  0  0  0  0
  -23.6294   -8.2244   22.0753 C   0  0  0  0  0  0
  -22.4277   -8.0284   21.3542 C   0  0  0  0  0  0
  -21.9916   -9.0256   20.4643 C   0  0  0  0  0  0
  -22.7249  -10.2132   20.3049 C   0  0  0  0  0  0
  -21.6856   -6.0737   22.5278 C   0  0  0  0  0  0
  -21.4015   -6.5640   23.8209 C   0  0  0  0  0  0
  -21.3657   -5.6795   24.9173 C   0  0  0  0  0  0
  -21.6044   -4.3057   24.7225 C   0  0  0  0  0  0
  -21.8820   -3.8148   23.4347 C   0  0  0  0  0  0
  -21.9193   -4.6965   22.3404 C   0  0  0  0  0  0
  -22.7831  -13.5220   21.1857 C   0  0  0  0  0  0
  -22.1663   -4.2151   21.0981 F   0  0  0  0  0  0
  -21.5627   -3.4542   25.7737 F   0  0  0  0  0  0
  -29.9880  -13.5374   20.4142 N   0  0  0  0  0  0
  -26.2949  -12.9400   20.3284 N   0  0  0  0  0  0
  -25.9334  -11.6542   20.5744 N   0  0  0  0  0  0
  -22.0479  -12.8208   22.0414 N   0  0  0  0  0  0
  -25.4226  -15.1922   20.4118 N   0  0  0  0  0  0
  -31.7648  -14.8941   20.1049 O   0  0  0  0  0  0
  -21.6640   -6.8881   21.4239 O   0  0  0  0  0  0
  -22.3515  -14.5525   20.6709 O   0  0  0  0  0  0
  -24.6337  -31.8522   23.1971 C   0  0  0  0  0  0
  -25.9150  -32.4732   23.8317 C   0  0  1  0  0  0
  -27.2119  -27.2307   20.1245 C   0  0  0  0  0  0
  -25.5943  -33.8541   24.2235 N   0  0  0  0  0  0
  -23.4308  -30.4764   21.5414 C   0  0  2  0  0  0
  -24.8762  -28.9223   20.1064 C   0  0  0  0  0  0
  -22.7514  -29.4576   22.4887 C   0  0  0  0  0  0
  -18.0288  -28.1399   22.8473 C   0  0  0  0  0  0
  -24.1487  -36.7274   23.2639 C   0  0  0  0  0  0
  -25.9793  -30.7553   21.3816 C   0  0  0  0  0  0
  -26.0481  -29.3753   20.7235 C   0  0  0  0  0  0
  -27.2150  -28.5401   20.7247 C   0  0  0  0  0  0
  -26.0202  -26.8650   19.4575 C   0  0  0  0  0  0
  -24.8692  -27.6767   19.4626 C   0  0  0  0  0  0
  -23.6497  -29.8142   20.1560 C   0  0  0  0  0  0
  -25.4114  -36.3059   24.0328 C   0  0  1  0  0  0
  -20.5897  -28.3698   23.1267 C   0  0  2  0  0  0
  -20.6773  -26.9415   22.5406 C   0  0  0  0  0  0
  -19.5750  -26.6389   21.5209 C   0  0  0  0  0  0
  -18.1926  -26.7939   22.1620 C   0  0  0  0  0  0
  -19.1548  -28.8866   23.2861 C   0  0  0  0  0  0
  -18.9474  -30.1461   23.8884 C   0  0  0  0  0  0
  -17.6476  -30.6591   24.0566 C   0  0  0  0  0  0
  -25.9065  -34.9429   23.5084 C   0  0  0  0  0  0
  -16.5361  -29.9093   23.6341 C   0  0  0  0  0  0
  -16.7277  -28.6521   23.0342 C   0  0  0  0  0  0
  -26.4519  -31.6567   25.0709 C   0  0  0  0  0  0
  -25.3741  -31.3730   26.1430 C   0  0  0  0  0  0
  -27.0367  -30.2983   24.6195 C   0  0  0  0  0  0
  -27.6069  -32.4313   25.7487 C   0  0  0  0  0  0
  -27.5576  -37.1781   24.8469 C   0  0  0  0  0  0
  -21.4218  -29.3043   22.3650 N   0  0  0  0  0  0
  -26.4281  -37.3763   23.9427 N   0  0  0  0  0  0
  -24.7006  -31.0460   22.0964 N   0  0  0  0  0  0
  -23.4207  -28.8097   23.2975 O   0  0  0  0  0  0
  -28.3080  -26.3286   20.2075 O   0  0  0  0  0  0
  -26.5642  -34.8914   22.4652 O   0  0  0  0  0  0
  -23.5484  -32.1362   23.7245 O   0  0  0  0  0  0
  -31.0033  -19.3024   19.2858 C   0  0  0  0  0  0
  -30.9139  -17.9056   19.5920 C   0  0  0  0  0  0
  -28.9916  -18.3478   21.0040 C   0  0  0  0  0  0
  -30.0813  -20.2212   19.8448 C   0  0  0  0  0  0
  -29.1025  -19.7593   20.6903 C   0  0  0  0  0  0
  -29.9118  -17.3628   20.4555 C   0  0  0  0  0  0
  -29.9966  -21.7307   19.6899 C   0  0  0  0  0  0
  -28.3215  -21.0311   21.1249 C   0  0  0  0  0  0
  -28.0545  -23.8250   22.2060 C   0  0  0  0  0  0
  -28.2055  -24.8487   19.8731 C   0  0  0  0  0  0
  -28.8132  -23.7196   20.8710 C   0  0  2  0  0  0
  -28.9714  -22.2307   20.4470 N   0  0  0  0  0  0
  -29.7835  -15.8928   20.7275 N   0  0  0  0  0  0
  -30.7930  -22.3907   19.0167 O   0  0  0  0  0  0
  -31.4800  -12.6081   19.1794 H   0  0  0  0  0  0
  -30.3962  -11.4995   19.9691 H   0  0  0  0  0  0
  -29.8049  -11.7354   17.5335 H   0  0  0  0  0  0
  -29.6365  -13.4626   17.7218 H   0  0  0  0  0  0
  -27.9053  -11.2802   18.9230 H   0  0  0  0  0  0
  -27.3854  -12.5123   17.8046 H   0  0  0  0  0  0
  -27.6360  -14.2521   19.4675 H   0  0  0  0  0  0
  -28.7297  -12.1703   21.4254 H   0  0  0  0  0  0
  -28.4132  -13.8429   21.8044 H   0  0  0  0  0  0
  -25.2769   -9.5685   22.4759 H   0  0  0  0  0  0
  -24.0006   -7.4636   22.7478 H   0  0  0  0  0  0
  -21.0852   -8.8772   19.8950 H   0  0  0  0  0  0
  -22.3708  -10.9667   19.6161 H   0  0  0  0  0  0
  -21.2008   -7.6147   23.9716 H   0  0  0  0  0  0
  -21.1476   -6.0522   25.9076 H   0  0  0  0  0  0
  -22.0602   -2.7609   23.2846 H   0  0  0  0  0  0
  -22.4101  -11.9862   22.4785 H   0  0  0  0  0  0
  -21.1089  -13.1217   22.2613 H   0  0  0  0  0  0
  -24.6530  -15.8445   20.5159 H   0  0  0  0  0  0
  -26.2667  -15.6303   20.0650 H   0  0  0  0  0  0
  -26.7199  -32.5376   23.1042 H   0  0  0  0  0  0
  -25.0094  -33.9683   25.0383 H   0  0  0  0  0  0
  -22.7275  -31.2984   21.3948 H   0  0  0  0  0  0
  -23.3757  -35.9600   23.3295 H   0  0  0  0  0  0
  -24.3575  -36.8912   22.2054 H   0  0  0  0  0  0
  -23.7241  -37.6467   23.6678 H   0  0  0  0  0  0
  -26.1176  -31.5127   20.6088 H   0  0  0  0  0  0
  -26.8573  -30.8068   22.0132 H   0  0  0  0  0  0
  -28.1090  -28.8757   21.2308 H   0  0  0  0  0  0
  -25.9338  -25.9340   18.9219 H   0  0  0  0  0  0
  -23.9762  -27.3310   18.9608 H   0  0  0  0  0  0
  -23.7786  -30.5928   19.4036 H   0  0  0  0  0  0
  -22.7666  -29.2522   19.8470 H   0  0  0  0  0  0
  -25.1288  -36.1890   25.0821 H   0  0  0  0  0  0
  -20.9979  -28.3274   24.1392 H   0  0  0  0  0  0
  -20.5674  -26.2306   23.3607 H   0  0  0  0  0  0
  -21.6641  -26.7436   22.1195 H   0  0  0  0  0  0
  -19.6926  -25.6303   21.1230 H   0  0  0  0  0  0
  -19.6702  -27.3201   20.6737 H   0  0  0  0  0  0
  -17.4196  -26.6687   21.4016 H   0  0  0  0  0  0
  -18.0320  -26.0087   22.9021 H   0  0  0  0  0  0
  -19.7953  -30.7271   24.2249 H   0  0  0  0  0  0
  -17.5036  -31.6273   24.5164 H   0  0  0  0  0  0
  -15.5362  -30.2992   23.7680 H   0  0  0  0  0  0
  -15.8674  -28.0842   22.7056 H   0  0  0  0  0  0
  -24.5951  -30.7031   25.7770 H   0  0  0  0  0  0
  -24.8894  -32.2902   26.4785 H   0  0  0  0  0  0
  -25.8059  -30.8975   27.0245 H   0  0  0  0  0  0
  -26.2947  -29.6720   24.1227 H   0  0  0  0  0  0
  -27.4069  -29.7252   25.4704 H   0  0  0  0  0  0
  -27.8817  -30.4260   23.9427 H   0  0  0  0  0  0
  -27.2681  -33.3642   26.2006 H   0  0  0  0  0  0
  -28.3909  -32.6817   25.0328 H   0  0  0  0  0  0
  -28.0700  -31.8470   26.5452 H   0  0  0  0  0  0
  -28.2565  -38.0094   24.7515 H   0  0  0  0  0  0
  -28.1089  -36.2624   24.6278 H   0  0  0  0  0  0
  -27.2303  -37.1406   25.8871 H   0  0  0  0  0  0
  -20.9394  -29.8794   21.6886 H   0  0  0  0  0  0
  -26.0156  -38.2833   24.1446 H   0  0  0  0  0  0
  -31.7795  -19.6614   18.6241 H   0  0  0  0  0  0
  -31.6354  -17.2476   19.1297 H   0  0  0  0  0  0
  -28.2013  -18.0251   21.6670 H   0  0  0  0  0  0
  -28.3538  -21.1151   22.2107 H   0  0  0  0  0  0
  -27.2769  -20.9528   20.8205 H   0  0  0  0  0  0
  -27.9948  -24.8632   22.5363 H   0  0  0  0  0  0
  -28.5516  -23.2679   23.0002 H   0  0  0  0  0  0
  -27.0314  -23.4587   22.1149 H   0  0  0  0  0  0
  -27.1733  -24.5452   19.7221 H   0  0  0  0  0  0
  -28.6831  -24.7284   18.9007 H   0  0  0  0  0  0
  -29.8323  -24.0504   21.0770 H   0  0  0  0  0  0
  -28.8895  -15.6249   21.1106 H   0  0  0  0  0  0
  1 25  1  0  0  0
  1 30  2  0  0  0
  1 83  1  0  0  0
  2  3  1  0  0  0
  2 25  1  0  0  0
  2 85  1  0  0  0
  2 86  1  0  0  0
  3  4  1  0  0  0
  3 87  1  0  0  0
  3 88  1  0  0  0
  4  5  1  0  0  0
  4 89  1  0  0  0
  4 90  1  0  0  0
  5  6  1  0  0  0
  5 26  1  0  0  0
  5 91  1  0  0  0
  6 25  1  0  0  0
  6 92  1  0  0  0
  6 93  1  0  0  0
  7  8  2  0  0  0
  7 26  1  0  0  0
  7 29  1  0  0  0
  8  9  1  0  0  0
  8 22  1  0  0  0
  9 10  1  0  0  0
  9 27  2  0  0  0
 10 11  2  0  0  0
 10 15  1  0  0  0
 11 12  1  0  0  0
 11 94  1  0  0  0
 12 13  2  0  0  0
 12 95  1  0  0  0
 13 14  1  0  0  0
 13 31  1  0  0  0
 14 15  2  0  0  0
 14 96  1  0  0  0
 15 97  1  0  0  0
 16 17  2  0  0  0
 16 21  1  0  0  0
 16 31  1  0  0  0
 17 18  1  0  0  0
 17 98  1  0  0  0
 18 19  2  0  0  0
 18 99  1  0  0  0
 19 20  1  0  0  0
 19 24  1  0  0  0
 20 21  2  0  0  0
 20100  1  0  0  0
 21 23  1  0  0  0
 22 28  1  0  0  0
 22 32  2  0  0  0
 26 27  1  0  0  0
 28101  1  0  0  0
 28102  1  0  0  0
 29103  1  0  0  0
 29104  1  0  0  0
 33 34  1  0  0  0
 33 66  1  0  0  0
 33 70  2  0  0  0
 34 36  1  0  0  0
 34 59  1  0  0  0
 34105  1  0  0  0
 35 44  2  0  0  0
 35 45  1  0  0  0
 35 68  1  0  0  0
 36 56  1  0  0  0
 36106  1  0  0  0
 37 39  1  0  0  0
 37 47  1  0  0  0
 37 66  1  0  0  0
 37107  1  0  0  0
 38 43  2  0  0  0
 38 46  1  0  0  0
 38 47  1  0  0  0
 39 64  1  0  0  0
 39 67  2  0  0  0
 40 52  1  0  0  0
 40 53  2  0  0  0
 40 58  1  0  0  0
 41108  1  0  0  0
 41109  1  0  0  0
 41110  1  0  0  0
 41 48  1  0  0  0
 42 43  1  0  0  0
 42 66  1  0  0  0
 42111  1  0  0  0
 42112  1  0  0  0
 43 44  1  0  0  0
 44113  1  0  0  0
 45 46  2  0  0  0
 45114  1  0  0  0
 46115  1  0  0  0
 47116  1  0  0  0
 47117  1  0  0  0
 48 56  1  0  0  0
 48 65  1  0  0  0
 48118  1  0  0  0
 49 50  1  0  0  0
 49 53  1  0  0  0
 49 64  1  0  0  0
 49119  1  0  0  0
 50 51  1  0  0  0
 50120  1  0  0  0
 50121  1  0  0  0
 51 52  1  0  0  0
 51122  1  0  0  0
 51123  1  0  0  0
 52124  1  0  0  0
 52125  1  0  0  0
 53 54  1  0  0  0
 54 55  2  0  0  0
 54126  1  0  0  0
 55 57  1  0  0  0
 55127  1  0  0  0
 56 69  2  0  0  0
 57 58  2  0  0  0
 57128  1  0  0  0
 58129  1  0  0  0
 59 60  1  0  0  0
 59 61  1  0  0  0
 59 62  1  0  0  0
 60130  1  0  0  0
 60131  1  0  0  0
 60132  1  0  0  0
 61133  1  0  0  0
 61134  1  0  0  0
 61135  1  0  0  0
 62136  1  0  0  0
 62137  1  0  0  0
 62138  1  0  0  0
 63 65  1  0  0  0
 63139  1  0  0  0
 63140  1  0  0  0
 63141  1  0  0  0
 64142  1  0  0  0
 65143  1  0  0  0
 68 80  1  0  0  0
 71 72  2  0  0  0
 71 74  1  0  0  0
 71144  1  0  0  0
 72 76  1  0  0  0
 72145  1  0  0  0
 73 75  1  0  0  0
 73 76  2  0  0  0
 73146  1  0  0  0
 74 75  2  0  0  0
 74 77  1  0  0  0
 75 78  1  0  0  0
 76 83  1  0  0  0
 77 82  1  0  0  0
 77 84  2  0  0  0
 78 82  1  0  0  0
 78147  1  0  0  0
 78148  1  0  0  0
 79149  1  0  0  0
 79150  1  0  0  0
 79151  1  0  0  0
 79 81  1  0  0  0
 80 81  1  0  0  0
 80152  1  0  0  0
 80153  1  0  0  0
 81 82  1  0  0  0
 81154  1  0  0  0
 83155  1  0  0  0
M  ISO  4   1 100  68 101  80 101  83 100
M  END
> <chiral flag>
0

> <version>
0

> <s_m_source_file>
/data/baiqing/PycharmProjects/Reinvent-master-3.2/result/LINK_invent/BTK/process_docking_weight1_custom_sum_contain_oxygen_bond_distance_aromatic_linkinvent_7_9_3/rearranged_h_0189.sdf

> <i_m_source_file_index>
95

> <r_mmod_Potential_Energy-OPLS-2005>
292.431427001953

> <r_mmod_Stretch_Energy-OPLS-2005>
142.256301879883

> <r_mmod_Bend_Energy-OPLS-2005>
238.809173583984

> <r_mmod_Torsional_Energy-OPLS-2005>
251.670211791992

> <r_mmod_Improper_Torsional_Energy-OPLS-2005>
4.6482629776001

> <r_mmod_Van_der_Waal_Energy-OPLS-2005>
133.899856567383

> <r_mmod_Electrostatic_Energy-OPLS-2005>
-349.070129394531

> <r_mmod_Solvation_Energy-OPLS-2005>
-232.242401123047

> <b_mmod_Minimization_Converged-OPLS-2005>
0

> <r_mmod_RMS_Derivative-OPLS-2005>
1.41030824184418

$$$$
96
                    3D
 Structure written by MMmdl.
161169  0  0  1  0            999 V2000
  -30.7316  -14.4966   20.6197 C   0  0  0  0  0  0
  -30.4229  -12.3438   19.4224 C   0  0  0  0  0  0
  -29.4950  -12.5202   18.2032 C   0  0  0  0  0  0
  -28.0162  -12.3751   18.6129 C   0  0  0  0  0  0
  -27.6609  -13.2125   19.8694 C   0  0  2  0  0  0
  -28.7011  -12.9988   20.9880 C   0  0  0  0  0  0
  -25.2592  -13.8171   20.5650 C   0  0  0  0  0  0
  -24.1844  -13.0449   20.9151 C   0  0  0  0  0  0
  -24.6408  -11.6917   20.8703 C   0  0  0  0  0  0
  -23.9060  -10.4303   21.0372 C   0  0  0  0  0  0
  -24.3613   -9.4222   21.9162 C   0  0  0  0  0  0
  -23.6292   -8.2255   22.0741 C   0  0  0  0  0  0
  -22.4276   -8.0281   21.3533 C   0  0  0  0  0  0
  -21.9901   -9.0254   20.4638 C   0  0  0  0  0  0
  -22.7223  -10.2140   20.3037 C   0  0  0  0  0  0
  -21.6868   -6.0730   22.5272 C   0  0  0  0  0  0
  -21.4029   -6.5634   23.8204 C   0  0  0  0  0  0
  -21.3658   -5.6785   24.9166 C   0  0  0  0  0  0
  -21.6043   -4.3049   24.7214 C   0  0  0  0  0  0
  -21.8831   -3.8137   23.4337 C   0  0  0  0  0  0
  -21.9204   -4.6960   22.3394 C   0  0  0  0  0  0
  -22.7875  -13.5250   21.1819 C   0  0  0  0  0  0
  -22.1669   -4.2139   21.0974 F   0  0  0  0  0  0
  -21.5617   -3.4536   25.7728 F   0  0  0  0  0  0
  -30.0289  -13.3340   20.4443 N   0  0  0  0  0  0
  -26.3028  -12.9350   20.3324 N   0  0  0  0  0  0
  -25.9335  -11.6505   20.5732 N   0  0  0  0  0  0
  -22.0506  -12.8257   22.0376 N   0  0  0  0  0  0
  -25.4319  -15.1886   20.4054 N   0  0  0  0  0  0
  -31.8212  -14.6772   20.0691 O   0  0  0  0  0  0
  -21.6645   -6.8877   21.4231 O   0  0  0  0  0  0
  -22.3561  -14.5559   20.6666 O   0  0  0  0  0  0
  -24.6202  -31.8661   23.2094 C   0  0  0  0  0  0
  -25.9095  -32.4805   23.8376 C   0  0  1  0  0  0
  -27.2202  -27.3950   20.0870 C   0  0  0  0  0  0
  -25.5940  -33.8607   24.2308 N   0  0  0  0  0  0
  -23.4056  -30.4936   21.5543 C   0  0  2  0  0  0
  -24.8476  -28.9633   20.1110 C   0  0  0  0  0  0
  -22.7433  -29.4657   22.5015 C   0  0  0  0  0  0
  -18.0274  -28.1360   22.8509 C   0  0  0  0  0  0
  -24.1489  -36.7312   23.2638 C   0  0  0  0  0  0
  -25.9413  -30.8206   21.3683 C   0  0  0  0  0  0
  -26.0149  -29.4554   20.7085 C   0  0  0  0  0  0
  -27.2050  -28.6813   20.6897 C   0  0  0  0  0  0
  -26.0278  -26.9395   19.4743 C   0  0  0  0  0  0
  -24.8520  -27.7075   19.4891 C   0  0  0  0  0  0
  -23.6121  -29.8333   20.1669 C   0  0  0  0  0  0
  -25.4112  -36.3099   24.0330 C   0  0  1  0  0  0
  -20.5865  -28.3646   23.1336 C   0  0  2  0  0  0
  -20.6762  -26.9383   22.5433 C   0  0  0  0  0  0
  -19.5742  -26.6375   21.5231 C   0  0  0  0  0  0
  -18.1920  -26.7913   22.1631 C   0  0  0  0  0  0
  -19.1523  -28.8827   23.2913 C   0  0  0  0  0  0
  -18.9447  -30.1438   23.8913 C   0  0  0  0  0  0
  -17.6448  -30.6572   24.0567 C   0  0  0  0  0  0
  -25.9049  -34.9470   23.5106 C   0  0  0  0  0  0
  -16.5338  -29.9071   23.6325 C   0  0  0  0  0  0
  -16.7266  -28.6483   23.0360 C   0  0  0  0  0  0
  -26.4519  -31.6590   25.0713 C   0  0  0  0  0  0
  -25.3772  -31.3720   26.1453 C   0  0  0  0  0  0
  -27.0360  -30.3023   24.6114 C   0  0  0  0  0  0
  -27.6085  -32.4317   25.7475 C   0  0  0  0  0  0
  -27.5581  -37.1807   24.8465 C   0  0  0  0  0  0
  -21.4161  -29.3012   22.3751 N   0  0  0  0  0  0
  -26.4297  -37.3786   23.9407 N   0  0  0  0  0  0
  -24.6743  -31.0742   22.1014 N   0  0  0  0  0  0
  -23.4204  -28.8195   23.3057 O   0  0  0  0  0  0
  -28.3678  -26.6074   20.1102 O   0  0  0  0  0  0
  -26.5604  -34.8926   22.4659 O   0  0  0  0  0  0
  -23.5393  -32.1443   23.7482 O   0  0  0  0  0  0
  -30.5521  -16.8487   22.8251 C   0  0  0  0  0  0
  -29.8283  -15.5190   22.7003 C   0  0  0  0  0  0
  -30.5918  -16.9500   21.3067 C   0  0  2  0  0  0
  -31.2420  -22.0433   21.1452 C   0  0  0  0  0  0
  -29.6854  -17.9778   20.5715 C   0  0  0  0  0  0
  -29.4136  -24.2813   20.2392 C   0  0  0  0  0  0
  -29.6505  -20.4141   19.8278 C   0  0  0  0  0  0
  -28.1733  -25.1769   19.9533 C   0  0  0  0  0  0
  -30.1557  -21.8955   20.0584 C   0  0  1  0  0  0
  -30.1128  -15.5316   21.2575 N   0  0  0  0  0  0
  -29.0540  -22.8461   20.3051 N   0  0  0  0  0  0
  -30.1023  -19.3948   20.8233 N   0  3  0  0  0  0
  -31.4656  -12.4436   19.1151 H   0  0  0  0  0  0
  -30.3327  -11.3332   19.8230 H   0  0  0  0  0  0
  -29.7431  -11.7900   17.4305 H   0  0  0  0  0  0
  -29.6539  -13.5032   17.7588 H   0  0  0  0  0  0
  -27.8295  -11.3202   18.8104 H   0  0  0  0  0  0
  -27.3669  -12.6479   17.7801 H   0  0  0  0  0  0
  -27.7044  -14.2615   19.5761 H   0  0  0  0  0  0
  -28.6925  -11.9595   21.3217 H   0  0  0  0  0  0
  -28.4283  -13.5800   21.8634 H   0  0  0  0  0  0
  -25.2761   -9.5709   22.4732 H   0  0  0  0  0  0
  -24.0008   -7.4661   22.7477 H   0  0  0  0  0  0
  -21.0817   -8.8772   19.8964 H   0  0  0  0  0  0
  -22.3667  -10.9672   19.6139 H   0  0  0  0  0  0
  -21.2034   -7.6145   23.9712 H   0  0  0  0  0  0
  -21.1459   -6.0506   25.9070 H   0  0  0  0  0  0
  -22.0612   -2.7601   23.2832 H   0  0  0  0  0  0
  -22.4126  -11.9935   22.4794 H   0  0  0  0  0  0
  -21.1121  -13.1291   22.2567 H   0  0  0  0  0  0
  -24.6680  -15.8471   20.5088 H   0  0  0  0  0  0
  -26.2914  -15.6196   20.0879 H   0  0  0  0  0  0
  -26.7158  -32.5507   23.1128 H   0  0  0  0  0  0
  -25.0113  -33.9755   25.0469 H   0  0  0  0  0  0
  -22.6930  -31.3102   21.4204 H   0  0  0  0  0  0
  -23.3739  -35.9658   23.3315 H   0  0  0  0  0  0
  -24.3577  -36.8919   22.2049 H   0  0  0  0  0  0
  -23.7255  -37.6525   23.6650 H   0  0  0  0  0  0
  -26.0581  -31.5884   20.6018 H   0  0  0  0  0  0
  -26.8271  -30.8700   21.9896 H   0  0  0  0  0  0
  -28.1046  -29.0576   21.1572 H   0  0  0  0  0  0
  -25.9684  -25.9855   18.9733 H   0  0  0  0  0  0
  -23.9578  -27.3259   19.0159 H   0  0  0  0  0  0
  -23.7176  -30.6107   19.4096 H   0  0  0  0  0  0
  -22.7335  -29.2564   19.8730 H   0  0  0  0  0  0
  -25.1290  -36.1952   25.0825 H   0  0  0  0  0  0
  -20.9955  -28.3201   24.1459 H   0  0  0  0  0  0
  -20.5679  -26.2250   23.3619 H   0  0  0  0  0  0
  -21.6630  -26.7446   22.1212 H   0  0  0  0  0  0
  -19.6897  -25.6296   21.1236 H   0  0  0  0  0  0
  -19.6671  -27.3207   20.6779 H   0  0  0  0  0  0
  -17.4202  -26.6705   21.4011 H   0  0  0  0  0  0
  -18.0283  -26.0032   22.8995 H   0  0  0  0  0  0
  -19.7925  -30.7253   24.2283 H   0  0  0  0  0  0
  -17.5000  -31.6253   24.5157 H   0  0  0  0  0  0
  -15.5336  -30.2970   23.7638 H   0  0  0  0  0  0
  -15.8671  -28.0800   22.7068 H   0  0  0  0  0  0
  -24.5920  -30.7099   25.7785 H   0  0  0  0  0  0
  -24.9005  -32.2901   26.4898 H   0  0  0  0  0  0
  -25.8111  -30.8873   27.0207 H   0  0  0  0  0  0
  -26.2912  -29.6740   24.1208 H   0  0  0  0  0  0
  -27.4175  -29.7297   25.4580 H   0  0  0  0  0  0
  -27.8730  -30.4327   23.9245 H   0  0  0  0  0  0
  -27.2689  -33.3594   26.2086 H   0  0  0  0  0  0
  -28.3876  -32.6911   25.0295 H   0  0  0  0  0  0
  -28.0780  -31.8424   26.5360 H   0  0  0  0  0  0
  -28.2613  -38.0091   24.7497 H   0  0  0  0  0  0
  -28.1059  -36.2621   24.6302 H   0  0  0  0  0  0
  -27.2303  -37.1479   25.8871 H   0  0  0  0  0  0
  -20.9324  -29.8738   21.6976 H   0  0  0  0  0  0
  -26.0181  -38.2869   24.1380 H   0  0  0  0  0  0
  -31.5468  -16.7627   23.2661 H   0  0  0  0  0  0
  -29.9632  -17.6210   23.3205 H   0  0  0  0  0  0
  -28.7673  -15.5884   22.9429 H   0  0  0  0  0  0
  -30.3106  -14.7160   23.2631 H   0  0  0  0  0  0
  -31.6304  -17.0457   20.9843 H   0  0  0  0  0  0
  -32.0952  -21.3954   20.9419 H   0  0  0  0  0  0
  -30.8667  -21.8009   22.1401 H   0  0  0  0  0  0
  -31.6423  -23.0571   21.1847 H   0  0  0  0  0  0
  -28.6422  -17.8584   20.8676 H   0  0  0  0  0  0
  -29.7229  -17.7834   19.4993 H   0  0  0  0  0  0
  -29.8738  -24.5811   21.1816 H   0  0  0  0  0  0
  -30.1557  -24.4516   19.4577 H   0  0  0  0  0  0
  -30.0051  -20.0879   18.8484 H   0  0  0  0  0  0
  -28.5605  -20.3871   19.7654 H   0  0  0  0  0  0
  -27.3617  -24.8610   20.6129 H   0  0  0  0  0  0
  -27.8588  -24.9684   18.9290 H   0  0  0  0  0  0
  -30.6093  -22.2045   19.1139 H   0  0  0  0  0  0
  -28.5936  -22.6505   21.1912 H   0  0  0  0  0  0
  -31.1085  -19.4210   20.8438 H   0  0  0  0  0  0
  -29.7699  -19.6695   21.7332 H   0  0  0  0  0  0
  1 25  1  0  0  0
  1 30  2  0  0  0
  1 80  1  0  0  0
  2  3  1  0  0  0
  2 25  1  0  0  0
  2 83  1  0  0  0
  2 84  1  0  0  0
  3  4  1  0  0  0
  3 85  1  0  0  0
  3 86  1  0  0  0
  4  5  1  0  0  0
  4 87  1  0  0  0
  4 88  1  0  0  0
  5  6  1  0  0  0
  5 26  1  0  0  0
  5 89  1  0  0  0
  6 25  1  0  0  0
  6 90  1  0  0  0
  6 91  1  0  0  0
  7  8  2  0  0  0
  7 26  1  0  0  0
  7 29  1  0  0  0
  8  9  1  0  0  0
  8 22  1  0  0  0
  9 10  1  0  0  0
  9 27  2  0  0  0
 10 11  2  0  0  0
 10 15  1  0  0  0
 11 12  1  0  0  0
 11 92  1  0  0  0
 12 13  2  0  0  0
 12 93  1  0  0  0
 13 14  1  0  0  0
 13 31  1  0  0  0
 14 15  2  0  0  0
 14 94  1  0  0  0
 15 95  1  0  0  0
 16 17  2  0  0  0
 16 21  1  0  0  0
 16 31  1  0  0  0
 17 18  1  0  0  0
 17 96  1  0  0  0
 18 19  2  0  0  0
 18 97  1  0  0  0
 19 20  1  0  0  0
 19 24  1  0  0  0
 20 21  2  0  0  0
 20 98  1  0  0  0
 21 23  1  0  0  0
 22 28  1  0  0  0
 22 32  2  0  0  0
 26 27  1  0  0  0
 28 99  1  0  0  0
 28100  1  0  0  0
 29101  1  0  0  0
 29102  1  0  0  0
 33 34  1  0  0  0
 33 66  1  0  0  0
 33 70  2  0  0  0
 34 36  1  0  0  0
 34 59  1  0  0  0
 34103  1  0  0  0
 35 44  2  0  0  0
 35 45  1  0  0  0
 35 68  1  0  0  0
 36 56  1  0  0  0
 36104  1  0  0  0
 37 39  1  0  0  0
 37 47  1  0  0  0
 37 66  1  0  0  0
 37105  1  0  0  0
 38 43  2  0  0  0
 38 46  1  0  0  0
 38 47  1  0  0  0
 39 64  1  0  0  0
 39 67  2  0  0  0
 40 52  1  0  0  0
 40 53  2  0  0  0
 40 58  1  0  0  0
 41106  1  0  0  0
 41107  1  0  0  0
 41108  1  0  0  0
 41 48  1  0  0  0
 42 43  1  0  0  0
 42 66  1  0  0  0
 42109  1  0  0  0
 42110  1  0  0  0
 43 44  1  0  0  0
 44111  1  0  0  0
 45 46  2  0  0  0
 45112  1  0  0  0
 46113  1  0  0  0
 47114  1  0  0  0
 47115  1  0  0  0
 48 56  1  0  0  0
 48 65  1  0  0  0
 48116  1  0  0  0
 49 50  1  0  0  0
 49 53  1  0  0  0
 49 64  1  0  0  0
 49117  1  0  0  0
 50 51  1  0  0  0
 50118  1  0  0  0
 50119  1  0  0  0
 51 52  1  0  0  0
 51120  1  0  0  0
 51121  1  0  0  0
 52122  1  0  0  0
 52123  1  0  0  0
 53 54  1  0  0  0
 54 55  2  0  0  0
 54124  1  0  0  0
 55 57  1  0  0  0
 55125  1  0  0  0
 56 69  2  0  0  0
 57 58  2  0  0  0
 57126  1  0  0  0
 58127  1  0  0  0
 59 60  1  0  0  0
 59 61  1  0  0  0
 59 62  1  0  0  0
 60128  1  0  0  0
 60129  1  0  0  0
 60130  1  0  0  0
 61131  1  0  0  0
 61132  1  0  0  0
 61133  1  0  0  0
 62134  1  0  0  0
 62135  1  0  0  0
 62136  1  0  0  0
 63 65  1  0  0  0
 63137  1  0  0  0
 63138  1  0  0  0
 63139  1  0  0  0
 64140  1  0  0  0
 65141  1  0  0  0
 68 78  1  0  0  0
 71 72  1  0  0  0
 71 73  1  0  0  0
 71142  1  0  0  0
 71143  1  0  0  0
 72 80  1  0  0  0
 72144  1  0  0  0
 72145  1  0  0  0
 73 75  1  0  0  0
 73 80  1  0  0  0
 73146  1  0  0  0
 74147  1  0  0  0
 74148  1  0  0  0
 74149  1  0  0  0
 74 79  1  0  0  0
 75 82  1  0  0  0
 75150  1  0  0  0
 75151  1  0  0  0
 76 78  1  0  0  0
 76 81  1  0  0  0
 76152  1  0  0  0
 76153  1  0  0  0
 77 79  1  0  0  0
 77 82  1  0  0  0
 77154  1  0  0  0
 77155  1  0  0  0
 78156  1  0  0  0
 78157  1  0  0  0
 79 81  1  0  0  0
 79158  1  0  0  0
 81159  1  0  0  0
 82160  1  0  0  0
 82161  1  0  0  0
M  CHG  1  82   1
M  ISO  4   1 100  68 101  78 101  80 100
M  END
> <chiral flag>
0

> <version>
0

> <s_m_source_file>
/data/baiqing/PycharmProjects/Reinvent-master-3.2/result/LINK_invent/BTK/process_docking_weight1_custom_sum_contain_oxygen_bond_distance_aromatic_linkinvent_7_9_3/rearranged_h_0189.sdf

> <i_m_source_file_index>
96

> <r_mmod_Potential_Energy-OPLS-2005>
-88.0540771484375

> <r_mmod_Stretch_Energy-OPLS-2005>
52.4521141052246

> <r_mmod_Bend_Energy-OPLS-2005>
115.078842163086

> <r_mmod_Torsional_Energy-OPLS-2005>
287.998138427734

> <r_mmod_Improper_Torsional_Energy-OPLS-2005>
10.0185956954956

> <r_mmod_Van_der_Waal_Energy-OPLS-2005>
139.722991943359

> <r_mmod_Electrostatic_Energy-OPLS-2005>
-247.852844238281

> <r_mmod_Solvation_Energy-OPLS-2005>
-463.132568359375

> <b_mmod_Minimization_Converged-OPLS-2005>
0

> <r_mmod_RMS_Derivative-OPLS-2005>
1.96132838726044

$$$$
97
                    3D
 Structure written by MMmdl.
166175  0  0  1  0            999 V2000
  -30.7235  -14.5352   20.4426 C   0  0  0  0  0  0
  -30.4050  -12.3150   19.4543 C   0  0  0  0  0  0
  -29.4962  -12.4529   18.2154 C   0  0  0  0  0  0
  -28.0187  -12.3196   18.6335 C   0  0  0  0  0  0
  -27.6425  -13.2209   19.8420 C   0  0  2  0  0  0
  -28.6889  -13.1201   20.9769 C   0  0  0  0  0  0
  -25.2527  -13.8211   20.5714 C   0  0  0  0  0  0
  -24.1788  -13.0455   20.9230 C   0  0  0  0  0  0
  -24.6369  -11.6935   20.8748 C   0  0  0  0  0  0
  -23.9058  -10.4305   21.0404 C   0  0  0  0  0  0
  -24.3616   -9.4214   21.9169 C   0  0  0  0  0  0
  -23.6301   -8.2240   22.0730 C   0  0  0  0  0  0
  -22.4269   -8.0292   21.3540 C   0  0  0  0  0  0
  -21.9914   -9.0261   20.4632 C   0  0  0  0  0  0
  -22.7242  -10.2146   20.3054 C   0  0  0  0  0  0
  -21.6861   -6.0755   22.5284 C   0  0  0  0  0  0
  -21.4016   -6.5636   23.8222 C   0  0  0  0  0  0
  -21.3667   -5.6769   24.9173 C   0  0  0  0  0  0
  -21.6050   -4.3035   24.7215 C   0  0  0  0  0  0
  -21.8816   -3.8153   23.4324 C   0  0  0  0  0  0
  -21.9187   -4.6981   22.3395 C   0  0  0  0  0  0
  -22.7820  -13.5253   21.1869 C   0  0  0  0  0  0
  -22.1648   -4.2172   21.0966 F   0  0  0  0  0  0
  -21.5633   -3.4509   25.7725 F   0  0  0  0  0  0
  -30.0138  -13.3752   20.3969 N   0  0  0  0  0  0
  -26.2919  -12.9395   20.3231 N   0  0  0  0  0  0
  -25.9288  -11.6550   20.5732 N   0  0  0  0  0  0
  -22.0439  -12.8266   22.0425 N   0  0  0  0  0  0
  -25.4223  -15.1938   20.4157 N   0  0  0  0  0  0
  -31.9208  -14.5719   20.1596 O   0  0  0  0  0  0
  -21.6631   -6.8898   21.4244 O   0  0  0  0  0  0
  -22.3519  -14.5547   20.6699 O   0  0  0  0  0  0
  -24.6148  -31.8676   23.2116 C   0  0  0  0  0  0
  -25.9033  -32.4841   23.8414 C   0  0  1  0  0  0
  -27.2213  -27.4100   20.0937 C   0  0  0  0  0  0
  -25.5911  -33.8638   24.2337 N   0  0  0  0  0  0
  -23.4020  -30.4911   21.5523 C   0  0  2  0  0  0
  -24.8448  -28.9561   20.1143 C   0  0  0  0  0  0
  -22.7401  -29.4643   22.5001 C   0  0  0  0  0  0
  -18.0267  -28.1371   22.8494 C   0  0  0  0  0  0
  -24.1484  -36.7289   23.2628 C   0  0  0  0  0  0
  -25.9321  -30.8251   21.3682 C   0  0  0  0  0  0
  -26.0068  -29.4592   20.7103 C   0  0  0  0  0  0
  -27.1961  -28.6927   20.6971 C   0  0  0  0  0  0
  -26.0372  -26.9299   19.4867 C   0  0  0  0  0  0
  -24.8559  -27.6937   19.4999 C   0  0  0  0  0  0
  -23.6076  -29.8226   20.1671 C   0  0  0  0  0  0
  -25.4117  -36.3113   24.0323 C   0  0  1  0  0  0
  -20.5858  -28.3618   23.1335 C   0  0  2  0  0  0
  -20.6740  -26.9352   22.5410 C   0  0  0  0  0  0
  -19.5733  -26.6369   21.5182 C   0  0  0  0  0  0
  -18.1916  -26.7927   22.1607 C   0  0  0  0  0  0
  -19.1522  -28.8807   23.2914 C   0  0  0  0  0  0
  -18.9443  -30.1426   23.8898 C   0  0  0  0  0  0
  -17.6441  -30.6569   24.0543 C   0  0  0  0  0  0
  -25.9032  -34.9482   23.5113 C   0  0  0  0  0  0
  -16.5333  -29.9059   23.6339 C   0  0  0  0  0  0
  -16.7250  -28.6486   23.0348 C   0  0  0  0  0  0
  -26.4463  -31.6672   25.0771 C   0  0  0  0  0  0
  -25.3731  -31.3756   26.1519 C   0  0  0  0  0  0
  -27.0284  -30.3131   24.6164 C   0  0  0  0  0  0
  -27.6068  -32.4384   25.7509 C   0  0  0  0  0  0
  -27.5584  -37.1805   24.8467 C   0  0  0  0  0  0
  -21.4132  -29.3007   22.3765 N   0  0  0  0  0  0
  -26.4301  -37.3807   23.9404 N   0  0  0  0  0  0
  -24.6678  -31.0773   22.1009 N   0  0  0  0  0  0
  -23.4179  -28.8143   23.3003 O   0  0  0  0  0  0
  -28.3975  -26.6809   20.1206 O   0  0  0  0  0  0
  -26.5570  -34.8924   22.4659 O   0  0  0  0  0  0
  -23.5344  -32.1428   23.7506 O   0  0  0  0  0  0
  -31.7472  -17.5795   20.3859 C   0  0  0  0  0  0
  -31.2531  -18.8772   19.7359 C   0  0  0  0  0  0
  -29.2816  -21.0094   21.8607 C   0  0  0  0  0  0
  -28.2748  -20.8122   19.5348 C   0  0  0  0  0  0
  -29.2556  -22.5196   21.4906 C   0  0  0  0  0  0
  -27.5653  -22.1922   19.6877 C   0  0  0  0  0  0
  -30.5546  -16.8749   19.7133 C   0  0  1  0  0  0
  -29.8349  -18.2673   19.6945 C   0  0  1  0  0  0
  -28.4795  -20.0927   20.8940 C   0  0  1  0  0  0
  -27.6847  -24.4170   20.9435 C   0  0  0  0  0  0
  -28.3835  -25.2627   19.8398 C   0  0  0  0  0  0
  -30.0168  -15.6966   20.4497 N   0  0  0  0  0  0
  -27.9410  -22.9345   20.9347 N   0  3  2  0  0  0
  -28.9662  -18.6674   20.8422 N   0  3  0  0  0  0
  -31.4559  -12.3707   19.1642 H   0  0  0  0  0  0
  -30.2789  -11.3368   19.9201 H   0  0  0  0  0  0
  -29.7485  -11.6776   17.4885 H   0  0  0  0  0  0
  -29.6666  -13.4093   17.7191 H   0  0  0  0  0  0
  -27.8563  -11.2741   18.8978 H   0  0  0  0  0  0
  -27.3589  -12.5202   17.7880 H   0  0  0  0  0  0
  -27.6472  -14.2461   19.4695 H   0  0  0  0  0  0
  -28.6638  -12.1289   21.4340 H   0  0  0  0  0  0
  -28.4644  -13.8301   21.7753 H   0  0  0  0  0  0
  -25.2767   -9.5700   22.4725 H   0  0  0  0  0  0
  -24.0032   -7.4630   22.7437 H   0  0  0  0  0  0
  -21.0850   -8.8787   19.8927 H   0  0  0  0  0  0
  -22.3703  -10.9679   19.6156 H   0  0  0  0  0  0
  -21.1995   -7.6143   23.9747 H   0  0  0  0  0  0
  -21.1495   -6.0481   25.9083 H   0  0  0  0  0  0
  -22.0590   -2.7618   23.2802 H   0  0  0  0  0  0
  -22.4045  -11.9974   22.4904 H   0  0  0  0  0  0
  -21.1043  -13.1296   22.2541 H   0  0  0  0  0  0
  -24.6504  -15.8443   20.5240 H   0  0  0  0  0  0
  -26.2541  -15.6256   20.0380 H   0  0  0  0  0  0
  -26.7081  -32.5549   23.1151 H   0  0  0  0  0  0
  -25.0158  -33.9823   25.0551 H   0  0  0  0  0  0
  -22.6895  -31.3070   21.4151 H   0  0  0  0  0  0
  -23.3773  -35.9597   23.3309 H   0  0  0  0  0  0
  -24.3549  -36.8884   22.2033 H   0  0  0  0  0  0
  -23.7215  -37.6483   23.6638 H   0  0  0  0  0  0
  -26.0536  -31.5924   20.6029 H   0  0  0  0  0  0
  -26.8132  -30.8717   21.9950 H   0  0  0  0  0  0
  -28.0917  -29.0739   21.1679 H   0  0  0  0  0  0
  -25.9931  -25.9692   18.9965 H   0  0  0  0  0  0
  -23.9573  -27.3083   19.0382 H   0  0  0  0  0  0
  -23.7133  -30.5940   19.4053 H   0  0  0  0  0  0
  -22.7327  -29.2396   19.8754 H   0  0  0  0  0  0
  -25.1317  -36.1952   25.0820 H   0  0  0  0  0  0
  -20.9954  -28.3126   24.1453 H   0  0  0  0  0  0
  -20.5595  -26.2188   23.3564 H   0  0  0  0  0  0
  -21.6613  -26.7354   22.1227 H   0  0  0  0  0  0
  -19.6859  -25.6276   21.1204 H   0  0  0  0  0  0
  -19.6710  -27.3166   20.6704 H   0  0  0  0  0  0
  -17.4185  -26.6667   21.4012 H   0  0  0  0  0  0
  -18.0330  -26.0074   22.9014 H   0  0  0  0  0  0
  -19.7903  -30.7262   24.2273 H   0  0  0  0  0  0
  -17.4979  -31.6262   24.5122 H   0  0  0  0  0  0
  -15.5329  -30.2928   23.7687 H   0  0  0  0  0  0
  -15.8662  -28.0781   22.7066 H   0  0  0  0  0  0
  -24.5881  -30.7147   25.7823 H   0  0  0  0  0  0
  -24.8949  -32.2898   26.5060 H   0  0  0  0  0  0
  -25.8078  -30.8841   27.0236 H   0  0  0  0  0  0
  -26.2813  -29.6925   24.1205 H   0  0  0  0  0  0
  -27.4015  -29.7370   25.4642 H   0  0  0  0  0  0
  -27.8685  -30.4464   23.9338 H   0  0  0  0  0  0
  -27.2728  -33.3675   26.2142 H   0  0  0  0  0  0
  -28.3841  -32.6966   25.0302 H   0  0  0  0  0  0
  -28.0798  -31.8499   26.5379 H   0  0  0  0  0  0
  -28.2627  -38.0086   24.7531 H   0  0  0  0  0  0
  -28.1063  -36.2621   24.6300 H   0  0  0  0  0  0
  -27.2292  -37.1453   25.8868 H   0  0  0  0  0  0
  -20.9255  -29.8771   21.7056 H   0  0  0  0  0  0
  -26.0185  -38.2877   24.1448 H   0  0  0  0  0  0
  -31.6971  -17.6005   21.4754 H   0  0  0  0  0  0
  -32.7310  -17.2570   20.0403 H   0  0  0  0  0  0
  -31.6638  -19.0294   18.7356 H   0  0  0  0  0  0
  -31.4029  -19.7656   20.3425 H   0  0  0  0  0  0
  -28.8848  -20.8803   22.8676 H   0  0  0  0  0  0
  -30.3235  -20.7105   21.9388 H   0  0  0  0  0  0
  -29.2397  -20.9741   19.0512 H   0  0  0  0  0  0
  -27.7020  -20.1886   18.8462 H   0  0  0  0  0  0
  -30.0400  -22.7471   20.7673 H   0  0  0  0  0  0
  -29.4914  -23.1053   22.3813 H   0  0  0  0  0  0
  -26.4840  -22.0542   19.6842 H   0  0  0  0  0  0
  -27.7947  -22.7789   18.7991 H   0  0  0  0  0  0
  -30.8171  -16.6067   18.6856 H   0  0  0  0  0  0
  -29.3396  -18.4436   18.7374 H   0  0  0  0  0  0
  -27.4826  -20.0015   21.3289 H   0  0  0  0  0  0
  -26.6077  -24.5697   20.8928 H   0  0  0  0  0  0
  -27.9816  -24.8118   21.9174 H   0  0  0  0  0  0
  -27.9551  -25.0680   18.8572 H   0  0  0  0  0  0
  -29.4249  -24.9512   19.7652 H   0  0  0  0  0  0
  -29.0203  -15.6148   20.5744 H   0  0  0  0  0  0
  -27.2885  -22.6000   21.6310 H   0  0  0  0  0  0
  -29.4059  -18.4262   21.7171 H   0  0  0  0  0  0
  -28.1360  -18.0996   20.7839 H   0  0  0  0  0  0
  1 25  1  0  0  0
  1 30  2  0  0  0
  1 82  1  0  0  0
  2  3  1  0  0  0
  2 25  1  0  0  0
  2 85  1  0  0  0
  2 86  1  0  0  0
  3  4  1  0  0  0
  3 87  1  0  0  0
  3 88  1  0  0  0
  4  5  1  0  0  0
  4 89  1  0  0  0
  4 90  1  0  0  0
  5  6  1  0  0  0
  5 26  1  0  0  0
  5 91  1  0  0  0
  6 25  1  0  0  0
  6 92  1  0  0  0
  6 93  1  0  0  0
  7  8  2  0  0  0
  7 26  1  0  0  0
  7 29  1  0  0  0
  8  9  1  0  0  0
  8 22  1  0  0  0
  9 10  1  0  0  0
  9 27  2  0  0  0
 10 11  2  0  0  0
 10 15  1  0  0  0
 11 12  1  0  0  0
 11 94  1  0  0  0
 12 13  2  0  0  0
 12 95  1  0  0  0
 13 14  1  0  0  0
 13 31  1  0  0  0
 14 15  2  0  0  0
 14 96  1  0  0  0
 15 97  1  0  0  0
 16 17  2  0  0  0
 16 21  1  0  0  0
 16 31  1  0  0  0
 17 18  1  0  0  0
 17 98  1  0  0  0
 18 19  2  0  0  0
 18 99  1  0  0  0
 19 20  1  0  0  0
 19 24  1  0  0  0
 20 21  2  0  0  0
 20100  1  0  0  0
 21 23  1  0  0  0
 22 28  1  0  0  0
 22 32  2  0  0  0
 26 27  1  0  0  0
 28101  1  0  0  0
 28102  1  0  0  0
 29103  1  0  0  0
 29104  1  0  0  0
 33 34  1  0  0  0
 33 66  1  0  0  0
 33 70  2  0  0  0
 34 36  1  0  0  0
 34 59  1  0  0  0
 34105  1  0  0  0
 35 44  2  0  0  0
 35 45  1  0  0  0
 35 68  1  0  0  0
 36 56  1  0  0  0
 36106  1  0  0  0
 37 39  1  0  0  0
 37 47  1  0  0  0
 37 66  1  0  0  0
 37107  1  0  0  0
 38 43  2  0  0  0
 38 46  1  0  0  0
 38 47  1  0  0  0
 39 64  1  0  0  0
 39 67  2  0  0  0
 40 52  1  0  0  0
 40 53  2  0  0  0
 40 58  1  0  0  0
 41108  1  0  0  0
 41109  1  0  0  0
 41110  1  0  0  0
 41 48  1  0  0  0
 42 43  1  0  0  0
 42 66  1  0  0  0
 42111  1  0  0  0
 42112  1  0  0  0
 43 44  1  0  0  0
 44113  1  0  0  0
 45 46  2  0  0  0
 45114  1  0  0  0
 46115  1  0  0  0
 47116  1  0  0  0
 47117  1  0  0  0
 48 56  1  0  0  0
 48 65  1  0  0  0
 48118  1  0  0  0
 49 50  1  0  0  0
 49 53  1  0  0  0
 49 64  1  0  0  0
 49119  1  0  0  0
 50 51  1  0  0  0
 50120  1  0  0  0
 50121  1  0  0  0
 51 52  1  0  0  0
 51122  1  0  0  0
 51123  1  0  0  0
 52124  1  0  0  0
 52125  1  0  0  0
 53 54  1  0  0  0
 54 55  2  0  0  0
 54126  1  0  0  0
 55 57  1  0  0  0
 55127  1  0  0  0
 56 69  2  0  0  0
 57 58  2  0  0  0
 57128  1  0  0  0
 58129  1  0  0  0
 59 60  1  0  0  0
 59 61  1  0  0  0
 59 62  1  0  0  0
 60130  1  0  0  0
 60131  1  0  0  0
 60132  1  0  0  0
 61133  1  0  0  0
 61134  1  0  0  0
 61135  1  0  0  0
 62136  1  0  0  0
 62137  1  0  0  0
 62138  1  0  0  0
 63 65  1  0  0  0
 63139  1  0  0  0
 63140  1  0  0  0
 63141  1  0  0  0
 64142  1  0  0  0
 65143  1  0  0  0
 68 81  1  0  0  0
 71 72  1  0  0  0
 71 77  1  0  0  0
 71144  1  0  0  0
 71145  1  0  0  0
 72 78  1  0  0  0
 72146  1  0  0  0
 72147  1  0  0  0
 73 75  1  0  0  0
 73 79  1  0  0  0
 73148  1  0  0  0
 73149  1  0  0  0
 74 76  1  0  0  0
 74 79  1  0  0  0
 74150  1  0  0  0
 74151  1  0  0  0
 75 83  1  0  0  0
 75152  1  0  0  0
 75153  1  0  0  0
 76 83  1  0  0  0
 76154  1  0  0  0
 76155  1  0  0  0
 77 78  1  0  0  0
 77 82  1  0  0  0
 77156  1  0  0  0
 78 84  1  0  0  0
 78157  1  0  0  0
 79 84  1  0  0  0
 79158  1  0  0  0
 80 81  1  0  0  0
 80159  1  0  0  0
 80160  1  0  0  0
 80 83  1  0  0  0
 81161  1  0  0  0
 81162  1  0  0  0
 82163  1  0  0  0
 83164  1  0  0  0
 84165  1  0  0  0
 84166  1  0  0  0
M  CHG  2  83   1  84   1
M  ISO  4   1 100  68 101  81 101  82 100
M  END
> <chiral flag>
0

> <version>
0

> <s_m_source_file>
/data/baiqing/PycharmProjects/Reinvent-master-3.2/result/LINK_invent/BTK/process_docking_weight1_custom_sum_contain_oxygen_bond_distance_aromatic_linkinvent_7_9_3/rearranged_h_0189.sdf

> <i_m_source_file_index>
97

> <r_mmod_Potential_Energy-OPLS-2005>
-142.674011230469

> <r_mmod_Stretch_Energy-OPLS-2005>
47.5954895019531

> <r_mmod_Bend_Energy-OPLS-2005>
164.220504760742

> <r_mmod_Torsional_Energy-OPLS-2005>
341.961303710938

> <r_mmod_Improper_Torsional_Energy-OPLS-2005>
11.2496299743652

> <r_mmod_Van_der_Waal_Energy-OPLS-2005>
142.12287902832

> <r_mmod_Electrostatic_Energy-OPLS-2005>
130.08039855957

> <r_mmod_Solvation_Energy-OPLS-2005>
-1010.80853271484

> <b_mmod_Minimization_Converged-OPLS-2005>
0

> <r_mmod_RMS_Derivative-OPLS-2005>
3.4298985004425

$$$$
