ligand_isotope
                    3D
 Structure written by MMmdl.
124131  0  0  1  0            999 V2000
  -32.1074   -8.0640  -19.9872 N   0  0  0  0  0  0
  -29.7171   -7.6833  -19.8406 C   0  0  0  0  0  0
  -29.4385  -10.3204  -18.2628 C   0  0  0  0  0  0
  -31.9236  -10.5028  -18.1903 C   0  0  0  0  0  0
  -30.7140  -10.6870  -20.3794 C   0  0  0  0  0  0
  -27.5798   -6.3558  -19.5844 C   0  0  1  0  0  0
  -28.7848   -6.9714  -17.6022 C   0  0  0  0  0  0
  -26.7171   -7.2016  -20.5403 C   0  0  0  0  0  0
  -22.5067   -7.6825  -22.2245 C   0  0  0  0  0  0
  -21.2018   -7.4434  -21.7624 C   0  0  0  0  0  0
  -20.9401   -6.4451  -20.8231 C   0  0  0  0  0  0
  -23.2890   -5.8969  -20.7763 C   0  0  0  0  0  0
  -18.3740   -5.9930  -21.1550 C   0  0  0  0  0  0
  -17.5513   -5.5392  -19.1923 C   0  0  0  0  0  0
  -30.9247   -8.3950  -19.1789 C   0  0  2  0  0  0
  -30.7386   -9.9515  -19.0169 C   0  0  0  0  0  0
  -28.7734   -7.0707  -19.0710 N   0  0  0  0  0  0
  -29.6659   -7.6875  -21.0745 O   0  0  0  0  0  0
  -26.7665   -5.9299  -18.3579 C   0  0  0  0  0  0
  -27.8145   -5.8411  -17.2638 C   0  0  1  0  0  0
  -28.4529   -4.5826  -17.2427 O   0  0  0  0  0  0
  -26.6480   -8.4231  -20.3962 O   0  0  0  0  0  0
  -26.0291   -6.5076  -21.4533 N   0  0  0  0  0  0
  -24.9698   -7.0759  -22.2855 C   0  0  0  0  0  0
  -23.5535   -6.8784  -21.7428 C   0  0  0  0  0  0
  -21.9957   -5.6902  -20.3142 C   0  0  0  0  0  0
  -19.5470   -6.1460  -20.4053 C   0  0  0  0  0  0
  -17.2971   -5.6662  -20.4659 N   0  0  0  0  0  0
  -19.1758   -5.8789  -18.7244 S   0  0  0  0  0  0
  -18.1777   -6.1221  -22.6502 C   0  0  0  0  0  0
  -33.1531   -7.3065  -19.6213 C   0  0  0  0  0  0
  -34.2403   -7.0983  -20.6923 C   0  0  0  0  0  0
  -33.2578   -6.7964  -18.5055 O   0  0  0  0  0  0
  -33.9403   -7.5379  -21.9153 F   0  0  0  0  0  0
  -35.6791   -7.2322  -20.2458 C   0  0  0  0  0  0
  -35.1183   -5.8682  -20.5918 C   0  0  0  0  0  0
  -22.8217   -8.6565  -23.1595 O   0  0  0  0  0  0
  -21.8867   -9.6889  -23.4840 C   0  0  0  0  0  0
  -21.6705  -10.6963  -22.3324 C   0  0  0  0  0  0
  -26.3596  -13.8726  -20.9333 C   0  0  0  0  0  0
  -27.4318  -13.7294  -21.9213 N   0  0  0  0  0  0
  -28.7339  -14.0705  -21.3359 C   0  0  0  0  0  0
  -29.8659  -14.3612  -22.3642 C   0  0  0  0  0  0
  -29.6171  -13.9031  -23.7377 N   0  0  0  0  0  0
  -28.2328  -14.0764  -24.1992 C   0  0  0  0  0  0
  -27.2241  -14.5384  -23.1222 C   0  0  0  0  0  0
  -30.6609  -13.6429  -24.6137 C   0  0  0  0  0  0
  -30.9630  -14.5237  -25.6600 C   0  0  0  0  0  0
  -32.0491  -14.2484  -26.5110 C   0  0  0  0  0  0
  -32.7991  -13.1315  -26.2941 N   0  0  0  0  0  0
  -32.5112  -12.2652  -25.3158 N   0  0  0  0  0  0
  -31.4599  -12.4949  -24.4960 C   0  0  0  0  0  0
  -31.2000  -11.5051  -23.5488 N   0  0  0  0  0  0
  -32.4389  -15.1306  -27.6801 C   0  0  0  0  0  0
  -33.3827  -14.7584  -28.6757 C   0  0  0  0  0  0
  -33.6924  -15.6132  -29.7335 C   0  0  0  0  0  0
  -33.0805  -16.8544  -29.8363 C   0  0  0  0  0  0
  -32.1671  -17.2551  -28.8727 C   0  0  0  0  0  0
  -31.8487  -16.4018  -27.8196 C   0  0  0  0  0  0
  -34.0409  -13.5559  -28.6767 O   0  0  0  0  0  0
  -22.9029  -11.5211  -21.9840 C   0  0  0  0  0  0
  -22.9671  -12.8678  -22.3506 C   0  0  0  0  0  0
  -24.0783  -13.6321  -22.0056 C   0  0  0  0  0  0
  -25.1359  -13.0477  -21.3051 C   0  0  0  0  0  0
  -25.0750  -11.6996  -20.9427 C   0  0  0  0  0  0
  -23.9584  -10.9400  -21.2785 C   0  0  0  0  0  0
  -32.0861   -8.4178  -20.9330 H   0  0  0  0  0  0
  -29.3698  -11.3930  -18.0758 H   0  0  0  0  0  0
  -29.3847   -9.8243  -17.2974 H   0  0  0  0  0  0
  -28.5495  -10.0458  -18.8295 H   0  0  0  0  0  0
  -31.8182  -11.5715  -18.0000 H   0  0  0  0  0  0
  -32.8764  -10.3507  -18.6981 H   0  0  0  0  0  0
  -31.9963  -10.0100  -17.2211 H   0  0  0  0  0  0
  -29.8530  -10.4005  -20.9841 H   0  0  0  0  0  0
  -31.6079  -10.4824  -20.9641 H   0  0  0  0  0  0
  -30.6652  -11.7675  -20.2464 H   0  0  0  0  0  0
  -27.8979   -5.4510  -20.1052 H   0  0  0  0  0  0
  -28.4100   -7.9027  -17.1794 H   0  0  0  0  0  0
  -29.7665   -6.7832  -17.1702 H   0  0  0  0  0  0
  -20.3702   -8.0188  -22.1356 H   0  0  0  0  0  0
  -24.0763   -5.2691  -20.3854 H   0  0  0  0  0  0
  -16.8033   -5.2758  -18.4614 H   0  0  0  0  0  0
  -31.0799   -7.9821  -18.1848 H   0  0  0  0  0  0
  -26.2470   -4.9922  -18.5562 H   0  0  0  0  0  0
  -26.0241   -6.6883  -18.1077 H   0  0  0  0  0  0
  -27.3573   -6.0137  -16.2900 H   0  0  0  0  0  0
  -29.1787   -4.6271  -16.6100 H   0  0  0  0  0  0
  -26.1289   -5.5016  -21.4730 H   0  0  0  0  0  0
  -25.0024   -6.6036  -23.2663 H   0  0  0  0  0  0
  -25.1486   -8.1403  -22.4565 H   0  0  0  0  0  0
  -21.8159   -4.9138  -19.5844 H   0  0  0  0  0  0
  -17.6517   -5.2641  -23.0697 H   0  0  0  0  0  0
  -19.1224   -6.1935  -23.1885 H   0  0  0  0  0  0
  -17.5987   -7.0111  -22.9013 H   0  0  0  0  0  0
  -35.9053   -7.4522  -19.2012 H   0  0  0  0  0  0
  -36.3765   -7.7154  -20.9293 H   0  0  0  0  0  0
  -35.4327   -5.3820  -21.5156 H   0  0  0  0  0  0
  -34.9525   -5.1516  -19.7865 H   0  0  0  0  0  0
  -22.2580  -10.2195  -24.3615 H   0  0  0  0  0  0
  -20.9388   -9.2521  -23.7992 H   0  0  0  0  0  0
  -21.3331  -10.1861  -21.4311 H   0  0  0  0  0  0
  -20.8575  -11.3722  -22.6023 H   0  0  0  0  0  0
  -26.0929  -14.9225  -20.7953 H   0  0  0  0  0  0
  -26.7050  -13.5205  -19.9592 H   0  0  0  0  0  0
  -29.0376  -13.2827  -20.6471 H   0  0  0  0  0  0
  -28.6269  -14.9659  -20.7202 H   0  0  0  0  0  0
  -30.7678  -13.8723  -21.9983 H   0  0  0  0  0  0
  -30.0921  -15.4250  -22.3752 H   0  0  0  0  0  0
  -27.9048  -13.1240  -24.6182 H   0  0  0  0  0  0
  -28.2316  -14.8081  -25.0063 H   0  0  0  0  0  0
  -27.3394  -15.6005  -22.8956 H   0  0  0  0  0  0
  -26.2165  -14.3914  -23.5100 H   0  0  0  0  0  0
  -30.3460  -15.3975  -25.7918 H   0  0  0  0  0  0
  -30.3699  -11.5915  -22.9805 H   0  0  0  0  0  0
  -31.7035  -10.6286  -23.6068 H   0  0  0  0  0  0
  -34.4081  -15.3107  -30.4847 H   0  0  0  0  0  0
  -33.3142  -17.5005  -30.6642 H   0  0  0  0  0  0
  -31.6880  -18.2201  -28.9510 H   0  0  0  0  0  0
  -31.1172  -16.7686  -27.1195 H   0  0  0  0  0  0
  -33.7661  -12.9981  -27.9445 H   0  0  0  0  0  0
  -22.1548  -13.3286  -22.8941 H   0  0  0  0  0  0
  -24.1182  -14.6744  -22.2870 H   0  0  0  0  0  0
  -25.8900  -11.2407  -20.4014 H   0  0  0  0  0  0
  -23.9168   -9.9007  -20.9919 H   0  0  0  0  0  0
  1 15  1  0  0  0
  1 31  1  0  0  0
  1 67  1  0  0  0
  2 15  1  0  0  0
  2 17  1  0  0  0
  2 18  2  0  0  0
  3 16  1  0  0  0
  3 68  1  0  0  0
  3 69  1  0  0  0
  3 70  1  0  0  0
  4 16  1  0  0  0
  4 71  1  0  0  0
  4 72  1  0  0  0
  4 73  1  0  0  0
  5 16  1  0  0  0
  5 74  1  0  0  0
  5 75  1  0  0  0
  5 76  1  0  0  0
  6  8  1  0  0  0
  6 17  1  0  0  0
  6 19  1  0  0  0
  6 77  1  0  0  0
  7 17  1  0  0  0
  7 20  1  0  0  0
  7 78  1  0  0  0
  7 79  1  0  0  0
  8 22  2  0  0  0
  8 23  1  0  0  0
  9 10  1  0  0  0
  9 25  2  0  0  0
  9 37  1  0  0  0
 10 11  2  0  0  0
 10 80  1  0  0  0
 11 26  1  0  0  0
 11 27  1  0  0  0
 12 25  1  0  0  0
 12 26  2  0  0  0
 12 81  1  0  0  0
 13 27  2  0  0  0
 13 28  1  0  0  0
 13 30  1  0  0  0
 14 28  2  0  0  0
 14 29  1  0  0  0
 14 82  1  0  0  0
 15 16  1  0  0  0
 15 83  1  0  0  0
 19 20  1  0  0  0
 19 84  1  0  0  0
 19 85  1  0  0  0
 20 21  1  0  0  0
 20 86  1  0  0  0
 21 87  1  0  0  0
 23 24  1  0  0  0
 23 88  1  0  0  0
 24 25  1  0  0  0
 24 89  1  0  0  0
 24 90  1  0  0  0
 26 91  1  0  0  0
 27 29  1  0  0  0
 30 92  1  0  0  0
 30 93  1  0  0  0
 30 94  1  0  0  0
 31 32  1  0  0  0
 31 33  2  0  0  0
 32 34  1  0  0  0
 32 35  1  0  0  0
 32 36  1  0  0  0
 35 36  1  0  0  0
 35 95  1  0  0  0
 35 96  1  0  0  0
 36 97  1  0  0  0
 36 98  1  0  0  0
 37 38  1  0  0  0
 38 39  1  0  0  0
 38 99  1  0  0  0
 38100  1  0  0  0
 39 61  1  0  0  0
 39101  1  0  0  0
 39102  1  0  0  0
 40 41  1  0  0  0
 40 64  1  0  0  0
 40103  1  0  0  0
 40104  1  0  0  0
 41 42  1  0  0  0
 41 46  1  0  0  0
 42 43  1  0  0  0
 42105  1  0  0  0
 42106  1  0  0  0
 43 44  1  0  0  0
 43107  1  0  0  0
 43108  1  0  0  0
 44 45  1  0  0  0
 44 47  1  0  0  0
 45 46  1  0  0  0
 45109  1  0  0  0
 45110  1  0  0  0
 46111  1  0  0  0
 46112  1  0  0  0
 47 48  1  0  0  0
 47 52  2  0  0  0
 48 49  2  0  0  0
 48113  1  0  0  0
 49 50  1  0  0  0
 49 54  1  0  0  0
 50 51  2  0  0  0
 51 52  1  0  0  0
 52 53  1  0  0  0
 53114  1  0  0  0
 53115  1  0  0  0
 54 55  1  0  0  0
 54 59  2  0  0  0
 55 56  2  0  0  0
 55 60  1  0  0  0
 56 57  1  0  0  0
 56116  1  0  0  0
 57 58  2  0  0  0
 57117  1  0  0  0
 58 59  1  0  0  0
 58118  1  0  0  0
 59119  1  0  0  0
 60120  1  0  0  0
 61 62  1  0  0  0
 61 66  2  0  0  0
 62 63  2  0  0  0
 62121  1  0  0  0
 63 64  1  0  0  0
 63122  1  0  0  0
 64 65  2  0  0  0
 65 66  1  0  0  0
 65123  1  0  0  0
 66124  1  0  0  0
M  ISO  4  37 101  38 100  40 101  41 100
M  END
> <s_m_entry_id>
9

> <s_m_entry_name>
6hr2.1_ligand

> <s_m_subgroup_title>
6HR2 - minimized_split_by_structure

> <s_m_subgroupid>
6HR2 - minimized_split_by_structure

> <b_m_subgroup_collapsed>
0

$$$$
