e3_ligand
                    3D
 Structure written by MMmdl.
 38 41  0  0  1  0            999 V2000
  -32.1074   -8.0640  -19.9872 N   0  0  0  0  0  0
  -29.7171   -7.6833  -19.8406 C   0  0  0  0  0  0
  -29.4385  -10.3204  -18.2628 C   0  0  0  0  0  0
  -31.9236  -10.5028  -18.1903 C   0  0  0  0  0  0
  -30.7140  -10.6870  -20.3794 C   0  0  0  0  0  0
  -27.5798   -6.3558  -19.5844 C   0  0  1  0  0  0
  -28.7848   -6.9714  -17.6022 C   0  0  0  0  0  0
  -26.7171   -7.2016  -20.5403 C   0  0  0  0  0  0
  -22.5067   -7.6825  -22.2245 C   0  0  0  0  0  0
  -21.2018   -7.4434  -21.7624 C   0  0  0  0  0  0
  -20.9401   -6.4451  -20.8231 C   0  0  0  0  0  0
  -23.2890   -5.8969  -20.7763 C   0  0  0  0  0  0
  -18.3740   -5.9930  -21.1550 C   0  0  0  0  0  0
  -17.5513   -5.5392  -19.1923 C   0  0  0  0  0  0
  -30.9247   -8.3950  -19.1789 C   0  0  2  0  0  0
  -30.7386   -9.9515  -19.0169 C   0  0  0  0  0  0
  -28.7734   -7.0707  -19.0710 N   0  0  0  0  0  0
  -29.6659   -7.6875  -21.0745 O   0  0  0  0  0  0
  -26.7665   -5.9299  -18.3579 C   0  0  0  0  0  0
  -27.8145   -5.8411  -17.2638 C   0  0  1  0  0  0
  -28.4529   -4.5826  -17.2427 O   0  0  0  0  0  0
  -26.6480   -8.4231  -20.3962 O   0  0  0  0  0  0
  -26.0291   -6.5076  -21.4533 N   0  0  0  0  0  0
  -24.9698   -7.0759  -22.2855 C   0  0  0  0  0  0
  -23.5535   -6.8784  -21.7428 C   0  0  0  0  0  0
  -21.9957   -5.6902  -20.3142 C   0  0  0  0  0  0
  -19.5470   -6.1460  -20.4053 C   0  0  0  0  0  0
  -17.2971   -5.6662  -20.4659 N   0  0  0  0  0  0
  -19.1758   -5.8789  -18.7244 S   0  0  0  0  0  0
  -18.1777   -6.1221  -22.6502 C   0  0  0  0  0  0
  -33.1531   -7.3065  -19.6213 C   0  0  0  0  0  0
  -34.2403   -7.0983  -20.6923 C   0  0  0  0  0  0
  -33.2578   -6.7964  -18.5055 O   0  0  0  0  0  0
  -33.9403   -7.5379  -21.9153 F   0  0  0  0  0  0
  -35.6791   -7.2322  -20.2458 C   0  0  0  0  0  0
  -35.1183   -5.8682  -20.5918 C   0  0  0  0  0  0
  -22.8217   -8.6565  -23.1595 O   0  0  0  0  0  0
  -23.7667   -8.6450  -23.3282 *   0  0  0  0  0  0
  1 15  1  0  0  0
  1 31  1  0  0  0
  2 15  1  0  0  0
  2 17  1  0  0  0
  2 18  2  0  0  0
  3 16  1  0  0  0
  4 16  1  0  0  0
  5 16  1  0  0  0
  6  8  1  0  0  0
  6 17  1  0  0  0
  6 19  1  0  0  0
  7 17  1  0  0  0
  7 20  1  0  0  0
  8 22  2  0  0  0
  8 23  1  0  0  0
  9 10  1  0  0  0
  9 25  2  0  0  0
  9 37  1  0  0  0
 10 11  2  0  0  0
 11 26  1  0  0  0
 11 27  1  0  0  0
 12 25  1  0  0  0
 12 26  2  0  0  0
 13 27  2  0  0  0
 13 28  1  0  0  0
 13 30  1  0  0  0
 14 28  2  0  0  0
 14 29  1  0  0  0
 15 16  1  0  0  0
 19 20  1  0  0  0
 20 21  1  0  0  0
 23 24  1  0  0  0
 24 25  1  0  0  0
 27 29  1  0  0  0
 31 32  1  0  0  0
 31 33  2  0  0  0
 32 34  1  0  0  0
 32 35  1  0  0  0
 32 36  1  0  0  0
 35 36  1  0  0  0
 37 38  1  0  0  0
M  ISO  1  37 101
M  END
> <s_m_entry_id>
12

> <s_m_entry_name>
6hr2.1_ligand

> <s_m_subgroup_title>
6HR2 - minimized_split_by_structure

> <s_m_subgroupid>
6HR2 - minimized_split_by_structure

> <b_m_subgroup_collapsed>
0

$$$$
