
  -OEChem-04092311503D

 69 75  0     1  0  0  0  0  0999 V2000
   24.5662  -26.8951  -12.0345 C   0  0  0  0  0  0  0  0  0  0  0  0
   25.9308  -28.3836  -10.7081 C   0  0  0  0  0  0  0  0  0  0  0  0
   15.7676  -24.5925  -11.6358 C   0  0  0  0  0  0  0  0  0  0  0  0
   15.7295  -23.5448  -13.8125 C   0  0  0  0  0  0  0  0  0  0  0  0
   16.9087  -25.3073  -11.9997 C   0  0  0  0  0  0  0  0  0  0  0  0
   16.8708  -24.2595  -14.1764 C   0  0  0  0  0  0  0  0  0  0  0  0
   24.6065  -25.9471  -11.0121 C   0  0  0  0  0  0  0  0  0  0  0  0
   25.9711  -27.4356   -9.6857 C   0  0  0  0  0  0  0  0  0  0  0  0
   25.2283  -28.1134  -11.8824 C   0  0  0  0  0  0  0  0  0  0  0  0
   23.8724  -29.6330  -13.3747 C   0  0  0  0  0  0  0  0  0  0  0  0
   15.1779  -23.7113  -12.5422 C   0  0  0  0  0  0  0  0  0  0  0  0
   17.4604  -25.1408  -13.2700 C   0  0  0  0  0  0  0  0  0  0  0  0
   22.7305  -29.7491  -12.4987 C   0  0  0  0  0  0  0  0  0  0  0  0
   25.3090  -26.2173   -9.8377 C   0  0  0  0  0  0  0  0  0  0  0  0
   21.5813  -30.1410  -13.1481 C   0  0  0  0  0  0  0  0  0  0  0  0
   23.5025  -30.0180  -14.6488 C   0  0  0  0  0  0  0  0  0  0  0  0
   25.7005  -30.2571  -15.7525 C   0  0  0  0  0  0  0  0  0  0  0  0
   23.9957  -30.1838  -17.0963 C   0  0  0  0  0  0  0  0  0  0  0  0
   25.1859  -29.1240  -12.9721 C   0  0  0  0  0  0  0  0  0  0  0  0
   12.8020  -23.2243  -13.1014 C   0  0  0  0  0  0  0  0  0  0  0  0
   20.6551  -24.3862  -13.6365 C   0  0  0  0  0  0  0  0  0  0  0  0
   23.6204  -24.2196  -14.5571 C   0  0  0  0  0  0  0  0  0  0  0  0
   27.5222  -32.2278  -13.0254 C   0  0  0  0  0  0  0  0  0  0  0  0
   26.6695  -25.0563  -14.4457 C   0  0  0  0  0  0  0  0  0  0  0  0
   21.4195  -22.7996  -11.9327 C   0  0  0  0  0  0  0  0  0  0  0  0
   23.3080  -22.0864  -13.2138 C   0  0  0  0  0  0  0  0  0  0  0  0
   13.0575  -21.0457  -13.6535 C   0  0  0  0  0  0  0  0  0  0  0  0
   13.9578  -22.9468  -12.1539 C   0  0  2  0  0  0  0  0  0  0  0  0
   26.5164  -30.4654  -14.5250 C   0  0  2  0  0  0  0  0  0  0  0  0
   21.8566  -23.9714  -12.8135 C   0  0  2  0  0  0  0  0  0  0  0  0
   22.6686  -21.9301  -11.8425 C   0  0  2  0  0  0  0  0  0  0  0  0
   22.7580  -29.4803  -11.0351 C   0  0  0  0  0  0  0  0  0  0  0  0
   20.2307  -30.3819  -12.5934 C   0  0  0  0  0  0  0  0  0  0  0  0
   22.6308  -30.2674  -17.6587 C   0  0  0  0  0  0  0  0  0  0  0  0
   12.1982  -24.6017  -13.1307 C   0  0  0  0  0  0  0  0  0  0  0  0
   25.6744  -22.0852  -17.1322 C   0  0  0  0  0  0  0  0  0  0  0  0
   23.3979  -21.7069  -16.1613 C   0  0  0  0  0  0  0  0  0  0  0  0
   23.8432  -23.7396  -17.5371 C   0  0  0  0  0  0  0  0  0  0  0  0
   18.6897  -25.9092  -13.6604 C   0  0  0  0  0  0  0  0  0  0  0  0
   26.3808  -31.8752  -13.9546 C   0  0  0  0  0  0  0  0  0  0  0  0
   27.5648  -26.1684  -14.9489 C   0  0  0  0  0  0  0  0  0  0  0  0
   27.9380  -32.8706  -10.6590 C   0  0  0  0  0  0  0  0  0  0  0  0
   28.4224  -31.6545   -9.8898 C   0  0  0  0  0  0  0  0  0  0  0  0
   29.3254  -27.6221  -14.3923 C   0  0  0  0  0  0  0  0  0  0  0  0
   30.2866  -27.9971  -13.2808 C   0  0  0  0  0  0  0  0  0  0  0  0
   29.6181  -29.6414  -10.0905 C   0  0  0  0  0  0  0  0  0  0  0  0
   30.3956  -28.7814  -11.0681 C   0  0  0  0  0  0  0  0  0  0  0  0
   24.8206  -23.5756  -15.2038 C   0  0  2  0  0  0  0  0  0  0  0  0
   24.4559  -22.7808  -16.4931 C   0  0  0  0  0  0  0  0  0  0  0  0
   26.1525  -30.2933  -16.9903 N   0  0  0  0  0  0  0  0  0  0  0  0
   25.0765  -30.2492  -17.8371 N   0  0  0  0  0  0  0  0  0  0  0  0
   26.3094  -29.4671  -13.4882 N   0  0  0  0  0  0  0  0  0  0  0  0
   12.3315  -22.3009  -13.8831 N   0  0  0  0  0  0  0  0  0  0  0  0
   24.3256  -30.1322  -15.7625 N   0  0  0  0  0  0  0  0  0  0  0  0
   22.9549  -23.4458  -13.6198 N   0  0  0  0  0  0  0  0  0  0  0  0
   19.8823  -25.3691  -13.0480 N   0  0  0  0  0  0  0  0  0  0  0  0
   27.0608  -32.5037  -11.7466 N   0  0  0  0  0  0  0  0  0  0  0  0
   25.7847  -24.6288  -15.4233 N   0  0  0  0  0  0  0  0  0  0  0  0
   20.4505  -23.8507  -14.7195 O   0  0  0  0  0  0  0  0  0  0  0  0
   23.2870  -25.3642  -14.8695 O   0  0  0  0  0  0  0  0  0  0  0  0
   28.6984  -32.2614  -13.3768 O   0  0  0  0  0  0  0  0  0  0  0  0
   26.7440  -24.6083  -13.3048 O   0  0  0  0  0  0  0  0  0  0  0  0
   23.5557  -22.4456  -10.8556 O   0  0  0  0  0  0  0  0  0  0  0  0
   28.4750  -26.5766  -13.9374 O   0  0  0  0  0  0  0  0  0  0  0  0
   29.1428  -30.7975  -10.7662 O   0  0  0  0  0  0  0  0  0  0  0  0
   29.5419  -28.4162  -12.1457 O   0  0  0  0  0  0  0  0  0  0  0  0
   21.8509  -30.3727  -14.8151 S   0  0  0  0  0  0  0  0  0  0  0  0
   14.2470  -21.1709  -12.3062 S   0  0  0  0  0  0  0  0  0  0  0  0
   25.3598  -25.0472   -8.5772 Cl  0  0  0  0  0  0  0  0  0  0  0  0
  1  7  2  0  0  0  0
  1  9  1  0  0  0  0
  2  8  1  0  0  0  0
  2  9  2  0  0  0  0
  3  5  2  0  0  0  0
  3 11  1  0  0  0  0
  4  6  1  0  0  0  0
  4 11  2  0  0  0  0
  5 12  1  0  0  0  0
  6 12  2  0  0  0  0
  7 14  1  0  0  0  0
  8 14  2  0  0  0  0
  9 19  1  0  0  0  0
 10 13  1  0  0  0  0
 10 16  2  0  0  0  0
 10 19  1  0  0  0  0
 11 28  1  0  0  0  0
 12 39  1  0  0  0  0
 13 15  2  0  0  0  0
 13 32  1  0  0  0  0
 14 69  1  0  0  0  0
 15 33  1  0  0  0  0
 15 67  1  0  0  0  0
 16 54  1  0  0  0  0
 16 67  1  0  0  0  0
 17 29  1  0  0  0  0
 17 50  2  0  0  0  0
 17 54  1  0  0  0  0
 18 34  1  0  0  0  0
 18 51  2  0  0  0  0
 18 54  1  0  0  0  0
 19 52  2  0  0  0  0
 20 28  1  0  0  0  0
 20 35  1  0  0  0  0
 20 53  2  0  0  0  0
 21 30  1  0  0  0  0
 21 56  1  0  0  0  0
 21 59  2  0  0  0  0
 22 48  1  0  0  0  0
 22 55  1  0  0  0  0
 22 60  2  0  0  0  0
 23 40  1  0  0  0  0
 23 57  1  0  0  0  0
 23 61  2  0  0  0  0
 24 41  1  0  0  0  0
 24 58  1  0  0  0  0
 24 62  2  0  0  0  0
 25 30  1  0  0  0  0
 25 31  1  0  0  0  0
 26 31  1  0  0  0  0
 26 55  1  0  0  0  0
 27 53  1  0  0  0  0
 27 68  1  0  0  0  0
 28 68  1  0  0  0  0
 29 40  1  0  0  0  0
 29 52  1  0  0  0  0
 30 55  1  0  0  0  0
 31 63  1  0  0  0  0
 36 49  1  0  0  0  0
 37 49  1  0  0  0  0
 38 49  1  0  0  0  0
 39 56  1  0  0  0  0
 41 64  1  0  0  0  0
 42 43  1  0  0  0  0
 42 57  1  0  0  0  0
 43 65  1  0  0  0  0
 44 45  1  0  0  0  0
 44 64  1  0  0  0  0
 45 66  1  0  0  0  0
 46 47  1  0  0  0  0
 46 65  1  0  0  0  0
 47 66  1  0  0  0  0
 48 49  1  0  0  0  0
 48 58  1  0  0  0  0
 50 51  1  0  0  0  0
M  ISO  4  23 100  24 101  41 101  57 100
M  END
> <Batch ID>
0000

> <Smiles>
CC1=C(c2ccc(CNC(=O)[C@@H]3C[C@@H](O)CN3C(=O)[C@@H](N[101C](=O)[101CH2]OCCOCCOCC[100NH][100C](=O)C[C@@H]3N=C(c4ccc(Cl)cc4)c4c(sc(C)c4C)-n4c(C)nnc43)C(C)(C)C)cc2)SCN1

> <Shape>
0.315

> <Color>
0.245

> <Negative vol penalty>
0.000

$$$$
