ligand
                    3D
 Structure written by MMmdl.
131137  0  0  1  0            999 V2000
   12.1062  -23.9604  -13.3120 C   0  0  0  0  0  0
   12.7389  -22.8063  -12.5557 C   0  0  0  0  0  0
   11.9136  -21.8526  -12.0097 N   0  0  0  0  0  0
   12.5439  -21.0128  -11.0107 C   0  0  0  0  0  0
   14.2944  -21.0700  -11.4058 S   0  0  0  0  0  0
   14.0409  -22.6053  -12.2605 C   0  0  0  0  0  0
   15.2052  -23.4215  -12.6724 C   0  0  0  0  0  0
   16.2457  -23.6092  -11.7591 C   0  0  0  0  0  0
   17.3363  -24.4085  -12.0734 C   0  0  0  0  0  0
   15.2911  -24.0336  -13.9288 C   0  0  0  0  0  0
   16.3885  -24.8309  -14.2533 C   0  0  0  0  0  0
   17.4112  -25.0295  -13.3222 C   0  0  0  0  0  0
   18.6064  -25.9166  -13.6704 C   0  0  0  0  0  0
   19.8834  -25.4455  -13.1384 N   0  0  0  0  0  0
   20.6366  -24.5039  -13.7204 C   0  0  0  0  0  0
   20.4278  -24.0412  -14.8427 O   0  0  0  0  0  0
   21.7814  -23.9436  -12.8514 C   0  0  2  0  0  0
   21.3140  -22.7074  -12.0757 C   0  0  0  0  0  0
   22.6081  -21.9465  -11.8536 C   0  0  1  0  0  0
   23.2832  -22.4017  -10.7015 O   0  0  0  0  0  0
   23.4153  -22.2034  -13.1273 C   0  0  0  0  0  0
   22.9842  -23.5238  -13.6162 N   0  0  0  0  0  0
   23.6510  -24.2743  -14.5394 C   0  0  0  0  0  0
   23.3033  -25.4214  -14.8351 O   0  0  0  0  0  0
   24.9079  -23.7061  -15.2619 C   0  0  2  0  0  0
   24.6209  -23.0914  -16.6880 C   0  0  0  0  0  0
   25.9268  -22.4618  -17.2407 C   0  0  0  0  0  0
   24.1475  -24.1555  -17.7148 C   0  0  0  0  0  0
   23.5520  -21.9774  -16.6388 C   0  0  0  0  0  0
   25.8836  -24.7915  -15.3650 N   0  0  0  0  0  0
   26.8838  -25.1160  -14.5299 C   0  0  0  0  0  0
   27.1560  -24.4787  -13.5132 O   0  0  0  0  0  0
   27.7057  -26.3596  -14.9102 C   0  0  0  0  0  0
   27.2014  -26.8853  -16.1370 O   0  0  0  0  0  0
   27.7575  -28.1071  -16.5807 C   0  0  0  0  0  0
   26.8432  -28.7053  -17.6695 C   0  0  0  0  0  0
   25.5348  -29.0496  -17.2093 O   0  0  0  0  0  0
   24.6141  -27.9708  -17.0743 C   0  0  0  0  0  0
   23.1781  -28.4494  -17.3355 C   0  0  0  0  0  0
   23.0904  -28.9448  -18.6695 O   0  0  0  0  0  0
   21.8517  -28.7360  -19.3435 C   0  0  0  0  0  0
   20.6531  -29.4735  -18.7147 C   0  0  0  0  0  0
   20.8951  -30.9067  -18.5303 N   0  0  0  0  0  0
   20.7155  -31.5764  -17.3789 C   0  0  0  0  0  0
   20.3269  -31.0418  -16.3383 O   0  0  0  0  0  0
   21.0025  -33.0881  -17.4150 C   0  0  0  0  0  0
   21.4837  -33.6895  -16.0671 C   0  0  2  0  0  0
   22.7882  -33.1149  -15.7417 N   0  0  0  0  0  0
   21.5455  -35.2203  -16.0647 C   0  0  0  0  0  0
   21.3732  -36.0486  -17.0658 N   0  0  0  0  0  0
   21.6396  -37.3315  -16.5993 N   0  0  0  0  0  0
   21.9494  -37.2252  -15.3309 C   0  0  0  0  0  0
   22.3675  -38.3919  -14.4595 C   0  0  0  0  0  0
   21.8703  -35.9101  -14.9162 N   0  0  0  0  0  0
   22.0815  -35.3357  -13.6763 C   0  0  0  0  0  0
   21.5342  -36.0155  -12.1881 S   0  0  0  0  0  0
   22.1099  -34.6638  -11.2736 C   0  0  0  0  0  0
   21.9003  -34.6477   -9.7746 C   0  0  0  0  0  0
   22.6895  -33.6968  -12.1060 C   0  0  0  0  0  0
   23.1718  -32.3549  -11.5853 C   0  0  0  0  0  0
   22.7218  -34.0953  -13.4703 C   0  0  0  0  0  0
   23.3160  -33.2998  -14.5847 C   0  0  0  0  0  0
   24.6283  -32.6789  -14.3031 C   0  0  0  0  0  0
   25.6477  -33.3985  -13.6640 C   0  0  0  0  0  0
   26.8819  -32.8025  -13.4174 C   0  0  0  0  0  0
   27.0993  -31.4792  -13.7925 C   0  0  0  0  0  0
   28.6198  -30.7283  -13.4691 Cl  0  0  0  0  0  0
   26.0913  -30.7540  -14.4210 C   0  0  0  0  0  0
   24.8645  -31.3513  -14.6851 C   0  0  0  0  0  0
   12.7262  -24.8558  -13.2712 H   0  0  0  0  0  0
   11.1352  -24.2136  -12.8884 H   0  0  0  0  0  0
   11.9539  -23.6918  -14.3561 H   0  0  0  0  0  0
   10.9062  -21.8345  -12.0803 H   0  0  0  0  0  0
   12.4011  -21.4240  -10.0117 H   0  0  0  0  0  0
   12.1757  -19.9908  -11.0235 H   0  0  0  0  0  0
   16.2065  -23.1383  -10.7920 H   0  0  0  0  0  0
   18.1156  -24.5469  -11.3393 H   0  0  0  0  0  0
   14.5111  -23.8916  -14.6619 H   0  0  0  0  0  0
   16.4380  -25.2990  -15.2258 H   0  0  0  0  0  0
   18.6698  -26.0595  -14.7518 H   0  0  0  0  0  0
   18.4223  -26.8948  -13.2354 H   0  0  0  0  0  0
   20.1017  -25.7163  -12.1886 H   0  0  0  0  0  0
   22.0688  -24.7021  -12.1217 H   0  0  0  0  0  0
   20.8056  -22.9975  -11.1552 H   0  0  0  0  0  0
   20.6212  -22.1166  -12.6744 H   0  0  0  0  0  0
   22.4096  -20.8803  -11.7403 H   0  0  0  0  0  0
   24.1372  -21.9563  -10.6547 H   0  0  0  0  0  0
   24.4845  -22.1375  -12.9276 H   0  0  0  0  0  0
   23.1698  -21.4458  -13.8701 H   0  0  0  0  0  0
   25.3631  -22.9291  -14.6491 H   0  0  0  0  0  0
   25.7629  -21.9626  -18.1965 H   0  0  0  0  0  0
   26.3339  -21.7187  -16.5561 H   0  0  0  0  0  0
   26.7057  -23.2086  -17.4039 H   0  0  0  0  0  0
   23.9243  -23.7039  -18.6822 H   0  0  0  0  0  0
   24.9103  -24.9115  -17.8955 H   0  0  0  0  0  0
   23.2411  -24.6679  -17.3906 H   0  0  0  0  0  0
   23.4358  -21.4839  -17.6045 H   0  0  0  0  0  0
   22.5756  -22.3787  -16.3737 H   0  0  0  0  0  0
   23.8084  -21.2080  -15.9146 H   0  0  0  0  0  0
   25.7496  -25.3953  -16.1634 H   0  0  0  0  0  0
   27.6254  -27.0983  -14.1103 H   0  0  0  0  0  0
   28.7559  -26.0868  -15.0238 H   0  0  0  0  0  0
   27.8798  -28.8112  -15.7593 H   0  0  0  0  0  0
   28.7509  -27.9089  -16.9809 H   0  0  0  0  0  0
   27.2842  -29.6335  -18.0241 H   0  0  0  0  0  0
   26.7899  -28.0480  -18.5387 H   0  0  0  0  0  0
   24.8404  -27.1728  -17.7820 H   0  0  0  0  0  0
   24.6938  -27.5478  -16.0727 H   0  0  0  0  0  0
   22.4953  -27.6141  -17.1665 H   0  0  0  0  0  0
   22.8988  -29.2421  -16.6412 H   0  0  0  0  0  0
   21.9931  -29.0978  -20.3624 H   0  0  0  0  0  0
   21.6459  -27.6675  -19.4265 H   0  0  0  0  0  0
   19.7757  -29.3569  -19.3523 H   0  0  0  0  0  0
   20.3953  -28.9824  -17.7736 H   0  0  0  0  0  0
   21.1543  -31.4292  -19.3547 H   0  0  0  0  0  0
   21.7333  -33.3025  -18.1940 H   0  0  0  0  0  0
   20.0805  -33.5793  -17.7238 H   0  0  0  0  0  0
   20.7543  -33.3881  -15.3096 H   0  0  0  0  0  0
   23.2884  -38.1788  -13.9155 H   0  0  0  0  0  0
   21.6083  -38.6423  -13.7200 H   0  0  0  0  0  0
   22.5493  -39.2949  -15.0435 H   0  0  0  0  0  0
   22.5484  -33.9358   -9.2646 H   0  0  0  0  0  0
   20.8729  -34.3857   -9.5227 H   0  0  0  0  0  0
   22.0992  -35.6223   -9.3279 H   0  0  0  0  0  0
   22.9436  -31.5376  -12.2688 H   0  0  0  0  0  0
   22.7047  -32.0878  -10.6401 H   0  0  0  0  0  0
   24.2478  -32.3450  -11.4381 H   0  0  0  0  0  0
   25.4941  -34.4228  -13.3617 H   0  0  0  0  0  0
   27.6619  -33.3643  -12.9270 H   0  0  0  0  0  0
   26.2432  -29.7222  -14.6920 H   0  0  0  0  0  0
   24.0963  -30.7685  -15.1733 H   0  0  0  0  0  0
  1  2  1  0  0  0
  1 70  1  0  0  0
  1 71  1  0  0  0
  1 72  1  0  0  0
  2  3  1  0  0  0
  2  6  2  0  0  0
  3  4  1  0  0  0
  3 73  1  0  0  0
  4  5  1  0  0  0
  4 74  1  0  0  0
  4 75  1  0  0  0
  5  6  1  0  0  0
  6  7  1  0  0  0
  7  8  2  0  0  0
  7 10  1  0  0  0
  8  9  1  0  0  0
  8 76  1  0  0  0
  9 12  2  0  0  0
  9 77  1  0  0  0
 10 11  2  0  0  0
 10 78  1  0  0  0
 11 12  1  0  0  0
 11 79  1  0  0  0
 12 13  1  0  0  0
 13 14  1  0  0  0
 13 80  1  0  0  0
 13 81  1  0  0  0
 14 15  1  0  0  0
 14 82  1  0  0  0
 15 16  2  0  0  0
 15 17  1  0  0  0
 17 18  1  0  0  0
 17 22  1  0  0  0
 17 83  1  0  0  0
 18 19  1  0  0  0
 18 84  1  0  0  0
 18 85  1  0  0  0
 19 20  1  0  0  0
 19 21  1  0  0  0
 19 86  1  0  0  0
 20 87  1  0  0  0
 21 22  1  0  0  0
 21 88  1  0  0  0
 21 89  1  0  0  0
 22 23  1  0  0  0
 23 24  2  0  0  0
 23 25  1  0  0  0
 25 26  1  0  0  0
 25 30  1  0  0  0
 25 90  1  0  0  0
 26 27  1  0  0  0
 26 28  1  0  0  0
 26 29  1  0  0  0
 27 91  1  0  0  0
 27 92  1  0  0  0
 27 93  1  0  0  0
 28 94  1  0  0  0
 28 95  1  0  0  0
 28 96  1  0  0  0
 29 97  1  0  0  0
 29 98  1  0  0  0
 29 99  1  0  0  0
 30 31  1  0  0  0
 30100  1  0  0  0
 31 32  2  0  0  0
 31 33  1  0  0  0
 33 34  1  0  0  0
 33101  1  0  0  0
 33102  1  0  0  0
 34 35  1  0  0  0
 35 36  1  0  0  0
 35103  1  0  0  0
 35104  1  0  0  0
 36 37  1  0  0  0
 36105  1  0  0  0
 36106  1  0  0  0
 37 38  1  0  0  0
 38 39  1  0  0  0
 38107  1  0  0  0
 38108  1  0  0  0
 39 40  1  0  0  0
 39109  1  0  0  0
 39110  1  0  0  0
 40 41  1  0  0  0
 41 42  1  0  0  0
 41111  1  0  0  0
 41112  1  0  0  0
 42 43  1  0  0  0
 42113  1  0  0  0
 42114  1  0  0  0
 43 44  1  0  0  0
 43115  1  0  0  0
 44 45  2  0  0  0
 44 46  1  0  0  0
 46 47  1  0  0  0
 46116  1  0  0  0
 46117  1  0  0  0
 47 48  1  0  0  0
 47 49  1  0  0  0
 47118  1  0  0  0
 48 62  2  0  0  0
 49 50  2  0  0  0
 49 54  1  0  0  0
 50 51  1  0  0  0
 51 52  2  0  0  0
 52 53  1  0  0  0
 52 54  1  0  0  0
 53119  1  0  0  0
 53120  1  0  0  0
 53121  1  0  0  0
 54 55  1  0  0  0
 55 56  1  0  0  0
 55 61  2  0  0  0
 56 57  1  0  0  0
 57 58  1  0  0  0
 57 59  2  0  0  0
 58122  1  0  0  0
 58123  1  0  0  0
 58124  1  0  0  0
 59 60  1  0  0  0
 59 61  1  0  0  0
 60125  1  0  0  0
 60126  1  0  0  0
 60127  1  0  0  0
 61 62  1  0  0  0
 62 63  1  0  0  0
 63 64  2  0  0  0
 63 69  1  0  0  0
 64 65  1  0  0  0
 64128  1  0  0  0
 65 66  2  0  0  0
 65129  1  0  0  0
 66 67  1  0  0  0
 66 68  1  0  0  0
 68 69  2  0  0  0
 68130  1  0  0  0
 69131  1  0  0  0
M  END
> <s_m_entry_id>
7

> <s_m_entry_name>
5t35.1_mol3

> <s_m_subgroup_title>
5T35 - minimized_split_by_molecule

> <s_m_subgroupid>
5T35 - minimized_split_by_molecule

> <b_m_subgroup_collapsed>
0

$$$$
