e3_ligand
                    3D
 Structure written by MMmdl.
 33 35  0  0  1  0            999 V2000
   12.1062  -23.9604  -13.3120 C   0  0  0  0  0  0
   12.7389  -22.8063  -12.5557 C   0  0  0  0  0  0
   11.9136  -21.8526  -12.0097 N   0  0  0  0  0  0
   12.5439  -21.0128  -11.0107 C   0  0  0  0  0  0
   14.2944  -21.0700  -11.4058 S   0  0  0  0  0  0
   14.0409  -22.6053  -12.2605 C   0  0  0  0  0  0
   15.2052  -23.4215  -12.6724 C   0  0  0  0  0  0
   16.2457  -23.6092  -11.7591 C   0  0  0  0  0  0
   17.3363  -24.4085  -12.0734 C   0  0  0  0  0  0
   15.2911  -24.0336  -13.9288 C   0  0  0  0  0  0
   16.3885  -24.8309  -14.2533 C   0  0  0  0  0  0
   17.4112  -25.0295  -13.3222 C   0  0  0  0  0  0
   18.6064  -25.9166  -13.6704 C   0  0  0  0  0  0
   19.8834  -25.4455  -13.1384 N   0  0  0  0  0  0
   20.6366  -24.5039  -13.7204 C   0  0  0  0  0  0
   20.4278  -24.0412  -14.8427 O   0  0  0  0  0  0
   21.7814  -23.9436  -12.8514 C   0  0  2  0  0  0
   21.3140  -22.7074  -12.0757 C   0  0  0  0  0  0
   22.6081  -21.9465  -11.8536 C   0  0  1  0  0  0
   23.2832  -22.4017  -10.7015 O   0  0  0  0  0  0
   23.4153  -22.2034  -13.1273 C   0  0  0  0  0  0
   22.9842  -23.5238  -13.6162 N   0  0  0  0  0  0
   23.6510  -24.2743  -14.5394 C   0  0  0  0  0  0
   23.3033  -25.4214  -14.8351 O   0  0  0  0  0  0
   24.9079  -23.7061  -15.2619 C   0  0  2  0  0  0
   24.6209  -23.0914  -16.6880 C   0  0  0  0  0  0
   25.9268  -22.4618  -17.2407 C   0  0  0  0  0  0
   24.1475  -24.1555  -17.7148 C   0  0  0  0  0  0
   23.5520  -21.9774  -16.6388 C   0  0  0  0  0  0
   25.8836  -24.7915  -15.3650 N   0  0  0  0  0  0
   26.8838  -25.1160  -14.5299 C   0  0  0  0  0  0
   27.1560  -24.4787  -13.5132 O   0  0  0  0  0  0
   27.5005  -25.9784  -14.7354 *   0  0  0  0  0  0
  1  2  1  0  0  0
  2  3  1  0  0  0
  2  6  2  0  0  0
  3  4  1  0  0  0
  4  5  1  0  0  0
  5  6  1  0  0  0
  6  7  1  0  0  0
  7  8  2  0  0  0
  7 10  1  0  0  0
  8  9  1  0  0  0
  9 12  2  0  0  0
 10 11  2  0  0  0
 11 12  1  0  0  0
 12 13  1  0  0  0
 13 14  1  0  0  0
 14 15  1  0  0  0
 15 16  2  0  0  0
 15 17  1  0  0  0
 17 18  1  0  0  0
 17 22  1  0  0  0
 18 19  1  0  0  0
 19 20  1  0  0  0
 19 21  1  0  0  0
 21 22  1  0  0  0
 22 23  1  0  0  0
 23 24  2  0  0  0
 23 25  1  0  0  0
 25 26  1  0  0  0
 25 30  1  0  0  0
 26 27  1  0  0  0
 26 28  1  0  0  0
 26 29  1  0  0  0
 30 31  1  0  0  0
 31 32  2  0  0  0
 31 33  1  0  0  0
M  ISO  1  31 101
M  END
> <s_m_entry_id>
12

> <s_m_entry_name>
5t35.1_mol3

> <s_m_subgroup_title>
5T35 - minimized_split_by_molecule

> <s_m_subgroupid>
5T35 - minimized_split_by_molecule

> <b_m_subgroup_collapsed>
0

$$$$
