ligand_isotope
                    3D
 Structure written by MMmdl.
144152  0  0  1  0            999 V2000
   32.4482   47.2234  -14.3432 C   0  0  0  0  0  0
   30.2118   47.9341  -14.8546 C   0  0  0  0  0  0
   26.5258   44.6782   -2.9484 C   0  0  0  0  0  0
   31.5531   47.8518  -15.2027 C   0  0  0  0  0  0
   29.7799   47.3991  -13.6477 C   0  0  0  0  0  0
   21.8646   48.1872   -9.9293 C   0  0  0  0  0  0
   23.8022   46.7507   -9.2541 C   0  0  2  0  0  0
   25.2066   47.2925   -9.6436 C   0  0  0  0  0  0
   26.9945   47.2180   -6.4039 C   0  0  0  0  0  0
   27.5258   47.9842   -9.1407 C   0  0  1  0  0  0
   28.2936   47.5923   -6.7682 C   0  0  0  0  0  0
   29.1852   46.2533   -4.9585 C   0  0  0  0  0  0
   28.4563   48.4827   -7.9903 C   0  0  0  0  0  0
   21.7604   49.9466  -11.7443 C   0  0  0  0  0  0
   25.8296   47.7054   -7.2583 C   0  0  0  0  0  0
   26.8082   46.3771   -5.3032 C   0  0  0  0  0  0
   27.8994   45.8701   -4.5794 C   0  0  0  0  0  0
   29.3817   47.1131   -6.0359 C   0  0  0  0  0  0
   21.0625   48.7119  -11.1467 C   0  0  2  0  0  0
   28.2662   46.8175   -9.8501 C   0  0  0  0  0  0
   30.1515   46.2858  -11.3877 C   0  0  2  0  0  0
   31.2960   45.8857  -10.4263 C   0  0  0  0  0  0
   32.4124   45.1238  -11.1413 C   0  0  0  0  0  0
   33.0600   46.0186  -12.2080 C   0  0  0  0  0  0
   32.0304   46.6846  -13.1197 C   0  0  0  0  0  0
   30.6675   46.7932  -12.7471 C   0  0  0  0  0  0
   25.6641   43.7899   -3.8428 C   0  0  0  0  0  0
   26.1886   42.9955   -4.8714 C   0  0  0  0  0  0
   24.0366   42.3579   -5.4781 C   0  0  0  0  0  0
   23.5167   43.1284   -4.4293 C   0  0  0  0  0  0
   23.1578   41.6198   -6.4840 C   0  0  0  0  0  0
   21.5681   40.2586   -5.2667 C   0  0  0  0  0  0
   19.3874   41.4316   -4.7801 C   0  0  0  0  0  0
   18.4550   41.3733   -3.5379 C   0  0  0  0  0  0
   19.0984   40.7177   -2.2951 C   0  0  0  0  0  0
   19.8134   39.3681   -2.6172 C   0  0  2  0  0  0
   19.7855   39.0036   -4.1227 C   0  0  0  0  0  0
   19.9890   37.3529   -1.0479 C   0  0  0  0  0  0
   19.0387   36.4557   -0.5593 C   0  0  0  0  0  0
   17.7982   36.9350   -1.0617 C   0  0  0  0  0  0
   16.4151   36.4228   -0.8153 C   0  0  0  0  0  0
   15.9321   36.3003    0.4902 C   0  0  0  0  0  0
   14.6710   35.7587    0.7208 C   0  0  0  0  0  0
   13.8860   35.3208   -0.3447 C   0  0  0  0  0  0
   14.3584   35.4716   -1.6530 C   0  0  0  0  0  0
   15.6075   36.0367   -1.8881 C   0  0  0  0  0  0
   12.0658   33.8323   -0.8559 C   0  0  0  0  0  0
   12.7312   32.6349   -1.1547 C   0  0  0  0  0  0
   12.1100   31.6550   -1.9282 C   0  0  0  0  0  0
   10.8195   31.8666   -2.4118 C   0  0  0  0  0  0
   10.1517   33.0541   -2.1202 C   0  0  0  0  0  0
   10.7707   34.0347   -1.3454 C   0  0  0  0  0  0
   19.3057   35.3652    0.3515 C   0  0  0  0  0  0
   23.7445   45.1736   -9.1847 C   0  0  0  0  0  0
   24.6437   44.6288   -8.0481 C   0  0  0  0  0  0
   22.2900   44.7149   -8.9001 C   0  0  0  0  0  0
   24.2091   44.4998  -10.5014 C   0  0  0  0  0  0
   18.8177   47.8449  -10.5054 C   0  0  0  0  0  0
   10.1043   35.1780   -1.0646 F   0  0  0  0  0  0
   10.2188   30.9302   -3.1775 F   0  0  0  0  0  0
   26.1527   47.5888   -8.6991 N   0  0  0  0  0  0
   29.1883   47.1860  -10.7496 N   0  0  0  0  0  0
   25.3781   42.2780   -5.6945 N   0  0  0  0  0  0
   24.3257   43.8452   -3.6076 N   0  0  0  0  0  0
   20.2361   40.2161   -4.8241 N   0  0  0  0  0  0
   19.2855   38.2408   -1.8315 N   0  0  0  0  0  0
   17.9723   37.9652   -1.8625 N   0  0  0  0  0  0
   22.8392   47.3085  -10.2145 N   0  0  0  0  0  0
   18.4361   34.3531    0.3254 N   0  0  0  0  0  0
   21.3524   37.4174   -0.9037 N   0  0  0  0  0  0
   19.6674   49.0044  -10.7425 N   0  0  0  0  0  0
   25.4338   47.3908  -10.8541 O   0  0  0  0  0  0
   28.0265   45.6485   -9.5432 O   0  0  0  0  0  0
   27.8016   44.9881   -3.5171 O   0  0  0  0  0  0
   21.8413   41.3763   -5.9850 O   0  0  0  0  0  0
   22.4071   39.3806   -5.0619 O   0  0  0  0  0  0
   21.6118   48.5870   -8.7904 O   0  0  0  0  0  0
   12.6453   34.7909   -0.0520 O   0  0  0  0  0  0
   20.2888   35.3606    1.0882 O   0  0  0  0  0  0
   33.4868   47.1537  -14.6313 H   0  0  0  0  0  0
   29.5076   48.4200  -15.5129 H   0  0  0  0  0  0
   26.6938   44.1504   -2.0094 H   0  0  0  0  0  0
   26.0018   45.6025   -2.6948 H   0  0  0  0  0  0
   31.8964   48.2679  -16.1385 H   0  0  0  0  0  0
   28.7349   47.4830  -13.3939 H   0  0  0  0  0  0
   23.5106   47.1336   -8.2806 H   0  0  0  0  0  0
   27.4080   48.8046   -9.8462 H   0  0  0  0  0  0
   30.0390   45.8754   -4.4158 H   0  0  0  0  0  0
   28.1452   49.4975   -7.7376 H   0  0  0  0  0  0
   29.4953   48.5514   -8.3200 H   0  0  0  0  0  0
   21.1783   50.3471  -12.5732 H   0  0  0  0  0  0
   21.8807   50.7465  -11.0125 H   0  0  0  0  0  0
   22.7492   49.7018  -12.1355 H   0  0  0  0  0  0
   25.6575   48.7604   -7.0598 H   0  0  0  0  0  0
   24.9337   47.1783   -6.9464 H   0  0  0  0  0  0
   25.7973   46.1057   -5.0437 H   0  0  0  0  0  0
   30.3869   47.3901   -6.3177 H   0  0  0  0  0  0
   21.0561   47.9391  -11.9177 H   0  0  0  0  0  0
   29.6094   45.3709  -11.6391 H   0  0  0  0  0  0
   30.8995   45.2839   -9.6072 H   0  0  0  0  0  0
   31.7152   46.7802   -9.9617 H   0  0  0  0  0  0
   32.0094   44.2193  -11.6006 H   0  0  0  0  0  0
   33.1660   44.7969  -10.4235 H   0  0  0  0  0  0
   33.7572   45.4235  -12.7998 H   0  0  0  0  0  0
   33.6515   46.7992  -11.7273 H   0  0  0  0  0  0
   27.2499   42.9462   -5.0660 H   0  0  0  0  0  0
   22.4547   43.2073   -4.2480 H   0  0  0  0  0  0
   23.6443   40.6890   -6.7844 H   0  0  0  0  0  0
   23.0682   42.2226   -7.3839 H   0  0  0  0  0  0
   20.0011   42.3325   -4.7361 H   0  0  0  0  0  0
   18.7958   41.4916   -5.6943 H   0  0  0  0  0  0
   17.5650   40.7992   -3.8007 H   0  0  0  0  0  0
   18.0947   42.3737   -3.2942 H   0  0  0  0  0  0
   18.3455   40.5995   -1.5188 H   0  0  0  0  0  0
   19.8278   41.4126   -1.8785 H   0  0  0  0  0  0
   20.8609   39.5040   -2.3412 H   0  0  0  0  0  0
   18.7722   38.7581   -4.4439 H   0  0  0  0  0  0
   20.4112   38.1326   -4.3275 H   0  0  0  0  0  0
   16.5373   36.6078    1.3294 H   0  0  0  0  0  0
   14.3114   35.6568    1.7348 H   0  0  0  0  0  0
   13.7637   35.1463   -2.4897 H   0  0  0  0  0  0
   15.9547   36.1485   -2.9053 H   0  0  0  0  0  0
   13.7299   32.4636   -0.7802 H   0  0  0  0  0  0
   12.6318   30.7364   -2.1529 H   0  0  0  0  0  0
    9.1550   33.2166   -2.5014 H   0  0  0  0  0  0
   24.6610   43.5406   -8.0537 H   0  0  0  0  0  0
   25.6838   44.9354   -8.1526 H   0  0  0  0  0  0
   24.3005   44.9499   -7.0642 H   0  0  0  0  0  0
   22.2137   43.6306   -8.8225 H   0  0  0  0  0  0
   21.9135   45.1361   -7.9669 H   0  0  0  0  0  0
   21.6041   45.0138   -9.6938 H   0  0  0  0  0  0
   23.9757   43.4341  -10.5221 H   0  0  0  0  0  0
   23.7419   44.9545  -11.3702 H   0  0  0  0  0  0
   25.2884   44.5828  -10.6342 H   0  0  0  0  0  0
   17.8003   48.1734  -10.2922 H   0  0  0  0  0  0
   18.7848   47.2033  -11.3867 H   0  0  0  0  0  0
   19.1713   47.2577   -9.6577 H   0  0  0  0  0  0
   29.3319   48.1750  -10.9026 H   0  0  0  0  0  0
   22.9979   47.0569  -11.1824 H   0  0  0  0  0  0
   18.5760   33.5528    0.9280 H   0  0  0  0  0  0
   17.6086   34.4052   -0.2506 H   0  0  0  0  0  0
   21.7779   38.2268   -0.4754 H   0  0  0  0  0  0
   21.8963   36.5675   -0.8233 H   0  0  0  0  0  0
   19.6288   49.6853   -9.9932 H   0  0  0  0  0  0
  1  4  1  0  0  0
  1 25  2  0  0  0
  1 80  1  0  0  0
  2  4  2  0  0  0
  2  5  1  0  0  0
  2 81  1  0  0  0
  3 27  1  0  0  0
  3 74  1  0  0  0
  3 82  1  0  0  0
  3 83  1  0  0  0
  4 84  1  0  0  0
  5 26  2  0  0  0
  5 85  1  0  0  0
  6 19  1  0  0  0
  6 68  1  0  0  0
  6 77  2  0  0  0
  7  8  1  0  0  0
  7 54  1  0  0  0
  7 68  1  0  0  0
  7 86  1  0  0  0
  8 61  1  0  0  0
  8 72  2  0  0  0
  9 11  1  0  0  0
  9 15  1  0  0  0
  9 16  2  0  0  0
 10 13  1  0  0  0
 10 20  1  0  0  0
 10 61  1  0  0  0
 10 87  1  0  0  0
 11 13  1  0  0  0
 11 18  2  0  0  0
 12 17  2  0  0  0
 12 18  1  0  0  0
 12 88  1  0  0  0
 13 89  1  0  0  0
 13 90  1  0  0  0
 14 19  1  0  0  0
 14 91  1  0  0  0
 14 92  1  0  0  0
 14 93  1  0  0  0
 15 61  1  0  0  0
 15 94  1  0  0  0
 15 95  1  0  0  0
 16 17  1  0  0  0
 16 96  1  0  0  0
 17 74  1  0  0  0
 18 97  1  0  0  0
 19 71  1  0  0  0
 19 98  1  0  0  0
 20 62  1  0  0  0
 20 73  2  0  0  0
 21 22  1  0  0  0
 21 26  1  0  0  0
 21 62  1  0  0  0
 21 99  1  0  0  0
 22 23  1  0  0  0
 22100  1  0  0  0
 22101  1  0  0  0
 23 24  1  0  0  0
 23102  1  0  0  0
 23103  1  0  0  0
 24 25  1  0  0  0
 24104  1  0  0  0
 24105  1  0  0  0
 25 26  1  0  0  0
 27 28  1  0  0  0
 27 64  2  0  0  0
 28 63  2  0  0  0
 28106  1  0  0  0
 29 30  2  0  0  0
 29 31  1  0  0  0
 29 63  1  0  0  0
 30 64  1  0  0  0
 30107  1  0  0  0
 31 75  1  0  0  0
 31108  1  0  0  0
 31109  1  0  0  0
 32 65  1  0  0  0
 32 75  1  0  0  0
 32 76  2  0  0  0
 33 34  1  0  0  0
 33 65  1  0  0  0
 33110  1  0  0  0
 33111  1  0  0  0
 34 35  1  0  0  0
 34112  1  0  0  0
 34113  1  0  0  0
 35 36  1  0  0  0
 35114  1  0  0  0
 35115  1  0  0  0
 36 37  1  0  0  0
 36 66  1  0  0  0
 36116  1  0  0  0
 37 65  1  0  0  0
 37117  1  0  0  0
 37118  1  0  0  0
 38 39  2  0  0  0
 38 66  1  0  0  0
 38 70  1  0  0  0
 39 40  1  0  0  0
 39 53  1  0  0  0
 40 41  1  0  0  0
 40 67  2  0  0  0
 41 42  1  0  0  0
 41 46  2  0  0  0
 42 43  2  0  0  0
 42119  1  0  0  0
 43 44  1  0  0  0
 43120  1  0  0  0
 44 45  2  0  0  0
 44 78  1  0  0  0
 45 46  1  0  0  0
 45121  1  0  0  0
 46122  1  0  0  0
 47 48  1  0  0  0
 47 52  2  0  0  0
 47 78  1  0  0  0
 48 49  2  0  0  0
 48123  1  0  0  0
 49 50  1  0  0  0
 49124  1  0  0  0
 50 51  2  0  0  0
 50 60  1  0  0  0
 51 52  1  0  0  0
 51125  1  0  0  0
 52 59  1  0  0  0
 53 69  1  0  0  0
 53 79  2  0  0  0
 54 55  1  0  0  0
 54 56  1  0  0  0
 54 57  1  0  0  0
 55126  1  0  0  0
 55127  1  0  0  0
 55128  1  0  0  0
 56129  1  0  0  0
 56130  1  0  0  0
 56131  1  0  0  0
 57132  1  0  0  0
 57133  1  0  0  0
 57134  1  0  0  0
 58 71  1  0  0  0
 58135  1  0  0  0
 58136  1  0  0  0
 58137  1  0  0  0
 62138  1  0  0  0
 66 67  1  0  0  0
 68139  1  0  0  0
 69140  1  0  0  0
 69141  1  0  0  0
 70142  1  0  0  0
 70143  1  0  0  0
 71144  1  0  0  0
M  ISO  4  17 101  32 100  74 100  75 101
M  END
> <s_m_entry_id>
10

> <s_m_entry_name>
6w7o.1_mol3

> <s_m_subgroup_title>
6W7O - minimized_split_by_molecule

> <s_m_subgroupid>
6W7O - minimized_split_by_molecule

> <b_m_subgroup_collapsed>
0

$$$$
