e3_ligand
                    3D
 Structure written by MMmdl.
 38 41  0  0  1  0            999 V2000
   32.4482   47.2234  -14.3432 C   0  0  0  0  0  0
   30.2118   47.9341  -14.8546 C   0  0  0  0  0  0
   31.5531   47.8518  -15.2027 C   0  0  0  0  0  0
   29.7799   47.3991  -13.6477 C   0  0  0  0  0  0
   21.8646   48.1872   -9.9293 C   0  0  0  0  0  0
   23.8022   46.7507   -9.2541 C   0  0  2  0  0  0
   25.2066   47.2925   -9.6436 C   0  0  0  0  0  0
   26.9945   47.2180   -6.4039 C   0  0  0  0  0  0
   27.5258   47.9842   -9.1407 C   0  0  1  0  0  0
   28.2936   47.5923   -6.7682 C   0  0  0  0  0  0
   29.1852   46.2533   -4.9585 C   0  0  0  0  0  0
   28.4563   48.4827   -7.9903 C   0  0  0  0  0  0
   21.7604   49.9466  -11.7443 C   0  0  0  0  0  0
   25.8296   47.7054   -7.2583 C   0  0  0  0  0  0
   26.8082   46.3771   -5.3032 C   0  0  0  0  0  0
   27.8994   45.8701   -4.5794 C   0  0  0  0  0  0
   29.3817   47.1131   -6.0359 C   0  0  0  0  0  0
   21.0625   48.7119  -11.1467 C   0  0  2  0  0  0
   28.2662   46.8175   -9.8501 C   0  0  0  0  0  0
   30.1515   46.2858  -11.3877 C   0  0  2  0  0  0
   31.2960   45.8857  -10.4263 C   0  0  0  0  0  0
   32.4124   45.1238  -11.1413 C   0  0  0  0  0  0
   33.0600   46.0186  -12.2080 C   0  0  0  0  0  0
   32.0304   46.6846  -13.1197 C   0  0  0  0  0  0
   30.6675   46.7932  -12.7471 C   0  0  0  0  0  0
   23.7445   45.1736   -9.1847 C   0  0  0  0  0  0
   24.6437   44.6288   -8.0481 C   0  0  0  0  0  0
   22.2900   44.7149   -8.9001 C   0  0  0  0  0  0
   24.2091   44.4998  -10.5014 C   0  0  0  0  0  0
   18.8177   47.8449  -10.5054 C   0  0  0  0  0  0
   26.1527   47.5888   -8.6991 N   0  0  0  0  0  0
   29.1883   47.1860  -10.7496 N   0  0  0  0  0  0
   22.8392   47.3085  -10.2145 N   0  0  0  0  0  0
   19.6674   49.0044  -10.7425 N   0  0  0  0  0  0
   25.4338   47.3908  -10.8541 O   0  0  0  0  0  0
   28.0265   45.6485   -9.5432 O   0  0  0  0  0  0
   21.6118   48.5870   -8.7904 O   0  0  0  0  0  0
   27.7601   45.1978   -3.7457 *   0  0  0  0  0  0
  1  3  1  0  0  0
  1 24  2  0  0  0
  2  3  2  0  0  0
  2  4  1  0  0  0
  4 25  2  0  0  0
  5 18  1  0  0  0
  5 33  1  0  0  0
  5 37  2  0  0  0
  6  7  1  0  0  0
  6 26  1  0  0  0
  6 33  1  0  0  0
  7 31  1  0  0  0
  7 35  2  0  0  0
  8 10  1  0  0  0
  8 14  1  0  0  0
  8 15  2  0  0  0
  9 12  1  0  0  0
  9 19  1  0  0  0
  9 31  1  0  0  0
 10 12  1  0  0  0
 10 17  2  0  0  0
 11 16  2  0  0  0
 11 17  1  0  0  0
 13 18  1  0  0  0
 14 31  1  0  0  0
 15 16  1  0  0  0
 16 38  1  0  0  0
 18 34  1  0  0  0
 19 32  1  0  0  0
 19 36  2  0  0  0
 20 21  1  0  0  0
 20 25  1  0  0  0
 20 32  1  0  0  0
 21 22  1  0  0  0
 22 23  1  0  0  0
 23 24  1  0  0  0
 24 25  1  0  0  0
 26 27  1  0  0  0
 26 28  1  0  0  0
 26 29  1  0  0  0
 30 34  1  0  0  0
M  ISO  1  16 101
M  END
> <s_m_entry_id>
13

> <s_m_entry_name>
6w7o.1_mol3

> <s_m_subgroup_title>
6W7O - minimized_split_by_molecule

> <s_m_subgroupid>
6W7O - minimized_split_by_molecule

> <b_m_subgroup_collapsed>
0

$$$$
