
  -OEChem-04072317153D

 66 73  0     1  0  0  0  0  0999 V2000
  -32.3224  -15.6019  -29.9447 C   0  0  0  0  0  0  0  0  0  0  0  0
  -32.4296  -16.9698  -29.6935 C   0  0  0  0  0  0  0  0  0  0  0  0
  -32.1451  -14.7103  -28.8867 C   0  0  0  0  0  0  0  0  0  0  0  0
  -21.5479   -5.3625  -25.0484 C   0  0  0  0  0  0  0  0  0  0  0  0
  -22.1952   -5.4017  -23.8134 C   0  0  0  0  0  0  0  0  0  0  0  0
  -23.5085  -10.9971  -21.0681 C   0  0  0  0  0  0  0  0  0  0  0  0
  -23.0212  -12.8583  -22.5294 C   0  0  0  0  0  0  0  0  0  0  0  0
  -24.7302  -11.5805  -20.7324 C   0  0  0  0  0  0  0  0  0  0  0  0
  -24.2428  -13.4418  -22.1937 C   0  0  0  0  0  0  0  0  0  0  0  0
  -32.3596  -17.4461  -28.3844 C   0  0  0  0  0  0  0  0  0  0  0  0
  -21.4435   -7.7761  -25.0703 C   0  0  0  0  0  0  0  0  0  0  0  0
  -30.7984  -14.3151  -25.6580 C   0  0  0  0  0  0  0  0  0  0  0  0
  -18.9607   -6.1154  -28.7621 C   0  0  0  0  0  0  0  0  0  0  0  0
  -21.1721   -6.5498  -25.6768 C   0  0  0  0  0  0  0  0  0  0  0  0
  -32.0752  -15.1866  -27.5775 C   0  0  0  0  0  0  0  0  0  0  0  0
  -22.6540  -11.6359  -21.9667 C   0  0  0  0  0  0  0  0  0  0  0  0
  -25.0973  -12.8029  -21.2951 C   0  0  0  0  0  0  0  0  0  0  0  0
  -22.4666   -6.6280  -23.2069 C   0  0  0  0  0  0  0  0  0  0  0  0
  -30.7004  -13.3757  -24.6468 C   0  0  0  0  0  0  0  0  0  0  0  0
  -32.1825  -16.5545  -27.3263 C   0  0  0  0  0  0  0  0  0  0  0  0
  -22.0908   -7.8153  -23.8353 C   0  0  0  0  0  0  0  0  0  0  0  0
  -31.8918  -14.2485  -26.4980 C   0  0  0  0  0  0  0  0  0  0  0  0
  -20.5031   -6.5089  -26.9541 C   0  0  0  0  0  0  0  0  0  0  0  0
  -20.8632   -7.0361  -28.1766 C   0  0  0  0  0  0  0  0  0  0  0  0
  -31.7021  -12.4316  -24.5426 C   0  0  0  0  0  0  0  0  0  0  0  0
  -25.5449   -6.5647  -21.1669 C   0  0  0  0  0  0  0  0  0  0  0  0
  -30.8386   -9.2366  -18.6594 C   0  0  0  0  0  0  0  0  0  0  0  0
  -27.6789   -8.1288  -19.3402 C   0  0  0  0  0  0  0  0  0  0  0  0
  -30.9394  -11.5917  -19.6823 C   0  0  0  0  0  0  0  0  0  0  0  0
  -32.2779  -10.9561  -19.9142 C   0  0  0  0  0  0  0  0  0  0  0  0
  -27.6216   -6.1435  -22.4334 C   0  0  0  0  0  0  0  0  0  0  0  0
  -29.4117  -14.6197  -22.9701 C   0  0  0  0  0  0  0  0  0  0  0  0
  -28.4079  -12.6280  -24.0917 C   0  0  0  0  0  0  0  0  0  0  0  0
  -28.7820   -6.0747  -20.3428 C   0  0  0  0  0  0  0  0  0  0  0  0
  -28.5899  -14.3250  -21.7231 C   0  0  0  0  0  0  0  0  0  0  0  0
  -27.5890  -12.3442  -22.8397 C   0  0  0  0  0  0  0  0  0  0  0  0
  -26.9261   -7.1070  -21.4821 C   0  0  2  0  0  0  0  0  0  0  0  0
  -28.3518   -5.1806  -21.4971 C   0  0  2  0  0  0  0  0  0  0  0  0
  -31.4701  -10.5880  -18.7167 C   0  0  0  0  0  0  0  0  0  0  0  0
  -22.0906   -7.8059  -28.4686 C   0  0  0  0  0  0  0  0  0  0  0  0
  -29.0572   -7.7439  -15.6887 C   0  0  0  0  0  0  0  0  0  0  0  0
  -27.1512   -6.5983  -16.8389 C   0  0  0  0  0  0  0  0  0  0  0  0
  -27.1120   -9.0730  -16.5279 C   0  0  0  0  0  0  0  0  0  0  0  0
  -21.3319  -11.0052  -22.3305 C   0  0  0  0  0  0  0  0  0  0  0  0
  -23.1637   -6.6510  -21.8773 C   0  0  0  0  0  0  0  0  0  0  0  0
  -26.4030  -13.4269  -20.9343 C   0  0  0  0  0  0  0  0  0  0  0  0
  -21.4422  -10.0844  -23.5409 C   0  0  0  0  0  0  0  0  0  0  0  0
  -28.6913   -8.0607  -18.2249 C   0  0  2  0  0  0  0  0  0  0  0  0
  -28.0290   -7.8680  -16.8308 C   0  0  0  0  0  0  0  0  0  0  0  0
  -19.9802   -6.8111  -29.2147 N   0  0  0  0  0  0  0  0  0  0  0  0
  -32.8573  -13.3134  -26.3727 N   0  0  0  0  0  0  0  0  0  0  0  0
  -32.7607  -12.3899  -25.3790 N   0  0  0  0  0  0  0  0  0  0  0  0
  -29.6081  -13.4052  -23.7706 N   0  0  0  0  0  0  0  0  0  0  0  0
  -27.7889   -7.1440  -20.3074 N   0  0  0  0  0  0  0  0  0  0  0  0
  -31.6228  -11.4602  -23.5165 N   0  0  0  0  0  0  0  0  0  0  0  0
  -24.5503   -7.0398  -22.0002 N   0  0  0  0  0  0  0  0  0  0  0  0
  -29.5037   -9.2680  -18.3342 N   0  0  0  0  0  0  0  0  0  0  0  0
  -27.3120  -13.6327  -22.1138 N   0  3  0  0  0  0  0  0  0  0  0  0
  -25.4025   -5.7764  -20.2395 O   0  0  0  0  0  0  0  0  0  0  0  0
  -31.5157   -8.2428  -18.8950 O   0  0  0  0  0  0  0  0  0  0  0  0
  -26.8221   -9.0143  -19.3509 O   0  0  0  0  0  0  0  0  0  0  0  0
  -32.1193  -17.0476  -26.0565 O   0  0  0  0  0  0  0  0  0  0  0  0
  -29.4716   -4.5950  -22.1310 O   0  0  0  0  0  0  0  0  0  0  0  0
  -22.3495   -9.0212  -23.2565 O   0  0  0  0  0  0  0  0  0  0  0  0
  -31.9067  -11.0621  -17.4960 F   0  0  0  0  0  0  0  0  0  0  0  0
  -18.9986   -5.6981  -27.0980 S   0  0  0  0  0  0  0  0  0  0  0  0
  1  2  1  0  0  0  0
  1  3  2  0  0  0  0
  2 10  2  0  0  0  0
  3 15  1  0  0  0  0
  4  5  2  0  0  0  0
  4 14  1  0  0  0  0
  5 18  1  0  0  0  0
  6  8  2  0  0  0  0
  6 16  1  0  0  0  0
  7  9  1  0  0  0  0
  7 16  2  0  0  0  0
  8 17  1  0  0  0  0
  9 17  2  0  0  0  0
 10 20  1  0  0  0  0
 11 14  2  0  0  0  0
 11 21  1  0  0  0  0
 12 19  1  0  0  0  0
 12 22  2  0  0  0  0
 13 50  2  0  0  0  0
 13 66  1  0  0  0  0
 14 23  1  0  0  0  0
 15 20  2  0  0  0  0
 15 22  1  0  0  0  0
 16 44  1  0  0  0  0
 17 46  1  0  0  0  0
 18 21  2  0  0  0  0
 18 45  1  0  0  0  0
 19 25  2  0  0  0  0
 19 53  1  0  0  0  0
 20 62  1  0  0  0  0
 21 64  1  0  0  0  0
 22 51  1  0  0  0  0
 23 24  2  0  0  0  0
 23 66  1  0  0  0  0
 24 40  1  0  0  0  0
 24 50  1  0  0  0  0
 25 52  1  0  0  0  0
 25 55  1  0  0  0  0
 26 37  1  0  0  0  0
 26 56  1  0  0  0  0
 26 59  2  0  0  0  0
 27 39  1  0  0  0  0
 27 57  1  0  0  0  0
 27 60  2  0  0  0  0
 28 48  1  0  0  0  0
 28 54  1  0  0  0  0
 28 61  2  0  0  0  0
 29 30  1  0  0  0  0
 29 39  1  0  0  0  0
 30 39  1  0  0  0  0
 31 37  1  0  0  0  0
 31 38  1  0  0  0  0
 32 35  1  0  0  0  0
 32 53  1  0  0  0  0
 33 36  1  0  0  0  0
 33 53  1  0  0  0  0
 34 38  1  0  0  0  0
 34 54  1  0  0  0  0
 35 58  1  0  0  0  0
 36 58  1  0  0  0  0
 37 54  1  0  0  0  0
 38 63  1  0  0  0  0
 39 65  1  0  0  0  0
 41 49  1  0  0  0  0
 42 49  1  0  0  0  0
 43 49  1  0  0  0  0
 44 47  1  0  0  0  0
 45 56  1  0  0  0  0
 46 58  1  0  0  0  0
 47 64  1  0  0  0  0
 48 49  1  0  0  0  0
 48 57  1  0  0  0  0
 51 52  2  0  0  0  0
M  CHG  1  58   1
M  ISO  4  46 101  47 100  58 100  64 101
M  END
> <Batch ID>
0000

> <Smiles>
Cc1ncsc1-c1ccc(CNC(=O)[C@@H]2C[C@@H](O)CN2C(=O)[C@@H](NC(=O)C2(F)CC2)C(C)(C)C)c([101O][100CH2]Cc2ccc([101CH2][100N]3CCN(c4cc(-c5ccccc5O)nnc4N)CC3)cc2)c1

> <Shape>
0.407

> <Color>
0.228

> <Negative vol penalty>
0.000

$$$$
