
  -OEChem-04072317153D

 86 93  0     1  0  0  0  0  0999 V2000
   -9.9017    7.5065   22.3708 C   0  0  0  0  0  0  0  0  0  0  0  0
  -10.8945    8.4729   22.2101 C   0  0  0  0  0  0  0  0  0  0  0  0
   -8.1516    3.1411   11.9176 C   0  0  0  0  0  0  0  0  0  0  0  0
  -10.0689    3.1466   10.4476 C   0  0  0  0  0  0  0  0  0  0  0  0
  -13.3551   10.0088   21.9895 C   0  0  0  0  0  0  0  0  0  0  0  0
   -9.6691    6.5711   21.3625 C   0  0  0  0  0  0  0  0  0  0  0  0
   -7.4708    2.3115   11.0267 C   0  0  0  0  0  0  0  0  0  0  0  0
   -9.3881    2.3169    9.5566 C   0  0  0  0  0  0  0  0  0  0  0  0
  -14.3482   10.9751   21.8296 C   0  0  0  0  0  0  0  0  0  0  0  0
  -11.4223    7.5685   20.0327 C   0  0  0  0  0  0  0  0  0  0  0  0
  -13.0073    9.9707   19.5990 C   0  0  0  0  0  0  0  0  0  0  0  0
  -11.3427    6.2333   13.5938 C   0  0  0  0  0  0  0  0  0  0  0  0
   -9.4507    3.5586   11.6281 C   0  0  0  0  0  0  0  0  0  0  0  0
  -11.6548    8.5039   21.0410 C   0  0  0  0  0  0  0  0  0  0  0  0
  -12.6846    9.5066   20.8741 C   0  0  0  0  0  0  0  0  0  0  0  0
   -8.0890    1.8994    9.8461 C   0  0  0  0  0  0  0  0  0  0  0  0
  -10.4294    6.6021   20.1935 C   0  0  0  0  0  0  0  0  0  0  0  0
  -14.6709   11.4392   20.5545 C   0  0  0  0  0  0  0  0  0  0  0  0
  -14.0004   10.9370   19.4391 C   0  0  0  0  0  0  0  0  0  0  0  0
  -10.1548    4.4165   12.5495 C   0  0  0  0  0  0  0  0  0  0  0  0
  -10.5085    4.2236   13.8685 C   0  0  0  0  0  0  0  0  0  0  0  0
  -14.4069   13.5014   14.1865 C   0  0  0  0  0  0  0  0  0  0  0  0
  -15.3787   11.0968   15.2116 C   0  0  0  0  0  0  0  0  0  0  0  0
  -14.3181   11.6846   15.7825 C   0  0  0  0  0  0  0  0  0  0  0  0
  -13.8072   12.9394   15.2522 C   0  0  0  0  0  0  0  0  0  0  0  0
  -15.5876   12.8505   13.5472 C   0  0  0  0  0  0  0  0  0  0  0  0
  -13.7321   10.9858   16.9453 C   0  0  0  0  0  0  0  0  0  0  0  0
   -7.0206   -1.4261    9.2804 C   0  0  0  0  0  0  0  0  0  0  0  0
   -6.3571   -4.2986    7.7825 C   0  0  0  0  0  0  0  0  0  0  0  0
   -4.5743    6.4631   12.2966 C   0  0  0  0  0  0  0  0  0  0  0  0
   -5.4706   -1.5664    5.6347 C   0  0  0  0  0  0  0  0  0  0  0  0
   -8.2362   -3.0199   10.6986 C   0  0  0  0  0  0  0  0  0  0  0  0
  -15.2630   13.8190   20.4660 C   0  0  0  0  0  0  0  0  0  0  0  0
  -17.0310   12.1171   20.8814 C   0  0  0  0  0  0  0  0  0  0  0  0
   -7.0943    4.9780   16.9318 C   0  0  0  0  0  0  0  0  0  0  0  0
   -7.8040    7.2691   16.6200 C   0  0  0  0  0  0  0  0  0  0  0  0
   -6.5128   -4.6103   10.2370 C   0  0  0  0  0  0  0  0  0  0  0  0
  -16.2791   14.6970   19.7482 C   0  0  0  0  0  0  0  0  0  0  0  0
  -18.0449   13.0016   20.1670 C   0  0  0  0  0  0  0  0  0  0  0  0
   -8.3939    4.6360   17.6529 C   0  0  0  0  0  0  0  0  0  0  0  0
   -9.1241    6.9949   17.3325 C   0  0  0  0  0  0  0  0  0  0  0  0
   -7.7336   -2.7653    9.2828 C   0  0  2  0  0  0  0  0  0  0  0  0
   -7.0742   -3.7563   11.3643 C   0  0  2  0  0  0  0  0  0  0  0  0
  -10.2264    3.0223   14.6819 C   0  0  0  0  0  0  0  0  0  0  0  0
   -7.8931   -3.3075    4.3404 C   0  0  0  0  0  0  0  0  0  0  0  0
   -6.7062   -5.4266    4.9510 C   0  0  0  0  0  0  0  0  0  0  0  0
   -8.8435   -4.8065    6.0934 C   0  0  0  0  0  0  0  0  0  0  0  0
  -18.6786   15.3775   19.7509 C   0  0  0  0  0  0  0  0  0  0  0  0
   -7.3563    1.0060    8.8874 C   0  0  0  0  0  0  0  0  0  0  0  0
  -10.1787    5.5955   19.1096 C   0  0  0  0  0  0  0  0  0  0  0  0
   -3.1813    6.5920   11.7127 C   0  0  0  0  0  0  0  0  0  0  0  0
   -4.0552   -1.2024    5.2219 C   0  0  0  0  0  0  0  0  0  0  0  0
   -3.1096    6.1301   10.2581 C   0  0  0  0  0  0  0  0  0  0  0  0
   -3.7698    0.2912    5.3689 C   0  0  0  0  0  0  0  0  0  0  0  0
   -3.5260    4.6662   10.0881 C   0  0  0  0  0  0  0  0  0  0  0  0
   -3.9071    0.7410    6.8244 C   0  0  0  0  0  0  0  0  0  0  0  0
   -3.4175    4.2251    8.6261 C   0  0  0  0  0  0  0  0  0  0  0  0
   -3.6226    2.2317    7.0327 C   0  0  0  0  0  0  0  0  0  0  0  0
   -3.7983    2.7524    8.4624 C   0  0  0  0  0  0  0  0  0  0  0  0
   -6.0497    6.3493   15.2487 C   0  0  0  0  0  0  0  0  0  0  0  0
   -5.8425    5.3503   14.1197 C   0  0  0  0  0  0  0  0  0  0  0  0
   -6.7684   -3.4574    6.6010 C   0  0  2  0  0  0  0  0  0  0  0  0
  -12.6200   13.5887   15.9005 C   0  0  0  0  0  0  0  0  0  0  0  0
   -7.5298   -4.2491    5.5064 C   0  0  0  0  0  0  0  0  0  0  0  0
  -11.1895    5.2645   14.4691 N   0  0  0  0  0  0  0  0  0  0  0  0
  -15.9969   11.6625   14.1252 N   0  0  0  0  0  0  0  0  0  0  0  0
  -15.6710   12.4089   20.4173 N   0  0  0  0  0  0  0  0  0  0  0  0
   -6.8320   -3.8847    9.0154 N   0  0  0  0  0  0  0  0  0  0  0  0
   -7.2942    6.0606   15.9603 N   0  0  0  0  0  0  0  0  0  0  0  0
  -14.3075   11.3872   18.1517 N   0  0  0  0  0  0  0  0  0  0  0  0
   -7.8314   -0.3577    8.9481 N   0  0  0  0  0  0  0  0  0  0  0  0
   -4.6223    5.6238   13.3967 N   0  0  0  0  0  0  0  0  0  0  0  0
   -5.5387   -2.8581    6.1361 N   0  0  0  0  0  0  0  0  0  0  0  0
  -17.6487   14.4469   20.3268 N   0  3  0  0  0  0  0  0  0  0  0  0
   -8.9292    5.8756   18.3236 N   0  3  0  0  0  0  0  0  0  0  0  0
  -16.1307   13.3678   12.5746 O   0  0  0  0  0  0  0  0  0  0  0  0
  -12.8444   10.1611   16.7652 O   0  0  0  0  0  0  0  0  0  0  0  0
   -5.8288   -1.3757    9.5610 O   0  0  0  0  0  0  0  0  0  0  0  0
   -5.6429   -5.2900    7.6197 O   0  0  0  0  0  0  0  0  0  0  0  0
   -5.5328    7.0614   11.8129 O   0  0  0  0  0  0  0  0  0  0  0  0
   -6.4213   -0.7964    5.5281 O   0  0  0  0  0  0  0  0  0  0  0  0
   -7.5384   -4.5454   12.4414 O   0  0  0  0  0  0  0  0  0  0  0  0
  -12.2976   14.7359   15.2713 F   0  0  0  0  0  0  0  0  0  0  0  0
  -12.8757   13.8801   17.1911 F   0  0  0  0  0  0  0  0  0  0  0  0
  -11.5444   12.7776   15.8631 F   0  0  0  0  0  0  0  0  0  0  0  0
  -10.6931    5.9595   12.0292 S   0  0  0  0  0  0  0  0  0  0  0  0
  1  2  1  0  0  0  0
  1  6  2  0  0  0  0
  2 14  2  0  0  0  0
  3  7  2  0  0  0  0
  3 13  1  0  0  0  0
  4  8  1  0  0  0  0
  4 13  2  0  0  0  0
  5  9  2  0  0  0  0
  5 15  1  0  0  0  0
  6 17  1  0  0  0  0
  7 16  1  0  0  0  0
  8 16  2  0  0  0  0
  9 18  1  0  0  0  0
 10 14  1  0  0  0  0
 10 17  2  0  0  0  0
 11 15  2  0  0  0  0
 11 19  1  0  0  0  0
 12 65  2  0  0  0  0
 12 86  1  0  0  0  0
 13 20  1  0  0  0  0
 14 15  1  0  0  0  0
 16 49  1  0  0  0  0
 17 50  1  0  0  0  0
 18 19  2  0  0  0  0
 18 67  1  0  0  0  0
 19 70  1  0  0  0  0
 20 21  2  0  0  0  0
 20 86  1  0  0  0  0
 21 44  1  0  0  0  0
 21 65  1  0  0  0  0
 22 25  2  0  0  0  0
 22 26  1  0  0  0  0
 23 24  2  0  0  0  0
 23 66  1  0  0  0  0
 24 25  1  0  0  0  0
 24 27  1  0  0  0  0
 25 63  1  0  0  0  0
 26 66  1  0  0  0  0
 26 76  2  0  0  0  0
 27 70  1  0  0  0  0
 27 77  2  0  0  0  0
 28 42  1  0  0  0  0
 28 71  1  0  0  0  0
 28 78  2  0  0  0  0
 29 62  1  0  0  0  0
 29 68  1  0  0  0  0
 29 79  2  0  0  0  0
 30 51  1  0  0  0  0
 30 72  1  0  0  0  0
 30 80  2  0  0  0  0
 31 52  1  0  0  0  0
 31 73  1  0  0  0  0
 31 81  2  0  0  0  0
 32 42  1  0  0  0  0
 32 43  1  0  0  0  0
 33 38  1  0  0  0  0
 33 67  1  0  0  0  0
 34 39  1  0  0  0  0
 34 67  1  0  0  0  0
 35 40  1  0  0  0  0
 35 69  1  0  0  0  0
 36 41  1  0  0  0  0
 36 69  1  0  0  0  0
 37 43  1  0  0  0  0
 37 68  1  0  0  0  0
 38 74  1  0  0  0  0
 39 74  1  0  0  0  0
 40 75  1  0  0  0  0
 41 75  1  0  0  0  0
 42 68  1  0  0  0  0
 43 82  1  0  0  0  0
 45 64  1  0  0  0  0
 46 64  1  0  0  0  0
 47 64  1  0  0  0  0
 48 74  1  0  0  0  0
 49 71  1  0  0  0  0
 50 75  1  0  0  0  0
 51 53  1  0  0  0  0
 52 54  1  0  0  0  0
 53 55  1  0  0  0  0
 54 56  1  0  0  0  0
 55 57  1  0  0  0  0
 56 58  1  0  0  0  0
 57 59  1  0  0  0  0
 58 59  1  0  0  0  0
 60 61  1  0  0  0  0
 60 69  1  0  0  0  0
 61 72  1  0  0  0  0
 62 64  1  0  0  0  0
 62 73  1  0  0  0  0
 63 83  1  0  0  0  0
 63 84  1  0  0  0  0
 63 85  1  0  0  0  0
M  CHG  2  74   1  75   1
M  ISO  4  31 100  60 101  69 100  73 101
M  END
> <Batch ID>
0000

> <Smiles>
Cc1ncsc1-c1ccc(CNC(=O)[C@@H]2C[C@@H](O)CN2C(=O)[C@@H]([101NH][100C](=O)CCCCCCCCCC(=O)NC[101CH2][100N]2CCN(Cc3cccc(-c4ccc(N5CCN(C)CC5)c(NC(=O)c5c[nH]c(=O)cc5C(F)(F)F)c4)c3)CC2)C(C)(C)C)cc1

> <Shape>
0.209

> <Color>
0.128

> <Negative vol penalty>
0.000

$$$$
