ligand
                    3D
 Structure written by MMmdl.
144151  0  0  1  0            999 V2000
   -2.5007    3.7226  -20.1218 C   0  0  0  0  0  0
   -7.6093    4.5030  -16.7746 C   0  0  0  0  0  0
   -5.9248    3.6512  -18.2808 C   0  0  0  0  0  0
   -6.5133    2.3839  -18.2078 C   0  0  0  0  0  0
   -7.6296    2.1715  -17.4008 C   0  0  0  0  0  0
   -8.1710    3.2263  -16.6619 C   0  0  0  0  0  0
   -6.4920    4.7123  -17.5731 C   0  0  0  0  0  0
   -9.3230    2.9618  -15.6910 C   0  0  0  0  0  0
   -4.6846    3.8846  -19.0792 C   0  0  0  0  0  0
   -4.9605    6.3032  -20.0866 C   0  0  0  0  0  0
   -9.8267    4.8077  -14.1012 C   0  0  0  0  0  0
   -9.2826    5.5539  -12.8617 C   0  0  2  0  0  0
   -9.8936    5.0325  -11.5585 C   0  0  0  0  0  0
   -4.2480    4.9920  -19.8258 C   0  0  0  0  0  0
   -9.8036    6.2431  -10.6436 C   0  0  2  0  0  0
  -10.0428    7.4313  -11.5776 C   0  0  0  0  0  0
   -9.1686    7.8645  -13.9045 C   0  0  0  0  0  0
   -9.4682    9.3860  -13.8130 C   0  0  2  0  0  0
  -10.7770    9.8162  -14.5825 C   0  0  0  0  0  0
  -11.0284   11.3305  -14.3705 C   0  0  0  0  0  0
  -10.6680    9.5692  -16.1128 C   0  0  0  0  0  0
  -12.0126    9.0532  -14.0436 C   0  0  0  0  0  0
   -7.3752   10.7632  -13.5786 C   0  0  0  0  0  0
   -6.2704   11.4987  -14.3469 C   0  0  0  0  0  0
   -6.8011   12.5714  -15.3210 C   0  0  0  0  0  0
   -7.5181   13.7627  -14.6504 C   0  0  0  0  0  0
   -8.2470   14.6355  -15.6824 C   0  0  0  0  0  0
   -8.8682   15.9313  -15.1131 C   0  0  0  0  0  0
  -10.3684   16.0976  -15.4309 C   0  0  0  0  0  0
  -11.2714   15.2386  -14.5292 C   0  0  0  0  0  0
  -12.7592   15.2754  -14.9196 C   0  0  0  0  0  0
  -13.6484   14.5084  -13.9196 C   0  0  0  0  0  0
  -15.1150   14.3533  -14.3707 C   0  0  0  0  0  0
  -15.2810   12.1243  -15.4672 C   0  0  0  0  0  0
  -15.3601   11.3889  -16.7876 C   0  0  0  0  0  0
  -14.4420   10.3580  -16.9943 C   0  0  0  0  0  0
  -14.4086    9.5828  -18.1556 C   0  0  0  0  0  0
  -15.3728    9.8244  -19.1716 C   0  0  0  0  0  0
  -16.3006   10.8571  -18.9540 C   0  0  0  0  0  0
  -16.3040   11.6549  -17.8029 C   0  0  0  0  0  0
  -17.3897   12.7337  -17.7180 C   0  0  0  0  0  0
  -15.8516   15.3164  -17.9656 C   0  0  0  0  0  0
  -15.4743    9.0173  -20.4378 C   0  0  0  0  0  0
  -16.6285    8.8559  -21.1283 C   0  0  0  0  0  0
  -15.7629    7.6122  -23.0276 C   0  0  0  0  0  0
  -14.5160    7.6991  -22.2702 C   0  0  0  0  0  0
  -14.3260    8.3571  -21.0465 C   0  0  0  0  0  0
  -13.0088    8.1882  -20.6212 C   0  0  0  0  0  0
  -12.3918    7.4327  -21.6095 C   0  0  0  0  0  0
  -12.4675    8.7376  -19.3323 C   0  0  0  0  0  0
  -13.5826    7.3012  -17.6288 C   0  0  0  0  0  0
  -14.7394    6.9067  -16.9167 C   0  0  0  0  0  0
  -14.8286    5.6116  -16.4014 C   0  0  0  0  0  0
  -13.7790    4.7200  -16.5952 C   0  0  0  0  0  0
  -12.6519    5.1642  -17.2799 C   0  0  0  0  0  0
  -18.1626    7.9524  -22.8427 C   0  0  0  0  0  0
  -13.8591    3.4498  -16.1416 F   0  0  0  0  0  0
  -15.7835    7.7391  -16.7176 F   0  0  0  0  0  0
   -9.1748    3.6821  -14.4253 N   0  0  0  0  0  0
   -9.5022    7.0225  -12.8836 N   0  0  0  0  0  0
   -8.2882   10.1067  -14.3136 N   0  0  0  0  0  0
  -15.2837   13.4654  -15.5234 N   0  0  0  0  0  0
   -3.0537    4.8769  -20.3798 N   0  0  0  0  0  0
  -16.8122    8.1456  -22.2984 N   0  0  0  0  0  0
  -13.2978    7.1648  -22.6025 N   0  0  0  0  0  0
  -13.4119    8.5879  -18.2114 N   0  0  0  0  0  0
  -12.5454    6.4216  -17.7764 N   0  0  0  0  0  0
  -10.7908    5.2555  -14.7229 O   0  0  0  0  0  0
   -8.6276    7.4699  -14.9405 O   0  0  0  0  0  0
   -7.3883   10.8021  -12.3519 O   0  0  0  0  0  0
  -15.1420   11.5017  -14.4129 O   0  0  0  0  0  0
  -16.4568   13.7586  -20.0988 O   0  0  0  0  0  0
  -18.3464   14.9801  -18.9354 O   0  0  0  0  0  0
  -15.8826    7.1052  -24.1473 O   0  0  0  0  0  0
   -8.5471    6.3155  -10.0006 O   0  0  0  0  0  0
   -3.4401    2.6592  -19.1388 S   0  0  0  0  0  0
  -17.0938   14.2249  -18.8634 S   0  0  0  0  0  0
   -8.2087    5.3866  -12.8048 H   0  0  0  0  0  0
  -10.5821    6.2047   -9.8811 H   0  0  0  0  0  0
   -9.6063    9.6678  -12.7709 H   0  0  0  0  0  0
  -13.1037    6.6137  -23.4283 H   0  0  0  0  0  0
   -1.5248    3.4358  -20.4847 H   0  0  0  0  0  0
   -8.0137    5.3346  -16.2194 H   0  0  0  0  0  0
   -6.0962    1.5525  -18.7571 H   0  0  0  0  0  0
   -8.0523    1.1795  -17.3317 H   0  0  0  0  0  0
   -6.0510    5.6975  -17.6061 H   0  0  0  0  0  0
   -9.3749    1.8977  -15.4555 H   0  0  0  0  0  0
  -10.2575    3.2096  -16.1971 H   0  0  0  0  0  0
   -4.8168    6.6574  -21.1084 H   0  0  0  0  0  0
   -6.0376    6.2216  -19.9425 H   0  0  0  0  0  0
   -4.6058    7.0905  -19.4213 H   0  0  0  0  0  0
   -9.3437    4.1611  -11.1997 H   0  0  0  0  0  0
  -10.9295    4.7379  -11.7103 H   0  0  0  0  0  0
   -9.5909    8.3373  -11.1762 H   0  0  0  0  0  0
  -11.1134    7.6085  -11.6711 H   0  0  0  0  0  0
  -11.9547   11.6581  -14.8454 H   0  0  0  0  0  0
  -11.1018   11.5795  -13.3121 H   0  0  0  0  0  0
  -10.2259   11.9364  -14.7927 H   0  0  0  0  0  0
  -11.5258    9.9743  -16.6456 H   0  0  0  0  0  0
   -9.7860   10.0417  -16.5455 H   0  0  0  0  0  0
  -10.6246    8.5068  -16.3565 H   0  0  0  0  0  0
  -12.9536    9.4801  -14.3815 H   0  0  0  0  0  0
  -12.0078    8.0107  -14.3605 H   0  0  0  0  0  0
  -12.0469    9.0710  -12.9574 H   0  0  0  0  0  0
   -5.6993   10.7588  -14.9064 H   0  0  0  0  0  0
   -5.5682   11.9488  -13.6427 H   0  0  0  0  0  0
   -7.4661   12.1012  -16.0486 H   0  0  0  0  0  0
   -5.9646   12.9544  -15.9077 H   0  0  0  0  0  0
   -6.7863   14.3592  -14.1048 H   0  0  0  0  0  0
   -8.2431   13.4148  -13.9126 H   0  0  0  0  0  0
   -9.0082   14.0321  -16.1806 H   0  0  0  0  0  0
   -7.5359   14.8981  -16.4635 H   0  0  0  0  0  0
   -8.3304   16.7813  -15.5342 H   0  0  0  0  0  0
   -8.7127   15.9980  -14.0356 H   0  0  0  0  0  0
  -10.5504   15.8611  -16.4804 H   0  0  0  0  0  0
  -10.6468   17.1449  -15.3053 H   0  0  0  0  0  0
  -11.1602   15.5784  -13.4991 H   0  0  0  0  0  0
  -10.9279   14.2050  -14.5486 H   0  0  0  0  0  0
  -12.8802   14.8581  -15.9196 H   0  0  0  0  0  0
  -13.0995   16.3102  -14.9813 H   0  0  0  0  0  0
  -13.6283   15.0290  -12.9610 H   0  0  0  0  0  0
  -13.2262   13.5215  -13.7247 H   0  0  0  0  0  0
  -15.5176   15.3318  -14.6352 H   0  0  0  0  0  0
  -15.7235   13.9996  -13.5353 H   0  0  0  0  0  0
  -13.7136   10.1503  -16.2291 H   0  0  0  0  0  0
  -17.0371   11.0775  -19.7127 H   0  0  0  0  0  0
  -17.5708   13.1038  -16.7108 H   0  0  0  0  0  0
  -18.3330   12.2978  -18.0484 H   0  0  0  0  0  0
  -15.7406   16.2418  -18.5273 H   0  0  0  0  0  0
  -16.2405   15.5527  -16.9768 H   0  0  0  0  0  0
  -14.8927   14.8014  -17.9096 H   0  0  0  0  0  0
  -17.5673    9.2686  -20.7898 H   0  0  0  0  0  0
  -11.3817    7.0585  -21.6877 H   0  0  0  0  0  0
  -12.2402    9.7977  -19.4558 H   0  0  0  0  0  0
  -11.5051    8.2888  -19.0851 H   0  0  0  0  0  0
  -15.7137    5.2989  -15.8670 H   0  0  0  0  0  0
  -11.8118    4.5072  -17.4463 H   0  0  0  0  0  0
  -18.2331    7.1488  -23.5775 H   0  0  0  0  0  0
  -18.8480    7.7025  -22.0327 H   0  0  0  0  0  0
  -18.5259    8.8677  -23.3074 H   0  0  0  0  0  0
   -8.3901    3.4063  -13.8480 H   0  0  0  0  0  0
   -8.1857   10.0986  -15.3176 H   0  0  0  0  0  0
  -15.4014   13.9065  -16.4227 H   0  0  0  0  0  0
   -8.5048    7.1477   -9.5157 H   0  0  0  0  0  0
  1 63  2  0  0  0
  1 76  1  0  0  0
  1 82  1  0  0  0
  2  6  1  0  0  0
  2  7  2  0  0  0
  2 83  1  0  0  0
  3  4  2  0  0  0
  3  7  1  0  0  0
  3  9  1  0  0  0
  4  5  1  0  0  0
  4 84  1  0  0  0
  5  6  2  0  0  0
  5 85  1  0  0  0
  6  8  1  0  0  0
  7 86  1  0  0  0
  8 59  1  0  0  0
  8 87  1  0  0  0
  8 88  1  0  0  0
  9 14  2  0  0  0
  9 76  1  0  0  0
 10 14  1  0  0  0
 10 89  1  0  0  0
 10 90  1  0  0  0
 10 91  1  0  0  0
 11 12  1  0  0  0
 11 59  1  0  0  0
 11 68  2  0  0  0
 12 13  1  0  0  0
 12 60  1  0  0  0
 12 78  1  0  0  0
 13 15  1  0  0  0
 13 92  1  0  0  0
 13 93  1  0  0  0
 14 63  1  0  0  0
 15 16  1  0  0  0
 15 75  1  0  0  0
 15 79  1  0  0  0
 16 60  1  0  0  0
 16 94  1  0  0  0
 16 95  1  0  0  0
 17 18  1  0  0  0
 17 60  1  0  0  0
 17 69  2  0  0  0
 18 19  1  0  0  0
 18 61  1  0  0  0
 18 80  1  0  0  0
 19 20  1  0  0  0
 19 21  1  0  0  0
 19 22  1  0  0  0
 20 96  1  0  0  0
 20 97  1  0  0  0
 20 98  1  0  0  0
 21 99  1  0  0  0
 21100  1  0  0  0
 21101  1  0  0  0
 22102  1  0  0  0
 22103  1  0  0  0
 22104  1  0  0  0
 23 24  1  0  0  0
 23 61  1  0  0  0
 23 70  2  0  0  0
 24 25  1  0  0  0
 24105  1  0  0  0
 24106  1  0  0  0
 25 26  1  0  0  0
 25107  1  0  0  0
 25108  1  0  0  0
 26 27  1  0  0  0
 26109  1  0  0  0
 26110  1  0  0  0
 27 28  1  0  0  0
 27111  1  0  0  0
 27112  1  0  0  0
 28 29  1  0  0  0
 28113  1  0  0  0
 28114  1  0  0  0
 29 30  1  0  0  0
 29115  1  0  0  0
 29116  1  0  0  0
 30 31  1  0  0  0
 30117  1  0  0  0
 30118  1  0  0  0
 31 32  1  0  0  0
 31119  1  0  0  0
 31120  1  0  0  0
 32 33  1  0  0  0
 32121  1  0  0  0
 32122  1  0  0  0
 33 62  1  0  0  0
 33123  1  0  0  0
 33124  1  0  0  0
 34 35  1  0  0  0
 34 62  1  0  0  0
 34 71  2  0  0  0
 35 36  1  0  0  0
 35 40  2  0  0  0
 36 37  2  0  0  0
 36125  1  0  0  0
 37 38  1  0  0  0
 37 66  1  0  0  0
 38 39  2  0  0  0
 38 43  1  0  0  0
 39 40  1  0  0  0
 39126  1  0  0  0
 40 41  1  0  0  0
 41 77  1  0  0  0
 41127  1  0  0  0
 41128  1  0  0  0
 42 77  1  0  0  0
 42129  1  0  0  0
 42130  1  0  0  0
 42131  1  0  0  0
 43 44  2  0  0  0
 43 47  1  0  0  0
 44 64  1  0  0  0
 44132  1  0  0  0
 45 46  1  0  0  0
 45 64  1  0  0  0
 45 74  2  0  0  0
 46 47  2  0  0  0
 46 65  1  0  0  0
 47 48  1  0  0  0
 48 49  2  0  0  0
 48 50  1  0  0  0
 49 65  1  0  0  0
 49133  1  0  0  0
 50 66  1  0  0  0
 50134  1  0  0  0
 50135  1  0  0  0
 51 52  1  0  0  0
 51 66  1  0  0  0
 51 67  2  0  0  0
 52 53  2  0  0  0
 52 58  1  0  0  0
 53 54  1  0  0  0
 53136  1  0  0  0
 54 55  2  0  0  0
 54 57  1  0  0  0
 55 67  1  0  0  0
 55137  1  0  0  0
 56 64  1  0  0  0
 56138  1  0  0  0
 56139  1  0  0  0
 56140  1  0  0  0
 59141  1  0  0  0
 61142  1  0  0  0
 62143  1  0  0  0
 65 81  1  0  0  0
 72 77  2  0  0  0
 73 77  2  0  0  0
 75144  1  0  0  0
M  END
> <s_m_entry_id>
7

> <s_m_entry_name>
7khh.1_mol3

> <s_m_subgroup_title>
7KHH - minimized_split_by_molecule

> <s_m_subgroupid>
7KHH - minimized_split_by_molecule

> <b_m_subgroup_collapsed>
0

$$$$
