e3_ligand
                    3D
 Structure written by MMmdl.
 33 35  0  0  1  0            999 V2000
   -2.5007    3.7226  -20.1218 C   0  0  0  0  0  0
   -7.6093    4.5030  -16.7746 C   0  0  0  0  0  0
   -5.9248    3.6512  -18.2808 C   0  0  0  0  0  0
   -6.5133    2.3839  -18.2078 C   0  0  0  0  0  0
   -7.6296    2.1715  -17.4008 C   0  0  0  0  0  0
   -8.1710    3.2263  -16.6619 C   0  0  0  0  0  0
   -6.4920    4.7123  -17.5731 C   0  0  0  0  0  0
   -9.3230    2.9618  -15.6910 C   0  0  0  0  0  0
   -4.6846    3.8846  -19.0792 C   0  0  0  0  0  0
   -4.9605    6.3032  -20.0866 C   0  0  0  0  0  0
   -9.8267    4.8077  -14.1012 C   0  0  0  0  0  0
   -9.2826    5.5539  -12.8617 C   0  0  2  0  0  0
   -9.8936    5.0325  -11.5585 C   0  0  0  0  0  0
   -4.2480    4.9920  -19.8258 C   0  0  0  0  0  0
   -9.8036    6.2431  -10.6436 C   0  0  2  0  0  0
  -10.0428    7.4313  -11.5776 C   0  0  0  0  0  0
   -9.1686    7.8645  -13.9045 C   0  0  0  0  0  0
   -9.4682    9.3860  -13.8130 C   0  0  2  0  0  0
  -10.7770    9.8162  -14.5825 C   0  0  0  0  0  0
  -11.0284   11.3305  -14.3705 C   0  0  0  0  0  0
  -10.6680    9.5692  -16.1128 C   0  0  0  0  0  0
  -12.0126    9.0532  -14.0436 C   0  0  0  0  0  0
   -7.3752   10.7632  -13.5786 C   0  0  0  0  0  0
   -9.1748    3.6821  -14.4253 N   0  0  0  0  0  0
   -9.5022    7.0225  -12.8836 N   0  0  0  0  0  0
   -8.2882   10.1067  -14.3136 N   0  0  0  0  0  0
   -3.0537    4.8769  -20.3798 N   0  0  0  0  0  0
  -10.7908    5.2555  -14.7229 O   0  0  0  0  0  0
   -8.6276    7.4699  -14.9405 O   0  0  0  0  0  0
   -7.3883   10.8021  -12.3519 O   0  0  0  0  0  0
   -8.5471    6.3155  -10.0006 O   0  0  0  0  0  0
   -3.4401    2.6592  -19.1388 S   0  0  0  0  0  0
   -6.5721   11.2965  -14.0655 *   0  0  0  0  0  0
  1 27  2  0  0  0
  1 32  1  0  0  0
  2  6  1  0  0  0
  2  7  2  0  0  0
  3  4  2  0  0  0
  3  7  1  0  0  0
  3  9  1  0  0  0
  4  5  1  0  0  0
  5  6  2  0  0  0
  6  8  1  0  0  0
  8 24  1  0  0  0
  9 14  2  0  0  0
  9 32  1  0  0  0
 10 14  1  0  0  0
 11 12  1  0  0  0
 11 24  1  0  0  0
 11 28  2  0  0  0
 12 13  1  0  0  0
 12 25  1  0  0  0
 13 15  1  0  0  0
 14 27  1  0  0  0
 15 16  1  0  0  0
 15 31  1  0  0  0
 16 25  1  0  0  0
 17 18  1  0  0  0
 17 25  1  0  0  0
 17 29  2  0  0  0
 18 19  1  0  0  0
 18 26  1  0  0  0
 19 20  1  0  0  0
 19 21  1  0  0  0
 19 22  1  0  0  0
 23 26  1  0  0  0
 23 30  2  0  0  0
 23 33  1  0  0  0
M  ISO  1  23 101
M  END
> <s_m_entry_id>
12

> <s_m_entry_name>
7khh.1_mol3

> <s_m_subgroup_title>
7KHH - minimized_split_by_molecule

> <s_m_subgroupid>
7KHH - minimized_split_by_molecule

> <b_m_subgroup_collapsed>
0

$$$$
