ligand_isotope
                    3D
 Structure written by MMmdl.
 74 81  0  0  1  0            999 V2000
  -37.2450   21.4550   -9.0360 C   0  0  0  0  0  0
  -36.7940   20.5070   -9.9630 O   0  0  0  0  0  0
  -35.5590   20.6960  -10.5480 C   0  0  3  0  0  0
  -34.7430   21.8240  -10.2990 C   0  0  0  0  0  0
  -33.4890   21.9630  -10.9290 C   0  0  3  0  0  0
  -32.6630   23.1600  -10.6580 C   0  0  1  0  0  0
  -33.2580   24.3720  -10.6830 C   0  0  0  0  0  0
  -32.6450   25.5790  -10.3190 N   0  0  0  0  0  0
  -33.4300   26.8100  -10.4440 C   0  0  0  0  0  0
  -31.4050   25.6150   -9.7790 C   0  0  3  0  0  0
  -30.8950   26.6420   -9.3270 O   0  0  0  0  0  0
  -30.6370   24.3190   -9.7820 C   0  0  3  0  0  0
  -29.2860   24.2800   -9.3770 C   0  0  0  0  0  0
  -28.5370   23.1590   -9.3820 N   0  0  0  0  0  0
  -29.1260   22.0150   -9.7820 C   0  0  0  0  0  0
  -30.4730   21.9360  -10.1800 C   0  0  0  0  0  0
  -31.2530   23.1150  -10.1990 C   0  0  3  0  0  0
  -33.0600   20.9780  -11.8370 C   0  0  0  0  0  0
  -33.8500   19.8300  -12.0920 C   0  0  3  0  0  0
  -33.4640   18.8250  -12.9540 O   0  0  0  0  0  0
  -32.1440   18.8480  -13.4730 C   0  0  0  0  0  0
  -35.0990   19.6970  -11.4390 C   0  0  2  0  0  0
  -36.0200   18.5260  -11.7610 C   0  0  0  0  0  0
  -37.0900   18.9610  -12.6130 N   0  0  0  0  0  0
  -38.3400   18.3050  -12.4080 C   0  0  0  0  0  0
  -39.2590   18.6610  -13.5720 C   0  0  0  0  0  0
  -38.7360   17.9910  -14.7280 N   0  0  0  0  0  0
  -39.6040   18.0200  -15.8700 C   0  0  0  0  0  0
  -38.8960   17.6720  -17.1450 C   0  0  0  0  0  0
  -39.5860   16.7730  -17.9380 O   0  0  0  0  0  0
  -39.0850   16.8070  -19.2420 C   0  0  0  0  0  0
  -39.8470   15.8040  -20.1000 C   0  0  0  0  0  0
  -39.1180   15.3980  -21.2040 O   0  0  0  0  0  0
  -39.8550   15.3450  -22.3720 C   0  0  0  0  0  0
  -39.6160   14.0780  -23.1470 C   0  0  0  0  0  0
  -38.5220   14.1650  -24.0310 O   0  0  0  0  0  0
  -37.3300   13.5150  -23.7970 C   0  0  3  0  0  0
  -36.7000   13.4600  -22.5570 C   0  0  0  0  0  0
  -35.4930   12.7830  -22.4100 C   0  0  1  0  0  0
  -34.8490   12.6800  -21.0850 C   0  0  1  0  0  0
  -35.3290   12.1950  -19.8940 C   0  0  3  0  0  0
  -36.7080   11.6870  -19.6200 C   0  0  0  0  0  0
  -34.4200   12.2190  -18.8550 N   0  0  0  0  0  0
  -33.2700   12.6530  -19.2590 C   0  0  0  0  0  0
  -33.1730   13.1090  -20.9100 S   0  0  0  0  0  0
  -34.9370   12.1520  -23.5150 C   0  0  0  0  0  0
  -35.5720   12.1880  -24.7400 C   0  0  0  0  0  0
  -36.7740   12.8750  -24.9090 C   0  0  3  0  0  0
  -37.4880   12.9040  -26.2330 C   0  0  0  0  0  0
  -36.5610   12.6860  -27.3330 N   0  0  0  0  0  0
  -36.0090   13.7180  -27.9840 C   0  0  2  0  0  0
  -36.2260   14.8390  -27.8350 O   0  0  0  0  0  0
  -35.0050   13.0320  -29.1240 C   0  0  2  0  0  0
  -33.6000   13.3960  -28.3270 C   0  0  0  0  0  0
  -32.5610   13.8600  -29.5190 C   0  0  1  0  0  0
  -32.5280   12.4680  -30.3370 O   0  0  0  0  0  0
  -33.6720   14.6420  -30.4250 C   0  0  0  0  0  0
  -34.8990   14.2950  -30.1080 N   0  0  0  0  0  0
  -36.0170   14.3500  -30.8770 C   0  0  2  0  0  0
  -37.0030   13.7990  -30.6970 O   0  0  0  0  0  0
  -35.6640   15.2990  -32.1990 C   0  0  1  0  0  0
  -36.6330   14.5330  -33.2110 N   0  0  0  0  0  0
  -36.1290   14.0630  -34.3670 C   0  0  3  0  0  0
  -34.9570   14.1280  -34.7190 O   0  0  0  0  0  0
  -37.1450   13.3940  -35.3090 C   0  0  0  0  0  0
  -38.4060   13.1520  -34.7630 F   0  0  0  0  0  0
  -37.2150   13.7140  -36.7540 C   0  0  0  0  0  0
  -36.7830   12.3540  -36.3030 C   0  0  0  0  0  0
  -36.6590   16.6470  -31.8970 C   0  0  0  0  0  0
  -35.9180   17.3960  -30.7720 C   0  0  0  0  0  0
  -36.4270   17.4820  -33.1720 C   0  0  0  0  0  0
  -38.0550   16.4430  -31.6790 C   0  0  0  0  0  0
  -37.3810   18.3630  -14.9940 C   0  0  0  0  0  0
  -36.7380   19.2260  -13.9630 C   0  0  0  0  0  0
  1  2  1  0  0  0
  2  3  1  0  0  0
  3  4  1  0  0  0
  3 22  1  0  0  0
  4  5  1  0  0  0
  5  6  1  0  0  0
  5 18  1  0  0  0
  6  7  1  0  0  0
  6 17  1  0  0  0
  7  8  1  0  0  0
  8  9  1  0  0  0
  8 10  1  0  0  0
 10 11  1  0  0  0
 10 12  1  0  0  0
 12 13  1  0  0  0
 12 17  1  0  0  0
 13 14  1  0  0  0
 14 15  1  0  0  0
 15 16  1  0  0  0
 16 17  1  0  0  0
 18 19  1  0  0  0
 19 20  1  0  0  0
 19 22  1  0  0  0
 20 21  1  0  0  0
 22 23  1  0  0  0
 23 24  1  0  0  0
 24 25  1  0  0  0
 24 74  1  0  0  0
 25 26  1  0  0  0
 26 27  1  0  0  0
 27 28  1  0  0  0
 27 73  1  0  0  0
 28 29  1  0  0  0
 29 30  1  0  0  0
 30 31  1  0  0  0
 31 32  1  0  0  0
 32 33  1  0  0  0
 33 34  1  0  0  0
 34 35  1  0  0  0
 35 36  1  0  0  0
 36 37  1  0  0  0
 37 38  1  0  0  0
 37 48  1  0  0  0
 38 39  1  0  0  0
 39 40  1  0  0  0
 39 46  1  0  0  0
 40 41  1  0  0  0
 40 45  1  0  0  0
 41 42  1  0  0  0
 41 43  1  0  0  0
 43 44  1  0  0  0
 44 45  1  0  0  0
 46 47  1  0  0  0
 47 48  1  0  0  0
 48 49  1  0  0  0
 49 50  1  0  0  0
 50 51  1  0  0  0
 51 52  1  0  0  0
 51 53  1  0  0  0
 53 54  1  0  0  0
 53 58  1  0  0  0
 54 55  1  0  0  0
 55 56  1  0  0  0
 55 57  1  0  0  0
 57 58  1  0  0  0
 58 59  1  0  0  0
 59 60  1  0  0  0
 59 61  1  0  0  0
 61 62  1  0  0  0
 61 69  1  0  0  0
 62 63  1  0  0  0
 63 64  1  0  0  0
 63 65  1  0  0  0
 65 66  1  0  0  0
 65 67  1  0  0  0
 65 68  1  0  0  0
 67 68  1  0  0  0
 69 70  1  0  0  0
 69 71  1  0  0  0
 69 72  1  0  0  0
 73 74  1  0  0  0
M  END
> <s_m_entry_id>
4627

> <s_m_entry_name>
cluster_3_3.1_ligand

> <s_m_subgroup_title>
cluster_3_3_split_by_structure

> <s_m_subgroupid>
cluster_3_3_split_by_structure

> <b_m_subgroup_collapsed>
0

$$$$
