hbond-opt-ligand_fragment
                    3D
 Structure written by MMmdl.
126132  0  0  1  0            999 V2000
  -37.2450   21.4550   -9.0360 C   0  0  0  0  0  0
  -36.7940   20.5070   -9.9630 O   0  0  0  0  0  0
  -35.5590   20.6960  -10.5480 C   0  0  0  0  0  0
  -34.7430   21.8240  -10.2990 C   0  0  0  0  0  0
  -33.4890   21.9630  -10.9290 C   0  0  0  0  0  0
  -32.6630   23.1600  -10.6580 C   0  0  0  0  0  0
  -33.2580   24.3720  -10.6830 C   0  0  0  0  0  0
  -32.6450   25.5790  -10.3190 N   0  0  0  0  0  0
  -33.4300   26.8100  -10.4440 C   0  0  0  0  0  0
  -31.4050   25.6150   -9.7790 C   0  0  0  0  0  0
  -30.8950   26.6420   -9.3270 O   0  0  0  0  0  0
  -30.6370   24.3190   -9.7820 C   0  0  0  0  0  0
  -29.2860   24.2800   -9.3770 C   0  0  0  0  0  0
  -28.5370   23.1590   -9.3820 N   0  0  0  0  0  0
  -29.1260   22.0150   -9.7820 C   0  0  0  0  0  0
  -30.4730   21.9360  -10.1800 C   0  0  0  0  0  0
  -31.2530   23.1150  -10.1990 C   0  0  0  0  0  0
  -33.0600   20.9780  -11.8370 C   0  0  0  0  0  0
  -33.8500   19.8300  -12.0920 C   0  0  0  0  0  0
  -33.4640   18.8250  -12.9540 O   0  0  0  0  0  0
  -32.1440   18.8480  -13.4730 C   0  0  0  0  0  0
  -35.0990   19.6970  -11.4390 C   0  0  0  0  0  0
  -36.0200   18.5260  -11.7610 C   0  0  0  0  0  0
  -37.0900   18.9610  -12.6130 N   0  3  0  0  0  0
  -38.3400   18.3050  -12.4080 C   0  0  0  0  0  0
  -39.2590   18.6610  -13.5720 C   0  0  0  0  0  0
  -38.7360   17.9910  -14.7280 N   0  0  0  0  0  0
  -38.5220   14.1650  -24.0310 O   0  0  0  0  0  0
  -37.3300   13.5150  -23.7970 C   0  0  0  0  0  0
  -36.7000   13.4600  -22.5570 C   0  0  0  0  0  0
  -35.4930   12.7830  -22.4100 C   0  0  0  0  0  0
  -34.8490   12.6800  -21.0850 C   0  0  0  0  0  0
  -35.3290   12.1950  -19.8940 C   0  0  0  0  0  0
  -36.7080   11.6870  -19.6200 C   0  0  0  0  0  0
  -34.4200   12.2190  -18.8550 N   0  0  0  0  0  0
  -33.2700   12.6530  -19.2590 C   0  0  0  0  0  0
  -33.1730   13.1090  -20.9100 S   0  0  0  0  0  0
  -34.9370   12.1520  -23.5150 C   0  0  0  0  0  0
  -35.5720   12.1880  -24.7400 C   0  0  0  0  0  0
  -36.7740   12.8750  -24.9090 C   0  0  0  0  0  0
  -37.4880   12.9040  -26.2330 C   0  0  0  0  0  0
  -36.5610   12.6860  -27.3330 N   0  0  0  0  0  0
  -36.0090   13.7180  -27.9840 C   0  0  0  0  0  0
  -36.2260   14.8390  -27.8350 O   0  0  0  0  0  0
  -35.0050   13.0320  -29.1240 C   0  0  2  0  0  0
  -33.6000   13.3960  -28.3270 C   0  0  0  0  0  0
  -32.5610   13.8600  -29.5190 C   0  0  1  0  0  0
  -32.5280   12.4680  -30.3370 O   0  0  0  0  0  0
  -33.6720   14.6420  -30.4250 C   0  0  0  0  0  0
  -34.8990   14.2950  -30.1080 N   0  0  0  0  0  0
  -36.0170   14.3500  -30.8770 C   0  0  0  0  0  0
  -37.0030   13.7990  -30.6970 O   0  0  0  0  0  0
  -35.6640   15.2990  -32.1990 C   0  0  1  0  0  0
  -36.6330   14.5330  -33.2110 N   0  0  0  0  0  0
  -36.1290   14.0630  -34.3670 C   0  0  0  0  0  0
  -34.9570   14.1280  -34.7190 O   0  0  0  0  0  0
  -37.1450   13.3940  -35.3090 C   0  0  0  0  0  0
  -38.4060   13.1520  -34.7630 F   0  0  0  0  0  0
  -37.2150   13.7140  -36.7540 C   0  0  0  0  0  0
  -36.7830   12.3540  -36.3030 C   0  0  0  0  0  0
  -36.6590   16.6470  -31.8970 C   0  0  0  0  0  0
  -35.9180   17.3960  -30.7720 C   0  0  0  0  0  0
  -36.4270   17.4820  -33.1720 C   0  0  0  0  0  0
  -38.0550   16.4430  -31.6790 C   0  0  0  0  0  0
  -37.3810   18.3630  -14.9940 C   0  0  0  0  0  0
  -36.7380   19.2260  -13.9630 C   0  0  0  0  0  0
  -38.2290   21.1645   -8.6680 H   0  0  0  0  0  0
  -36.5465   21.5082   -8.2009 H   0  0  0  0  0  0
  -37.3110   22.4311   -9.5166 H   0  0  0  0  0  0
  -35.0778   22.5931   -9.6187 H   0  0  0  0  0  0
  -34.2858   24.4625  -11.0021 H   0  0  0  0  0  0
  -32.8262   27.6603  -10.1271 H   0  0  0  0  0  0
  -33.7309   26.9458  -11.4828 H   0  0  0  0  0  0
  -34.3177   26.7409   -9.8152 H   0  0  0  0  0  0
  -28.7973   25.1819   -9.0392 H   0  0  0  0  0  0
  -28.5589   21.0962   -9.8084 H   0  0  0  0  0  0
  -30.8969   20.9845  -10.4652 H   0  0  0  0  0  0
  -32.1168   21.0912  -12.3507 H   0  0  0  0  0  0
  -31.9975   17.9928  -14.1327 H   0  0  0  0  0  0
  -31.9896   19.7697  -14.0340 H   0  0  0  0  0  0
  -31.4292   18.7992  -12.6516 H   0  0  0  0  0  0
  -36.4331   18.1240  -10.8359 H   0  0  0  0  0  0
  -35.4508   17.7440  -12.2635 H   0  0  0  0  0  0
  -37.2779   19.8879  -12.2585 H   0  0  0  0  0  0
  -38.7840   18.6533  -11.4754 H   0  0  0  0  0  0
  -38.1844   17.2264  -12.3852 H   0  0  0  0  0  0
  -39.2354   19.7383  -13.7359 H   0  0  0  0  0  0
  -40.2646   18.2949  -13.3649 H   0  0  0  0  0  0
  -37.1477   13.9444  -21.7019 H   0  0  0  0  0  0
  -36.7795   11.3718  -18.5790 H   0  0  0  0  0  0
  -37.4320   12.4794  -19.8097 H   0  0  0  0  0  0
  -36.9194   10.8388  -20.2712 H   0  0  0  0  0  0
  -32.4417   12.7110  -18.5684 H   0  0  0  0  0  0
  -33.9984   11.6262  -23.4210 H   0  0  0  0  0  0
  -35.1387   11.6787  -25.5880 H   0  0  0  0  0  0
  -37.9801   13.8684  -26.3589 H   0  0  0  0  0  0
  -38.2567   12.1313  -26.2477 H   0  0  0  0  0  0
  -36.3356   11.7394  -27.6036 H   0  0  0  0  0  0
  -35.1914   12.0299  -29.5102 H   0  0  0  0  0  0
  -33.2163   12.4977  -27.8433 H   0  0  0  0  0  0
  -33.7742   14.2350  -27.6533 H   0  0  0  0  0  0
  -31.6267   14.3577  -29.2594 H   0  0  0  0  0  0
  -32.2733   12.6370  -31.2470 H   0  0  0  0  0  0
  -33.4957   14.4282  -31.4792 H   0  0  0  0  0  0
  -33.5542   15.7177  -30.2944 H   0  0  0  0  0  0
  -34.6221   15.4581  -32.4771 H   0  0  0  0  0  0
  -37.6104   14.3989  -32.9947 H   0  0  0  0  0  0
  -36.2337   14.1731  -36.8744 H   0  0  0  0  0  0
  -38.2723   13.5095  -36.9226 H   0  0  0  0  0  0
  -37.7426   11.8411  -36.3686 H   0  0  0  0  0  0
  -35.7036   12.5048  -36.3204 H   0  0  0  0  0  0
  -36.4791   18.2897  -30.4989 H   0  0  0  0  0  0
  -35.8250   16.7460  -29.9020 H   0  0  0  0  0  0
  -34.9251   17.6828  -31.1184 H   0  0  0  0  0  0
  -37.0150   18.3982  -33.1189 H   0  0  0  0  0  0
  -35.3697   17.7337  -33.2547 H   0  0  0  0  0  0
  -36.7320   16.9052  -34.0452 H   0  0  0  0  0  0
  -38.5398   17.4031  -31.5021 H   0  0  0  0  0  0
  -38.4952   15.9707  -32.5572 H   0  0  0  0  0  0
  -38.1975   15.7992  -30.8110 H   0  0  0  0  0  0
  -37.3274   18.8590  -15.9631 H   0  0  0  0  0  0
  -36.7818   17.4635  -15.1353 H   0  0  0  0  0  0
  -35.6549   19.1673  -14.0700 H   0  0  0  0  0  0
  -36.9454   20.2718  -14.1897 H   0  0  0  0  0  0
  -38.7629   14.0697  -24.9554 H   0  0  0  0  0  0
  -38.7660   16.9922  -14.5811 H   0  0  0  0  0  0
  1  2  1  0  0  0
  1 67  1  0  0  0
  1 68  1  0  0  0
  1 69  1  0  0  0
  2  3  1  0  0  0
  3  4  1  0  0  0
  3 22  2  0  0  0
  4  5  2  0  0  0
  4 70  1  0  0  0
  5  6  1  0  0  0
  5 18  1  0  0  0
  6  7  2  0  0  0
  6 17  1  0  0  0
  7  8  1  0  0  0
  7 71  1  0  0  0
  8  9  1  0  0  0
  8 10  1  0  0  0
  9 72  1  0  0  0
  9 73  1  0  0  0
  9 74  1  0  0  0
 10 11  2  0  0  0
 10 12  1  0  0  0
 12 13  1  0  0  0
 12 17  2  0  0  0
 13 14  2  0  0  0
 13 75  1  0  0  0
 14 15  1  0  0  0
 15 16  2  0  0  0
 15 76  1  0  0  0
 16 17  1  0  0  0
 16 77  1  0  0  0
 18 19  2  0  0  0
 18 78  1  0  0  0
 19 20  1  0  0  0
 19 22  1  0  0  0
 20 21  1  0  0  0
 21 79  1  0  0  0
 21 80  1  0  0  0
 21 81  1  0  0  0
 22 23  1  0  0  0
 23 24  1  0  0  0
 23 82  1  0  0  0
 23 83  1  0  0  0
 24 25  1  0  0  0
 24 66  1  0  0  0
 24 84  1  0  0  0
 25 26  1  0  0  0
 25 85  1  0  0  0
 25 86  1  0  0  0
 26 27  1  0  0  0
 26 87  1  0  0  0
 26 88  1  0  0  0
 27 65  1  0  0  0
 27126  1  0  0  0
 28 29  1  0  0  0
 28125  1  0  0  0
 29 30  1  0  0  0
 29 40  2  0  0  0
 30 31  2  0  0  0
 30 89  1  0  0  0
 31 32  1  0  0  0
 31 38  1  0  0  0
 32 33  2  0  0  0
 32 37  1  0  0  0
 33 34  1  0  0  0
 33 35  1  0  0  0
 34 90  1  0  0  0
 34 91  1  0  0  0
 34 92  1  0  0  0
 35 36  2  0  0  0
 36 37  1  0  0  0
 36 93  1  0  0  0
 38 39  2  0  0  0
 38 94  1  0  0  0
 39 40  1  0  0  0
 39 95  1  0  0  0
 40 41  1  0  0  0
 41 42  1  0  0  0
 41 96  1  0  0  0
 41 97  1  0  0  0
 42 43  1  0  0  0
 42 98  1  0  0  0
 43 44  2  0  0  0
 43 45  1  0  0  0
 45 46  1  0  0  0
 45 50  1  0  0  0
 45 99  1  0  0  0
 46 47  1  0  0  0
 46100  1  0  0  0
 46101  1  0  0  0
 47 48  1  0  0  0
 47 49  1  0  0  0
 47102  1  0  0  0
 48103  1  0  0  0
 49 50  1  0  0  0
 49104  1  0  0  0
 49105  1  0  0  0
 50 51  1  0  0  0
 51 52  2  0  0  0
 51 53  1  0  0  0
 53 54  1  0  0  0
 53 61  1  0  0  0
 53106  1  0  0  0
 54 55  1  0  0  0
 54107  1  0  0  0
 55 56  2  0  0  0
 55 57  1  0  0  0
 57 58  1  0  0  0
 57 59  1  0  0  0
 57 60  1  0  0  0
 59 60  1  0  0  0
 59108  1  0  0  0
 59109  1  0  0  0
 60110  1  0  0  0
 60111  1  0  0  0
 61 62  1  0  0  0
 61 63  1  0  0  0
 61 64  1  0  0  0
 62112  1  0  0  0
 62113  1  0  0  0
 62114  1  0  0  0
 63115  1  0  0  0
 63116  1  0  0  0
 63117  1  0  0  0
 64118  1  0  0  0
 64119  1  0  0  0
 64120  1  0  0  0
 65 66  1  0  0  0
 65121  1  0  0  0
 65122  1  0  0  0
 66123  1  0  0  0
 66124  1  0  0  0
M  CHG  1  24   1
M  END
> <s_m_entry_id>
160

> <s_m_entry_name>
cluster_3_3.1

> <s_pdb_PDB_format_version>
3.0

> <s_m_Source_Path>
/home/cadd/Desktop/Projects/Protac/BRD9

> <s_m_Source_File>
cluster_3_3.pdb

> <i_m_Source_File_Index>
1

> <s_ppw_entry_id_backup>
139

> <b_ppw_prepared>
1

> <s_ppw_prepared_with_version>
2017-2

> <b_ppw_assigned_bond_orders>
1

> <b_ppw_added_hydrogens>
1

> <b_ppw_treated_metals>
1

> <b_ppw_created_disulfur>
1

> <b_ppw_deleted_far_waters>
1

> <b_ppw_ran_protassign>
1

> <s_m_subgroup_title>
last

> <s_m_subgroupid>
last

> <b_m_subgroup_collapsed>
0

$$$$
