14
     RDKit          2D

 36 39  0  0  0  0  0  0  0  0999 V2000
   -4.9697   -3.0596    0.0000 C   0  0  0  0  0  0  0  0  0  0  0  0
   -6.2543   -2.2851    0.0000 C   0  0  0  0  0  0  0  0  0  0  0  0
   -6.3828   -0.7906    0.0000 C   0  0  0  0  0  0  0  0  0  0  0  0
   -5.2493    0.1918    0.0000 C   0  0  0  0  0  0  0  0  0  0  0  0
   -3.8318   -0.2987    0.0000 C   0  0  0  0  0  0  0  0  0  0  0  0
   -2.6982    0.6837    0.0000 C   0  0  0  0  0  0  0  0  0  0  0  0
   -2.9823    2.1566    0.0000 C   0  0  0  0  0  0  0  0  0  0  0  0
   -1.8487    3.1390    0.0000 C   0  0  0  0  0  0  0  0  0  0  0  0
   -0.4312    2.6485    0.0000 N   0  0  0  0  0  0  0  0  0  0  0  0
    0.7023    3.6309    0.0000 C   0  0  0  0  0  0  0  0  0  0  0  0
    0.4183    5.1038    0.0000 O   0  0  0  0  0  0  0  0  0  0  0  0
    2.1199    3.1405    0.0000 C   0  0  0  0  0  0  0  0  0  0  0  0
    3.3499    3.9990    0.0000 C   0  0  0  0  0  0  0  0  0  0  0  0
    4.5465    3.0945    0.0000 C   0  0  0  0  0  0  0  0  0  0  0  0
    5.9816    3.5309    0.0000 O   0  0  0  0  0  0  0  0  0  0  0  0
    4.0560    1.6770    0.0000 C   0  0  0  0  0  0  0  0  0  0  0  0
    2.5563    1.7054    0.0000 N   0  0  0  0  0  0  0  0  0  0  0  0
    1.6518    0.5088    0.0000 C   0  0  0  0  0  0  0  0  0  0  0  0
    0.1633    0.6938    0.0000 O   0  0  0  0  0  0  0  0  0  0  0  0
    2.2358   -0.8729    0.0000 C   0  0  0  0  0  0  0  0  0  0  0  0
    3.7244   -1.0579    0.0000 N   0  0  0  0  0  0  0  0  0  0  0  0
    4.3084   -2.4395    0.0000 C   0  0  0  0  0  0  0  0  0  0  0  0
    3.4039   -3.6361    0.0000 O   0  0  0  0  0  0  0  0  0  0  0  0
    5.7970   -2.6245    0.0000 C   0  0  0  0  0  0  0  0  0  0  0  0
    6.2377   -1.1907    0.0000 F   0  0  0  0  0  0  0  0  0  0  0  0
    7.1325   -3.3075    0.0000 C   0  0  0  0  0  0  0  0  0  0  0  0
    5.8732   -4.1226    0.0000 C   0  0  0  0  0  0  0  0  0  0  0  0
    1.3313   -2.0695    0.0000 C   0  0  0  0  0  0  0  0  0  0  0  0
    2.5279   -2.9740    0.0000 C   0  0  0  0  0  0  0  0  0  0  0  0
    0.1347   -1.1650    0.0000 C   0  0  0  0  0  0  0  0  0  0  0  0
    0.4268   -3.2661    0.0000 C   0  0  0  0  0  0  0  0  0  0  0  0
   -4.3998    2.6471    0.0000 C   0  0  0  0  0  0  0  0  0  0  0  0
   -5.5333    1.6647    0.0000 C   0  0  0  0  0  0  0  0  0  0  0  0
   -7.8439   -0.4510    0.0000 S   0  0  0  0  0  0  0  0  0  0  0  0
   -8.6184   -1.7356    0.0000 C   0  0  0  0  0  0  0  0  0  0  0  0
   -7.6360   -2.8691    0.0000 N   0  0  0  0  0  0  0  0  0  0  0  0
  1  2  1  0
  2  3  2  0
  3  4  1  0
  4  5  2  0
  5  6  1  0
  6  7  2  0
  7  8  1  0
  8  9  1  0
  9 10  1  0
 10 11  2  0
 12 10  1  6
 12 13  1  0
 13 14  1  0
 14 15  1  1
 14 16  1  0
 16 17  1  0
 17 18  1  0
 18 19  2  0
 18 20  1  0
 20 21  1  1
 21 22  1  0
 22 23  2  0
 22 24  1  0
 24 25  1  0
 24 26  1  0
 26 27  1  0
 20 28  1  0
 28 29  1  0
 28 30  1  0
 28 31  1  0
  7 32  1  0
 32 33  2  0
  3 34  1  0
 34 35  1  0
 35 36  2  0
 36  2  1  0
 33  4  1  0
 17 12  1  0
 27 24  1  0
M  END
> <Name>
VH101

> <Uniprot>
P40337

> <Target>
VHL

> <Smiles>
CC1=C(C2=CC=C(CNC(=O)[C@@H]3C[C@@H](O)CN3C(=O)[C@@H](NC(=O)C3(F)CC3)C(C)(C)C)C=C2)SC=N1

> <Kd (nM)>
44/90

> <Assay (Kd)>
ITC/FP

> <Ki (nM)>


> <Assay (Ki)>


> <IC50 (nM)>


> <Assay (IC50)>


> <EC50 (nM)>


> <Assay (EC50)>


> <Article DOI>
10.1021/acs.jmedchem.7b00675

> <Molecular Weight>
516.639

> <Exact Mass>
516.220654756

> <XLogP3>
3.03

> <Heavy Atom Count>
36

> <Ring Count>
4

> <Hydrogen Bond Acceptor Count>
6

> <Hydrogen Bond Donor Count>
3

> <Rotatable Bond Count>
7

> <Topological Polar Surface Area>
111.63

> <Molecular Formula>
C26H33FN4O4S

> <InChI>
InChI=1S/C26H33FN4O4S/c1-15-20(36-14-29-15)17-7-5-16(6-8-17)12-28-22(33)19-11-18(32)13-31(19)23(34)21(25(2,3)4)30-24(35)26(27)9-10-26/h5-8,14,18-19,21,32H,9-13H2,1-4H3,(H,28,33)(H,30,35)/t18-,19+,21-/m1/s1

> <InChI Key>
GFNCBUDQFXZVNN-SVFBPWRDSA-N

> <BindingDB>
50459943

> <PubChem>
129900323

> <ChEMBL>
CHEMBL4225470

$$$$
