origin_linker
                    3D
 Structure written by MMmdl.
 35 35  0  0  1  0            999 V2000
  -37.0900   18.9610  -12.6130 N   0  3  0  0  0  0
  -38.3400   18.3050  -12.4080 C   0  0  0  0  0  0
  -39.2590   18.6610  -13.5720 C   0  0  0  0  0  0
  -38.7360   17.9910  -14.7280 N   0  0  0  0  0  0
  -39.6040   18.0200  -15.8700 C   0  0  0  0  0  0
  -38.8960   17.6720  -17.1450 C   0  0  0  0  0  0
  -39.5860   16.7730  -17.9380 O   0  0  0  0  0  0
  -39.0850   16.8070  -19.2420 C   0  0  0  0  0  0
  -39.8470   15.8040  -20.1000 C   0  0  0  0  0  0
  -39.1180   15.3980  -21.2040 O   0  0  0  0  0  0
  -39.8550   15.3450  -22.3720 C   0  0  0  0  0  0
  -39.6160   14.0780  -23.1470 C   0  0  0  0  0  0
  -37.3810   18.3630  -14.9940 C   0  0  0  0  0  0
  -36.7380   19.2260  -13.9630 C   0  0  0  0  0  0
  -37.2779   19.8879  -12.2585 H   0  0  0  0  0  0
  -38.7840   18.6533  -11.4754 H   0  0  0  0  0  0
  -38.1844   17.2264  -12.3852 H   0  0  0  0  0  0
  -39.2354   19.7383  -13.7359 H   0  0  0  0  0  0
  -40.2646   18.2949  -13.3649 H   0  0  0  0  0  0
  -40.0490   19.0108  -15.9616 H   0  0  0  0  0  0
  -40.4309   17.3272  -15.7141 H   0  0  0  0  0  0
  -37.9109   17.2673  -16.9127 H   0  0  0  0  0  0
  -38.7052   18.5827  -17.7128 H   0  0  0  0  0  0
  -38.0268   16.5457  -19.2313 H   0  0  0  0  0  0
  -39.2126   17.8080  -19.6540 H   0  0  0  0  0  0
  -40.7862   16.2485  -20.4293 H   0  0  0  0  0  0
  -40.1060   14.9339  -19.4967 H   0  0  0  0  0  0
  -39.6072   16.2036  -22.9960 H   0  0  0  0  0  0
  -40.9156   15.4304  -22.1354 H   0  0  0  0  0  0
  -40.5149   13.8217  -23.7077 H   0  0  0  0  0  0
  -39.4552   13.2536  -22.4522 H   0  0  0  0  0  0
  -37.3274   18.8590  -15.9631 H   0  0  0  0  0  0
  -36.7818   17.4635  -15.1353 H   0  0  0  0  0  0
  -35.6549   19.1673  -14.0700 H   0  0  0  0  0  0
  -36.9454   20.2718  -14.1897 H   0  0  0  0  0  0
  1  2  1  0  0  0
  1 14  1  0  0  0
  1 15  1  0  0  0
  2  3  1  0  0  0
  2 16  1  0  0  0
  2 17  1  0  0  0
  3  4  1  0  0  0
  3 18  1  0  0  0
  3 19  1  0  0  0
  4  5  1  0  0  0
  4 13  1  0  0  0
  5  6  1  0  0  0
  5 20  1  0  0  0
  5 21  1  0  0  0
  6  7  1  0  0  0
  6 22  1  0  0  0
  6 23  1  0  0  0
  7  8  1  0  0  0
  8  9  1  0  0  0
  8 24  1  0  0  0
  8 25  1  0  0  0
  9 10  1  0  0  0
  9 26  1  0  0  0
  9 27  1  0  0  0
 10 11  1  0  0  0
 11 12  1  0  0  0
 11 28  1  0  0  0
 11 29  1  0  0  0
 12 30  1  0  0  0
 12 31  1  0  0  0
 13 14  1  0  0  0
 13 32  1  0  0  0
 13 33  1  0  0  0
 14 34  1  0  0  0
 14 35  1  0  0  0
M  CHG  1   1   1
M  END
> <s_m_entry_id>
174

> <s_m_entry_name>
cluster_3_3.1

> <s_pdb_PDB_format_version>
3.0

> <s_m_Source_Path>
/home/cadd/Desktop/Projects/Protac/BRD9

> <s_m_Source_File>
cluster_3_3.pdb

> <i_m_Source_File_Index>
1

> <s_ppw_entry_id_backup>
139

> <b_ppw_prepared>
1

> <s_ppw_prepared_with_version>
2017-2

> <b_ppw_assigned_bond_orders>
1

> <b_ppw_added_hydrogens>
1

> <b_ppw_treated_metals>
1

> <b_ppw_created_disulfur>
1

> <b_ppw_deleted_far_waters>
1

> <b_ppw_ran_protassign>
1

> <s_m_subgroup_title>
last

> <s_m_subgroupid>
last

> <b_m_subgroup_collapsed>
0

$$$$
