11
     RDKit          2D

 74 81  0  0  0  0  0  0  0  0999 V2000
   -8.8330    0.3752    0.0000 C   0  0  0  0  0  0  0  0  0  0  0  0
   -9.7548    1.5586    0.0000 O   0  0  0  0  0  0  0  0  0  0  0  0
  -11.2405    1.3520    0.0000 C   0  0  0  0  0  0  0  0  0  0  0  0
  -11.8045   -0.0379    0.0000 C   0  0  0  0  0  0  0  0  0  0  0  0
  -13.2902   -0.2445    0.0000 C   0  0  0  0  0  0  0  0  0  0  0  0
  -13.8542   -1.6344    0.0000 C   0  0  0  0  0  0  0  0  0  0  0  0
  -15.3399   -1.8409    0.0000 C   0  0  0  0  0  0  0  0  0  0  0  0
  -15.9038   -3.2309    0.0000 N   0  0  0  0  0  0  0  0  0  0  0  0
  -17.3896   -3.4374    0.0000 C   0  0  0  0  0  0  0  0  0  0  0  0
  -14.9821   -4.4143    0.0000 C   0  0  0  0  0  0  0  0  0  0  0  0
  -15.5461   -5.8042    0.0000 O   0  0  0  0  0  0  0  0  0  0  0  0
  -13.4964   -4.2077    0.0000 C   0  0  0  0  0  0  0  0  0  0  0  0
  -12.5747   -5.3911    0.0000 C   0  0  0  0  0  0  0  0  0  0  0  0
  -11.0890   -5.1846    0.0000 N   0  0  0  0  0  0  0  0  0  0  0  0
  -10.5250   -3.7946    0.0000 C   0  0  0  0  0  0  0  0  0  0  0  0
  -11.4467   -2.6112    0.0000 C   0  0  0  0  0  0  0  0  0  0  0  0
  -12.9324   -2.8178    0.0000 C   0  0  0  0  0  0  0  0  0  0  0  0
  -14.2119    0.9389    0.0000 C   0  0  0  0  0  0  0  0  0  0  0  0
  -13.6479    2.3289    0.0000 C   0  0  0  0  0  0  0  0  0  0  0  0
  -14.5697    3.5123    0.0000 O   0  0  0  0  0  0  0  0  0  0  0  0
  -14.0057    4.9022    0.0000 C   0  0  0  0  0  0  0  0  0  0  0  0
  -12.1622    2.5354    0.0000 C   0  0  0  0  0  0  0  0  0  0  0  0
  -11.5982    3.9254    0.0000 C   0  0  0  0  0  0  0  0  0  0  0  0
  -10.1125    4.1319    0.0000 N   0  0  0  0  0  0  0  0  0  0  0  0
   -9.1908    2.9485    0.0000 C   0  0  0  0  0  0  0  0  0  0  0  0
   -7.7051    3.1551    0.0000 C   0  0  0  0  0  0  0  0  0  0  0  0
   -7.1411    4.5450    0.0000 N   0  0  0  0  0  0  0  0  0  0  0  0
   -5.6554    4.7516    0.0000 C   0  0  0  0  0  0  0  0  0  0  0  0
   -4.7337    3.5682    0.0000 C   0  0  0  0  0  0  0  0  0  0  0  0
   -3.2480    3.7747    0.0000 O   0  0  0  0  0  0  0  0  0  0  0  0
   -2.3262    2.5913    0.0000 C   0  0  0  0  0  0  0  0  0  0  0  0
   -0.8405    2.7979    0.0000 C   0  0  0  0  0  0  0  0  0  0  0  0
    0.0812    1.6145    0.0000 O   0  0  0  0  0  0  0  0  0  0  0  0
    1.5669    1.8210    0.0000 C   0  0  0  0  0  0  0  0  0  0  0  0
    2.4887    0.6377    0.0000 C   0  0  0  0  0  0  0  0  0  0  0  0
    3.9744    0.8442    0.0000 O   0  0  0  0  0  0  0  0  0  0  0  0
    4.8961   -0.3392    0.0000 C   0  0  0  0  0  0  0  0  0  0  0  0
    4.3321   -1.7291    0.0000 C   0  0  0  0  0  0  0  0  0  0  0  0
    5.2539   -2.9125    0.0000 C   0  0  0  0  0  0  0  0  0  0  0  0
    4.6899   -4.3024    0.0000 C   0  0  0  0  0  0  0  0  0  0  0  0
    5.4829   -5.5757    0.0000 C   0  0  0  0  0  0  0  0  0  0  0  0
    6.9791   -5.6826    0.0000 C   0  0  0  0  0  0  0  0  0  0  0  0
    4.5170   -6.7233    0.0000 N   0  0  0  0  0  0  0  0  0  0  0  0
    3.1270   -6.1594    0.0000 C   0  0  0  0  0  0  0  0  0  0  0  0
    3.2339   -4.6632    0.0000 S   0  0  0  0  0  0  0  0  0  0  0  0
    6.7396   -2.7060    0.0000 C   0  0  0  0  0  0  0  0  0  0  0  0
    7.3036   -1.3160    0.0000 C   0  0  0  0  0  0  0  0  0  0  0  0
    6.3818   -0.1326    0.0000 C   0  0  0  0  0  0  0  0  0  0  0  0
    6.9458    1.2573    0.0000 C   0  0  0  0  0  0  0  0  0  0  0  0
    8.4315    1.4639    0.0000 N   0  0  0  0  0  0  0  0  0  0  0  0
    8.9955    2.8538    0.0000 C   0  0  0  0  0  0  0  0  0  0  0  0
    8.0738    4.0372    0.0000 O   0  0  0  0  0  0  0  0  0  0  0  0
   10.4812    3.0603    0.0000 C   0  0  0  0  0  0  0  0  0  0  0  0
   11.1874    4.3837    0.0000 C   0  0  0  0  0  0  0  0  0  0  0  0
   12.6642    4.1211    0.0000 C   0  0  0  0  0  0  0  0  0  0  0  0
   13.7448    5.1614    0.0000 O   0  0  0  0  0  0  0  0  0  0  0  0
   12.8707    2.6353    0.0000 C   0  0  0  0  0  0  0  0  0  0  0  0
   11.5216    1.9798    0.0000 N   0  0  0  0  0  0  0  0  0  0  0  0
   11.2589    0.5030    0.0000 C   0  0  0  0  0  0  0  0  0  0  0  0
    9.8486   -0.0080    0.0000 O   0  0  0  0  0  0  0  0  0  0  0  0
   12.4065   -0.4629    0.0000 C   0  0  0  0  0  0  0  0  0  0  0  0
   13.8168    0.0480    0.0000 N   0  0  0  0  0  0  0  0  0  0  0  0
   14.9645   -0.9179    0.0000 C   0  0  0  0  0  0  0  0  0  0  0  0
   14.7018   -2.3947    0.0000 O   0  0  0  0  0  0  0  0  0  0  0  0
   16.3748   -0.4069    0.0000 C   0  0  0  0  0  0  0  0  0  0  0  0
   16.1165    1.0707    0.0000 F   0  0  0  0  0  0  0  0  0  0  0  0
   17.8748   -0.4092    0.0000 C   0  0  0  0  0  0  0  0  0  0  0  0
   17.1228   -1.7071    0.0000 C   0  0  0  0  0  0  0  0  0  0  0  0
   12.1439   -1.9397    0.0000 C   0  0  0  0  0  0  0  0  0  0  0  0
   13.6207   -2.2024    0.0000 C   0  0  0  0  0  0  0  0  0  0  0  0
   10.6670   -1.6771    0.0000 C   0  0  0  0  0  0  0  0  0  0  0  0
   11.8812   -3.4166    0.0000 C   0  0  0  0  0  0  0  0  0  0  0  0
   -8.0628    5.7284    0.0000 C   0  0  0  0  0  0  0  0  0  0  0  0
   -9.5486    5.5218    0.0000 C   0  0  0  0  0  0  0  0  0  0  0  0
  1  2  1  0
  2  3  1  0
  3  4  2  0
  4  5  1  0
  5  6  1  0
  6  7  2  0
  7  8  1  0
  8  9  1  0
  8 10  1  0
 10 11  2  0
 10 12  1  0
 12 13  2  0
 13 14  1  0
 14 15  2  0
 15 16  1  0
 16 17  2  0
  5 18  2  0
 18 19  1  0
 19 20  1  0
 20 21  1  0
 19 22  2  0
 22 23  1  0
 23 24  1  0
 24 25  1  0
 25 26  1  0
 26 27  1  0
 27 28  1  0
 28 29  1  0
 29 30  1  0
 30 31  1  0
 31 32  1  0
 32 33  1  0
 33 34  1  0
 34 35  1  0
 35 36  1  0
 36 37  1  0
 37 38  2  0
 38 39  1  0
 39 40  1  0
 40 41  2  0
 41 42  1  0
 41 43  1  0
 43 44  2  0
 44 45  1  0
 39 46  2  0
 46 47  1  0
 47 48  2  0
 48 49  1  0
 49 50  1  0
 50 51  1  0
 51 52  2  0
 53 51  1  6
 53 54  1  0
 54 55  1  0
 55 56  1  1
 55 57  1  0
 57 58  1  0
 58 59  1  0
 59 60  2  0
 59 61  1  0
 61 62  1  1
 62 63  1  0
 63 64  2  0
 63 65  1  0
 65 66  1  0
 65 67  1  0
 67 68  1  0
 61 69  1  0
 69 70  1  0
 69 71  1  0
 69 72  1  0
 27 73  1  0
 73 74  1  0
 22  3  1  0
 74 24  1  0
 17  6  1  0
 48 37  1  0
 58 53  1  0
 68 65  1  0
 17 12  1  0
 45 40  1  0
M  END
> <Name>


> <Uniprot>
Q9NPI1

> <Target>
BRD7

> <PDB>


> <Smiles>
COC1=CC(C2=CN(C)C(=O)C3=CN=CC=C23)=CC(OC)=C1CN1CCN(CCOCCOCCOC2=CC(C3=C(C)N=CS3)=CC=C2CNC(=O)[C@@H]2C[C@@H](O)CN2C(=O)[C@@H](NC(=O)C2(F)CC2)C(C)(C)C)CC1

> <DC50 (nM)>


> <Dmax (%)>


> <Assay (DC50/Dmax)>


> <Percent_degradation (%)>


> <Assay (Percent degradation)>


> <IC50 (nM, Protac to Target)>


> <Assay (Protac to Target, IC50)>


> <EC50 (nM, Protac to Target)>


> <Assay (Protac to Target, EC50)>


> <Kd (nM, Protac to Target)>


> <Assay (Protac to Target, Kd)>


> <Ki (nM, Protac to Target)>


> <Assay (Protac to Target, Ki)>


> <delta G (kcal/mol, Protac to Target)>


> <delta H (kcal/mol, Protac to Target)>


> <-T*delta S (kcal/mol, Protac to Target)>


> <Assay (Protac to Target, G/H/-TS)>


> <kon (1/Ms, Protac to Target)>


> <koff (1/s, Protac to Target)>


> <t1/2 (s, Protac to Target)>


> <Assay (Protac to Target, kon/koff/t1/2)>


> <IC50 (nM, Protac to E3)>


> <Assay (Protac to E3, IC50)>


> <EC50 (nM, Protac to E3)>


> <Assay (Protac to E3, EC50)>


> <Kd (nM, Protac to E3)>


> <Assay (Protac to E3, Kd)>


> <Ki (nM, Protac to E3)>


> <Assay (Protac to E3, Ki)>


> <delta G (kcal/mol, Protac to E3)>


> <delta H (kcal/mol, Protac to E3)>


> <-T*delta S (kcal/mol, Protac to E3)>


> <Assay (Protac to E3, G/H/-TS)>


> <kon (1/Ms, Protac to E3)>


> <koff (1/s, Protac to E3)>


> <t1/2 (s, Protac to E3)>


> <Assay (Protac to E3, kon/koff/t1/2)>


> <IC50 (nM, Ternary complex)>


> <Assay (Ternary complex, IC50)>


> <EC50 (nM, Ternary complex)>


> <Assay (Ternary complex, EC50)>


> <Kd (nM, Ternary complex)>


> <Assay (Ternary complex, Kd)>


> <Ki (nM, Ternary complex)>


> <Assay (Ternary complex, Ki)>


> <delta G (kcal/mol, Ternary complex)>


> <delta H (kcal/mol, Ternary complex)>


> <-T*delta S (kcal/mol, Ternary complex)>


> <Assay (Ternary complex, G/H/-TS)>


> <kon (1/Ms, Ternary complex)>


> <koff (1/s, Ternary complex)>


> <t1/2 (s, Ternary complex)>


> <Assay (Ternary complex, kon/koff/t1/2)>


> <IC50 (nM, Cellular activities)>


> <Assay (Cellular activities, IC50)>


> <GI50 (nM, Cellular activities)>


> <Assay (Cellular activities, GI50)>


> <EC50 (nM, Cellular activities)>


> <Assay (Cellular activities, EC50)>


> <ED50 (nM, Cellular activities)>


> <Assay (Cellular activities, ED50)>


> <GR50 (nM, Cellular activities)>


> <Assay (Cellular activities, GR50)>


> <Article DOI>
10.1021/acs.jmedchem.8b01413

> <Molecular Weight>
1041.257

> <Exact Mass>
1040.48413963

> <XLogP3>
3.69

> <Heavy Atom Count>
74

> <Ring Count>
8

> <Hydrogen Bond Acceptor Count>
16

> <Hydrogen Bond Donor Count>
3

> <Rotatable Bond Count>
22

> <Topological Polar Surface Area>
199.15

> <Molecular Formula>
C54H69FN8O10S

> <InChI>
InChI=1S/C54H69FN8O10S/c1-34-47(74-33-58-34)35-8-9-36(28-57-49(65)43-27-38(64)30-63(43)51(67)48(53(2,3)4)59-52(68)54(55)11-12-54)44(24-35)73-23-22-72-21-20-71-19-18-61-14-16-62(17-15-61)32-42-45(69-6)25-37(26-46(42)70-7)41-31-60(5)50(66)40-29-56-13-10-39(40)41/h8-10,13,24-26,29,31,33,38,43,48,64H,11-12,14-23,27-28,30,32H2,1-7H3,(H,57,65)(H,59,68)/t38-,43+,48-/m1/s1

> <InChI Key>
MXAKQOVZPDLCDK-UDVNCTHFSA-N

$$$$
11
     RDKit          2D

 74 81  0  0  0  0  0  0  0  0999 V2000
   -8.8330    0.3752    0.0000 C   0  0  0  0  0  0  0  0  0  0  0  0
   -9.7548    1.5586    0.0000 O   0  0  0  0  0  0  0  0  0  0  0  0
  -11.2405    1.3520    0.0000 C   0  0  0  0  0  0  0  0  0  0  0  0
  -11.8045   -0.0379    0.0000 C   0  0  0  0  0  0  0  0  0  0  0  0
  -13.2902   -0.2445    0.0000 C   0  0  0  0  0  0  0  0  0  0  0  0
  -13.8542   -1.6344    0.0000 C   0  0  0  0  0  0  0  0  0  0  0  0
  -15.3399   -1.8409    0.0000 C   0  0  0  0  0  0  0  0  0  0  0  0
  -15.9038   -3.2309    0.0000 N   0  0  0  0  0  0  0  0  0  0  0  0
  -17.3896   -3.4374    0.0000 C   0  0  0  0  0  0  0  0  0  0  0  0
  -14.9821   -4.4143    0.0000 C   0  0  0  0  0  0  0  0  0  0  0  0
  -15.5461   -5.8042    0.0000 O   0  0  0  0  0  0  0  0  0  0  0  0
  -13.4964   -4.2077    0.0000 C   0  0  0  0  0  0  0  0  0  0  0  0
  -12.5747   -5.3911    0.0000 C   0  0  0  0  0  0  0  0  0  0  0  0
  -11.0890   -5.1846    0.0000 N   0  0  0  0  0  0  0  0  0  0  0  0
  -10.5250   -3.7946    0.0000 C   0  0  0  0  0  0  0  0  0  0  0  0
  -11.4467   -2.6112    0.0000 C   0  0  0  0  0  0  0  0  0  0  0  0
  -12.9324   -2.8178    0.0000 C   0  0  0  0  0  0  0  0  0  0  0  0
  -14.2119    0.9389    0.0000 C   0  0  0  0  0  0  0  0  0  0  0  0
  -13.6479    2.3289    0.0000 C   0  0  0  0  0  0  0  0  0  0  0  0
  -14.5697    3.5123    0.0000 O   0  0  0  0  0  0  0  0  0  0  0  0
  -14.0057    4.9022    0.0000 C   0  0  0  0  0  0  0  0  0  0  0  0
  -12.1622    2.5354    0.0000 C   0  0  0  0  0  0  0  0  0  0  0  0
  -11.5982    3.9254    0.0000 C   0  0  0  0  0  0  0  0  0  0  0  0
  -10.1125    4.1319    0.0000 N   0  0  0  0  0  0  0  0  0  0  0  0
   -9.1908    2.9485    0.0000 C   0  0  0  0  0  0  0  0  0  0  0  0
   -7.7051    3.1551    0.0000 C   0  0  0  0  0  0  0  0  0  0  0  0
   -7.1411    4.5450    0.0000 N   0  0  0  0  0  0  0  0  0  0  0  0
   -5.6554    4.7516    0.0000 C   0  0  0  0  0  0  0  0  0  0  0  0
   -4.7337    3.5682    0.0000 C   0  0  0  0  0  0  0  0  0  0  0  0
   -3.2480    3.7747    0.0000 O   0  0  0  0  0  0  0  0  0  0  0  0
   -2.3262    2.5913    0.0000 C   0  0  0  0  0  0  0  0  0  0  0  0
   -0.8405    2.7979    0.0000 C   0  0  0  0  0  0  0  0  0  0  0  0
    0.0812    1.6145    0.0000 O   0  0  0  0  0  0  0  0  0  0  0  0
    1.5669    1.8210    0.0000 C   0  0  0  0  0  0  0  0  0  0  0  0
    2.4887    0.6377    0.0000 C   0  0  0  0  0  0  0  0  0  0  0  0
    3.9744    0.8442    0.0000 O   0  0  0  0  0  0  0  0  0  0  0  0
    4.8961   -0.3392    0.0000 C   0  0  0  0  0  0  0  0  0  0  0  0
    4.3321   -1.7291    0.0000 C   0  0  0  0  0  0  0  0  0  0  0  0
    5.2539   -2.9125    0.0000 C   0  0  0  0  0  0  0  0  0  0  0  0
    4.6899   -4.3024    0.0000 C   0  0  0  0  0  0  0  0  0  0  0  0
    5.4829   -5.5757    0.0000 C   0  0  0  0  0  0  0  0  0  0  0  0
    6.9791   -5.6826    0.0000 C   0  0  0  0  0  0  0  0  0  0  0  0
    4.5170   -6.7233    0.0000 N   0  0  0  0  0  0  0  0  0  0  0  0
    3.1270   -6.1594    0.0000 C   0  0  0  0  0  0  0  0  0  0  0  0
    3.2339   -4.6632    0.0000 S   0  0  0  0  0  0  0  0  0  0  0  0
    6.7396   -2.7060    0.0000 C   0  0  0  0  0  0  0  0  0  0  0  0
    7.3036   -1.3160    0.0000 C   0  0  0  0  0  0  0  0  0  0  0  0
    6.3818   -0.1326    0.0000 C   0  0  0  0  0  0  0  0  0  0  0  0
    6.9458    1.2573    0.0000 C   0  0  0  0  0  0  0  0  0  0  0  0
    8.4315    1.4639    0.0000 N   0  0  0  0  0  0  0  0  0  0  0  0
    8.9955    2.8538    0.0000 C   0  0  0  0  0  0  0  0  0  0  0  0
    8.0738    4.0372    0.0000 O   0  0  0  0  0  0  0  0  0  0  0  0
   10.4812    3.0603    0.0000 C   0  0  0  0  0  0  0  0  0  0  0  0
   11.1874    4.3837    0.0000 C   0  0  0  0  0  0  0  0  0  0  0  0
   12.6642    4.1211    0.0000 C   0  0  0  0  0  0  0  0  0  0  0  0
   13.7448    5.1614    0.0000 O   0  0  0  0  0  0  0  0  0  0  0  0
   12.8707    2.6353    0.0000 C   0  0  0  0  0  0  0  0  0  0  0  0
   11.5216    1.9798    0.0000 N   0  0  0  0  0  0  0  0  0  0  0  0
   11.2589    0.5030    0.0000 C   0  0  0  0  0  0  0  0  0  0  0  0
    9.8486   -0.0080    0.0000 O   0  0  0  0  0  0  0  0  0  0  0  0
   12.4065   -0.4629    0.0000 C   0  0  0  0  0  0  0  0  0  0  0  0
   13.8168    0.0480    0.0000 N   0  0  0  0  0  0  0  0  0  0  0  0
   14.9645   -0.9179    0.0000 C   0  0  0  0  0  0  0  0  0  0  0  0
   14.7018   -2.3947    0.0000 O   0  0  0  0  0  0  0  0  0  0  0  0
   16.3748   -0.4069    0.0000 C   0  0  0  0  0  0  0  0  0  0  0  0
   16.1165    1.0707    0.0000 F   0  0  0  0  0  0  0  0  0  0  0  0
   17.8748   -0.4092    0.0000 C   0  0  0  0  0  0  0  0  0  0  0  0
   17.1228   -1.7071    0.0000 C   0  0  0  0  0  0  0  0  0  0  0  0
   12.1439   -1.9397    0.0000 C   0  0  0  0  0  0  0  0  0  0  0  0
   13.6207   -2.2024    0.0000 C   0  0  0  0  0  0  0  0  0  0  0  0
   10.6670   -1.6771    0.0000 C   0  0  0  0  0  0  0  0  0  0  0  0
   11.8812   -3.4166    0.0000 C   0  0  0  0  0  0  0  0  0  0  0  0
   -8.0628    5.7284    0.0000 C   0  0  0  0  0  0  0  0  0  0  0  0
   -9.5486    5.5218    0.0000 C   0  0  0  0  0  0  0  0  0  0  0  0
  1  2  1  0
  2  3  1  0
  3  4  2  0
  4  5  1  0
  5  6  1  0
  6  7  2  0
  7  8  1  0
  8  9  1  0
  8 10  1  0
 10 11  2  0
 10 12  1  0
 12 13  2  0
 13 14  1  0
 14 15  2  0
 15 16  1  0
 16 17  2  0
  5 18  2  0
 18 19  1  0
 19 20  1  0
 20 21  1  0
 19 22  2  0
 22 23  1  0
 23 24  1  0
 24 25  1  0
 25 26  1  0
 26 27  1  0
 27 28  1  0
 28 29  1  0
 29 30  1  0
 30 31  1  0
 31 32  1  0
 32 33  1  0
 33 34  1  0
 34 35  1  0
 35 36  1  0
 36 37  1  0
 37 38  2  0
 38 39  1  0
 39 40  1  0
 40 41  2  0
 41 42  1  0
 41 43  1  0
 43 44  2  0
 44 45  1  0
 39 46  2  0
 46 47  1  0
 47 48  2  0
 48 49  1  0
 49 50  1  0
 50 51  1  0
 51 52  2  0
 53 51  1  6
 53 54  1  0
 54 55  1  0
 55 56  1  1
 55 57  1  0
 57 58  1  0
 58 59  1  0
 59 60  2  0
 59 61  1  0
 61 62  1  1
 62 63  1  0
 63 64  2  0
 63 65  1  0
 65 66  1  0
 65 67  1  0
 67 68  1  0
 61 69  1  0
 69 70  1  0
 69 71  1  0
 69 72  1  0
 27 73  1  0
 73 74  1  0
 22  3  1  0
 74 24  1  0
 17  6  1  0
 48 37  1  0
 58 53  1  0
 68 65  1  0
 17 12  1  0
 45 40  1  0
M  END
> <Name>


> <Uniprot>
Q9H8M2

> <Target>
BRD9

> <PDB>


> <Smiles>
COC1=CC(C2=CN(C)C(=O)C3=CN=CC=C23)=CC(OC)=C1CN1CCN(CCOCCOCCOC2=CC(C3=C(C)N=CS3)=CC=C2CNC(=O)[C@@H]2C[C@@H](O)CN2C(=O)[C@@H](NC(=O)C2(F)CC2)C(C)(C)C)CC1

> <DC50 (nM)>
560

> <Dmax (%)>
80

> <Assay (DC50/Dmax)>
Degradation of BRD9 in HeLa cells after 4 h treatment

> <Percent_degradation (%)>


> <Assay (Percent degradation)>


> <IC50 (nM, Protac to Target)>


> <Assay (Protac to Target, IC50)>


> <EC50 (nM, Protac to Target)>


> <Assay (Protac to Target, EC50)>


> <Kd (nM, Protac to Target)>
8.8

> <Assay (Protac to Target, Kd)>
ITC

> <Ki (nM, Protac to Target)>


> <Assay (Protac to Target, Ki)>


> <delta G (kcal/mol, Protac to Target)>
-11

> <delta H (kcal/mol, Protac to Target)>
-11.4

> <-T*delta S (kcal/mol, Protac to Target)>
0.44

> <Assay (Protac to Target, G/H/-TS)>
ITC

> <kon (1/Ms, Protac to Target)>


> <koff (1/s, Protac to Target)>


> <t1/2 (s, Protac to Target)>


> <Assay (Protac to Target, kon/koff/t1/2)>


> <IC50 (nM, Protac to E3)>


> <Assay (Protac to E3, IC50)>


> <EC50 (nM, Protac to E3)>


> <Assay (Protac to E3, EC50)>


> <Kd (nM, Protac to E3)>
87/70

> <Assay (Protac to E3, Kd)>
ITC/FP

> <Ki (nM, Protac to E3)>


> <Assay (Protac to E3, Ki)>


> <delta G (kcal/mol, Protac to E3)>
-9.64

> <delta H (kcal/mol, Protac to E3)>
-6.56

> <-T*delta S (kcal/mol, Protac to E3)>
-3.1

> <Assay (Protac to E3, G/H/-TS)>
ITC

> <kon (1/Ms, Protac to E3)>


> <koff (1/s, Protac to E3)>


> <t1/2 (s, Protac to E3)>


> <Assay (Protac to E3, kon/koff/t1/2)>


> <IC50 (nM, Ternary complex)>


> <Assay (Ternary complex, IC50)>


> <EC50 (nM, Ternary complex)>


> <Assay (Ternary complex, EC50)>


> <Kd (nM, Ternary complex)>
83/60

> <Assay (Ternary complex, Kd)>
ITC/FP

> <Ki (nM, Ternary complex)>


> <Assay (Ternary complex, Ki)>


> <delta G (kcal/mol, Ternary complex)>
-9.7

> <delta H (kcal/mol, Ternary complex)>
-6.4

> <-T*delta S (kcal/mol, Ternary complex)>
-3.3

> <Assay (Ternary complex, G/H/-TS)>
ITC between VHL and BRD9-BD:PROTAC

> <kon (1/Ms, Ternary complex)>


> <koff (1/s, Ternary complex)>


> <t1/2 (s, Ternary complex)>


> <Assay (Ternary complex, kon/koff/t1/2)>


> <IC50 (nM, Cellular activities)>


> <Assay (Cellular activities, IC50)>


> <GI50 (nM, Cellular activities)>


> <Assay (Cellular activities, GI50)>


> <EC50 (nM, Cellular activities)>


> <Assay (Cellular activities, EC50)>


> <ED50 (nM, Cellular activities)>


> <Assay (Cellular activities, ED50)>


> <GR50 (nM, Cellular activities)>


> <Assay (Cellular activities, GR50)>


> <Article DOI>
10.1021/acs.jmedchem.8b01413

> <Molecular Weight>
1041.257

> <Exact Mass>
1040.48413963

> <XLogP3>
3.69

> <Heavy Atom Count>
74

> <Ring Count>
8

> <Hydrogen Bond Acceptor Count>
16

> <Hydrogen Bond Donor Count>
3

> <Rotatable Bond Count>
22

> <Topological Polar Surface Area>
199.15

> <Molecular Formula>
C54H69FN8O10S

> <InChI>
InChI=1S/C54H69FN8O10S/c1-34-47(74-33-58-34)35-8-9-36(28-57-49(65)43-27-38(64)30-63(43)51(67)48(53(2,3)4)59-52(68)54(55)11-12-54)44(24-35)73-23-22-72-21-20-71-19-18-61-14-16-62(17-15-61)32-42-45(69-6)25-37(26-46(42)70-7)41-31-60(5)50(66)40-29-56-13-10-39(40)41/h8-10,13,24-26,29,31,33,38,43,48,64H,11-12,14-23,27-28,30,32H2,1-7H3,(H,57,65)(H,59,68)/t38-,43+,48-/m1/s1

> <InChI Key>
MXAKQOVZPDLCDK-UDVNCTHFSA-N

$$$$
