warhead2
                    3D
 Structure written by MMmdl.
 30 33  0  0  1  0            999 V2000
  -37.2450   21.4550   -9.0360 C   0  0  0  0  0  0
  -36.7940   20.5070   -9.9630 O   0  0  0  0  0  0
  -35.5590   20.6960  -10.5480 C   0  0  0  0  0  0
  -34.7430   21.8240  -10.2990 C   0  0  0  0  0  0
  -33.4890   21.9630  -10.9290 C   0  0  0  0  0  0
  -32.6630   23.1600  -10.6580 C   0  0  0  0  0  0
  -33.2580   24.3720  -10.6830 C   0  0  0  0  0  0
  -32.6450   25.5790  -10.3190 N   0  0  0  0  0  0
  -33.4300   26.8100  -10.4440 C   0  0  0  0  0  0
  -31.4050   25.6150   -9.7790 C   0  0  0  0  0  0
  -30.8950   26.6420   -9.3270 O   0  0  0  0  0  0
  -30.6370   24.3190   -9.7820 C   0  0  0  0  0  0
  -29.2860   24.2800   -9.3770 C   0  0  0  0  0  0
  -28.5370   23.1590   -9.3820 N   0  0  0  0  0  0
  -29.1260   22.0150   -9.7820 C   0  0  0  0  0  0
  -30.4730   21.9360  -10.1800 C   0  0  0  0  0  0
  -31.2530   23.1150  -10.1990 C   0  0  0  0  0  0
  -33.0600   20.9780  -11.8370 C   0  0  0  0  0  0
  -33.8500   19.8300  -12.0920 C   0  0  0  0  0  0
  -33.4640   18.8250  -12.9540 O   0  0  0  0  0  0
  -32.1440   18.8480  -13.4730 C   0  0  0  0  0  0
  -35.0990   19.6970  -11.4390 C   0  0  0  0  0  0
  -36.0200   18.5260  -11.7610 C   0  0  0  0  0  0
  -37.0900   18.9610  -12.6130 N   0  0  0  0  0  0
  -38.3400   18.3050  -12.4080 C   0  0  0  0  0  0
  -39.2590   18.6610  -13.5720 C   0  0  0  0  0  0
  -38.7360   17.9910  -14.7280 N   0  0  0  0  0  0
  -37.3810   18.3630  -14.9940 C   0  0  0  0  0  0
  -36.7380   19.2260  -13.9630 C   0  0  0  0  0  0
  -39.3562   17.6606  -15.4535 *   0  0  0  0  0  0
  1  2  1  0  0  0
  2  3  1  0  0  0
  3  4  1  0  0  0
  3 22  2  0  0  0
  4  5  2  0  0  0
  5  6  1  0  0  0
  5 18  1  0  0  0
  6  7  2  0  0  0
  6 17  1  0  0  0
  7  8  1  0  0  0
  8  9  1  0  0  0
  8 10  1  0  0  0
 10 11  2  0  0  0
 10 12  1  0  0  0
 12 13  1  0  0  0
 12 17  2  0  0  0
 13 14  2  0  0  0
 14 15  1  0  0  0
 15 16  2  0  0  0
 16 17  1  0  0  0
 18 19  2  0  0  0
 19 20  1  0  0  0
 19 22  1  0  0  0
 20 21  1  0  0  0
 22 23  1  0  0  0
 23 24  1  0  0  0
 24 25  1  0  0  0
 24 29  1  0  0  0
 25 26  1  0  0  0
 26 27  1  0  0  0
 27 28  1  0  0  0
 27 30  1  0  0  0
 28 29  1  0  0  0
M  END
> <s_m_entry_id>
177

> <s_m_entry_name>
cluster_3_3.1

> <s_pdb_PDB_format_version>
3.0

> <s_m_Source_Path>
/home/cadd/Desktop/Projects/Protac/BRD9

> <s_m_Source_File>
cluster_3_3.pdb

> <i_m_Source_File_Index>
1

> <s_ppw_entry_id_backup>
139

> <b_ppw_prepared>
1

> <s_ppw_prepared_with_version>
2017-2

> <b_ppw_assigned_bond_orders>
1

> <b_ppw_added_hydrogens>
1

> <b_ppw_treated_metals>
1

> <b_ppw_created_disulfur>
1

> <b_ppw_deleted_far_waters>
1

> <b_ppw_ran_protassign>
1

> <s_m_subgroup_title>
last

> <s_m_subgroupid>
last

> <b_m_subgroup_collapsed>
0

$$$$
