1
     RDKit          2D

 26 28  0  0  0  0  0  0  0  0999 V2000
   -2.1030    3.2871    0.0000 C   0  0  0  0  0  0  0  0  0  0  0  0
   -2.8769    2.0021    0.0000 O   0  0  0  0  0  0  0  0  0  0  0  0
   -2.1511    0.6894    0.0000 C   0  0  0  0  0  0  0  0  0  0  0  0
   -0.6513    0.6617    0.0000 C   0  0  0  0  0  0  0  0  0  0  0  0
    0.0745   -0.6510    0.0000 C   0  0  0  0  0  0  0  0  0  0  0  0
    1.5743   -0.6788    0.0000 C   0  0  0  0  0  0  0  0  0  0  0  0
    2.3001   -1.9914    0.0000 C   0  0  0  0  0  0  0  0  0  0  0  0
    3.7998   -2.0192    0.0000 N   0  0  0  0  0  0  0  0  0  0  0  0
    4.5257   -3.3319    0.0000 C   0  0  0  0  0  0  0  0  0  0  0  0
    4.5737   -0.7342    0.0000 C   0  0  0  0  0  0  0  0  0  0  0  0
    6.0735   -0.7620    0.0000 O   0  0  0  0  0  0  0  0  0  0  0  0
    3.8479    0.5784    0.0000 C   0  0  0  0  0  0  0  0  0  0  0  0
    4.6218    1.8634    0.0000 C   0  0  0  0  0  0  0  0  0  0  0  0
    3.8960    3.1761    0.0000 N   0  0  0  0  0  0  0  0  0  0  0  0
    2.3962    3.2038    0.0000 C   0  0  0  0  0  0  0  0  0  0  0  0
    1.6223    1.9189    0.0000 C   0  0  0  0  0  0  0  0  0  0  0  0
    2.3482    0.6062    0.0000 C   0  0  0  0  0  0  0  0  0  0  0  0
   -0.6994   -1.9360    0.0000 C   0  0  0  0  0  0  0  0  0  0  0  0
   -2.1991   -1.9082    0.0000 C   0  0  0  0  0  0  0  0  0  0  0  0
   -2.9730   -3.1931    0.0000 O   0  0  0  0  0  0  0  0  0  0  0  0
   -4.4728   -3.1654    0.0000 C   0  0  0  0  0  0  0  0  0  0  0  0
   -2.9250   -0.5955    0.0000 C   0  0  0  0  0  0  0  0  0  0  0  0
   -4.4247   -0.5678    0.0000 C   0  0  0  0  0  0  0  0  0  0  0  0
   -5.1506    0.7449    0.0000 N   0  0  0  0  0  0  0  0  0  0  0  0
   -6.6503    0.7727    0.0000 C   0  0  0  0  0  0  0  0  0  0  0  0
   -4.3767    2.0299    0.0000 C   0  0  0  0  0  0  0  0  0  0  0  0
  1  2  1  0
  2  3  1  0
  3  4  2  0
  4  5  1  0
  5  6  1  0
  6  7  2  0
  7  8  1  0
  8  9  1  0
  8 10  1  0
 10 11  2  0
 10 12  1  0
 12 13  2  0
 13 14  1  0
 14 15  2  0
 15 16  1  0
 16 17  2  0
  5 18  2  0
 18 19  1  0
 19 20  1  0
 20 21  1  0
 19 22  2  0
 22 23  1  0
 23 24  1  0
 24 25  1  0
 24 26  1  0
 22  3  1  0
 17  6  1  0
 17 12  1  0
M  END
> <Name>
BI-7273

> <Uniprot>
Q9NPI1

> <Target>
BRD7

> <Smiles>
COC1=CC(C2=CN(C)C(=O)C3=CN=CC=C23)=CC(OC)=C1CN(C)C

> <Kd (nM)>
0.3

> <Assay (Kd)>
BROMOScan platform of DiscoveRx

> <Ki (nM)>


> <Assay (Ki)>


> <IC50 (nM)>
117

> <Assay (IC50)>
BRD7 H3 AlphaScreen assay

> <EC50 (nM)>


> <Assay (EC50)>


> <Article DOI>
10.1021/acs.jmedchem.5b01865

> <Molecular Weight>
353.422

> <Exact Mass>
353.173941596

> <XLogP3>
1.4

> <Heavy Atom Count>
26

> <Ring Count>
3

> <Hydrogen Bond Acceptor Count>
6

> <Hydrogen Bond Donor Count>
0

> <Rotatable Bond Count>
5

> <Topological Polar Surface Area>
56.59

> <Molecular Formula>
C20H23N3O3

> <InChI>
InChI=1S/C20H23N3O3/c1-22(2)11-17-18(25-4)8-13(9-19(17)26-5)16-12-23(3)20(24)15-10-21-7-6-14(15)16/h6-10,12H,11H2,1-5H3

> <InChI Key>
RBUYFHLQNPJMQM-UHFFFAOYSA-N

> <BindingDB>
50183448

> <PubChem>
118796358

> <ChEMBL>
CHEMBL3823478

$$$$
1
     RDKit          2D

 26 28  0  0  0  0  0  0  0  0999 V2000
   -2.1030    3.2871    0.0000 C   0  0  0  0  0  0  0  0  0  0  0  0
   -2.8769    2.0021    0.0000 O   0  0  0  0  0  0  0  0  0  0  0  0
   -2.1511    0.6894    0.0000 C   0  0  0  0  0  0  0  0  0  0  0  0
   -0.6513    0.6617    0.0000 C   0  0  0  0  0  0  0  0  0  0  0  0
    0.0745   -0.6510    0.0000 C   0  0  0  0  0  0  0  0  0  0  0  0
    1.5743   -0.6788    0.0000 C   0  0  0  0  0  0  0  0  0  0  0  0
    2.3001   -1.9914    0.0000 C   0  0  0  0  0  0  0  0  0  0  0  0
    3.7998   -2.0192    0.0000 N   0  0  0  0  0  0  0  0  0  0  0  0
    4.5257   -3.3319    0.0000 C   0  0  0  0  0  0  0  0  0  0  0  0
    4.5737   -0.7342    0.0000 C   0  0  0  0  0  0  0  0  0  0  0  0
    6.0735   -0.7620    0.0000 O   0  0  0  0  0  0  0  0  0  0  0  0
    3.8479    0.5784    0.0000 C   0  0  0  0  0  0  0  0  0  0  0  0
    4.6218    1.8634    0.0000 C   0  0  0  0  0  0  0  0  0  0  0  0
    3.8960    3.1761    0.0000 N   0  0  0  0  0  0  0  0  0  0  0  0
    2.3962    3.2038    0.0000 C   0  0  0  0  0  0  0  0  0  0  0  0
    1.6223    1.9189    0.0000 C   0  0  0  0  0  0  0  0  0  0  0  0
    2.3482    0.6062    0.0000 C   0  0  0  0  0  0  0  0  0  0  0  0
   -0.6994   -1.9360    0.0000 C   0  0  0  0  0  0  0  0  0  0  0  0
   -2.1991   -1.9082    0.0000 C   0  0  0  0  0  0  0  0  0  0  0  0
   -2.9730   -3.1931    0.0000 O   0  0  0  0  0  0  0  0  0  0  0  0
   -4.4728   -3.1654    0.0000 C   0  0  0  0  0  0  0  0  0  0  0  0
   -2.9250   -0.5955    0.0000 C   0  0  0  0  0  0  0  0  0  0  0  0
   -4.4247   -0.5678    0.0000 C   0  0  0  0  0  0  0  0  0  0  0  0
   -5.1506    0.7449    0.0000 N   0  0  0  0  0  0  0  0  0  0  0  0
   -6.6503    0.7727    0.0000 C   0  0  0  0  0  0  0  0  0  0  0  0
   -4.3767    2.0299    0.0000 C   0  0  0  0  0  0  0  0  0  0  0  0
  1  2  1  0
  2  3  1  0
  3  4  2  0
  4  5  1  0
  5  6  1  0
  6  7  2  0
  7  8  1  0
  8  9  1  0
  8 10  1  0
 10 11  2  0
 10 12  1  0
 12 13  2  0
 13 14  1  0
 14 15  2  0
 15 16  1  0
 16 17  2  0
  5 18  2  0
 18 19  1  0
 19 20  1  0
 20 21  1  0
 19 22  2  0
 22 23  1  0
 23 24  1  0
 24 25  1  0
 24 26  1  0
 22  3  1  0
 17  6  1  0
 17 12  1  0
M  END
> <Name>
BI-7273

> <Uniprot>
Q9H8M2

> <Target>
BRD9

> <Smiles>
COC1=CC(C2=CN(C)C(=O)C3=CN=CC=C23)=CC(OC)=C1CN(C)C

> <Kd (nM)>
15.4

> <Assay (Kd)>
ITC

> <Ki (nM)>


> <Assay (Ki)>


> <IC50 (nM)>
19

> <Assay (IC50)>
BRD9-H3 AlphaScreen assay

> <EC50 (nM)>


> <Assay (EC50)>


> <Article DOI>
10.1021/acs.jmedchem.5b01865

> <Molecular Weight>
353.422

> <Exact Mass>
353.173941596

> <XLogP3>
1.4

> <Heavy Atom Count>
26

> <Ring Count>
3

> <Hydrogen Bond Acceptor Count>
6

> <Hydrogen Bond Donor Count>
0

> <Rotatable Bond Count>
5

> <Topological Polar Surface Area>
56.59

> <Molecular Formula>
C20H23N3O3

> <InChI>
InChI=1S/C20H23N3O3/c1-22(2)11-17-18(25-4)8-13(9-19(17)26-5)16-12-23(3)20(24)15-10-21-7-6-14(15)16/h6-10,12H,11H2,1-5H3

> <InChI Key>
RBUYFHLQNPJMQM-UHFFFAOYSA-N

> <BindingDB>
50183448

> <PubChem>
118796358

> <ChEMBL>
CHEMBL3823478

$$$$
