warhead1
                    3D
 Structure written by MMmdl.
 38 41  0  0  1  0            999 V2000
  -38.5220   14.1650  -24.0310 O   0  0  0  0  0  0
  -37.3300   13.5150  -23.7970 C   0  0  0  0  0  0
  -36.7000   13.4600  -22.5570 C   0  0  0  0  0  0
  -35.4930   12.7830  -22.4100 C   0  0  0  0  0  0
  -34.8490   12.6800  -21.0850 C   0  0  0  0  0  0
  -35.3290   12.1950  -19.8940 C   0  0  0  0  0  0
  -36.7080   11.6870  -19.6200 C   0  0  0  0  0  0
  -34.4200   12.2190  -18.8550 N   0  0  0  0  0  0
  -33.2700   12.6530  -19.2590 C   0  0  0  0  0  0
  -33.1730   13.1090  -20.9100 S   0  0  0  0  0  0
  -34.9370   12.1520  -23.5150 C   0  0  0  0  0  0
  -35.5720   12.1880  -24.7400 C   0  0  0  0  0  0
  -36.7740   12.8750  -24.9090 C   0  0  0  0  0  0
  -37.4880   12.9040  -26.2330 C   0  0  0  0  0  0
  -36.5610   12.6860  -27.3330 N   0  0  0  0  0  0
  -36.0090   13.7180  -27.9840 C   0  0  0  0  0  0
  -36.2260   14.8390  -27.8350 O   0  0  0  0  0  0
  -35.0050   13.0320  -29.1240 C   0  0  2  0  0  0
  -33.6000   13.3960  -28.3270 C   0  0  0  0  0  0
  -32.5610   13.8600  -29.5190 C   0  0  1  0  0  0
  -32.5280   12.4680  -30.3370 O   0  0  0  0  0  0
  -33.6720   14.6420  -30.4250 C   0  0  0  0  0  0
  -34.8990   14.2950  -30.1080 N   0  0  0  0  0  0
  -36.0170   14.3500  -30.8770 C   0  0  0  0  0  0
  -37.0030   13.7990  -30.6970 O   0  0  0  0  0  0
  -35.6640   15.2990  -32.1990 C   0  0  1  0  0  0
  -36.6330   14.5330  -33.2110 N   0  0  0  0  0  0
  -36.1290   14.0630  -34.3670 C   0  0  0  0  0  0
  -34.9570   14.1280  -34.7190 O   0  0  0  0  0  0
  -37.1450   13.3940  -35.3090 C   0  0  0  0  0  0
  -38.4060   13.1520  -34.7630 F   0  0  0  0  0  0
  -37.2150   13.7140  -36.7540 C   0  0  0  0  0  0
  -36.7830   12.3540  -36.3030 C   0  0  0  0  0  0
  -36.6590   16.6470  -31.8970 C   0  0  0  0  0  0
  -35.9180   17.3960  -30.7720 C   0  0  0  0  0  0
  -36.4270   17.4820  -33.1720 C   0  0  0  0  0  0
  -38.0550   16.4430  -31.6790 C   0  0  0  0  0  0
  -38.8665   14.4503  -23.1816 *   0  0  0  0  0  0
  1  2  1  0  0  0
  1 38  1  0  0  0
  2  3  1  0  0  0
  2 13  2  0  0  0
  3  4  2  0  0  0
  4  5  1  0  0  0
  4 11  1  0  0  0
  5  6  2  0  0  0
  5 10  1  0  0  0
  6  7  1  0  0  0
  6  8  1  0  0  0
  8  9  2  0  0  0
  9 10  1  0  0  0
 11 12  2  0  0  0
 12 13  1  0  0  0
 13 14  1  0  0  0
 14 15  1  0  0  0
 15 16  1  0  0  0
 16 17  2  0  0  0
 16 18  1  0  0  0
 18 19  1  0  0  0
 18 23  1  0  0  0
 19 20  1  0  0  0
 20 21  1  0  0  0
 20 22  1  0  0  0
 22 23  1  0  0  0
 23 24  1  0  0  0
 24 25  2  0  0  0
 24 26  1  0  0  0
 26 27  1  0  0  0
 26 34  1  0  0  0
 27 28  1  0  0  0
 28 29  2  0  0  0
 28 30  1  0  0  0
 30 31  1  0  0  0
 30 32  1  0  0  0
 30 33  1  0  0  0
 32 33  1  0  0  0
 34 35  1  0  0  0
 34 36  1  0  0  0
 34 37  1  0  0  0
M  END
> <s_m_entry_id>
176

> <s_m_entry_name>
cluster_3_3.1

> <s_pdb_PDB_format_version>
3.0

> <s_m_Source_Path>
/home/cadd/Desktop/Projects/Protac/BRD9

> <s_m_Source_File>
cluster_3_3.pdb

> <i_m_Source_File_Index>
1

> <s_ppw_entry_id_backup>
139

> <b_ppw_prepared>
1

> <s_ppw_prepared_with_version>
2017-2

> <b_ppw_assigned_bond_orders>
1

> <b_ppw_added_hydrogens>
1

> <b_ppw_treated_metals>
1

> <b_ppw_created_disulfur>
1

> <b_ppw_deleted_far_waters>
1

> <b_ppw_ran_protassign>
1

> <s_m_subgroup_title>
last

> <s_m_subgroupid>
last

> <b_m_subgroup_collapsed>
0

$$$$
