cluster_3_3 - hbond-opt-ligand_only_fragment
                    3D
 Structure written by MMmdl.
 33 33  0  0  1  0            999 V2000
  -37.0900   18.9610  -12.6130 N   0  3  0  0  0  0
  -38.3400   18.3050  -12.4080 C   0  0  0  0  0  0
  -39.2590   18.6610  -13.5720 C   0  0  0  0  0  0
  -38.7360   17.9910  -14.7280 N   0  0  0  0  0  0
  -39.6040   18.0200  -15.8700 C   0  0  0  0  0  0
  -38.5220   14.1650  -24.0310 O   0  0  0  0  0  0
  -37.3300   13.5150  -23.7970 C   0  0  0  0  0  0
  -36.7000   13.4600  -22.5570 C   0  0  0  0  0  0
  -35.4930   12.7830  -22.4100 C   0  0  0  0  0  0
  -34.9370   12.1520  -23.5150 C   0  0  0  0  0  0
  -35.5720   12.1880  -24.7400 C   0  0  0  0  0  0
  -36.7740   12.8750  -24.9090 C   0  0  0  0  0  0
  -37.3810   18.3630  -14.9940 C   0  0  0  0  0  0
  -36.7380   19.2260  -13.9630 C   0  0  0  0  0  0
  -37.2947   19.9705  -12.2269 H   0  0  0  0  0  0
  -38.7840   18.6533  -11.4754 H   0  0  0  0  0  0
  -38.1844   17.2264  -12.3852 H   0  0  0  0  0  0
  -39.2354   19.7383  -13.7359 H   0  0  0  0  0  0
  -40.2646   18.2949  -13.3649 H   0  0  0  0  0  0
  -40.0490   19.0108  -15.9616 H   0  0  0  0  0  0
  -40.4309   17.3272  -15.7141 H   0  0  0  0  0  0
  -37.1477   13.9444  -21.7019 H   0  0  0  0  0  0
  -33.9984   11.6262  -23.4210 H   0  0  0  0  0  0
  -35.1387   11.6787  -25.5880 H   0  0  0  0  0  0
  -37.3274   18.8590  -15.9631 H   0  0  0  0  0  0
  -36.7818   17.4635  -15.1353 H   0  0  0  0  0  0
  -35.6549   19.1673  -14.0700 H   0  0  0  0  0  0
  -36.9454   20.2718  -14.1897 H   0  0  0  0  0  0
  -37.2745   12.9213  -25.8649 H   0  0  0  0  0  0
  -35.0037   12.7542  -21.4476 H   0  0  0  0  0  0
  -39.0542   17.7622  -16.7752 H   0  0  0  0  0  0
  -38.7629   14.0697  -24.9554 H   0  0  0  0  0  0
  -36.3400   18.5095  -12.1093 H   0  0  0  0  0  0
  1  2  1  0  0  0
  1 14  1  0  0  0
  1 15  1  0  0  0
  1 33  1  0  0  0
  2  3  1  0  0  0
  2 16  1  0  0  0
  2 17  1  0  0  0
  3  4  1  0  0  0
  3 18  1  0  0  0
  3 19  1  0  0  0
  4  5  1  0  0  0
  4 13  1  0  0  0
  5 20  1  0  0  0
  5 21  1  0  0  0
  5 31  1  0  0  0
  6  7  1  0  0  0
  6 32  1  0  0  0
  7  8  1  0  0  0
  7 12  2  0  0  0
  8  9  2  0  0  0
  8 22  1  0  0  0
  9 10  1  0  0  0
  9 30  1  0  0  0
 10 11  2  0  0  0
 10 23  1  0  0  0
 11 12  1  0  0  0
 11 24  1  0  0  0
 12 29  1  0  0  0
 13 14  1  0  0  0
 13 25  1  0  0  0
 13 26  1  0  0  0
 14 27  1  0  0  0
 14 28  1  0  0  0
M  CHG  1   1   1
M  END
> <s_m_entry_id>
143

> <s_m_entry_name>
cluster_3_3.1

> <s_pdb_PDB_format_version>
3.0

> <s_m_Source_Path>
/home/cadd/Desktop/Projects/Protac/BRD9

> <s_m_Source_File>
cluster_3_3.pdb

> <i_m_Source_File_Index>
1

> <s_ppw_entry_id_backup>
139

> <b_ppw_prepared>
1

> <s_ppw_prepared_with_version>
2017-2

> <b_ppw_assigned_bond_orders>
1

> <b_ppw_added_hydrogens>
1

> <b_ppw_treated_metals>
1

> <b_ppw_created_disulfur>
1

> <b_ppw_deleted_far_waters>
1

> <b_ppw_ran_protassign>
1

> <s_m_subgroup_title>
ligand_prepared

> <s_m_subgroupid>
ligand_prepared_copy1

> <b_m_subgroup_collapsed>
0

$$$$
