default_job_100
     RDKit          3D

 94103  0  0  1  0  0  0  0  0999 V2000
  -28.7810  -24.5340   19.0050 C   0  0  0  0  0  3  0  0  0  0  0  0
  -28.3400  -25.3110   20.1030 C   0  0  0  0  0  0  0  0  0  0  0  0
  -28.4450  -22.6350   20.2410 C   0  0  0  0  0  0  0  0  0  0  0  0
  -29.1970  -25.1500   17.6880 C   0  0  0  0  0  1  0  0  0  0  0  0
  -28.8390  -23.1820   19.0840 N   0  0  0  0  0  0  0  0  0  0  0  0
  -27.9620  -24.6800   21.2490 N   0  0  0  0  0  0  0  0  0  0  0  0
  -28.0160  -23.3300   21.3160 N   0  0  0  0  0  2  0  0  0  0  0  0
  -28.9600  -20.2100   19.1800 C   0  0  0  0  0  2  0  0  0  0  0  0
  -29.6000  -20.3650   21.1650 C   0  0  0  0  0  2  0  0  0  0  0  0
  -28.5300  -21.1030   20.3540 C   0  0  0  0  0  3  0  0  0  0  0  0
  -29.7410  -19.3650   20.0950 N   0  0  1  0  0  4  0  0  0  0  0  0
  -30.6970  -19.3360   19.7720 H   0  0  0  0  0  0  0  0  0  0  0  0
  -29.2670  -17.9640   20.3480 C   0  0  0  0  0  2  0  0  0  0  0  0
  -31.0570  -17.4360   22.1410 C   0  0  0  0  0  1  0  0  0  0  0  0
  -30.4090  -16.9990   20.8120 C   0  0  0  0  0  3  0  0  0  0  0  0
  -30.6750  -14.5130   20.4810 C   0  0  0  0  0  0  0  0  0  0  0  0
  -30.3600  -12.3450   19.3580 C   0  0  0  0  0  2  0  0  0  0  0  0
  -29.4380  -12.5610   18.1430 C   0  0  0  0  0  2  0  0  0  0  0  0
  -27.9610  -12.4220   18.5610 C   0  0  0  0  0  2  0  0  0  0  0  0
  -27.6100  -13.2500   19.8300 C   0  0  0  0  0  3  0  0  0  0  0  0
  -28.6630  -13.0580   20.9450 C   0  0  0  0  0  2  0  0  0  0  0  0
  -29.9870  -13.3430   20.3720 N   0  0  0  0  0  0  0  0  0  0  0  0
  -31.8170  -14.6540   20.0440 O   0  0  0  0  0  0  0  0  0  0  0  0
  -29.9700  -15.5830   20.9130 N   0  0  0  0  0  0  0  0  0  0  0  0
  -29.0370  -15.3970   21.2480 H   0  0  0  0  0  0  0  0  0  0  0  0
  -25.2060  -13.8400   20.5300 C   0  0  0  0  0  0  0  0  0  0  0  0
  -24.1380  -13.0630   20.8890 C   0  0  0  0  0  0  0  0  0  0  0  0
  -24.6050  -11.7140   20.8600 C   0  0  0  0  0  0  0  0  0  0  0  0
  -26.2560  -12.9640   20.3020 N   0  0  0  0  0  0  0  0  0  0  0  0
  -25.8980  -11.6790   20.5610 N   0  0  0  0  0  0  0  0  0  0  0  0
  -23.8810  -10.4490   21.0470 C   0  0  0  0  0  0  0  0  0  0  0  0
  -24.3090   -9.4800   21.9820 C   0  0  0  0  0  3  0  0  0  0  0  0
  -23.5820   -8.2830   22.1560 C   0  0  0  0  0  3  0  0  0  0  0  0
  -22.4130   -8.0440   21.3930 C   0  0  0  0  0  0  0  0  0  0  0  0
  -22.0040   -9.0010   20.4480 C   0  0  0  0  0  3  0  0  0  0  0  0
  -22.7310  -10.1900   20.2730 C   0  0  0  0  0  3  0  0  0  0  0  0
  -21.6600   -6.8990   21.4750 O   0  0  0  0  0  0  0  0  0  0  0  0
  -21.6130   -6.1480   22.6230 C   0  0  0  0  0  0  0  0  0  0  0  0
  -21.1780   -6.6950   23.8500 C   0  0  0  0  0  3  0  0  0  0  0  0
  -21.0750   -5.8720   24.9900 C   0  0  0  0  0  3  0  0  0  0  0  0
  -21.3980   -4.5040   24.9030 C   0  0  0  0  0  0  0  0  0  0  0  0
  -21.8270   -3.9580   23.6820 C   0  0  0  0  0  3  0  0  0  0  0  0
  -21.9290   -4.7770   22.5440 C   0  0  0  0  0  0  0  0  0  0  0  0
  -22.3200   -4.2420   21.3610 F   0  0  0  0  0  0  0  0  0  0  0  0
  -21.2950   -3.7100   25.9950 F   0  0  0  0  0  0  0  0  0  0  0  0
  -22.7360  -13.5380   21.1440 C   0  0  0  0  0  0  0  0  0  0  0  0
  -21.9970  -12.8450   22.0030 N   0  0  0  0  0  0  0  0  0  0  0  0
  -22.3030  -14.5600   20.6150 O   0  0  0  0  0  0  0  0  0  0  0  0
  -22.3590  -12.0270   22.4700 H   0  0  0  0  0  0  0  0  0  0  0  0
  -21.0520  -13.1450   22.1970 H   0  0  0  0  0  0  0  0  0  0  0  0
  -25.3610  -15.2130   20.3560 N   0  0  0  0  0  0  0  0  0  0  0  0
  -24.5810  -15.8530   20.4650 H   0  0  0  0  0  0  0  0  0  0  0  0
  -26.2010  -15.6630   20.0200 H   0  0  0  0  0  0  0  0  0  0  0  0
  -28.3420  -26.6980   20.0950 O   0  0  0  0  0  0  0  0  0  0  0  0
  -24.5690  -31.8870   23.2470 C   0  0  0  0  0  0  0  0  0  0  0  0
  -27.1630  -27.4180   20.1400 C   0  0  0  0  0  0  0  0  0  0  0  0
  -23.3470  -30.4950   21.6100 C   0  0  0  0  0  3  0  0  0  0  0  0
  -24.7810  -28.9530   20.1640 C   0  0  0  0  0  0  0  0  0  0  0  0
  -25.8730  -30.8320   21.4000 C   0  0  0  0  0  2  0  0  0  0  0  0
  -25.9440  -29.4600   20.7580 C   0  0  0  0  0  0  0  0  0  0  0  0
  -27.1350  -28.6950   20.7480 C   0  0  0  0  0  3  0  0  0  0  0  0
  -25.9810  -26.9280   19.5370 C   0  0  0  0  0  3  0  0  0  0  0  0
  -24.7950  -27.6870   19.5510 C   0  0  0  0  0  3  0  0  0  0  0  0
  -23.5450  -29.8220   20.2220 C   0  0  0  0  0  2  0  0  0  0  0  0
  -24.6190  -31.0800   22.1480 N   0  0  0  0  0  0  0  0  0  0  0  0
  -23.4840  -32.1890   23.7650 O   0  0  0  0  0  0  0  0  0  0  0  0
  -22.6930  -29.4740   22.5680 C   0  0  0  0  0  0  0  0  0  0  0  0
  -21.3690  -29.2960   22.4390 N   0  0  0  0  0  0  0  0  0  0  0  0
  -23.3750  -28.8410   23.3780 O   0  0  0  0  0  0  0  0  0  0  0  0
  -20.8770  -29.8530   21.7560 H   0  0  0  0  0  0  0  0  0  0  0  0
  -17.9930  -28.1120   22.9340 C   0  0  0  0  0  0  0  0  0  0  0  0
  -20.5510  -28.3560   23.2040 C   0  0  0  0  0  3  0  0  0  0  0  0
  -20.6500  -26.9290   22.6160 C   0  0  0  0  0  2  0  0  0  0  0  0
  -19.5440  -26.6180   21.6030 C   0  0  0  0  0  2  0  0  0  0  0  0
  -18.1640  -26.7660   22.2470 C   0  0  0  0  0  2  0  0  0  0  0  0
  -19.1160  -28.8640   23.3680 C   0  0  0  0  0  0  0  0  0  0  0  0
  -18.9040  -30.1250   23.9660 C   0  0  0  0  0  3  0  0  0  0  0  0
  -17.6010  -30.6300   24.1420 C   0  0  0  0  0  3  0  0  0  0  0  0
  -16.4930  -29.8740   23.7210 C   0  0  0  0  0  3  0  0  0  0  0  0
  -16.6900  -28.6170   23.1210 C   0  0  0  0  0  3  0  0  0  0  0  0
  -25.8610  -32.4960   23.8770 C   0  0  0  0  0  3  0  0  0  0  0  0
  -26.3750  -31.7070   25.1440 C   0  0  1  0  0  0  0  0  0  0  0  0
  -25.2830  -31.4670   26.2120 C   0  0  0  0  0  1  0  0  0  0  0  0
  -26.9470  -30.3310   24.7290 C   0  0  0  0  0  1  0  0  0  0  0  0
  -27.5310  -32.4860   25.8150 C   0  0  0  0  0  1  0  0  0  0  0  0
  -25.5660  -33.8920   24.2220 N   0  0  0  0  0  0  0  0  0  0  0  0
  -25.8750  -34.9460   23.4570 C   0  0  0  0  0  0  0  0  0  0  0  0
  -26.5150  -34.8470   22.4070 O   0  0  0  0  0  0  0  0  0  0  0  0
  -25.0020  -34.0470   25.0450 H   0  0  0  0  0  0  0  0  0  0  0  0
  -24.1240  -36.7240   23.1690 C   0  0  0  0  0  1  0  0  0  0  0  0
  -25.3980  -36.3320   23.9330 C   0  0  0  0  0  3  0  0  0  0  0  0
  -27.5550  -37.2250   24.6780 C   0  0  0  0  0  1  0  0  0  0  0  0
  -26.4190  -37.3890   23.7760 N   0  0  0  0  0  0  0  0  0  0  0  0
  -26.0160  -38.3080   23.9340 H   0  0  0  0  0  0  0  0  0  0  0  0
  1  4  1  0
  1  5  1  0
  1  2  1  0
  2  6  2  0
  3  7  1  0
  5  3  2  0
  6  7  1  0
  8 11  1  0
  8 10  1  0
 10  3  1  0
 10  9  1  0
 11 13  1  0
 11  9  1  0
 11 12  1  6
 13 15  1  0
 15 24  1  0
 15 14  1  0
 16 24  1  0
 17 22  1  0
 18 19  1  0
 18 17  1  0
 20 19  1  0
 20 29  1  0
 20 21  1  0
 22 16  1  0
 22 21  1  0
 23 16  2  0
 24 25  1  0
 26 27  2  0
 27 46  1  0
 28 27  1  0
 28 31  1  0
 29 26  1  0
 29 30  1  0
 30 28  2  0
 31 32  1  0
 32 33  2  0
 34 37  1  0
 34 33  1  0
 35 34  2  0
 36 35  1  0
 36 31  2  0
 37 38  1  0
 38 39  1  0
 39 40  2  0
 41 40  1  0
 41 45  1  0
 42 41  2  0
 43 38  2  0
 43 42  1  0
 44 43  1  0
 46 47  1  0
 47 50  1  0
 47 49  1  0
 48 46  2  0
 51 52  1  0
 51 26  1  0
 53 51  1  0
 54  2  1  0
 54 56  1  0
 55 66  2  0
 56 61  1  0
 57 65  1  0
 57 67  1  0
 58 64  1  0
 58 60  1  0
 59 65  1  0
 60 59  1  0
 61 60  2  0
 62 63  1  0
 62 56  2  0
 63 58  2  0
 64 57  1  0
 65 55  1  0
 67 69  2  0
 68 67  1  0
 70 68  1  0
 71 80  2  0
 71 76  1  0
 72 68  1  0
 72 76  1  0
 73 72  1  0
 74 75  1  0
 74 73  1  0
 75 71  1  0
 76 77  2  0
 77 78  1  0
 79 78  2  0
 80 79  1  0
 81 55  1  0
 81 86  1  0
 81 82  1  0
 82 85  1  1
 82 83  1  0
 84 82  1  0
 86 89  1  0
 87 91  1  0
 87 86  1  0
 88 87  2  0
 91 90  1  0
 93 91  1  0
 93 94  1  0
 93 92  1  0
M  ISO  4   2 101  16 100  24 100  54 101
M  END
>  <TORSDO>  (1) 
F 19

>  <SCORE>  (1) 
-14.396

>  <name>  (1) 
0

>  <ligand_id>  (1) 
0

>  <original_smiles>  (1) 
[H]c1c([H])c([H])c2c(c1[H])C([H])([H])C([H])([H])C([H])([H])C2([H])N([H])C(=O)C1([H])N(C(=O)C([H])(N([H])C(=O)C([H])(N([H])C([H])([H])[H])C([H])([H])[H])C(C([H])([H])[H])(C([H])([H])[H])C([H])([H])[H])C([H])([H])c2c([H])c(Oc3nnc(C4([H])C([H])([H])[N+]([H])(C([H])([H])C([H])(N([H])C(=O)N5C([H])([H])C([H])([H])C([H])([H])C([H])(n6nc(-c7c([H])c([H])c(Oc8c([H])c([H])c(F)c([H])c8F)c([H])c7[H])c(C(=O)N([H])[H])c6N([H])[H])C5([H])[H])C([H])([H])[H])C4([H])[H])nc3C([H])([H])[H])c([H])c([H])c2C1([H])[H]

>  <smiles>  (1) 
[H]c1c([H])c([H])c2c(c1[H])C([H])([H])C([H])([H])C([H])([H])C2([H])N([H])C(=O)C1([H])N(C(=O)C([H])(N([H])C(=O)C([H])(N([H])C([H])([H])[H])C([H])([H])[H])C(C([H])([H])[H])(C([H])([H])[H])C([H])([H])[H])C([H])([H])c2c([H])c(Oc3nnc(C4([H])C([H])([H])[N+]([H])(C([H])([H])C([H])(N([H])C(=O)N5C([H])([H])C([H])([H])C([H])([H])C([H])(n6nc(-c7c([H])c([H])c(Oc8c([H])c([H])c(F)c([H])c8F)c([H])c7[H])c(C(=O)N([H])[H])c6N([H])[H])C5([H])[H])C([H])([H])[H])C4([H])[H])nc3C([H])([H])[H])c([H])c([H])c2C1([H])[H]

> <Step>
184.0

> <Scaffold>
O=C(NC1CCCc2ccccc21)C1Cc2ccc(Oc3cnc(C4CN(CCNC(=O)N5CCCC(n6ccc(-c7ccc(Oc8ccccc8)cc7)n6)C5)C4)nn3)cc2CN1

> <SMILES>
CNC(C)C(=O)NC(C(=O)N1Cc2cc(Oc3nnc(C4CN(CC(C)NC(=O)N5CCCC(n6nc(-c7ccc(Oc8ccc(F)cc8F)cc7)c(C(N)=O)c6N)C5)C4)nc3C)ccc2CC1C(=O)NC1CCCc2ccccc21)C(C)(C)C

> <Tanimoto ROCS sim>
0.20249763131141663

> <Custom alerts>
1.0

> <Linker Num Aromatic Rings>
1.0

> <Linker Effective Length>
1.0

> <ADV>
0.9955784678459167

> <PostDock Tanimoto ROCS sim>
0.9899125695228577

> <raw_Linker Num Aromatic Rings>
1.0

> <raw_Linker Effective Length>
9.0

> <raw_ADV>
-14.40999984741211

> <total_score>
0.9963727593421936

> <ID>
default_job_100

> <PostDock Tanimoto ROCS sim (re-score)>
0.98622835

> <raw_ADV (re-score)>
-14.396

$$$$
default_job_101
     RDKit          3D

 98108  0  0  1  0  0  0  0  0999 V2000
  -30.9060  -21.9710   19.5950 C   0  0  0  0  0  3  0  0  0  0  0  0
  -31.2080  -23.3440   19.5610 C   0  0  0  0  0  0  0  0  0  0  0  0
  -29.6100  -21.5960   19.9470 C   0  0  0  0  0  0  0  0  0  0  0  0
  -29.0760  -23.8850   20.2200 C   0  0  0  0  0  0  0  0  0  0  0  0
  -30.2950  -24.2830   19.8700 N   0  0  0  0  0  0  0  0  0  0  0  0
  -28.7010  -22.5700   20.2620 N   0  0  0  0  0  0  0  0  0  0  0  0
  -29.2020  -20.2510   19.6780 N   0  0  0  0  0  0  0  0  0  0  0  0
  -29.5150  -19.9980   18.7480 H   0  0  0  0  0  0  0  0  0  0  0  0
  -30.6620  -14.7040   20.3810 C   0  0  0  0  0  0  0  0  0  0  0  0
  -30.3650  -12.4470   19.3720 C   0  0  0  0  0  2  0  0  0  0  0  0
  -29.4350  -12.5280   18.1460 C   0  0  0  0  0  2  0  0  0  0  0  0
  -27.9710  -12.3380   18.5850 C   0  0  0  0  0  2  0  0  0  0  0  0
  -27.5900  -13.2400   19.7900 C   0  0  0  0  0  3  0  0  0  0  0  0
  -28.6570  -13.2190   20.9080 C   0  0  0  0  0  2  0  0  0  0  0  0
  -29.9580  -13.5230   20.3010 N   0  0  0  0  0  0  0  0  0  0  0  0
  -31.8590  -14.7240   20.0830 O   0  0  0  0  0  0  0  0  0  0  0  0
  -30.6760  -18.4370   20.8620 C   0  0  0  0  0  2  0  0  0  0  0  0
  -28.4460  -17.8420   19.9470 C   0  0  0  0  0  2  0  0  0  0  0  0
  -30.6400  -16.9690   21.4660 C   0  0  0  0  0  2  0  0  0  0  0  0
  -29.2730  -16.5750   19.5170 C   0  0  0  0  0  2  0  0  0  0  0  0
  -29.2680  -19.0310   20.5520 C   0  0  0  0  0  3  0  0  0  0  0  0
  -30.0050  -15.9020   20.6230 N   0  0  0  0  0  0  0  0  0  0  0  0
  -25.2150  -13.8460   20.5260 C   0  0  0  0  0  0  0  0  0  0  0  0
  -24.1480  -13.0750   20.8970 C   0  0  0  0  0  0  0  0  0  0  0  0
  -24.6100  -11.7220   20.8700 C   0  0  0  0  0  0  0  0  0  0  0  0
  -26.2550  -12.9600   20.2930 N   0  0  0  0  0  0  0  0  0  0  0  0
  -25.9010  -11.6800   20.5660 N   0  0  0  0  0  0  0  0  0  0  0  0
  -23.8860  -10.4620   21.0610 C   0  0  0  0  0  0  0  0  0  0  0  0
  -24.3290   -9.4910   21.9860 C   0  0  0  0  0  3  0  0  0  0  0  0
  -23.6070   -8.2910   22.1630 C   0  0  0  0  0  3  0  0  0  0  0  0
  -22.4270   -8.0560   21.4180 C   0  0  0  0  0  0  0  0  0  0  0  0
  -22.0030   -9.0170   20.4840 C   0  0  0  0  0  3  0  0  0  0  0  0
  -22.7250  -10.2080   20.3040 C   0  0  0  0  0  3  0  0  0  0  0  0
  -21.6740   -6.9110   21.5070 O   0  0  0  0  0  0  0  0  0  0  0  0
  -21.6490   -6.1550   22.6520 C   0  0  0  0  0  0  0  0  0  0  0  0
  -21.2430   -6.6970   23.8910 C   0  0  0  0  0  3  0  0  0  0  0  0
  -21.1640   -5.8690   25.0290 C   0  0  0  0  0  3  0  0  0  0  0  0
  -21.4780   -4.5000   24.9280 C   0  0  0  0  0  0  0  0  0  0  0  0
  -21.8770   -3.9580   23.6940 C   0  0  0  0  0  3  0  0  0  0  0  0
  -21.9590   -4.7830   22.5580 C   0  0  0  0  0  0  0  0  0  0  0  0
  -22.3250   -4.2530   21.3650 F   0  0  0  0  0  0  0  0  0  0  0  0
  -21.3950   -3.7030   26.0190 F   0  0  0  0  0  0  0  0  0  0  0  0
  -22.7510  -13.5540   21.1640 C   0  0  0  0  0  0  0  0  0  0  0  0
  -22.0210  -12.8630   22.0320 N   0  0  0  0  0  0  0  0  0  0  0  0
  -22.3160  -14.5780   20.6390 O   0  0  0  0  0  0  0  0  0  0  0  0
  -22.3830  -12.0360   22.4820 H   0  0  0  0  0  0  0  0  0  0  0  0
  -21.0830  -13.1680   22.2510 H   0  0  0  0  0  0  0  0  0  0  0  0
  -25.3810  -15.2160   20.3420 N   0  0  0  0  0  0  0  0  0  0  0  0
  -24.6160  -15.8750   20.4450 H   0  0  0  0  0  0  0  0  0  0  0  0
  -26.2390  -15.6500   20.0280 H   0  0  0  0  0  0  0  0  0  0  0  0
  -33.7920  -23.0040   18.8510 C   0  0  0  0  0  2  0  0  0  0  0  0
  -33.4790  -24.6760   19.9970 C   0  0  0  0  0  2  0  0  0  0  0  0
  -32.5540  -23.8670   19.0940 C   0  0  0  0  0  3  0  0  0  0  0  0
  -35.8800  -24.0230   19.7910 C   0  0  0  0  0  1  0  0  0  0  0  0
  -34.5710  -24.2150   19.1330 N   0  0  1  0  0  4  0  0  0  0  0  0
  -34.6510  -24.7900   18.3090 H   0  0  0  0  0  0  0  0  0  0  0  0
  -28.0600  -25.0330   20.5970 C   0  0  0  0  0  2  0  0  0  0  0  0
  -28.3270  -26.4530   20.2070 O   0  0  0  0  0  0  0  0  0  0  0  0
  -24.6270  -31.9130   23.2180 C   0  0  0  0  0  0  0  0  0  0  0  0
  -27.2240  -27.3240   20.1820 C   0  0  0  0  0  0  0  0  0  0  0  0
  -23.4200  -30.5010   21.5930 C   0  0  0  0  0  3  0  0  0  0  0  0
  -24.8660  -28.9440   20.1720 C   0  0  0  0  0  0  0  0  0  0  0  0
  -25.9590  -30.8160   21.4010 C   0  0  0  0  0  2  0  0  0  0  0  0
  -26.0370  -29.4310   20.7670 C   0  0  0  0  0  0  0  0  0  0  0  0
  -27.2220  -28.6320   20.7640 C   0  0  0  0  0  3  0  0  0  0  0  0
  -26.0370  -26.9050   19.5420 C   0  0  0  0  0  3  0  0  0  0  0  0
  -24.8670  -27.6880   19.5500 C   0  0  0  0  0  3  0  0  0  0  0  0
  -23.6290  -29.8190   20.2160 C   0  0  0  0  0  2  0  0  0  0  0  0
  -24.6890  -31.0890   22.1320 N   0  0  0  0  0  0  0  0  0  0  0  0
  -23.5380  -32.2220   23.7210 O   0  0  0  0  0  0  0  0  0  0  0  0
  -22.7550  -29.4910   22.5580 C   0  0  0  0  0  0  0  0  0  0  0  0
  -21.4290  -29.3220   22.4370 N   0  0  0  0  0  0  0  0  0  0  0  0
  -23.4330  -28.8600   23.3740 O   0  0  0  0  0  0  0  0  0  0  0  0
  -20.9410  -29.8820   21.7520 H   0  0  0  0  0  0  0  0  0  0  0  0
  -18.0420  -28.1490   22.9500 C   0  0  0  0  0  0  0  0  0  0  0  0
  -20.6050  -28.3880   23.2100 C   0  0  0  0  0  3  0  0  0  0  0  0
  -20.6920  -26.9570   22.6290 C   0  0  0  0  0  2  0  0  0  0  0  0
  -19.5830  -26.6450   21.6200 C   0  0  0  0  0  2  0  0  0  0  0  0
  -18.2070  -26.8000   22.2710 C   0  0  0  0  0  2  0  0  0  0  0  0
  -19.1690  -28.9010   23.3780 C   0  0  0  0  0  0  0  0  0  0  0  0
  -18.9650  -30.1640   23.9760 C   0  0  0  0  0  3  0  0  0  0  0  0
  -17.6650  -30.6760   24.1490 C   0  0  0  0  0  3  0  0  0  0  0  0
  -16.5520  -29.9200   23.7370 C   0  0  0  0  0  3  0  0  0  0  0  0
  -16.7420  -28.6590   23.1470 C   0  0  0  0  0  3  0  0  0  0  0  0
  -25.9110  -32.5340   23.8510 C   0  0  0  0  0  3  0  0  0  0  0  0
  -25.6070  -33.9310   24.1880 N   0  0  0  0  0  0  0  0  0  0  0  0
  -25.9370  -34.9850   23.4290 C   0  0  0  0  0  0  0  0  0  0  0  0
  -26.6010  -34.8810   22.3940 O   0  0  0  0  0  0  0  0  0  0  0  0
  -25.0130  -34.0840   24.9890 H   0  0  0  0  0  0  0  0  0  0  0  0
  -24.2090  -36.7780   23.0810 C   0  0  0  0  0  1  0  0  0  0  0  0
  -25.4530  -36.3730   23.8880 C   0  0  0  0  0  3  0  0  0  0  0  0
  -27.5980  -37.2500   24.7040 C   0  0  0  0  0  1  0  0  0  0  0  0
  -26.4880  -37.4240   23.7700 N   0  0  0  0  0  0  0  0  0  0  0  0
  -26.0870  -38.3460   23.9210 H   0  0  0  0  0  0  0  0  0  0  0  0
  -26.4230  -31.7540   25.1230 C   0  0  1  0  0  0  0  0  0  0  0  0
  -25.3260  -31.5160   26.1860 C   0  0  0  0  0  1  0  0  0  0  0  0
  -27.0000  -30.3780   24.7220 C   0  0  0  0  0  1  0  0  0  0  0  0
  -27.5800  -32.5380   25.7860 C   0  0  0  0  0  1  0  0  0  0  0  0
  1  3  1  0
  2  1  2  0
  2  5  1  0
  3  6  2  0
  4  6  1  0
  4 57  1  0
  5  4  2  0
  7  3  1  0
  8  7  1  0
  9 22  1  0
 10 15  1  0
 11 12  1  0
 11 10  1  0
 13 12  1  0
 13 26  1  0
 13 14  1  0
 15  9  1  0
 15 14  1  0
 16  9  2  0
 17 19  1  0
 18 21  1  0
 20 18  1  0
 20 22  1  0
 21  7  1  0
 21 17  1  0
 22 19  1  0
 23 24  2  0
 24 43  1  0
 25 24  1  0
 25 28  1  0
 26 23  1  0
 26 27  1  0
 27 25  2  0
 28 29  1  0
 29 30  2  0
 31 34  1  0
 31 30  1  0
 32 31  2  0
 33 32  1  0
 33 28  2  0
 34 35  1  0
 35 36  1  0
 36 37  2  0
 38 37  1  0
 38 42  1  0
 39 38  2  0
 40 35  2  0
 40 39  1  0
 41 40  1  0
 43 44  1  0
 44 47  1  0
 44 46  1  0
 45 43  2  0
 48 49  1  0
 48 23  1  0
 50 48  1  0
 51 53  1  0
 51 55  1  0
 53  2  1  0
 53 52  1  0
 55 54  1  0
 55 52  1  0
 55 56  1  6
 58 57  1  0
 59 70  2  0
 60 58  1  0
 60 65  1  0
 61 69  1  0
 61 71  1  0
 62 68  1  0
 62 64  1  0
 63 69  1  0
 64 63  1  0
 65 64  2  0
 66 67  1  0
 66 60  2  0
 67 62  2  0
 68 61  1  0
 69 59  1  0
 71 73  2  0
 72 71  1  0
 74 72  1  0
 75 84  2  0
 75 80  1  0
 76 72  1  0
 76 80  1  0
 77 76  1  0
 78 79  1  0
 78 77  1  0
 79 75  1  0
 80 81  2  0
 81 82  1  0
 83 82  2  0
 84 83  1  0
 85 59  1  0
 85 86  1  0
 85 95  1  0
 86 89  1  0
 87 91  1  0
 87 86  1  0
 88 87  2  0
 91 90  1  0
 93 91  1  0
 93 94  1  0
 93 92  1  0
 95 98  1  1
 95 96  1  0
 97 95  1  0
M  ISO  4   9 100  22 100  57 101  58 101
M  END
>  <TORSDO>  (2) 
F 18

>  <SCORE>  (2) 
-14.894

>  <name>  (2) 
1

>  <ligand_id>  (2) 
1

>  <original_smiles>  (2) 
[H]c1c(N([H])C2([H])C([H])([H])C([H])([H])N(C(=O)N3C([H])([H])C([H])([H])C([H])([H])C([H])(n4nc(-c5c([H])c([H])c(Oc6c([H])c([H])c(F)c([H])c6F)c([H])c5[H])c(C(=O)N([H])[H])c4N([H])[H])C3([H])[H])C([H])([H])C2([H])[H])nc(C([H])([H])Oc2c([H])c([H])c3c(c2[H])C([H])([H])N(C(=O)C([H])(N([H])C(=O)C([H])(N([H])C([H])([H])[H])C([H])([H])[H])C(C([H])([H])[H])(C([H])([H])[H])C([H])([H])[H])C([H])(C(=O)N([H])C2([H])c4c([H])c([H])c([H])c([H])c4C([H])([H])C([H])([H])C2([H])[H])C3([H])[H])nc1C1([H])C([H])([H])[N+]([H])(C([H])([H])[H])C1([H])[H]

>  <smiles>  (2) 
[H]c1c(N([H])C2([H])C([H])([H])C([H])([H])N(C(=O)N3C([H])([H])C([H])([H])C([H])([H])C([H])(n4nc(-c5c([H])c([H])c(Oc6c([H])c([H])c(F)c([H])c6F)c([H])c5[H])c(C(=O)N([H])[H])c4N([H])[H])C3([H])[H])C([H])([H])C2([H])[H])nc(C([H])([H])Oc2c([H])c([H])c3c(c2[H])C([H])([H])N(C(=O)C([H])(N([H])C(=O)C([H])(N([H])C([H])([H])[H])C([H])([H])[H])C(C([H])([H])[H])(C([H])([H])[H])C([H])([H])[H])C([H])(C(=O)N([H])C2([H])c4c([H])c([H])c([H])c([H])c4C([H])([H])C([H])([H])C2([H])[H])C3([H])[H])nc1C1([H])C([H])([H])[N+]([H])(C([H])([H])[H])C1([H])[H]

> <Step>
196.0

> <Scaffold>
O=C(NC1CCCc2ccccc21)C1Cc2ccc(OCc3nc(NC4CCN(C(=O)N5CCCC(n6ccc(-c7ccc(Oc8ccccc8)cc7)n6)C5)CC4)cc(C4CNC4)n3)cc2CN1

> <SMILES>
CNC(C)C(=O)NC(C(=O)N1Cc2cc(OCc3nc(NC4CCN(C(=O)N5CCCC(n6nc(-c7ccc(Oc8ccc(F)cc8F)cc7)c(C(N)=O)c6N)C5)CC4)cc(C4CN(C)C4)n3)ccc2CC1C(=O)NC1CCCc2ccccc21)C(C)(C)C

> <Tanimoto ROCS sim>
0.24103347957134247

> <Custom alerts>
1.0

> <Linker Num Aromatic Rings>
1.0

> <Linker Effective Length>
1.0

> <ADV>
0.9965366721153259

> <PostDock Tanimoto ROCS sim>
0.9889004230499268

> <raw_Linker Num Aromatic Rings>
1.0

> <raw_Linker Effective Length>
8.0

> <raw_ADV>
-14.836000442504883

> <total_score>
0.9963592886924744

> <ID>
default_job_101

> <PostDock Tanimoto ROCS sim (re-score)>
0.98302484

> <raw_ADV (re-score)>
-14.894

$$$$
default_job_102
     RDKit          3D

 92100  0  0  1  0  0  0  0  0999 V2000
  -28.0670  -22.4500   20.7350 C   0  0  0  0  0  3  0  0  0  0  0  0
  -30.1480  -23.5760   19.4430 C   0  0  0  0  0  3  0  0  0  0  0  0
  -29.1660  -21.6590   20.3000 C   0  0  0  0  0  0  0  0  0  0  0  0
  -29.0130  -24.3480   19.8070 C   0  0  0  0  0  0  0  0  0  0  0  0
  -30.2250  -22.2410   19.6750 N   0  0  0  0  0  0  0  0  0  0  0  0
  -27.9800  -23.7860   20.4870 N   0  0  0  0  0  0  0  0  0  0  0  0
  -29.0840  -20.1210   20.2750 C   0  0  0  0  0  2  0  0  0  0  0  0
  -31.3720  -19.7930   21.2340 C   0  0  0  0  0  1  0  0  0  0  0  0
  -29.9760  -19.2940   21.1540 N   0  0  2  0  0  4  0  0  0  0  0  0
  -29.5940  -19.3720   22.0850 H   0  0  0  0  0  0  0  0  0  0  0  0
  -29.8790  -17.8500   20.7500 C   0  0  0  0  0  2  0  0  0  0  0  0
  -30.5000  -16.7850   21.7050 C   0  0  0  0  0  2  0  0  0  0  0  0
  -30.6920  -14.5010   20.5740 C   0  0  0  0  0  0  0  0  0  0  0  0
  -30.3820  -12.4300   19.2510 C   0  0  0  0  0  2  0  0  0  0  0  0
  -29.3920  -12.6480   18.0870 C   0  0  0  0  0  2  0  0  0  0  0  0
  -27.9480  -12.4160   18.5520 C   0  0  0  0  0  2  0  0  0  0  0  0
  -27.6200  -13.2370   19.8230 C   0  0  0  0  0  3  0  0  0  0  0  0
  -28.6900  -12.9930   20.9110 C   0  0  0  0  0  2  0  0  0  0  0  0
  -30.0060  -13.3420   20.3480 N   0  0  0  0  0  0  0  0  0  0  0  0
  -31.7730  -14.7550   20.0390 O   0  0  0  0  0  0  0  0  0  0  0  0
  -30.0710  -15.4070   21.3580 N   0  0  0  0  0  0  0  0  0  0  0  0
  -29.1770  -15.1170   21.7280 H   0  0  0  0  0  0  0  0  0  0  0  0
  -25.2170  -13.8380   20.5150 C   0  0  0  0  0  0  0  0  0  0  0  0
  -24.1520  -13.0630   20.8820 C   0  0  0  0  0  0  0  0  0  0  0  0
  -24.6220  -11.7130   20.8610 C   0  0  0  0  0  0  0  0  0  0  0  0
  -26.2690  -12.9620   20.2990 N   0  0  0  0  0  0  0  0  0  0  0  0
  -25.9140  -11.6790   20.5600 N   0  0  0  0  0  0  0  0  0  0  0  0
  -23.9020  -10.4480   21.0540 C   0  0  0  0  0  0  0  0  0  0  0  0
  -24.3450   -9.4840   21.9880 C   0  0  0  0  0  3  0  0  0  0  0  0
  -23.6300   -8.2810   22.1680 C   0  0  0  0  0  3  0  0  0  0  0  0
  -22.4570   -8.0330   21.4180 C   0  0  0  0  0  0  0  0  0  0  0  0
  -22.0310   -8.9850   20.4740 C   0  0  0  0  0  3  0  0  0  0  0  0
  -22.7460  -10.1800   20.2910 C   0  0  0  0  0  3  0  0  0  0  0  0
  -21.7140   -6.8800   21.5070 O   0  0  0  0  0  0  0  0  0  0  0  0
  -21.6820   -6.1340   22.6560 C   0  0  0  0  0  0  0  0  0  0  0  0
  -21.2620   -6.6800   23.8880 C   0  0  0  0  0  3  0  0  0  0  0  0
  -21.1770   -5.8580   25.0300 C   0  0  0  0  0  3  0  0  0  0  0  0
  -21.5020   -4.4910   24.9400 C   0  0  0  0  0  0  0  0  0  0  0  0
  -21.9140   -3.9440   23.7130 C   0  0  0  0  0  3  0  0  0  0  0  0
  -22.0010   -4.7640   22.5730 C   0  0  0  0  0  0  0  0  0  0  0  0
  -22.3780   -4.2270   21.3880 F   0  0  0  0  0  0  0  0  0  0  0  0
  -21.4120   -3.6990   26.0340 F   0  0  0  0  0  0  0  0  0  0  0  0
  -22.7500  -13.5310   21.1480 C   0  0  0  0  0  0  0  0  0  0  0  0
  -22.0220  -12.8340   22.0110 N   0  0  0  0  0  0  0  0  0  0  0  0
  -22.3100  -14.5540   20.6240 O   0  0  0  0  0  0  0  0  0  0  0  0
  -22.3870  -12.0030   22.4550 H   0  0  0  0  0  0  0  0  0  0  0  0
  -21.0820  -13.1340   22.2310 H   0  0  0  0  0  0  0  0  0  0  0  0
  -25.3810  -15.2070   20.3260 N   0  0  0  0  0  0  0  0  0  0  0  0
  -24.6060  -15.8590   20.3810 H   0  0  0  0  0  0  0  0  0  0  0  0
  -26.2410  -15.6400   20.0140 H   0  0  0  0  0  0  0  0  0  0  0  0
  -28.8670  -25.7960   19.3150 C   0  0  0  0  0  2  0  0  0  0  0  0
  -28.4700  -26.7600   20.3000 O   0  0  0  0  0  0  0  0  0  0  0  0
  -24.5860  -31.8890   23.2500 C   0  0  0  0  0  0  0  0  0  0  0  0
  -27.2760  -27.4520   20.2010 C   0  0  0  0  0  0  0  0  0  0  0  0
  -23.3890  -30.4720   21.6110 C   0  0  0  0  0  3  0  0  0  0  0  0
  -24.8580  -28.9390   20.1810 C   0  0  0  0  0  0  0  0  0  0  0  0
  -25.9030  -30.8530   21.4030 C   0  0  0  0  0  2  0  0  0  0  0  0
  -26.0020  -29.4730   20.7820 C   0  0  0  0  0  0  0  0  0  0  0  0
  -27.2040  -28.7310   20.8030 C   0  0  0  0  0  3  0  0  0  0  0  0
  -26.1140  -26.9290   19.5880 C   0  0  0  0  0  3  0  0  0  0  0  0
  -24.9120  -27.6670   19.5760 C   0  0  0  0  0  3  0  0  0  0  0  0
  -23.6000  -29.7840   20.2300 C   0  0  0  0  0  2  0  0  0  0  0  0
  -24.6460  -31.0820   22.1510 N   0  0  0  0  0  0  0  0  0  0  0  0
  -23.5010  -32.1730   23.7720 O   0  0  0  0  0  0  0  0  0  0  0  0
  -22.7440  -29.4500   22.5740 C   0  0  0  0  0  0  0  0  0  0  0  0
  -21.4180  -29.2700   22.4540 N   0  0  0  0  0  0  0  0  0  0  0  0
  -23.4310  -28.8220   23.3840 O   0  0  0  0  0  0  0  0  0  0  0  0
  -20.9260  -29.8330   21.7750 H   0  0  0  0  0  0  0  0  0  0  0  0
  -18.0440  -28.0800   22.9470 C   0  0  0  0  0  0  0  0  0  0  0  0
  -20.6020  -28.3320   23.2210 C   0  0  0  0  0  3  0  0  0  0  0  0
  -20.7020  -26.9030   22.6380 C   0  0  0  0  0  2  0  0  0  0  0  0
  -19.5990  -26.5880   21.6240 C   0  0  0  0  0  2  0  0  0  0  0  0
  -18.2180  -26.7320   22.2700 C   0  0  0  0  0  2  0  0  0  0  0  0
  -19.1650  -28.8400   23.3790 C   0  0  0  0  0  0  0  0  0  0  0  0
  -18.9510  -30.1030   23.9690 C   0  0  0  0  0  3  0  0  0  0  0  0
  -17.6480  -30.6050   24.1440 C   0  0  0  0  0  3  0  0  0  0  0  0
  -16.5410  -29.8430   23.7290 C   0  0  0  0  0  3  0  0  0  0  0  0
  -16.7400  -28.5860   23.1320 C   0  0  0  0  0  3  0  0  0  0  0  0
  -25.8700  -32.5210   23.8780 C   0  0  0  0  0  3  0  0  0  0  0  0
  -25.5670  -33.9190   24.2030 N   0  0  0  0  0  0  0  0  0  0  0  0
  -25.9030  -34.9650   23.4380 C   0  0  0  0  0  0  0  0  0  0  0  0
  -26.5750  -34.8550   22.4080 O   0  0  0  0  0  0  0  0  0  0  0  0
  -24.9800  -34.0830   25.0080 H   0  0  0  0  0  0  0  0  0  0  0  0
  -24.1730  -36.7520   23.0660 C   0  0  0  0  0  1  0  0  0  0  0  0
  -25.4120  -36.3570   23.8840 C   0  0  0  0  0  3  0  0  0  0  0  0
  -27.5410  -37.2460   24.7180 C   0  0  0  0  0  1  0  0  0  0  0  0
  -26.4430  -37.4120   23.7690 N   0  0  0  0  0  0  0  0  0  0  0  0
  -26.0360  -38.3300   23.9210 H   0  0  0  0  0  0  0  0  0  0  0  0
  -26.3860  -31.7510   25.1560 C   0  0  1  0  0  0  0  0  0  0  0  0
  -25.2950  -31.5120   26.2270 C   0  0  0  0  0  1  0  0  0  0  0  0
  -26.9670  -30.3780   24.7510 C   0  0  0  0  0  1  0  0  0  0  0  0
  -27.5360  -32.5460   25.8170 C   0  0  0  0  0  1  0  0  0  0  0  0
  2  5  2  0
  2  4  1  0
  3  1  2  0
  4  6  2  0
  5  3  1  0
  6  1  1  0
  7  3  1  0
  7  9  1  0
  9  8  1  0
  9 10  1  1
 11  9  1  0
 11 12  1  0
 13 21  1  0
 14 19  1  0
 15 16  1  0
 15 14  1  0
 17 16  1  0
 17 26  1  0
 17 18  1  0
 19 13  1  0
 19 18  1  0
 20 13  2  0
 21 12  1  0
 21 22  1  0
 23 24  2  0
 24 43  1  0
 25 24  1  0
 25 28  1  0
 26 23  1  0
 26 27  1  0
 27 25  2  0
 28 29  1  0
 29 30  2  0
 31 34  1  0
 31 30  1  0
 32 31  2  0
 33 32  1  0
 33 28  2  0
 34 35  1  0
 35 36  1  0
 36 37  2  0
 38 37  1  0
 38 42  1  0
 39 38  2  0
 40 35  2  0
 40 39  1  0
 41 40  1  0
 43 44  1  0
 44 47  1  0
 44 46  1  0
 45 43  2  0
 48 49  1  0
 48 23  1  0
 50 48  1  0
 51  4  1  0
 51 52  1  0
 53 64  2  0
 54 52  1  0
 54 59  1  0
 55 63  1  0
 55 65  1  0
 56 62  1  0
 56 58  1  0
 57 63  1  0
 58 59  2  0
 58 57  1  0
 60 54  2  0
 61 60  1  0
 61 56  2  0
 62 55  1  0
 63 53  1  0
 65 67  2  0
 66 65  1  0
 68 66  1  0
 69 78  2  0
 69 74  1  0
 70 66  1  0
 70 74  1  0
 71 70  1  0
 72 73  1  0
 72 71  1  0
 73 69  1  0
 74 75  2  0
 75 76  1  0
 77 76  2  0
 78 77  1  0
 79 53  1  0
 79 80  1  0
 79 89  1  0
 80 83  1  0
 81 85  1  0
 81 80  1  0
 82 81  2  0
 85 84  1  0
 87 85  1  0
 87 88  1  0
 87 86  1  0
 89 92  1  1
 89 90  1  0
 91 89  1  0
M  ISO  4  13 100  21 100  51 101  52 101
M  END
>  <TORSDO>  (3) 
F 21

>  <SCORE>  (3) 
-13.753

>  <name>  (3) 
2

>  <ligand_id>  (3) 
2

>  <original_smiles>  (3) 
[H]c1nc(C([H])([H])[N+]([H])(C([H])([H])[H])C([H])([H])C([H])([H])N([H])C(=O)N2C([H])([H])C([H])([H])C([H])([H])C([H])(n3nc(-c4c([H])c([H])c(Oc5c([H])c([H])c(F)c([H])c5F)c([H])c4[H])c(C(=O)N([H])[H])c3N([H])[H])C2([H])[H])c([H])nc1C([H])([H])Oc1c([H])c([H])c2c(c1[H])C([H])([H])N(C(=O)C([H])(N([H])C(=O)C([H])(N([H])C([H])([H])[H])C([H])([H])[H])C(C([H])([H])[H])(C([H])([H])[H])C([H])([H])[H])C([H])(C(=O)N([H])C1([H])c3c([H])c([H])c([H])c([H])c3C([H])([H])C([H])([H])C1([H])[H])C2([H])[H]

>  <smiles>  (3) 
[H]c1nc(C([H])([H])[N+]([H])(C([H])([H])[H])C([H])([H])C([H])([H])N([H])C(=O)N2C([H])([H])C([H])([H])C([H])([H])C([H])(n3nc(-c4c([H])c([H])c(Oc5c([H])c([H])c(F)c([H])c5F)c([H])c4[H])c(C(=O)N([H])[H])c3N([H])[H])C2([H])[H])c([H])nc1C([H])([H])Oc1c([H])c([H])c2c(c1[H])C([H])([H])N(C(=O)C([H])(N([H])C(=O)C([H])(N([H])C([H])([H])[H])C([H])([H])[H])C(C([H])([H])[H])(C([H])([H])[H])C([H])([H])[H])C([H])(C(=O)N([H])C1([H])c3c([H])c([H])c([H])c([H])c3C([H])([H])C([H])([H])C1([H])[H])C2([H])[H]

> <Step>
50.0

> <Scaffold>
O=C(NC1CCCc2ccccc21)C1Cc2ccc(OCc3cnc(CNCCNC(=O)N4CCCC(n5ccc(-c6ccc(Oc7ccccc7)cc6)n5)C4)cn3)cc2CN1

> <SMILES>
CNC(C)C(=O)NC(C(=O)N1Cc2cc(OCc3cnc(CN(C)CCNC(=O)N4CCCC(n5nc(-c6ccc(Oc7ccc(F)cc7F)cc6)c(C(N)=O)c5N)C4)cn3)ccc2CC1C(=O)NC1CCCc2ccccc21)C(C)(C)C

> <Tanimoto ROCS sim>
0.18640799820423126

> <Custom alerts>
1.0

> <Linker Num Aromatic Rings>
1.0

> <Linker Effective Length>
1.0

> <ADV>
0.9935958981513977

> <PostDock Tanimoto ROCS sim>
0.9917976260185242

> <raw_Linker Num Aromatic Rings>
1.0

> <raw_Linker Effective Length>
9.0

> <raw_ADV>
-13.762999534606934

> <total_score>
0.9963483810424805

> <ID>
default_job_102

> <PostDock Tanimoto ROCS sim (re-score)>
0.9848017

> <raw_ADV (re-score)>
-13.753

$$$$
default_job_103
     RDKit          3D

 90 98  0  0  1  0  0  0  0  0999 V2000
  -30.1010  -19.1160   18.1310 C   0  0  0  0  0  3  0  0  0  0  0  0
  -30.2680  -18.0030   18.9750 C   0  0  0  0  0  3  0  0  0  0  0  0
  -29.6960  -20.3460   18.6830 C   0  0  0  0  0  3  0  0  0  0  0  0
  -30.0260  -18.1450   20.3510 C   0  0  0  0  0  0  0  0  0  0  0  0
  -29.4600  -20.4340   20.0670 C   0  0  0  0  0  0  0  0  0  0  0  0
  -29.6080  -19.3400   20.8780 N   0  0  0  0  0  0  0  0  0  0  0  0
  -30.3310  -16.9680   21.3140 C   0  0  0  0  0  2  0  0  0  0  0  0
  -30.6340  -14.5590   20.4900 C   0  0  0  0  0  0  0  0  0  0  0  0
  -30.3820  -12.3640   19.3600 C   0  0  0  0  0  2  0  0  0  0  0  0
  -29.4420  -12.5300   18.1460 C   0  0  0  0  0  2  0  0  0  0  0  0
  -27.9650  -12.3830   18.5710 C   0  0  0  0  0  2  0  0  0  0  0  0
  -27.6140  -13.2310   19.8230 C   0  0  0  0  0  3  0  0  0  0  0  0
  -28.6680  -13.0390   20.9370 C   0  0  0  0  0  2  0  0  0  0  0  0
  -29.9820  -13.3650   20.3640 N   0  0  0  0  0  0  0  0  0  0  0  0
  -31.7920  -14.7210   20.0970 O   0  0  0  0  0  0  0  0  0  0  0  0
  -29.8880  -15.5980   20.9400 N   0  0  0  0  0  0  0  0  0  0  0  0
  -28.9280  -15.3840   21.1590 H   0  0  0  0  0  0  0  0  0  0  0  0
  -25.2160  -13.8390   20.5250 C   0  0  0  0  0  0  0  0  0  0  0  0
  -24.1470  -13.0690   20.8930 C   0  0  0  0  0  0  0  0  0  0  0  0
  -24.6080  -11.7160   20.8710 C   0  0  0  0  0  0  0  0  0  0  0  0
  -26.2620  -12.9550   20.3010 N   0  0  0  0  0  0  0  0  0  0  0  0
  -25.8990  -11.6750   20.5680 N   0  0  0  0  0  0  0  0  0  0  0  0
  -23.8800  -10.4560   21.0620 C   0  0  0  0  0  0  0  0  0  0  0  0
  -24.3180   -9.4810   21.9860 C   0  0  0  0  0  3  0  0  0  0  0  0
  -23.5890   -8.2860   22.1660 C   0  0  0  0  0  3  0  0  0  0  0  0
  -22.4070   -8.0570   21.4210 C   0  0  0  0  0  0  0  0  0  0  0  0
  -21.9880   -9.0200   20.4850 C   0  0  0  0  0  3  0  0  0  0  0  0
  -22.7180  -10.2060   20.3030 C   0  0  0  0  0  3  0  0  0  0  0  0
  -21.6500   -6.9140   21.5120 O   0  0  0  0  0  0  0  0  0  0  0  0
  -21.6240   -6.1560   22.6540 C   0  0  0  0  0  0  0  0  0  0  0  0
  -21.2440   -6.6990   23.9010 C   0  0  0  0  0  3  0  0  0  0  0  0
  -21.1640   -5.8680   25.0360 C   0  0  0  0  0  3  0  0  0  0  0  0
  -21.4530   -4.4940   24.9260 C   0  0  0  0  0  0  0  0  0  0  0  0
  -21.8250   -3.9510   23.6840 C   0  0  0  0  0  3  0  0  0  0  0  0
  -21.9080   -4.7780   22.5510 C   0  0  0  0  0  0  0  0  0  0  0  0
  -22.2480   -4.2460   21.3520 F   0  0  0  0  0  0  0  0  0  0  0  0
  -21.3680   -3.6930   26.0140 F   0  0  0  0  0  0  0  0  0  0  0  0
  -22.7480  -13.5480   21.1520 C   0  0  0  0  0  0  0  0  0  0  0  0
  -22.0140  -12.8590   22.0180 N   0  0  0  0  0  0  0  0  0  0  0  0
  -22.3140  -14.5710   20.6240 O   0  0  0  0  0  0  0  0  0  0  0  0
  -22.3760  -12.0330   22.4720 H   0  0  0  0  0  0  0  0  0  0  0  0
  -21.0740  -13.1640   22.2340 H   0  0  0  0  0  0  0  0  0  0  0  0
  -25.3800  -15.2100   20.3420 N   0  0  0  0  0  0  0  0  0  0  0  0
  -24.6060  -15.8570   20.4400 H   0  0  0  0  0  0  0  0  0  0  0  0
  -26.2200  -15.6500   19.9880 H   0  0  0  0  0  0  0  0  0  0  0  0
  -29.0140  -21.6140   20.6730 O   0  0  0  0  0  0  0  0  0  0  0  0
  -29.6240  -22.8830   20.2930 C   0  0  0  0  0  2  0  0  0  0  0  0
  -28.7120  -24.0650   19.7680 C   0  0  0  0  0  2  0  0  0  0  0  0
  -28.3770  -25.2530   20.7440 C   0  0  0  0  0  2  0  0  0  0  0  0
  -28.4300  -26.6000   20.1780 O   0  0  0  0  0  0  0  0  0  0  0  0
  -24.6270  -31.8770   23.2260 C   0  0  0  0  0  0  0  0  0  0  0  0
  -27.2710  -27.3650   20.1920 C   0  0  0  0  0  0  0  0  0  0  0  0
  -23.4270  -30.4600   21.5960 C   0  0  0  0  0  3  0  0  0  0  0  0
  -24.8840  -28.9090   20.1810 C   0  0  0  0  0  0  0  0  0  0  0  0
  -25.9580  -30.8040   21.4060 C   0  0  0  0  0  2  0  0  0  0  0  0
  -26.0440  -29.4270   20.7690 C   0  0  0  0  0  0  0  0  0  0  0  0
  -27.2430  -28.6670   20.7620 C   0  0  0  0  0  3  0  0  0  0  0  0
  -26.0920  -26.8720   19.5970 C   0  0  0  0  0  3  0  0  0  0  0  0
  -24.9060  -27.6330   19.5890 C   0  0  0  0  0  3  0  0  0  0  0  0
  -23.6400  -29.7730   20.2200 C   0  0  0  0  0  2  0  0  0  0  0  0
  -24.6890  -31.0600   22.1360 N   0  0  0  0  0  0  0  0  0  0  0  0
  -23.5400  -32.1750   23.7390 O   0  0  0  0  0  0  0  0  0  0  0  0
  -22.7720  -29.4440   22.5610 C   0  0  0  0  0  0  0  0  0  0  0  0
  -21.4450  -29.2700   22.4420 N   0  0  0  0  0  0  0  0  0  0  0  0
  -23.4550  -28.8150   23.3730 O   0  0  0  0  0  0  0  0  0  0  0  0
  -20.9540  -29.8290   21.7580 H   0  0  0  0  0  0  0  0  0  0  0  0
  -18.0660  -28.0890   22.9520 C   0  0  0  0  0  0  0  0  0  0  0  0
  -20.6260  -28.3340   23.2140 C   0  0  0  0  0  3  0  0  0  0  0  0
  -20.7190  -26.9040   22.6330 C   0  0  0  0  0  2  0  0  0  0  0  0
  -19.6110  -26.5890   21.6230 C   0  0  0  0  0  2  0  0  0  0  0  0
  -18.2330  -26.7390   22.2730 C   0  0  0  0  0  2  0  0  0  0  0  0
  -19.1910  -28.8440   23.3790 C   0  0  0  0  0  0  0  0  0  0  0  0
  -18.9800  -30.1080   23.9740 C   0  0  0  0  0  3  0  0  0  0  0  0
  -17.6790  -30.6160   24.1450 C   0  0  0  0  0  3  0  0  0  0  0  0
  -16.5690  -29.8570   23.7350 C   0  0  0  0  0  3  0  0  0  0  0  0
  -16.7630  -28.5960   23.1440 C   0  0  0  0  0  3  0  0  0  0  0  0
  -25.9120  -32.5020   23.8570 C   0  0  0  0  0  3  0  0  0  0  0  0
  -25.6020  -33.8980   24.1940 N   0  0  0  0  0  0  0  0  0  0  0  0
  -25.9250  -34.9520   23.4330 C   0  0  0  0  0  0  0  0  0  0  0  0
  -26.5870  -34.8520   22.3970 O   0  0  0  0  0  0  0  0  0  0  0  0
  -25.0140  -34.0500   24.9990 H   0  0  0  0  0  0  0  0  0  0  0  0
  -24.1820  -36.7340   23.0990 C   0  0  0  0  0  1  0  0  0  0  0  0
  -25.4350  -36.3380   23.8960 C   0  0  0  0  0  3  0  0  0  0  0  0
  -27.5750  -37.2330   24.6990 C   0  0  0  0  0  1  0  0  0  0  0  0
  -26.4610  -37.3960   23.7710 N   0  0  0  0  0  0  0  0  0  0  0  0
  -26.0500  -38.3140   23.9250 H   0  0  0  0  0  0  0  0  0  0  0  0
  -26.4290  -31.7260   25.1300 C   0  0  1  0  0  0  0  0  0  0  0  0
  -25.3360  -31.4860   26.1980 C   0  0  0  0  0  1  0  0  0  0  0  0
  -27.0120  -30.3500   24.7340 C   0  0  0  0  0  1  0  0  0  0  0  0
  -27.5790  -32.5200   25.7960 C   0  0  0  0  0  1  0  0  0  0  0  0
  1  3  2  0
  1  2  1  0
  2  4  2  0
  3  5  1  0
  4  6  1  0
  4  7  1  0
  5 46  1  0
  5  6  2  0
  8 16  1  0
  9 14  1  0
 10 11  1  0
 10  9  1  0
 12 11  1  0
 12 21  1  0
 12 13  1  0
 14  8  1  0
 14 13  1  0
 15  8  2  0
 16 17  1  0
 16  7  1  0
 18 19  2  0
 19 38  1  0
 20 19  1  0
 20 23  1  0
 21 18  1  0
 21 22  1  0
 22 20  2  0
 23 24  1  0
 24 25  2  0
 26 29  1  0
 26 25  1  0
 27 26  2  0
 28 27  1  0
 28 23  2  0
 29 30  1  0
 30 31  1  0
 31 32  2  0
 33 32  1  0
 33 37  1  0
 34 33  2  0
 35 30  2  0
 35 34  1  0
 36 35  1  0
 38 39  1  0
 39 42  1  0
 39 41  1  0
 40 38  2  0
 43 44  1  0
 43 18  1  0
 45 43  1  0
 47 46  1  0
 48 47  1  0
 48 49  1  0
 50 52  1  0
 50 49  1  0
 51 62  2  0
 52 57  1  0
 53 61  1  0
 53 63  1  0
 54 60  1  0
 54 56  1  0
 55 61  1  0
 56 55  1  0
 57 56  2  0
 58 52  2  0
 59 58  1  0
 59 54  2  0
 60 53  1  0
 61 51  1  0
 63 65  2  0
 64 63  1  0
 66 64  1  0
 67 76  2  0
 67 72  1  0
 68 64  1  0
 68 72  1  0
 69 68  1  0
 70 71  1  0
 70 69  1  0
 71 67  1  0
 72 73  2  0
 73 74  1  0
 75 74  2  0
 76 75  1  0
 77 51  1  0
 77 78  1  0
 77 87  1  0
 78 81  1  0
 79 83  1  0
 79 78  1  0
 80 79  2  0
 83 82  1  0
 85 83  1  0
 85 86  1  0
 85 84  1  0
 87 90  1  1
 87 88  1  0
 89 87  1  0
M  ISO  4   8 100  16 100  49 101  50 101
M  END
>  <TORSDO>  (4) 
F 21

>  <SCORE>  (4) 
-13.522

>  <name>  (4) 
3

>  <ligand_id>  (4) 
3

>  <original_smiles>  (4) 
[H]c1c(OC([H])([H])C([H])([H])C([H])([H])Oc2c([H])c([H])c3c(c2[H])C([H])([H])N(C(=O)C([H])(N([H])C(=O)C([H])(N([H])C([H])([H])[H])C([H])([H])[H])C(C([H])([H])[H])(C([H])([H])[H])C([H])([H])[H])C([H])(C(=O)N([H])C2([H])c4c([H])c([H])c([H])c([H])c4C([H])([H])C([H])([H])C2([H])[H])C3([H])[H])nc(C([H])([H])N([H])C(=O)N2C([H])([H])C([H])([H])C([H])([H])C([H])(n3nc(-c4c([H])c([H])c(Oc5c([H])c([H])c(F)c([H])c5F)c([H])c4[H])c(C(=O)N([H])[H])c3N([H])[H])C2([H])[H])c([H])c1[H]

>  <smiles>  (4) 
[H]c1c(OC([H])([H])C([H])([H])C([H])([H])Oc2c([H])c([H])c3c(c2[H])C([H])([H])N(C(=O)C([H])(N([H])C(=O)C([H])(N([H])C([H])([H])[H])C([H])([H])[H])C(C([H])([H])[H])(C([H])([H])[H])C([H])([H])[H])C([H])(C(=O)N([H])C2([H])c4c([H])c([H])c([H])c([H])c4C([H])([H])C([H])([H])C2([H])[H])C3([H])[H])nc(C([H])([H])N([H])C(=O)N2C([H])([H])C([H])([H])C([H])([H])C([H])(n3nc(-c4c([H])c([H])c(Oc5c([H])c([H])c(F)c([H])c5F)c([H])c4[H])c(C(=O)N([H])[H])c3N([H])[H])C2([H])[H])c([H])c1[H]

> <Step>
120.0

> <Scaffold>
O=C(NC1CCCc2ccccc21)C1Cc2ccc(OCCCOc3cccc(CNC(=O)N4CCCC(n5ccc(-c6ccc(Oc7ccccc7)cc6)n5)C4)n3)cc2CN1

> <SMILES>
CNC(C)C(=O)NC(C(=O)N1Cc2cc(OCCCOc3cccc(CNC(=O)N4CCCC(n5nc(-c6ccc(Oc7ccc(F)cc7F)cc6)c(C(N)=O)c5N)C4)n3)ccc2CC1C(=O)NC1CCCc2ccccc21)C(C)(C)C

> <Tanimoto ROCS sim>
0.23140674829483032

> <Custom alerts>
1.0

> <Linker Num Aromatic Rings>
1.0

> <Linker Effective Length>
1.0

> <ADV>
0.9927954077720642

> <PostDock Tanimoto ROCS sim>
0.9925775527954102

> <raw_Linker Num Aromatic Rings>
1.0

> <raw_Linker Effective Length>
8.0

> <raw_ADV>
-13.557000160217285

> <total_score>
0.9963432550430298

> <ID>
default_job_103

> <PostDock Tanimoto ROCS sim (re-score)>
0.98474383

> <raw_ADV (re-score)>
-13.522

$$$$
default_job_104
     RDKit          3D

 94104  0  0  1  0  0  0  0  0999 V2000
  -26.2220  -22.7320   18.0470 C   0  0  0  0  0  3  0  0  0  0  0  0
  -26.9770  -23.8780   18.2900 C   0  0  0  0  0  3  0  0  0  0  0  0
  -26.6430  -21.5530   18.6600 C   0  0  0  0  0  0  0  0  0  0  0  0
  -27.8240  -21.4780   19.4110 C   0  0  0  0  0  0  0  0  0  0  0  0
  -28.0370  -23.8760   19.2200 C   0  0  0  0  0  0  0  0  0  0  0  0
  -25.8480  -20.2820   18.6310 C   0  0  0  0  0  2  0  0  0  0  0  0
  -26.8380  -19.2440   19.1420 C   0  0  0  0  0  2  0  0  0  0  0  0
  -27.9790  -19.9750   19.9280 C   0  0  0  0  0  3  0  0  0  0  0  0
  -28.4980  -22.6540   19.7440 N   0  0  0  0  0  0  0  0  0  0  0  0
  -29.3120  -18.1140   21.0540 C   0  0  0  0  0  2  0  0  0  0  0  0
  -29.4640  -17.9360   19.0460 C   0  0  0  0  0  2  0  0  0  0  0  0
  -30.1830  -17.1730   20.1840 C   0  0  0  0  0  3  0  0  0  0  0  0
  -29.2650  -19.1270   19.9540 N   0  0  1  0  0  4  0  0  0  0  0  0
  -30.0800  -19.7200   19.9920 H   0  0  0  0  0  0  0  0  0  0  0  0
  -30.7270  -14.6020   20.0150 C   0  0  0  0  0  0  0  0  0  0  0  0
  -30.4830  -12.3390   19.0160 C   0  0  0  0  0  2  0  0  0  0  0  0
  -29.4850  -12.4520   17.8400 C   0  0  0  0  0  2  0  0  0  0  0  0
  -28.0360  -12.2870   18.3410 C   0  0  0  0  0  2  0  0  0  0  0  0
  -27.7300  -13.1650   19.5820 C   0  0  0  0  0  3  0  0  0  0  0  0
  -28.8400  -13.0380   20.6490 C   0  0  0  0  0  2  0  0  0  0  0  0
  -30.1150  -13.3760   20.0000 N   0  0  0  0  0  0  0  0  0  0  0  0
  -31.8760  -14.7520   19.5880 O   0  0  0  0  0  0  0  0  0  0  0  0
  -29.9310  -15.6800   20.3180 N   0  0  0  0  0  0  0  0  0  0  0  0
  -29.0090  -15.4150   20.6410 H   0  0  0  0  0  0  0  0  0  0  0  0
  -25.3980  -13.7770   20.4580 C   0  0  0  0  0  0  0  0  0  0  0  0
  -24.3420  -13.0080   20.8680 C   0  0  0  0  0  0  0  0  0  0  0  0
  -24.7790  -11.6510   20.7690 C   0  0  0  0  0  0  0  0  0  0  0  0
  -26.4100  -12.8880   20.1360 N   0  0  0  0  0  0  0  0  0  0  0  0
  -26.0490  -11.6030   20.3820 N   0  0  0  0  0  0  0  0  0  0  0  0
  -24.0450  -10.3950   20.9660 C   0  0  0  0  0  0  0  0  0  0  0  0
  -24.4800   -9.4230   21.8930 C   0  0  0  0  0  3  0  0  0  0  0  0
  -23.7470   -8.2300   22.0740 C   0  0  0  0  0  3  0  0  0  0  0  0
  -22.5640   -8.0040   21.3310 C   0  0  0  0  0  0  0  0  0  0  0  0
  -22.1490   -8.9660   20.3940 C   0  0  0  0  0  3  0  0  0  0  0  0
  -22.8820  -10.1500   20.2100 C   0  0  0  0  0  3  0  0  0  0  0  0
  -21.8010   -6.8650   21.4240 O   0  0  0  0  0  0  0  0  0  0  0  0
  -21.7050   -6.1580   22.5950 C   0  0  0  0  0  0  0  0  0  0  0  0
  -21.2250   -6.7470   23.7850 C   0  0  0  0  0  3  0  0  0  0  0  0
  -21.0750   -5.9650   24.9470 C   0  0  0  0  0  3  0  0  0  0  0  0
  -21.3970   -4.5950   24.9210 C   0  0  0  0  0  0  0  0  0  0  0  0
  -21.8720   -4.0050   23.7360 C   0  0  0  0  0  3  0  0  0  0  0  0
  -22.0240   -4.7850   22.5760 C   0  0  0  0  0  0  0  0  0  0  0  0
  -22.4610   -4.2070   21.4310 F   0  0  0  0  0  0  0  0  0  0  0  0
  -21.2470   -3.8410   26.0360 F   0  0  0  0  0  0  0  0  0  0  0  0
  -22.9700  -13.4990   21.2350 C   0  0  0  0  0  0  0  0  0  0  0  0
  -22.2860  -12.7900   22.1250 N   0  0  0  0  0  0  0  0  0  0  0  0
  -22.5190  -14.5440   20.7680 O   0  0  0  0  0  0  0  0  0  0  0  0
  -22.6680  -11.9430   22.5190 H   0  0  0  0  0  0  0  0  0  0  0  0
  -21.3670  -13.0970   22.4140 H   0  0  0  0  0  0  0  0  0  0  0  0
  -25.5720  -15.1490   20.3060 N   0  0  0  0  0  0  0  0  0  0  0  0
  -24.8050  -15.7970   20.4510 H   0  0  0  0  0  0  0  0  0  0  0  0
  -26.3620  -15.5700   19.8370 H   0  0  0  0  0  0  0  0  0  0  0  0
  -28.7970  -25.2620   19.3660 C   0  0  0  0  0  2  0  0  0  0  0  0
  -28.3850  -26.4210   20.2140 O   0  0  0  0  0  0  0  0  0  0  0  0
  -24.5490  -31.7810   23.1340 C   0  0  0  0  0  0  0  0  0  0  0  0
  -27.2600  -27.2540   20.0760 C   0  0  0  0  0  0  0  0  0  0  0  0
  -23.3870  -30.3700   21.4800 C   0  0  0  0  0  3  0  0  0  0  0  0
  -24.8750  -28.8560   20.0550 C   0  0  0  0  0  0  0  0  0  0  0  0
  -25.9290  -30.7120   21.3420 C   0  0  0  0  0  2  0  0  0  0  0  0
  -26.0300  -29.3440   20.6740 C   0  0  0  0  0  0  0  0  0  0  0  0
  -27.2200  -28.5550   20.6790 C   0  0  0  0  0  3  0  0  0  0  0  0
  -26.0710  -26.8180   19.4600 C   0  0  0  0  0  3  0  0  0  0  0  0
  -24.9010  -27.5980   19.4350 C   0  0  0  0  0  3  0  0  0  0  0  0
  -23.6220  -29.7070   20.1000 C   0  0  0  0  0  2  0  0  0  0  0  0
  -24.6410  -30.9680   22.0430 N   0  0  0  0  0  0  0  0  0  0  0  0
  -23.4480  -32.0710   23.6230 O   0  0  0  0  0  0  0  0  0  0  0  0
  -22.7240  -29.3400   22.4260 C   0  0  0  0  0  0  0  0  0  0  0  0
  -21.4010  -29.1490   22.2810 N   0  0  0  0  0  0  0  0  0  0  0  0
  -23.3990  -28.7150   23.2470 O   0  0  0  0  0  0  0  0  0  0  0  0
  -20.9170  -29.7100   21.5930 H   0  0  0  0  0  0  0  0  0  0  0  0
  -18.0310  -27.9120   22.7250 C   0  0  0  0  0  0  0  0  0  0  0  0
  -20.5810  -28.1950   23.0310 C   0  0  0  0  0  3  0  0  0  0  0  0
  -20.7070  -26.7700   22.4440 C   0  0  0  0  0  2  0  0  0  0  0  0
  -19.6220  -26.4440   21.4110 C   0  0  0  0  0  2  0  0  0  0  0  0
  -18.2300  -26.5700   22.0380 C   0  0  0  0  0  2  0  0  0  0  0  0
  -19.1350  -28.6810   23.1760 C   0  0  0  0  0  0  0  0  0  0  0  0
  -18.8940  -29.9370   23.7760 C   0  0  0  0  0  3  0  0  0  0  0  0
  -17.5830  -30.4220   23.9320 C   0  0  0  0  0  3  0  0  0  0  0  0
  -16.4920  -29.6470   23.4970 C   0  0  0  0  0  3  0  0  0  0  0  0
  -16.7180  -28.3950   22.8970 C   0  0  0  0  0  3  0  0  0  0  0  0
  -25.8140  -32.4140   23.7950 C   0  0  0  0  0  3  0  0  0  0  0  0
  -25.4900  -33.8080   24.1270 N   0  0  0  0  0  0  0  0  0  0  0  0
  -25.7980  -34.8650   23.3640 C   0  0  0  0  0  0  0  0  0  0  0  0
  -26.4590  -34.7700   22.3270 O   0  0  0  0  0  0  0  0  0  0  0  0
  -24.9010  -33.9560   24.9330 H   0  0  0  0  0  0  0  0  0  0  0  0
  -24.0220  -36.6180   23.0460 C   0  0  0  0  0  1  0  0  0  0  0  0
  -25.2930  -36.2470   23.8260 C   0  0  0  0  0  3  0  0  0  0  0  0
  -27.4270  -37.1840   24.5950 C   0  0  0  0  0  1  0  0  0  0  0  0
  -26.2980  -37.3210   23.6780 N   0  0  0  0  0  0  0  0  0  0  0  0
  -25.8760  -38.2330   23.8270 H   0  0  0  0  0  0  0  0  0  0  0  0
  -26.3060  -31.6440   25.0810 C   0  0  1  0  0  0  0  0  0  0  0  0
  -25.1890  -31.3980   26.1230 C   0  0  0  0  0  1  0  0  0  0  0  0
  -26.9100  -30.2730   24.7050 C   0  0  0  0  0  1  0  0  0  0  0  0
  -27.4370  -32.4460   25.7690 C   0  0  0  0  0  1  0  0  0  0  0  0
  1  2  2  0
  1  3  1  0
  2  5  1  0
  3  4  2  0
  4  9  1  0
  4  8  1  0
  5 53  1  0
  5  9  2  0
  6  3  1  0
  6  7  1  0
  8  7  1  0
  8 13  1  0
 11 13  1  0
 11 12  1  0
 12 23  1  0
 12 10  1  0
 13 14  1  1
 13 10  1  0
 15 23  1  0
 16 21  1  0
 17 18  1  0
 17 16  1  0
 19 18  1  0
 19 28  1  0
 19 20  1  0
 21 15  1  0
 21 20  1  0
 22 15  2  0
 23 24  1  0
 25 26  2  0
 26 45  1  0
 27 26  1  0
 27 30  1  0
 28 29  1  0
 28 25  1  0
 29 27  2  0
 30 31  1  0
 31 32  2  0
 33 36  1  0
 33 32  1  0
 34 33  2  0
 35 34  1  0
 35 30  2  0
 36 37  1  0
 37 38  1  0
 38 39  2  0
 40 39  1  0
 40 44  1  0
 41 40  2  0
 42 37  2  0
 42 41  1  0
 43 42  1  0
 45 46  1  0
 46 49  1  0
 46 48  1  0
 47 45  2  0
 50 51  1  0
 50 25  1  0
 52 50  1  0
 53 54  1  0
 55 66  2  0
 56 54  1  0
 56 61  1  0
 57 65  1  0
 57 67  1  0
 58 64  1  0
 58 60  1  0
 59 65  1  0
 60 61  2  0
 60 59  1  0
 62 56  2  0
 63 62  1  0
 63 58  2  0
 64 57  1  0
 65 55  1  0
 67 69  2  0
 68 67  1  0
 70 68  1  0
 71 80  2  0
 71 76  1  0
 72 68  1  0
 72 76  1  0
 73 72  1  0
 74 75  1  0
 74 73  1  0
 75 71  1  0
 76 77  2  0
 77 78  1  0
 79 78  2  0
 80 79  1  0
 81 55  1  0
 81 82  1  0
 81 91  1  0
 82 85  1  0
 83 87  1  0
 83 82  1  0
 84 83  2  0
 87 86  1  0
 89 87  1  0
 89 90  1  0
 89 88  1  0
 91 94  1  1
 91 92  1  0
 93 91  1  0
M  ISO  4  15 100  23 100  53 101  54 101
M  END
>  <TORSDO>  (5) 
F 18

>  <SCORE>  (5) 
-14.09

>  <name>  (5) 
4

>  <ligand_id>  (5) 
4

>  <original_smiles>  (5) 
[H]c1c(C([H])([H])Oc2c([H])c([H])c3c(c2[H])C([H])([H])N(C(=O)C([H])(N([H])C(=O)C([H])(N([H])C([H])([H])[H])C([H])([H])[H])C(C([H])([H])[H])(C([H])([H])[H])C([H])([H])[H])C([H])(C(=O)N([H])C2([H])c4c([H])c([H])c([H])c([H])c4C([H])([H])C([H])([H])C2([H])[H])C3([H])[H])nc2c(c1[H])C([H])([H])C([H])([H])C2([H])[N+]1([H])C([H])([H])C([H])(N([H])C(=O)N2C([H])([H])C([H])([H])C([H])([H])C([H])(n3nc(-c4c([H])c([H])c(Oc5c([H])c([H])c(F)c([H])c5F)c([H])c4[H])c(C(=O)N([H])[H])c3N([H])[H])C2([H])[H])C1([H])[H]

>  <smiles>  (5) 
[H]c1c(C([H])([H])Oc2c([H])c([H])c3c(c2[H])C([H])([H])N(C(=O)C([H])(N([H])C(=O)C([H])(N([H])C([H])([H])[H])C([H])([H])[H])C(C([H])([H])[H])(C([H])([H])[H])C([H])([H])[H])C([H])(C(=O)N([H])C2([H])c4c([H])c([H])c([H])c([H])c4C([H])([H])C([H])([H])C2([H])[H])C3([H])[H])nc2c(c1[H])C([H])([H])C([H])([H])C2([H])[N+]1([H])C([H])([H])C([H])(N([H])C(=O)N2C([H])([H])C([H])([H])C([H])([H])C([H])(n3nc(-c4c([H])c([H])c(Oc5c([H])c([H])c(F)c([H])c5F)c([H])c4[H])c(C(=O)N([H])[H])c3N([H])[H])C2([H])[H])C1([H])[H]

> <Step>
170.0

> <Scaffold>
O=C(NC1CCCc2ccccc21)C1Cc2ccc(OCc3ccc4c(n3)C(N3CC(NC(=O)N5CCCC(n6ccc(-c7ccc(Oc8ccccc8)cc7)n6)C5)C3)CC4)cc2CN1

> <SMILES>
CNC(C)C(=O)NC(C(=O)N1Cc2cc(OCc3ccc4c(n3)C(N3CC(NC(=O)N5CCCC(n6nc(-c7ccc(Oc8ccc(F)cc8F)cc7)c(C(N)=O)c6N)C5)C3)CC4)ccc2CC1C(=O)NC1CCCc2ccccc21)C(C)(C)C

> <Tanimoto ROCS sim>
0.21918398141860962

> <Custom alerts>
1.0

> <Linker Num Aromatic Rings>
1.0

> <Linker Effective Length>
1.0

> <ADV>
0.9961754083633423

> <PostDock Tanimoto ROCS sim>
0.9891882538795471

> <raw_Linker Num Aromatic Rings>
1.0

> <raw_Linker Effective Length>
8.0

> <raw_ADV>
-14.663000106811523

> <total_score>
0.9963408708572388

> <ID>
default_job_104

> <PostDock Tanimoto ROCS sim (re-score)>
0.96724665

> <raw_ADV (re-score)>
-14.09

$$$$
default_job_105
     RDKit          3D

 91100  0  0  1  0  0  0  0  0999 V2000
  -28.0290  -22.7310   18.8100 C   0  0  0  0  0  3  0  0  0  0  0  0
  -29.4780  -21.7840   20.8960 C   0  0  0  0  0  3  0  0  0  0  0  0
  -29.0540  -20.7770   19.9660 C   0  0  0  0  0  0  0  0  0  0  0  0
  -28.2830  -21.3250   18.8940 C   0  0  0  0  0  0  0  0  0  0  0  0
  -28.5420  -23.6680   19.7410 C   0  0  0  0  0  0  0  0  0  0  0  0
  -27.7640  -20.4560   17.7580 C   0  0  0  0  0  1  0  0  0  0  0  0
  -29.2570  -23.1500   20.7880 N   0  0  0  0  0  0  0  0  0  0  0  0
  -30.6770  -14.8100   20.4130 C   0  0  0  0  0  0  0  0  0  0  0  0
  -30.3940  -12.5200   19.4440 C   0  0  0  0  0  2  0  0  0  0  0  0
  -29.4790  -12.5260   18.2040 C   0  0  0  0  0  2  0  0  0  0  0  0
  -28.0150  -12.3280   18.6280 C   0  0  0  0  0  2  0  0  0  0  0  0
  -27.6120  -13.2540   19.8050 C   0  0  0  0  0  3  0  0  0  0  0  0
  -28.6650  -13.2810   20.9370 C   0  0  0  0  0  2  0  0  0  0  0  0
  -29.9520  -13.6340   20.3240 N   0  0  0  0  0  0  0  0  0  0  0  0
  -31.8900  -14.7360   20.1890 O   0  0  0  0  0  0  0  0  0  0  0  0
  -30.5700  -18.7430   21.0150 C   0  0  0  0  0  2  0  0  0  0  0  0
  -28.3930  -18.1230   20.2310 C   0  0  0  0  0  2  0  0  0  0  0  0
  -31.0760  -17.2460   20.8440 C   0  0  0  0  0  2  0  0  0  0  0  0
  -28.8160  -16.5910   20.0610 C   0  0  0  0  0  2  0  0  0  0  0  0
  -29.4880  -19.2140   20.0080 C   0  0  0  0  0  3  0  0  0  0  0  0
  -30.1210  -16.1010   20.6020 N   0  0  0  0  0  0  0  0  0  0  0  0
  -25.2240  -13.8370   20.5200 C   0  0  0  0  0  0  0  0  0  0  0  0
  -24.1580  -13.0580   20.8830 C   0  0  0  0  0  0  0  0  0  0  0  0
  -24.6290  -11.7110   20.8670 C   0  0  0  0  0  0  0  0  0  0  0  0
  -26.2730  -12.9600   20.2980 N   0  0  0  0  0  0  0  0  0  0  0  0
  -25.9240  -11.6760   20.5740 N   0  0  0  0  0  0  0  0  0  0  0  0
  -23.9050  -10.4480   21.0520 C   0  0  0  0  0  0  0  0  0  0  0  0
  -24.3410   -9.4770   21.9810 C   0  0  0  0  0  3  0  0  0  0  0  0
  -23.6180   -8.2790   22.1570 C   0  0  0  0  0  3  0  0  0  0  0  0
  -22.4450   -8.0420   21.4020 C   0  0  0  0  0  0  0  0  0  0  0  0
  -22.0280   -9.0000   20.4620 C   0  0  0  0  0  3  0  0  0  0  0  0
  -22.7500  -10.1920   20.2840 C   0  0  0  0  0  3  0  0  0  0  0  0
  -21.6930   -6.8930   21.4850 O   0  0  0  0  0  0  0  0  0  0  0  0
  -21.6580   -6.1390   22.6320 C   0  0  0  0  0  0  0  0  0  0  0  0
  -21.2540   -6.6830   23.8700 C   0  0  0  0  0  3  0  0  0  0  0  0
  -21.1670   -5.8540   25.0070 C   0  0  0  0  0  3  0  0  0  0  0  0
  -21.4720   -4.4830   24.9050 C   0  0  0  0  0  0  0  0  0  0  0  0
  -21.8670   -3.9390   23.6700 C   0  0  0  0  0  3  0  0  0  0  0  0
  -21.9570   -4.7640   22.5370 C   0  0  0  0  0  0  0  0  0  0  0  0
  -22.3160   -4.2320   21.3440 F   0  0  0  0  0  0  0  0  0  0  0  0
  -21.3830   -3.6830   25.9940 F   0  0  0  0  0  0  0  0  0  0  0  0
  -22.7570  -13.5320   21.1340 C   0  0  0  0  0  0  0  0  0  0  0  0
  -22.0240  -12.8410   22.0020 N   0  0  0  0  0  0  0  0  0  0  0  0
  -22.3190  -14.5500   20.5990 O   0  0  0  0  0  0  0  0  0  0  0  0
  -22.3910  -12.0170   22.4540 H   0  0  0  0  0  0  0  0  0  0  0  0
  -21.0840  -13.1420   22.2150 H   0  0  0  0  0  0  0  0  0  0  0  0
  -25.3740  -15.2050   20.3350 N   0  0  0  0  0  0  0  0  0  0  0  0
  -24.5950  -15.8450   20.4420 H   0  0  0  0  0  0  0  0  0  0  0  0
  -26.2150  -15.6600   20.0060 H   0  0  0  0  0  0  0  0  0  0  0  0
  -28.5500  -25.2290   19.3470 C   0  0  0  0  0  2  0  0  0  0  0  0
  -28.3300  -26.3990   20.2530 O   0  0  0  0  0  0  0  0  0  0  0  0
  -24.6080  -31.8670   23.2080 C   0  0  0  0  0  0  0  0  0  0  0  0
  -27.2220  -27.2720   20.1470 C   0  0  0  0  0  0  0  0  0  0  0  0
  -23.4050  -30.4610   21.5780 C   0  0  0  0  0  3  0  0  0  0  0  0
  -24.8550  -28.9060   20.1430 C   0  0  0  0  0  0  0  0  0  0  0  0
  -25.9470  -30.7670   21.3990 C   0  0  0  0  0  2  0  0  0  0  0  0
  -26.0240  -29.3870   20.7450 C   0  0  0  0  0  0  0  0  0  0  0  0
  -27.2030  -28.5780   20.7460 C   0  0  0  0  0  3  0  0  0  0  0  0
  -26.0280  -26.8530   19.5190 C   0  0  0  0  0  3  0  0  0  0  0  0
  -24.8620  -27.6470   19.5190 C   0  0  0  0  0  3  0  0  0  0  0  0
  -23.6150  -29.7780   20.1990 C   0  0  0  0  0  2  0  0  0  0  0  0
  -24.6740  -31.0470   22.1200 N   0  0  0  0  0  0  0  0  0  0  0  0
  -23.5190  -32.1730   23.7130 O   0  0  0  0  0  0  0  0  0  0  0  0
  -22.7410  -29.4480   22.5430 C   0  0  0  0  0  0  0  0  0  0  0  0
  -21.4140  -29.2740   22.4230 N   0  0  0  0  0  0  0  0  0  0  0  0
  -23.4210  -28.8190   23.3590 O   0  0  0  0  0  0  0  0  0  0  0  0
  -20.9240  -29.8340   21.7390 H   0  0  0  0  0  0  0  0  0  0  0  0
  -18.0340  -28.0840   22.9350 C   0  0  0  0  0  0  0  0  0  0  0  0
  -20.5940  -28.3370   23.1950 C   0  0  0  0  0  3  0  0  0  0  0  0
  -20.6890  -26.9070   22.6130 C   0  0  0  0  0  2  0  0  0  0  0  0
  -19.5830  -26.5900   21.6020 C   0  0  0  0  0  2  0  0  0  0  0  0
  -18.2030  -26.7370   22.2510 C   0  0  0  0  0  2  0  0  0  0  0  0
  -19.1560  -28.8410   23.3630 C   0  0  0  0  0  0  0  0  0  0  0  0
  -18.9420  -30.1020   23.9620 C   0  0  0  0  0  3  0  0  0  0  0  0
  -17.6390  -30.6040   24.1400 C   0  0  0  0  0  3  0  0  0  0  0  0
  -16.5310  -29.8430   23.7280 C   0  0  0  0  0  3  0  0  0  0  0  0
  -16.7290  -28.5860   23.1300 C   0  0  0  0  0  3  0  0  0  0  0  0
  -25.8920  -32.4910   23.8430 C   0  0  0  0  0  3  0  0  0  0  0  0
  -25.5840  -33.8870   24.1820 N   0  0  0  0  0  0  0  0  0  0  0  0
  -25.9150  -34.9450   23.4310 C   0  0  0  0  0  0  0  0  0  0  0  0
  -26.5830  -34.8480   22.3980 O   0  0  0  0  0  0  0  0  0  0  0  0
  -24.9920  -34.0350   24.9860 H   0  0  0  0  0  0  0  0  0  0  0  0
  -24.1850  -36.7410   23.0930 C   0  0  0  0  0  1  0  0  0  0  0  0
  -25.4280  -36.3310   23.8980 C   0  0  0  0  0  3  0  0  0  0  0  0
  -27.5670  -37.2090   24.7250 C   0  0  0  0  0  1  0  0  0  0  0  0
  -26.4590  -37.3860   23.7900 N   0  0  0  0  0  0  0  0  0  0  0  0
  -26.0540  -38.3030   23.9480 H   0  0  0  0  0  0  0  0  0  0  0  0
  -26.4030  -31.7150   25.1190 C   0  0  1  0  0  0  0  0  0  0  0  0
  -25.3070  -31.4840   26.1870 C   0  0  0  0  0  1  0  0  0  0  0  0
  -26.9820  -30.3350   24.7310 C   0  0  0  0  0  1  0  0  0  0  0  0
  -27.5540  -32.5050   25.7860 C   0  0  0  0  0  1  0  0  0  0  0  0
  1  4  2  0
  1  5  1  0
  3  2  2  0
  4  3  1  0
  5  7  2  0
  6  4  1  0
  7  2  1  0
  8 21  1  0
  9 14  1  0
 10 11  1  0
 10  9  1  0
 12 11  1  0
 12 25  1  0
 12 13  1  0
 14  8  1  0
 14 13  1  0
 15  8  2  0
 18 16  1  0
 19 17  1  0
 19 21  1  0
 20  3  1  0
 20 17  1  0
 20 16  1  0
 21 18  1  0
 22 23  2  0
 23 42  1  0
 24 23  1  0
 24 27  1  0
 25 22  1  0
 25 26  1  0
 26 24  2  0
 27 28  1  0
 28 29  2  0
 30 33  1  0
 30 29  1  0
 31 30  2  0
 32 31  1  0
 32 27  2  0
 33 34  1  0
 34 35  1  0
 35 36  2  0
 37 36  1  0
 37 41  1  0
 38 37  2  0
 39 34  2  0
 39 38  1  0
 40 39  1  0
 42 43  1  0
 43 46  1  0
 43 45  1  0
 44 42  2  0
 47 48  1  0
 47 22  1  0
 49 47  1  0
 50  5  1  0
 50 51  1  0
 52 63  2  0
 53 51  1  0
 53 58  1  0
 54 62  1  0
 54 64  1  0
 55 61  1  0
 55 57  1  0
 56 62  1  0
 57 58  2  0
 57 56  1  0
 59 60  1  0
 59 53  2  0
 60 55  2  0
 61 54  1  0
 62 52  1  0
 64 66  2  0
 65 64  1  0
 67 65  1  0
 68 77  2  0
 68 73  1  0
 69 65  1  0
 69 73  1  0
 70 69  1  0
 71 72  1  0
 71 70  1  0
 72 68  1  0
 73 74  2  0
 74 75  1  0
 76 75  2  0
 77 76  1  0
 78 52  1  0
 78 79  1  0
 78 88  1  0
 79 82  1  0
 80 84  1  0
 80 79  1  0
 81 80  2  0
 84 83  1  0
 86 84  1  0
 86 87  1  0
 86 85  1  0
 88 91  1  1
 88 89  1  0
 90 88  1  0
M  ISO  4   8 100  21 100  50 101  51 101
M  END
>  <TORSDO>  (6) 
F 17

>  <SCORE>  (6) 
-15.403

>  <name>  (6) 
5

>  <ligand_id>  (6) 
5

>  <original_smiles>  (6) 
[H]c1nc(C([H])([H])Oc2c([H])c([H])c3c(c2[H])C([H])([H])N(C(=O)C([H])(N([H])C(=O)C([H])(N([H])C([H])([H])[H])C([H])([H])[H])C(C([H])([H])[H])(C([H])([H])[H])C([H])([H])[H])C([H])(C(=O)N([H])C2([H])c4c([H])c([H])c([H])c([H])c4C([H])([H])C([H])([H])C2([H])[H])C3([H])[H])c([H])c(C([H])([H])[H])c1C1([H])C([H])([H])C([H])([H])N(C(=O)N2C([H])([H])C([H])([H])C([H])([H])C([H])(n3nc(-c4c([H])c([H])c(Oc5c([H])c([H])c(F)c([H])c5F)c([H])c4[H])c(C(=O)N([H])[H])c3N([H])[H])C2([H])[H])C([H])([H])C1([H])[H]

>  <smiles>  (6) 
[H]c1nc(C([H])([H])Oc2c([H])c([H])c3c(c2[H])C([H])([H])N(C(=O)C([H])(N([H])C(=O)C([H])(N([H])C([H])([H])[H])C([H])([H])[H])C(C([H])([H])[H])(C([H])([H])[H])C([H])([H])[H])C([H])(C(=O)N([H])C2([H])c4c([H])c([H])c([H])c([H])c4C([H])([H])C([H])([H])C2([H])[H])C3([H])[H])c([H])c(C([H])([H])[H])c1C1([H])C([H])([H])C([H])([H])N(C(=O)N2C([H])([H])C([H])([H])C([H])([H])C([H])(n3nc(-c4c([H])c([H])c(Oc5c([H])c([H])c(F)c([H])c5F)c([H])c4[H])c(C(=O)N([H])[H])c3N([H])[H])C2([H])[H])C([H])([H])C1([H])[H]

> <Step>
178.0

> <Scaffold>
O=C(NC1CCCc2ccccc21)C1Cc2ccc(OCc3ccc(C4CCN(C(=O)N5CCCC(n6ccc(-c7ccc(Oc8ccccc8)cc7)n6)C5)CC4)cn3)cc2CN1

> <SMILES>
CNC(C)C(=O)NC(C(=O)N1Cc2cc(OCc3cc(C)c(C4CCN(C(=O)N5CCCC(n6nc(-c7ccc(Oc8ccc(F)cc8F)cc7)c(C(N)=O)c6N)C5)CC4)cn3)ccc2CC1C(=O)NC1CCCc2ccccc21)C(C)(C)C

> <Tanimoto ROCS sim>
0.27391868829727173

> <Custom alerts>
1.0

> <Linker Num Aromatic Rings>
1.0

> <Linker Effective Length>
1.0

> <ADV>
0.9974958300590515

> <PostDock Tanimoto ROCS sim>
0.9878663420677185

> <raw_Linker Num Aromatic Rings>
1.0

> <raw_Linker Effective Length>
8.0

> <raw_ADV>
-15.401000022888184

> <total_score>
0.9963405728340149

> <ID>
default_job_105

> <PostDock Tanimoto ROCS sim (re-score)>
0.98263115

> <raw_ADV (re-score)>
-15.403

$$$$
default_job_106
     RDKit          3D

 93102  0  0  1  0  0  0  0  0999 V2000
  -29.1510  -21.8710   17.8910 C   0  0  0  0  0  3  0  0  0  0  0  0
  -28.6310  -22.9400   18.6310 C   0  0  0  0  0  3  0  0  0  0  0  0
  -29.4300  -20.6360   18.5120 C   0  0  0  0  0  0  0  0  0  0  0  0
  -29.1350  -20.4700   19.8960 C   0  0  0  0  0  0  0  0  0  0  0  0
  -28.4000  -22.7860   20.0010 C   0  0  0  0  0  0  0  0  0  0  0  0
  -30.0380  -19.5650   17.6110 C   0  0  0  0  0  1  0  0  0  0  0  0
  -28.6500  -21.5580   20.6060 N   0  0  0  0  0  0  0  0  0  0  0  0
  -30.6540  -14.8050   20.4160 C   0  0  0  0  0  0  0  0  0  0  0  0
  -30.4300  -12.5500   19.3500 C   0  0  0  0  0  2  0  0  0  0  0  0
  -29.5180  -12.5600   18.1070 C   0  0  0  0  0  2  0  0  0  0  0  0
  -28.0510  -12.3280   18.5140 C   0  0  0  0  0  2  0  0  0  0  0  0
  -27.6280  -13.2450   19.6840 C   0  0  0  0  0  3  0  0  0  0  0  0
  -28.6620  -13.2430   20.8350 C   0  0  0  0  0  2  0  0  0  0  0  0
  -29.9630  -13.6180   20.2710 N   0  0  0  0  0  0  0  0  0  0  0  0
  -31.8470  -14.8200   20.0900 O   0  0  0  0  0  0  0  0  0  0  0  0
  -28.4400  -17.8880   20.0970 C   0  0  0  0  0  2  0  0  0  0  0  0
  -30.7440  -18.5060   20.8340 C   0  0  0  0  0  2  0  0  0  0  0  0
  -28.6570  -16.4960   20.8090 C   0  0  0  0  0  2  0  0  0  0  0  0
  -30.8490  -17.0880   21.5110 C   0  0  0  0  0  2  0  0  0  0  0  0
  -29.2970  -19.0680   20.6450 C   0  0  0  0  0  3  0  0  0  0  0  0
  -30.0610  -15.9970   20.8680 N   0  0  0  0  0  0  0  0  0  0  0  0
  -25.2460  -13.8490   20.4040 C   0  0  0  0  0  0  0  0  0  0  0  0
  -24.1830  -13.0750   20.7830 C   0  0  0  0  0  0  0  0  0  0  0  0
  -24.6560  -11.7280   20.7750 C   0  0  0  0  0  0  0  0  0  0  0  0
  -26.2910  -12.9660   20.1790 N   0  0  0  0  0  0  0  0  0  0  0  0
  -25.9470  -11.6890   20.4760 N   0  0  0  0  0  0  0  0  0  0  0  0
  -23.9380  -10.4640   20.9720 C   0  0  0  0  0  0  0  0  0  0  0  0
  -24.3550   -9.5230   21.9390 C   0  0  0  0  0  3  0  0  0  0  0  0
  -23.6410   -8.3200   22.1180 C   0  0  0  0  0  3  0  0  0  0  0  0
  -22.4950   -8.0540   21.3330 C   0  0  0  0  0  0  0  0  0  0  0  0
  -22.0990   -8.9810   20.3540 C   0  0  0  0  0  3  0  0  0  0  0  0
  -22.8140  -10.1750   20.1720 C   0  0  0  0  0  3  0  0  0  0  0  0
  -21.7490   -6.9040   21.4250 O   0  0  0  0  0  0  0  0  0  0  0  0
  -21.6580   -6.1990   22.5960 C   0  0  0  0  0  0  0  0  0  0  0  0
  -21.1490   -6.7790   23.7780 C   0  0  0  0  0  3  0  0  0  0  0  0
  -21.0100   -5.9970   24.9430 C   0  0  0  0  0  3  0  0  0  0  0  0
  -21.3680   -4.6360   24.9250 C   0  0  0  0  0  0  0  0  0  0  0  0
  -21.8670   -4.0550   23.7460 C   0  0  0  0  0  3  0  0  0  0  0  0
  -22.0110   -4.8350   22.5850 C   0  0  0  0  0  0  0  0  0  0  0  0
  -22.4770   -4.2680   21.4460 F   0  0  0  0  0  0  0  0  0  0  0  0
  -21.2250   -3.8810   26.0390 F   0  0  0  0  0  0  0  0  0  0  0  0
  -22.7790  -13.5460   21.0300 C   0  0  0  0  0  0  0  0  0  0  0  0
  -22.0430  -12.8530   21.8930 N   0  0  0  0  0  0  0  0  0  0  0  0
  -22.3400  -14.5610   20.4910 O   0  0  0  0  0  0  0  0  0  0  0  0
  -22.4100  -12.0340   22.3540 H   0  0  0  0  0  0  0  0  0  0  0  0
  -21.0980  -13.1470   22.0980 H   0  0  0  0  0  0  0  0  0  0  0  0
  -25.3920  -15.2150   20.1980 N   0  0  0  0  0  0  0  0  0  0  0  0
  -24.6060  -15.8530   20.2580 H   0  0  0  0  0  0  0  0  0  0  0  0
  -26.2240  -15.6450   19.8180 H   0  0  0  0  0  0  0  0  0  0  0  0
  -27.2650  -23.5430   22.1700 C   0  0  0  0  0  1  0  0  0  0  0  0
  -27.7360  -23.9930   20.7730 C   0  0  0  0  0  3  0  0  0  0  0  0
  -28.5090  -25.3930   20.9120 C   0  0  0  0  0  2  0  0  0  0  0  0
  -28.3580  -26.5540   20.0180 O   0  0  0  0  0  0  0  0  0  0  0  0
  -24.5980  -31.8860   23.1920 C   0  0  0  0  0  0  0  0  0  0  0  0
  -27.2260  -27.3640   20.1080 C   0  0  0  0  0  0  0  0  0  0  0  0
  -23.4010  -30.4870   21.5440 C   0  0  0  0  0  3  0  0  0  0  0  0
  -24.8600  -28.9520   20.1130 C   0  0  0  0  0  0  0  0  0  0  0  0
  -25.9400  -30.8180   21.3710 C   0  0  0  0  0  2  0  0  0  0  0  0
  -26.0250  -29.4440   20.7190 C   0  0  0  0  0  0  0  0  0  0  0  0
  -27.2150  -28.6570   20.7120 C   0  0  0  0  0  3  0  0  0  0  0  0
  -26.0480  -26.9200   19.4810 C   0  0  0  0  0  3  0  0  0  0  0  0
  -24.8710  -27.6940   19.4900 C   0  0  0  0  0  3  0  0  0  0  0  0
  -23.6240  -29.8240   20.1600 C   0  0  0  0  0  2  0  0  0  0  0  0
  -24.6670  -31.0750   22.0970 N   0  0  0  0  0  0  0  0  0  0  0  0
  -23.5060  -32.1890   23.6920 O   0  0  0  0  0  0  0  0  0  0  0  0
  -22.7420  -29.4580   22.4930 C   0  0  0  0  0  0  0  0  0  0  0  0
  -21.4150  -29.2930   22.3760 N   0  0  0  0  0  0  0  0  0  0  0  0
  -23.4250  -28.8120   23.2930 O   0  0  0  0  0  0  0  0  0  0  0  0
  -20.9230  -29.8750   21.7140 H   0  0  0  0  0  0  0  0  0  0  0  0
  -18.0260  -28.1320   22.8850 C   0  0  0  0  0  0  0  0  0  0  0  0
  -20.5930  -28.3430   23.1300 C   0  0  0  0  0  3  0  0  0  0  0  0
  -20.6630  -26.9280   22.5120 C   0  0  0  0  0  2  0  0  0  0  0  0
  -19.5430  -26.6500   21.5050 C   0  0  0  0  0  2  0  0  0  0  0  0
  -18.1720  -26.7980   22.1720 C   0  0  0  0  0  2  0  0  0  0  0  0
  -19.1630  -28.8650   23.3200 C   0  0  0  0  0  0  0  0  0  0  0  0
  -18.9720  -30.1170   23.9460 C   0  0  0  0  0  3  0  0  0  0  0  0
  -17.6770  -30.6340   24.1430 C   0  0  0  0  0  3  0  0  0  0  0  0
  -16.5560  -29.8960   23.7260 C   0  0  0  0  0  3  0  0  0  0  0  0
  -16.7300  -28.6470   23.1020 C   0  0  0  0  0  3  0  0  0  0  0  0
  -25.8790  -32.5020   23.8380 C   0  0  0  0  0  3  0  0  0  0  0  0
  -25.5740  -33.8970   24.1860 N   0  0  0  0  0  0  0  0  0  0  0  0
  -25.9000  -34.9560   23.4350 C   0  0  0  0  0  0  0  0  0  0  0  0
  -26.5650  -34.8620   22.3990 O   0  0  0  0  0  0  0  0  0  0  0  0
  -24.9900  -34.0480   24.9950 H   0  0  0  0  0  0  0  0  0  0  0  0
  -24.1670  -36.7460   23.1030 C   0  0  0  0  0  1  0  0  0  0  0  0
  -25.4110  -36.3380   23.9080 C   0  0  0  0  0  3  0  0  0  0  0  0
  -27.5420  -37.2180   24.7480 C   0  0  0  0  0  1  0  0  0  0  0  0
  -26.4410  -37.3940   23.8060 N   0  0  0  0  0  0  0  0  0  0  0  0
  -26.0330  -38.3120   23.9650 H   0  0  0  0  0  0  0  0  0  0  0  0
  -26.3820  -31.7120   25.1100 C   0  0  1  0  0  0  0  0  0  0  0  0
  -25.2810  -31.4620   26.1670 C   0  0  0  0  0  1  0  0  0  0  0  0
  -26.9690  -30.3410   24.7040 C   0  0  0  0  0  1  0  0  0  0  0  0
  -27.5300  -32.4960   25.7920 C   0  0  0  0  0  1  0  0  0  0  0  0
  1  3  2  0
  1  2  1  0
  2  5  2  0
  3  4  1  0
  4  7  2  0
  5  7  1  0
  5 51  1  0
  6  3  1  0
  8 21  1  0
  9 14  1  0
 10 11  1  0
 10  9  1  0
 12 11  1  0
 12 25  1  0
 12 13  1  0
 14  8  1  0
 14 13  1  0
 15  8  2  0
 16 20  1  0
 16 18  1  0
 17 19  1  0
 18 21  1  0
 20  4  1  0
 20 17  1  0
 21 19  1  0
 22 23  2  0
 23 42  1  0
 24 23  1  0
 24 27  1  0
 25 22  1  0
 25 26  1  0
 26 24  2  0
 27 28  1  0
 28 29  2  0
 30 33  1  0
 30 29  1  0
 31 30  2  0
 32 31  1  0
 32 27  2  0
 33 34  1  0
 34 35  1  0
 35 36  2  0
 37 36  1  0
 37 41  1  0
 38 37  2  0
 39 34  2  0
 39 38  1  0
 40 39  1  0
 42 43  1  0
 43 46  1  0
 43 45  1  0
 44 42  2  0
 47 48  1  0
 47 22  1  0
 49 47  1  0
 51 52  1  0
 51 50  1  0
 53 55  1  0
 53 52  1  0
 54 65  2  0
 55 60  1  0
 56 64  1  0
 56 66  1  0
 57 63  1  0
 57 59  1  0
 58 64  1  0
 59 58  1  0
 60 59  2  0
 61 62  1  0
 61 55  2  0
 62 57  2  0
 63 56  1  0
 64 54  1  0
 66 68  2  0
 67 66  1  0
 69 67  1  0
 70 79  2  0
 70 75  1  0
 71 67  1  0
 71 75  1  0
 72 71  1  0
 73 74  1  0
 73 72  1  0
 74 70  1  0
 75 76  2  0
 76 77  1  0
 78 77  2  0
 79 78  1  0
 80 54  1  0
 80 81  1  0
 80 90  1  0
 81 84  1  0
 82 86  1  0
 82 81  1  0
 83 82  2  0
 86 85  1  0
 88 86  1  0
 88 89  1  0
 88 87  1  0
 90 93  1  1
 90 91  1  0
 92 90  1  0
M  ISO  4   8 100  21 100  52 101  53 101
M  END
>  <TORSDO>  (7) 
F 18

>  <SCORE>  (7) 
-14.653

>  <name>  (7) 
6

>  <ligand_id>  (7) 
6

>  <original_smiles>  (7) 
[H]c1c(C([H])(C([H])([H])[H])C([H])([H])Oc2c([H])c([H])c3c(c2[H])C([H])([H])N(C(=O)C([H])(N([H])C(=O)C([H])(N([H])C([H])([H])[H])C([H])([H])[H])C(C([H])([H])[H])(C([H])([H])[H])C([H])([H])[H])C([H])(C(=O)N([H])C2([H])c4c([H])c([H])c([H])c([H])c4C([H])([H])C([H])([H])C2([H])[H])C3([H])[H])nc(C2([H])C([H])([H])C([H])([H])N(C(=O)N3C([H])([H])C([H])([H])C([H])([H])C([H])(n4nc(-c5c([H])c([H])c(Oc6c([H])c([H])c(F)c([H])c6F)c([H])c5[H])c(C(=O)N([H])[H])c4N([H])[H])C3([H])[H])C([H])([H])C2([H])[H])c(C([H])([H])[H])c1[H]

>  <smiles>  (7) 
[H]c1c(C([H])(C([H])([H])[H])C([H])([H])Oc2c([H])c([H])c3c(c2[H])C([H])([H])N(C(=O)C([H])(N([H])C(=O)C([H])(N([H])C([H])([H])[H])C([H])([H])[H])C(C([H])([H])[H])(C([H])([H])[H])C([H])([H])[H])C([H])(C(=O)N([H])C2([H])c4c([H])c([H])c([H])c([H])c4C([H])([H])C([H])([H])C2([H])[H])C3([H])[H])nc(C2([H])C([H])([H])C([H])([H])N(C(=O)N3C([H])([H])C([H])([H])C([H])([H])C([H])(n4nc(-c5c([H])c([H])c(Oc6c([H])c([H])c(F)c([H])c6F)c([H])c5[H])c(C(=O)N([H])[H])c4N([H])[H])C3([H])[H])C([H])([H])C2([H])[H])c(C([H])([H])[H])c1[H]

> <Step>
117.0

> <Scaffold>
O=C(NC1CCCc2ccccc21)C1Cc2ccc(OCCc3cccc(C4CCN(C(=O)N5CCCC(n6ccc(-c7ccc(Oc8ccccc8)cc7)n6)C5)CC4)n3)cc2CN1

> <SMILES>
CNC(C)C(=O)NC(C(=O)N1Cc2cc(OCC(C)c3ccc(C)c(C4CCN(C(=O)N5CCCC(n6nc(-c7ccc(Oc8ccc(F)cc8F)cc7)c(C(N)=O)c6N)C5)CC4)n3)ccc2CC1C(=O)NC1CCCc2ccccc21)C(C)(C)C

> <Tanimoto ROCS sim>
0.21321150660514832

> <Custom alerts>
1.0

> <Linker Num Aromatic Rings>
1.0

> <Linker Effective Length>
1.0

> <ADV>
0.996122419834137

> <PostDock Tanimoto ROCS sim>
0.9892001748085022

> <raw_Linker Num Aromatic Rings>
1.0

> <raw_Linker Effective Length>
8.0

> <raw_ADV>
-14.638999938964844

> <total_score>
0.9963306188583374

> <ID>
default_job_106

> <PostDock Tanimoto ROCS sim (re-score)>
0.97712064

> <raw_ADV (re-score)>
-14.653

$$$$
default_job_107
     RDKit          3D

 94102  0  0  1  0  0  0  0  0999 V2000
  -29.6840  -22.9800   17.9200 C   0  0  0  0  0  1  0  0  0  0  0  0
  -29.1760  -22.8880   19.3740 C   0  0  0  0  0  3  0  0  0  0  0  0
  -28.9190  -20.4080   19.9320 C   0  0  0  0  0  3  0  0  0  0  0  0
  -30.8630  -21.2380   20.3660 C   0  0  0  0  0  3  0  0  0  0  0  0
  -29.7660  -19.3680   20.2790 C   0  0  0  0  0  0  0  0  0  0  0  0
  -31.0160  -19.9250   20.5650 N   0  0  0  0  0  0  0  0  0  0  0  0
  -29.6450  -21.6020   19.9360 N   0  0  0  0  0  0  0  0  0  0  0  0
  -30.0000  -17.4460   18.7160 C   0  0  0  0  0  1  0  0  0  0  0  0
  -28.0000  -17.5940   20.2070 C   0  0  0  0  0  1  0  0  0  0  0  0
  -29.5190  -17.8570   20.1210 C   0  0  2  0  0  0  0  0  0  0  0  0
  -30.2460  -16.9670   21.1920 C   0  0  0  0  0  2  0  0  0  0  0  0
  -30.6370  -14.5170   20.5880 C   0  0  0  0  0  0  0  0  0  0  0  0
  -30.3790  -12.3510   19.4230 C   0  0  0  0  0  2  0  0  0  0  0  0
  -29.4530  -12.5440   18.2050 C   0  0  0  0  0  2  0  0  0  0  0  0
  -27.9710  -12.3950   18.6090 C   0  0  0  0  0  2  0  0  0  0  0  0
  -27.6090  -13.2260   19.8680 C   0  0  0  0  0  3  0  0  0  0  0  0
  -28.6490  -13.0120   20.9910 C   0  0  0  0  0  2  0  0  0  0  0  0
  -29.9800  -13.3310   20.4470 N   0  0  0  0  0  0  0  0  0  0  0  0
  -31.7650  -14.7110   20.1280 O   0  0  0  0  0  0  0  0  0  0  0  0
  -29.9130  -15.5200   21.1260 N   0  0  0  0  0  0  0  0  0  0  0  0
  -28.9980  -15.2620   21.4620 H   0  0  0  0  0  0  0  0  0  0  0  0
  -25.1970  -13.8300   20.5350 C   0  0  0  0  0  0  0  0  0  0  0  0
  -24.1270  -13.0580   20.8980 C   0  0  0  0  0  0  0  0  0  0  0  0
  -24.5920  -11.7090   20.8850 C   0  0  0  0  0  0  0  0  0  0  0  0
  -26.2490  -12.9510   20.3270 N   0  0  0  0  0  0  0  0  0  0  0  0
  -25.8860  -11.6690   20.5940 N   0  0  0  0  0  0  0  0  0  0  0  0
  -23.8650  -10.4460   21.0740 C   0  0  0  0  0  0  0  0  0  0  0  0
  -24.3030   -9.4760   22.0010 C   0  0  0  0  0  3  0  0  0  0  0  0
  -23.5800   -8.2780   22.1800 C   0  0  0  0  0  3  0  0  0  0  0  0
  -22.4030   -8.0410   21.4300 C   0  0  0  0  0  0  0  0  0  0  0  0
  -21.9820   -9.0010   20.4920 C   0  0  0  0  0  3  0  0  0  0  0  0
  -22.7060  -10.1920   20.3130 C   0  0  0  0  0  3  0  0  0  0  0  0
  -21.6480   -6.8960   21.5180 O   0  0  0  0  0  0  0  0  0  0  0  0
  -21.6240   -6.1380   22.6610 C   0  0  0  0  0  0  0  0  0  0  0  0
  -21.2430   -6.6790   23.9080 C   0  0  0  0  0  3  0  0  0  0  0  0
  -21.1650   -5.8460   25.0420 C   0  0  0  0  0  3  0  0  0  0  0  0
  -21.4570   -4.4740   24.9300 C   0  0  0  0  0  0  0  0  0  0  0  0
  -21.8310   -3.9330   23.6880 C   0  0  0  0  0  3  0  0  0  0  0  0
  -21.9110   -4.7620   22.5560 C   0  0  0  0  0  0  0  0  0  0  0  0
  -22.2510   -4.2300   21.3570 F   0  0  0  0  0  0  0  0  0  0  0  0
  -21.3730   -3.6730   26.0180 F   0  0  0  0  0  0  0  0  0  0  0  0
  -22.7250  -13.5350   21.1450 C   0  0  0  0  0  0  0  0  0  0  0  0
  -21.9830  -12.8470   22.0060 N   0  0  0  0  0  0  0  0  0  0  0  0
  -22.2930  -14.5530   20.6060 O   0  0  0  0  0  0  0  0  0  0  0  0
  -22.3440  -12.0250   22.4680 H   0  0  0  0  0  0  0  0  0  0  0  0
  -21.0410  -13.1490   22.2080 H   0  0  0  0  0  0  0  0  0  0  0  0
  -25.3560  -15.1970   20.3450 N   0  0  0  0  0  0  0  0  0  0  0  0
  -24.5810  -15.8440   20.4270 H   0  0  0  0  0  0  0  0  0  0  0  0
  -26.2010  -15.6360   20.0090 H   0  0  0  0  0  0  0  0  0  0  0  0
  -30.7680  -24.8430   20.0000 C   0  0  0  0  0  1  0  0  0  0  0  0
  -29.1780  -23.9530   21.7150 C   0  0  0  0  0  1  0  0  0  0  0  0
  -29.3660  -24.2270   20.2080 C   0  0  2  0  0  0  0  0  0  0  0  0
  -28.2670  -25.2500   19.7480 C   0  0  0  0  0  2  0  0  0  0  0  0
  -28.3670  -26.6290   20.1840 O   0  0  0  0  0  0  0  0  0  0  0  0
  -24.6170  -31.8880   23.2430 C   0  0  0  0  0  0  0  0  0  0  0  0
  -27.2080  -27.4000   20.1370 C   0  0  0  0  0  0  0  0  0  0  0  0
  -23.3900  -30.4870   21.6200 C   0  0  0  0  0  3  0  0  0  0  0  0
  -24.8220  -28.9510   20.1710 C   0  0  0  0  0  0  0  0  0  0  0  0
  -25.9210  -30.8230   21.4040 C   0  0  0  0  0  2  0  0  0  0  0  0
  -25.9920  -29.4520   20.7570 C   0  0  0  0  0  0  0  0  0  0  0  0
  -27.1830  -28.6830   20.7420 C   0  0  0  0  0  3  0  0  0  0  0  0
  -26.0170  -26.9410   19.5170 C   0  0  0  0  0  3  0  0  0  0  0  0
  -24.8320  -27.6970   19.5470 C   0  0  0  0  0  3  0  0  0  0  0  0
  -23.5830  -29.8120   20.2350 C   0  0  0  0  0  2  0  0  0  0  0  0
  -24.6620  -31.0770   22.1480 N   0  0  0  0  0  0  0  0  0  0  0  0
  -23.5380  -32.1880   23.7700 O   0  0  0  0  0  0  0  0  0  0  0  0
  -22.7450  -29.4640   22.5840 C   0  0  0  0  0  0  0  0  0  0  0  0
  -21.4190  -29.2800   22.4660 N   0  0  0  0  0  0  0  0  0  0  0  0
  -23.4320  -28.8410   23.3970 O   0  0  0  0  0  0  0  0  0  0  0  0
  -20.9250  -29.8370   21.7830 H   0  0  0  0  0  0  0  0  0  0  0  0
  -18.0520  -28.0650   22.9680 C   0  0  0  0  0  0  0  0  0  0  0  0
  -20.6070  -28.3420   23.2400 C   0  0  0  0  0  3  0  0  0  0  0  0
  -20.7200  -26.9080   22.6730 C   0  0  0  0  0  2  0  0  0  0  0  0
  -19.6220  -26.5710   21.6600 C   0  0  0  0  0  2  0  0  0  0  0  0
  -18.2380  -26.7120   22.3020 C   0  0  0  0  0  2  0  0  0  0  0  0
  -19.1650  -28.8360   23.3940 C   0  0  0  0  0  0  0  0  0  0  0  0
  -18.9370  -30.1030   23.9760 C   0  0  0  0  0  3  0  0  0  0  0  0
  -17.6300  -30.5970   24.1370 C   0  0  0  0  0  3  0  0  0  0  0  0
  -16.5310  -29.8230   23.7270 C   0  0  0  0  0  3  0  0  0  0  0  0
  -16.7430  -28.5580   23.1480 C   0  0  0  0  0  3  0  0  0  0  0  0
  -25.9130  -32.5050   23.8590 C   0  0  0  0  0  3  0  0  0  0  0  0
  -25.6130  -33.9000   24.2030 N   0  0  0  0  0  0  0  0  0  0  0  0
  -25.9290  -34.9560   23.4420 C   0  0  0  0  0  0  0  0  0  0  0  0
  -26.5800  -34.8580   22.3980 O   0  0  0  0  0  0  0  0  0  0  0  0
  -25.0340  -34.0500   25.0160 H   0  0  0  0  0  0  0  0  0  0  0  0
  -24.1910  -36.7480   23.1320 C   0  0  0  0  0  1  0  0  0  0  0  0
  -25.4500  -36.3420   23.9150 C   0  0  0  0  0  3  0  0  0  0  0  0
  -27.6030  -37.2250   24.6980 C   0  0  0  0  0  1  0  0  0  0  0  0
  -26.4780  -37.3970   23.7830 N   0  0  0  0  0  0  0  0  0  0  0  0
  -26.0740  -38.3150   23.9470 H   0  0  0  0  0  0  0  0  0  0  0  0
  -26.4440  -31.7210   25.1220 C   0  0  1  0  0  0  0  0  0  0  0  0
  -25.3630  -31.4810   26.2010 C   0  0  0  0  0  1  0  0  0  0  0  0
  -27.0170  -30.3450   24.7120 C   0  0  0  0  0  1  0  0  0  0  0  0
  -27.6050  -32.5060   25.7760 C   0  0  0  0  0  1  0  0  0  0  0  0
  2  1  1  0
  2  7  1  0
  2 52  1  0
  3  7  1  0
  3  5  2  0
  4  6  2  0
  5  6  1  0
  7  4  1  0
 10  8  1  6
 10  9  1  0
 10  5  1  0
 10 11  1  0
 12 20  1  0
 13 18  1  0
 14 15  1  0
 14 13  1  0
 16 15  1  0
 16 25  1  0
 16 17  1  0
 18 12  1  0
 18 17  1  0
 19 12  2  0
 20 11  1  0
 20 21  1  0
 22 23  2  0
 23 42  1  0
 24 23  1  0
 24 27  1  0
 25 22  1  0
 25 26  1  0
 26 24  2  0
 27 28  1  0
 28 29  2  0
 30 33  1  0
 30 29  1  0
 31 30  2  0
 32 31  1  0
 32 27  2  0
 33 34  1  0
 34 35  1  0
 35 36  2  0
 37 36  1  0
 37 41  1  0
 38 37  2  0
 39 34  2  0
 39 38  1  0
 40 39  1  0
 42 43  1  0
 43 46  1  0
 43 45  1  0
 44 42  2  0
 47 48  1  0
 47 22  1  0
 49 47  1  0
 52 50  1  1
 52 51  1  0
 53 54  1  0
 53 52  1  0
 55 66  2  0
 56 54  1  0
 56 61  1  0
 57 65  1  0
 57 67  1  0
 58 64  1  0
 58 60  1  0
 59 65  1  0
 60 59  1  0
 61 60  2  0
 62 63  1  0
 62 56  2  0
 63 58  2  0
 64 57  1  0
 65 55  1  0
 67 69  2  0
 68 67  1  0
 70 68  1  0
 71 80  2  0
 71 76  1  0
 72 68  1  0
 72 76  1  0
 73 72  1  0
 74 75  1  0
 74 73  1  0
 75 71  1  0
 76 77  2  0
 77 78  1  0
 79 78  2  0
 80 79  1  0
 81 55  1  0
 81 82  1  0
 81 91  1  0
 82 85  1  0
 83 87  1  0
 83 82  1  0
 84 83  2  0
 87 86  1  0
 89 87  1  0
 89 90  1  0
 89 88  1  0
 91 94  1  1
 91 92  1  0
 93 91  1  0
M  ISO  4  12 100  20 100  53 101  54 101
M  END
>  <TORSDO>  (8) 
F 21

>  <SCORE>  (8) 
-13.794

>  <name>  (8) 
7

>  <ligand_id>  (8) 
7

>  <original_smiles>  (8) 
[H]c1c([H])c([H])c2c(c1[H])C([H])([H])C([H])([H])C([H])([H])C2([H])N([H])C(=O)C1([H])N(C(=O)C([H])(N([H])C(=O)C([H])(N([H])C([H])([H])[H])C([H])([H])[H])C(C([H])([H])[H])(C([H])([H])[H])C([H])([H])[H])C([H])([H])c2c([H])c(OC([H])([H])C(C([H])([H])[H])(C([H])([H])[H])C([H])(n3c([H])nc(C(C([H])([H])[H])(C([H])([H])[H])C([H])([H])N([H])C(=O)N4C([H])([H])C([H])([H])C([H])([H])C([H])(n5nc(-c6c([H])c([H])c(Oc7c([H])c([H])c(F)c([H])c7F)c([H])c6[H])c(C(=O)N([H])[H])c5N([H])[H])C4([H])[H])c3[H])C([H])([H])[H])c([H])c([H])c2C1([H])[H]

>  <smiles>  (8) 
[H]c1c([H])c([H])c2c(c1[H])C([H])([H])C([H])([H])C([H])([H])C2([H])N([H])C(=O)C1([H])N(C(=O)C([H])(N([H])C(=O)C([H])(N([H])C([H])([H])[H])C([H])([H])[H])C(C([H])([H])[H])(C([H])([H])[H])C([H])([H])[H])C([H])([H])c2c([H])c(OC([H])([H])C(C([H])([H])[H])(C([H])([H])[H])C([H])(n3c([H])nc(C(C([H])([H])[H])(C([H])([H])[H])C([H])([H])N([H])C(=O)N4C([H])([H])C([H])([H])C([H])([H])C([H])(n5nc(-c6c([H])c([H])c(Oc7c([H])c([H])c(F)c([H])c7F)c([H])c6[H])c(C(=O)N([H])[H])c5N([H])[H])C4([H])[H])c3[H])C([H])([H])[H])c([H])c([H])c2C1([H])[H]

> <Step>
50.0

> <Scaffold>
O=C(NC1CCCc2ccccc21)C1Cc2ccc(OCCCn3cnc(CCNC(=O)N4CCCC(n5ccc(-c6ccc(Oc7ccccc7)cc6)n5)C4)c3)cc2CN1

> <SMILES>
CNC(C)C(=O)NC(C(=O)N1Cc2cc(OCC(C)(C)C(C)n3cnc(C(C)(C)CNC(=O)N4CCCC(n5nc(-c6ccc(Oc7ccc(F)cc7F)cc6)c(C(N)=O)c5N)C4)c3)ccc2CC1C(=O)NC1CCCc2ccccc21)C(C)(C)C

> <Tanimoto ROCS sim>
0.2259603589773178

> <Custom alerts>
1.0

> <Linker Num Aromatic Rings>
1.0

> <Linker Effective Length>
1.0

> <ADV>
0.993755042552948

> <PostDock Tanimoto ROCS sim>
0.9915553331375122

> <raw_Linker Num Aromatic Rings>
1.0

> <raw_Linker Effective Length>
8.0

> <raw_ADV>
-13.807000160217285

> <total_score>
0.9963276386260986

> <ID>
default_job_107

> <PostDock Tanimoto ROCS sim (re-score)>
0.98618513

> <raw_ADV (re-score)>
-13.794

$$$$
default_job_108
     RDKit          3D

 94103  0  0  1  0  0  0  0  0999 V2000
  -27.4100  -24.2050   20.7990 C   0  0  0  0  0  3  0  0  0  0  0  0
  -28.5130  -24.4460   19.9490 C   0  0  0  0  0  0  0  0  0  0  0  0
  -27.8340  -21.9230   20.7480 C   0  0  0  0  0  0  0  0  0  0  0  0
  -28.9780  -22.1390   19.9230 C   0  0  0  0  0  0  0  0  0  0  0  0
  -27.3440  -20.5400   21.1410 C   0  0  0  0  0  1  0  0  0  0  0  0
  -27.0750  -22.9550   21.1980 N   0  0  0  0  0  0  0  0  0  0  0  0
  -29.3040  -23.4080   19.5320 N   0  0  0  0  0  0  0  0  0  0  0  0
  -29.7690  -20.9710   19.2770 C   0  0  0  0  0  2  0  0  0  0  0  0
  -30.4590  -20.0180   20.1940 N   0  0  0  0  0  4  0  0  0  0  0  0
  -31.4420  -20.2350   20.1730 H   0  0  0  0  0  0  0  0  0  0  0  0
  -30.1490  -20.1920   21.1350 H   0  0  0  0  0  0  0  0  0  0  0  0
  -31.2830  -18.0330   18.9440 C   0  0  0  0  0  2  0  0  0  0  0  0
  -31.1890  -17.4870   20.3560 C   0  0  0  0  0  3  0  0  0  0  0  0
  -30.2120  -18.5740   19.8660 C   0  0  0  0  0  3  0  0  0  0  0  0
  -31.4790  -15.0050   20.1930 C   0  0  0  0  0  0  0  0  0  0  0  0
  -31.1490  -12.7730   19.1980 C   0  0  0  0  0  2  0  0  0  0  0  0
  -30.2240  -12.8960   17.9690 C   0  0  0  0  0  2  0  0  0  0  0  0
  -28.7440  -12.8190   18.3910 C   0  0  0  0  0  2  0  0  0  0  0  0
  -28.4030  -13.7500   19.5830 C   0  0  0  0  0  3  0  0  0  0  0  0
  -29.4450  -13.6050   20.7170 C   0  0  0  0  0  2  0  0  0  0  0  0
  -30.7810  -13.8360   20.1460 N   0  0  0  0  0  0  0  0  0  0  0  0
  -32.6410  -15.1070   19.7920 O   0  0  0  0  0  0  0  0  0  0  0  0
  -30.7530  -16.1080   20.4720 N   0  0  0  0  0  0  0  0  0  0  0  0
  -29.8030  -15.9450   20.7760 H   0  0  0  0  0  0  0  0  0  0  0  0
  -26.0380  -14.4540   20.3120 C   0  0  0  0  0  0  0  0  0  0  0  0
  -24.9350  -13.7240   20.6700 C   0  0  0  0  0  0  0  0  0  0  0  0
  -25.3380  -12.3540   20.6230 C   0  0  0  0  0  0  0  0  0  0  0  0
  -27.0400  -13.5290   20.0640 N   0  0  0  0  0  0  0  0  0  0  0  0
  -26.6230  -12.2610   20.3130 N   0  0  0  0  0  0  0  0  0  0  0  0
  -24.5600  -11.1220   20.7950 C   0  0  0  0  0  0  0  0  0  0  0  0
  -24.9140  -10.1490   21.7560 C   0  0  0  0  0  3  0  0  0  0  0  0
  -24.1360   -8.9820   21.9140 C   0  0  0  0  0  3  0  0  0  0  0  0
  -22.9900   -8.7780   21.1070 C   0  0  0  0  0  0  0  0  0  0  0  0
  -22.6540   -9.7380   20.1360 C   0  0  0  0  0  3  0  0  0  0  0  0
  -23.4340  -10.8970   19.9780 C   0  0  0  0  0  3  0  0  0  0  0  0
  -22.1900   -7.6610   21.1720 O   0  0  0  0  0  0  0  0  0  0  0  0
  -22.0030   -6.9750   22.3460 C   0  0  0  0  0  0  0  0  0  0  0  0
  -21.4700   -7.5970   23.4950 C   0  0  0  0  0  3  0  0  0  0  0  0
  -21.2360   -6.8410   24.6610 C   0  0  0  0  0  3  0  0  0  0  0  0
  -21.5190   -5.4620   24.6750 C   0  0  0  0  0  0  0  0  0  0  0  0
  -22.0380   -4.8380   23.5260 C   0  0  0  0  0  3  0  0  0  0  0  0
  -22.2790   -5.5940   22.3660 C   0  0  0  0  0  0  0  0  0  0  0  0
  -22.7630   -4.9830   21.2570 F   0  0  0  0  0  0  0  0  0  0  0  0
  -21.2850   -4.7320   25.7910 F   0  0  0  0  0  0  0  0  0  0  0  0
  -23.5610  -14.2600   20.9510 C   0  0  0  0  0  0  0  0  0  0  0  0
  -22.8070  -13.5910   21.8180 N   0  0  0  0  0  0  0  0  0  0  0  0
  -23.1670  -15.3070   20.4400 O   0  0  0  0  0  0  0  0  0  0  0  0
  -23.1410  -12.7440   22.2550 H   0  0  0  0  0  0  0  0  0  0  0  0
  -21.8860  -13.9330   22.0510 H   0  0  0  0  0  0  0  0  0  0  0  0
  -26.2700  -15.8170   20.1510 N   0  0  0  0  0  0  0  0  0  0  0  0
  -25.5410  -16.5150   20.2580 H   0  0  0  0  0  0  0  0  0  0  0  0
  -27.1370  -16.2020   19.8020 H   0  0  0  0  0  0  0  0  0  0  0  0
  -28.8130  -25.8490   19.3720 C   0  0  0  0  0  2  0  0  0  0  0  0
  -28.5990  -27.0030   20.2230 O   0  0  0  0  0  0  0  0  0  0  0  0
  -24.7230  -32.0160   23.4980 C   0  0  0  0  0  0  0  0  0  0  0  0
  -27.4110  -27.7210   20.2070 C   0  0  0  0  0  0  0  0  0  0  0  0
  -23.5360  -30.6850   21.7850 C   0  0  0  0  0  3  0  0  0  0  0  0
  -25.0040  -29.2300   20.2870 C   0  0  0  0  0  0  0  0  0  0  0  0
  -26.0620  -31.0620   21.6200 C   0  0  0  0  0  2  0  0  0  0  0  0
  -26.1550  -29.7220   20.9110 C   0  0  0  0  0  0  0  0  0  0  0  0
  -27.3550  -28.9720   20.8740 C   0  0  0  0  0  3  0  0  0  0  0  0
  -26.2390  -27.2550   19.5700 C   0  0  0  0  0  3  0  0  0  0  0  0
  -25.0430  -27.9980   19.6120 C   0  0  0  0  0  3  0  0  0  0  0  0
  -23.7530  -30.0740   20.3740 C   0  0  0  0  0  2  0  0  0  0  0  0
  -24.7930  -31.2620   22.3640 N   0  0  0  0  0  0  0  0  0  0  0  0
  -23.6330  -32.2800   24.0220 O   0  0  0  0  0  0  0  0  0  0  0  0
  -22.8850  -29.6150   22.6900 C   0  0  0  0  0  0  0  0  0  0  0  0
  -21.5660  -29.4140   22.5300 N   0  0  0  0  0  0  0  0  0  0  0  0
  -23.5660  -28.9720   23.4920 O   0  0  0  0  0  0  0  0  0  0  0  0
  -21.0770  -29.9900   21.8610 H   0  0  0  0  0  0  0  0  0  0  0  0
  -18.2200  -28.1030   22.8690 C   0  0  0  0  0  0  0  0  0  0  0  0
  -20.7570  -28.4260   23.2410 C   0  0  0  0  0  3  0  0  0  0  0  0
  -20.9230  -27.0210   22.6190 C   0  0  0  0  0  2  0  0  0  0  0  0
  -19.8690  -26.7090   21.5520 C   0  0  0  0  0  2  0  0  0  0  0  0
  -18.4630  -26.7840   22.1510 C   0  0  0  0  0  2  0  0  0  0  0  0
  -19.2970  -28.8810   23.3650 C   0  0  0  0  0  0  0  0  0  0  0  0
  -19.0200  -30.1170   23.9910 C   0  0  0  0  0  3  0  0  0  0  0  0
  -17.6950  -30.5740   24.1250 C   0  0  0  0  0  3  0  0  0  0  0  0
  -16.6320  -29.7890   23.6490 C   0  0  0  0  0  3  0  0  0  0  0  0
  -16.8920  -28.5560   23.0230 C   0  0  0  0  0  3  0  0  0  0  0  0
  -26.0050  -32.6140   24.1640 C   0  0  0  0  0  3  0  0  0  0  0  0
  -26.4650  -31.8320   25.4540 C   0  0  1  0  0  0  0  0  0  0  0  0
  -25.3290  -31.5950   26.4750 C   0  0  0  0  0  1  0  0  0  0  0  0
  -27.0530  -30.4530   25.0770 C   0  0  0  0  0  1  0  0  0  0  0  0
  -27.5930  -32.6140   26.1670 C   0  0  0  0  0  1  0  0  0  0  0  0
  -25.7170  -34.0190   24.4820 N   0  0  0  0  0  0  0  0  0  0  0  0
  -26.0930  -35.0610   23.7290 C   0  0  0  0  0  0  0  0  0  0  0  0
  -26.7900  -34.9400   22.7190 O   0  0  0  0  0  0  0  0  0  0  0  0
  -25.0990  -34.1890   25.2610 H   0  0  0  0  0  0  0  0  0  0  0  0
  -24.4040  -36.8840   23.3330 C   0  0  0  0  0  1  0  0  0  0  0  0
  -25.6220  -36.4610   24.1700 C   0  0  0  0  0  3  0  0  0  0  0  0
  -27.7540  -37.3130   25.0380 C   0  0  0  0  0  1  0  0  0  0  0  0
  -26.6750  -37.4940   24.0700 N   0  0  0  0  0  0  0  0  0  0  0  0
  -26.2810  -38.4210   24.2020 H   0  0  0  0  0  0  0  0  0  0  0  0
  1  6  1  0
  2  1  2  0
  3  5  1  0
  3  6  2  0
  4  3  1  0
  7  4  2  0
  7  2  1  0
  8  4  1  0
  8  9  1  0
  9 11  1  0
 10  9  1  0
 12 14  1  0
 12 13  1  0
 13 23  1  0
 14  9  1  0
 14 13  1  0
 15 23  1  0
 16 21  1  0
 17 18  1  0
 17 16  1  0
 19 18  1  0
 19 28  1  0
 19 20  1  0
 21 15  1  0
 21 20  1  0
 22 15  2  0
 23 24  1  0
 25 26  2  0
 26 45  1  0
 27 26  1  0
 27 30  1  0
 28 25  1  0
 28 29  1  0
 29 27  2  0
 30 31  1  0
 31 32  2  0
 33 36  1  0
 33 32  1  0
 34 33  2  0
 35 34  1  0
 35 30  2  0
 36 37  1  0
 37 42  2  0
 37 38  1  0
 38 39  2  0
 39 40  1  0
 40 44  1  0
 41 40  2  0
 42 41  1  0
 43 42  1  0
 45 46  1  0
 46 49  1  0
 46 48  1  0
 47 45  2  0
 50 51  1  0
 50 25  1  0
 52 50  1  0
 53  2  1  0
 53 54  1  0
 55 66  2  0
 56 54  1  0
 56 61  1  0
 57 65  1  0
 57 67  1  0
 58 64  1  0
 58 60  1  0
 59 65  1  0
 60 59  1  0
 61 60  2  0
 62 63  1  0
 62 56  2  0
 63 58  2  0
 64 57  1  0
 65 55  1  0
 67 69  2  0
 68 67  1  0
 70 68  1  0
 71 80  2  0
 71 76  1  0
 72 68  1  0
 72 76  1  0
 73 72  1  0
 74 75  1  0
 74 73  1  0
 75 71  1  0
 76 77  2  0
 77 78  1  0
 79 78  2  0
 80 79  1  0
 81 55  1  0
 81 86  1  0
 81 82  1  0
 82 85  1  1
 82 83  1  0
 84 82  1  0
 86 89  1  0
 87 91  1  0
 87 86  1  0
 88 87  2  0
 91 90  1  0
 93 91  1  0
 93 94  1  0
 93 92  1  0
M  ISO  4  15 100  23 100  53 101  54 101
M  END
>  <TORSDO>  (9) 
F 20

>  <SCORE>  (9) 
-11.392

>  <name>  (9) 
8

>  <ligand_id>  (9) 
8

>  <original_smiles>  (9) 
[H]c1nc(C([H])([H])[H])c(C([H])([H])[N+]([H])([H])C2([H])C([H])([H])C2([H])N([H])C(=O)N2C([H])([H])C([H])([H])C([H])([H])C([H])(n3nc(-c4c([H])c([H])c(Oc5c([H])c([H])c(F)c([H])c5F)c([H])c4[H])c(C(=O)N([H])[H])c3N([H])[H])C2([H])[H])nc1C([H])([H])Oc1c([H])c([H])c2c(c1[H])C([H])([H])N(C(=O)C([H])(N([H])C(=O)C([H])(N([H])C([H])([H])[H])C([H])([H])[H])C(C([H])([H])[H])(C([H])([H])[H])C([H])([H])[H])C([H])(C(=O)N([H])C1([H])c3c([H])c([H])c([H])c([H])c3C([H])([H])C([H])([H])C1([H])[H])C2([H])[H]

>  <smiles>  (9) 
[H]c1nc(C([H])([H])[H])c(C([H])([H])[N+]([H])([H])C2([H])C([H])([H])C2([H])N([H])C(=O)N2C([H])([H])C([H])([H])C([H])([H])C([H])(n3nc(-c4c([H])c([H])c(Oc5c([H])c([H])c(F)c([H])c5F)c([H])c4[H])c(C(=O)N([H])[H])c3N([H])[H])C2([H])[H])nc1C([H])([H])Oc1c([H])c([H])c2c(c1[H])C([H])([H])N(C(=O)C([H])(N([H])C(=O)C([H])(N([H])C([H])([H])[H])C([H])([H])[H])C(C([H])([H])[H])(C([H])([H])[H])C([H])([H])[H])C([H])(C(=O)N([H])C1([H])c3c([H])c([H])c([H])c([H])c3C([H])([H])C([H])([H])C1([H])[H])C2([H])[H]

> <Step>
182.0

> <Scaffold>
O=C(NC1CCCc2ccccc21)C1Cc2ccc(OCc3cncc(CNC4CC4NC(=O)N4CCCC(n5ccc(-c6ccc(Oc7ccccc7)cc6)n5)C4)n3)cc2CN1

> <SMILES>
CNC(C)C(=O)NC(C(=O)N1Cc2cc(OCc3cnc(C)c(CNC4CC4NC(=O)N4CCCC(n5nc(-c6ccc(Oc7ccc(F)cc7F)cc6)c(C(N)=O)c5N)C4)n3)ccc2CC1C(=O)NC1CCCc2ccccc21)C(C)(C)C

> <Tanimoto ROCS sim>
0.28608471155166626

> <Custom alerts>
1.0

> <Linker Num Aromatic Rings>
1.0

> <Linker Effective Length>
1.0

> <ADV>
0.9936469793319702

> <PostDock Tanimoto ROCS sim>
0.9916611909866333

> <raw_Linker Num Aromatic Rings>
1.0

> <raw_Linker Effective Length>
8.0

> <raw_ADV>
-13.777000427246094

> <total_score>
0.9963270425796509

> <ID>
default_job_108

> <PostDock Tanimoto ROCS sim (re-score)>
0.882754

> <raw_ADV (re-score)>
-11.392

$$$$
default_job_109
     RDKit          3D

 92101  0  0  1  0  0  0  0  0999 V2000
  -30.3400  -24.1000   20.5540 C   0  0  0  0  0  3  0  0  0  0  0  0
  -31.1620  -22.9800   20.7530 C   0  0  0  0  0  3  0  0  0  0  0  0
  -28.9850  -23.8620   20.3040 C   0  0  0  0  0  0  0  0  0  0  0  0
  -29.3990  -21.5520   20.4710 C   0  0  0  0  0  0  0  0  0  0  0  0
  -30.6900  -21.7140   20.7040 N   0  0  0  0  0  0  0  0  0  0  0  0
  -28.5350  -22.5610   20.2730 N   0  0  0  0  0  0  0  0  0  0  0  0
  -28.9020  -20.2330   20.4270 N   0  0  0  0  0  0  0  0  0  0  0  0
  -27.9060  -20.1820   20.2550 H   0  0  0  0  0  0  0  0  0  0  0  0
  -30.7150  -14.6390   20.3480 C   0  0  0  0  0  0  0  0  0  0  0  0
  -30.4300  -12.4040   19.3170 C   0  0  0  0  0  2  0  0  0  0  0  0
  -29.4850  -12.5190   18.1040 C   0  0  0  0  0  2  0  0  0  0  0  0
  -28.0200  -12.3600   18.5490 C   0  0  0  0  0  2  0  0  0  0  0  0
  -27.6650  -13.2390   19.7800 C   0  0  0  0  0  3  0  0  0  0  0  0
  -28.7360  -13.1450   20.8880 C   0  0  0  0  0  2  0  0  0  0  0  0
  -30.0330  -13.4550   20.2750 N   0  0  0  0  0  0  0  0  0  0  0  0
  -31.9050  -14.6990   20.0210 O   0  0  0  0  0  0  0  0  0  0  0  0
  -28.9970  -17.9290   19.3610 C   0  0  0  0  0  2  0  0  0  0  0  0
  -29.7150  -18.1340   21.6720 C   0  0  0  0  0  2  0  0  0  0  0  0
  -29.7640  -16.5690   19.2410 C   0  0  0  0  0  2  0  0  0  0  0  0
  -30.4750  -16.7640   21.5530 C   0  0  0  0  0  2  0  0  0  0  0  0
  -29.6420  -18.9340   20.3460 C   0  0  0  0  0  3  0  0  0  0  0  0
  -30.0050  -15.8150   20.5030 N   0  0  0  0  0  0  0  0  0  0  0  0
  -25.2840  -13.8170   20.5420 C   0  0  0  0  0  0  0  0  0  0  0  0
  -24.2240  -13.0360   20.9140 C   0  0  0  0  0  0  0  0  0  0  0  0
  -24.6910  -11.6870   20.8650 C   0  0  0  0  0  0  0  0  0  0  0  0
  -26.3280  -12.9440   20.2850 N   0  0  0  0  0  0  0  0  0  0  0  0
  -25.9790  -11.6560   20.5420 N   0  0  0  0  0  0  0  0  0  0  0  0
  -23.9710  -10.4190   21.0510 C   0  0  0  0  0  0  0  0  0  0  0  0
  -24.4090   -9.4480   21.9770 C   0  0  0  0  0  3  0  0  0  0  0  0
  -23.6890   -8.2470   22.1510 C   0  0  0  0  0  3  0  0  0  0  0  0
  -22.5150   -8.0080   21.3970 C   0  0  0  0  0  0  0  0  0  0  0  0
  -22.0960   -8.9680   20.4590 C   0  0  0  0  0  3  0  0  0  0  0  0
  -22.8160  -10.1610   20.2830 C   0  0  0  0  0  3  0  0  0  0  0  0
  -21.7640   -6.8600   21.4800 O   0  0  0  0  0  0  0  0  0  0  0  0
  -21.7090   -6.1190   22.6340 C   0  0  0  0  0  0  0  0  0  0  0  0
  -21.2680   -6.6740   23.8550 C   0  0  0  0  0  3  0  0  0  0  0  0
  -21.1600   -5.8610   25.0010 C   0  0  0  0  0  3  0  0  0  0  0  0
  -21.4810   -4.4920   24.9250 C   0  0  0  0  0  0  0  0  0  0  0  0
  -21.9130   -3.9360   23.7080 C   0  0  0  0  0  3  0  0  0  0  0  0
  -22.0230   -4.7460   22.5650 C   0  0  0  0  0  0  0  0  0  0  0  0
  -22.4200   -4.2020   21.3900 F   0  0  0  0  0  0  0  0  0  0  0  0
  -21.3690   -3.7070   26.0220 F   0  0  0  0  0  0  0  0  0  0  0  0
  -22.8290  -13.5050   21.2060 C   0  0  0  0  0  0  0  0  0  0  0  0
  -22.1150  -12.8000   22.0770 N   0  0  0  0  0  0  0  0  0  0  0  0
  -22.3800  -14.5320   20.6970 O   0  0  0  0  0  0  0  0  0  0  0  0
  -22.4910  -11.9700   22.5090 H   0  0  0  0  0  0  0  0  0  0  0  0
  -21.1790  -13.0960   22.3160 H   0  0  0  0  0  0  0  0  0  0  0  0
  -25.4450  -15.1900   20.3790 N   0  0  0  0  0  0  0  0  0  0  0  0
  -24.6860  -15.8480   20.5150 H   0  0  0  0  0  0  0  0  0  0  0  0
  -26.3060  -15.6320   20.0830 H   0  0  0  0  0  0  0  0  0  0  0  0
  -27.9730  -25.0090   19.9850 C   0  0  0  0  0  2  0  0  0  0  0  0
  -28.2900  -26.4390   20.2280 O   0  0  0  0  0  0  0  0  0  0  0  0
  -24.6340  -31.8900   23.2560 C   0  0  0  0  0  0  0  0  0  0  0  0
  -27.1960  -27.3230   20.1670 C   0  0  0  0  0  0  0  0  0  0  0  0
  -23.4130  -30.4960   21.6300 C   0  0  0  0  0  3  0  0  0  0  0  0
  -24.8440  -28.9560   20.1840 C   0  0  0  0  0  0  0  0  0  0  0  0
  -25.9560  -30.8000   21.4350 C   0  0  0  0  0  2  0  0  0  0  0  0
  -26.0220  -29.4280   20.7780 C   0  0  0  0  0  0  0  0  0  0  0  0
  -27.2010  -28.6220   20.7640 C   0  0  0  0  0  3  0  0  0  0  0  0
  -25.9920  -26.9210   19.5330 C   0  0  0  0  0  3  0  0  0  0  0  0
  -24.8320  -27.7080   19.5520 C   0  0  0  0  0  3  0  0  0  0  0  0
  -23.6130  -29.8330   20.2450 C   0  0  0  0  0  2  0  0  0  0  0  0
  -24.6880  -31.0740   22.1660 N   0  0  0  0  0  0  0  0  0  0  0  0
  -23.5510  -32.1980   23.7720 O   0  0  0  0  0  0  0  0  0  0  0  0
  -22.7530  -29.4750   22.5880 C   0  0  0  0  0  0  0  0  0  0  0  0
  -21.4260  -29.2970   22.4640 N   0  0  0  0  0  0  0  0  0  0  0  0
  -23.4340  -28.8470   23.4040 O   0  0  0  0  0  0  0  0  0  0  0  0
  -20.9360  -29.8550   21.7790 H   0  0  0  0  0  0  0  0  0  0  0  0
  -18.0500  -28.0980   22.9640 C   0  0  0  0  0  0  0  0  0  0  0  0
  -20.6090  -28.3580   23.2360 C   0  0  0  0  0  3  0  0  0  0  0  0
  -20.7120  -26.9270   22.6610 C   0  0  0  0  0  2  0  0  0  0  0  0
  -19.6100  -26.6020   21.6470 C   0  0  0  0  0  2  0  0  0  0  0  0
  -18.2270  -26.7470   22.2910 C   0  0  0  0  0  2  0  0  0  0  0  0
  -19.1680  -28.8610   23.3940 C   0  0  0  0  0  0  0  0  0  0  0  0
  -18.9480  -30.1240   23.9840 C   0  0  0  0  0  3  0  0  0  0  0  0
  -17.6430  -30.6250   24.1490 C   0  0  0  0  0  3  0  0  0  0  0  0
  -16.5390  -29.8590   23.7350 C   0  0  0  0  0  3  0  0  0  0  0  0
  -16.7440  -28.5970   23.1500 C   0  0  0  0  0  3  0  0  0  0  0  0
  -25.9240  -32.5040   23.8820 C   0  0  0  0  0  3  0  0  0  0  0  0
  -25.6250  -33.9000   24.2270 N   0  0  0  0  0  0  0  0  0  0  0  0
  -25.9310  -34.9550   23.4600 C   0  0  0  0  0  0  0  0  0  0  0  0
  -26.5690  -34.8540   22.4080 O   0  0  0  0  0  0  0  0  0  0  0  0
  -25.0550  -34.0520   25.0460 H   0  0  0  0  0  0  0  0  0  0  0  0
  -24.1760  -36.7350   23.1760 C   0  0  0  0  0  1  0  0  0  0  0  0
  -25.4540  -36.3410   23.9350 C   0  0  0  0  0  3  0  0  0  0  0  0
  -27.6170  -37.2390   24.6720 C   0  0  0  0  0  1  0  0  0  0  0  0
  -26.4740  -37.4000   23.7770 N   0  0  0  0  0  0  0  0  0  0  0  0
  -26.0690  -38.3180   23.9430 H   0  0  0  0  0  0  0  0  0  0  0  0
  -26.4420  -31.7190   25.1500 C   0  0  1  0  0  0  0  0  0  0  0  0
  -25.3520  -31.4790   26.2200 C   0  0  0  0  0  1  0  0  0  0  0  0
  -27.0180  -30.3420   24.7480 C   0  0  0  0  0  1  0  0  0  0  0  0
  -27.6000  -32.5020   25.8130 C   0  0  0  0  0  1  0  0  0  0  0  0
  1  2  2  0
  3  1  1  0
  4  5  2  0
  5  2  1  0
  6  3  2  0
  6  4  1  0
  7  4  1  0
  8  7  1  0
  9 22  1  0
 10 15  1  0
 11 12  1  0
 11 10  1  0
 13 12  1  0
 13 26  1  0
 13 14  1  0
 15  9  1  0
 15 14  1  0
 16  9  2  0
 17 21  1  0
 19 17  1  0
 19 22  1  0
 20 18  1  0
 21  7  1  0
 21 18  1  0
 22 20  1  0
 23 24  2  0
 24 43  1  0
 25 24  1  0
 25 28  1  0
 26 23  1  0
 26 27  1  0
 27 25  2  0
 28 29  1  0
 29 30  2  0
 31 34  1  0
 31 30  1  0
 32 31  2  0
 33 32  1  0
 33 28  2  0
 34 35  1  0
 35 36  1  0
 36 37  2  0
 38 37  1  0
 38 42  1  0
 39 38  2  0
 40 35  2  0
 40 39  1  0
 41 40  1  0
 43 44  1  0
 44 47  1  0
 44 46  1  0
 45 43  2  0
 48 49  1  0
 48 23  1  0
 50 48  1  0
 51 52  1  0
 51  3  1  0
 53 64  2  0
 54 52  1  0
 54 59  1  0
 55 63  1  0
 55 65  1  0
 56 62  1  0
 56 58  1  0
 57 63  1  0
 58 57  1  0
 59 58  2  0
 60 61  1  0
 60 54  2  0
 61 56  2  0
 62 55  1  0
 63 53  1  0
 65 67  2  0
 66 65  1  0
 68 66  1  0
 69 78  2  0
 69 74  1  0
 70 66  1  0
 70 74  1  0
 71 70  1  0
 72 73  1  0
 72 71  1  0
 73 69  1  0
 74 75  2  0
 75 76  1  0
 77 76  2  0
 78 77  1  0
 79 53  1  0
 79 80  1  0
 79 89  1  0
 80 83  1  0
 81 85  1  0
 81 80  1  0
 82 81  2  0
 85 84  1  0
 87 85  1  0
 87 88  1  0
 87 86  1  0
 89 92  1  1
 89 90  1  0
 91 89  1  0
M  ISO  4   9 100  22 100  51 101  52 101
M  END
>  <TORSDO>  (10) 
F 17

>  <SCORE>  (10) 
-14.963

>  <name>  (10) 
9

>  <ligand_id>  (10) 
9

>  <original_smiles>  (10) 
[H]c1nc(N([H])C2([H])C([H])([H])C([H])([H])N(C(=O)N3C([H])([H])C([H])([H])C([H])([H])C([H])(n4nc(-c5c([H])c([H])c(Oc6c([H])c([H])c(F)c([H])c6F)c([H])c5[H])c(C(=O)N([H])[H])c4N([H])[H])C3([H])[H])C([H])([H])C2([H])[H])nc(C([H])([H])Oc2c([H])c([H])c3c(c2[H])C([H])([H])N(C(=O)C([H])(N([H])C(=O)C([H])(N([H])C([H])([H])[H])C([H])([H])[H])C(C([H])([H])[H])(C([H])([H])[H])C([H])([H])[H])C([H])(C(=O)N([H])C2([H])c4c([H])c([H])c([H])c([H])c4C([H])([H])C([H])([H])C2([H])[H])C3([H])[H])c1[H]

>  <smiles>  (10) 
[H]c1nc(N([H])C2([H])C([H])([H])C([H])([H])N(C(=O)N3C([H])([H])C([H])([H])C([H])([H])C([H])(n4nc(-c5c([H])c([H])c(Oc6c([H])c([H])c(F)c([H])c6F)c([H])c5[H])c(C(=O)N([H])[H])c4N([H])[H])C3([H])[H])C([H])([H])C2([H])[H])nc(C([H])([H])Oc2c([H])c([H])c3c(c2[H])C([H])([H])N(C(=O)C([H])(N([H])C(=O)C([H])(N([H])C([H])([H])[H])C([H])([H])[H])C(C([H])([H])[H])(C([H])([H])[H])C([H])([H])[H])C([H])(C(=O)N([H])C2([H])c4c([H])c([H])c([H])c([H])c4C([H])([H])C([H])([H])C2([H])[H])C3([H])[H])c1[H]

> <Step>
181.0

> <Scaffold>
O=C(NC1CCCc2ccccc21)C1Cc2ccc(OCc3ccnc(NC4CCN(C(=O)N5CCCC(n6ccc(-c7ccc(Oc8ccccc8)cc7)n6)C5)CC4)n3)cc2CN1

> <SMILES>
CNC(C)C(=O)NC(C(=O)N1Cc2cc(OCc3ccnc(NC4CCN(C(=O)N5CCCC(n6nc(-c7ccc(Oc8ccc(F)cc8F)cc7)c(C(N)=O)c6N)C5)CC4)n3)ccc2CC1C(=O)NC1CCCc2ccccc21)C(C)(C)C

> <Tanimoto ROCS sim>
0.289654940366745

> <Custom alerts>
1.0

> <Linker Num Aromatic Rings>
1.0

> <Linker Effective Length>
1.0

> <ADV>
0.9968711137771606

> <PostDock Tanimoto ROCS sim>
0.9884268045425415

> <raw_Linker Num Aromatic Rings>
1.0

> <raw_Linker Effective Length>
8.0

> <raw_ADV>
-15.012999534606934

> <total_score>
0.9963244199752808

> <ID>
default_job_109

> <PostDock Tanimoto ROCS sim (re-score)>
0.98341644

> <raw_ADV (re-score)>
-14.963

$$$$
default_job_110
     RDKit          3D

 94102  0  0  1  0  0  0  0  0999 V2000
  -31.0190  -23.6750   18.7250 C   0  0  0  0  0  3  0  0  0  0  0  0
  -31.6510  -22.5850   18.1150 C   0  0  0  0  0  0  0  0  0  0  0  0
  -29.8690  -23.4060   19.4810 C   0  0  0  0  0  0  0  0  0  0  0  0
  -30.1280  -21.1780   19.0510 C   0  0  0  0  0  0  0  0  0  0  0  0
  -32.8400  -22.7850   17.1980 C   0  0  0  0  0  1  0  0  0  0  0  0
  -28.2530  -19.6710   18.8650 C   0  0  0  0  0  1  0  0  0  0  0  0
  -31.2060  -21.3280   18.2970 N   0  0  0  0  0  0  0  0  0  0  0  0
  -29.4340  -22.1400   19.6460 N   0  0  0  0  0  0  0  0  0  0  0  0
  -29.6640  -19.8830   19.1910 N   0  0  0  0  0  0  0  0  0  0  0  0
  -29.8790  -24.8820   21.5070 C   0  0  0  0  0  1  0  0  0  0  0  0
  -29.1140  -24.5080   20.2260 C   0  0  0  0  0  3  0  0  0  0  0  0
  -28.7970  -25.7320   19.3310 C   0  0  0  0  0  2  0  0  0  0  0  0
  -28.4850  -26.8660   20.1370 O   0  0  0  0  0  0  0  0  0  0  0  0
  -24.6110  -31.9030   23.2240 C   0  0  0  0  0  0  0  0  0  0  0  0
  -27.2570  -27.4820   20.1230 C   0  0  0  0  0  0  0  0  0  0  0  0
  -23.3950  -30.4920   21.5920 C   0  0  0  0  0  3  0  0  0  0  0  0
  -24.8420  -28.9490   20.1650 C   0  0  0  0  0  0  0  0  0  0  0  0
  -25.9160  -30.8550   21.3820 C   0  0  0  0  0  2  0  0  0  0  0  0
  -25.9960  -29.4850   20.7470 C   0  0  0  0  0  0  0  0  0  0  0  0
  -27.1980  -28.7520   20.7300 C   0  0  0  0  0  3  0  0  0  0  0  0
  -26.0820  -26.9360   19.5570 C   0  0  0  0  0  3  0  0  0  0  0  0
  -24.8770  -27.6710   19.5750 C   0  0  0  0  0  3  0  0  0  0  0  0
  -23.5960  -29.8030   20.2140 C   0  0  0  0  0  2  0  0  0  0  0  0
  -24.6600  -31.0950   22.1260 N   0  0  0  0  0  0  0  0  0  0  0  0
  -23.5290  -32.1940   23.7510 O   0  0  0  0  0  0  0  0  0  0  0  0
  -22.7510  -29.4730   22.5600 C   0  0  0  0  0  0  0  0  0  0  0  0
  -21.4280  -29.2830   22.4350 N   0  0  0  0  0  0  0  0  0  0  0  0
  -23.4400  -28.8550   23.3780 O   0  0  0  0  0  0  0  0  0  0  0  0
  -20.9340  -29.8360   21.7480 H   0  0  0  0  0  0  0  0  0  0  0  0
  -18.0640  -28.0620   22.9170 C   0  0  0  0  0  0  0  0  0  0  0  0
  -20.6170  -28.3430   23.2070 C   0  0  0  0  0  3  0  0  0  0  0  0
  -20.7360  -26.9090   22.6390 C   0  0  0  0  0  2  0  0  0  0  0  0
  -19.6430  -26.5700   21.6190 C   0  0  0  0  0  2  0  0  0  0  0  0
  -18.2560  -26.7100   22.2530 C   0  0  0  0  0  2  0  0  0  0  0  0
  -19.1730  -28.8360   23.3510 C   0  0  0  0  0  0  0  0  0  0  0  0
  -18.9420  -30.1020   23.9300 C   0  0  0  0  0  3  0  0  0  0  0  0
  -17.6320  -30.5970   24.0810 C   0  0  0  0  0  3  0  0  0  0  0  0
  -16.5370  -29.8210   23.6650 C   0  0  0  0  0  3  0  0  0  0  0  0
  -16.7530  -28.5560   23.0890 C   0  0  0  0  0  3  0  0  0  0  0  0
  -25.9030  -32.5240   23.8450 C   0  0  0  0  0  3  0  0  0  0  0  0
  -25.6010  -33.9190   24.1860 N   0  0  0  0  0  0  0  0  0  0  0  0
  -25.9220  -34.9740   23.4260 C   0  0  0  0  0  0  0  0  0  0  0  0
  -26.5800  -34.8750   22.3870 O   0  0  0  0  0  0  0  0  0  0  0  0
  -25.0210  -34.0690   24.9980 H   0  0  0  0  0  0  0  0  0  0  0  0
  -24.1820  -36.7600   23.1020 C   0  0  0  0  0  1  0  0  0  0  0  0
  -25.4360  -36.3590   23.8940 C   0  0  0  0  0  3  0  0  0  0  0  0
  -27.5820  -37.2470   24.6930 C   0  0  0  0  0  1  0  0  0  0  0  0
  -26.4630  -37.4160   23.7690 N   0  0  0  0  0  0  0  0  0  0  0  0
  -26.0570  -38.3340   23.9250 H   0  0  0  0  0  0  0  0  0  0  0  0
  -26.4350  -31.7430   25.1110 C   0  0  1  0  0  0  0  0  0  0  0  0
  -25.3550  -31.5050   26.1910 C   0  0  0  0  0  1  0  0  0  0  0  0
  -27.0080  -30.3670   24.6990 C   0  0  0  0  0  1  0  0  0  0  0  0
  -27.5970  -32.5300   25.7630 C   0  0  0  0  0  1  0  0  0  0  0  0
  -30.2240  -19.1060   20.3040 C   0  0  0  0  0  2  0  0  0  0  0  0
  -29.9960  -17.5830   20.1690 C   0  0  0  0  0  2  0  0  0  0  0  0
  -30.5280  -16.7560   21.3610 C   0  0  0  0  0  2  0  0  0  0  0  0
  -30.6940  -14.4070   20.5440 C   0  0  0  0  0  0  0  0  0  0  0  0
  -30.3340  -12.2980   19.3290 C   0  0  0  0  0  2  0  0  0  0  0  0
  -29.3960  -12.5690   18.1360 C   0  0  0  0  0  2  0  0  0  0  0  0
  -27.9210  -12.4460   18.5620 C   0  0  0  0  0  2  0  0  0  0  0  0
  -27.6000  -13.2430   19.8540 C   0  0  0  0  0  3  0  0  0  0  0  0
  -28.6580  -12.9670   20.9500 C   0  0  0  0  0  2  0  0  0  0  0  0
  -29.9900  -13.2550   20.3880 N   0  0  0  0  0  0  0  0  0  0  0  0
  -31.7710  -14.6260   19.9830 O   0  0  0  0  0  0  0  0  0  0  0  0
  -30.0980  -15.3550   21.2760 N   0  0  0  0  0  0  0  0  0  0  0  0
  -29.2350  -15.1040   21.7340 H   0  0  0  0  0  0  0  0  0  0  0  0
  -25.1930  -13.8470   20.5450 C   0  0  0  0  0  0  0  0  0  0  0  0
  -24.1260  -13.0740   20.9150 C   0  0  0  0  0  0  0  0  0  0  0  0
  -24.5880  -11.7220   20.8900 C   0  0  0  0  0  0  0  0  0  0  0  0
  -26.2430  -12.9670   20.3260 N   0  0  0  0  0  0  0  0  0  0  0  0
  -25.8790  -11.6840   20.5860 N   0  0  0  0  0  0  0  0  0  0  0  0
  -23.8610  -10.4610   21.0830 C   0  0  0  0  0  0  0  0  0  0  0  0
  -24.3060   -9.4860   22.0020 C   0  0  0  0  0  3  0  0  0  0  0  0
  -23.5800   -8.2890   22.1850 C   0  0  0  0  0  3  0  0  0  0  0  0
  -22.3960   -8.0580   21.4470 C   0  0  0  0  0  0  0  0  0  0  0  0
  -21.9670   -9.0230   20.5180 C   0  0  0  0  0  3  0  0  0  0  0  0
  -22.6940  -10.2110   20.3340 C   0  0  0  0  0  3  0  0  0  0  0  0
  -21.6420   -6.9140   21.5390 O   0  0  0  0  0  0  0  0  0  0  0  0
  -21.6280   -6.1490   22.6780 C   0  0  0  0  0  0  0  0  0  0  0  0
  -21.2580   -6.6860   23.9300 C   0  0  0  0  0  3  0  0  0  0  0  0
  -21.1890   -5.8500   25.0630 C   0  0  0  0  0  3  0  0  0  0  0  0
  -21.4820   -4.4770   24.9450 C   0  0  0  0  0  0  0  0  0  0  0  0
  -21.8450   -3.9400   23.6970 C   0  0  0  0  0  3  0  0  0  0  0  0
  -21.9150   -4.7730   22.5670 C   0  0  0  0  0  0  0  0  0  0  0  0
  -22.2440   -4.2460   21.3620 F   0  0  0  0  0  0  0  0  0  0  0  0
  -21.4100   -3.6710   26.0300 F   0  0  0  0  0  0  0  0  0  0  0  0
  -22.7270  -13.5510   21.1850 C   0  0  0  0  0  0  0  0  0  0  0  0
  -22.0020  -12.8600   22.0560 N   0  0  0  0  0  0  0  0  0  0  0  0
  -22.2880  -14.5720   20.6580 O   0  0  0  0  0  0  0  0  0  0  0  0
  -22.3700  -12.0320   22.5040 H   0  0  0  0  0  0  0  0  0  0  0  0
  -21.0630  -13.1600   22.2810 H   0  0  0  0  0  0  0  0  0  0  0  0
  -25.3540  -15.2180   20.3610 N   0  0  0  0  0  0  0  0  0  0  0  0
  -24.5820  -15.8680   20.4630 H   0  0  0  0  0  0  0  0  0  0  0  0
  -26.2080  -15.6620   20.0490 H   0  0  0  0  0  0  0  0  0  0  0  0
  1  3  1  0
  2  7  1  0
  2  1  2  0
  3  8  2  0
  3 11  1  0
  4  9  1  0
  4  8  1  0
  5  2  1  0
  6  9  1  0
  7  4  2  0
  9 54  1  0
 11 10  1  0
 12 13  1  0
 12 11  1  0
 14 25  2  0
 15 13  1  0
 15 20  1  0
 16 24  1  0
 16 26  1  0
 17 23  1  0
 17 19  1  0
 18 24  1  0
 19 18  1  0
 20 19  2  0
 21 22  1  0
 21 15  2  0
 22 17  2  0
 23 16  1  0
 24 14  1  0
 26 28  2  0
 27 26  1  0
 29 27  1  0
 30 39  2  0
 30 35  1  0
 31 27  1  0
 31 35  1  0
 32 31  1  0
 33 34  1  0
 33 32  1  0
 34 30  1  0
 35 36  2  0
 36 37  1  0
 38 37  2  0
 39 38  1  0
 40 14  1  0
 40 41  1  0
 40 50  1  0
 41 44  1  0
 42 46  1  0
 42 41  1  0
 43 42  2  0
 46 45  1  0
 48 46  1  0
 48 49  1  0
 48 47  1  0
 50 53  1  1
 50 51  1  0
 52 50  1  0
 55 54  1  0
 55 56  1  0
 57 65  1  0
 58 63  1  0
 59 60  1  0
 59 58  1  0
 61 60  1  0
 61 70  1  0
 61 62  1  0
 63 57  1  0
 63 62  1  0
 64 57  2  0
 65 56  1  0
 65 66  1  0
 67 68  2  0
 68 87  1  0
 69 68  1  0
 69 72  1  0
 70 67  1  0
 70 71  1  0
 71 69  2  0
 72 73  1  0
 73 74  2  0
 75 78  1  0
 75 74  1  0
 76 75  2  0
 77 76  1  0
 77 72  2  0
 78 79  1  0
 79 80  1  0
 80 81  2  0
 82 81  1  0
 82 86  1  0
 83 82  2  0
 84 79  2  0
 84 83  1  0
 85 84  1  0
 87 88  1  0
 88 91  1  0
 88 90  1  0
 89 87  2  0
 92 93  1  0
 92 67  1  0
 94 92  1  0
M  ISO  4  12 101  13 101  57 100  65 100
M  END
>  <TORSDO>  (11) 
F 21

>  <SCORE>  (11) 
-13.544

>  <name>  (11) 
10

>  <ligand_id>  (11) 
10

>  <original_smiles>  (11) 
[H]c1c(C([H])([H])[H])nc(N(C([H])([H])[H])C([H])([H])C([H])([H])C([H])([H])N([H])C(=O)N2C([H])([H])C([H])([H])C([H])([H])C([H])(n3nc(-c4c([H])c([H])c(Oc5c([H])c([H])c(F)c([H])c5F)c([H])c4[H])c(C(=O)N([H])[H])c3N([H])[H])C2([H])[H])nc1C([H])(C([H])([H])[H])C([H])([H])Oc1c([H])c([H])c2c(c1[H])C([H])([H])N(C(=O)C([H])(N([H])C(=O)C([H])(N([H])C([H])([H])[H])C([H])([H])[H])C(C([H])([H])[H])(C([H])([H])[H])C([H])([H])[H])C([H])(C(=O)N([H])C1([H])c3c([H])c([H])c([H])c([H])c3C([H])([H])C([H])([H])C1([H])[H])C2([H])[H]

>  <smiles>  (11) 
[H]c1c(C([H])([H])[H])nc(N(C([H])([H])[H])C([H])([H])C([H])([H])C([H])([H])N([H])C(=O)N2C([H])([H])C([H])([H])C([H])([H])C([H])(n3nc(-c4c([H])c([H])c(Oc5c([H])c([H])c(F)c([H])c5F)c([H])c4[H])c(C(=O)N([H])[H])c3N([H])[H])C2([H])[H])nc1C([H])(C([H])([H])[H])C([H])([H])Oc1c([H])c([H])c2c(c1[H])C([H])([H])N(C(=O)C([H])(N([H])C(=O)C([H])(N([H])C([H])([H])[H])C([H])([H])[H])C(C([H])([H])[H])(C([H])([H])[H])C([H])([H])[H])C([H])(C(=O)N([H])C1([H])c3c([H])c([H])c([H])c([H])c3C([H])([H])C([H])([H])C1([H])[H])C2([H])[H]

> <Step>
74.0

> <Scaffold>
O=C(NC1CCCc2ccccc21)C1Cc2ccc(OCCc3ccnc(NCCCNC(=O)N4CCCC(n5ccc(-c6ccc(Oc7ccccc7)cc6)n5)C4)n3)cc2CN1

> <SMILES>
CNC(C)C(=O)NC(C(=O)N1Cc2cc(OCC(C)c3cc(C)nc(N(C)CCCNC(=O)N4CCCC(n5nc(-c6ccc(Oc7ccc(F)cc7F)cc6)c(C(N)=O)c5N)C4)n3)ccc2CC1C(=O)NC1CCCc2ccccc21)C(C)(C)C

> <Tanimoto ROCS sim>
0.21623137593269348

> <Custom alerts>
1.0

> <Linker Num Aromatic Rings>
1.0

> <Linker Effective Length>
1.0

> <ADV>
0.9928036332130432

> <PostDock Tanimoto ROCS sim>
0.9924906492233276

> <raw_Linker Num Aromatic Rings>
1.0

> <raw_Linker Effective Length>
9.0

> <raw_ADV>
-13.559000015258789

> <total_score>
0.9963235855102539

> <ID>
default_job_110

> <PostDock Tanimoto ROCS sim (re-score)>
0.98696595

> <raw_ADV (re-score)>
-13.544

$$$$
default_job_111
     RDKit          3D

 94103  0  0  1  0  0  0  0  0999 V2000
  -29.7390  -23.3560   21.7240 C   0  0  0  0  0  3  0  0  0  0  0  0
  -28.2550  -23.0860   19.8810 C   0  0  0  0  0  3  0  0  0  0  0  0
  -28.7790  -23.9510   20.8740 C   0  0  0  0  0  0  0  0  0  0  0  0
  -30.1550  -22.0080   21.5450 C   0  0  0  0  0  0  0  0  0  0  0  0
  -29.6110  -21.2310   20.4870 C   0  0  0  0  0  0  0  0  0  0  0  0
  -31.1810  -21.4320   22.5060 C   0  0  0  0  0  1  0  0  0  0  0  0
  -28.6460  -21.7830   19.6990 N   0  0  0  0  0  0  0  0  0  0  0  0
  -31.3010  -18.5200   18.1730 C   0  0  0  0  0  2  0  0  0  0  0  0
  -30.5070  -19.7720   18.5760 C   0  0  0  0  0  2  0  0  0  0  0  0
  -30.5730  -17.2350   18.5890 C   0  0  0  0  0  2  0  0  0  0  0  0
  -29.5220  -18.4530   20.5550 C   0  0  0  0  0  2  0  0  0  0  0  0
  -30.1990  -19.8190   20.0890 C   0  0  0  0  0  3  0  0  0  0  0  0
  -30.3700  -17.1720   20.1210 C   0  0  0  0  0  3  0  0  0  0  0  0
  -30.6440  -14.6440   20.3950 C   0  0  0  0  0  0  0  0  0  0  0  0
  -30.3710  -12.4130   19.3630 C   0  0  0  0  0  2  0  0  0  0  0  0
  -29.4420  -12.5510   18.1400 C   0  0  0  0  0  2  0  0  0  0  0  0
  -27.9680  -12.4050   18.5650 C   0  0  0  0  0  2  0  0  0  0  0  0
  -27.6080  -13.2770   19.7990 C   0  0  0  0  0  3  0  0  0  0  0  0
  -28.6640  -13.1490   20.9200 C   0  0  0  0  0  2  0  0  0  0  0  0
  -29.9730  -13.4540   20.3310 N   0  0  0  0  0  0  0  0  0  0  0  0
  -31.8360  -14.7150   20.0890 O   0  0  0  0  0  0  0  0  0  0  0  0
  -29.9040  -15.7920   20.5230 N   0  0  0  0  0  0  0  0  0  0  0  0
  -28.9260  -15.6770   20.7460 H   0  0  0  0  0  0  0  0  0  0  0  0
  -25.2130  -13.8720   20.5080 C   0  0  0  0  0  0  0  0  0  0  0  0
  -24.1480  -13.0980   20.8790 C   0  0  0  0  0  0  0  0  0  0  0  0
  -24.6140  -11.7480   20.8590 C   0  0  0  0  0  0  0  0  0  0  0  0
  -26.2610  -12.9930   20.2830 N   0  0  0  0  0  0  0  0  0  0  0  0
  -25.9060  -11.7110   20.5570 N   0  0  0  0  0  0  0  0  0  0  0  0
  -23.8890  -10.4850   21.0520 C   0  0  0  0  0  0  0  0  0  0  0  0
  -24.3280   -9.5160   21.9810 C   0  0  0  0  0  3  0  0  0  0  0  0
  -23.6040   -8.3180   22.1630 C   0  0  0  0  0  3  0  0  0  0  0  0
  -22.4260   -8.0810   21.4170 C   0  0  0  0  0  0  0  0  0  0  0  0
  -22.0060   -9.0380   20.4750 C   0  0  0  0  0  3  0  0  0  0  0  0
  -22.7310  -10.2270   20.2920 C   0  0  0  0  0  3  0  0  0  0  0  0
  -21.6720   -6.9360   21.5080 O   0  0  0  0  0  0  0  0  0  0  0  0
  -21.6440   -6.1830   22.6540 C   0  0  0  0  0  0  0  0  0  0  0  0
  -21.2500   -6.7280   23.8950 C   0  0  0  0  0  3  0  0  0  0  0  0
  -21.1690   -5.9030   25.0340 C   0  0  0  0  0  3  0  0  0  0  0  0
  -21.4710   -4.5310   24.9330 C   0  0  0  0  0  0  0  0  0  0  0  0
  -21.8580   -3.9840   23.6970 C   0  0  0  0  0  3  0  0  0  0  0  0
  -21.9410   -4.8070   22.5600 C   0  0  0  0  0  0  0  0  0  0  0  0
  -22.2940   -4.2720   21.3660 F   0  0  0  0  0  0  0  0  0  0  0  0
  -21.3860   -3.7350   26.0240 F   0  0  0  0  0  0  0  0  0  0  0  0
  -22.7480  -13.5730   21.1400 C   0  0  0  0  0  0  0  0  0  0  0  0
  -22.0180  -12.8820   22.0090 N   0  0  0  0  0  0  0  0  0  0  0  0
  -22.3100  -14.5930   20.6100 O   0  0  0  0  0  0  0  0  0  0  0  0
  -22.3870  -12.0570   22.4600 H   0  0  0  0  0  0  0  0  0  0  0  0
  -21.0780  -13.1810   22.2260 H   0  0  0  0  0  0  0  0  0  0  0  0
  -25.3730  -15.2420   20.3200 N   0  0  0  0  0  0  0  0  0  0  0  0
  -24.5990  -15.8890   20.4120 H   0  0  0  0  0  0  0  0  0  0  0  0
  -26.2100  -15.6780   19.9560 H   0  0  0  0  0  0  0  0  0  0  0  0
  -26.8220  -25.1690   21.9040 C   0  0  0  0  0  1  0  0  0  0  0  0
  -28.1960  -25.3700   21.2220 C   0  0  0  0  0  3  0  0  0  0  0  0
  -28.2790  -26.4680   20.2270 O   0  0  0  0  0  0  0  0  0  0  0  0
  -24.6250  -31.9030   23.2480 C   0  0  0  0  0  0  0  0  0  0  0  0
  -27.2130  -27.3680   20.1770 C   0  0  0  0  0  0  0  0  0  0  0  0
  -23.4120  -30.4980   21.6220 C   0  0  0  0  0  3  0  0  0  0  0  0
  -24.8550  -28.9630   20.1760 C   0  0  0  0  0  0  0  0  0  0  0  0
  -25.9490  -30.8250   21.4260 C   0  0  0  0  0  2  0  0  0  0  0  0
  -26.0250  -29.4530   20.7740 C   0  0  0  0  0  0  0  0  0  0  0  0
  -27.2120  -28.6640   20.7720 C   0  0  0  0  0  3  0  0  0  0  0  0
  -26.0380  -26.9370   19.5300 C   0  0  0  0  0  3  0  0  0  0  0  0
  -24.8630  -27.7080   19.5450 C   0  0  0  0  0  3  0  0  0  0  0  0
  -23.6170  -29.8300   20.2370 C   0  0  0  0  0  2  0  0  0  0  0  0
  -24.6820  -31.0880   22.1580 N   0  0  0  0  0  0  0  0  0  0  0  0
  -23.5410  -32.2070   23.7640 O   0  0  0  0  0  0  0  0  0  0  0  0
  -22.7580  -29.4780   22.5840 C   0  0  0  0  0  0  0  0  0  0  0  0
  -21.4330  -29.2920   22.4590 N   0  0  0  0  0  0  0  0  0  0  0  0
  -23.4420  -28.8560   23.4020 O   0  0  0  0  0  0  0  0  0  0  0  0
  -20.9400  -29.8460   21.7730 H   0  0  0  0  0  0  0  0  0  0  0  0
  -18.0650  -28.0650   22.9430 C   0  0  0  0  0  0  0  0  0  0  0  0
  -20.6200  -28.3520   23.2320 C   0  0  0  0  0  3  0  0  0  0  0  0
  -20.7400  -26.9180   22.6680 C   0  0  0  0  0  2  0  0  0  0  0  0
  -19.6490  -26.5760   21.6490 C   0  0  0  0  0  2  0  0  0  0  0  0
  -18.2620  -26.7130   22.2810 C   0  0  0  0  0  2  0  0  0  0  0  0
  -19.1740  -28.8410   23.3770 C   0  0  0  0  0  0  0  0  0  0  0  0
  -18.9380  -30.1060   23.9580 C   0  0  0  0  0  3  0  0  0  0  0  0
  -17.6280  -30.5940   24.1120 C   0  0  0  0  0  3  0  0  0  0  0  0
  -16.5340  -29.8150   23.6980 C   0  0  0  0  0  3  0  0  0  0  0  0
  -16.7530  -28.5530   23.1180 C   0  0  0  0  0  3  0  0  0  0  0  0
  -25.9140  -32.5240   23.8740 C   0  0  0  0  0  3  0  0  0  0  0  0
  -25.6130  -33.9240   24.2080 N   0  0  0  0  0  0  0  0  0  0  0  0
  -25.9390  -34.9740   23.4440 C   0  0  0  0  0  0  0  0  0  0  0  0
  -26.5980  -34.8660   22.4060 O   0  0  0  0  0  0  0  0  0  0  0  0
  -25.0290  -34.0810   25.0160 H   0  0  0  0  0  0  0  0  0  0  0  0
  -24.2050  -36.7640   23.1100 C   0  0  0  0  0  1  0  0  0  0  0  0
  -25.4590  -36.3640   23.9040 C   0  0  0  0  0  3  0  0  0  0  0  0
  -27.6070  -37.2470   24.6980 C   0  0  0  0  0  1  0  0  0  0  0  0
  -26.4890  -37.4160   23.7740 N   0  0  0  0  0  0  0  0  0  0  0  0
  -26.0860  -38.3360   23.9300 H   0  0  0  0  0  0  0  0  0  0  0  0
  -26.4320  -31.7500   25.1490 C   0  0  1  0  0  0  0  0  0  0  0  0
  -25.3400  -31.5210   26.2180 C   0  0  0  0  0  1  0  0  0  0  0  0
  -27.0070  -30.3690   24.7560 C   0  0  0  0  0  1  0  0  0  0  0  0
  -27.5880  -32.5400   25.8080 C   0  0  0  0  0  1  0  0  0  0  0  0
  2  3  1  0
  3 53  1  0
  3  1  2  0
  4  1  1  0
  4  6  1  0
  5  4  2  0
  7  2  2  0
  7  5  1  0
  8  9  1  0
  8 10  1  0
  9 12  1  0
 10 13  1  0
 12  5  1  0
 12 11  1  0
 13 22  1  0
 13 11  1  0
 14 22  1  0
 15 20  1  0
 16 17  1  0
 16 15  1  0
 18 17  1  0
 18 27  1  0
 18 19  1  0
 20 14  1  0
 20 19  1  0
 21 14  2  0
 22 23  1  0
 24 25  2  0
 25 44  1  0
 26 25  1  0
 26 29  1  0
 27 24  1  0
 27 28  1  0
 28 26  2  0
 29 30  1  0
 30 31  2  0
 32 35  1  0
 32 31  1  0
 33 32  2  0
 34 33  1  0
 34 29  2  0
 35 36  1  0
 36 37  1  0
 37 38  2  0
 39 38  1  0
 39 43  1  0
 40 39  2  0
 41 36  2  0
 41 40  1  0
 42 41  1  0
 44 45  1  0
 45 48  1  0
 45 47  1  0
 46 44  2  0
 49 50  1  0
 49 24  1  0
 51 49  1  0
 53 52  1  0
 54 53  1  0
 55 66  2  0
 56 54  1  0
 56 61  1  0
 57 65  1  0
 57 67  1  0
 58 64  1  0
 58 60  1  0
 59 65  1  0
 60 59  1  0
 61 60  2  0
 62 63  1  0
 62 56  2  0
 63 58  2  0
 64 57  1  0
 65 55  1  0
 67 69  2  0
 68 67  1  0
 70 68  1  0
 71 80  2  0
 71 76  1  0
 72 68  1  0
 72 76  1  0
 73 72  1  0
 74 75  1  0
 74 73  1  0
 75 71  1  0
 76 77  2  0
 77 78  1  0
 79 78  2  0
 80 79  1  0
 81 55  1  0
 81 82  1  0
 81 91  1  0
 82 85  1  0
 83 87  1  0
 83 82  1  0
 84 83  2  0
 87 86  1  0
 89 87  1  0
 89 90  1  0
 89 88  1  0
 91 94  1  1
 91 92  1  0
 93 91  1  0
M  ISO  4  14 100  22 100  53 101  54 101
M  END
>  <TORSDO>  (12) 
F 18

>  <SCORE>  (12) 
-15.0

>  <name>  (12) 
11

>  <ligand_id>  (12) 
11

>  <original_smiles>  (12) 
[H]c1nc(C2([H])C([H])([H])C([H])([H])C([H])([H])C([H])(N([H])C(=O)N3C([H])([H])C([H])([H])C([H])([H])C([H])(n4nc(-c5c([H])c([H])c(Oc6c([H])c([H])c(F)c([H])c6F)c([H])c5[H])c(C(=O)N([H])[H])c4N([H])[H])C3([H])[H])C2([H])[H])c(C([H])([H])[H])c([H])c1C([H])(Oc1c([H])c([H])c2c(c1[H])C([H])([H])N(C(=O)C([H])(N([H])C(=O)C([H])(N([H])C([H])([H])[H])C([H])([H])[H])C(C([H])([H])[H])(C([H])([H])[H])C([H])([H])[H])C([H])(C(=O)N([H])C1([H])c3c([H])c([H])c([H])c([H])c3C([H])([H])C([H])([H])C1([H])[H])C2([H])[H])C([H])([H])[H]

>  <smiles>  (12) 
[H]c1nc(C2([H])C([H])([H])C([H])([H])C([H])([H])C([H])(N([H])C(=O)N3C([H])([H])C([H])([H])C([H])([H])C([H])(n4nc(-c5c([H])c([H])c(Oc6c([H])c([H])c(F)c([H])c6F)c([H])c5[H])c(C(=O)N([H])[H])c4N([H])[H])C3([H])[H])C2([H])[H])c(C([H])([H])[H])c([H])c1C([H])(Oc1c([H])c([H])c2c(c1[H])C([H])([H])N(C(=O)C([H])(N([H])C(=O)C([H])(N([H])C([H])([H])[H])C([H])([H])[H])C(C([H])([H])[H])(C([H])([H])[H])C([H])([H])[H])C([H])(C(=O)N([H])C1([H])c3c([H])c([H])c([H])c([H])c3C([H])([H])C([H])([H])C1([H])[H])C2([H])[H])C([H])([H])[H]

> <Step>
122.0

> <Scaffold>
O=C(NC1CCCc2ccccc21)C1Cc2ccc(OCc3ccc(C4CCCC(NC(=O)N5CCCC(n6ccc(-c7ccc(Oc8ccccc8)cc7)n6)C5)C4)nc3)cc2CN1

> <SMILES>
CNC(C)C(=O)NC(C(=O)N1Cc2cc(OC(C)c3cnc(C4CCCC(NC(=O)N5CCCC(n6nc(-c7ccc(Oc8ccc(F)cc8F)cc7)c(C(N)=O)c6N)C5)C4)c(C)c3)ccc2CC1C(=O)NC1CCCc2ccccc21)C(C)(C)C

> <Tanimoto ROCS sim>
0.2561066746711731

> <Custom alerts>
1.0

> <Linker Num Aromatic Rings>
1.0

> <Linker Effective Length>
1.0

> <ADV>
0.9968494772911072

> <PostDock Tanimoto ROCS sim>
0.9884369373321533

> <raw_Linker Num Aromatic Rings>
1.0

> <raw_Linker Effective Length>
8.0

> <raw_ADV>
-15.00100040435791

> <total_score>
0.9963216185569763

> <ID>
default_job_111

> <PostDock Tanimoto ROCS sim (re-score)>
0.98314005

> <raw_ADV (re-score)>
-15.0

$$$$
default_job_112
     RDKit          3D

 94103  0  0  1  0  0  0  0  0999 V2000
  -32.6190  -21.9260   21.2200 C   0  0  0  0  0  3  0  0  0  0  0  0
  -32.1070  -20.7090   20.7340 C   0  0  0  0  0  3  0  0  0  0  0  0
  -31.7910  -23.0600   21.3080 C   0  0  0  0  0  3  0  0  0  0  0  0
  -29.9200  -21.7490   20.4700 C   0  0  0  0  0  3  0  0  0  0  0  0
  -30.7570  -20.6120   20.3350 C   0  0  0  0  0  0  0  0  0  0  0  0
  -30.4240  -22.9850   20.9380 C   0  0  0  0  0  0  0  0  0  0  0  0
  -28.7590  -18.1850   17.9870 C   0  0  0  0  0  2  0  0  0  0  0  0
  -29.0380  -19.4680   18.7850 C   0  0  0  0  0  2  0  0  0  0  0  0
  -28.6340  -16.9720   18.9180 C   0  0  0  0  0  2  0  0  0  0  0  0
  -30.1180  -18.1030   20.6410 C   0  0  0  0  0  2  0  0  0  0  0  0
  -30.2870  -19.3100   19.6770 C   0  0  0  0  0  3  0  0  0  0  0  0
  -29.8820  -16.8170   19.8110 C   0  0  0  0  0  3  0  0  0  0  0  0
  -30.5600  -14.5090   20.3900 C   0  0  0  0  0  0  0  0  0  0  0  0
  -30.2630  -12.3410   19.2960 C   0  0  0  0  0  2  0  0  0  0  0  0
  -29.3120  -12.5600   18.1010 C   0  0  0  0  0  2  0  0  0  0  0  0
  -27.8430  -12.4150   18.5460 C   0  0  0  0  0  2  0  0  0  0  0  0
  -27.5110  -13.2410   19.8160 C   0  0  0  0  0  3  0  0  0  0  0  0
  -28.5830  -13.0350   20.9140 C   0  0  0  0  0  2  0  0  0  0  0  0
  -29.9020  -13.3230   20.3290 N   0  0  0  0  0  0  0  0  0  0  0  0
  -31.7150  -14.6630   19.9850 O   0  0  0  0  0  0  0  0  0  0  0  0
  -29.7670  -15.5760   20.5990 N   0  0  0  0  0  0  0  0  0  0  0  0
  -28.8570  -15.3680   20.9800 H   0  0  0  0  0  0  0  0  0  0  0  0
  -25.1150  -13.8280   20.5520 C   0  0  0  0  0  0  0  0  0  0  0  0
  -24.0570  -13.0470   20.9310 C   0  0  0  0  0  0  0  0  0  0  0  0
  -24.5290  -11.6990   20.8880 C   0  0  0  0  0  0  0  0  0  0  0  0
  -26.1650  -12.9550   20.3060 N   0  0  0  0  0  0  0  0  0  0  0  0
  -25.8150  -11.6710   20.5660 N   0  0  0  0  0  0  0  0  0  0  0  0
  -23.8150  -10.4290   21.0790 C   0  0  0  0  0  0  0  0  0  0  0  0
  -24.2680   -9.4600   22.0000 C   0  0  0  0  0  3  0  0  0  0  0  0
  -23.5550   -8.2540   22.1790 C   0  0  0  0  0  3  0  0  0  0  0  0
  -22.3740   -8.0100   21.4370 C   0  0  0  0  0  0  0  0  0  0  0  0
  -21.9410   -8.9710   20.5050 C   0  0  0  0  0  3  0  0  0  0  0  0
  -22.6550  -10.1660   20.3240 C   0  0  0  0  0  3  0  0  0  0  0  0
  -21.6320   -6.8580   21.5240 O   0  0  0  0  0  0  0  0  0  0  0  0
  -21.6090   -6.1030   22.6700 C   0  0  0  0  0  0  0  0  0  0  0  0
  -21.1950   -6.6390   23.9080 C   0  0  0  0  0  3  0  0  0  0  0  0
  -21.1220   -5.8100   25.0460 C   0  0  0  0  0  3  0  0  0  0  0  0
  -21.4500   -4.4450   24.9450 C   0  0  0  0  0  0  0  0  0  0  0  0
  -21.8590   -3.9080   23.7110 C   0  0  0  0  0  3  0  0  0  0  0  0
  -21.9340   -4.7350   22.5760 C   0  0  0  0  0  0  0  0  0  0  0  0
  -22.3070   -4.2080   21.3850 F   0  0  0  0  0  0  0  0  0  0  0  0
  -21.3720   -3.6470   26.0360 F   0  0  0  0  0  0  0  0  0  0  0  0
  -22.6580  -13.5120   21.2190 C   0  0  0  0  0  0  0  0  0  0  0  0
  -21.9410  -12.8080   22.0870 N   0  0  0  0  0  0  0  0  0  0  0  0
  -22.2080  -14.5380   20.7110 O   0  0  0  0  0  0  0  0  0  0  0  0
  -22.3170  -11.9800   22.5260 H   0  0  0  0  0  0  0  0  0  0  0  0
  -21.0050  -13.1040   22.3210 H   0  0  0  0  0  0  0  0  0  0  0  0
  -25.2690  -15.2000   20.3750 N   0  0  0  0  0  0  0  0  0  0  0  0
  -24.4950  -15.8470   20.4870 H   0  0  0  0  0  0  0  0  0  0  0  0
  -26.1050  -15.6410   20.0160 H   0  0  0  0  0  0  0  0  0  0  0  0
  -29.5480  -24.0560   20.9970 O   0  0  0  0  0  0  0  0  0  0  0  0
  -30.0770  -25.3530   21.2970 C   0  0  0  0  0  2  0  0  0  0  0  0
  -28.9680  -26.4190   21.4070 C   0  0  0  0  0  2  0  0  0  0  0  0
  -28.4270  -26.7550   20.1310 O   0  0  0  0  0  0  0  0  0  0  0  0
  -24.6000  -31.9280   23.2470 C   0  0  0  0  0  0  0  0  0  0  0  0
  -27.2780  -27.5090   20.1740 C   0  0  0  0  0  0  0  0  0  0  0  0
  -23.4020  -30.5140   21.6080 C   0  0  0  0  0  3  0  0  0  0  0  0
  -24.8670  -28.9820   20.1860 C   0  0  0  0  0  0  0  0  0  0  0  0
  -25.9240  -30.8860   21.4150 C   0  0  0  0  0  2  0  0  0  0  0  0
  -26.0180  -29.5150   20.7830 C   0  0  0  0  0  0  0  0  0  0  0  0
  -27.2250  -28.7840   20.7850 C   0  0  0  0  0  3  0  0  0  0  0  0
  -26.1190  -26.9900   19.5650 C   0  0  0  0  0  3  0  0  0  0  0  0
  -24.9110  -27.7150   19.5770 C   0  0  0  0  0  3  0  0  0  0  0  0
  -23.6160  -29.8310   20.2300 C   0  0  0  0  0  2  0  0  0  0  0  0
  -24.6600  -31.1220   22.1500 N   0  0  0  0  0  0  0  0  0  0  0  0
  -23.5130  -32.2180   23.7650 O   0  0  0  0  0  0  0  0  0  0  0  0
  -22.7540  -29.4910   22.5690 C   0  0  0  0  0  0  0  0  0  0  0  0
  -21.4320  -29.2940   22.4290 N   0  0  0  0  0  0  0  0  0  0  0  0
  -23.4370  -28.8750   23.3910 O   0  0  0  0  0  0  0  0  0  0  0  0
  -20.9430  -29.8440   21.7360 H   0  0  0  0  0  0  0  0  0  0  0  0
  -18.0670  -28.0670   22.8930 C   0  0  0  0  0  0  0  0  0  0  0  0
  -20.6180  -28.3510   23.1960 C   0  0  0  0  0  3  0  0  0  0  0  0
  -20.7430  -26.9190   22.6260 C   0  0  0  0  0  2  0  0  0  0  0  0
  -19.6560  -26.5810   21.6000 C   0  0  0  0  0  2  0  0  0  0  0  0
  -18.2660  -26.7160   22.2270 C   0  0  0  0  0  2  0  0  0  0  0  0
  -19.1730  -28.8420   23.3340 C   0  0  0  0  0  0  0  0  0  0  0  0
  -18.9340  -30.1070   23.9150 C   0  0  0  0  0  3  0  0  0  0  0  0
  -17.6230  -30.5960   24.0610 C   0  0  0  0  0  3  0  0  0  0  0  0
  -16.5310  -29.8170   23.6390 C   0  0  0  0  0  3  0  0  0  0  0  0
  -16.7530  -28.5540   23.0610 C   0  0  0  0  0  3  0  0  0  0  0  0
  -25.8850  -32.5530   23.8770 C   0  0  0  0  0  3  0  0  0  0  0  0
  -26.3980  -31.7830   25.1550 C   0  0  1  0  0  0  0  0  0  0  0  0
  -25.3020  -31.5480   26.2190 C   0  0  0  0  0  1  0  0  0  0  0  0
  -26.9820  -30.4050   24.7650 C   0  0  0  0  0  1  0  0  0  0  0  0
  -27.5490  -32.5770   25.8190 C   0  0  0  0  0  1  0  0  0  0  0  0
  -25.5800  -33.9520   24.2020 N   0  0  0  0  0  0  0  0  0  0  0  0
  -25.9120  -35.0000   23.4360 C   0  0  0  0  0  0  0  0  0  0  0  0
  -26.5830  -34.8890   22.4060 O   0  0  0  0  0  0  0  0  0  0  0  0
  -24.9830  -34.1120   25.0000 H   0  0  0  0  0  0  0  0  0  0  0  0
  -24.1830  -36.7870   23.0680 C   0  0  0  0  0  1  0  0  0  0  0  0
  -25.4230  -36.3890   23.8840 C   0  0  0  0  0  3  0  0  0  0  0  0
  -27.5560  -37.2780   24.7120 C   0  0  0  0  0  1  0  0  0  0  0  0
  -26.4550  -37.4420   23.7660 N   0  0  0  0  0  0  0  0  0  0  0  0
  -26.0500  -38.3630   23.9090 H   0  0  0  0  0  0  0  0  0  0  0  0
  1  3  1  0
  2  1  2  0
  4  6  1  0
  5  4  2  0
  5  2  1  0
  6 51  1  0
  6  3  2  0
  7  8  1  0
  7  9  1  0
  8 11  1  0
  9 12  1  0
 11  5  1  0
 11 10  1  0
 12 21  1  0
 12 10  1  0
 13 21  1  0
 14 19  1  0
 15 16  1  0
 15 14  1  0
 17 16  1  0
 17 26  1  0
 17 18  1  0
 19 13  1  0
 19 18  1  0
 20 13  2  0
 21 22  1  0
 23 24  2  0
 24 43  1  0
 25 24  1  0
 25 28  1  0
 26 23  1  0
 26 27  1  0
 27 25  2  0
 28 29  1  0
 29 30  2  0
 31 34  1  0
 31 30  1  0
 32 31  2  0
 33 32  1  0
 33 28  2  0
 34 35  1  0
 35 36  1  0
 36 37  2  0
 38 37  1  0
 38 42  1  0
 39 38  2  0
 40 35  2  0
 40 39  1  0
 41 40  1  0
 43 44  1  0
 44 47  1  0
 44 46  1  0
 45 43  2  0
 48 49  1  0
 48 23  1  0
 50 48  1  0
 51 52  1  0
 52 53  1  0
 54 56  1  0
 54 53  1  0
 55 66  2  0
 56 61  1  0
 57 65  1  0
 57 67  1  0
 58 64  1  0
 58 60  1  0
 59 65  1  0
 60 61  2  0
 60 59  1  0
 62 63  1  0
 62 56  2  0
 63 58  2  0
 64 57  1  0
 65 55  1  0
 67 69  2  0
 68 67  1  0
 70 68  1  0
 71 80  2  0
 71 76  1  0
 72 68  1  0
 72 76  1  0
 73 72  1  0
 74 75  1  0
 74 73  1  0
 75 71  1  0
 76 77  2  0
 77 78  1  0
 79 78  2  0
 80 79  1  0
 81 55  1  0
 81 86  1  0
 81 82  1  0
 82 85  1  1
 82 83  1  0
 84 82  1  0
 86 89  1  0
 87 91  1  0
 87 86  1  0
 88 87  2  0
 91 90  1  0
 93 91  1  0
 93 94  1  0
 93 92  1  0
M  ISO  4  13 100  21 100  53 101  54 101
M  END
>  <TORSDO>  (13) 
F 20

>  <SCORE>  (13) 
-13.602

>  <name>  (13) 
12

>  <ligand_id>  (13) 
12

>  <original_smiles>  (13) 
[H]c1c([H])c([H])c2c(c1[H])C([H])([H])C([H])([H])C([H])([H])C2([H])N([H])C(=O)C1([H])N(C(=O)C([H])(N([H])C(=O)C([H])(N([H])C([H])([H])[H])C([H])([H])[H])C(C([H])([H])[H])(C([H])([H])[H])C([H])([H])[H])C([H])([H])c2c([H])c(OC([H])([H])C([H])([H])Oc3c([H])c([H])c([H])c(C4([H])C([H])([H])C([H])([H])C([H])([H])C([H])(N([H])C(=O)N5C([H])([H])C([H])([H])C([H])([H])C([H])(n6nc(-c7c([H])c([H])c(Oc8c([H])c([H])c(F)c([H])c8F)c([H])c7[H])c(C(=O)N([H])[H])c6N([H])[H])C5([H])[H])C4([H])[H])c3[H])c([H])c([H])c2C1([H])[H]

>  <smiles>  (13) 
[H]c1c([H])c([H])c2c(c1[H])C([H])([H])C([H])([H])C([H])([H])C2([H])N([H])C(=O)C1([H])N(C(=O)C([H])(N([H])C(=O)C([H])(N([H])C([H])([H])[H])C([H])([H])[H])C(C([H])([H])[H])(C([H])([H])[H])C([H])([H])[H])C([H])([H])c2c([H])c(OC([H])([H])C([H])([H])Oc3c([H])c([H])c([H])c(C4([H])C([H])([H])C([H])([H])C([H])([H])C([H])(N([H])C(=O)N5C([H])([H])C([H])([H])C([H])([H])C([H])(n6nc(-c7c([H])c([H])c(Oc8c([H])c([H])c(F)c([H])c8F)c([H])c7[H])c(C(=O)N([H])[H])c6N([H])[H])C5([H])[H])C4([H])[H])c3[H])c([H])c([H])c2C1([H])[H]

> <Step>
132.0

> <Scaffold>
O=C(NC1CCCc2ccccc21)C1Cc2ccc(OCCOc3cccc(C4CCCC(NC(=O)N5CCCC(n6ccc(-c7ccc(Oc8ccccc8)cc7)n6)C5)C4)c3)cc2CN1

> <SMILES>
CNC(C)C(=O)NC(C(=O)N1Cc2cc(OCCOc3cccc(C4CCCC(NC(=O)N5CCCC(n6nc(-c7ccc(Oc8ccc(F)cc8F)cc7)c(C(N)=O)c6N)C5)C4)c3)ccc2CC1C(=O)NC1CCCc2ccccc21)C(C)(C)C

> <Tanimoto ROCS sim>
0.2121341973543167

> <Custom alerts>
1.0

> <Linker Num Aromatic Rings>
1.0

> <Linker Effective Length>
1.0

> <ADV>
0.9929138422012329

> <PostDock Tanimoto ROCS sim>
0.9923554062843323

> <raw_Linker Num Aromatic Rings>
1.0

> <raw_Linker Effective Length>
9.0

> <raw_ADV>
-13.586000442504883

> <total_score>
0.9963172674179077

> <ID>
default_job_112

> <PostDock Tanimoto ROCS sim (re-score)>
0.9839447

> <raw_ADV (re-score)>
-13.602

$$$$
default_job_113
     RDKit          3D

 91100  0  0  1  0  0  0  0  0999 V2000
  -28.3140  -20.6590   18.8230 C   0  0  0  0  0  2  0  0  0  0  0  0
  -28.3430  -22.2000   18.8700 C   0  0  0  0  0  2  0  0  0  0  0  0
  -29.4590  -21.4270   20.7480 C   0  0  0  0  0  2  0  0  0  0  0  0
  -28.7320  -20.1430   20.2140 C   0  0  0  0  0  3  0  0  0  0  0  0
  -28.6400  -22.5640   20.2530 N   0  0  0  0  0  0  0  0  0  0  0  0
  -30.6970  -14.6190   20.3960 C   0  0  0  0  0  0  0  0  0  0  0  0
  -30.4070  -12.3920   19.3590 C   0  0  0  0  0  2  0  0  0  0  0  0
  -29.4690  -12.5170   18.1410 C   0  0  0  0  0  2  0  0  0  0  0  0
  -27.9990  -12.3710   18.5760 C   0  0  0  0  0  2  0  0  0  0  0  0
  -27.6410  -13.2490   19.8060 C   0  0  0  0  0  3  0  0  0  0  0  0
  -28.7050  -13.1430   20.9210 C   0  0  0  0  0  2  0  0  0  0  0  0
  -30.0090  -13.4390   20.3180 N   0  0  0  0  0  0  0  0  0  0  0  0
  -31.8920  -14.6820   20.0940 O   0  0  0  0  0  0  0  0  0  0  0  0
  -29.6710  -16.4520   19.2290 C   0  0  0  0  0  2  0  0  0  0  0  0
  -30.4760  -16.8130   21.4770 C   0  0  0  0  0  2  0  0  0  0  0  0
  -28.8500  -17.7710   19.3210 C   0  0  0  0  0  2  0  0  0  0  0  0
  -29.7010  -18.1820   21.5260 C   0  0  0  0  0  2  0  0  0  0  0  0
  -29.9800  -15.7880   20.5170 N   0  0  0  0  0  0  0  0  0  0  0  0
  -29.4790  -18.8110   20.1900 N   0  0  2  0  0  4  0  0  0  0  0  0
  -30.3890  -19.0030   19.7980 H   0  0  0  0  0  0  0  0  0  0  0  0
  -25.2550  -13.8450   20.5390 C   0  0  0  0  0  0  0  0  0  0  0  0
  -24.1880  -13.0700   20.9050 C   0  0  0  0  0  0  0  0  0  0  0  0
  -24.6500  -11.7190   20.8710 C   0  0  0  0  0  0  0  0  0  0  0  0
  -26.2980  -12.9650   20.3000 N   0  0  0  0  0  0  0  0  0  0  0  0
  -25.9410  -11.6820   20.5620 N   0  0  0  0  0  0  0  0  0  0  0  0
  -23.9240  -10.4570   21.0550 C   0  0  0  0  0  0  0  0  0  0  0  0
  -24.3560   -9.4850   21.9850 C   0  0  0  0  0  3  0  0  0  0  0  0
  -23.6300   -8.2880   22.1580 C   0  0  0  0  0  3  0  0  0  0  0  0
  -22.4570   -8.0530   21.4040 C   0  0  0  0  0  0  0  0  0  0  0  0
  -22.0440   -9.0130   20.4630 C   0  0  0  0  0  3  0  0  0  0  0  0
  -22.7710  -10.2020   20.2870 C   0  0  0  0  0  3  0  0  0  0  0  0
  -21.7020   -6.9080   21.4870 O   0  0  0  0  0  0  0  0  0  0  0  0
  -21.6480   -6.1640   22.6380 C   0  0  0  0  0  0  0  0  0  0  0  0
  -21.2080   -6.7140   23.8610 C   0  0  0  0  0  3  0  0  0  0  0  0
  -21.1030   -5.8950   25.0040 C   0  0  0  0  0  3  0  0  0  0  0  0
  -21.4270   -4.5280   24.9240 C   0  0  0  0  0  0  0  0  0  0  0  0
  -21.8620   -3.9780   23.7050 C   0  0  0  0  0  3  0  0  0  0  0  0
  -21.9680   -4.7930   22.5640 C   0  0  0  0  0  0  0  0  0  0  0  0
  -22.3670   -4.2530   21.3870 F   0  0  0  0  0  0  0  0  0  0  0  0
  -21.3200   -3.7400   26.0180 F   0  0  0  0  0  0  0  0  0  0  0  0
  -22.7910  -13.5480   21.1790 C   0  0  0  0  0  0  0  0  0  0  0  0
  -22.0670  -12.8540   22.0490 N   0  0  0  0  0  0  0  0  0  0  0  0
  -22.3520  -14.5720   20.6570 O   0  0  0  0  0  0  0  0  0  0  0  0
  -22.4340  -12.0270   22.4940 H   0  0  0  0  0  0  0  0  0  0  0  0
  -21.1300  -13.1570   22.2760 H   0  0  0  0  0  0  0  0  0  0  0  0
  -25.4210  -15.2160   20.3670 N   0  0  0  0  0  0  0  0  0  0  0  0
  -24.6560  -15.8720   20.4810 H   0  0  0  0  0  0  0  0  0  0  0  0
  -26.2760  -15.6520   20.0510 H   0  0  0  0  0  0  0  0  0  0  0  0
  -29.1390  -23.9700   20.4080 C   0  0  0  0  0  2  0  0  0  0  0  0
  -28.0900  -25.0740   19.9780 C   0  0  0  0  0  2  0  0  0  0  0  0
  -28.3410  -26.5070   20.2150 O   0  0  0  0  0  0  0  0  0  0  0  0
  -24.6410  -31.8830   23.2640 C   0  0  0  0  0  0  0  0  0  0  0  0
  -27.2250  -27.3550   20.1600 C   0  0  0  0  0  0  0  0  0  0  0  0
  -23.4230  -30.4890   21.6320 C   0  0  0  0  0  3  0  0  0  0  0  0
  -24.8610  -28.9570   20.1830 C   0  0  0  0  0  0  0  0  0  0  0  0
  -25.9630  -30.8080   21.4350 C   0  0  0  0  0  2  0  0  0  0  0  0
  -26.0340  -29.4400   20.7760 C   0  0  0  0  0  0  0  0  0  0  0  0
  -27.2200  -28.6500   20.7580 C   0  0  0  0  0  3  0  0  0  0  0  0
  -26.0290  -26.9300   19.5330 C   0  0  0  0  0  3  0  0  0  0  0  0
  -24.8580  -27.7060   19.5530 C   0  0  0  0  0  3  0  0  0  0  0  0
  -23.6250  -29.8270   20.2450 C   0  0  0  0  0  2  0  0  0  0  0  0
  -24.6950  -31.0720   22.1690 N   0  0  0  0  0  0  0  0  0  0  0  0
  -23.5560  -32.1830   23.7820 O   0  0  0  0  0  0  0  0  0  0  0  0
  -22.7690  -29.4620   22.5880 C   0  0  0  0  0  0  0  0  0  0  0  0
  -21.4440  -29.2780   22.4600 N   0  0  0  0  0  0  0  0  0  0  0  0
  -23.4520  -28.8370   23.4030 O   0  0  0  0  0  0  0  0  0  0  0  0
  -20.9520  -29.8360   21.7760 H   0  0  0  0  0  0  0  0  0  0  0  0
  -18.0720  -28.0670   22.9530 C   0  0  0  0  0  0  0  0  0  0  0  0
  -20.6280  -28.3350   23.2270 C   0  0  0  0  0  3  0  0  0  0  0  0
  -20.7370  -26.9050   22.6500 C   0  0  0  0  0  2  0  0  0  0  0  0
  -19.6370  -26.5800   21.6340 C   0  0  0  0  0  2  0  0  0  0  0  0
  -18.2540  -26.7190   22.2750 C   0  0  0  0  0  2  0  0  0  0  0  0
  -19.1860  -28.8320   23.3860 C   0  0  0  0  0  0  0  0  0  0  0  0
  -18.9610  -30.0940   23.9790 C   0  0  0  0  0  3  0  0  0  0  0  0
  -17.6540  -30.5900   24.1430 C   0  0  0  0  0  3  0  0  0  0  0  0
  -16.5540  -29.8210   23.7270 C   0  0  0  0  0  3  0  0  0  0  0  0
  -16.7630  -28.5620   23.1370 C   0  0  0  0  0  3  0  0  0  0  0  0
  -25.9300  -32.4980   23.8910 C   0  0  0  0  0  3  0  0  0  0  0  0
  -25.6290  -33.8940   24.2330 N   0  0  0  0  0  0  0  0  0  0  0  0
  -25.9320  -34.9480   23.4640 C   0  0  0  0  0  0  0  0  0  0  0  0
  -26.5690  -34.8460   22.4110 O   0  0  0  0  0  0  0  0  0  0  0  0
  -25.0610  -34.0480   25.0530 H   0  0  0  0  0  0  0  0  0  0  0  0
  -24.1740  -36.7230   23.1800 C   0  0  0  0  0  1  0  0  0  0  0  0
  -25.4540  -36.3350   23.9360 C   0  0  0  0  0  3  0  0  0  0  0  0
  -27.6160  -37.2410   24.6660 C   0  0  0  0  0  1  0  0  0  0  0  0
  -26.4710  -37.3950   23.7720 N   0  0  0  0  0  0  0  0  0  0  0  0
  -26.0640  -38.3120   23.9350 H   0  0  0  0  0  0  0  0  0  0  0  0
  -26.4470  -31.7150   25.1600 C   0  0  1  0  0  0  0  0  0  0  0  0
  -25.3550  -31.4730   26.2280 C   0  0  0  0  0  1  0  0  0  0  0  0
  -27.0250  -30.3380   24.7590 C   0  0  0  0  0  1  0  0  0  0  0  0
  -27.6020  -32.5000   25.8250 C   0  0  0  0  0  1  0  0  0  0  0  0
  1  2  1  0
  2  5  1  0
  4  1  1  0
  4  3  1  0
  5 49  1  0
  5  3  1  0
  6 18  1  0
  7 12  1  0
  8  9  1  0
  8  7  1  0
 10  9  1  0
 10 24  1  0
 10 11  1  0
 12  6  1  0
 12 11  1  0
 13  6  2  0
 14 16  1  0
 14 18  1  0
 15 17  1  0
 16 19  1  0
 18 15  1  0
 19 20  1  6
 19  4  1  0
 19 17  1  0
 21 22  2  0
 22 41  1  0
 23 22  1  0
 23 26  1  0
 24 21  1  0
 24 25  1  0
 25 23  2  0
 26 27  1  0
 27 28  2  0
 29 32  1  0
 29 28  1  0
 30 29  2  0
 31 30  1  0
 31 26  2  0
 32 33  1  0
 33 34  1  0
 34 35  2  0
 36 35  1  0
 36 40  1  0
 37 36  2  0
 38 33  2  0
 38 37  1  0
 39 38  1  0
 41 42  1  0
 42 45  1  0
 42 44  1  0
 43 41  2  0
 46 47  1  0
 46 21  1  0
 48 46  1  0
 50 51  1  0
 50 49  1  0
 52 63  2  0
 53 51  1  0
 53 58  1  0
 54 62  1  0
 54 64  1  0
 55 61  1  0
 55 57  1  0
 56 62  1  0
 57 56  1  0
 58 57  2  0
 59 60  1  0
 59 53  2  0
 60 55  2  0
 61 54  1  0
 62 52  1  0
 64 66  2  0
 65 64  1  0
 67 65  1  0
 68 77  2  0
 68 73  1  0
 69 65  1  0
 69 73  1  0
 70 69  1  0
 71 72  1  0
 71 70  1  0
 72 68  1  0
 73 74  2  0
 74 75  1  0
 76 75  2  0
 77 76  1  0
 78 52  1  0
 78 79  1  0
 78 88  1  0
 79 82  1  0
 80 84  1  0
 80 79  1  0
 81 80  2  0
 84 83  1  0
 86 87  1  0
 86 84  1  0
 86 85  1  0
 88 91  1  1
 88 89  1  0
 90 88  1  0
M  ISO  4   6 100  18 100  50 101  51 101
M  END
>  <TORSDO>  (14) 
F 18

>  <SCORE>  (14) 
-14.52

>  <name>  (14) 
13

>  <ligand_id>  (14) 
13

>  <original_smiles>  (14) 
[H]c1c([H])c([H])c2c(c1[H])C([H])([H])C([H])([H])C([H])([H])C2([H])N([H])C(=O)C1([H])N(C(=O)C([H])(N([H])C(=O)C([H])(N([H])C([H])([H])[H])C([H])([H])[H])C(C([H])([H])[H])(C([H])([H])[H])C([H])([H])[H])C([H])([H])c2c([H])c(OC([H])([H])C([H])([H])N3C([H])([H])C([H])([H])C([H])([N+]4([H])C([H])([H])C([H])([H])N(C(=O)N5C([H])([H])C([H])([H])C([H])([H])C([H])(n6nc(-c7c([H])c([H])c(Oc8c([H])c([H])c(F)c([H])c8F)c([H])c7[H])c(C(=O)N([H])[H])c6N([H])[H])C5([H])[H])C([H])([H])C4([H])[H])C3([H])[H])c([H])c([H])c2C1([H])[H]

>  <smiles>  (14) 
[H]c1c([H])c([H])c2c(c1[H])C([H])([H])C([H])([H])C([H])([H])C2([H])N([H])C(=O)C1([H])N(C(=O)C([H])(N([H])C(=O)C([H])(N([H])C([H])([H])[H])C([H])([H])[H])C(C([H])([H])[H])(C([H])([H])[H])C([H])([H])[H])C([H])([H])c2c([H])c(OC([H])([H])C([H])([H])N3C([H])([H])C([H])([H])C([H])([N+]4([H])C([H])([H])C([H])([H])N(C(=O)N5C([H])([H])C([H])([H])C([H])([H])C([H])(n6nc(-c7c([H])c([H])c(Oc8c([H])c([H])c(F)c([H])c8F)c([H])c7[H])c(C(=O)N([H])[H])c6N([H])[H])C5([H])[H])C([H])([H])C4([H])[H])C3([H])[H])c([H])c([H])c2C1([H])[H]

> <Step>
198.0

> <Scaffold>
O=C(NC1CCCc2ccccc21)C1Cc2ccc(OCCN3CCC(N4CCN(C(=O)N5CCCC(n6ccc(-c7ccc(Oc8ccccc8)cc7)n6)C5)CC4)C3)cc2CN1

> <SMILES>
CNC(C)C(=O)NC(C(=O)N1Cc2cc(OCCN3CCC(N4CCN(C(=O)N5CCCC(n6nc(-c7ccc(Oc8ccc(F)cc8F)cc7)c(C(N)=O)c6N)C5)CC4)C3)ccc2CC1C(=O)NC1CCCc2ccccc21)C(C)(C)C

> <Tanimoto ROCS sim>
0.271621972322464

> <Custom alerts>
1.0

> <Linker Num Aromatic Rings>
1.0

> <Linker Effective Length>
1.0

> <ADV>
0.9958817958831787

> <PostDock Tanimoto ROCS sim>
0.9893799424171448

> <raw_Linker Num Aromatic Rings>
0.0

> <raw_Linker Effective Length>
8.0

> <raw_ADV>
-14.534000396728516

> <total_score>
0.9963154196739197

> <ID>
default_job_113

> <PostDock Tanimoto ROCS sim (re-score)>
0.98358804

> <raw_ADV (re-score)>
-14.52

$$$$
default_job_114
     RDKit          3D

 91100  0  0  1  0  0  0  0  0999 V2000
  -28.2410  -20.3480   18.1100 C   0  0  0  0  0  3  0  0  0  0  0  0
  -28.7900  -19.1490   18.7030 C   0  0  0  0  0  3  0  0  0  0  0  0
  -28.1600  -21.4600   18.8570 C   0  0  0  0  0  3  0  0  0  0  0  0
  -29.2810  -19.1370   19.9670 C   0  0  0  0  0  0  0  0  0  0  0  0
  -29.3440  -20.4380   20.7120 C   0  0  0  0  0  0  0  0  0  0  0  0
  -28.7100  -21.5380   20.1550 N   0  0  0  0  0  0  0  0  0  0  0  0
  -29.9270  -20.5270   21.8000 O   0  0  0  0  0  0  0  0  0  0  0  0
  -30.7560  -14.6040   20.3930 C   0  0  0  0  0  0  0  0  0  0  0  0
  -30.3770  -12.3950   19.3580 C   0  0  0  0  0  2  0  0  0  0  0  0
  -29.4410  -12.5040   18.1400 C   0  0  0  0  0  2  0  0  0  0  0  0
  -27.9820  -12.3460   18.5920 C   0  0  0  0  0  2  0  0  0  0  0  0
  -27.6210  -13.2550   19.7990 C   0  0  0  0  0  3  0  0  0  0  0  0
  -28.6880  -13.1960   20.9180 C   0  0  0  0  0  2  0  0  0  0  0  0
  -30.0000  -13.4640   20.3090 N   0  0  0  0  0  0  0  0  0  0  0  0
  -31.9370  -14.6020   20.0360 O   0  0  0  0  0  0  0  0  0  0  0  0
  -30.9300  -17.1010   20.5980 C   0  0  0  0  0  2  0  0  0  0  0  0
  -28.9780  -16.4520   20.2490 C   0  0  0  0  0  2  0  0  0  0  0  0
  -29.5730  -17.8040   20.7360 C   0  0  0  0  0  3  0  0  0  0  0  0
  -30.2050  -15.8050   20.7460 N   0  0  0  0  0  0  0  0  0  0  0  0
  -25.2280  -13.8490   20.5200 C   0  0  0  0  0  0  0  0  0  0  0  0
  -24.1660  -13.0750   20.8900 C   0  0  0  0  0  0  0  0  0  0  0  0
  -24.6290  -11.7240   20.8740 C   0  0  0  0  0  0  0  0  0  0  0  0
  -26.2770  -12.9720   20.2990 N   0  0  0  0  0  0  0  0  0  0  0  0
  -25.9210  -11.6890   20.5730 N   0  0  0  0  0  0  0  0  0  0  0  0
  -23.9010  -10.4610   21.0650 C   0  0  0  0  0  0  0  0  0  0  0  0
  -24.3370   -9.4890   21.9910 C   0  0  0  0  0  3  0  0  0  0  0  0
  -23.6130   -8.2910   22.1670 C   0  0  0  0  0  3  0  0  0  0  0  0
  -22.4350   -8.0560   21.4170 C   0  0  0  0  0  0  0  0  0  0  0  0
  -22.0200   -9.0150   20.4790 C   0  0  0  0  0  3  0  0  0  0  0  0
  -22.7440  -10.2060   20.3000 C   0  0  0  0  0  3  0  0  0  0  0  0
  -21.6800   -6.9120   21.5040 O   0  0  0  0  0  0  0  0  0  0  0  0
  -21.6430   -6.1610   22.6510 C   0  0  0  0  0  0  0  0  0  0  0  0
  -21.2250   -6.7100   23.8840 C   0  0  0  0  0  3  0  0  0  0  0  0
  -21.1370   -5.8860   25.0230 C   0  0  0  0  0  3  0  0  0  0  0  0
  -21.4560   -4.5180   24.9320 C   0  0  0  0  0  0  0  0  0  0  0  0
  -21.8610   -3.9700   23.7050 C   0  0  0  0  0  3  0  0  0  0  0  0
  -21.9530   -4.7890   22.5660 C   0  0  0  0  0  0  0  0  0  0  0  0
  -22.3250   -4.2530   21.3780 F   0  0  0  0  0  0  0  0  0  0  0  0
  -21.3630   -3.7250   26.0270 F   0  0  0  0  0  0  0  0  0  0  0  0
  -22.7630  -13.5490   21.1550 C   0  0  0  0  0  0  0  0  0  0  0  0
  -22.0400  -12.8560   22.0220 N   0  0  0  0  0  0  0  0  0  0  0  0
  -22.3250  -14.5710   20.6280 O   0  0  0  0  0  0  0  0  0  0  0  0
  -22.4120  -12.0240   22.4600 H   0  0  0  0  0  0  0  0  0  0  0  0
  -21.1010  -13.1520   22.2480 H   0  0  0  0  0  0  0  0  0  0  0  0
  -25.3800  -15.2180   20.3240 N   0  0  0  0  0  0  0  0  0  0  0  0
  -24.5960  -15.8620   20.3980 H   0  0  0  0  0  0  0  0  0  0  0  0
  -26.2060  -15.6530   19.9370 H   0  0  0  0  0  0  0  0  0  0  0  0
  -28.4790  -22.8130   20.9220 C   0  0  0  0  0  3  0  0  0  0  0  0
  -28.6560  -24.1750   20.1520 C   0  0  0  0  0  3  0  0  0  0  0  0
  -28.4960  -25.4800   20.9940 C   0  0  0  0  0  2  0  0  0  0  0  0
  -28.4450  -26.6880   20.2000 O   0  0  0  0  0  0  0  0  0  0  0  0
  -24.5930  -31.8890   23.2330 C   0  0  0  0  0  0  0  0  0  0  0  0
  -27.2660  -27.4130   20.2160 C   0  0  0  0  0  0  0  0  0  0  0  0
  -23.4010  -30.4740   21.5910 C   0  0  0  0  0  3  0  0  0  0  0  0
  -24.8700  -28.9280   20.1830 C   0  0  0  0  0  0  0  0  0  0  0  0
  -25.9260  -30.8310   21.4110 C   0  0  0  0  0  2  0  0  0  0  0  0
  -26.0180  -29.4540   20.7830 C   0  0  0  0  0  0  0  0  0  0  0  0
  -27.2210  -28.7050   20.7930 C   0  0  0  0  0  3  0  0  0  0  0  0
  -26.0990  -26.9010   19.6120 C   0  0  0  0  0  3  0  0  0  0  0  0
  -24.9050  -27.6530   19.5880 C   0  0  0  0  0  3  0  0  0  0  0  0
  -23.6220  -29.7860   20.2160 C   0  0  0  0  0  2  0  0  0  0  0  0
  -24.6590  -31.0770   22.1410 N   0  0  0  0  0  0  0  0  0  0  0  0
  -23.5040  -32.1860   23.7440 O   0  0  0  0  0  0  0  0  0  0  0  0
  -22.7440  -29.4560   22.5530 C   0  0  0  0  0  0  0  0  0  0  0  0
  -21.4190  -29.2740   22.4200 N   0  0  0  0  0  0  0  0  0  0  0  0
  -23.4230  -28.8330   23.3730 O   0  0  0  0  0  0  0  0  0  0  0  0
  -20.9370  -29.8260   21.7240 H   0  0  0  0  0  0  0  0  0  0  0  0
  -18.0410  -28.0850   22.8920 C   0  0  0  0  0  0  0  0  0  0  0  0
  -20.5950  -28.3380   23.1860 C   0  0  0  0  0  3  0  0  0  0  0  0
  -20.6990  -26.9070   22.6110 C   0  0  0  0  0  2  0  0  0  0  0  0
  -19.6050  -26.5850   21.5900 C   0  0  0  0  0  2  0  0  0  0  0  0
  -18.2190  -26.7340   22.2190 C   0  0  0  0  0  2  0  0  0  0  0  0
  -19.1550  -28.8460   23.3310 C   0  0  0  0  0  0  0  0  0  0  0  0
  -18.9300  -30.1130   23.9150 C   0  0  0  0  0  3  0  0  0  0  0  0
  -17.6220  -30.6110   24.0750 C   0  0  0  0  0  3  0  0  0  0  0  0
  -16.5230  -29.8440   23.6550 C   0  0  0  0  0  3  0  0  0  0  0  0
  -16.7330  -28.5850   23.0640 C   0  0  0  0  0  3  0  0  0  0  0  0
  -25.8740  -32.5130   23.8690 C   0  0  0  0  0  3  0  0  0  0  0  0
  -26.3820  -31.7370   25.1470 C   0  0  1  0  0  0  0  0  0  0  0  0
  -25.2850  -31.4900   26.2090 C   0  0  0  0  0  1  0  0  0  0  0  0
  -26.9730  -30.3650   24.7510 C   0  0  0  0  0  1  0  0  0  0  0  0
  -27.5300  -32.5280   25.8180 C   0  0  0  0  0  1  0  0  0  0  0  0
  -25.5680  -33.9090   24.2030 N   0  0  0  0  0  0  0  0  0  0  0  0
  -25.8920  -34.9630   23.4410 C   0  0  0  0  0  0  0  0  0  0  0  0
  -26.5580  -34.8600   22.4070 O   0  0  0  0  0  0  0  0  0  0  0  0
  -24.9750  -34.0580   25.0060 H   0  0  0  0  0  0  0  0  0  0  0  0
  -24.1600  -36.7510   23.0920 C   0  0  0  0  0  1  0  0  0  0  0  0
  -25.4050  -36.3510   23.8980 C   0  0  0  0  0  3  0  0  0  0  0  0
  -27.5390  -37.2470   24.7190 C   0  0  0  0  0  1  0  0  0  0  0  0
  -26.4360  -37.4060   23.7750 N   0  0  0  0  0  0  0  0  0  0  0  0
  -26.0290  -38.3270   23.9160 H   0  0  0  0  0  0  0  0  0  0  0  0
  1  2  1  0
  1  3  2  0
  2  4  2  0
  3  6  1  0
  4  5  1  0
  5  7  2  0
  6  5  1  0
  6 48  1  0
  8 19  1  0
  9 14  1  0
 10 11  1  0
 10  9  1  0
 12 11  1  0
 12 23  1  0
 12 13  1  0
 14  8  1  0
 14 13  1  0
 15  8  2  0
 16 18  1  0
 16 19  1  0
 17 18  1  0
 17 19  1  0
 18  4  1  0
 20 21  2  0
 21 40  1  0
 22 21  1  0
 22 25  1  0
 23 20  1  0
 23 24  1  0
 24 22  2  0
 25 26  1  0
 26 27  2  0
 28 31  1  0
 28 27  1  0
 29 28  2  0
 30 29  1  0
 30 25  2  0
 31 32  1  0
 32 33  1  0
 33 34  2  0
 35 34  1  0
 35 39  1  0
 36 35  2  0
 37 32  2  0
 37 36  1  0
 38 37  1  0
 40 41  1  0
 41 44  1  0
 41 43  1  0
 42 40  2  0
 45 46  1  0
 45 20  1  0
 47 45  1  0
 49 48  2  0
 49 50  1  0
 51 53  1  0
 51 50  1  0
 52 63  2  0
 53 58  1  0
 54 62  1  0
 54 64  1  0
 55 61  1  0
 55 57  1  0
 56 62  1  0
 57 58  2  0
 57 56  1  0
 59 53  2  0
 60 59  1  0
 60 55  2  0
 61 54  1  0
 62 52  1  0
 64 66  2  0
 65 64  1  0
 67 65  1  0
 68 77  2  0
 68 73  1  0
 69 65  1  0
 69 73  1  0
 70 69  1  0
 71 72  1  0
 71 70  1  0
 72 68  1  0
 73 74  2  0
 74 75  1  0
 76 75  2  0
 77 76  1  0
 78 52  1  0
 78 83  1  0
 78 79  1  0
 79 82  1  1
 79 80  1  0
 81 79  1  0
 83 86  1  0
 84 88  1  0
 84 83  1  0
 85 84  2  0
 88 87  1  0
 90 88  1  0
 90 91  1  0
 90 89  1  0
M  ISO  4   8 100  19 100  50 101  51 101
M  END
>  <TORSDO>  (15) 
F 19

>  <SCORE>  (15) 
-14.553

>  <name>  (15) 
14

>  <ligand_id>  (15) 
14

>  <original_smiles>  (15) 
[H]c1c([H])c([H])c2c(c1[H])C([H])([H])C([H])([H])C([H])([H])C2([H])N([H])C(=O)C1([H])N(C(=O)C([H])(N([H])C(=O)C([H])(N([H])C([H])([H])[H])C([H])([H])[H])C(C([H])([H])[H])(C([H])([H])[H])C([H])([H])[H])C([H])([H])c2c([H])c(OC([H])([H])C([H])([H])C([H])([H])n3c([H])c([H])c([H])c(C4([H])C([H])([H])N(C(=O)N5C([H])([H])C([H])([H])C([H])([H])C([H])(n6nc(-c7c([H])c([H])c(Oc8c([H])c([H])c(F)c([H])c8F)c([H])c7[H])c(C(=O)N([H])[H])c6N([H])[H])C5([H])[H])C4([H])[H])c3=O)c([H])c([H])c2C1([H])[H]

>  <smiles>  (15) 
[H]c1c([H])c([H])c2c(c1[H])C([H])([H])C([H])([H])C([H])([H])C2([H])N([H])C(=O)C1([H])N(C(=O)C([H])(N([H])C(=O)C([H])(N([H])C([H])([H])[H])C([H])([H])[H])C(C([H])([H])[H])(C([H])([H])[H])C([H])([H])[H])C([H])([H])c2c([H])c(OC([H])([H])C([H])([H])C([H])([H])n3c([H])c([H])c([H])c(C4([H])C([H])([H])N(C(=O)N5C([H])([H])C([H])([H])C([H])([H])C([H])(n6nc(-c7c([H])c([H])c(Oc8c([H])c([H])c(F)c([H])c8F)c([H])c7[H])c(C(=O)N([H])[H])c6N([H])[H])C5([H])[H])C4([H])[H])c3=O)c([H])c([H])c2C1([H])[H]

> <Step>
199.0

> <Scaffold>
O=C(NC1CCCc2ccccc21)C1Cc2ccc(OCCCn3cccc(C4CN(C(=O)N5CCCC(n6ccc(-c7ccc(Oc8ccccc8)cc7)n6)C5)C4)c3=O)cc2CN1

> <SMILES>
CNC(C)C(=O)NC(C(=O)N1Cc2cc(OCCCn3cccc(C4CN(C(=O)N5CCCC(n6nc(-c7ccc(Oc8ccc(F)cc8F)cc7)c(C(N)=O)c6N)C5)C4)c3=O)ccc2CC1C(=O)NC1CCCc2ccccc21)C(C)(C)C

> <Tanimoto ROCS sim>
0.24990051984786987

> <Custom alerts>
1.0

> <Linker Num Aromatic Rings>
1.0

> <Linker Effective Length>
1.0

> <ADV>
0.9959006309509277

> <PostDock Tanimoto ROCS sim>
0.9893474578857422

> <raw_Linker Num Aromatic Rings>
1.0

> <raw_Linker Effective Length>
8.0

> <raw_ADV>
-14.541999816894531

> <total_score>
0.9963120222091675

> <ID>
default_job_114

> <PostDock Tanimoto ROCS sim (re-score)>
0.9845282

> <raw_ADV (re-score)>
-14.553

$$$$
default_job_115
     RDKit          3D

 91100  0  0  1  0  0  0  0  0999 V2000
  -28.4560  -21.9530   18.7700 C   0  0  0  0  0  3  0  0  0  0  0  0
  -29.3720  -20.4140   19.8850 C   0  0  0  0  0  0  0  0  0  0  0  0
  -29.5010  -18.2120   21.2220 C   0  0  0  0  0  2  0  0  0  0  0  0
  -30.0660  -18.0690   19.2070 C   0  0  0  0  0  2  0  0  0  0  0  0
  -30.4060  -17.1900   20.4240 C   0  0  0  0  0  3  0  0  0  0  0  0
  -27.7450  -22.6850   17.6810 C   0  0  0  0  0  1  0  0  0  0  0  0
  -28.8270  -20.6660   18.6590 N   0  0  0  0  0  0  0  0  0  0  0  0
  -29.3510  -21.4930   20.6980 N   0  0  0  0  0  2  0  0  0  0  0  0
  -28.7760  -22.5130   19.9520 N   0  0  0  0  0  0  0  0  0  0  0  0
  -30.0360  -19.1490   20.1980 N   0  0  0  0  0  0  0  0  0  0  0  0
  -30.6940  -14.6420   20.0560 C   0  0  0  0  0  0  0  0  0  0  0  0
  -30.3910  -12.4240   18.9760 C   0  0  0  0  0  2  0  0  0  0  0  0
  -29.3880  -12.5670   17.8130 C   0  0  0  0  0  2  0  0  0  0  0  0
  -27.9420  -12.4030   18.3220 C   0  0  0  0  0  2  0  0  0  0  0  0
  -27.6500  -13.2590   19.5820 C   0  0  0  0  0  3  0  0  0  0  0  0
  -28.7640  -13.1060   20.6390 C   0  0  0  0  0  2  0  0  0  0  0  0
  -30.0390  -13.4390   19.9890 N   0  0  0  0  0  0  0  0  0  0  0  0
  -31.8510  -14.7590   19.6480 O   0  0  0  0  0  0  0  0  0  0  0  0
  -29.9550  -15.7480   20.3920 N   0  0  0  0  0  0  0  0  0  0  0  0
  -29.0020  -15.5720   20.6670 H   0  0  0  0  0  0  0  0  0  0  0  0
  -25.3070  -13.8570   20.4460 C   0  0  0  0  0  0  0  0  0  0  0  0
  -24.2550  -13.0840   20.8540 C   0  0  0  0  0  0  0  0  0  0  0  0
  -24.7020  -11.7290   20.7660 C   0  0  0  0  0  0  0  0  0  0  0  0
  -26.3290  -12.9750   20.1340 N   0  0  0  0  0  0  0  0  0  0  0  0
  -25.9740  -11.6890   20.3890 N   0  0  0  0  0  0  0  0  0  0  0  0
  -23.9740  -10.4680   20.9610 C   0  0  0  0  0  0  0  0  0  0  0  0
  -24.4210   -9.4920   21.8790 C   0  0  0  0  0  3  0  0  0  0  0  0
  -23.6950   -8.2970   22.0640 C   0  0  0  0  0  3  0  0  0  0  0  0
  -22.5060   -8.0690   21.3300 C   0  0  0  0  0  0  0  0  0  0  0  0
  -22.0770   -9.0340   20.4020 C   0  0  0  0  0  3  0  0  0  0  0  0
  -22.8060  -10.2200   20.2140 C   0  0  0  0  0  3  0  0  0  0  0  0
  -21.7490   -6.9270   21.4250 O   0  0  0  0  0  0  0  0  0  0  0  0
  -21.6890   -6.1960   22.5850 C   0  0  0  0  0  0  0  0  0  0  0  0
  -21.2120   -6.7540   23.7910 C   0  0  0  0  0  3  0  0  0  0  0  0
  -21.1010   -5.9490   24.9440 C   0  0  0  0  0  3  0  0  0  0  0  0
  -21.4580   -4.5890   24.8900 C   0  0  0  0  0  0  0  0  0  0  0  0
  -21.9270   -4.0300   23.6880 C   0  0  0  0  0  3  0  0  0  0  0  0
  -22.0390   -4.8320   22.5380 C   0  0  0  0  0  0  0  0  0  0  0  0
  -22.4730   -4.2840   21.3770 F   0  0  0  0  0  0  0  0  0  0  0  0
  -21.3430   -3.8130   25.9940 F   0  0  0  0  0  0  0  0  0  0  0  0
  -22.8770  -13.5650   21.2090 C   0  0  0  0  0  0  0  0  0  0  0  0
  -22.1900  -12.8530   22.0960 N   0  0  0  0  0  0  0  0  0  0  0  0
  -22.4200  -14.6050   20.7360 O   0  0  0  0  0  0  0  0  0  0  0  0
  -22.5750  -12.0100   22.4980 H   0  0  0  0  0  0  0  0  0  0  0  0
  -21.2690  -13.1550   22.3770 H   0  0  0  0  0  0  0  0  0  0  0  0
  -25.4760  -15.2310   20.2930 N   0  0  0  0  0  0  0  0  0  0  0  0
  -24.7180  -15.8870   20.4470 H   0  0  0  0  0  0  0  0  0  0  0  0
  -26.2980  -15.6650   19.8910 H   0  0  0  0  0  0  0  0  0  0  0  0
  -28.4780  -23.8750   20.5500 C   0  0  0  0  0  3  0  0  0  0  0  0
  -28.6530  -25.1970   19.6750 C   0  0  0  0  0  3  0  0  0  0  0  0
  -28.5040  -26.5270   20.3140 O   0  0  0  0  0  0  0  0  0  0  0  0
  -24.6040  -31.8580   23.2220 C   0  0  0  0  0  0  0  0  0  0  0  0
  -27.3390  -27.3080   20.2440 C   0  0  0  0  0  0  0  0  0  0  0  0
  -23.4540  -30.4360   21.5660 C   0  0  0  0  0  3  0  0  0  0  0  0
  -24.9530  -28.8880   20.1850 C   0  0  0  0  0  0  0  0  0  0  0  0
  -25.9960  -30.7720   21.4500 C   0  0  0  0  0  2  0  0  0  0  0  0
  -26.1010  -29.3930   20.8080 C   0  0  0  0  0  0  0  0  0  0  0  0
  -27.2920  -28.6130   20.8270 C   0  0  0  0  0  3  0  0  0  0  0  0
  -26.1590  -26.8410   19.6230 C   0  0  0  0  0  3  0  0  0  0  0  0
  -24.9840  -27.6180   19.5880 C   0  0  0  0  0  3  0  0  0  0  0  0
  -23.7090  -29.7530   20.1970 C   0  0  0  0  0  2  0  0  0  0  0  0
  -24.7030  -31.0360   22.1380 N   0  0  0  0  0  0  0  0  0  0  0  0
  -23.5000  -32.1530   23.6990 O   0  0  0  0  0  0  0  0  0  0  0  0
  -22.7740  -29.4200   22.5130 C   0  0  0  0  0  0  0  0  0  0  0  0
  -21.4480  -29.2540   22.3720 N   0  0  0  0  0  0  0  0  0  0  0  0
  -23.4400  -28.7820   23.3340 O   0  0  0  0  0  0  0  0  0  0  0  0
  -20.9720  -29.8180   21.6820 H   0  0  0  0  0  0  0  0  0  0  0  0
  -18.0480  -28.1150   22.8580 C   0  0  0  0  0  0  0  0  0  0  0  0
  -20.6120  -28.3180   23.1260 C   0  0  0  0  0  3  0  0  0  0  0  0
  -20.6830  -26.8980   22.5200 C   0  0  0  0  0  2  0  0  0  0  0  0
  -19.5730  -26.6190   21.5020 C   0  0  0  0  0  2  0  0  0  0  0  0
  -18.1960  -26.7790   22.1520 C   0  0  0  0  0  2  0  0  0  0  0  0
  -19.1840  -28.8460   23.3000 C   0  0  0  0  0  0  0  0  0  0  0  0
  -18.9920  -30.1000   23.9200 C   0  0  0  0  0  3  0  0  0  0  0  0
  -17.6980  -30.6250   24.0990 C   0  0  0  0  0  3  0  0  0  0  0  0
  -16.5770  -29.8910   23.6720 C   0  0  0  0  0  3  0  0  0  0  0  0
  -16.7530  -28.6380   23.0600 C   0  0  0  0  0  3  0  0  0  0  0  0
  -25.8650  -32.4930   23.8890 C   0  0  0  0  0  3  0  0  0  0  0  0
  -25.5370  -33.8880   24.2150 N   0  0  0  0  0  0  0  0  0  0  0  0
  -25.8550  -34.9410   23.4510 C   0  0  0  0  0  0  0  0  0  0  0  0
  -26.5240  -34.8410   22.4190 O   0  0  0  0  0  0  0  0  0  0  0  0
  -24.9430  -34.0360   25.0160 H   0  0  0  0  0  0  0  0  0  0  0  0
  -24.0950  -36.7030   23.0940 C   0  0  0  0  0  1  0  0  0  0  0  0
  -25.3490  -36.3260   23.9010 C   0  0  0  0  0  3  0  0  0  0  0  0
  -27.4710  -37.2570   24.7150 C   0  0  0  0  0  1  0  0  0  0  0  0
  -26.3640  -37.3940   23.7710 N   0  0  0  0  0  0  0  0  0  0  0  0
  -25.9440  -38.3100   23.9050 H   0  0  0  0  0  0  0  0  0  0  0  0
  -26.3480  -31.7220   25.1800 C   0  0  1  0  0  0  0  0  0  0  0  0
  -25.2240  -31.4730   26.2130 C   0  0  0  0  0  1  0  0  0  0  0  0
  -26.9580  -30.3520   24.8050 C   0  0  0  0  0  1  0  0  0  0  0  0
  -27.4700  -32.5260   25.8790 C   0  0  0  0  0  1  0  0  0  0  0  0
  1  6  1  0
  1  9  1  0
  2 10  1  0
  2  8  1  0
  4 10  1  0
  4  5  1  0
  5 19  1  0
  5  3  1  0
  7  1  1  0
  7  2  2  0
  9 49  1  0
  9  8  1  0
 10  3  1  0
 11 19  1  0
 12 17  1  0
 13 14  1  0
 13 12  1  0
 15 14  1  0
 15 24  1  0
 15 16  1  0
 17 11  1  0
 17 16  1  0
 18 11  2  0
 19 20  1  0
 21 22  2  0
 22 41  1  0
 23 22  1  0
 23 26  1  0
 24 25  1  0
 24 21  1  0
 25 23  2  0
 26 27  1  0
 27 28  2  0
 29 32  1  0
 29 28  1  0
 30 29  2  0
 31 30  1  0
 31 26  2  0
 32 33  1  0
 33 34  1  0
 34 35  2  0
 36 35  1  0
 36 40  1  0
 37 36  2  0
 38 33  2  0
 38 37  1  0
 39 38  1  0
 41 42  1  0
 42 45  1  0
 42 44  1  0
 43 41  2  0
 46 21  1  0
 46 47  1  0
 48 46  1  0
 50 51  1  0
 50 49  2  0
 52 63  2  0
 53 51  1  0
 53 58  1  0
 54 62  1  0
 54 64  1  0
 55 61  1  0
 55 57  1  0
 56 62  1  0
 57 58  2  0
 57 56  1  0
 59 53  2  0
 60 59  1  0
 60 55  2  0
 61 54  1  0
 62 52  1  0
 64 66  2  0
 65 64  1  0
 67 65  1  0
 68 77  2  0
 68 73  1  0
 69 65  1  0
 69 73  1  0
 70 69  1  0
 71 72  1  0
 71 70  1  0
 72 68  1  0
 73 74  2  0
 74 75  1  0
 76 75  2  0
 77 76  1  0
 78 52  1  0
 78 79  1  0
 78 88  1  0
 79 82  1  0
 80 84  1  0
 80 79  1  0
 81 80  2  0
 84 83  1  0
 86 84  1  0
 86 87  1  0
 86 85  1  0
 88 91  1  1
 88 89  1  0
 90 88  1  0
M  ISO  4  11 100  19 100  50 101  51 101
M  END
>  <TORSDO>  (16) 
F 18

>  <SCORE>  (16) 
-14.324

>  <name>  (16) 
15

>  <ligand_id>  (16) 
15

>  <original_smiles>  (16) 
[H]c1c([H])c([H])c2c(c1[H])C([H])([H])C([H])([H])C([H])([H])C2([H])N([H])C(=O)C1([H])N(C(=O)C([H])(N([H])C(=O)C([H])(N([H])C([H])([H])[H])C([H])([H])[H])C(C([H])([H])[H])(C([H])([H])[H])C([H])([H])[H])C([H])([H])c2c([H])c(OC([H])([H])C([H])([H])n3nc(N4C([H])([H])C([H])(N([H])C(=O)N5C([H])([H])C([H])([H])C([H])([H])C([H])(n6nc(-c7c([H])c([H])c(Oc8c([H])c([H])c(F)c([H])c8F)c([H])c7[H])c(C(=O)N([H])[H])c6N([H])[H])C5([H])[H])C4([H])[H])nc3C([H])([H])[H])c([H])c([H])c2C1([H])[H]

>  <smiles>  (16) 
[H]c1c([H])c([H])c2c(c1[H])C([H])([H])C([H])([H])C([H])([H])C2([H])N([H])C(=O)C1([H])N(C(=O)C([H])(N([H])C(=O)C([H])(N([H])C([H])([H])[H])C([H])([H])[H])C(C([H])([H])[H])(C([H])([H])[H])C([H])([H])[H])C([H])([H])c2c([H])c(OC([H])([H])C([H])([H])n3nc(N4C([H])([H])C([H])(N([H])C(=O)N5C([H])([H])C([H])([H])C([H])([H])C([H])(n6nc(-c7c([H])c([H])c(Oc8c([H])c([H])c(F)c([H])c8F)c([H])c7[H])c(C(=O)N([H])[H])c6N([H])[H])C5([H])[H])C4([H])[H])nc3C([H])([H])[H])c([H])c([H])c2C1([H])[H]

> <Step>
190.0

> <Scaffold>
O=C(NC1CCCc2ccccc21)C1Cc2ccc(OCCn3cnc(N4CC(NC(=O)N5CCCC(n6ccc(-c7ccc(Oc8ccccc8)cc7)n6)C5)C4)n3)cc2CN1

> <SMILES>
CNC(C)C(=O)NC(C(=O)N1Cc2cc(OCCn3nc(N4CC(NC(=O)N5CCCC(n6nc(-c7ccc(Oc8ccc(F)cc8F)cc7)c(C(N)=O)c6N)C5)C4)nc3C)ccc2CC1C(=O)NC1CCCc2ccccc21)C(C)(C)C

> <Tanimoto ROCS sim>
0.266030490398407

> <Custom alerts>
1.0

> <Linker Num Aromatic Rings>
1.0

> <Linker Effective Length>
1.0

> <ADV>
0.996177613735199

> <PostDock Tanimoto ROCS sim>
0.9890611171722412

> <raw_Linker Num Aromatic Rings>
1.0

> <raw_Linker Effective Length>
8.0

> <raw_ADV>
-14.663999557495117

> <total_score>
0.9963096976280212

> <ID>
default_job_115

> <PostDock Tanimoto ROCS sim (re-score)>
0.97083986

> <raw_ADV (re-score)>
-14.324

$$$$
default_job_116
     RDKit          3D

 91 99  0  0  1  0  0  0  0  0999 V2000
  -30.1090  -23.7140   21.3270 C   0  0  0  0  0  2  0  0  0  0  0  0
  -29.9750  -25.2260   21.1360 C   0  0  0  0  0  2  0  0  0  0  0  0
  -28.0380  -24.1620   20.1210 C   0  0  0  0  0  2  0  0  0  0  0  0
  -29.1650  -23.0940   20.2880 C   0  0  0  0  0  3  0  0  0  0  0  0
  -28.4940  -25.4720   20.8280 C   0  0  0  0  0  3  0  0  0  0  0  0
  -28.4010  -26.7050   20.0880 O   0  0  0  0  0  0  0  0  0  0  0  0
  -24.6170  -31.8970   23.2450 C   0  0  0  0  0  0  0  0  0  0  0  0
  -27.2230  -27.4200   20.1610 C   0  0  0  0  0  0  0  0  0  0  0  0
  -23.3940  -30.4880   21.6230 C   0  0  0  0  0  3  0  0  0  0  0  0
  -24.8320  -28.9370   20.1930 C   0  0  0  0  0  0  0  0  0  0  0  0
  -25.9210  -30.8350   21.4040 C   0  0  0  0  0  2  0  0  0  0  0  0
  -25.9970  -29.4600   20.7670 C   0  0  0  0  0  0  0  0  0  0  0  0
  -27.1980  -28.7120   20.7430 C   0  0  0  0  0  3  0  0  0  0  0  0
  -26.0410  -26.9090   19.5890 C   0  0  0  0  0  3  0  0  0  0  0  0
  -24.8490  -27.6600   19.6020 C   0  0  0  0  0  3  0  0  0  0  0  0
  -23.5910  -29.8000   20.2450 C   0  0  0  0  0  2  0  0  0  0  0  0
  -24.6640  -31.0860   22.1510 N   0  0  0  0  0  0  0  0  0  0  0  0
  -23.5370  -32.1970   23.7710 O   0  0  0  0  0  0  0  0  0  0  0  0
  -22.7470  -29.4720   22.5910 C   0  0  0  0  0  0  0  0  0  0  0  0
  -21.4230  -29.2870   22.4690 N   0  0  0  0  0  0  0  0  0  0  0  0
  -23.4340  -28.8510   23.4070 O   0  0  0  0  0  0  0  0  0  0  0  0
  -20.9290  -29.8410   21.7830 H   0  0  0  0  0  0  0  0  0  0  0  0
  -18.0540  -28.0730   22.9660 C   0  0  0  0  0  0  0  0  0  0  0  0
  -20.6100  -28.3490   23.2430 C   0  0  0  0  0  3  0  0  0  0  0  0
  -20.7230  -26.9150   22.6770 C   0  0  0  0  0  2  0  0  0  0  0  0
  -19.6260  -26.5790   21.6620 C   0  0  0  0  0  2  0  0  0  0  0  0
  -18.2420  -26.7200   22.3010 C   0  0  0  0  0  2  0  0  0  0  0  0
  -19.1670  -28.8450   23.3950 C   0  0  0  0  0  0  0  0  0  0  0  0
  -18.9390  -30.1110   23.9740 C   0  0  0  0  0  3  0  0  0  0  0  0
  -17.6310  -30.6060   24.1310 C   0  0  0  0  0  3  0  0  0  0  0  0
  -16.5320  -29.8310   23.7200 C   0  0  0  0  0  3  0  0  0  0  0  0
  -16.7450  -28.5670   23.1440 C   0  0  0  0  0  3  0  0  0  0  0  0
  -25.9120  -32.5150   23.8630 C   0  0  0  0  0  3  0  0  0  0  0  0
  -25.6120  -33.9110   24.2100 N   0  0  0  0  0  0  0  0  0  0  0  0
  -25.9290  -34.9670   23.4510 C   0  0  0  0  0  0  0  0  0  0  0  0
  -26.5790  -34.8690   22.4060 O   0  0  0  0  0  0  0  0  0  0  0  0
  -25.0330  -34.0600   25.0240 H   0  0  0  0  0  0  0  0  0  0  0  0
  -24.1860  -36.7520   23.1430 C   0  0  0  0  0  1  0  0  0  0  0  0
  -25.4470  -36.3510   23.9230 C   0  0  0  0  0  3  0  0  0  0  0  0
  -27.6010  -37.2370   24.7010 C   0  0  0  0  0  1  0  0  0  0  0  0
  -26.4740  -37.4080   23.7890 N   0  0  0  0  0  0  0  0  0  0  0  0
  -26.0690  -38.3260   23.9530 H   0  0  0  0  0  0  0  0  0  0  0  0
  -26.4430  -31.7310   25.1270 C   0  0  1  0  0  0  0  0  0  0  0  0
  -25.3630  -31.4870   26.2040 C   0  0  0  0  0  1  0  0  0  0  0  0
  -27.0190  -30.3560   24.7130 C   0  0  0  0  0  1  0  0  0  0  0  0
  -27.6040  -32.5180   25.7820 C   0  0  0  0  0  1  0  0  0  0  0  0
  -28.7230  -21.6390   20.6620 C   0  0  0  0  0  2  0  0  0  0  0  0
  -29.7160  -20.5040   20.2400 C   0  0  0  0  0  2  0  0  0  0  0  0
  -29.7220  -19.3160   21.1480 N   0  0  0  0  0  4  0  0  0  0  0  0
  -28.9280  -19.3750   21.7640 H   0  0  0  0  0  0  0  0  0  0  0  0
  -30.5460  -19.3950   21.7220 H   0  0  0  0  0  0  0  0  0  0  0  0
  -29.7190  -17.9590   20.5230 C   0  0  0  0  0  2  0  0  0  0  0  0
  -30.2270  -16.8480   21.4970 C   0  0  0  0  0  2  0  0  0  0  0  0
  -30.6170  -14.5060   20.5270 C   0  0  0  0  0  0  0  0  0  0  0  0
  -30.3590  -12.3520   19.3300 C   0  0  0  0  0  2  0  0  0  0  0  0
  -29.4030  -12.5500   18.1340 C   0  0  0  0  0  2  0  0  0  0  0  0
  -27.9300  -12.4020   18.5680 C   0  0  0  0  0  2  0  0  0  0  0  0
  -27.5950  -13.2290   19.8390 C   0  0  0  0  0  3  0  0  0  0  0  0
  -28.6530  -12.9810   20.9380 C   0  0  0  0  0  2  0  0  0  0  0  0
  -29.9720  -13.3160   20.3720 N   0  0  0  0  0  0  0  0  0  0  0  0
  -31.7400  -14.7330   20.0680 O   0  0  0  0  0  0  0  0  0  0  0  0
  -29.8760  -15.4650   21.1180 N   0  0  0  0  0  0  0  0  0  0  0  0
  -28.9600  -15.1550   21.4060 H   0  0  0  0  0  0  0  0  0  0  0  0
  -25.1970  -13.8440   20.5440 C   0  0  0  0  0  0  0  0  0  0  0  0
  -24.1280  -13.0750   20.9170 C   0  0  0  0  0  0  0  0  0  0  0  0
  -24.5890  -11.7220   20.8910 C   0  0  0  0  0  0  0  0  0  0  0  0
  -26.2420  -12.9600   20.3170 N   0  0  0  0  0  0  0  0  0  0  0  0
  -25.8780  -11.6800   20.5830 N   0  0  0  0  0  0  0  0  0  0  0  0
  -23.8620  -10.4610   21.0860 C   0  0  0  0  0  0  0  0  0  0  0  0
  -24.3130   -9.4830   22.0000 C   0  0  0  0  0  3  0  0  0  0  0  0
  -23.5870   -8.2870   22.1830 C   0  0  0  0  0  3  0  0  0  0  0  0
  -22.3970   -8.0600   21.4520 C   0  0  0  0  0  0  0  0  0  0  0  0
  -21.9660   -9.0270   20.5260 C   0  0  0  0  0  3  0  0  0  0  0  0
  -22.6920  -10.2150   20.3410 C   0  0  0  0  0  3  0  0  0  0  0  0
  -21.6410   -6.9160   21.5440 O   0  0  0  0  0  0  0  0  0  0  0  0
  -21.6360   -6.1470   22.6800 C   0  0  0  0  0  0  0  0  0  0  0  0
  -21.2820   -6.6800   23.9400 C   0  0  0  0  0  3  0  0  0  0  0  0
  -21.2230   -5.8380   25.0680 C   0  0  0  0  0  3  0  0  0  0  0  0
  -21.5070   -4.4660   24.9400 C   0  0  0  0  0  0  0  0  0  0  0  0
  -21.8550   -3.9330   23.6860 C   0  0  0  0  0  3  0  0  0  0  0  0
  -21.9160   -4.7710   22.5600 C   0  0  0  0  0  0  0  0  0  0  0  0
  -22.2310   -4.2490   21.3490 F   0  0  0  0  0  0  0  0  0  0  0  0
  -21.4430   -3.6550   26.0220 F   0  0  0  0  0  0  0  0  0  0  0  0
  -22.7310  -13.5530   21.1880 C   0  0  0  0  0  0  0  0  0  0  0  0
  -22.0040  -12.8610   22.0590 N   0  0  0  0  0  0  0  0  0  0  0  0
  -22.2930  -14.5770   20.6630 O   0  0  0  0  0  0  0  0  0  0  0  0
  -22.3720  -12.0340   22.5060 H   0  0  0  0  0  0  0  0  0  0  0  0
  -21.0670  -13.1650   22.2840 H   0  0  0  0  0  0  0  0  0  0  0  0
  -25.3620  -15.2140   20.3610 N   0  0  0  0  0  0  0  0  0  0  0  0
  -24.5890  -15.8650   20.4550 H   0  0  0  0  0  0  0  0  0  0  0  0
  -26.2030  -15.6500   20.0050 H   0  0  0  0  0  0  0  0  0  0  0  0
  2  1  1  0
  3  4  1  0
  3  5  1  0
  4 47  1  0
  4  1  1  0
  5  6  1  0
  5  2  1  0
  6  8  1  0
  7 18  2  0
  8 13  1  0
  9 17  1  0
  9 19  1  0
 10 16  1  0
 10 12  1  0
 11 17  1  0
 12 11  1  0
 13 12  2  0
 14 15  1  0
 14  8  2  0
 15 10  2  0
 16  9  1  0
 17  7  1  0
 19 21  2  0
 20 19  1  0
 22 20  1  0
 23 32  2  0
 23 28  1  0
 24 20  1  0
 24 28  1  0
 25 24  1  0
 26 27  1  0
 26 25  1  0
 27 23  1  0
 28 29  2  0
 29 30  1  0
 31 30  2  0
 32 31  1  0
 33  7  1  0
 33 34  1  0
 33 43  1  0
 34 37  1  0
 35 39  1  0
 35 34  1  0
 36 35  2  0
 39 38  1  0
 41 39  1  0
 41 42  1  0
 41 40  1  0
 43 46  1  1
 43 44  1  0
 45 43  1  0
 48 47  1  0
 48 49  1  0
 49 51  1  0
 49 50  1  0
 52 49  1  0
 52 53  1  0
 54 62  1  0
 55 60  1  0
 56 57  1  0
 56 55  1  0
 58 57  1  0
 58 67  1  0
 58 59  1  0
 60 54  1  0
 60 59  1  0
 61 54  2  0
 62 63  1  0
 62 53  1  0
 64 65  2  0
 65 84  1  0
 66 65  1  0
 66 69  1  0
 67 64  1  0
 67 68  1  0
 68 66  2  0
 69 70  1  0
 70 71  2  0
 72 75  1  0
 72 71  1  0
 73 72  2  0
 74 73  1  0
 74 69  2  0
 75 76  1  0
 76 77  1  0
 77 78  2  0
 79 78  1  0
 79 83  1  0
 80 79  2  0
 81 76  2  0
 81 80  1  0
 82 81  1  0
 84 85  1  0
 85 88  1  0
 85 87  1  0
 86 84  2  0
 89 90  1  0
 89 64  1  0
 91 89  1  0
M  ISO  4   5 101   6 101  54 100  62 100
M  END
>  <TORSDO>  (17) 
F 21

>  <SCORE>  (17) 
-13.627

>  <name>  (17) 
16

>  <ligand_id>  (17) 
16

>  <original_smiles>  (17) 
[H]c1c([H])c([H])c2c(c1[H])C([H])([H])C([H])([H])C([H])([H])C2([H])N([H])C(=O)C1([H])N(C(=O)C([H])(N([H])C(=O)C([H])(N([H])C([H])([H])[H])C([H])([H])[H])C(C([H])([H])[H])(C([H])([H])[H])C([H])([H])[H])C([H])([H])c2c([H])c(OC3([H])C([H])([H])C([H])([H])C([H])(C([H])([H])C([H])([H])[N+]([H])([H])C([H])([H])C([H])([H])N([H])C(=O)N4C([H])([H])C([H])([H])C([H])([H])C([H])(n5nc(-c6c([H])c([H])c(Oc7c([H])c([H])c(F)c([H])c7F)c([H])c6[H])c(C(=O)N([H])[H])c5N([H])[H])C4([H])[H])C3([H])[H])c([H])c([H])c2C1([H])[H]

>  <smiles>  (17) 
[H]c1c([H])c([H])c2c(c1[H])C([H])([H])C([H])([H])C([H])([H])C2([H])N([H])C(=O)C1([H])N(C(=O)C([H])(N([H])C(=O)C([H])(N([H])C([H])([H])[H])C([H])([H])[H])C(C([H])([H])[H])(C([H])([H])[H])C([H])([H])[H])C([H])([H])c2c([H])c(OC3([H])C([H])([H])C([H])([H])C([H])(C([H])([H])C([H])([H])[N+]([H])([H])C([H])([H])C([H])([H])N([H])C(=O)N4C([H])([H])C([H])([H])C([H])([H])C([H])(n5nc(-c6c([H])c([H])c(Oc7c([H])c([H])c(F)c([H])c7F)c([H])c6[H])c(C(=O)N([H])[H])c5N([H])[H])C4([H])[H])C3([H])[H])c([H])c([H])c2C1([H])[H]

> <Step>
139.0

> <Scaffold>
O=C(NC1CCCc2ccccc21)C1Cc2ccc(OC3CCC(CCNCCNC(=O)N4CCCC(n5ccc(-c6ccc(Oc7ccccc7)cc6)n5)C4)C3)cc2CN1

> <SMILES>
CNC(C)C(=O)NC(C(=O)N1Cc2cc(OC3CCC(CCNCCNC(=O)N4CCCC(n5nc(-c6ccc(Oc7ccc(F)cc7F)cc6)c(C(N)=O)c5N)C4)C3)ccc2CC1C(=O)NC1CCCc2ccccc21)C(C)(C)C

> <Tanimoto ROCS sim>
0.25171294808387756

> <Custom alerts>
1.0

> <Linker Num Aromatic Rings>
1.0

> <Linker Effective Length>
1.0

> <ADV>
0.9929903745651245

> <PostDock Tanimoto ROCS sim>
0.992236852645874

> <raw_Linker Num Aromatic Rings>
0.0

> <raw_Linker Effective Length>
8.0

> <raw_ADV>
-13.604999542236328

> <total_score>
0.996306836605072

> <ID>
default_job_116

> <PostDock Tanimoto ROCS sim (re-score)>
0.98587155

> <raw_ADV (re-score)>
-13.627

$$$$
default_job_117
     RDKit          3D

 92100  0  0  1  0  0  0  0  0999 V2000
  -29.7420  -22.1830   20.0590 C   0  0  0  0  0  0  0  0  0  0  0  0
  -30.5800  -21.1240   20.0820 N   0  0  0  0  0  0  0  0  0  0  0  0
  -28.5750  -22.1450   20.4470 O   0  0  0  0  0  0  0  0  0  0  0  0
  -31.5320  -21.3480   19.8170 H   0  0  0  0  0  0  0  0  0  0  0  0
  -30.6640  -14.5170   20.2940 C   0  0  0  0  0  0  0  0  0  0  0  0
  -30.3280  -12.3700   19.1240 C   0  0  0  0  0  2  0  0  0  0  0  0
  -29.3560  -12.5960   17.9460 C   0  0  0  0  0  2  0  0  0  0  0  0
  -27.8940  -12.4580   18.4130 C   0  0  0  0  0  2  0  0  0  0  0  0
  -27.5920  -13.2780   19.6960 C   0  0  0  0  0  3  0  0  0  0  0  0
  -28.6740  -13.0340   20.7720 C   0  0  0  0  0  2  0  0  0  0  0  0
  -29.9860  -13.3400   20.1770 N   0  0  0  0  0  0  0  0  0  0  0  0
  -31.7890  -14.6700   19.8090 O   0  0  0  0  0  0  0  0  0  0  0  0
  -29.0810  -19.1510   20.6110 C   0  0  0  0  0  3  0  0  0  0  0  0
  -28.9960  -17.7520   20.7950 C   0  0  0  0  0  3  0  0  0  0  0  0
  -31.4480  -18.8590   20.3340 C   0  0  0  0  0  3  0  0  0  0  0  0
  -30.3430  -19.7340   20.3580 C   0  0  0  0  0  0  0  0  0  0  0  0
  -30.1520  -16.9420   20.7090 C   0  0  0  0  0  0  0  0  0  0  0  0
  -31.3600  -17.5200   20.5040 N   0  0  0  0  0  0  0  0  0  0  0  0
  -29.9560  -15.5310   20.8430 N   0  0  0  0  0  0  0  0  0  0  0  0
  -29.0570  -15.2520   21.2010 H   0  0  0  0  0  0  0  0  0  0  0  0
  -25.2120  -13.8840   20.4640 C   0  0  0  0  0  0  0  0  0  0  0  0
  -24.1520  -13.1100   20.8520 C   0  0  0  0  0  0  0  0  0  0  0  0
  -24.6080  -11.7570   20.7980 C   0  0  0  0  0  0  0  0  0  0  0  0
  -26.2490  -13.0020   20.2020 N   0  0  0  0  0  0  0  0  0  0  0  0
  -25.8900  -11.7180   20.4600 N   0  0  0  0  0  0  0  0  0  0  0  0
  -23.8830  -10.4960   20.9910 C   0  0  0  0  0  0  0  0  0  0  0  0
  -24.3250   -9.5260   21.9190 C   0  0  0  0  0  3  0  0  0  0  0  0
  -23.6030   -8.3270   22.1000 C   0  0  0  0  0  3  0  0  0  0  0  0
  -22.4230   -8.0900   21.3540 C   0  0  0  0  0  0  0  0  0  0  0  0
  -21.9990   -9.0500   20.4160 C   0  0  0  0  0  3  0  0  0  0  0  0
  -22.7230  -10.2390   20.2330 C   0  0  0  0  0  3  0  0  0  0  0  0
  -21.6690   -6.9450   21.4460 O   0  0  0  0  0  0  0  0  0  0  0  0
  -21.6170   -6.2090   22.6020 C   0  0  0  0  0  0  0  0  0  0  0  0
  -21.1640   -6.7650   23.8190 C   0  0  0  0  0  3  0  0  0  0  0  0
  -21.0620   -5.9560   24.9670 C   0  0  0  0  0  3  0  0  0  0  0  0
  -21.4010   -4.5910   24.9000 C   0  0  0  0  0  0  0  0  0  0  0  0
  -21.8440   -4.0340   23.6870 C   0  0  0  0  0  3  0  0  0  0  0  0
  -21.9490   -4.8420   22.5410 C   0  0  0  0  0  0  0  0  0  0  0  0
  -22.3590   -4.2960   21.3700 F   0  0  0  0  0  0  0  0  0  0  0  0
  -21.2940   -3.8100   26.0000 F   0  0  0  0  0  0  0  0  0  0  0  0
  -22.7620  -13.5880   21.1620 C   0  0  0  0  0  0  0  0  0  0  0  0
  -22.0530  -12.8820   22.0350 N   0  0  0  0  0  0  0  0  0  0  0  0
  -22.3160  -14.6220   20.6660 O   0  0  0  0  0  0  0  0  0  0  0  0
  -22.4260  -12.0440   22.4540 H   0  0  0  0  0  0  0  0  0  0  0  0
  -21.1210  -13.1820   22.2870 H   0  0  0  0  0  0  0  0  0  0  0  0
  -25.3770  -15.2550   20.2900 N   0  0  0  0  0  0  0  0  0  0  0  0
  -24.6060  -15.9050   20.4000 H   0  0  0  0  0  0  0  0  0  0  0  0
  -26.2000  -15.6830   19.8880 H   0  0  0  0  0  0  0  0  0  0  0  0
  -30.3350  -23.4970   19.5070 C   0  0  0  0  0  2  0  0  0  0  0  0
  -29.8900  -24.8280   20.1790 C   0  0  0  0  0  2  0  0  0  0  0  0
  -28.4850  -25.3730   19.8220 C   0  0  0  0  0  2  0  0  0  0  0  0
  -28.4380  -26.7650   20.1780 O   0  0  0  0  0  0  0  0  0  0  0  0
  -24.5660  -31.8860   23.2340 C   0  0  0  0  0  0  0  0  0  0  0  0
  -27.2370  -27.4500   20.1530 C   0  0  0  0  0  0  0  0  0  0  0  0
  -23.3670  -30.4840   21.5870 C   0  0  0  0  0  3  0  0  0  0  0  0
  -24.8280  -28.9490   20.1590 C   0  0  0  0  0  0  0  0  0  0  0  0
  -25.8920  -30.8450   21.3980 C   0  0  0  0  0  2  0  0  0  0  0  0
  -25.9820  -29.4760   20.7520 C   0  0  0  0  0  0  0  0  0  0  0  0
  -27.1840  -28.7340   20.7420 C   0  0  0  0  0  3  0  0  0  0  0  0
  -26.0610  -26.9340   19.5590 C   0  0  0  0  0  3  0  0  0  0  0  0
  -24.8640  -27.6770   19.5610 C   0  0  0  0  0  3  0  0  0  0  0  0
  -23.5810  -29.8050   20.2050 C   0  0  0  0  0  2  0  0  0  0  0  0
  -24.6280  -31.0830   22.1340 N   0  0  0  0  0  0  0  0  0  0  0  0
  -23.4780  -32.1800   23.7470 O   0  0  0  0  0  0  0  0  0  0  0  0
  -22.7130  -29.4580   22.5410 C   0  0  0  0  0  0  0  0  0  0  0  0
  -21.3890  -29.2770   22.4080 N   0  0  0  0  0  0  0  0  0  0  0  0
  -23.3940  -28.8280   23.3540 O   0  0  0  0  0  0  0  0  0  0  0  0
  -20.9020  -29.8420   21.7270 H   0  0  0  0  0  0  0  0  0  0  0  0
  -18.0070  -28.0950   22.8930 C   0  0  0  0  0  0  0  0  0  0  0  0
  -20.5670  -28.3350   23.1680 C   0  0  0  0  0  3  0  0  0  0  0  0
  -20.6630  -26.9100   22.5760 C   0  0  0  0  0  2  0  0  0  0  0  0
  -19.5590  -26.6050   21.5580 C   0  0  0  0  0  2  0  0  0  0  0  0
  -18.1780  -26.7520   22.2010 C   0  0  0  0  0  2  0  0  0  0  0  0
  -19.1300  -28.8460   23.3310 C   0  0  0  0  0  0  0  0  0  0  0  0
  -18.9180  -30.1060   23.9330 C   0  0  0  0  0  3  0  0  0  0  0  0
  -17.6170  -30.6120   24.1050 C   0  0  0  0  0  3  0  0  0  0  0  0
  -16.5090  -29.8580   23.6810 C   0  0  0  0  0  3  0  0  0  0  0  0
  -16.7040  -28.6020   23.0790 C   0  0  0  0  0  3  0  0  0  0  0  0
  -25.8510  -32.5030   23.8750 C   0  0  0  0  0  3  0  0  0  0  0  0
  -26.3530  -31.7250   25.1520 C   0  0  1  0  0  0  0  0  0  0  0  0
  -25.2520  -31.4900   26.2120 C   0  0  0  0  0  1  0  0  0  0  0  0
  -26.9350  -30.3490   24.7550 C   0  0  0  0  0  1  0  0  0  0  0  0
  -27.5050  -32.5090   25.8230 C   0  0  0  0  0  1  0  0  0  0  0  0
  -25.5470  -33.9020   24.2060 N   0  0  0  0  0  0  0  0  0  0  0  0
  -25.8800  -34.9520   23.4440 C   0  0  0  0  0  0  0  0  0  0  0  0
  -26.5480  -34.8460   22.4110 O   0  0  0  0  0  0  0  0  0  0  0  0
  -24.9540  -34.0590   25.0080 H   0  0  0  0  0  0  0  0  0  0  0  0
  -24.1510  -36.7430   23.0950 C   0  0  0  0  0  1  0  0  0  0  0  0
  -25.3970  -36.3420   23.9000 C   0  0  0  0  0  3  0  0  0  0  0  0
  -27.5360  -37.2270   24.7180 C   0  0  0  0  0  1  0  0  0  0  0  0
  -26.4320  -37.3920   23.7770 N   0  0  0  0  0  0  0  0  0  0  0  0
  -26.0280  -38.3140   23.9240 H   0  0  0  0  0  0  0  0  0  0  0  0
  1  2  1  0
  1  3  2  0
  2 16  1  0
  4  2  1  0
  5 19  1  0
  6 11  1  0
  7  8  1  0
  7  6  1  0
  9  8  1  0
  9 24  1  0
  9 10  1  0
 11  5  1  0
 11 10  1  0
 12  5  2  0
 13 14  1  0
 15 16  1  0
 15 18  2  0
 16 13  2  0
 17 14  2  0
 17 19  1  0
 18 17  1  0
 19 20  1  0
 21 22  2  0
 22 41  1  0
 23 22  1  0
 23 26  1  0
 24 25  1  0
 24 21  1  0
 25 23  2  0
 26 27  1  0
 27 28  2  0
 29 32  1  0
 29 28  1  0
 30 29  2  0
 31 30  1  0
 31 26  2  0
 32 33  1  0
 33 34  1  0
 34 35  2  0
 36 35  1  0
 36 40  1  0
 37 36  2  0
 38 33  2  0
 38 37  1  0
 39 38  1  0
 41 42  1  0
 42 45  1  0
 42 44  1  0
 43 41  2  0
 46 47  1  0
 46 21  1  0
 48 46  1  0
 49  1  1  0
 49 50  1  0
 51 52  1  0
 51 50  1  0
 53 64  2  0
 54 52  1  0
 54 59  1  0
 55 63  1  0
 55 65  1  0
 56 62  1  0
 56 58  1  0
 57 63  1  0
 58 57  1  0
 59 58  2  0
 60 61  1  0
 60 54  2  0
 61 56  2  0
 62 55  1  0
 63 53  1  0
 65 67  2  0
 66 65  1  0
 68 66  1  0
 69 78  2  0
 69 74  1  0
 70 66  1  0
 70 74  1  0
 71 70  1  0
 72 73  1  0
 72 71  1  0
 73 69  1  0
 74 75  2  0
 75 76  1  0
 77 76  2  0
 78 77  1  0
 79 53  1  0
 79 84  1  0
 79 80  1  0
 80 83  1  1
 80 81  1  0
 82 80  1  0
 84 87  1  0
 85 89  1  0
 85 84  1  0
 86 85  2  0
 89 88  1  0
 91 89  1  0
 91 92  1  0
 91 90  1  0
M  ISO  4   5 100  19 100  51 101  52 101
M  END
>  <TORSDO>  (18) 
F 19

>  <SCORE>  (18) 
-14.284

>  <name>  (18) 
17

>  <ligand_id>  (18) 
17

>  <original_smiles>  (18) 
[H]c1nc(N([H])C(=O)N2C([H])([H])C([H])([H])C([H])([H])C([H])(n3nc(-c4c([H])c([H])c(Oc5c([H])c([H])c(F)c([H])c5F)c([H])c4[H])c(C(=O)N([H])[H])c3N([H])[H])C2([H])[H])c([H])c([H])c1N([H])C(=O)C([H])([H])C([H])([H])C([H])([H])Oc1c([H])c([H])c2c(c1[H])C([H])([H])N(C(=O)C([H])(N([H])C(=O)C([H])(N([H])C([H])([H])[H])C([H])([H])[H])C(C([H])([H])[H])(C([H])([H])[H])C([H])([H])[H])C([H])(C(=O)N([H])C1([H])c3c([H])c([H])c([H])c([H])c3C([H])([H])C([H])([H])C1([H])[H])C2([H])[H]

>  <smiles>  (18) 
[H]c1nc(N([H])C(=O)N2C([H])([H])C([H])([H])C([H])([H])C([H])(n3nc(-c4c([H])c([H])c(Oc5c([H])c([H])c(F)c([H])c5F)c([H])c4[H])c(C(=O)N([H])[H])c3N([H])[H])C2([H])[H])c([H])c([H])c1N([H])C(=O)C([H])([H])C([H])([H])C([H])([H])Oc1c([H])c([H])c2c(c1[H])C([H])([H])N(C(=O)C([H])(N([H])C(=O)C([H])(N([H])C([H])([H])[H])C([H])([H])[H])C(C([H])([H])[H])(C([H])([H])[H])C([H])([H])[H])C([H])(C(=O)N([H])C1([H])c3c([H])c([H])c([H])c([H])c3C([H])([H])C([H])([H])C1([H])[H])C2([H])[H]

> <Step>
120.0

> <Scaffold>
O=C(CCCOc1ccc2c(c1)CNC(C(=O)NC1CCCc3ccccc31)C2)Nc1ccc(NC(=O)N2CCCC(n3ccc(-c4ccc(Oc5ccccc5)cc4)n3)C2)nc1

> <SMILES>
CNC(C)C(=O)NC(C(=O)N1Cc2cc(OCCCC(=O)Nc3ccc(NC(=O)N4CCCC(n5nc(-c6ccc(Oc7ccc(F)cc7F)cc6)c(C(N)=O)c5N)C4)nc3)ccc2CC1C(=O)NC1CCCc2ccccc21)C(C)(C)C

> <Tanimoto ROCS sim>
0.17501261830329895

> <Custom alerts>
1.0

> <Linker Num Aromatic Rings>
1.0

> <Linker Effective Length>
1.0

> <ADV>
0.9951037168502808

> <PostDock Tanimoto ROCS sim>
0.9900767803192139

> <raw_Linker Num Aromatic Rings>
1.0

> <raw_Linker Effective Length>
9.0

> <raw_ADV>
-14.232000350952148

> <total_score>
0.996295154094696

> <ID>
default_job_117

> <PostDock Tanimoto ROCS sim (re-score)>
0.98048806

> <raw_ADV (re-score)>
-14.284

$$$$
default_job_118
     RDKit          3D

 93102  0  0  1  0  0  0  0  0999 V2000
  -28.1650  -20.6620   20.2370 C   0  0  0  0  0  2  0  0  0  0  0  0
  -30.6040  -20.7670   19.4880 C   0  0  0  0  0  2  0  0  0  0  0  0
  -28.3400  -22.0960   20.8100 C   0  0  0  0  0  2  0  0  0  0  0  0
  -30.6560  -22.1940   20.1020 C   0  0  0  0  0  2  0  0  0  0  0  0
  -29.4690  -19.8430   20.0130 C   0  0  0  0  0  3  0  0  0  0  0  0
  -29.3400  -22.8940   20.0450 N   0  0  2  0  0  4  0  0  0  0  0  0
  -29.0580  -22.8890   19.0740 H   0  0  0  0  0  0  0  0  0  0  0  0
  -29.8570  -18.9460   21.1520 N   0  0  0  0  0  4  0  0  0  0  0  0
  -29.0810  -18.8790   21.7900 H   0  0  0  0  0  0  0  0  0  0  0  0
  -30.6080  -19.3790   21.6660 H   0  0  0  0  0  0  0  0  0  0  0  0
  -30.6910  -14.5130   20.4910 C   0  0  0  0  0  0  0  0  0  0  0  0
  -30.3840  -12.3620   19.3100 C   0  0  0  0  0  2  0  0  0  0  0  0
  -29.4450  -12.5640   18.1040 C   0  0  0  0  0  2  0  0  0  0  0  0
  -27.9690  -12.4210   18.5260 C   0  0  0  0  0  2  0  0  0  0  0  0
  -27.6260  -13.2560   19.7900 C   0  0  0  0  0  3  0  0  0  0  0  0
  -28.6780  -13.0380   20.9020 C   0  0  0  0  0  2  0  0  0  0  0  0
  -30.0050  -13.3440   20.3390 N   0  0  0  0  0  0  0  0  0  0  0  0
  -31.8140  -14.6940   20.0140 O   0  0  0  0  0  0  0  0  0  0  0  0
  -30.6940  -16.6080   21.9170 C   0  0  0  0  0  2  0  0  0  0  0  0
  -29.1730  -16.5150   20.5170 C   0  0  0  0  0  2  0  0  0  0  0  0
  -30.2720  -17.5490   20.7840 C   0  0  0  0  0  3  0  0  0  0  0  0
  -30.0510  -15.5070   21.1600 N   0  0  0  0  0  0  0  0  0  0  0  0
  -25.2240  -13.8670   20.4790 C   0  0  0  0  0  0  0  0  0  0  0  0
  -24.1540  -13.0970   20.8480 C   0  0  0  0  0  0  0  0  0  0  0  0
  -24.6160  -11.7450   20.8300 C   0  0  0  0  0  0  0  0  0  0  0  0
  -26.2710  -12.9840   20.2630 N   0  0  0  0  0  0  0  0  0  0  0  0
  -25.9080  -11.7030   20.5320 N   0  0  0  0  0  0  0  0  0  0  0  0
  -23.8880  -10.4850   21.0250 C   0  0  0  0  0  0  0  0  0  0  0  0
  -24.3190   -9.5210   21.9620 C   0  0  0  0  0  3  0  0  0  0  0  0
  -23.5920   -8.3240   22.1440 C   0  0  0  0  0  3  0  0  0  0  0  0
  -22.4200   -8.0840   21.3890 C   0  0  0  0  0  0  0  0  0  0  0  0
  -22.0080   -9.0370   20.4400 C   0  0  0  0  0  3  0  0  0  0  0  0
  -22.7360  -10.2240   20.2560 C   0  0  0  0  0  3  0  0  0  0  0  0
  -21.6640   -6.9400   21.4790 O   0  0  0  0  0  0  0  0  0  0  0  0
  -21.6180   -6.1980   22.6330 C   0  0  0  0  0  0  0  0  0  0  0  0
  -21.1970   -6.7550   23.8590 C   0  0  0  0  0  3  0  0  0  0  0  0
  -21.0960   -5.9400   25.0050 C   0  0  0  0  0  3  0  0  0  0  0  0
  -21.4060   -4.5690   24.9250 C   0  0  0  0  0  0  0  0  0  0  0  0
  -21.8220   -4.0120   23.7020 C   0  0  0  0  0  3  0  0  0  0  0  0
  -21.9240   -4.8240   22.5580 C   0  0  0  0  0  0  0  0  0  0  0  0
  -22.3030   -4.2780   21.3780 F   0  0  0  0  0  0  0  0  0  0  0  0
  -21.3030   -3.7850   26.0220 F   0  0  0  0  0  0  0  0  0  0  0  0
  -22.7540  -13.5760   21.1070 C   0  0  0  0  0  0  0  0  0  0  0  0
  -22.0200  -12.8850   21.9720 N   0  0  0  0  0  0  0  0  0  0  0  0
  -22.3200  -14.5980   20.5780 O   0  0  0  0  0  0  0  0  0  0  0  0
  -22.3830  -12.0600   22.4240 H   0  0  0  0  0  0  0  0  0  0  0  0
  -21.0810  -13.1880   22.1870 H   0  0  0  0  0  0  0  0  0  0  0  0
  -25.3890  -15.2360   20.2880 N   0  0  0  0  0  0  0  0  0  0  0  0
  -24.6150  -15.8860   20.3680 H   0  0  0  0  0  0  0  0  0  0  0  0
  -26.2310  -15.6630   19.9270 H   0  0  0  0  0  0  0  0  0  0  0  0
  -29.4210  -24.3510   20.4350 C   0  0  0  0  0  2  0  0  0  0  0  0
  -28.2100  -25.2210   19.9780 C   0  0  0  0  0  2  0  0  0  0  0  0
  -28.3510  -26.6440   20.2280 O   0  0  0  0  0  0  0  0  0  0  0  0
  -24.5920  -31.9200   23.2650 C   0  0  0  0  0  0  0  0  0  0  0  0
  -27.1930  -27.4140   20.1920 C   0  0  0  0  0  0  0  0  0  0  0  0
  -23.3720  -30.5130   21.6420 C   0  0  0  0  0  3  0  0  0  0  0  0
  -24.8110  -28.9650   20.2140 C   0  0  0  0  0  0  0  0  0  0  0  0
  -25.9060  -30.8450   21.4390 C   0  0  0  0  0  2  0  0  0  0  0  0
  -25.9780  -29.4710   20.7970 C   0  0  0  0  0  0  0  0  0  0  0  0
  -27.1710  -28.7050   20.7810 C   0  0  0  0  0  3  0  0  0  0  0  0
  -26.0010  -26.9410   19.5900 C   0  0  0  0  0  3  0  0  0  0  0  0
  -24.8200  -27.7010   19.6060 C   0  0  0  0  0  3  0  0  0  0  0  0
  -23.5730  -29.8320   20.2640 C   0  0  0  0  0  2  0  0  0  0  0  0
  -24.6430  -31.1050   22.1750 N   0  0  0  0  0  0  0  0  0  0  0  0
  -23.5080  -32.2260   23.7830 O   0  0  0  0  0  0  0  0  0  0  0  0
  -22.7200  -29.4960   22.6090 C   0  0  0  0  0  0  0  0  0  0  0  0
  -21.3970  -29.3080   22.4790 N   0  0  0  0  0  0  0  0  0  0  0  0
  -23.4030  -28.8790   23.4300 O   0  0  0  0  0  0  0  0  0  0  0  0
  -20.9070  -29.8580   21.7860 H   0  0  0  0  0  0  0  0  0  0  0  0
  -18.0250  -28.1000   22.9660 C   0  0  0  0  0  0  0  0  0  0  0  0
  -20.5790  -28.3740   23.2530 C   0  0  0  0  0  3  0  0  0  0  0  0
  -20.6940  -26.9380   22.6920 C   0  0  0  0  0  2  0  0  0  0  0  0
  -19.6000  -26.5990   21.6730 C   0  0  0  0  0  2  0  0  0  0  0  0
  -18.2130  -26.7440   22.3070 C   0  0  0  0  0  2  0  0  0  0  0  0
  -19.1360  -28.8720   23.3960 C   0  0  0  0  0  0  0  0  0  0  0  0
  -18.9080  -30.1400   23.9720 C   0  0  0  0  0  3  0  0  0  0  0  0
  -17.5990  -30.6370   24.1240 C   0  0  0  0  0  3  0  0  0  0  0  0
  -16.5020  -29.8620   23.7100 C   0  0  0  0  0  3  0  0  0  0  0  0
  -16.7150  -28.5960   23.1370 C   0  0  0  0  0  3  0  0  0  0  0  0
  -25.8840  -32.5380   23.8860 C   0  0  0  0  0  3  0  0  0  0  0  0
  -26.4000  -31.7650   25.1610 C   0  0  1  0  0  0  0  0  0  0  0  0
  -25.3090  -31.5370   26.2340 C   0  0  0  0  0  1  0  0  0  0  0  0
  -26.9730  -30.3840   24.7690 C   0  0  0  0  0  1  0  0  0  0  0  0
  -27.5580  -32.5530   25.8180 C   0  0  0  0  0  1  0  0  0  0  0  0
  -25.5860  -33.9390   24.2160 N   0  0  0  0  0  0  0  0  0  0  0  0
  -25.9130  -34.9850   23.4470 C   0  0  0  0  0  0  0  0  0  0  0  0
  -26.5710  -34.8730   22.4080 O   0  0  0  0  0  0  0  0  0  0  0  0
  -24.9990  -34.1000   25.0210 H   0  0  0  0  0  0  0  0  0  0  0  0
  -24.1840  -36.7790   23.1020 C   0  0  0  0  0  1  0  0  0  0  0  0
  -25.4340  -36.3770   23.9010 C   0  0  0  0  0  3  0  0  0  0  0  0
  -27.5810  -37.2590   24.7000 C   0  0  0  0  0  1  0  0  0  0  0  0
  -26.4680  -37.4260   23.7690 N   0  0  0  0  0  0  0  0  0  0  0  0
  -26.0650  -38.3480   23.9180 H   0  0  0  0  0  0  0  0  0  0  0  0
  1  3  1  0
  2  5  1  0
  2  4  1  0
  5  1  1  0
  5  8  1  0
  6  4  1  0
  6 51  1  0
  6  3  1  0
  6  7  1  6
  8 10  1  0
  8  9  1  0
 11 22  1  0
 12 17  1  0
 13 14  1  0
 13 12  1  0
 15 14  1  0
 15 26  1  0
 15 16  1  0
 17 11  1  0
 17 16  1  0
 18 11  2  0
 20 21  1  0
 20 22  1  0
 21  8  1  0
 21 19  1  0
 22 19  1  0
 23 24  2  0
 24 43  1  0
 25 24  1  0
 25 28  1  0
 26 23  1  0
 26 27  1  0
 27 25  2  0
 28 29  1  0
 29 30  2  0
 31 34  1  0
 31 30  1  0
 32 31  2  0
 33 32  1  0
 33 28  2  0
 34 35  1  0
 35 36  1  0
 36 37  2  0
 38 37  1  0
 38 42  1  0
 39 38  2  0
 40 35  2  0
 40 39  1  0
 41 40  1  0
 43 44  1  0
 44 47  1  0
 44 46  1  0
 45 43  2  0
 48 49  1  0
 48 23  1  0
 50 48  1  0
 52 53  1  0
 52 51  1  0
 54 65  2  0
 55 53  1  0
 55 60  1  0
 56 64  1  0
 56 66  1  0
 57 63  1  0
 57 59  1  0
 58 64  1  0
 59 58  1  0
 60 59  2  0
 61 62  1  0
 61 55  2  0
 62 57  2  0
 63 56  1  0
 64 54  1  0
 66 68  2  0
 67 66  1  0
 69 67  1  0
 70 79  2  0
 70 75  1  0
 71 67  1  0
 71 75  1  0
 72 71  1  0
 73 74  1  0
 73 72  1  0
 74 70  1  0
 75 76  2  0
 76 77  1  0
 78 77  2  0
 79 78  1  0
 80 54  1  0
 80 85  1  0
 80 81  1  0
 81 84  1  1
 81 82  1  0
 83 81  1  0
 85 88  1  0
 86 90  1  0
 86 85  1  0
 87 86  2  0
 90 89  1  0
 92 90  1  0
 92 93  1  0
 92 91  1  0
M  ISO  4  11 100  22 100  52 101  53 101
M  END
>  <TORSDO>  (19) 
F 19

>  <SCORE>  (19) 
-14.614

>  <name>  (19) 
18

>  <ligand_id>  (19) 
18

>  <original_smiles>  (19) 
[H]c1c([H])c([H])c2c(c1[H])C([H])([H])C([H])([H])C([H])([H])C2([H])N([H])C(=O)C1([H])N(C(=O)C([H])(N([H])C(=O)C([H])(N([H])C([H])([H])[H])C([H])([H])[H])C(C([H])([H])[H])(C([H])([H])[H])C([H])([H])[H])C([H])([H])c2c([H])c(OC([H])([H])C([H])([H])[N+]3([H])C([H])([H])C([H])([H])C([H])([N+]([H])([H])C4([H])C([H])([H])N(C(=O)N5C([H])([H])C([H])([H])C([H])([H])C([H])(n6nc(-c7c([H])c([H])c(Oc8c([H])c([H])c(F)c([H])c8F)c([H])c7[H])c(C(=O)N([H])[H])c6N([H])[H])C5([H])[H])C4([H])[H])C([H])([H])C3([H])[H])c([H])c([H])c2C1([H])[H]

>  <smiles>  (19) 
[H]c1c([H])c([H])c2c(c1[H])C([H])([H])C([H])([H])C([H])([H])C2([H])N([H])C(=O)C1([H])N(C(=O)C([H])(N([H])C(=O)C([H])(N([H])C([H])([H])[H])C([H])([H])[H])C(C([H])([H])[H])(C([H])([H])[H])C([H])([H])[H])C([H])([H])c2c([H])c(OC([H])([H])C([H])([H])[N+]3([H])C([H])([H])C([H])([H])C([H])([N+]([H])([H])C4([H])C([H])([H])N(C(=O)N5C([H])([H])C([H])([H])C([H])([H])C([H])(n6nc(-c7c([H])c([H])c(Oc8c([H])c([H])c(F)c([H])c8F)c([H])c7[H])c(C(=O)N([H])[H])c6N([H])[H])C5([H])[H])C4([H])[H])C([H])([H])C3([H])[H])c([H])c([H])c2C1([H])[H]

> <Step>
188.0

> <Scaffold>
O=C(NC1CCCc2ccccc21)C1Cc2ccc(OCCN3CCC(NC4CN(C(=O)N5CCCC(n6ccc(-c7ccc(Oc8ccccc8)cc7)n6)C5)C4)CC3)cc2CN1

> <SMILES>
CNC(C)C(=O)NC(C(=O)N1Cc2cc(OCCN3CCC(NC4CN(C(=O)N5CCCC(n6nc(-c7ccc(Oc8ccc(F)cc8F)cc7)c(C(N)=O)c6N)C5)C4)CC3)ccc2CC1C(=O)NC1CCCc2ccccc21)C(C)(C)C

> <Tanimoto ROCS sim>
0.37089693546295166

> <Custom alerts>
1.0

> <Linker Num Aromatic Rings>
1.0

> <Linker Effective Length>
1.0

> <ADV>
0.9960686564445496

> <PostDock Tanimoto ROCS sim>
0.9890991449356079

> <raw_Linker Num Aromatic Rings>
0.0

> <raw_Linker Effective Length>
9.0

> <raw_ADV>
-14.614999771118164

> <total_score>
0.996291995048523

> <ID>
default_job_118

> <PostDock Tanimoto ROCS sim (re-score)>
0.98286515

> <raw_ADV (re-score)>
-14.614

$$$$
default_job_119
     RDKit          3D

 94102  0  0  1  0  0  0  0  0999 V2000
  -30.8060  -21.1310   18.9360 C   0  0  0  0  0  2  0  0  0  0  0  0
  -30.2120  -19.7170   19.1050 C   0  0  0  0  0  2  0  0  0  0  0  0
  -30.2180  -22.1870   19.8990 C   0  0  0  0  0  2  0  0  0  0  0  0
  -28.4710  -20.5740   20.7550 C   0  0  0  0  0  2  0  0  0  0  0  0
  -29.6070  -19.5110   20.5040 C   0  0  0  0  0  3  0  0  0  0  0  0
  -28.6980  -22.0180   20.1440 C   0  0  2  0  0  0  0  0  0  0  0  0
  -27.8890  -22.1490   18.8330 C   0  0  0  0  0  1  0  0  0  0  0  0
  -28.0830  -24.2920   21.0400 C   0  0  0  0  0  0  0  0  0  0  0  0
  -27.4970  -24.9990   22.2480 C   0  0  0  0  0  1  0  0  0  0  0  0
  -28.2060  -23.0040   21.1320 N   0  0  0  0  0  0  0  0  0  0  0  0
  -28.4310  -25.2550   19.8650 C   0  0  0  0  0  2  0  0  0  0  0  0
  -28.4020  -26.6800   20.1710 O   0  0  0  0  0  0  0  0  0  0  0  0
  -24.5850  -31.8970   23.2040 C   0  0  0  0  0  0  0  0  0  0  0  0
  -27.2230  -27.4150   20.1260 C   0  0  0  0  0  0  0  0  0  0  0  0
  -23.3820  -30.4880   21.5690 C   0  0  0  0  0  3  0  0  0  0  0  0
  -24.8350  -28.9530   20.1380 C   0  0  0  0  0  0  0  0  0  0  0  0
  -25.9120  -30.8370   21.3750 C   0  0  0  0  0  2  0  0  0  0  0  0
  -25.9960  -29.4660   20.7280 C   0  0  0  0  0  0  0  0  0  0  0  0
  -27.1900  -28.7050   20.7160 C   0  0  0  0  0  3  0  0  0  0  0  0
  -26.0370  -26.9260   19.5290 C   0  0  0  0  0  3  0  0  0  0  0  0
  -24.8530  -27.6850   19.5360 C   0  0  0  0  0  3  0  0  0  0  0  0
  -23.5940  -29.8160   20.1860 C   0  0  0  0  0  2  0  0  0  0  0  0
  -24.6470  -31.0860   22.1090 N   0  0  0  0  0  0  0  0  0  0  0  0
  -23.4980  -32.1920   23.7180 O   0  0  0  0  0  0  0  0  0  0  0  0
  -22.7330  -29.4630   22.5280 C   0  0  0  0  0  0  0  0  0  0  0  0
  -21.4070  -29.2830   22.4060 N   0  0  0  0  0  0  0  0  0  0  0  0
  -23.4180  -28.8320   23.3370 O   0  0  0  0  0  0  0  0  0  0  0  0
  -20.9160  -29.8460   21.7250 H   0  0  0  0  0  0  0  0  0  0  0  0
  -18.0300  -28.0990   22.9130 C   0  0  0  0  0  0  0  0  0  0  0  0
  -20.5910  -28.3410   23.1710 C   0  0  0  0  0  3  0  0  0  0  0  0
  -20.6820  -26.9160   22.5800 C   0  0  0  0  0  2  0  0  0  0  0  0
  -19.5730  -26.6090   21.5700 C   0  0  0  0  0  2  0  0  0  0  0  0
  -18.1960  -26.7540   22.2250 C   0  0  0  0  0  2  0  0  0  0  0  0
  -19.1560  -28.8500   23.3430 C   0  0  0  0  0  0  0  0  0  0  0  0
  -18.9490  -30.1090   23.9470 C   0  0  0  0  0  3  0  0  0  0  0  0
  -17.6480  -30.6150   24.1290 C   0  0  0  0  0  3  0  0  0  0  0  0
  -16.5370  -29.8610   23.7160 C   0  0  0  0  0  3  0  0  0  0  0  0
  -16.7280  -28.6060   23.1120 C   0  0  0  0  0  3  0  0  0  0  0  0
  -25.8710  -32.5170   23.8360 C   0  0  0  0  0  3  0  0  0  0  0  0
  -26.3910  -31.7350   25.1030 C   0  0  1  0  0  0  0  0  0  0  0  0
  -25.2990  -31.4860   26.1710 C   0  0  0  0  0  1  0  0  0  0  0  0
  -26.9790  -30.3640   24.6950 C   0  0  0  0  0  1  0  0  0  0  0  0
  -27.5390  -32.5250   25.7740 C   0  0  0  0  0  1  0  0  0  0  0  0
  -25.5640  -33.9110   24.1800 N   0  0  0  0  0  0  0  0  0  0  0  0
  -25.8810  -34.9690   23.4230 C   0  0  0  0  0  0  0  0  0  0  0  0
  -26.5380  -34.8740   22.3820 O   0  0  0  0  0  0  0  0  0  0  0  0
  -24.9780  -34.0590   24.9890 H   0  0  0  0  0  0  0  0  0  0  0  0
  -24.1350  -36.7500   23.1010 C   0  0  0  0  0  1  0  0  0  0  0  0
  -25.3890  -36.3510   23.8940 C   0  0  0  0  0  3  0  0  0  0  0  0
  -27.5280  -37.2480   24.7010 C   0  0  0  0  0  1  0  0  0  0  0  0
  -26.4140  -37.4110   23.7720 N   0  0  0  0  0  0  0  0  0  0  0  0
  -26.0030  -38.3280   23.9260 H   0  0  0  0  0  0  0  0  0  0  0  0
  -29.2140  -18.0160   20.7310 C   0  0  0  0  0  0  0  0  0  0  0  0
  -28.0350  -17.6640   20.6360 O   0  0  0  0  0  0  0  0  0  0  0  0
  -30.9360  -17.2230   22.4800 C   0  0  0  0  0  1  0  0  0  0  0  0
  -30.3370  -16.9890   21.0800 C   0  0  0  0  0  3  0  0  0  0  0  0
  -30.6280  -14.5330   20.5060 C   0  0  0  0  0  0  0  0  0  0  0  0
  -30.3610  -12.3510   19.3770 C   0  0  0  0  0  2  0  0  0  0  0  0
  -29.4290  -12.5290   18.1610 C   0  0  0  0  0  2  0  0  0  0  0  0
  -27.9500  -12.3960   18.5760 C   0  0  0  0  0  2  0  0  0  0  0  0
  -27.5990  -13.2450   19.8270 C   0  0  0  0  0  3  0  0  0  0  0  0
  -28.6420  -13.0410   20.9470 C   0  0  0  0  0  2  0  0  0  0  0  0
  -29.9660  -13.3490   20.3840 N   0  0  0  0  0  0  0  0  0  0  0  0
  -31.7780  -14.6940   20.0870 O   0  0  0  0  0  0  0  0  0  0  0  0
  -29.9000  -15.5760   20.9610 N   0  0  0  0  0  0  0  0  0  0  0  0
  -28.9330  -15.3960   21.1900 H   0  0  0  0  0  0  0  0  0  0  0  0
  -25.1990  -13.8620   20.5130 C   0  0  0  0  0  0  0  0  0  0  0  0
  -24.1250  -13.0940   20.8710 C   0  0  0  0  0  0  0  0  0  0  0  0
  -24.5810  -11.7410   20.8510 C   0  0  0  0  0  0  0  0  0  0  0  0
  -26.2420  -12.9760   20.2950 N   0  0  0  0  0  0  0  0  0  0  0  0
  -25.8750  -11.6960   20.5570 N   0  0  0  0  0  0  0  0  0  0  0  0
  -23.8500  -10.4810   21.0380 C   0  0  0  0  0  0  0  0  0  0  0  0
  -24.2630   -9.5200   21.9870 C   0  0  0  0  0  3  0  0  0  0  0  0
  -23.5320   -8.3260   22.1610 C   0  0  0  0  0  3  0  0  0  0  0  0
  -22.3710   -8.0840   21.3850 C   0  0  0  0  0  0  0  0  0  0  0  0
  -21.9780   -9.0340   20.4270 C   0  0  0  0  0  3  0  0  0  0  0  0
  -22.7100  -10.2200   20.2510 C   0  0  0  0  0  3  0  0  0  0  0  0
  -21.6130   -6.9420   21.4680 O   0  0  0  0  0  0  0  0  0  0  0  0
  -21.5400   -6.2080   22.6250 C   0  0  0  0  0  0  0  0  0  0  0  0
  -21.0870   -6.7710   23.8380 C   0  0  0  0  0  3  0  0  0  0  0  0
  -20.9620   -5.9630   24.9860 C   0  0  0  0  0  3  0  0  0  0  0  0
  -21.2800   -4.5940   24.9220 C   0  0  0  0  0  0  0  0  0  0  0  0
  -21.7270   -4.0300   23.7140 C   0  0  0  0  0  3  0  0  0  0  0  0
  -21.8540   -4.8350   22.5680 C   0  0  0  0  0  0  0  0  0  0  0  0
  -22.2640   -4.2830   21.4010 F   0  0  0  0  0  0  0  0  0  0  0  0
  -21.1520   -3.8150   26.0220 F   0  0  0  0  0  0  0  0  0  0  0  0
  -22.7270  -13.5780   21.1290 C   0  0  0  0  0  0  0  0  0  0  0  0
  -21.9860  -12.8810   21.9860 N   0  0  0  0  0  0  0  0  0  0  0  0
  -22.2980  -14.6050   20.6060 O   0  0  0  0  0  0  0  0  0  0  0  0
  -22.3460  -12.0500   22.4310 H   0  0  0  0  0  0  0  0  0  0  0  0
  -21.0480  -13.1860   22.2030 H   0  0  0  0  0  0  0  0  0  0  0  0
  -25.3690  -15.2330   20.3380 N   0  0  0  0  0  0  0  0  0  0  0  0
  -24.6050  -15.8890   20.4570 H   0  0  0  0  0  0  0  0  0  0  0  0
  -26.2380  -15.6890   20.0850 H   0  0  0  0  0  0  0  0  0  0  0  0
  1  2  1  0
  1  3  1  0
  2  5  1  0
  3  6  1  0
  5 53  1  0
  5  4  1  0
  6  7  1  6
  6  4  1  0
  6 10  1  0
  8 10  2  0
  8  9  1  0
 11 12  1  0
 11  8  1  0
 13 24  2  0
 14 12  1  0
 14 19  1  0
 15 23  1  0
 15 25  1  0
 16 22  1  0
 16 18  1  0
 17 23  1  0
 18 17  1  0
 19 18  2  0
 20 21  1  0
 20 14  2  0
 21 16  2  0
 22 15  1  0
 23 13  1  0
 25 27  2  0
 26 25  1  0
 28 26  1  0
 29 38  2  0
 29 34  1  0
 30 26  1  0
 30 34  1  0
 31 30  1  0
 32 33  1  0
 32 31  1  0
 33 29  1  0
 34 35  2  0
 35 36  1  0
 37 36  2  0
 38 37  1  0
 39 13  1  0
 39 44  1  0
 39 40  1  0
 40 43  1  1
 40 41  1  0
 42 40  1  0
 44 47  1  0
 45 49  1  0
 45 44  1  0
 46 45  2  0
 49 48  1  0
 51 49  1  0
 51 52  1  0
 51 50  1  0
 53 56  1  0
 54 53  2  0
 56 55  1  0
 57 65  1  0
 58 63  1  0
 59 60  1  0
 59 58  1  0
 61 60  1  0
 61 70  1  0
 61 62  1  0
 63 57  1  0
 63 62  1  0
 64 57  2  0
 65 56  1  0
 65 66  1  0
 67 68  2  0
 68 87  1  0
 69 68  1  0
 69 72  1  0
 70 67  1  0
 70 71  1  0
 71 69  2  0
 72 73  1  0
 73 74  2  0
 75 78  1  0
 75 74  1  0
 76 75  2  0
 77 76  1  0
 77 72  2  0
 78 79  1  0
 79 80  1  0
 80 81  2  0
 82 81  1  0
 82 86  1  0
 83 82  2  0
 84 79  2  0
 84 83  1  0
 85 84  1  0
 87 88  1  0
 88 91  1  0
 88 90  1  0
 89 87  2  0
 92 93  1  0
 92 67  1  0
 94 92  1  0
M  ISO  4  11 101  12 101  57 100  65 100
M  END
>  <TORSDO>  (20) 
F 20

>  <SCORE>  (20) 
-14.14

>  <name>  (20) 
19

>  <ligand_id>  (20) 
19

>  <original_smiles>  (20) 
[H]c1c([H])c([H])c2c(c1[H])C([H])([H])C([H])([H])C([H])([H])C2([H])N([H])C(=O)C1([H])N(C(=O)C([H])(N([H])C(=O)C([H])(N([H])C([H])([H])[H])C([H])([H])[H])C(C([H])([H])[H])(C([H])([H])[H])C([H])([H])[H])C([H])([H])c2c([H])c(OC([H])([H])C(=NC3(C([H])([H])[H])C([H])([H])C([H])([H])C([H])([H])C([H])(C(=O)C([H])(N([H])C(=O)N4C([H])([H])C([H])([H])C([H])([H])C([H])(n5nc(-c6c([H])c([H])c(Oc7c([H])c([H])c(F)c([H])c7F)c([H])c6[H])c(C(=O)N([H])[H])c5N([H])[H])C4([H])[H])C([H])([H])[H])C3([H])[H])C([H])([H])[H])c([H])c([H])c2C1([H])[H]

>  <smiles>  (20) 
[H]c1c([H])c([H])c2c(c1[H])C([H])([H])C([H])([H])C([H])([H])C2([H])N([H])C(=O)C1([H])N(C(=O)C([H])(N([H])C(=O)C([H])(N([H])C([H])([H])[H])C([H])([H])[H])C(C([H])([H])[H])(C([H])([H])[H])C([H])([H])[H])C([H])([H])c2c([H])c(OC([H])([H])C(=NC3(C([H])([H])[H])C([H])([H])C([H])([H])C([H])([H])C([H])(C(=O)C([H])(N([H])C(=O)N4C([H])([H])C([H])([H])C([H])([H])C([H])(n5nc(-c6c([H])c([H])c(Oc7c([H])c([H])c(F)c([H])c7F)c([H])c6[H])c(C(=O)N([H])[H])c5N([H])[H])C4([H])[H])C([H])([H])[H])C3([H])[H])C([H])([H])[H])c([H])c([H])c2C1([H])[H]

> <Step>
113.0

> <Scaffold>
C=C(COc1ccc2c(c1)CNC(C(=O)NC1CCCc3ccccc31)C2)NC1CCCC(C(=O)CNC(=O)N2CCCC(n3ccc(-c4ccc(Oc5ccccc5)cc4)n3)C2)C1

> <SMILES>
C=C(COc1ccc2c(c1)CN(C(=O)C(NC(=O)C(C)NC)C(C)(C)C)C(C(=O)NC1CCCc3ccccc31)C2)NC1(C)CCCC(C(=O)C(C)NC(=O)N2CCCC(n3nc(-c4ccc(Oc5ccc(F)cc5F)cc4)c(C(N)=O)c3N)C2)C1

> <Tanimoto ROCS sim>
0.18544207513332367

> <Custom alerts>
1.0

> <Linker Num Aromatic Rings>
1.0

> <Linker Effective Length>
1.0

> <ADV>
0.9949700832366943

> <PostDock Tanimoto ROCS sim>
0.9901808500289917

> <raw_Linker Num Aromatic Rings>
0.0

> <raw_Linker Effective Length>
8.0

> <raw_ADV>
-14.1850004196167

> <total_score>
0.9962877035140991

> <ID>
default_job_119

> <PostDock Tanimoto ROCS sim (re-score)>
0.9819841

> <raw_ADV (re-score)>
-14.14

$$$$
default_job_120
     RDKit          3D

 94103  0  0  1  0  0  0  0  0999 V2000
  -29.4620  -18.2580   20.3560 C   0  0  0  0  0  0  0  0  0  0  0  0
  -32.1080  -20.1080   21.2180 C   0  0  0  0  0  2  0  0  0  0  0  0
  -31.2290  -21.3490   21.0350 C   0  0  0  0  0  2  0  0  0  0  0  0
  -31.4170  -17.5950   21.6460 C   0  0  0  0  0  2  0  0  0  0  0  0
  -30.4510  -17.0890   20.5700 C   0  0  0  0  0  3  0  0  0  0  0  0
  -31.1030  -19.1010   21.7740 C   0  0  0  0  0  3  0  0  0  0  0  0
  -29.8270  -20.8200   20.6340 C   0  0  0  0  0  3  0  0  0  0  0  0
  -29.9140  -19.3700   20.9800 N   0  0  0  0  0  0  0  0  0  0  0  0
  -28.4760  -18.1830   19.6200 O   0  0  0  0  0  0  0  0  0  0  0  0
  -30.6580  -14.5830   20.4120 C   0  0  0  0  0  0  0  0  0  0  0  0
  -30.3490  -12.3880   19.3270 C   0  0  0  0  0  2  0  0  0  0  0  0
  -29.4200  -12.5720   18.1110 C   0  0  0  0  0  2  0  0  0  0  0  0
  -27.9400  -12.4550   18.5300 C   0  0  0  0  0  2  0  0  0  0  0  0
  -27.5970  -13.2860   19.7990 C   0  0  0  0  0  3  0  0  0  0  0  0
  -28.6590  -13.1120   20.9080 C   0  0  0  0  0  2  0  0  0  0  0  0
  -29.9740  -13.4070   20.3230 N   0  0  0  0  0  0  0  0  0  0  0  0
  -31.8130  -14.6900   20.0000 O   0  0  0  0  0  0  0  0  0  0  0  0
  -29.9600  -15.6920   20.7690 N   0  0  0  0  0  0  0  0  0  0  0  0
  -28.9990  -15.5760   21.0480 H   0  0  0  0  0  0  0  0  0  0  0  0
  -25.2030  -13.8710   20.5270 C   0  0  0  0  0  0  0  0  0  0  0  0
  -24.1420  -13.0950   20.9010 C   0  0  0  0  0  0  0  0  0  0  0  0
  -24.6090  -11.7440   20.8680 C   0  0  0  0  0  0  0  0  0  0  0  0
  -26.2510  -12.9970   20.2860 N   0  0  0  0  0  0  0  0  0  0  0  0
  -25.8980  -11.7120   20.5510 N   0  0  0  0  0  0  0  0  0  0  0  0
  -23.8870  -10.4800   21.0620 C   0  0  0  0  0  0  0  0  0  0  0  0
  -24.3320   -9.5070   21.9840 C   0  0  0  0  0  3  0  0  0  0  0  0
  -23.6100   -8.3080   22.1660 C   0  0  0  0  0  3  0  0  0  0  0  0
  -22.4260   -8.0730   21.4260 C   0  0  0  0  0  0  0  0  0  0  0  0
  -22.0000   -9.0350   20.4940 C   0  0  0  0  0  3  0  0  0  0  0  0
  -22.7230  -10.2260   20.3100 C   0  0  0  0  0  3  0  0  0  0  0  0
  -21.6740   -6.9280   21.5190 O   0  0  0  0  0  0  0  0  0  0  0  0
  -21.6490   -6.1720   22.6640 C   0  0  0  0  0  0  0  0  0  0  0  0
  -21.2540   -6.7140   23.9070 C   0  0  0  0  0  3  0  0  0  0  0  0
  -21.1760   -5.8860   25.0430 C   0  0  0  0  0  3  0  0  0  0  0  0
  -21.4840   -4.5150   24.9390 C   0  0  0  0  0  0  0  0  0  0  0  0
  -21.8710   -3.9720   23.7020 C   0  0  0  0  0  3  0  0  0  0  0  0
  -21.9500   -4.7990   22.5670 C   0  0  0  0  0  0  0  0  0  0  0  0
  -22.3040   -4.2650   21.3720 F   0  0  0  0  0  0  0  0  0  0  0  0
  -21.4020   -3.7180   26.0290 F   0  0  0  0  0  0  0  0  0  0  0  0
  -22.7440  -13.5680   21.1800 C   0  0  0  0  0  0  0  0  0  0  0  0
  -22.0190  -12.8720   22.0460 N   0  0  0  0  0  0  0  0  0  0  0  0
  -22.3030  -14.5940   20.6610 O   0  0  0  0  0  0  0  0  0  0  0  0
  -22.3870  -12.0430   22.4900 H   0  0  0  0  0  0  0  0  0  0  0  0
  -21.0810  -13.1730   22.2720 H   0  0  0  0  0  0  0  0  0  0  0  0
  -25.3590  -15.2440   20.3460 N   0  0  0  0  0  0  0  0  0  0  0  0
  -24.5820  -15.8870   20.4640 H   0  0  0  0  0  0  0  0  0  0  0  0
  -26.1950  -15.6960   19.9980 H   0  0  0  0  0  0  0  0  0  0  0  0
  -28.6370  -21.6010   21.2900 C   0  0  0  0  0  2  0  0  0  0  0  0
  -28.8620  -23.0720   21.5200 N   0  0  0  0  0  4  0  0  0  0  0  0
  -28.3580  -23.2760   22.3710 H   0  0  0  0  0  0  0  0  0  0  0  0
  -29.8380  -23.2100   21.7370 H   0  0  0  0  0  0  0  0  0  0  0  0
  -28.4230  -24.1050   20.5260 C   0  0  0  0  0  2  0  0  0  0  0  0
  -28.4300  -25.5460   21.1460 C   0  0  0  0  0  2  0  0  0  0  0  0
  -28.4010  -26.6620   20.2240 O   0  0  0  0  0  0  0  0  0  0  0  0
  -24.6040  -31.9170   23.2580 C   0  0  0  0  0  0  0  0  0  0  0  0
  -27.2520  -27.4250   20.2390 C   0  0  0  0  0  0  0  0  0  0  0  0
  -23.4070  -30.4950   21.6270 C   0  0  0  0  0  3  0  0  0  0  0  0
  -24.8660  -28.9470   20.2170 C   0  0  0  0  0  0  0  0  0  0  0  0
  -25.9320  -30.8550   21.4320 C   0  0  0  0  0  2  0  0  0  0  0  0
  -26.0220  -29.4730   20.8100 C   0  0  0  0  0  0  0  0  0  0  0  0
  -27.2210  -28.7210   20.8150 C   0  0  0  0  0  3  0  0  0  0  0  0
  -26.0830  -26.9150   19.6410 C   0  0  0  0  0  3  0  0  0  0  0  0
  -24.8940  -27.6700   19.6270 C   0  0  0  0  0  3  0  0  0  0  0  0
  -23.6210  -29.8060   20.2510 C   0  0  0  0  0  2  0  0  0  0  0  0
  -24.6690  -31.1000   22.1690 N   0  0  0  0  0  0  0  0  0  0  0  0
  -23.5160  -32.2130   23.7710 O   0  0  0  0  0  0  0  0  0  0  0  0
  -22.7520  -29.4820   22.5950 C   0  0  0  0  0  0  0  0  0  0  0  0
  -21.4280  -29.2930   22.4580 N   0  0  0  0  0  0  0  0  0  0  0  0
  -23.4290  -28.8670   23.4220 O   0  0  0  0  0  0  0  0  0  0  0  0
  -20.9440  -29.8390   21.7590 H   0  0  0  0  0  0  0  0  0  0  0  0
  -18.0570  -28.0790   22.9270 C   0  0  0  0  0  0  0  0  0  0  0  0
  -20.6090  -28.3570   23.2270 C   0  0  0  0  0  3  0  0  0  0  0  0
  -20.7310  -26.9220   22.6640 C   0  0  0  0  0  2  0  0  0  0  0  0
  -19.6420  -26.5820   21.6420 C   0  0  0  0  0  2  0  0  0  0  0  0
  -18.2510  -26.7230   22.2680 C   0  0  0  0  0  2  0  0  0  0  0  0
  -19.1650  -28.8510   23.3650 C   0  0  0  0  0  0  0  0  0  0  0  0
  -18.9320  -30.1190   23.9410 C   0  0  0  0  0  3  0  0  0  0  0  0
  -17.6220  -30.6120   24.0870 C   0  0  0  0  0  3  0  0  0  0  0  0
  -16.5280  -29.8370   23.6670 C   0  0  0  0  0  3  0  0  0  0  0  0
  -16.7470  -28.5720   23.0930 C   0  0  0  0  0  3  0  0  0  0  0  0
  -25.8880  -32.5450   23.8900 C   0  0  0  0  0  3  0  0  0  0  0  0
  -26.3990  -31.7750   25.1690 C   0  0  1  0  0  0  0  0  0  0  0  0
  -25.3020  -31.5400   26.2320 C   0  0  0  0  0  1  0  0  0  0  0  0
  -26.9840  -30.3980   24.7780 C   0  0  0  0  0  1  0  0  0  0  0  0
  -27.5470  -32.5710   25.8340 C   0  0  0  0  0  1  0  0  0  0  0  0
  -25.5790  -33.9420   24.2150 N   0  0  0  0  0  0  0  0  0  0  0  0
  -25.9050  -34.9910   23.4490 C   0  0  0  0  0  0  0  0  0  0  0  0
  -26.5730  -34.8840   22.4170 O   0  0  0  0  0  0  0  0  0  0  0  0
  -24.9820  -34.1050   25.0130 H   0  0  0  0  0  0  0  0  0  0  0  0
  -24.1670  -36.7730   23.0940 C   0  0  0  0  0  1  0  0  0  0  0  0
  -25.4140  -36.3790   23.9000 C   0  0  0  0  0  3  0  0  0  0  0  0
  -27.5480  -37.2780   24.7130 C   0  0  0  0  0  1  0  0  0  0  0  0
  -26.4410  -37.4360   23.7730 N   0  0  0  0  0  0  0  0  0  0  0  0
  -26.0340  -38.3560   23.9160 H   0  0  0  0  0  0  0  0  0  0  0  0
  1  5  1  0
  1  8  1  0
  3  2  1  0
  4  6  1  0
  5 18  1  0
  5  4  1  0
  6  2  1  0
  7  8  1  0
  7  3  1  0
  7 48  1  0
  8  6  1  0
  9  1  2  0
 10 18  1  0
 11 16  1  0
 12 13  1  0
 12 11  1  0
 14 13  1  0
 14 23  1  0
 14 15  1  0
 16 10  1  0
 16 15  1  0
 17 10  2  0
 18 19  1  0
 20 21  2  0
 21 40  1  0
 22 21  1  0
 22 25  1  0
 23 20  1  0
 23 24  1  0
 24 22  2  0
 25 26  1  0
 26 27  2  0
 28 31  1  0
 28 27  1  0
 29 28  2  0
 30 29  1  0
 30 25  2  0
 31 32  1  0
 32 33  1  0
 33 34  2  0
 35 34  1  0
 35 39  1  0
 36 35  2  0
 37 32  2  0
 37 36  1  0
 38 37  1  0
 40 41  1  0
 41 44  1  0
 41 43  1  0
 42 40  2  0
 45 46  1  0
 45 20  1  0
 47 45  1  0
 48 49  1  0
 49 51  1  0
 49 50  1  0
 52 53  1  0
 52 49  1  0
 54 56  1  0
 54 53  1  0
 55 66  2  0
 56 61  1  0
 57 65  1  0
 57 67  1  0
 58 64  1  0
 58 60  1  0
 59 65  1  0
 60 61  2  0
 60 59  1  0
 62 56  2  0
 63 62  1  0
 63 58  2  0
 64 57  1  0
 65 55  1  0
 67 69  2  0
 68 67  1  0
 70 68  1  0
 71 80  2  0
 71 76  1  0
 72 68  1  0
 72 76  1  0
 73 72  1  0
 74 75  1  0
 74 73  1  0
 75 71  1  0
 76 77  2  0
 77 78  1  0
 79 78  2  0
 80 79  1  0
 81 55  1  0
 81 86  1  0
 81 82  1  0
 82 85  1  1
 82 83  1  0
 84 82  1  0
 86 89  1  0
 87 91  1  0
 87 86  1  0
 88 87  2  0
 91 90  1  0
 93 91  1  0
 93 94  1  0
 93 92  1  0
M  ISO  4  10 100  18 100  53 101  54 101
M  END
>  <TORSDO>  (21) 
F 20

>  <SCORE>  (21) 
-14.233

>  <name>  (21) 
20

>  <ligand_id>  (21) 
20

>  <original_smiles>  (21) 
[H]c1c([H])c([H])c2c(c1[H])C([H])([H])C([H])([H])C([H])([H])C2([H])N([H])C(=O)C1([H])N(C(=O)C([H])(N([H])C(=O)C([H])(N([H])C([H])([H])[H])C([H])([H])[H])C(C([H])([H])[H])(C([H])([H])[H])C([H])([H])[H])C([H])([H])c2c([H])c(OC([H])([H])C([H])([H])[N+]([H])([H])C([H])([H])C3([H])N4C(=O)C([H])(N([H])C(=O)N5C([H])([H])C([H])([H])C([H])([H])C([H])(n6nc(-c7c([H])c([H])c(Oc8c([H])c([H])c(F)c([H])c8F)c([H])c7[H])c(C(=O)N([H])[H])c6N([H])[H])C5([H])[H])C([H])([H])C4([H])C([H])([H])C3([H])[H])c([H])c([H])c2C1([H])[H]

>  <smiles>  (21) 
[H]c1c([H])c([H])c2c(c1[H])C([H])([H])C([H])([H])C([H])([H])C2([H])N([H])C(=O)C1([H])N(C(=O)C([H])(N([H])C(=O)C([H])(N([H])C([H])([H])[H])C([H])([H])[H])C(C([H])([H])[H])(C([H])([H])[H])C([H])([H])[H])C([H])([H])c2c([H])c(OC([H])([H])C([H])([H])[N+]([H])([H])C([H])([H])C3([H])N4C(=O)C([H])(N([H])C(=O)N5C([H])([H])C([H])([H])C([H])([H])C([H])(n6nc(-c7c([H])c([H])c(Oc8c([H])c([H])c(F)c([H])c8F)c([H])c7[H])c(C(=O)N([H])[H])c6N([H])[H])C5([H])[H])C([H])([H])C4([H])C([H])([H])C3([H])[H])c([H])c([H])c2C1([H])[H]

> <Step>
193.0

> <Scaffold>
O=C(NC1CCCc2ccccc21)C1Cc2ccc(OCCNCC3CCC4CC(NC(=O)N5CCCC(n6ccc(-c7ccc(Oc8ccccc8)cc7)n6)C5)C(=O)N34)cc2CN1

> <SMILES>
CNC(C)C(=O)NC(C(=O)N1Cc2cc(OCCNCC3CCC4CC(NC(=O)N5CCCC(n6nc(-c7ccc(Oc8ccc(F)cc8F)cc7)c(C(N)=O)c6N)C5)C(=O)N34)ccc2CC1C(=O)NC1CCCc2ccccc21)C(C)(C)C

> <Tanimoto ROCS sim>
0.23050187528133392

> <Custom alerts>
1.0

> <Linker Num Aromatic Rings>
1.0

> <Linker Effective Length>
1.0

> <ADV>
0.9951344728469849

> <PostDock Tanimoto ROCS sim>
0.9899964332580566

> <raw_Linker Num Aromatic Rings>
0.0

> <raw_Linker Effective Length>
8.0

> <raw_ADV>
-14.243000030517578

> <total_score>
0.996282696723938

> <ID>
default_job_120

> <PostDock Tanimoto ROCS sim (re-score)>
0.9831527

> <raw_ADV (re-score)>
-14.233

$$$$
default_job_121
     RDKit          3D

 92100  0  0  1  0  0  0  0  0999 V2000
  -29.5690  -22.0430   22.6720 C   0  0  0  0  0  1  0  0  0  0  0  0
  -29.7100  -21.9300   21.1420 C   0  0  0  0  0  3  0  0  0  0  0  0
  -28.8720  -22.9520   20.5010 N   0  0  0  0  0  0  0  0  0  0  0  0
  -27.9220  -22.8690   20.8510 H   0  0  0  0  0  0  0  0  0  0  0  0
  -29.3000  -24.3560   20.6300 C   0  0  0  0  0  2  0  0  0  0  0  0
  -28.1920  -25.2550   20.0300 C   0  0  0  0  0  2  0  0  0  0  0  0
  -28.3640  -26.6760   20.2200 O   0  0  0  0  0  0  0  0  0  0  0  0
  -24.5980  -31.9200   23.2570 C   0  0  0  0  0  0  0  0  0  0  0  0
  -27.2080  -27.4420   20.1740 C   0  0  0  0  0  0  0  0  0  0  0  0
  -23.3810  -30.5170   21.6280 C   0  0  0  0  0  3  0  0  0  0  0  0
  -24.8240  -28.9810   20.1910 C   0  0  0  0  0  0  0  0  0  0  0  0
  -25.9120  -30.8580   21.4260 C   0  0  0  0  0  2  0  0  0  0  0  0
  -25.9880  -29.4890   20.7800 C   0  0  0  0  0  0  0  0  0  0  0  0
  -27.1830  -28.7280   20.7700 C   0  0  0  0  0  3  0  0  0  0  0  0
  -26.0230  -26.9680   19.5590 C   0  0  0  0  0  3  0  0  0  0  0  0
  -24.8380  -27.7210   19.5780 C   0  0  0  0  0  3  0  0  0  0  0  0
  -23.5830  -29.8440   20.2440 C   0  0  0  0  0  2  0  0  0  0  0  0
  -24.6500  -31.1100   22.1630 N   0  0  0  0  0  0  0  0  0  0  0  0
  -23.5140  -32.2180   23.7790 O   0  0  0  0  0  0  0  0  0  0  0  0
  -22.7300  -29.4950   22.5880 C   0  0  0  0  0  0  0  0  0  0  0  0
  -21.4060  -29.3090   22.4600 N   0  0  0  0  0  0  0  0  0  0  0  0
  -23.4140  -28.8730   23.4050 O   0  0  0  0  0  0  0  0  0  0  0  0
  -20.9160  -29.8650   21.7720 H   0  0  0  0  0  0  0  0  0  0  0  0
  -18.0340  -28.1080   22.9500 C   0  0  0  0  0  0  0  0  0  0  0  0
  -20.5900  -28.3720   23.2320 C   0  0  0  0  0  3  0  0  0  0  0  0
  -20.6980  -26.9390   22.6630 C   0  0  0  0  0  2  0  0  0  0  0  0
  -19.6010  -26.6100   21.6450 C   0  0  0  0  0  2  0  0  0  0  0  0
  -18.2170  -26.7560   22.2830 C   0  0  0  0  0  2  0  0  0  0  0  0
  -19.1490  -28.8740   23.3820 C   0  0  0  0  0  0  0  0  0  0  0  0
  -18.9260  -30.1400   23.9640 C   0  0  0  0  0  3  0  0  0  0  0  0
  -17.6190  -30.6400   24.1220 C   0  0  0  0  0  3  0  0  0  0  0  0
  -16.5180  -29.8700   23.7090 C   0  0  0  0  0  3  0  0  0  0  0  0
  -16.7260  -28.6070   23.1280 C   0  0  0  0  0  3  0  0  0  0  0  0
  -25.8900  -32.5390   23.8790 C   0  0  0  0  0  3  0  0  0  0  0  0
  -25.5920  -33.9400   24.2070 N   0  0  0  0  0  0  0  0  0  0  0  0
  -25.9220  -34.9860   23.4390 C   0  0  0  0  0  0  0  0  0  0  0  0
  -26.5820  -34.8720   22.4020 O   0  0  0  0  0  0  0  0  0  0  0  0
  -25.0060  -34.1010   25.0130 H   0  0  0  0  0  0  0  0  0  0  0  0
  -24.1940  -36.7800   23.0880 C   0  0  0  0  0  1  0  0  0  0  0  0
  -25.4410  -36.3780   23.8920 C   0  0  0  0  0  3  0  0  0  0  0  0
  -27.5840  -37.2580   24.7010 C   0  0  0  0  0  1  0  0  0  0  0  0
  -26.4760  -37.4260   23.7650 N   0  0  0  0  0  0  0  0  0  0  0  0
  -26.0740  -38.3490   23.9130 H   0  0  0  0  0  0  0  0  0  0  0  0
  -26.4050  -31.7660   25.1540 C   0  0  1  0  0  0  0  0  0  0  0  0
  -25.3130  -31.5360   26.2240 C   0  0  0  0  0  1  0  0  0  0  0  0
  -26.9820  -30.3860   24.7620 C   0  0  0  0  0  1  0  0  0  0  0  0
  -27.5610  -32.5530   25.8130 C   0  0  0  0  0  1  0  0  0  0  0  0
  -29.2470  -20.5320   20.6210 C   0  0  0  0  0  2  0  0  0  0  0  0
  -30.0420  -19.3810   21.1300 N   0  0  0  0  0  4  0  0  0  0  0  0
  -31.0030  -19.5030   20.8520 H   0  0  0  0  0  0  0  0  0  0  0  0
  -30.0080  -19.4070   22.1360 H   0  0  0  0  0  0  0  0  0  0  0  0
  -30.6640  -14.5380   20.5060 C   0  0  0  0  0  0  0  0  0  0  0  0
  -30.3850  -12.3330   19.4690 C   0  0  0  0  0  2  0  0  0  0  0  0
  -29.4740  -12.5060   18.2360 C   0  0  0  0  0  2  0  0  0  0  0  0
  -27.9900  -12.3760   18.6350 C   0  0  0  0  0  2  0  0  0  0  0  0
  -27.6160  -13.2330   19.8730 C   0  0  0  0  0  3  0  0  0  0  0  0
  -28.6580  -13.0910   21.0060 C   0  0  0  0  0  2  0  0  0  0  0  0
  -29.9870  -13.3610   20.4370 N   0  0  0  0  0  0  0  0  0  0  0  0
  -31.8690  -14.6360   20.2590 O   0  0  0  0  0  0  0  0  0  0  0  0
  -29.7860  -17.7400   19.2180 C   0  0  0  0  0  2  0  0  0  0  0  0
  -29.5660  -16.2260   19.1620 C   0  0  0  0  0  2  0  0  0  0  0  0
  -30.1960  -16.8170   21.3600 C   0  0  0  0  0  2  0  0  0  0  0  0
  -29.5500  -18.0460   20.6850 C   0  0  0  0  0  3  0  0  0  0  0  0
  -29.8930  -15.6580   20.4910 N   0  0  0  0  0  0  0  0  0  0  0  0
  -25.2090  -13.8590   20.5200 C   0  0  0  0  0  0  0  0  0  0  0  0
  -24.1300  -13.0930   20.8690 C   0  0  0  0  0  0  0  0  0  0  0  0
  -24.5910  -11.7410   20.8700 C   0  0  0  0  0  0  0  0  0  0  0  0
  -26.2570  -12.9690   20.3310 N   0  0  0  0  0  0  0  0  0  0  0  0
  -25.8880  -11.6920   20.5990 N   0  0  0  0  0  0  0  0  0  0  0  0
  -23.8590  -10.4820   21.0550 C   0  0  0  0  0  0  0  0  0  0  0  0
  -24.2800   -9.5170   21.9980 C   0  0  0  0  0  3  0  0  0  0  0  0
  -23.5510   -8.3230   22.1710 C   0  0  0  0  0  3  0  0  0  0  0  0
  -22.3860   -8.0840   21.4030 C   0  0  0  0  0  0  0  0  0  0  0  0
  -21.9850   -9.0370   20.4500 C   0  0  0  0  0  3  0  0  0  0  0  0
  -22.7150  -10.2240   20.2750 C   0  0  0  0  0  3  0  0  0  0  0  0
  -21.6290   -6.9400   21.4870 O   0  0  0  0  0  0  0  0  0  0  0  0
  -21.5770   -6.1950   22.6370 C   0  0  0  0  0  0  0  0  0  0  0  0
  -21.1580   -6.7500   23.8660 C   0  0  0  0  0  3  0  0  0  0  0  0
  -21.0520   -5.9310   25.0080 C   0  0  0  0  0  3  0  0  0  0  0  0
  -21.3550   -4.5590   24.9230 C   0  0  0  0  0  0  0  0  0  0  0  0
  -21.7680   -4.0030   23.6980 C   0  0  0  0  0  3  0  0  0  0  0  0
  -21.8750   -4.8200   22.5590 C   0  0  0  0  0  0  0  0  0  0  0  0
  -22.2540   -4.2750   21.3760 F   0  0  0  0  0  0  0  0  0  0  0  0
  -21.2460   -3.7710   26.0170 F   0  0  0  0  0  0  0  0  0  0  0  0
  -22.7270  -13.5760   21.0960 C   0  0  0  0  0  0  0  0  0  0  0  0
  -21.9750  -12.8920   21.9520 N   0  0  0  0  0  0  0  0  0  0  0  0
  -22.3050  -14.5930   20.5490 O   0  0  0  0  0  0  0  0  0  0  0  0
  -22.3280  -12.0700   22.4180 H   0  0  0  0  0  0  0  0  0  0  0  0
  -21.0310  -13.1960   22.1430 H   0  0  0  0  0  0  0  0  0  0  0  0
  -25.3810  -15.2270   20.3280 N   0  0  0  0  0  0  0  0  0  0  0  0
  -24.6150  -15.8860   20.4140 H   0  0  0  0  0  0  0  0  0  0  0  0
  -26.2480  -15.6610   20.0400 H   0  0  0  0  0  0  0  0  0  0  0  0
  2  1  1  0
  3  5  1  0
  3  4  1  0
  3  2  1  0
  6  7  1  0
  6  5  1  0
  8 19  2  0
  9  7  1  0
  9 14  1  0
 10 18  1  0
 10 20  1  0
 11 17  1  0
 11 13  1  0
 12 18  1  0
 13 12  1  0
 14 13  2  0
 15 16  1  0
 15  9  2  0
 16 11  2  0
 17 10  1  0
 18  8  1  0
 20 22  2  0
 21 20  1  0
 23 21  1  0
 24 33  2  0
 24 29  1  0
 25 21  1  0
 25 29  1  0
 26 25  1  0
 27 28  1  0
 27 26  1  0
 28 24  1  0
 29 30  2  0
 30 31  1  0
 32 31  2  0
 33 32  1  0
 34  8  1  0
 34 35  1  0
 34 44  1  0
 35 38  1  0
 36 40  1  0
 36 35  1  0
 37 36  2  0
 40 39  1  0
 42 40  1  0
 42 43  1  0
 42 41  1  0
 44 47  1  1
 44 45  1  0
 46 44  1  0
 48 49  1  0
 48  2  1  0
 49 51  1  0
 50 49  1  0
 53 58  1  0
 54 55  1  0
 54 53  1  0
 56 55  1  0
 56 68  1  0
 56 57  1  0
 58 52  1  0
 58 57  1  0
 59 52  2  0
 60 63  1  0
 61 60  1  0
 61 64  1  0
 63 49  1  0
 63 62  1  0
 64 52  1  0
 64 62  1  0
 65 66  2  0
 66 67  1  0
 66 85  1  0
 67 70  1  0
 68 65  1  0
 68 69  1  0
 69 67  2  0
 70 71  1  0
 71 72  2  0
 73 76  1  0
 73 72  1  0
 74 73  2  0
 75 74  1  0
 75 70  2  0
 76 77  1  0
 77 78  1  0
 78 79  2  0
 80 79  1  0
 80 84  1  0
 81 80  2  0
 82 77  2  0
 82 81  1  0
 83 82  1  0
 85 86  1  0
 86 89  1  0
 86 88  1  0
 87 85  2  0
 90 91  1  0
 90 65  1  0
 92 90  1  0
M  ISO  4   6 101   7 101  52 100  64 100
M  END
>  <TORSDO>  (22) 
F 21

>  <SCORE>  (22) 
-13.692

>  <name>  (22) 
21

>  <ligand_id>  (22) 
21

>  <original_smiles>  (22) 
[H]c1c([H])c([H])c2c(c1[H])C([H])([H])C([H])([H])C([H])([H])C2([H])N([H])C(=O)C1([H])N(C(=O)C([H])(N([H])C(=O)C([H])(N([H])C([H])([H])[H])C([H])([H])[H])C(C([H])([H])[H])(C([H])([H])[H])C([H])([H])[H])C([H])([H])c2c([H])c(OC([H])([H])C([H])([H])N([H])C([H])(C([H])([H])[H])C([H])([H])[N+]([H])([H])C3([H])C([H])([H])N(C(=O)N4C([H])([H])C([H])([H])C([H])([H])C([H])(n5nc(-c6c([H])c([H])c(Oc7c([H])c([H])c(F)c([H])c7F)c([H])c6[H])c(C(=O)N([H])[H])c5N([H])[H])C4([H])[H])C([H])([H])C3([H])[H])c([H])c([H])c2C1([H])[H]

>  <smiles>  (22) 
[H]c1c([H])c([H])c2c(c1[H])C([H])([H])C([H])([H])C([H])([H])C2([H])N([H])C(=O)C1([H])N(C(=O)C([H])(N([H])C(=O)C([H])(N([H])C([H])([H])[H])C([H])([H])[H])C(C([H])([H])[H])(C([H])([H])[H])C([H])([H])[H])C([H])([H])c2c([H])c(OC([H])([H])C([H])([H])N([H])C([H])(C([H])([H])[H])C([H])([H])[N+]([H])([H])C3([H])C([H])([H])N(C(=O)N4C([H])([H])C([H])([H])C([H])([H])C([H])(n5nc(-c6c([H])c([H])c(Oc7c([H])c([H])c(F)c([H])c7F)c([H])c6[H])c(C(=O)N([H])[H])c5N([H])[H])C4([H])[H])C([H])([H])C3([H])[H])c([H])c([H])c2C1([H])[H]

> <Step>
188.0

> <Scaffold>
O=C(NC1CCCc2ccccc21)C1Cc2ccc(OCCNCCNC3CCN(C(=O)N4CCCC(n5ccc(-c6ccc(Oc7ccccc7)cc6)n5)C4)C3)cc2CN1

> <SMILES>
CNC(C)C(=O)NC(C(=O)N1Cc2cc(OCCNC(C)CNC3CCN(C(=O)N4CCCC(n5nc(-c6ccc(Oc7ccc(F)cc7F)cc6)c(C(N)=O)c5N)C4)C3)ccc2CC1C(=O)NC1CCCc2ccccc21)C(C)(C)C

> <Tanimoto ROCS sim>
0.23790132999420166

> <Custom alerts>
1.0

> <Linker Num Aromatic Rings>
1.0

> <Linker Effective Length>
1.0

> <ADV>
0.9934514164924622

> <PostDock Tanimoto ROCS sim>
0.991582989692688

> <raw_Linker Num Aromatic Rings>
0.0

> <raw_Linker Effective Length>
8.0

> <raw_ADV>
-13.723999977111816

> <total_score>
0.9962586164474487

> <ID>
default_job_121

> <PostDock Tanimoto ROCS sim (re-score)>
0.9834528

> <raw_ADV (re-score)>
-13.692

$$$$
default_job_122
     RDKit          3D

 95104  0  0  1  0  0  0  0  0999 V2000
  -28.8970  -21.7400   20.8130 C   0  0  0  0  0  3  0  0  0  0  0  0
  -29.6000  -20.6420   20.2600 C   0  0  0  0  0  0  0  0  0  0  0  0
  -28.6990  -22.8870   20.0040 C   0  0  0  0  0  0  0  0  0  0  0  0
  -29.8210  -21.8180   18.3040 C   0  0  0  0  0  0  0  0  0  0  0  0
  -30.2800  -21.8390   16.8620 C   0  0  0  0  0  1  0  0  0  0  0  0
  -30.0760  -20.7110   18.9990 N   0  0  0  0  0  0  0  0  0  0  0  0
  -29.1790  -22.8960   18.7450 N   0  0  0  0  0  0  0  0  0  0  0  0
  -29.2100  -18.0610   20.8020 C   0  0  0  0  0  2  0  0  0  0  0  0
  -31.5270  -17.5620   20.5830 C   0  0  0  0  0  2  0  0  0  0  0  0
  -30.0010  -19.3780   21.0500 C   0  0  0  0  0  3  0  0  0  0  0  0
  -30.2420  -16.9710   21.1940 C   0  0  0  0  0  3  0  0  0  0  0  0
  -31.3870  -19.0320   20.6990 N   0  0  0  0  0  4  0  0  0  0  0  0
  -31.4950  -19.4760   19.7950 H   0  0  0  0  0  0  0  0  0  0  0  0
  -32.0290  -19.4490   21.3500 H   0  0  0  0  0  0  0  0  0  0  0  0
  -30.6430  -14.5260   20.4180 C   0  0  0  0  0  0  0  0  0  0  0  0
  -30.3620  -12.3540   19.2630 C   0  0  0  0  0  2  0  0  0  0  0  0
  -29.4120  -12.5550   18.0650 C   0  0  0  0  0  2  0  0  0  0  0  0
  -27.9380  -12.4210   18.4990 C   0  0  0  0  0  2  0  0  0  0  0  0
  -27.6080  -13.2440   19.7750 C   0  0  0  0  0  3  0  0  0  0  0  0
  -28.6740  -13.0170   20.8720 C   0  0  0  0  0  2  0  0  0  0  0  0
  -29.9860  -13.3390   20.2910 N   0  0  0  0  0  0  0  0  0  0  0  0
  -31.7890  -14.6970   19.9940 O   0  0  0  0  0  0  0  0  0  0  0  0
  -29.8940  -15.5510   20.8940 N   0  0  0  0  0  0  0  0  0  0  0  0
  -28.9610  -15.2730   21.1630 H   0  0  0  0  0  0  0  0  0  0  0  0
  -25.2150  -13.8500   20.4910 C   0  0  0  0  0  0  0  0  0  0  0  0
  -24.1490  -13.0800   20.8670 C   0  0  0  0  0  0  0  0  0  0  0  0
  -24.6090  -11.7280   20.8400 C   0  0  0  0  0  0  0  0  0  0  0  0
  -26.2580  -12.9670   20.2610 N   0  0  0  0  0  0  0  0  0  0  0  0
  -25.8970  -11.6860   20.5260 N   0  0  0  0  0  0  0  0  0  0  0  0
  -23.8820  -10.4670   21.0390 C   0  0  0  0  0  0  0  0  0  0  0  0
  -24.3290   -9.4950   21.9610 C   0  0  0  0  0  3  0  0  0  0  0  0
  -23.6040   -8.2970   22.1460 C   0  0  0  0  0  3  0  0  0  0  0  0
  -22.4190   -8.0640   21.4090 C   0  0  0  0  0  0  0  0  0  0  0  0
  -21.9930   -9.0260   20.4740 C   0  0  0  0  0  3  0  0  0  0  0  0
  -22.7190  -10.2140   20.2880 C   0  0  0  0  0  3  0  0  0  0  0  0
  -21.6630   -6.9220   21.5040 O   0  0  0  0  0  0  0  0  0  0  0  0
  -21.6410   -6.1650   22.6480 C   0  0  0  0  0  0  0  0  0  0  0  0
  -21.2570   -6.7090   23.8940 C   0  0  0  0  0  3  0  0  0  0  0  0
  -21.1820   -5.8810   25.0310 C   0  0  0  0  0  3  0  0  0  0  0  0
  -21.4810   -4.5100   24.9250 C   0  0  0  0  0  0  0  0  0  0  0  0
  -21.8600   -3.9650   23.6850 C   0  0  0  0  0  3  0  0  0  0  0  0
  -21.9360   -4.7910   22.5500 C   0  0  0  0  0  0  0  0  0  0  0  0
  -22.2800   -4.2560   21.3550 F   0  0  0  0  0  0  0  0  0  0  0  0
  -21.4020   -3.7120   26.0160 F   0  0  0  0  0  0  0  0  0  0  0  0
  -22.7520  -13.5580   21.1440 C   0  0  0  0  0  0  0  0  0  0  0  0
  -22.0290  -12.8640   22.0150 N   0  0  0  0  0  0  0  0  0  0  0  0
  -22.3100  -14.5800   20.6210 O   0  0  0  0  0  0  0  0  0  0  0  0
  -22.4010  -12.0390   22.4620 H   0  0  0  0  0  0  0  0  0  0  0  0
  -21.0910  -13.1610   22.2400 H   0  0  0  0  0  0  0  0  0  0  0  0
  -25.3790  -15.2210   20.3060 N   0  0  0  0  0  0  0  0  0  0  0  0
  -24.6130  -15.8760   20.4100 H   0  0  0  0  0  0  0  0  0  0  0  0
  -26.2190  -15.6540   19.9450 H   0  0  0  0  0  0  0  0  0  0  0  0
  -27.8110  -24.0880   20.4130 C   0  0  0  0  0  2  0  0  0  0  0  0
  -28.4900  -25.4230   20.8930 C   0  0  0  0  0  2  0  0  0  0  0  0
  -28.3890  -26.6360   20.0920 O   0  0  0  0  0  0  0  0  0  0  0  0
  -24.6160  -31.8900   23.2490 C   0  0  0  0  0  0  0  0  0  0  0  0
  -27.2310  -27.3900   20.1730 C   0  0  0  0  0  0  0  0  0  0  0  0
  -23.4030  -30.4820   21.6210 C   0  0  0  0  0  3  0  0  0  0  0  0
  -24.8490  -28.9350   20.1970 C   0  0  0  0  0  0  0  0  0  0  0  0
  -25.9360  -30.8190   21.4230 C   0  0  0  0  0  2  0  0  0  0  0  0
  -26.0150  -29.4440   20.7820 C   0  0  0  0  0  0  0  0  0  0  0  0
  -27.2110  -28.6800   20.7650 C   0  0  0  0  0  3  0  0  0  0  0  0
  -26.0470  -26.9100   19.5760 C   0  0  0  0  0  3  0  0  0  0  0  0
  -24.8620  -27.6660   19.5930 C   0  0  0  0  0  3  0  0  0  0  0  0
  -23.6090  -29.8030   20.2430 C   0  0  0  0  0  2  0  0  0  0  0  0
  -24.6720  -31.0760   22.1570 N   0  0  0  0  0  0  0  0  0  0  0  0
  -23.5310  -32.1920   23.7650 O   0  0  0  0  0  0  0  0  0  0  0  0
  -22.7500  -29.4640   22.5830 C   0  0  0  0  0  0  0  0  0  0  0  0
  -21.4250  -29.2780   22.4550 N   0  0  0  0  0  0  0  0  0  0  0  0
  -23.4330  -28.8410   23.4020 O   0  0  0  0  0  0  0  0  0  0  0  0
  -20.9370  -29.8300   21.7630 H   0  0  0  0  0  0  0  0  0  0  0  0
  -18.0530  -28.0710   22.9430 C   0  0  0  0  0  0  0  0  0  0  0  0
  -20.6090  -28.3400   23.2240 C   0  0  0  0  0  3  0  0  0  0  0  0
  -20.7190  -26.9070   22.6520 C   0  0  0  0  0  2  0  0  0  0  0  0
  -19.6220  -26.5780   21.6350 C   0  0  0  0  0  2  0  0  0  0  0  0
  -18.2370  -26.7200   22.2720 C   0  0  0  0  0  2  0  0  0  0  0  0
  -19.1660  -28.8400   23.3750 C   0  0  0  0  0  0  0  0  0  0  0  0
  -18.9410  -30.1040   23.9600 C   0  0  0  0  0  3  0  0  0  0  0  0
  -17.6330  -30.6020   24.1200 C   0  0  0  0  0  3  0  0  0  0  0  0
  -16.5340  -29.8300   23.7040 C   0  0  0  0  0  3  0  0  0  0  0  0
  -16.7450  -28.5680   23.1220 C   0  0  0  0  0  3  0  0  0  0  0  0
  -25.9050  -32.5090   23.8750 C   0  0  0  0  0  3  0  0  0  0  0  0
  -26.4220  -31.7310   25.1480 C   0  0  1  0  0  0  0  0  0  0  0  0
  -25.3290  -31.4940   26.2160 C   0  0  0  0  0  1  0  0  0  0  0  0
  -26.9990  -30.3520   24.7510 C   0  0  0  0  0  1  0  0  0  0  0  0
  -27.5780  -32.5190   25.8090 C   0  0  0  0  0  1  0  0  0  0  0  0
  -25.6030  -33.9070   24.2100 N   0  0  0  0  0  0  0  0  0  0  0  0
  -25.9300  -34.9580   23.4450 C   0  0  0  0  0  0  0  0  0  0  0  0
  -26.5900  -34.8520   22.4080 O   0  0  0  0  0  0  0  0  0  0  0  0
  -25.0180  -34.0640   25.0160 H   0  0  0  0  0  0  0  0  0  0  0  0
  -24.1950  -36.7480   23.1090 C   0  0  0  0  0  1  0  0  0  0  0  0
  -25.4480  -36.3470   23.9050 C   0  0  0  0  0  3  0  0  0  0  0  0
  -27.5940  -37.2330   24.7040 C   0  0  0  0  0  1  0  0  0  0  0  0
  -26.4790  -37.3990   23.7750 N   0  0  0  0  0  0  0  0  0  0  0  0
  -26.0770  -38.3200   23.9240 H   0  0  0  0  0  0  0  0  0  0  0  0
  2  1  2  0
  3 53  1  0
  3  1  1  0
  4  7  1  0
  4  6  2  0
  5  4  1  0
  6  2  1  0
  7  3  2  0
  8 10  1  0
  8 11  1  0
  9 12  1  0
  9 11  1  0
 10  2  1  0
 11 23  1  0
 12 10  1  0
 12 14  1  0
 13 12  1  0
 15 23  1  0
 16 21  1  0
 17 18  1  0
 17 16  1  0
 19 18  1  0
 19 28  1  0
 19 20  1  0
 21 15  1  0
 21 20  1  0
 22 15  2  0
 23 24  1  0
 25 26  2  0
 26 45  1  0
 27 26  1  0
 27 30  1  0
 28 25  1  0
 28 29  1  0
 29 27  2  0
 30 31  1  0
 31 32  2  0
 33 36  1  0
 33 32  1  0
 34 33  2  0
 35 34  1  0
 35 30  2  0
 36 37  1  0
 37 38  1  0
 38 39  2  0
 40 39  1  0
 40 44  1  0
 41 40  2  0
 42 37  2  0
 42 41  1  0
 43 42  1  0
 45 46  1  0
 46 49  1  0
 46 48  1  0
 47 45  2  0
 50 51  1  0
 50 25  1  0
 52 50  1  0
 53 54  1  0
 55 57  1  0
 55 54  1  0
 56 67  2  0
 57 62  1  0
 58 66  1  0
 58 68  1  0
 59 65  1  0
 59 61  1  0
 60 66  1  0
 61 60  1  0
 62 61  2  0
 63 64  1  0
 63 57  2  0
 64 59  2  0
 65 58  1  0
 66 56  1  0
 68 70  2  0
 69 68  1  0
 71 69  1  0
 72 81  2  0
 72 77  1  0
 73 69  1  0
 73 77  1  0
 74 73  1  0
 75 76  1  0
 75 74  1  0
 76 72  1  0
 77 78  2  0
 78 79  1  0
 80 79  2  0
 81 80  1  0
 82 56  1  0
 82 87  1  0
 82 83  1  0
 83 86  1  1
 83 84  1  0
 85 83  1  0
 87 90  1  0
 88 92  1  0
 88 87  1  0
 89 88  2  0
 92 91  1  0
 94 92  1  0
 94 95  1  0
 94 93  1  0
M  ISO  4  15 100  23 100  54 101  55 101
M  END
>  <TORSDO>  (23) 
F 19

>  <SCORE>  (23) 
-14.398

>  <name>  (23) 
22

>  <ligand_id>  (23) 
22

>  <original_smiles>  (23) 
[H]c1c(C([H])([H])C([H])([H])Oc2c([H])c([H])c3c(c2[H])C([H])([H])N(C(=O)C([H])(N([H])C(=O)C([H])(N([H])C([H])([H])[H])C([H])([H])[H])C(C([H])([H])[H])(C([H])([H])[H])C([H])([H])[H])C([H])(C(=O)N([H])C2([H])c4c([H])c([H])c([H])c([H])c4C([H])([H])C([H])([H])C2([H])[H])C3([H])[H])nc(C([H])([H])[H])nc1C1([H])C([H])([H])C([H])(N([H])C(=O)N2C([H])([H])C([H])([H])C([H])([H])C([H])(n3nc(-c4c([H])c([H])c(Oc5c([H])c([H])c(F)c([H])c5F)c([H])c4[H])c(C(=O)N([H])[H])c3N([H])[H])C2([H])[H])C([H])([H])[N+]1([H])[H]

>  <smiles>  (23) 
[H]c1c(C([H])([H])C([H])([H])Oc2c([H])c([H])c3c(c2[H])C([H])([H])N(C(=O)C([H])(N([H])C(=O)C([H])(N([H])C([H])([H])[H])C([H])([H])[H])C(C([H])([H])[H])(C([H])([H])[H])C([H])([H])[H])C([H])(C(=O)N([H])C2([H])c4c([H])c([H])c([H])c([H])c4C([H])([H])C([H])([H])C2([H])[H])C3([H])[H])nc(C([H])([H])[H])nc1C1([H])C([H])([H])C([H])(N([H])C(=O)N2C([H])([H])C([H])([H])C([H])([H])C([H])(n3nc(-c4c([H])c([H])c(Oc5c([H])c([H])c(F)c([H])c5F)c([H])c4[H])c(C(=O)N([H])[H])c3N([H])[H])C2([H])[H])C([H])([H])[N+]1([H])[H]

> <Step>
178.0

> <Scaffold>
O=C(NC1CCCc2ccccc21)C1Cc2ccc(OCCc3cc(C4CC(NC(=O)N5CCCC(n6ccc(-c7ccc(Oc8ccccc8)cc7)n6)C5)CN4)ncn3)cc2CN1

> <SMILES>
CNC(C)C(=O)NC(C(=O)N1Cc2cc(OCCc3cc(C4CC(NC(=O)N5CCCC(n6nc(-c7ccc(Oc8ccc(F)cc8F)cc7)c(C(N)=O)c6N)C5)CN4)nc(C)n3)ccc2CC1C(=O)NC1CCCc2ccccc21)C(C)(C)C

> <Tanimoto ROCS sim>
0.21688824892044067

> <Custom alerts>
1.0

> <Linker Num Aromatic Rings>
1.0

> <Linker Effective Length>
1.0

> <ADV>
0.9956388473510742

> <PostDock Tanimoto ROCS sim>
0.9893571138381958

> <raw_Linker Num Aromatic Rings>
1.0

> <raw_Linker Effective Length>
8.0

> <raw_ADV>
-14.434000015258789

> <total_score>
0.9962489604949951

> <ID>
default_job_122

> <PostDock Tanimoto ROCS sim (re-score)>
0.9843735

> <raw_ADV (re-score)>
-14.398

$$$$
default_job_123
     RDKit          3D

 95104  0  0  1  0  0  0  0  0999 V2000
  -29.6080  -23.6520   22.0500 C   0  0  0  0  0  3  0  0  0  0  0  0
  -29.3770  -22.6380   19.5230 C   0  0  0  0  0  3  0  0  0  0  0  0
  -30.0200  -22.3200   21.8280 C   0  0  0  0  0  0  0  0  0  0  0  0
  -29.8870  -21.7780   20.5260 C   0  0  0  0  0  0  0  0  0  0  0  0
  -29.0950  -24.4260   20.9900 C   0  0  0  0  0  0  0  0  0  0  0  0
  -30.5730  -21.5110   22.9880 C   0  0  0  0  0  1  0  0  0  0  0  0
  -28.9850  -23.9180   19.7410 N   0  0  0  0  0  0  0  0  0  0  0  0
  -30.3060  -20.3280   20.1620 C   0  0  0  0  0  2  0  0  0  0  0  0
  -27.6510  -18.4500   19.2340 C   0  0  0  0  0  2  0  0  0  0  0  0
  -28.4850  -17.2410   19.6200 C   0  0  0  0  0  2  0  0  0  0  0  0
  -27.9800  -19.4290   20.3550 C   0  0  0  0  0  2  0  0  0  0  0  0
  -29.7730  -17.8360   20.2210 C   0  0  0  0  0  3  0  0  0  0  0  0
  -29.4180  -19.2300   20.6730 N   0  0  1  0  0  4  0  0  0  0  0  0
  -29.4890  -19.2430   21.6780 H   0  0  0  0  0  0  0  0  0  0  0  0
  -30.3900  -16.9320   21.3390 C   0  0  0  0  0  2  0  0  0  0  0  0
  -30.8330  -14.5350   20.5260 C   0  0  0  0  0  0  0  0  0  0  0  0
  -30.5650  -12.3680   19.3600 C   0  0  0  0  0  2  0  0  0  0  0  0
  -29.6340  -12.5540   18.1420 C   0  0  0  0  0  2  0  0  0  0  0  0
  -28.1530  -12.4250   18.5500 C   0  0  0  0  0  2  0  0  0  0  0  0
  -27.7990  -13.2800   19.7950 C   0  0  0  0  0  3  0  0  0  0  0  0
  -28.8320  -13.0470   20.9210 C   0  0  0  0  0  2  0  0  0  0  0  0
  -30.1720  -13.3520   20.3810 N   0  0  0  0  0  0  0  0  0  0  0  0
  -31.9370  -14.7630   20.0260 O   0  0  0  0  0  0  0  0  0  0  0  0
  -30.1260  -15.4880   21.1620 N   0  0  0  0  0  0  0  0  0  0  0  0
  -29.2500  -15.1600   21.5370 H   0  0  0  0  0  0  0  0  0  0  0  0
  -25.3920  -13.9280   20.4440 C   0  0  0  0  0  0  0  0  0  0  0  0
  -24.3090  -13.1760   20.8100 C   0  0  0  0  0  0  0  0  0  0  0  0
  -24.7550  -11.8190   20.8070 C   0  0  0  0  0  0  0  0  0  0  0  0
  -26.4320  -13.0330   20.2490 N   0  0  0  0  0  0  0  0  0  0  0  0
  -26.0490  -11.7600   20.5220 N   0  0  0  0  0  0  0  0  0  0  0  0
  -24.0100  -10.5700   21.0020 C   0  0  0  0  0  0  0  0  0  0  0  0
  -24.4210   -9.6060   21.9480 C   0  0  0  0  0  3  0  0  0  0  0  0
  -23.6780   -8.4200   22.1310 C   0  0  0  0  0  3  0  0  0  0  0  0
  -22.5100   -8.1900   21.3660 C   0  0  0  0  0  0  0  0  0  0  0  0
  -22.1190   -9.1420   20.4090 C   0  0  0  0  0  3  0  0  0  0  0  0
  -22.8620  -10.3200   20.2240 C   0  0  0  0  0  3  0  0  0  0  0  0
  -21.7410   -7.0560   21.4560 O   0  0  0  0  0  0  0  0  0  0  0  0
  -21.6770   -6.3210   22.6130 C   0  0  0  0  0  0  0  0  0  0  0  0
  -21.2570   -6.8890   23.8350 C   0  0  0  0  0  3  0  0  0  0  0  0
  -21.1390   -6.0820   24.9830 C   0  0  0  0  0  3  0  0  0  0  0  0
  -21.4290   -4.7060   24.9110 C   0  0  0  0  0  0  0  0  0  0  0  0
  -21.8420   -4.1370   23.6930 C   0  0  0  0  0  3  0  0  0  0  0  0
  -21.9620   -4.9420   22.5460 C   0  0  0  0  0  0  0  0  0  0  0  0
  -22.3400   -4.3850   21.3710 F   0  0  0  0  0  0  0  0  0  0  0  0
  -21.3080   -3.9270   26.0110 F   0  0  0  0  0  0  0  0  0  0  0  0
  -22.9130  -13.6760   21.0500 C   0  0  0  0  0  0  0  0  0  0  0  0
  -22.1630  -13.0050   21.9160 N   0  0  0  0  0  0  0  0  0  0  0  0
  -22.4960  -14.6970   20.5040 O   0  0  0  0  0  0  0  0  0  0  0  0
  -22.5120  -12.1800   22.3810 H   0  0  0  0  0  0  0  0  0  0  0  0
  -21.2250  -13.3220   22.1200 H   0  0  0  0  0  0  0  0  0  0  0  0
  -25.5670  -15.2930   20.2410 N   0  0  0  0  0  0  0  0  0  0  0  0
  -24.7880  -15.9400   20.2980 H   0  0  0  0  0  0  0  0  0  0  0  0
  -26.4000  -15.7070   19.8470 H   0  0  0  0  0  0  0  0  0  0  0  0
  -28.5870  -25.8550   21.2630 C   0  0  0  0  0  2  0  0  0  0  0  0
  -28.4100  -26.6920   20.1080 O   0  0  0  0  0  0  0  0  0  0  0  0
  -24.6000  -31.8900   23.2250 C   0  0  0  0  0  0  0  0  0  0  0  0
  -27.2660  -27.4580   20.1410 C   0  0  0  0  0  0  0  0  0  0  0  0
  -23.4020  -30.4810   21.5840 C   0  0  0  0  0  3  0  0  0  0  0  0
  -24.8660  -28.9500   20.1570 C   0  0  0  0  0  0  0  0  0  0  0  0
  -25.9280  -30.8450   21.3950 C   0  0  0  0  0  2  0  0  0  0  0  0
  -26.0200  -29.4760   20.7530 C   0  0  0  0  0  0  0  0  0  0  0  0
  -27.2260  -28.7350   20.7470 C   0  0  0  0  0  3  0  0  0  0  0  0
  -26.1000  -26.9460   19.5390 C   0  0  0  0  0  3  0  0  0  0  0  0
  -24.8990  -27.6830   19.5500 C   0  0  0  0  0  3  0  0  0  0  0  0
  -23.6170  -29.8030   20.2040 C   0  0  0  0  0  2  0  0  0  0  0  0
  -24.6620  -31.0830   22.1290 N   0  0  0  0  0  0  0  0  0  0  0  0
  -23.5130  -32.1810   23.7410 O   0  0  0  0  0  0  0  0  0  0  0  0
  -22.7530  -29.4550   22.5420 C   0  0  0  0  0  0  0  0  0  0  0  0
  -21.4270  -29.2790   22.4210 N   0  0  0  0  0  0  0  0  0  0  0  0
  -23.4390  -28.8200   23.3480 O   0  0  0  0  0  0  0  0  0  0  0  0
  -20.9350  -29.8430   21.7420 H   0  0  0  0  0  0  0  0  0  0  0  0
  -18.0490  -28.1010   22.9340 C   0  0  0  0  0  0  0  0  0  0  0  0
  -20.6100  -28.3370   23.1860 C   0  0  0  0  0  3  0  0  0  0  0  0
  -20.6980  -26.9120   22.5920 C   0  0  0  0  0  2  0  0  0  0  0  0
  -19.5850  -26.6110   21.5830 C   0  0  0  0  0  2  0  0  0  0  0  0
  -18.2090  -26.7580   22.2410 C   0  0  0  0  0  2  0  0  0  0  0  0
  -19.1770  -28.8500   23.3630 C   0  0  0  0  0  0  0  0  0  0  0  0
  -18.9720  -30.1080   23.9700 C   0  0  0  0  0  3  0  0  0  0  0  0
  -17.6730  -30.6170   24.1520 C   0  0  0  0  0  3  0  0  0  0  0  0
  -16.5600  -29.8660   23.7370 C   0  0  0  0  0  3  0  0  0  0  0  0
  -16.7490  -28.6090   23.1350 C   0  0  0  0  0  3  0  0  0  0  0  0
  -25.8850  -32.5120   23.8580 C   0  0  0  0  0  3  0  0  0  0  0  0
  -26.4000  -31.7350   25.1320 C   0  0  1  0  0  0  0  0  0  0  0  0
  -25.3030  -31.4930   26.1950 C   0  0  0  0  0  1  0  0  0  0  0  0
  -26.9860  -30.3590   24.7360 C   0  0  0  0  0  1  0  0  0  0  0  0
  -27.5490  -32.5270   25.8000 C   0  0  0  0  0  1  0  0  0  0  0  0
  -25.5780  -33.9090   24.1900 N   0  0  0  0  0  0  0  0  0  0  0  0
  -25.9120  -34.9610   23.4320 C   0  0  0  0  0  0  0  0  0  0  0  0
  -26.5840  -34.8580   22.4010 O   0  0  0  0  0  0  0  0  0  0  0  0
  -24.9810  -34.0630   24.9890 H   0  0  0  0  0  0  0  0  0  0  0  0
  -24.1820  -36.7490   23.0730 C   0  0  0  0  0  1  0  0  0  0  0  0
  -25.4220  -36.3480   23.8870 C   0  0  0  0  0  3  0  0  0  0  0  0
  -27.5550  -37.2330   24.7210 C   0  0  0  0  0  1  0  0  0  0  0  0
  -26.4540  -37.4020   23.7760 N   0  0  0  0  0  0  0  0  0  0  0  0
  -26.0470  -38.3220   23.9230 H   0  0  0  0  0  0  0  0  0  0  0  0
  2  7  2  0
  2  4  1  0
  3  1  1  0
  3  6  1  0
  4  3  2  0
  5 54  1  0
  5  1  2  0
  7  5  1  0
  8  4  1  0
  8 13  1  0
  9 10  1  0
  9 11  1  0
 10 12  1  0
 11 13  1  0
 12 13  1  0
 12 15  1  0
 13 14  1  1
 16 24  1  0
 17 22  1  0
 18 19  1  0
 18 17  1  0
 20 19  1  0
 20 29  1  0
 20 21  1  0
 22 16  1  0
 22 21  1  0
 23 16  2  0
 24 15  1  0
 24 25  1  0
 26 27  2  0
 27 46  1  0
 28 27  1  0
 28 31  1  0
 29 26  1  0
 29 30  1  0
 30 28  2  0
 31 32  1  0
 32 33  2  0
 34 37  1  0
 34 33  1  0
 35 34  2  0
 36 35  1  0
 36 31  2  0
 37 38  1  0
 38 39  1  0
 39 40  2  0
 41 40  1  0
 41 45  1  0
 42 41  2  0
 43 38  2  0
 43 42  1  0
 44 43  1  0
 46 47  1  0
 47 50  1  0
 47 49  1  0
 48 46  2  0
 51 52  1  0
 51 26  1  0
 53 51  1  0
 55 57  1  0
 55 54  1  0
 56 67  2  0
 57 62  1  0
 58 66  1  0
 58 68  1  0
 59 65  1  0
 59 61  1  0
 60 66  1  0
 61 60  1  0
 62 61  2  0
 63 64  1  0
 63 57  2  0
 64 59  2  0
 65 58  1  0
 66 56  1  0
 68 70  2  0
 69 68  1  0
 71 69  1  0
 72 81  2  0
 72 77  1  0
 73 69  1  0
 73 77  1  0
 74 73  1  0
 75 76  1  0
 75 74  1  0
 76 72  1  0
 77 78  2  0
 78 79  1  0
 80 79  2  0
 81 80  1  0
 82 56  1  0
 82 87  1  0
 82 83  1  0
 83 86  1  1
 83 84  1  0
 85 83  1  0
 87 90  1  0
 88 92  1  0
 88 87  1  0
 89 88  2  0
 92 91  1  0
 94 92  1  0
 94 95  1  0
 94 93  1  0
M  ISO  4  16 100  24 100  54 101  55 101
M  END
>  <TORSDO>  (24) 
F 20

>  <SCORE>  (24) 
-14.522

>  <name>  (24) 
23

>  <ligand_id>  (24) 
23

>  <original_smiles>  (24) 
[H]c1nc(C([H])([H])Oc2c([H])c([H])c3c(c2[H])C([H])([H])N(C(=O)C([H])(N([H])C(=O)C([H])(N([H])C([H])([H])[H])C([H])([H])[H])C(C([H])([H])[H])(C([H])([H])[H])C([H])([H])[H])C([H])(C(=O)N([H])C2([H])c4c([H])c([H])c([H])c([H])c4C([H])([H])C([H])([H])C2([H])[H])C3([H])[H])c([H])c(C([H])([H])[H])c1C([H])([H])[N+]1([H])C([H])([H])C([H])([H])C([H])([H])C1([H])C([H])([H])N([H])C(=O)N1C([H])([H])C([H])([H])C([H])([H])C([H])(n2nc(-c3c([H])c([H])c(Oc4c([H])c([H])c(F)c([H])c4F)c([H])c3[H])c(C(=O)N([H])[H])c2N([H])[H])C1([H])[H]

>  <smiles>  (24) 
[H]c1nc(C([H])([H])Oc2c([H])c([H])c3c(c2[H])C([H])([H])N(C(=O)C([H])(N([H])C(=O)C([H])(N([H])C([H])([H])[H])C([H])([H])[H])C(C([H])([H])[H])(C([H])([H])[H])C([H])([H])[H])C([H])(C(=O)N([H])C2([H])c4c([H])c([H])c([H])c([H])c4C([H])([H])C([H])([H])C2([H])[H])C3([H])[H])c([H])c(C([H])([H])[H])c1C([H])([H])[N+]1([H])C([H])([H])C([H])([H])C([H])([H])C1([H])C([H])([H])N([H])C(=O)N1C([H])([H])C([H])([H])C([H])([H])C([H])(n2nc(-c3c([H])c([H])c(Oc4c([H])c([H])c(F)c([H])c4F)c([H])c3[H])c(C(=O)N([H])[H])c2N([H])[H])C1([H])[H]

> <Step>
128.0

> <Scaffold>
O=C(NC1CCCc2ccccc21)C1Cc2ccc(OCc3ccc(CN4CCCC4CNC(=O)N4CCCC(n5ccc(-c6ccc(Oc7ccccc7)cc6)n5)C4)cn3)cc2CN1

> <SMILES>
CNC(C)C(=O)NC(C(=O)N1Cc2cc(OCc3cc(C)c(CN4CCCC4CNC(=O)N4CCCC(n5nc(-c6ccc(Oc7ccc(F)cc7F)cc6)c(C(N)=O)c5N)C4)cn3)ccc2CC1C(=O)NC1CCCc2ccccc21)C(C)(C)C

> <Tanimoto ROCS sim>
0.26553085446357727

> <Custom alerts>
1.0

> <Linker Num Aromatic Rings>
1.0

> <Linker Effective Length>
1.0

> <ADV>
0.9958414435386658

> <PostDock Tanimoto ROCS sim>
0.9891533255577087

> <raw_Linker Num Aromatic Rings>
1.0

> <raw_Linker Effective Length>
9.0

> <raw_ADV>
-14.517000198364258

> <total_score>
0.996248722076416

> <ID>
default_job_123

> <PostDock Tanimoto ROCS sim (re-score)>
0.9813769

> <raw_ADV (re-score)>
-14.522

$$$$
default_job_124
     RDKit          3D

 93102  0  0  1  0  0  0  0  0999 V2000
  -30.3280  -24.2290   19.7910 C   0  0  0  0  0  3  0  0  0  0  0  0
  -29.0230  -23.9480   20.2460 C   0  0  0  0  0  0  0  0  0  0  0  0
  -30.7780  -21.9610   19.5500 C   0  0  0  0  0  0  0  0  0  0  0  0
  -29.4790  -21.6170   20.0170 C   0  0  0  0  0  0  0  0  0  0  0  0
  -31.7860  -20.9140   19.1020 C   0  0  0  0  0  1  0  0  0  0  0  0
  -31.1990  -23.2480   19.4490 N   0  0  0  0  0  0  0  0  0  0  0  0
  -28.6070  -22.6320   20.3630 N   0  0  0  0  0  0  0  0  0  0  0  0
  -28.9840  -20.1200   19.9840 C   0  0  0  0  0  2  0  0  0  0  0  0
  -29.5540  -19.1650   21.0030 N   0  0  0  0  0  4  0  0  0  0  0  0
  -30.3660  -19.6240   21.3820 H   0  0  0  0  0  0  0  0  0  0  0  0
  -28.8960  -19.1170   21.7620 H   0  0  0  0  0  0  0  0  0  0  0  0
  -30.6180  -14.6190   20.4870 C   0  0  0  0  0  0  0  0  0  0  0  0
  -30.3550  -12.4080   19.3890 C   0  0  0  0  0  2  0  0  0  0  0  0
  -29.4340  -12.5560   18.1600 C   0  0  0  0  0  2  0  0  0  0  0  0
  -27.9550  -12.4070   18.5680 C   0  0  0  0  0  2  0  0  0  0  0  0
  -27.5880  -13.2650   19.8090 C   0  0  0  0  0  3  0  0  0  0  0  0
  -28.6290  -13.1110   20.9390 C   0  0  0  0  0  2  0  0  0  0  0  0
  -29.9470  -13.4300   20.3750 N   0  0  0  0  0  0  0  0  0  0  0  0
  -31.7760  -14.7390   20.0770 O   0  0  0  0  0  0  0  0  0  0  0  0
  -30.6190  -16.8770   21.6760 C   0  0  0  0  0  2  0  0  0  0  0  0
  -28.9500  -16.6080   20.4720 C   0  0  0  0  0  2  0  0  0  0  0  0
  -29.9760  -17.7580   20.5880 C   0  0  0  0  0  3  0  0  0  0  0  0
  -29.9720  -15.6890   21.0570 N   0  0  0  0  0  0  0  0  0  0  0  0
  -25.1850  -13.8740   20.4760 C   0  0  0  0  0  0  0  0  0  0  0  0
  -24.1120  -13.1060   20.8390 C   0  0  0  0  0  0  0  0  0  0  0  0
  -24.5730  -11.7540   20.8330 C   0  0  0  0  0  0  0  0  0  0  0  0
  -26.2330  -12.9900   20.2750 N   0  0  0  0  0  0  0  0  0  0  0  0
  -25.8690  -11.7110   20.5500 N   0  0  0  0  0  0  0  0  0  0  0  0
  -23.8430  -10.4940   21.0260 C   0  0  0  0  0  0  0  0  0  0  0  0
  -24.2650   -9.5330   21.9700 C   0  0  0  0  0  3  0  0  0  0  0  0
  -23.5360   -8.3380   22.1500 C   0  0  0  0  0  3  0  0  0  0  0  0
  -22.3700   -8.0950   21.3850 C   0  0  0  0  0  0  0  0  0  0  0  0
  -21.9670   -9.0450   20.4290 C   0  0  0  0  0  3  0  0  0  0  0  0
  -22.6970  -10.2330   20.2480 C   0  0  0  0  0  3  0  0  0  0  0  0
  -21.6130   -6.9520   21.4740 O   0  0  0  0  0  0  0  0  0  0  0  0
  -21.5600   -6.2130   22.6280 C   0  0  0  0  0  0  0  0  0  0  0  0
  -21.1350   -6.7720   23.8540 C   0  0  0  0  0  3  0  0  0  0  0  0
  -21.0280   -5.9590   24.9990 C   0  0  0  0  0  3  0  0  0  0  0  0
  -21.3340   -4.5880   24.9210 C   0  0  0  0  0  0  0  0  0  0  0  0
  -21.7500   -4.0270   23.7010 C   0  0  0  0  0  3  0  0  0  0  0  0
  -21.8600   -4.8380   22.5570 C   0  0  0  0  0  0  0  0  0  0  0  0
  -22.2410   -4.2880   21.3780 F   0  0  0  0  0  0  0  0  0  0  0  0
  -21.2250   -3.8050   26.0200 F   0  0  0  0  0  0  0  0  0  0  0  0
  -22.7100  -13.5860   21.0800 C   0  0  0  0  0  0  0  0  0  0  0  0
  -21.9660  -12.9020   21.9410 N   0  0  0  0  0  0  0  0  0  0  0  0
  -22.2830  -14.6050   20.5370 O   0  0  0  0  0  0  0  0  0  0  0  0
  -22.3220  -12.0780   22.4020 H   0  0  0  0  0  0  0  0  0  0  0  0
  -21.0250  -13.2090   22.1440 H   0  0  0  0  0  0  0  0  0  0  0  0
  -25.3520  -15.2410   20.2750 N   0  0  0  0  0  0  0  0  0  0  0  0
  -24.5740  -15.8900   20.3310 H   0  0  0  0  0  0  0  0  0  0  0  0
  -26.1930  -15.6590   19.9030 H   0  0  0  0  0  0  0  0  0  0  0  0
  -28.0640  -25.1090   20.6750 C   0  0  0  0  0  2  0  0  0  0  0  0
  -28.3210  -26.4890   20.1990 O   0  0  0  0  0  0  0  0  0  0  0  0
  -24.6280  -31.9060   23.2420 C   0  0  0  0  0  0  0  0  0  0  0  0
  -27.2150  -27.3460   20.1820 C   0  0  0  0  0  0  0  0  0  0  0  0
  -23.4130  -30.4970   21.6210 C   0  0  0  0  0  3  0  0  0  0  0  0
  -24.8530  -28.9490   20.1880 C   0  0  0  0  0  0  0  0  0  0  0  0
  -25.9540  -30.8140   21.4240 C   0  0  0  0  0  2  0  0  0  0  0  0
  -26.0270  -29.4380   20.7770 C   0  0  0  0  0  0  0  0  0  0  0  0
  -27.2140  -28.6480   20.7650 C   0  0  0  0  0  3  0  0  0  0  0  0
  -26.0260  -26.9140   19.5550 C   0  0  0  0  0  3  0  0  0  0  0  0
  -24.8540  -27.6900   19.5690 C   0  0  0  0  0  3  0  0  0  0  0  0
  -23.6180  -29.8210   20.2410 C   0  0  0  0  0  2  0  0  0  0  0  0
  -24.6850  -31.0850   22.1540 N   0  0  0  0  0  0  0  0  0  0  0  0
  -23.5440  -32.2120   23.7540 O   0  0  0  0  0  0  0  0  0  0  0  0
  -22.7590  -29.4790   22.5870 C   0  0  0  0  0  0  0  0  0  0  0  0
  -21.4330  -29.2960   22.4630 N   0  0  0  0  0  0  0  0  0  0  0  0
  -23.4420  -28.8590   23.4050 O   0  0  0  0  0  0  0  0  0  0  0  0
  -20.9420  -29.8500   21.7750 H   0  0  0  0  0  0  0  0  0  0  0  0
  -18.0600  -28.0890   22.9650 C   0  0  0  0  0  0  0  0  0  0  0  0
  -20.6170  -28.3600   23.2380 C   0  0  0  0  0  3  0  0  0  0  0  0
  -20.7250  -26.9250   22.6690 C   0  0  0  0  0  2  0  0  0  0  0  0
  -19.6260  -26.5930   21.6570 C   0  0  0  0  0  2  0  0  0  0  0  0
  -18.2430  -26.7360   22.2980 C   0  0  0  0  0  2  0  0  0  0  0  0
  -19.1750  -28.8580   23.3920 C   0  0  0  0  0  0  0  0  0  0  0  0
  -18.9510  -30.1230   23.9770 C   0  0  0  0  0  3  0  0  0  0  0  0
  -17.6440  -30.6200   24.1380 C   0  0  0  0  0  3  0  0  0  0  0  0
  -16.5430  -29.8490   23.7270 C   0  0  0  0  0  3  0  0  0  0  0  0
  -16.7520  -28.5860   23.1470 C   0  0  0  0  0  3  0  0  0  0  0  0
  -25.9180  -32.5270   23.8660 C   0  0  0  0  0  3  0  0  0  0  0  0
  -26.4360  -31.7510   25.1390 C   0  0  1  0  0  0  0  0  0  0  0  0
  -25.3460  -31.5170   26.2100 C   0  0  0  0  0  1  0  0  0  0  0  0
  -27.0140  -30.3720   24.7440 C   0  0  0  0  0  1  0  0  0  0  0  0
  -27.5920  -32.5410   25.7960 C   0  0  0  0  0  1  0  0  0  0  0  0
  -25.6140  -33.9240   24.2030 N   0  0  0  0  0  0  0  0  0  0  0  0
  -25.9350  -34.9770   23.4390 C   0  0  0  0  0  0  0  0  0  0  0  0
  -26.5910  -34.8740   22.3990 O   0  0  0  0  0  0  0  0  0  0  0  0
  -25.0290  -34.0790   25.0110 H   0  0  0  0  0  0  0  0  0  0  0  0
  -24.1970  -36.7660   23.1090 C   0  0  0  0  0  1  0  0  0  0  0  0
  -25.4510  -36.3640   23.9030 C   0  0  0  0  0  3  0  0  0  0  0  0
  -27.5990  -37.2500   24.6990 C   0  0  0  0  0  1  0  0  0  0  0  0
  -26.4800  -37.4190   23.7750 N   0  0  0  0  0  0  0  0  0  0  0  0
  -26.0750  -38.3390   23.9340 H   0  0  0  0  0  0  0  0  0  0  0  0
  1  2  1  0
  2  7  2  0
  2 52  1  0
  3  4  2  0
  4  7  1  0
  5  3  1  0
  6  3  1  0
  6  1  2  0
  8  4  1  0
  8  9  1  0
  9 10  1  0
  9 11  1  0
 12 23  1  0
 13 18  1  0
 14 15  1  0
 14 13  1  0
 16 15  1  0
 16 27  1  0
 16 17  1  0
 18 12  1  0
 18 17  1  0
 19 12  2  0
 21 22  1  0
 21 23  1  0
 22  9  1  0
 22 20  1  0
 23 20  1  0
 24 25  2  0
 25 44  1  0
 26 25  1  0
 26 29  1  0
 27 24  1  0
 27 28  1  0
 28 26  2  0
 29 30  1  0
 30 31  2  0
 32 35  1  0
 32 31  1  0
 33 32  2  0
 34 33  1  0
 34 29  2  0
 35 36  1  0
 36 37  1  0
 37 38  2  0
 39 38  1  0
 39 43  1  0
 40 39  2  0
 41 36  2  0
 41 40  1  0
 42 41  1  0
 44 45  1  0
 45 48  1  0
 45 47  1  0
 46 44  2  0
 49 50  1  0
 49 24  1  0
 51 49  1  0
 53 52  1  0
 54 65  2  0
 55 53  1  0
 55 60  1  0
 56 64  1  0
 56 66  1  0
 57 63  1  0
 57 59  1  0
 58 64  1  0
 59 58  1  0
 60 59  2  0
 61 62  1  0
 61 55  2  0
 62 57  2  0
 63 56  1  0
 64 54  1  0
 66 68  2  0
 67 66  1  0
 69 67  1  0
 70 79  2  0
 70 75  1  0
 71 67  1  0
 71 75  1  0
 72 71  1  0
 73 74  1  0
 73 72  1  0
 74 70  1  0
 75 76  2  0
 76 77  1  0
 78 77  2  0
 79 78  1  0
 80 54  1  0
 80 85  1  0
 80 81  1  0
 81 84  1  1
 81 82  1  0
 83 81  1  0
 85 88  1  0
 86 90  1  0
 86 85  1  0
 87 86  2  0
 90 89  1  0
 92 90  1  0
 92 93  1  0
 92 91  1  0
M  ISO  4  12 100  23 100  52 101  53 101
M  END
>  <TORSDO>  (25) 
F 19

>  <SCORE>  (25) 
-14.499

>  <name>  (25) 
24

>  <ligand_id>  (25) 
24

>  <original_smiles>  (25) 
[H]c1nc(C([H])([H])[H])c(C([H])([H])[N+]([H])([H])C2([H])C([H])([H])N(C(=O)N3C([H])([H])C([H])([H])C([H])([H])C([H])(n4nc(-c5c([H])c([H])c(Oc6c([H])c([H])c(F)c([H])c6F)c([H])c5[H])c(C(=O)N([H])[H])c4N([H])[H])C3([H])[H])C2([H])[H])nc1C([H])([H])Oc1c([H])c([H])c2c(c1[H])C([H])([H])N(C(=O)C([H])(N([H])C(=O)C([H])(N([H])C([H])([H])[H])C([H])([H])[H])C(C([H])([H])[H])(C([H])([H])[H])C([H])([H])[H])C([H])(C(=O)N([H])C1([H])c3c([H])c([H])c([H])c([H])c3C([H])([H])C([H])([H])C1([H])[H])C2([H])[H]

>  <smiles>  (25) 
[H]c1nc(C([H])([H])[H])c(C([H])([H])[N+]([H])([H])C2([H])C([H])([H])N(C(=O)N3C([H])([H])C([H])([H])C([H])([H])C([H])(n4nc(-c5c([H])c([H])c(Oc6c([H])c([H])c(F)c([H])c6F)c([H])c5[H])c(C(=O)N([H])[H])c4N([H])[H])C3([H])[H])C2([H])[H])nc1C([H])([H])Oc1c([H])c([H])c2c(c1[H])C([H])([H])N(C(=O)C([H])(N([H])C(=O)C([H])(N([H])C([H])([H])[H])C([H])([H])[H])C(C([H])([H])[H])(C([H])([H])[H])C([H])([H])[H])C([H])(C(=O)N([H])C1([H])c3c([H])c([H])c([H])c([H])c3C([H])([H])C([H])([H])C1([H])[H])C2([H])[H]

> <Step>
194.0

> <Scaffold>
O=C(NC1CCCc2ccccc21)C1Cc2ccc(OCc3cncc(CNC4CN(C(=O)N5CCCC(n6ccc(-c7ccc(Oc8ccccc8)cc7)n6)C5)C4)n3)cc2CN1

> <SMILES>
CNC(C)C(=O)NC(C(=O)N1Cc2cc(OCc3cnc(C)c(CNC4CN(C(=O)N5CCCC(n6nc(-c7ccc(Oc8ccc(F)cc8F)cc7)c(C(N)=O)c6N)C5)C4)n3)ccc2CC1C(=O)NC1CCCc2ccccc21)C(C)(C)C

> <Tanimoto ROCS sim>
0.2655433714389801

> <Custom alerts>
1.0

> <Linker Num Aromatic Rings>
1.0

> <Linker Effective Length>
1.0

> <ADV>
0.9958935976028442

> <PostDock Tanimoto ROCS sim>
0.9890875816345215

> <raw_Linker Num Aromatic Rings>
1.0

> <raw_Linker Effective Length>
8.0

> <raw_ADV>
-14.538999557495117

> <total_score>
0.996245265007019

> <ID>
default_job_124

> <PostDock Tanimoto ROCS sim (re-score)>
0.9796658

> <raw_ADV (re-score)>
-14.499

$$$$
default_job_125
     RDKit          3D

 91 99  0  0  1  0  0  0  0  0999 V2000
  -29.3480  -22.8630   18.8830 C   0  0  0  0  0  3  0  0  0  0  0  0
  -29.5510  -21.4850   19.2100 C   0  0  0  0  0  3  0  0  0  0  0  0
  -28.5570  -21.9010   21.3490 C   0  0  0  0  0  3  0  0  0  0  0  0
  -28.7450  -23.8130   19.7640 C   0  0  0  0  0  0  0  0  0  0  0  0
  -28.3240  -23.2770   21.0150 C   0  0  0  0  0  0  0  0  0  0  0  0
  -29.1640  -20.9600   20.4690 C   0  0  0  0  0  0  0  0  0  0  0  0
  -27.5850  -24.1460   22.0150 C   0  0  0  0  0  1  0  0  0  0  0  0
  -29.3440  -19.6000   20.9050 N   0  0  0  0  0  0  0  0  0  0  0  0
  -29.0120  -19.3970   21.8450 H   0  0  0  0  0  0  0  0  0  0  0  0
  -29.7250  -18.3780   20.1280 C   0  0  0  0  0  2  0  0  0  0  0  0
  -30.2550  -17.1680   21.0280 C   0  0  0  0  0  2  0  0  0  0  0  0
  -30.6080  -14.6530   20.4800 C   0  0  0  0  0  0  0  0  0  0  0  0
  -30.3790  -12.4080   19.4340 C   0  0  0  0  0  2  0  0  0  0  0  0
  -29.4510  -12.5340   18.2070 C   0  0  0  0  0  2  0  0  0  0  0  0
  -27.9780  -12.3660   18.6310 C   0  0  0  0  0  2  0  0  0  0  0  0
  -27.6050  -13.2450   19.8550 C   0  0  0  0  0  3  0  0  0  0  0  0
  -28.6560  -13.1200   20.9830 C   0  0  0  0  0  2  0  0  0  0  0  0
  -29.9650  -13.4460   20.3980 N   0  0  0  0  0  0  0  0  0  0  0  0
  -31.7970  -14.7690   20.1760 O   0  0  0  0  0  0  0  0  0  0  0  0
  -29.8350  -15.7550   20.7260 N   0  0  0  0  0  0  0  0  0  0  0  0
  -28.8550  -15.5580   20.8610 H   0  0  0  0  0  0  0  0  0  0  0  0
  -25.2010  -13.8410   20.5330 C   0  0  0  0  0  0  0  0  0  0  0  0
  -24.1320  -13.0660   20.8920 C   0  0  0  0  0  0  0  0  0  0  0  0
  -24.5990  -11.7170   20.8820 C   0  0  0  0  0  0  0  0  0  0  0  0
  -26.2530  -12.9620   20.3270 N   0  0  0  0  0  0  0  0  0  0  0  0
  -25.8950  -11.6820   20.5970 N   0  0  0  0  0  0  0  0  0  0  0  0
  -23.8750  -10.4540   21.0720 C   0  0  0  0  0  0  0  0  0  0  0  0
  -24.3090   -9.4850   22.0000 C   0  0  0  0  0  3  0  0  0  0  0  0
  -23.5830   -8.2870   22.1790 C   0  0  0  0  0  3  0  0  0  0  0  0
  -22.4080   -8.0510   21.4260 C   0  0  0  0  0  0  0  0  0  0  0  0
  -21.9920   -9.0100   20.4860 C   0  0  0  0  0  3  0  0  0  0  0  0
  -22.7190  -10.1990   20.3070 C   0  0  0  0  0  3  0  0  0  0  0  0
  -21.6530   -6.9050   21.5130 O   0  0  0  0  0  0  0  0  0  0  0  0
  -21.6240   -6.1470   22.6560 C   0  0  0  0  0  0  0  0  0  0  0  0
  -21.2410   -6.6910   23.9000 C   0  0  0  0  0  3  0  0  0  0  0  0
  -21.1590   -5.8620   25.0360 C   0  0  0  0  0  3  0  0  0  0  0  0
  -21.4480   -4.4890   24.9290 C   0  0  0  0  0  0  0  0  0  0  0  0
  -21.8250   -3.9440   23.6890 C   0  0  0  0  0  3  0  0  0  0  0  0
  -21.9100   -4.7700   22.5540 C   0  0  0  0  0  0  0  0  0  0  0  0
  -22.2530   -4.2370   21.3570 F   0  0  0  0  0  0  0  0  0  0  0  0
  -21.3620   -3.6890   26.0180 F   0  0  0  0  0  0  0  0  0  0  0  0
  -22.7300  -13.5410   21.1370 C   0  0  0  0  0  0  0  0  0  0  0  0
  -21.9940  -12.8490   22.0010 N   0  0  0  0  0  0  0  0  0  0  0  0
  -22.2950  -14.5590   20.6000 O   0  0  0  0  0  0  0  0  0  0  0  0
  -22.3600  -12.0240   22.4510 H   0  0  0  0  0  0  0  0  0  0  0  0
  -21.0540  -13.1490   22.2160 H   0  0  0  0  0  0  0  0  0  0  0  0
  -25.3550  -15.2100   20.3420 N   0  0  0  0  0  0  0  0  0  0  0  0
  -24.5670  -15.8450   20.4110 H   0  0  0  0  0  0  0  0  0  0  0  0
  -26.1930  -15.6620   20.0010 H   0  0  0  0  0  0  0  0  0  0  0  0
  -28.5090  -25.2930   19.2410 C   0  0  0  0  0  2  0  0  0  0  0  0
  -28.3560  -26.4730   20.1300 O   0  0  0  0  0  0  0  0  0  0  0  0
  -24.6380  -31.8810   23.1850 C   0  0  0  0  0  0  0  0  0  0  0  0
  -27.2260  -27.3140   20.0820 C   0  0  0  0  0  0  0  0  0  0  0  0
  -23.4180  -30.4760   21.5670 C   0  0  0  0  0  3  0  0  0  0  0  0
  -24.8560  -28.9320   20.1190 C   0  0  0  0  0  0  0  0  0  0  0  0
  -25.9580  -30.7920   21.3570 C   0  0  0  0  0  2  0  0  0  0  0  0
  -26.0320  -29.4140   20.7080 C   0  0  0  0  0  0  0  0  0  0  0  0
  -27.2160  -28.6140   20.6840 C   0  0  0  0  0  3  0  0  0  0  0  0
  -26.0150  -26.8800   19.4940 C   0  0  0  0  0  3  0  0  0  0  0  0
  -24.8530  -27.6730   19.5050 C   0  0  0  0  0  3  0  0  0  0  0  0
  -23.6150  -29.8000   20.1860 C   0  0  0  0  0  2  0  0  0  0  0  0
  -24.6920  -31.0630   22.0950 N   0  0  0  0  0  0  0  0  0  0  0  0
  -23.5540  -32.1840   23.7010 O   0  0  0  0  0  0  0  0  0  0  0  0
  -22.7670  -29.4580   22.5340 C   0  0  0  0  0  0  0  0  0  0  0  0
  -21.4390  -29.2800   22.4220 N   0  0  0  0  0  0  0  0  0  0  0  0
  -23.4540  -28.8320   23.3450 O   0  0  0  0  0  0  0  0  0  0  0  0
  -20.9420  -29.8480   21.7510 H   0  0  0  0  0  0  0  0  0  0  0  0
  -18.0700  -28.0690   22.9360 C   0  0  0  0  0  0  0  0  0  0  0  0
  -20.6290  -28.3420   23.1980 C   0  0  0  0  0  3  0  0  0  0  0  0
  -20.7360  -26.9070   22.6290 C   0  0  0  0  0  2  0  0  0  0  0  0
  -19.6310  -26.5750   21.6220 C   0  0  0  0  0  2  0  0  0  0  0  0
  -18.2500  -26.7170   22.2680 C   0  0  0  0  0  2  0  0  0  0  0  0
  -19.1860  -28.8380   23.3590 C   0  0  0  0  0  0  0  0  0  0  0  0
  -18.9630  -30.1040   23.9420 C   0  0  0  0  0  3  0  0  0  0  0  0
  -17.6550  -30.5960   24.1140 C   0  0  0  0  0  3  0  0  0  0  0  0
  -16.5540  -29.8240   23.7090 C   0  0  0  0  0  3  0  0  0  0  0  0
  -16.7620  -28.5640   23.1220 C   0  0  0  0  0  3  0  0  0  0  0  0
  -25.9260  -32.5030   23.8090 C   0  0  0  0  0  3  0  0  0  0  0  0
  -26.4640  -31.7210   25.0690 C   0  0  1  0  0  0  0  0  0  0  0  0
  -25.3870  -31.4670   26.1490 C   0  0  0  0  0  1  0  0  0  0  0  0
  -27.0460  -30.3490   24.6540 C   0  0  0  0  0  1  0  0  0  0  0  0
  -27.6220  -32.5110   25.7250 C   0  0  0  0  0  1  0  0  0  0  0  0
  -25.6200  -33.8980   24.1600 N   0  0  0  0  0  0  0  0  0  0  0  0
  -25.9340  -34.9600   23.4070 C   0  0  0  0  0  0  0  0  0  0  0  0
  -26.5860  -34.8730   22.3640 O   0  0  0  0  0  0  0  0  0  0  0  0
  -25.0490  -34.0420   24.9800 H   0  0  0  0  0  0  0  0  0  0  0  0
  -24.1900  -36.7480   23.1090 C   0  0  0  0  0  1  0  0  0  0  0  0
  -25.4470  -36.3400   23.8910 C   0  0  0  0  0  3  0  0  0  0  0  0
  -27.5940  -37.2240   24.6930 C   0  0  0  0  0  1  0  0  0  0  0  0
  -26.4690  -37.4050   23.7790 N   0  0  0  0  0  0  0  0  0  0  0  0
  -26.0560  -38.3140   23.9660 H   0  0  0  0  0  0  0  0  0  0  0  0
  1  2  2  0
  1  4  1  0
  2  6  1  0
  4  5  2  0
  5  3  1  0
  5  7  1  0
  6  8  1  0
  6  3  2  0
  8  9  1  0
 10  8  1  0
 10 11  1  0
 12 20  1  0
 13 18  1  0
 14 15  1  0
 14 13  1  0
 16 15  1  0
 16 25  1  0
 16 17  1  0
 18 12  1  0
 18 17  1  0
 19 12  2  0
 20 21  1  0
 20 11  1  0
 22 23  2  0
 23 42  1  0
 24 23  1  0
 24 27  1  0
 25 22  1  0
 25 26  1  0
 26 24  2  0
 27 28  1  0
 28 29  2  0
 30 33  1  0
 30 29  1  0
 31 30  2  0
 32 31  1  0
 32 27  2  0
 33 34  1  0
 34 35  1  0
 35 36  2  0
 37 36  1  0
 37 41  1  0
 38 37  2  0
 39 34  2  0
 39 38  1  0
 40 39  1  0
 42 43  1  0
 43 46  1  0
 43 45  1  0
 44 42  2  0
 47 48  1  0
 47 22  1  0
 49 47  1  0
 50  4  1  0
 50 51  1  0
 52 63  2  0
 53 51  1  0
 53 58  1  0
 54 62  1  0
 54 64  1  0
 55 61  1  0
 55 57  1  0
 56 62  1  0
 57 56  1  0
 58 57  2  0
 59 60  1  0
 59 53  2  0
 60 55  2  0
 61 54  1  0
 62 52  1  0
 64 66  2  0
 65 64  1  0
 67 65  1  0
 68 77  2  0
 68 73  1  0
 69 65  1  0
 69 73  1  0
 70 69  1  0
 71 72  1  0
 71 70  1  0
 72 68  1  0
 73 74  2  0
 74 75  1  0
 76 75  2  0
 77 76  1  0
 78 52  1  0
 78 83  1  0
 78 79  1  0
 79 82  1  1
 79 80  1  0
 81 79  1  0
 83 86  1  0
 84 88  1  0
 84 83  1  0
 85 84  2  0
 88 87  1  0
 90 88  1  0
 90 91  1  0
 90 89  1  0
M  ISO  4  12 100  20 100  50 101  51 101
M  END
>  <TORSDO>  (26) 
F 20

>  <SCORE>  (26) 
-13.893

>  <name>  (26) 
25

>  <ligand_id>  (26) 
25

>  <original_smiles>  (26) 
[H]c1c([H])c([H])c2c(c1[H])C([H])([H])C([H])([H])C([H])([H])C2([H])N([H])C(=O)C1([H])N(C(=O)C([H])(N([H])C(=O)C([H])(N([H])C([H])([H])[H])C([H])([H])[H])C(C([H])([H])[H])(C([H])([H])[H])C([H])([H])[H])C([H])([H])c2c([H])c(OC([H])([H])c3c([H])c([H])c(N([H])C([H])([H])C([H])([H])N([H])C(=O)N4C([H])([H])C([H])([H])C([H])([H])C([H])(n5nc(-c6c([H])c([H])c(Oc7c([H])c([H])c(F)c([H])c7F)c([H])c6[H])c(C(=O)N([H])[H])c5N([H])[H])C4([H])[H])c([H])c3C([H])([H])[H])c([H])c([H])c2C1([H])[H]

>  <smiles>  (26) 
[H]c1c([H])c([H])c2c(c1[H])C([H])([H])C([H])([H])C([H])([H])C2([H])N([H])C(=O)C1([H])N(C(=O)C([H])(N([H])C(=O)C([H])(N([H])C([H])([H])[H])C([H])([H])[H])C(C([H])([H])[H])(C([H])([H])[H])C([H])([H])[H])C([H])([H])c2c([H])c(OC([H])([H])c3c([H])c([H])c(N([H])C([H])([H])C([H])([H])N([H])C(=O)N4C([H])([H])C([H])([H])C([H])([H])C([H])(n5nc(-c6c([H])c([H])c(Oc7c([H])c([H])c(F)c([H])c7F)c([H])c6[H])c(C(=O)N([H])[H])c5N([H])[H])C4([H])[H])c([H])c3C([H])([H])[H])c([H])c([H])c2C1([H])[H]

> <Step>
131.0

> <Scaffold>
O=C(NC1CCCc2ccccc21)C1Cc2ccc(OCc3ccc(NCCNC(=O)N4CCCC(n5ccc(-c6ccc(Oc7ccccc7)cc6)n5)C4)cc3)cc2CN1

> <SMILES>
CNC(C)C(=O)NC(C(=O)N1Cc2cc(OCc3ccc(NCCNC(=O)N4CCCC(n5nc(-c6ccc(Oc7ccc(F)cc7F)cc6)c(C(N)=O)c5N)C4)cc3C)ccc2CC1C(=O)NC1CCCc2ccccc21)C(C)(C)C

> <Tanimoto ROCS sim>
0.3498634696006775

> <Custom alerts>
1.0

> <Linker Num Aromatic Rings>
1.0

> <Linker Effective Length>
1.0

> <ADV>
0.9940036535263062

> <PostDock Tanimoto ROCS sim>
0.9909557700157166

> <raw_Linker Num Aromatic Rings>
1.0

> <raw_Linker Effective Length>
8.0

> <raw_ADV>
-13.878000259399414

> <total_score>
0.9962399005889893

> <ID>
default_job_125

> <PostDock Tanimoto ROCS sim (re-score)>
0.98471934

> <raw_ADV (re-score)>
-13.893

$$$$
default_job_126
     RDKit          3D

 92100  0  0  1  0  0  0  0  0999 V2000
  -30.2130  -21.9310   20.0710 C   0  0  0  0  0  3  0  0  0  0  0  0
  -28.9430  -22.2830   20.4560 C   0  0  0  0  0  0  0  0  0  0  0  0
  -28.9370  -20.1240   19.8350 C   0  0  0  0  0  3  0  0  0  0  0  0
  -31.2930  -19.8900   19.0750 C   0  0  0  0  0  1  0  0  0  0  0  0
  -30.1750  -20.6210   19.6700 N   0  0  0  0  0  0  0  0  0  0  0  0
  -28.2000  -21.1320   20.3310 N   0  0  0  0  0  0  0  0  0  0  0  0
  -27.2080  -21.0620   20.5280 H   0  0  0  0  0  0  0  0  0  0  0  0
  -28.3520  -23.6050   20.8770 C   0  0  0  0  0  2  0  0  0  0  0  0
  -29.4140  -24.7060   21.0890 C   0  0  0  0  0  2  0  0  0  0  0  0
  -28.8240  -26.1060   21.3610 C   0  0  0  0  0  2  0  0  0  0  0  0
  -28.4470  -26.7230   20.1320 O   0  0  0  0  0  0  0  0  0  0  0  0
  -24.6150  -31.9040   23.2410 C   0  0  0  0  0  0  0  0  0  0  0  0
  -27.2980  -27.4730   20.1850 C   0  0  0  0  0  0  0  0  0  0  0  0
  -23.4270  -30.4870   21.6000 C   0  0  0  0  0  3  0  0  0  0  0  0
  -24.8990  -28.9540   20.1870 C   0  0  0  0  0  0  0  0  0  0  0  0
  -25.9510  -30.8560   21.4200 C   0  0  0  0  0  2  0  0  0  0  0  0
  -26.0480  -29.4840   20.7890 C   0  0  0  0  0  0  0  0  0  0  0  0
  -27.2540  -28.7460   20.7960 C   0  0  0  0  0  3  0  0  0  0  0  0
  -26.1400  -26.9560   19.5750 C   0  0  0  0  0  3  0  0  0  0  0  0
  -24.9370  -27.6860   19.5820 C   0  0  0  0  0  3  0  0  0  0  0  0
  -23.6500  -29.8060   20.2230 C   0  0  0  0  0  2  0  0  0  0  0  0
  -24.6830  -31.0940   22.1490 N   0  0  0  0  0  0  0  0  0  0  0  0
  -23.5250  -32.1950   23.7530 O   0  0  0  0  0  0  0  0  0  0  0  0
  -22.7750  -29.4620   22.5570 C   0  0  0  0  0  0  0  0  0  0  0  0
  -21.4520  -29.2750   22.4190 N   0  0  0  0  0  0  0  0  0  0  0  0
  -23.4580  -28.8370   23.3720 O   0  0  0  0  0  0  0  0  0  0  0  0
  -20.9650  -29.8290   21.7290 H   0  0  0  0  0  0  0  0  0  0  0  0
  -18.0760  -28.0870   22.9050 C   0  0  0  0  0  0  0  0  0  0  0  0
  -20.6330  -28.3340   23.1830 C   0  0  0  0  0  3  0  0  0  0  0  0
  -20.7340  -26.9080   22.5950 C   0  0  0  0  0  2  0  0  0  0  0  0
  -19.6330  -26.5960   21.5770 C   0  0  0  0  0  2  0  0  0  0  0  0
  -18.2510  -26.7430   22.2210 C   0  0  0  0  0  2  0  0  0  0  0  0
  -19.1970  -28.8420   23.3430 C   0  0  0  0  0  0  0  0  0  0  0  0
  -18.9810  -30.1040   23.9400 C   0  0  0  0  0  3  0  0  0  0  0  0
  -17.6780  -30.6090   24.1050 C   0  0  0  0  0  3  0  0  0  0  0  0
  -16.5720  -29.8500   23.6850 C   0  0  0  0  0  3  0  0  0  0  0  0
  -16.7720  -28.5910   23.0910 C   0  0  0  0  0  3  0  0  0  0  0  0
  -25.8970  -32.5290   23.8780 C   0  0  0  0  0  3  0  0  0  0  0  0
  -25.5890  -33.9260   24.2040 N   0  0  0  0  0  0  0  0  0  0  0  0
  -25.9180  -34.9740   23.4370 C   0  0  0  0  0  0  0  0  0  0  0  0
  -26.5860  -34.8680   22.4060 O   0  0  0  0  0  0  0  0  0  0  0  0
  -24.9950  -34.0850   25.0050 H   0  0  0  0  0  0  0  0  0  0  0  0
  -24.1810  -36.7540   23.0730 C   0  0  0  0  0  1  0  0  0  0  0  0
  -25.4240  -36.3620   23.8870 C   0  0  0  0  0  3  0  0  0  0  0  0
  -27.5540  -37.2590   24.7130 C   0  0  0  0  0  1  0  0  0  0  0  0
  -26.4520  -37.4180   23.7700 N   0  0  0  0  0  0  0  0  0  0  0  0
  -26.0420  -38.3370   23.9150 H   0  0  0  0  0  0  0  0  0  0  0  0
  -26.4080  -31.7580   25.1550 C   0  0  1  0  0  0  0  0  0  0  0  0
  -25.3060  -31.5190   26.2140 C   0  0  0  0  0  1  0  0  0  0  0  0
  -26.9950  -30.3820   24.7640 C   0  0  0  0  0  1  0  0  0  0  0  0
  -27.5540  -32.5530   25.8270 C   0  0  0  0  0  1  0  0  0  0  0  0
  -28.4020  -18.7730   19.4150 C   0  0  0  0  0  2  0  0  0  0  0  0
  -28.5190  -17.5780   20.4000 C   0  0  0  0  0  2  0  0  0  0  0  0
  -29.9090  -16.9070   20.5400 C   0  0  0  0  0  2  0  0  0  0  0  0
  -30.6090  -14.5100   20.5210 C   0  0  0  0  0  0  0  0  0  0  0  0
  -30.3780  -12.3610   19.3500 C   0  0  0  0  0  2  0  0  0  0  0  0
  -29.4420  -12.6000   18.1460 C   0  0  0  0  0  2  0  0  0  0  0  0
  -27.9610  -12.4560   18.5570 C   0  0  0  0  0  2  0  0  0  0  0  0
  -27.6150  -13.2510   19.8450 C   0  0  0  0  0  3  0  0  0  0  0  0
  -28.6630  -12.9820   20.9510 C   0  0  0  0  0  2  0  0  0  0  0  0
  -29.9910  -13.3060   20.4050 N   0  0  0  0  0  0  0  0  0  0  0  0
  -31.7350  -14.7470   20.0710 O   0  0  0  0  0  0  0  0  0  0  0  0
  -29.7950  -15.4990   20.9350 N   0  0  0  0  0  0  0  0  0  0  0  0
  -28.9040  -15.1980   21.3010 H   0  0  0  0  0  0  0  0  0  0  0  0
  -25.2020  -13.8380   20.5220 C   0  0  0  0  0  0  0  0  0  0  0  0
  -24.1400  -13.0560   20.8880 C   0  0  0  0  0  0  0  0  0  0  0  0
  -24.6170  -11.7110   20.8630 C   0  0  0  0  0  0  0  0  0  0  0  0
  -26.2590  -12.9670   20.3050 N   0  0  0  0  0  0  0  0  0  0  0  0
  -25.9090  -11.6840   20.5680 N   0  0  0  0  0  0  0  0  0  0  0  0
  -23.9030  -10.4410   21.0520 C   0  0  0  0  0  0  0  0  0  0  0  0
  -24.3400   -9.4820   21.9910 C   0  0  0  0  0  3  0  0  0  0  0  0
  -23.6290   -8.2750   22.1650 C   0  0  0  0  0  3  0  0  0  0  0  0
  -22.4650   -8.0220   21.4010 C   0  0  0  0  0  0  0  0  0  0  0  0
  -22.0480   -8.9700   20.4480 C   0  0  0  0  0  3  0  0  0  0  0  0
  -22.7610  -10.1670   20.2730 C   0  0  0  0  0  3  0  0  0  0  0  0
  -21.7220   -6.8690   21.4860 O   0  0  0  0  0  0  0  0  0  0  0  0
  -21.6760   -6.1270   22.6370 C   0  0  0  0  0  0  0  0  0  0  0  0
  -21.2280   -6.6730   23.8600 C   0  0  0  0  0  3  0  0  0  0  0  0
  -21.1320   -5.8540   25.0030 C   0  0  0  0  0  3  0  0  0  0  0  0
  -21.4720   -4.4900   24.9240 C   0  0  0  0  0  0  0  0  0  0  0  0
  -21.9120   -3.9440   23.7050 C   0  0  0  0  0  3  0  0  0  0  0  0
  -22.0130   -4.7600   22.5650 C   0  0  0  0  0  0  0  0  0  0  0  0
  -22.4170   -4.2230   21.3880 F   0  0  0  0  0  0  0  0  0  0  0  0
  -21.3740   -3.7020   26.0190 F   0  0  0  0  0  0  0  0  0  0  0  0
  -22.7350  -13.5190   21.1450 C   0  0  0  0  0  0  0  0  0  0  0  0
  -22.0040  -12.8130   22.0030 N   0  0  0  0  0  0  0  0  0  0  0  0
  -22.2910  -14.5410   20.6240 O   0  0  0  0  0  0  0  0  0  0  0  0
  -22.3750  -11.9880   22.4490 H   0  0  0  0  0  0  0  0  0  0  0  0
  -21.0620  -13.1060   22.2180 H   0  0  0  0  0  0  0  0  0  0  0  0
  -25.3510  -15.2090   20.3370 N   0  0  0  0  0  0  0  0  0  0  0  0
  -24.5670  -15.8470   20.4250 H   0  0  0  0  0  0  0  0  0  0  0  0
  -26.1860  -15.6550   19.9800 H   0  0  0  0  0  0  0  0  0  0  0  0
  1  2  2  0
  2  8  1  0
  3 52  1  0
  3  6  1  0
  4  5  1  0
  5  3  1  0
  5  1  1  0
  6  2  1  0
  6  7  1  0
  8  9  1  0
  9 10  1  0
 11 13  1  0
 11 10  1  0
 12 23  2  0
 13 18  1  0
 14 22  1  0
 14 24  1  0
 15 21  1  0
 15 17  1  0
 16 22  1  0
 17 18  2  0
 17 16  1  0
 19 20  1  0
 19 13  2  0
 20 15  2  0
 21 14  1  0
 22 12  1  0
 24 26  2  0
 25 24  1  0
 27 25  1  0
 28 37  2  0
 28 33  1  0
 29 25  1  0
 29 33  1  0
 30 29  1  0
 31 32  1  0
 31 30  1  0
 32 28  1  0
 33 34  2  0
 34 35  1  0
 36 35  2  0
 37 36  1  0
 38 12  1  0
 38 39  1  0
 38 48  1  0
 39 42  1  0
 40 44  1  0
 40 39  1  0
 41 40  2  0
 44 43  1  0
 46 44  1  0
 46 47  1  0
 46 45  1  0
 48 51  1  1
 48 49  1  0
 50 48  1  0
 52 53  1  0
 53 54  1  0
 54 63  1  0
 55 63  1  0
 56 61  1  0
 57 58  1  0
 57 56  1  0
 59 58  1  0
 59 68  1  0
 59 60  1  0
 61 55  1  0
 61 60  1  0
 62 55  2  0
 63 64  1  0
 65 66  2  0
 66 85  1  0
 67 66  1  0
 67 70  1  0
 68 65  1  0
 68 69  1  0
 69 67  2  0
 70 71  1  0
 71 72  2  0
 73 76  1  0
 73 72  1  0
 74 73  2  0
 75 74  1  0
 75 70  2  0
 76 77  1  0
 77 78  1  0
 78 79  2  0
 80 79  1  0
 80 84  1  0
 81 80  2  0
 82 77  2  0
 82 81  1  0
 83 82  1  0
 85 86  1  0
 86 89  1  0
 86 88  1  0
 87 85  2  0
 90 91  1  0
 90 65  1  0
 92 90  1  0
M  ISO  4  10 101  11 101  55 100  63 100
M  END
>  <TORSDO>  (27) 
F 22

>  <SCORE>  (27) 
-13.391

>  <name>  (27) 
26

>  <ligand_id>  (27) 
26

>  <original_smiles>  (27) 
[H]c1c([H])c([H])c2c(c1[H])C([H])([H])C([H])([H])C([H])([H])C2([H])N([H])C(=O)C1([H])N(C(=O)C([H])(N([H])C(=O)C([H])(N([H])C([H])([H])[H])C([H])([H])[H])C(C([H])([H])[H])(C([H])([H])[H])C([H])([H])[H])C([H])([H])c2c([H])c(OC([H])([H])C([H])([H])C([H])([H])c3c([H])n(C([H])([H])[H])c(C([H])([H])C([H])([H])C([H])([H])N([H])C(=O)N4C([H])([H])C([H])([H])C([H])([H])C([H])(n5nc(-c6c([H])c([H])c(Oc7c([H])c([H])c(F)c([H])c7F)c([H])c6[H])c(C(=O)N([H])[H])c5N([H])[H])C4([H])[H])[n+]3[H])c([H])c([H])c2C1([H])[H]

>  <smiles>  (27) 
[H]c1c([H])c([H])c2c(c1[H])C([H])([H])C([H])([H])C([H])([H])C2([H])N([H])C(=O)C1([H])N(C(=O)C([H])(N([H])C(=O)C([H])(N([H])C([H])([H])[H])C([H])([H])[H])C(C([H])([H])[H])(C([H])([H])[H])C([H])([H])[H])C([H])([H])c2c([H])c(OC([H])([H])C([H])([H])C([H])([H])c3c([H])n(C([H])([H])[H])c(C([H])([H])C([H])([H])C([H])([H])N([H])C(=O)N4C([H])([H])C([H])([H])C([H])([H])C([H])(n5nc(-c6c([H])c([H])c(Oc7c([H])c([H])c(F)c([H])c7F)c([H])c6[H])c(C(=O)N([H])[H])c5N([H])[H])C4([H])[H])[n+]3[H])c([H])c([H])c2C1([H])[H]

> <Step>
45.0

> <Scaffold>
O=C(NC1CCCc2ccccc21)C1Cc2ccc(OCCCc3c[nH]c(CCCNC(=O)N4CCCC(n5ccc(-c6ccc(Oc7ccccc7)cc6)n5)C4)n3)cc2CN1

> <SMILES>
CNC(C)C(=O)NC(C(=O)N1Cc2cc(OCCCc3cn(C)c(CCCNC(=O)N4CCCC(n5nc(-c6ccc(Oc7ccc(F)cc7F)cc6)c(C(N)=O)c5N)C4)n3)ccc2CC1C(=O)NC1CCCc2ccccc21)C(C)(C)C

> <Tanimoto ROCS sim>
0.2591334879398346

> <Custom alerts>
1.0

> <Linker Num Aromatic Rings>
1.0

> <Linker Effective Length>
1.0

> <ADV>
0.9920967817306519

> <PostDock Tanimoto ROCS sim>
0.9928590655326843

> <raw_Linker Num Aromatic Rings>
1.0

> <raw_Linker Effective Length>
9.0

> <raw_ADV>
-13.395000457763672

> <total_score>
0.9962390065193176

> <ID>
default_job_126

> <PostDock Tanimoto ROCS sim (re-score)>
0.9854151

> <raw_ADV (re-score)>
-13.391

$$$$
default_job_127
     RDKit          3D

 92100  0  0  1  0  0  0  0  0999 V2000
  -28.8550  -21.7150   20.2370 C   0  0  0  0  0  3  0  0  0  0  0  0
  -30.8120  -22.1960   18.3230 C   0  0  0  0  0  3  0  0  0  0  0  0
  -29.6980  -20.6250   19.8500 C   0  0  0  0  0  0  0  0  0  0  0  0
  -28.9590  -23.0210   19.6720 C   0  0  0  0  0  0  0  0  0  0  0  0
  -30.6780  -20.8890   18.8420 C   0  0  0  0  0  0  0  0  0  0  0  0
  -29.9710  -23.2500   18.7180 C   0  0  0  0  0  0  0  0  0  0  0  0
  -31.5920  -19.8370   18.2320 C   0  0  0  0  0  1  0  0  0  0  0  0
  -30.1770  -24.7950   17.9720 Cl  0  0  0  0  0  0  0  0  0  0  0  0
  -29.4350  -19.2460   20.5400 C   0  0  0  0  0  2  0  0  0  0  0  0
  -30.4290  -18.0380   20.3980 C   0  0  0  0  0  2  0  0  0  0  0  0
  -30.3440  -16.9030   21.4740 C   0  0  0  0  0  2  0  0  0  0  0  0
  -30.6480  -14.5510   20.5150 C   0  0  0  0  0  0  0  0  0  0  0  0
  -30.3920  -12.3870   19.3410 C   0  0  0  0  0  2  0  0  0  0  0  0
  -29.4520  -12.5720   18.1310 C   0  0  0  0  0  2  0  0  0  0  0  0
  -27.9750  -12.4290   18.5470 C   0  0  0  0  0  2  0  0  0  0  0  0
  -27.6240  -13.2650   19.8060 C   0  0  0  0  0  3  0  0  0  0  0  0
  -28.6690  -13.0420   20.9210 C   0  0  0  0  0  2  0  0  0  0  0  0
  -29.9920  -13.3680   20.3610 N   0  0  0  0  0  0  0  0  0  0  0  0
  -31.7980  -14.7350   20.1030 O   0  0  0  0  0  0  0  0  0  0  0  0
  -29.9080  -15.5590   21.0300 N   0  0  0  0  0  0  0  0  0  0  0  0
  -28.9590  -15.3070   21.2620 H   0  0  0  0  0  0  0  0  0  0  0  0
  -25.2200  -13.8810   20.4820 C   0  0  0  0  0  0  0  0  0  0  0  0
  -24.1460  -13.1130   20.8480 C   0  0  0  0  0  0  0  0  0  0  0  0
  -24.6080  -11.7610   20.8370 C   0  0  0  0  0  0  0  0  0  0  0  0
  -26.2660  -12.9960   20.2730 N   0  0  0  0  0  0  0  0  0  0  0  0
  -25.9010  -11.7180   20.5440 N   0  0  0  0  0  0  0  0  0  0  0  0
  -23.8780  -10.5020   21.0290 C   0  0  0  0  0  0  0  0  0  0  0  0
  -24.3050   -9.5370   21.9680 C   0  0  0  0  0  3  0  0  0  0  0  0
  -23.5790   -8.3410   22.1470 C   0  0  0  0  0  3  0  0  0  0  0  0
  -22.4080   -8.1010   21.3880 C   0  0  0  0  0  0  0  0  0  0  0  0
  -22.0020   -9.0540   20.4370 C   0  0  0  0  0  3  0  0  0  0  0  0
  -22.7300  -10.2400   20.2550 C   0  0  0  0  0  3  0  0  0  0  0  0
  -21.6530   -6.9570   21.4760 O   0  0  0  0  0  0  0  0  0  0  0  0
  -21.6030   -6.2150   22.6290 C   0  0  0  0  0  0  0  0  0  0  0  0
  -21.1830   -6.7720   23.8570 C   0  0  0  0  0  3  0  0  0  0  0  0
  -21.0800   -5.9560   25.0020 C   0  0  0  0  0  3  0  0  0  0  0  0
  -21.3890   -4.5840   24.9200 C   0  0  0  0  0  0  0  0  0  0  0  0
  -21.8050   -4.0280   23.6970 C   0  0  0  0  0  3  0  0  0  0  0  0
  -21.9080   -4.8410   22.5550 C   0  0  0  0  0  0  0  0  0  0  0  0
  -22.2870   -4.2960   21.3740 F   0  0  0  0  0  0  0  0  0  0  0  0
  -21.2840   -3.7980   26.0170 F   0  0  0  0  0  0  0  0  0  0  0  0
  -22.7460  -13.5940   21.0980 C   0  0  0  0  0  0  0  0  0  0  0  0
  -22.0070  -12.9060   21.9610 N   0  0  0  0  0  0  0  0  0  0  0  0
  -22.3150  -14.6150   20.5630 O   0  0  0  0  0  0  0  0  0  0  0  0
  -22.3690  -12.0810   22.4170 H   0  0  0  0  0  0  0  0  0  0  0  0
  -21.0650  -13.2080   22.1680 H   0  0  0  0  0  0  0  0  0  0  0  0
  -25.3890  -15.2500   20.2900 N   0  0  0  0  0  0  0  0  0  0  0  0
  -24.6210  -15.9080   20.3710 H   0  0  0  0  0  0  0  0  0  0  0  0
  -26.2400  -15.6790   19.9490 H   0  0  0  0  0  0  0  0  0  0  0  0
  -27.9240  -24.1280   19.9790 C   0  0  0  0  0  2  0  0  0  0  0  0
  -28.3930  -25.3750   20.7980 C   0  0  0  0  0  2  0  0  0  0  0  0
  -28.3860  -26.6680   20.1410 O   0  0  0  0  0  0  0  0  0  0  0  0
  -24.5880  -31.8880   23.2580 C   0  0  0  0  0  0  0  0  0  0  0  0
  -27.2180  -27.4090   20.1860 C   0  0  0  0  0  0  0  0  0  0  0  0
  -23.3810  -30.4870   21.6190 C   0  0  0  0  0  3  0  0  0  0  0  0
  -24.8320  -28.9440   20.1960 C   0  0  0  0  0  0  0  0  0  0  0  0
  -25.9130  -30.8310   21.4280 C   0  0  0  0  0  2  0  0  0  0  0  0
  -25.9940  -29.4580   20.7850 C   0  0  0  0  0  0  0  0  0  0  0  0
  -27.1920  -28.7010   20.7700 C   0  0  0  0  0  3  0  0  0  0  0  0
  -26.0360  -26.9160   19.5950 C   0  0  0  0  0  3  0  0  0  0  0  0
  -24.8490  -27.6730   19.5980 C   0  0  0  0  0  3  0  0  0  0  0  0
  -23.5930  -29.8100   20.2390 C   0  0  0  0  0  2  0  0  0  0  0  0
  -24.6460  -31.0800   22.1620 N   0  0  0  0  0  0  0  0  0  0  0  0
  -23.5010  -32.1840   23.7750 O   0  0  0  0  0  0  0  0  0  0  0  0
  -22.7240  -29.4660   22.5760 C   0  0  0  0  0  0  0  0  0  0  0  0
  -21.3990  -29.2860   22.4460 N   0  0  0  0  0  0  0  0  0  0  0  0
  -23.4040  -28.8360   23.3910 O   0  0  0  0  0  0  0  0  0  0  0  0
  -20.9100  -29.8440   21.7590 H   0  0  0  0  0  0  0  0  0  0  0  0
  -18.0200  -28.0990   22.9370 C   0  0  0  0  0  0  0  0  0  0  0  0
  -20.5790  -28.3470   23.2110 C   0  0  0  0  0  3  0  0  0  0  0  0
  -20.6770  -26.9190   22.6250 C   0  0  0  0  0  2  0  0  0  0  0  0
  -19.5740  -26.6070   21.6080 C   0  0  0  0  0  2  0  0  0  0  0  0
  -18.1920  -26.7530   22.2530 C   0  0  0  0  0  2  0  0  0  0  0  0
  -19.1420  -28.8540   23.3720 C   0  0  0  0  0  0  0  0  0  0  0  0
  -18.9280  -30.1150   23.9710 C   0  0  0  0  0  3  0  0  0  0  0  0
  -17.6250  -30.6210   24.1390 C   0  0  0  0  0  3  0  0  0  0  0  0
  -16.5190  -29.8630   23.7200 C   0  0  0  0  0  3  0  0  0  0  0  0
  -16.7160  -28.6050   23.1250 C   0  0  0  0  0  3  0  0  0  0  0  0
  -25.8750  -32.5050   23.8910 C   0  0  0  0  0  3  0  0  0  0  0  0
  -25.5780  -33.9060   24.2180 N   0  0  0  0  0  0  0  0  0  0  0  0
  -25.9100  -34.9510   23.4500 C   0  0  0  0  0  0  0  0  0  0  0  0
  -26.5750  -34.8380   22.4160 O   0  0  0  0  0  0  0  0  0  0  0  0
  -24.9890  -34.0680   25.0220 H   0  0  0  0  0  0  0  0  0  0  0  0
  -24.1840  -36.7450   23.0960 C   0  0  0  0  0  1  0  0  0  0  0  0
  -25.4290  -36.3440   23.9010 C   0  0  0  0  0  3  0  0  0  0  0  0
  -27.5730  -37.2280   24.7090 C   0  0  0  0  0  1  0  0  0  0  0  0
  -26.4650  -37.3920   23.7730 N   0  0  0  0  0  0  0  0  0  0  0  0
  -26.0630  -38.3150   23.9150 H   0  0  0  0  0  0  0  0  0  0  0  0
  -26.3790  -31.7300   25.1710 C   0  0  1  0  0  0  0  0  0  0  0  0
  -25.2770  -31.5030   26.2310 C   0  0  0  0  0  1  0  0  0  0  0  0
  -26.9540  -30.3480   24.7840 C   0  0  0  0  0  1  0  0  0  0  0  0
  -27.5320  -32.5160   25.8390 C   0  0  0  0  0  1  0  0  0  0  0  0
  2  6  2  0
  2  5  1  0
  3  1  1  0
  3  9  1  0
  4 50  1  0
  4  1  2  0
  5  3  2  0
  6  4  1  0
  7  5  1  0
  8  6  1  0
 10  9  1  0
 10 11  1  0
 12 20  1  0
 13 18  1  0
 14 15  1  0
 14 13  1  0
 16 15  1  0
 16 25  1  0
 16 17  1  0
 18 12  1  0
 18 17  1  0
 19 12  2  0
 20 21  1  0
 20 11  1  0
 22 23  2  0
 23 42  1  0
 24 23  1  0
 24 27  1  0
 25 22  1  0
 25 26  1  0
 26 24  2  0
 27 28  1  0
 28 29  2  0
 30 33  1  0
 30 29  1  0
 31 30  2  0
 32 31  1  0
 32 27  2  0
 33 34  1  0
 34 35  1  0
 35 36  2  0
 37 36  1  0
 37 41  1  0
 38 37  2  0
 39 34  2  0
 39 38  1  0
 40 39  1  0
 42 43  1  0
 43 46  1  0
 43 45  1  0
 44 42  2  0
 47 48  1  0
 47 22  1  0
 49 47  1  0
 50 51  1  0
 52 54  1  0
 52 51  1  0
 53 64  2  0
 54 59  1  0
 55 63  1  0
 55 65  1  0
 56 62  1  0
 56 58  1  0
 57 63  1  0
 58 57  1  0
 59 58  2  0
 60 61  1  0
 60 54  2  0
 61 56  2  0
 62 55  1  0
 63 53  1  0
 65 67  2  0
 66 65  1  0
 68 66  1  0
 69 78  2  0
 69 74  1  0
 70 66  1  0
 70 74  1  0
 71 70  1  0
 72 73  1  0
 72 71  1  0
 73 69  1  0
 74 75  2  0
 75 76  1  0
 77 76  2  0
 78 77  1  0
 79 53  1  0
 79 80  1  0
 79 89  1  0
 80 83  1  0
 81 85  1  0
 81 80  1  0
 82 81  2  0
 85 84  1  0
 87 85  1  0
 87 88  1  0
 87 86  1  0
 89 92  1  1
 89 90  1  0
 91 89  1  0
M  ISO  4  12 100  20 100  51 101  52 101
M  END
>  <TORSDO>  (28) 
F 21

>  <SCORE>  (28) 
-13.517

>  <name>  (28) 
27

>  <ligand_id>  (28) 
27

>  <original_smiles>  (28) 
[H]c1c([H])c([H])c2c(c1[H])C([H])([H])C([H])([H])C([H])([H])C2([H])N([H])C(=O)C1([H])N(C(=O)C([H])(N([H])C(=O)C([H])(N([H])C([H])([H])[H])C([H])([H])[H])C(C([H])([H])[H])(C([H])([H])[H])C([H])([H])[H])C([H])([H])c2c([H])c(OC([H])([H])C([H])([H])c3c([H])c(C([H])([H])C([H])([H])C([H])([H])N([H])C(=O)N4C([H])([H])C([H])([H])C([H])([H])C([H])(n5nc(-c6c([H])c([H])c(Oc7c([H])c([H])c(F)c([H])c7F)c([H])c6[H])c(C(=O)N([H])[H])c5N([H])[H])C4([H])[H])c(C([H])([H])[H])c([H])c3Cl)c([H])c([H])c2C1([H])[H]

>  <smiles>  (28) 
[H]c1c([H])c([H])c2c(c1[H])C([H])([H])C([H])([H])C([H])([H])C2([H])N([H])C(=O)C1([H])N(C(=O)C([H])(N([H])C(=O)C([H])(N([H])C([H])([H])[H])C([H])([H])[H])C(C([H])([H])[H])(C([H])([H])[H])C([H])([H])[H])C([H])([H])c2c([H])c(OC([H])([H])C([H])([H])c3c([H])c(C([H])([H])C([H])([H])C([H])([H])N([H])C(=O)N4C([H])([H])C([H])([H])C([H])([H])C([H])(n5nc(-c6c([H])c([H])c(Oc7c([H])c([H])c(F)c([H])c7F)c([H])c6[H])c(C(=O)N([H])[H])c5N([H])[H])C4([H])[H])c(C([H])([H])[H])c([H])c3Cl)c([H])c([H])c2C1([H])[H]

> <Step>
33.0

> <Scaffold>
O=C(NC1CCCc2ccccc21)C1Cc2ccc(OCCc3cccc(CCCNC(=O)N4CCCC(n5ccc(-c6ccc(Oc7ccccc7)cc6)n5)C4)c3)cc2CN1

> <SMILES>
CNC(C)C(=O)NC(C(=O)N1Cc2cc(OCCc3cc(CCCNC(=O)N4CCCC(n5nc(-c6ccc(Oc7ccc(F)cc7F)cc6)c(C(N)=O)c5N)C4)c(C)cc3Cl)ccc2CC1C(=O)NC1CCCc2ccccc21)C(C)(C)C

> <Tanimoto ROCS sim>
0.21956035494804382

> <Custom alerts>
1.0

> <Linker Num Aromatic Rings>
1.0

> <Linker Effective Length>
1.0

> <ADV>
0.9926875829696655

> <PostDock Tanimoto ROCS sim>
0.9922494292259216

> <raw_Linker Num Aromatic Rings>
1.0

> <raw_Linker Effective Length>
8.0

> <raw_ADV>
-13.531000137329102

> <total_score>
0.9962342977523804

> <ID>
default_job_127

> <PostDock Tanimoto ROCS sim (re-score)>
0.9829397

> <raw_ADV (re-score)>
-13.517

$$$$
default_job_128
     RDKit          3D

 93102  0  0  1  0  0  0  0  0999 V2000
  -29.4270  -21.5290   20.9910 C   0  0  0  0  0  2  0  0  0  0  0  0
  -30.5150  -21.1830   18.6900 C   0  0  0  0  0  3  0  0  0  0  0  0
  -30.7560  -19.0650   18.5940 C   0  0  0  0  0  3  0  0  0  0  0  0
  -29.9900  -20.6750   19.8590 C   0  0  0  0  0  0  0  0  0  0  0  0
  -30.9920  -20.1610   17.8840 N   0  0  0  0  0  0  0  0  0  0  0  0
  -30.1420  -19.2540   19.7780 N   0  0  0  0  0  0  0  0  0  0  0  0
  -30.6600  -14.5890   20.3560 C   0  0  0  0  0  0  0  0  0  0  0  0
  -30.3460  -12.4150   19.2050 C   0  0  0  0  0  2  0  0  0  0  0  0
  -29.3920  -12.6020   18.0080 C   0  0  0  0  0  2  0  0  0  0  0  0
  -27.9250  -12.4600   18.4570 C   0  0  0  0  0  2  0  0  0  0  0  0
  -27.5990  -13.2880   19.7300 C   0  0  0  0  0  3  0  0  0  0  0  0
  -28.6720  -13.0950   20.8240 C   0  0  0  0  0  2  0  0  0  0  0  0
  -29.9780  -13.4120   20.2270 N   0  0  0  0  0  0  0  0  0  0  0  0
  -31.7890  -14.7370   19.8710 O   0  0  0  0  0  0  0  0  0  0  0  0
  -30.9650  -17.7680   21.6520 C   0  0  0  0  0  2  0  0  0  0  0  0
  -30.6500  -16.3230   22.0750 C   0  0  0  0  0  2  0  0  0  0  0  0
  -29.4460  -16.7520   20.1060 C   0  0  0  0  0  2  0  0  0  0  0  0
  -29.8140  -18.1520   20.7290 C   0  0  0  0  0  3  0  0  0  0  0  0
  -30.0150  -15.6490   20.9330 N   0  0  0  0  0  0  0  0  0  0  0  0
  -25.2120  -13.8770   20.4800 C   0  0  0  0  0  0  0  0  0  0  0  0
  -24.1540  -13.0980   20.8630 C   0  0  0  0  0  0  0  0  0  0  0  0
  -24.6220  -11.7490   20.8250 C   0  0  0  0  0  0  0  0  0  0  0  0
  -26.2570  -13.0020   20.2330 N   0  0  0  0  0  0  0  0  0  0  0  0
  -25.9080  -11.7170   20.4980 N   0  0  0  0  0  0  0  0  0  0  0  0
  -23.9030  -10.4840   21.0240 C   0  0  0  0  0  0  0  0  0  0  0  0
  -24.3500   -9.5190   21.9530 C   0  0  0  0  0  3  0  0  0  0  0  0
  -23.6300   -8.3190   22.1410 C   0  0  0  0  0  3  0  0  0  0  0  0
  -22.4490   -8.0750   21.4000 C   0  0  0  0  0  0  0  0  0  0  0  0
  -22.0220   -9.0300   20.4600 C   0  0  0  0  0  3  0  0  0  0  0  0
  -22.7420  -10.2210   20.2700 C   0  0  0  0  0  3  0  0  0  0  0  0
  -21.7000   -6.9270   21.4960 O   0  0  0  0  0  0  0  0  0  0  0  0
  -21.6660   -6.1840   22.6500 C   0  0  0  0  0  0  0  0  0  0  0  0
  -21.2560   -6.7390   23.8820 C   0  0  0  0  0  3  0  0  0  0  0  0
  -21.1680   -5.9220   25.0270 C   0  0  0  0  0  3  0  0  0  0  0  0
  -21.4840   -4.5530   24.9420 C   0  0  0  0  0  0  0  0  0  0  0  0
  -21.8890   -3.9990   23.7150 C   0  0  0  0  0  3  0  0  0  0  0  0
  -21.9770   -4.8120   22.5720 C   0  0  0  0  0  0  0  0  0  0  0  0
  -22.3470   -4.2680   21.3880 F   0  0  0  0  0  0  0  0  0  0  0  0
  -21.3910   -3.7670   26.0400 F   0  0  0  0  0  0  0  0  0  0  0  0
  -22.7580  -13.5700   21.1530 C   0  0  0  0  0  0  0  0  0  0  0  0
  -22.0420  -12.8720   22.0270 N   0  0  0  0  0  0  0  0  0  0  0  0
  -22.3120  -14.5940   20.6390 O   0  0  0  0  0  0  0  0  0  0  0  0
  -22.4150  -12.0470   22.4730 H   0  0  0  0  0  0  0  0  0  0  0  0
  -21.1060  -13.1730   22.2590 H   0  0  0  0  0  0  0  0  0  0  0  0
  -25.3610  -15.2490   20.3050 N   0  0  0  0  0  0  0  0  0  0  0  0
  -24.5870  -15.8910   20.4380 H   0  0  0  0  0  0  0  0  0  0  0  0
  -26.2000  -15.7060   19.9760 H   0  0  0  0  0  0  0  0  0  0  0  0
  -28.5870  -22.6900   20.5380 N   0  0  0  0  0  4  0  0  0  0  0  0
  -27.7700  -22.6670   21.1290 H   0  0  0  0  0  0  0  0  0  0  0  0
  -28.2650  -22.4880   19.6060 H   0  0  0  0  0  0  0  0  0  0  0  0
  -29.1310  -24.1000   20.6060 C   0  0  0  0  0  2  0  0  0  0  0  0
  -28.1080  -25.1520   20.0430 C   0  0  0  0  0  2  0  0  0  0  0  0
  -28.3290  -26.5820   20.2660 O   0  0  0  0  0  0  0  0  0  0  0  0
  -24.6080  -31.9370   23.2630 C   0  0  0  0  0  0  0  0  0  0  0  0
  -27.2030  -27.4060   20.1940 C   0  0  0  0  0  0  0  0  0  0  0  0
  -23.3930  -30.5350   21.6360 C   0  0  0  0  0  3  0  0  0  0  0  0
  -24.8330  -28.9910   20.1980 C   0  0  0  0  0  0  0  0  0  0  0  0
  -25.9280  -30.8510   21.4450 C   0  0  0  0  0  2  0  0  0  0  0  0
  -25.9990  -29.4770   20.8010 C   0  0  0  0  0  0  0  0  0  0  0  0
  -27.1850  -28.6930   20.7990 C   0  0  0  0  0  3  0  0  0  0  0  0
  -26.0210  -26.9790   19.5360 C   0  0  0  0  0  3  0  0  0  0  0  0
  -24.8460  -27.7470   19.5540 C   0  0  0  0  0  3  0  0  0  0  0  0
  -23.5960  -29.8590   20.2540 C   0  0  0  0  0  2  0  0  0  0  0  0
  -24.6630  -31.1190   22.1750 N   0  0  0  0  0  0  0  0  0  0  0  0
  -23.5230  -32.2490   23.7730 O   0  0  0  0  0  0  0  0  0  0  0  0
  -22.7320  -29.5200   22.5980 C   0  0  0  0  0  0  0  0  0  0  0  0
  -21.4070  -29.3390   22.4620 N   0  0  0  0  0  0  0  0  0  0  0  0
  -23.4080  -28.9000   23.4220 O   0  0  0  0  0  0  0  0  0  0  0  0
  -20.9240  -29.8890   21.7640 H   0  0  0  0  0  0  0  0  0  0  0  0
  -18.0280  -28.1410   22.9310 C   0  0  0  0  0  0  0  0  0  0  0  0
  -20.5830  -28.4060   23.2300 C   0  0  0  0  0  3  0  0  0  0  0  0
  -20.6950  -26.9710   22.6650 C   0  0  0  0  0  2  0  0  0  0  0  0
  -19.6030  -26.6390   21.6430 C   0  0  0  0  0  2  0  0  0  0  0  0
  -18.2140  -26.7860   22.2700 C   0  0  0  0  0  2  0  0  0  0  0  0
  -19.1400  -28.9080   23.3680 C   0  0  0  0  0  0  0  0  0  0  0  0
  -18.9110  -30.1760   23.9470 C   0  0  0  0  0  3  0  0  0  0  0  0
  -17.6040  -30.6750   24.0930 C   0  0  0  0  0  3  0  0  0  0  0  0
  -16.5060  -29.9050   23.6720 C   0  0  0  0  0  3  0  0  0  0  0  0
  -16.7190  -28.6390   23.0960 C   0  0  0  0  0  3  0  0  0  0  0  0
  -25.8990  -32.5500   23.8920 C   0  0  0  0  0  3  0  0  0  0  0  0
  -26.4040  -31.7740   25.1710 C   0  0  1  0  0  0  0  0  0  0  0  0
  -25.3050  -31.5500   26.2350 C   0  0  0  0  0  1  0  0  0  0  0  0
  -26.9740  -30.3890   24.7840 C   0  0  0  0  0  1  0  0  0  0  0  0
  -27.5590  -32.5610   25.8350 C   0  0  0  0  0  1  0  0  0  0  0  0
  -25.6070  -33.9510   24.2180 N   0  0  0  0  0  0  0  0  0  0  0  0
  -25.9400  -34.9970   23.4500 C   0  0  0  0  0  0  0  0  0  0  0  0
  -26.6000  -34.8820   22.4130 O   0  0  0  0  0  0  0  0  0  0  0  0
  -25.0170  -34.1140   25.0210 H   0  0  0  0  0  0  0  0  0  0  0  0
  -24.2160  -36.7950   23.1070 C   0  0  0  0  0  1  0  0  0  0  0  0
  -25.4670  -36.3900   23.9030 C   0  0  0  0  0  3  0  0  0  0  0  0
  -27.6170  -37.2680   24.6970 C   0  0  0  0  0  1  0  0  0  0  0  0
  -26.5040  -37.4360   23.7670 N   0  0  0  0  0  0  0  0  0  0  0  0
  -26.1060  -38.3600   23.9140 H   0  0  0  0  0  0  0  0  0  0  0  0
  2  4  2  0
  3  6  1  0
  4  1  1  0
  5  3  2  0
  5  2  1  0
  6  4  1  0
  7 19  1  0
  8 13  1  0
  9 10  1  0
  9  8  1  0
 11 10  1  0
 11 23  1  0
 11 12  1  0
 13  7  1  0
 13 12  1  0
 14  7  2  0
 15 16  1  0
 17 18  1  0
 17 19  1  0
 18  6  1  0
 18 15  1  0
 19 16  1  0
 20 21  2  0
 21 40  1  0
 22 21  1  0
 22 25  1  0
 23 20  1  0
 23 24  1  0
 24 22  2  0
 25 26  1  0
 26 27  2  0
 28 31  1  0
 28 27  1  0
 29 28  2  0
 30 29  1  0
 30 25  2  0
 31 32  1  0
 32 33  1  0
 33 34  2  0
 35 34  1  0
 35 39  1  0
 36 35  2  0
 37 32  2  0
 37 36  1  0
 38 37  1  0
 40 41  1  0
 41 44  1  0
 41 43  1  0
 42 40  2  0
 45 46  1  0
 45 20  1  0
 47 45  1  0
 48 51  1  0
 48  1  1  0
 48 49  1  0
 50 48  1  0
 52 53  1  0
 52 51  1  0
 54 65  2  0
 55 53  1  0
 55 60  1  0
 56 64  1  0
 56 66  1  0
 57 63  1  0
 57 59  1  0
 58 64  1  0
 59 58  1  0
 60 59  2  0
 61 62  1  0
 61 55  2  0
 62 57  2  0
 63 56  1  0
 64 54  1  0
 66 68  2  0
 67 66  1  0
 69 67  1  0
 70 79  2  0
 70 75  1  0
 71 67  1  0
 71 75  1  0
 72 71  1  0
 73 74  1  0
 73 72  1  0
 74 70  1  0
 75 76  2  0
 76 77  1  0
 78 77  2  0
 79 78  1  0
 80 54  1  0
 80 85  1  0
 80 81  1  0
 81 84  1  1
 81 82  1  0
 83 81  1  0
 85 88  1  0
 86 90  1  0
 86 85  1  0
 87 86  2  0
 90 89  1  0
 92 90  1  0
 92 93  1  0
 92 91  1  0
M  ISO  4   7 100  19 100  52 101  53 101
M  END
>  <TORSDO>  (29) 
F 20

>  <SCORE>  (29) 
-14.164

>  <name>  (29) 
28

>  <ligand_id>  (29) 
28

>  <original_smiles>  (29) 
[H]c1nc([H])n(C2([H])C([H])([H])N(C(=O)N3C([H])([H])C([H])([H])C([H])([H])C([H])(n4nc(-c5c([H])c([H])c(Oc6c([H])c([H])c(F)c([H])c6F)c([H])c5[H])c(C(=O)N([H])[H])c4N([H])[H])C3([H])[H])C([H])([H])C2([H])[H])c1C([H])([H])[N+]([H])([H])C([H])([H])C([H])([H])Oc1c([H])c([H])c2c(c1[H])C([H])([H])N(C(=O)C([H])(N([H])C(=O)C([H])(N([H])C([H])([H])[H])C([H])([H])[H])C(C([H])([H])[H])(C([H])([H])[H])C([H])([H])[H])C([H])(C(=O)N([H])C1([H])c3c([H])c([H])c([H])c([H])c3C([H])([H])C([H])([H])C1([H])[H])C2([H])[H]

>  <smiles>  (29) 
[H]c1nc([H])n(C2([H])C([H])([H])N(C(=O)N3C([H])([H])C([H])([H])C([H])([H])C([H])(n4nc(-c5c([H])c([H])c(Oc6c([H])c([H])c(F)c([H])c6F)c([H])c5[H])c(C(=O)N([H])[H])c4N([H])[H])C3([H])[H])C([H])([H])C2([H])[H])c1C([H])([H])[N+]([H])([H])C([H])([H])C([H])([H])Oc1c([H])c([H])c2c(c1[H])C([H])([H])N(C(=O)C([H])(N([H])C(=O)C([H])(N([H])C([H])([H])[H])C([H])([H])[H])C(C([H])([H])[H])(C([H])([H])[H])C([H])([H])[H])C([H])(C(=O)N([H])C1([H])c3c([H])c([H])c([H])c([H])c3C([H])([H])C([H])([H])C1([H])[H])C2([H])[H]

> <Step>
193.0

> <Scaffold>
O=C(NC1CCCc2ccccc21)C1Cc2ccc(OCCNCc3cncn3C3CCN(C(=O)N4CCCC(n5ccc(-c6ccc(Oc7ccccc7)cc6)n5)C4)C3)cc2CN1

> <SMILES>
CNC(C)C(=O)NC(C(=O)N1Cc2cc(OCCNCc3cncn3C3CCN(C(=O)N4CCCC(n5nc(-c6ccc(Oc7ccc(F)cc7F)cc6)c(C(N)=O)c5N)C4)C3)ccc2CC1C(=O)NC1CCCc2ccccc21)C(C)(C)C

> <Tanimoto ROCS sim>
0.25570788979530334

> <Custom alerts>
1.0

> <Linker Num Aromatic Rings>
1.0

> <Linker Effective Length>
1.0

> <ADV>
0.9947342872619629

> <PostDock Tanimoto ROCS sim>
0.990170955657959

> <raw_Linker Num Aromatic Rings>
1.0

> <raw_Linker Effective Length>
8.0

> <raw_ADV>
-14.104999542236328

> <total_score>
0.9962263107299805

> <ID>
default_job_128

> <PostDock Tanimoto ROCS sim (re-score)>
0.9812314

> <raw_ADV (re-score)>
-14.164

$$$$
default_job_129
     RDKit          3D

 93101  0  0  1  0  0  0  0  0999 V2000
  -29.0920  -24.2830   21.6580 C   0  0  0  0  0  3  0  0  0  0  0  0
  -29.2830  -23.0910   22.3700 C   0  0  0  0  0  0  0  0  0  0  0  0
  -28.6370  -24.1880   20.3360 C   0  0  0  0  0  0  0  0  0  0  0  0
  -28.6250  -21.8750   20.5440 C   0  0  0  0  0  0  0  0  0  0  0  0
  -29.7520  -23.1000   23.8070 C   0  0  0  0  0  1  0  0  0  0  0  0
  -29.0650  -21.8900   21.8020 N   0  0  0  0  0  0  0  0  0  0  0  0
  -28.4060  -22.9650   19.7930 N   0  0  0  0  0  0  0  0  0  0  0  0
  -28.5060  -25.4360   19.4400 C   0  0  0  0  0  2  0  0  0  0  0  0
  -28.3840  -26.7050   20.1310 O   0  0  0  0  0  0  0  0  0  0  0  0
  -24.6020  -31.9010   23.2620 C   0  0  0  0  0  0  0  0  0  0  0  0
  -27.1940  -27.4190   20.1410 C   0  0  0  0  0  0  0  0  0  0  0  0
  -23.3760  -30.5080   21.6290 C   0  0  0  0  0  3  0  0  0  0  0  0
  -24.8080  -28.9670   20.1930 C   0  0  0  0  0  0  0  0  0  0  0  0
  -25.9070  -30.8460   21.4120 C   0  0  0  0  0  2  0  0  0  0  0  0
  -25.9800  -29.4750   20.7640 C   0  0  0  0  0  0  0  0  0  0  0  0
  -27.1710  -28.7100   20.7330 C   0  0  0  0  0  3  0  0  0  0  0  0
  -25.9860  -26.9240   19.5960 C   0  0  0  0  0  3  0  0  0  0  0  0
  -24.8070  -27.6910   19.6130 C   0  0  0  0  0  3  0  0  0  0  0  0
  -23.5750  -29.8410   20.2450 C   0  0  0  0  0  2  0  0  0  0  0  0
  -24.6510  -31.0940   22.1640 N   0  0  0  0  0  0  0  0  0  0  0  0
  -23.5240  -32.1950   23.7940 O   0  0  0  0  0  0  0  0  0  0  0  0
  -22.7250  -29.4850   22.5890 C   0  0  0  0  0  0  0  0  0  0  0  0
  -21.4010  -29.2950   22.4660 N   0  0  0  0  0  0  0  0  0  0  0  0
  -23.4130  -28.8610   23.4010 O   0  0  0  0  0  0  0  0  0  0  0  0
  -20.9070  -29.8560   21.7850 H   0  0  0  0  0  0  0  0  0  0  0  0
  -18.0350  -28.0650   22.9500 C   0  0  0  0  0  0  0  0  0  0  0  0
  -20.5890  -28.3530   23.2390 C   0  0  0  0  0  3  0  0  0  0  0  0
  -20.7080  -26.9160   22.6760 C   0  0  0  0  0  2  0  0  0  0  0  0
  -19.6190  -26.5750   21.6540 C   0  0  0  0  0  2  0  0  0  0  0  0
  -18.2310  -26.7130   22.2860 C   0  0  0  0  0  2  0  0  0  0  0  0
  -19.1430  -28.8410   23.3830 C   0  0  0  0  0  0  0  0  0  0  0  0
  -18.9060  -30.1060   23.9630 C   0  0  0  0  0  3  0  0  0  0  0  0
  -17.5940  -30.5980   24.1060 C   0  0  0  0  0  3  0  0  0  0  0  0
  -16.5020  -29.8190   23.6890 C   0  0  0  0  0  3  0  0  0  0  0  0
  -16.7240  -28.5530   23.1170 C   0  0  0  0  0  3  0  0  0  0  0  0
  -25.8950  -32.5210   23.8790 C   0  0  0  0  0  3  0  0  0  0  0  0
  -25.5990  -33.9190   24.2130 N   0  0  0  0  0  0  0  0  0  0  0  0
  -25.9260  -34.9670   23.4460 C   0  0  0  0  0  0  0  0  0  0  0  0
  -26.5780  -34.8560   22.4050 O   0  0  0  0  0  0  0  0  0  0  0  0
  -25.0180  -34.0760   25.0230 H   0  0  0  0  0  0  0  0  0  0  0  0
  -24.2040  -36.7670   23.0980 C   0  0  0  0  0  1  0  0  0  0  0  0
  -25.4500  -36.3600   23.9020 C   0  0  0  0  0  3  0  0  0  0  0  0
  -27.5970  -37.2360   24.7050 C   0  0  0  0  0  1  0  0  0  0  0  0
  -26.4860  -37.4080   23.7730 N   0  0  0  0  0  0  0  0  0  0  0  0
  -26.0860  -38.3300   23.9260 H   0  0  0  0  0  0  0  0  0  0  0  0
  -26.4130  -31.7450   25.1510 C   0  0  1  0  0  0  0  0  0  0  0  0
  -25.3270  -31.5120   26.2280 C   0  0  0  0  0  1  0  0  0  0  0  0
  -26.9800  -30.3640   24.7520 C   0  0  0  0  0  1  0  0  0  0  0  0
  -27.5740  -32.5270   25.8110 C   0  0  0  0  0  1  0  0  0  0  0  0
  -28.4220  -20.4810   19.9260 C   0  0  0  0  0  2  0  0  0  0  0  0
  -30.7510  -19.8810   19.4580 C   0  0  0  0  0  1  0  0  0  0  0  0
  -29.5460  -19.5530   20.2650 N   0  0  2  0  0  4  0  0  0  0  0  0
  -29.7450  -19.8410   21.2160 H   0  0  0  0  0  0  0  0  0  0  0  0
  -29.1700  -18.0890   20.2660 C   0  0  0  0  0  3  0  0  0  0  0  0
  -30.3010  -17.0630   20.6580 C   0  0  0  0  0  3  0  0  0  0  0  0
  -30.6390  -14.5580   20.3630 C   0  0  0  0  0  0  0  0  0  0  0  0
  -30.3630  -12.3560   19.2730 C   0  0  0  0  0  2  0  0  0  0  0  0
  -29.4170  -12.5500   18.0660 C   0  0  0  0  0  2  0  0  0  0  0  0
  -27.9470  -12.4150   18.5060 C   0  0  0  0  0  2  0  0  0  0  0  0
  -27.6110  -13.2460   19.7730 C   0  0  0  0  0  3  0  0  0  0  0  0
  -28.6800  -13.0540   20.8730 C   0  0  0  0  0  2  0  0  0  0  0  0
  -29.9900  -13.3630   20.2820 N   0  0  0  0  0  0  0  0  0  0  0  0
  -31.7980  -14.7040   19.9680 O   0  0  0  0  0  0  0  0  0  0  0  0
  -29.8810  -15.6330   20.6990 N   0  0  0  0  0  0  0  0  0  0  0  0
  -28.9300  -15.4370   20.9740 H   0  0  0  0  0  0  0  0  0  0  0  0
  -25.2130  -13.8440   20.4890 C   0  0  0  0  0  0  0  0  0  0  0  0
  -24.1480  -13.0680   20.8630 C   0  0  0  0  0  0  0  0  0  0  0  0
  -24.6160  -11.7180   20.8360 C   0  0  0  0  0  0  0  0  0  0  0  0
  -26.2600  -12.9670   20.2590 N   0  0  0  0  0  0  0  0  0  0  0  0
  -25.9060  -11.6830   20.5240 N   0  0  0  0  0  0  0  0  0  0  0  0
  -23.8960  -10.4530   21.0330 C   0  0  0  0  0  0  0  0  0  0  0  0
  -24.3400   -9.4820   21.9570 C   0  0  0  0  0  3  0  0  0  0  0  0
  -23.6130   -8.2850   22.1390 C   0  0  0  0  0  3  0  0  0  0  0  0
  -22.4330   -8.0490   21.3980 C   0  0  0  0  0  0  0  0  0  0  0  0
  -22.0090   -9.0100   20.4630 C   0  0  0  0  0  3  0  0  0  0  0  0
  -22.7340  -10.1990   20.2770 C   0  0  0  0  0  3  0  0  0  0  0  0
  -21.6800   -6.9020   21.4890 O   0  0  0  0  0  0  0  0  0  0  0  0
  -21.6560   -6.1490   22.6350 C   0  0  0  0  0  0  0  0  0  0  0  0
  -21.2570   -6.6940   23.8740 C   0  0  0  0  0  3  0  0  0  0  0  0
  -21.1800   -5.8700   25.0150 C   0  0  0  0  0  3  0  0  0  0  0  0
  -21.4940   -4.5000   24.9150 C   0  0  0  0  0  0  0  0  0  0  0  0
  -21.8870   -3.9540   23.6800 C   0  0  0  0  0  3  0  0  0  0  0  0
  -21.9640   -4.7760   22.5420 C   0  0  0  0  0  0  0  0  0  0  0  0
  -22.3220   -4.2420   21.3490 F   0  0  0  0  0  0  0  0  0  0  0  0
  -21.4130   -3.7030   26.0060 F   0  0  0  0  0  0  0  0  0  0  0  0
  -22.7520  -13.5410   21.1400 C   0  0  0  0  0  0  0  0  0  0  0  0
  -22.0350  -12.8450   22.0160 N   0  0  0  0  0  0  0  0  0  0  0  0
  -22.3040  -14.5620   20.6180 O   0  0  0  0  0  0  0  0  0  0  0  0
  -22.4050  -12.0130   22.4500 H   0  0  0  0  0  0  0  0  0  0  0  0
  -21.1000  -13.1450   22.2500 H   0  0  0  0  0  0  0  0  0  0  0  0
  -25.3750  -15.2130   20.3060 N   0  0  0  0  0  0  0  0  0  0  0  0
  -24.6110  -15.8710   20.4220 H   0  0  0  0  0  0  0  0  0  0  0  0
  -26.2100  -15.6280   19.9170 H   0  0  0  0  0  0  0  0  0  0  0  0
  1  2  2  0
  2  5  1  0
  3  1  1  0
  4  6  2  0
  6  2  1  0
  7  3  2  0
  7  4  1  0
  8  9  1  0
  8  3  1  0
  9 11  1  0
 10 21  2  0
 11 16  1  0
 12 20  1  0
 12 22  1  0
 13 19  1  0
 13 15  1  0
 14 20  1  0
 15 14  1  0
 16 15  2  0
 17 18  1  0
 17 11  2  0
 18 13  2  0
 19 12  1  0
 20 10  1  0
 22 24  2  0
 23 22  1  0
 25 23  1  0
 26 35  2  0
 26 31  1  0
 27 23  1  0
 27 31  1  0
 28 27  1  0
 29 30  1  0
 29 28  1  0
 30 26  1  0
 31 32  2  0
 32 33  1  0
 34 33  2  0
 35 34  1  0
 36 10  1  0
 36 37  1  0
 36 46  1  0
 37 40  1  0
 38 42  1  0
 38 37  1  0
 39 38  2  0
 42 41  1  0
 44 42  1  0
 44 45  1  0
 44 43  1  0
 46 49  1  1
 46 47  1  0
 48 46  1  0
 50 52  1  0
 50  4  1  0
 51 52  1  0
 52 54  1  0
 52 53  1  1
 54 55  2  0
 55 64  1  0
 56 64  1  0
 57 62  1  0
 58 59  1  0
 58 57  1  0
 60 59  1  0
 60 69  1  0
 60 61  1  0
 62 56  1  0
 62 61  1  0
 63 56  2  0
 64 65  1  0
 66 67  2  0
 67 86  1  0
 68 67  1  0
 68 71  1  0
 69 66  1  0
 69 70  1  0
 70 68  2  0
 71 72  1  0
 72 73  2  0
 74 77  1  0
 74 73  1  0
 75 74  2  0
 76 75  1  0
 76 71  2  0
 77 78  1  0
 78 79  1  0
 79 80  2  0
 81 80  1  0
 81 85  1  0
 82 81  2  0
 83 78  2  0
 83 82  1  0
 84 83  1  0
 86 87  1  0
 87 90  1  0
 87 89  1  0
 88 86  2  0
 91 92  1  0
 91 66  1  0
 93 91  1  0
M  ISO  4   8 101   9 101  56 100  64 100
M  END
>  <TORSDO>  (30) 
F 21

>  <SCORE>  (30) 
-13.597

>  <name>  (30) 
29

>  <ligand_id>  (30) 
29

>  <original_smiles>  (30) 
[H]c1c(C([H])([H])[H])nc(C([H])([H])[N+]([H])(C([H])([H])[H])C([H])([H])C([H])([H])N([H])C(=O)N2C([H])([H])C([H])([H])C([H])([H])C([H])(n3nc(-c4c([H])c([H])c(Oc5c([H])c([H])c(F)c([H])c5F)c([H])c4[H])c(C(=O)N([H])[H])c3N([H])[H])C2([H])[H])nc1C([H])([H])Oc1c([H])c([H])c2c(c1[H])C([H])([H])N(C(=O)C([H])(N([H])C(=O)C([H])(N([H])C([H])([H])[H])C([H])([H])[H])C(C([H])([H])[H])(C([H])([H])[H])C([H])([H])[H])C([H])(C(=O)N([H])C1([H])c3c([H])c([H])c([H])c([H])c3C([H])([H])C([H])([H])C1([H])[H])C2([H])[H]

>  <smiles>  (30) 
[H]c1c(C([H])([H])[H])nc(C([H])([H])[N+]([H])(C([H])([H])[H])C([H])([H])C([H])([H])N([H])C(=O)N2C([H])([H])C([H])([H])C([H])([H])C([H])(n3nc(-c4c([H])c([H])c(Oc5c([H])c([H])c(F)c([H])c5F)c([H])c4[H])c(C(=O)N([H])[H])c3N([H])[H])C2([H])[H])nc1C([H])([H])Oc1c([H])c([H])c2c(c1[H])C([H])([H])N(C(=O)C([H])(N([H])C(=O)C([H])(N([H])C([H])([H])[H])C([H])([H])[H])C(C([H])([H])[H])(C([H])([H])[H])C([H])([H])[H])C([H])(C(=O)N([H])C1([H])c3c([H])c([H])c([H])c([H])c3C([H])([H])C([H])([H])C1([H])[H])C2([H])[H]

> <Step>
57.0

> <Scaffold>
O=C(NC1CCCc2ccccc21)C1Cc2ccc(OCc3ccnc(CNCCNC(=O)N4CCCC(n5ccc(-c6ccc(Oc7ccccc7)cc6)n5)C4)n3)cc2CN1

> <SMILES>
CNC(C)C(=O)NC(C(=O)N1Cc2cc(OCc3cc(C)nc(CN(C)CCNC(=O)N4CCCC(n5nc(-c6ccc(Oc7ccc(F)cc7F)cc6)c(C(N)=O)c5N)C4)n3)ccc2CC1C(=O)NC1CCCc2ccccc21)C(C)(C)C

> <Tanimoto ROCS sim>
0.17609308660030365

> <Custom alerts>
1.0

> <Linker Num Aromatic Rings>
1.0

> <Linker Effective Length>
1.0

> <ADV>
0.9929823279380798

> <PostDock Tanimoto ROCS sim>
0.9919174313545227

> <raw_Linker Num Aromatic Rings>
1.0

> <raw_Linker Effective Length>
8.0

> <raw_ADV>
-13.602999687194824

> <total_score>
0.9962249398231506

> <ID>
default_job_129

> <PostDock Tanimoto ROCS sim (re-score)>
0.9844531

> <raw_ADV (re-score)>
-13.597

$$$$
default_job_130
     RDKit          3D

 90 98  0  0  1  0  0  0  0  0999 V2000
  -28.8200  -20.3200   19.6690 C   0  0  0  0  0  3  0  0  0  0  0  0
  -29.4670  -21.5920   19.7240 C   0  0  0  0  0  0  0  0  0  0  0  0
  -29.7700  -19.3820   20.0030 C   0  0  0  0  0  0  0  0  0  0  0  0
  -32.2080  -19.6540   20.7520 C   0  0  0  0  0  1  0  0  0  0  0  0
  -30.7230  -21.4520   20.1220 N   0  0  0  0  0  0  0  0  0  0  0  0
  -30.9060  -20.1170   20.3120 N   0  0  0  0  0  0  0  0  0  0  0  0
  -28.9410  -22.9400   19.2190 C   0  0  0  0  0  2  0  0  0  0  0  0
  -29.2150  -24.2190   20.0990 C   0  0  0  0  0  2  0  0  0  0  0  0
  -28.2140  -25.2780   20.6860 C   0  0  0  0  0  2  0  0  0  0  0  0
  -28.3760  -26.6390   20.1970 O   0  0  0  0  0  0  0  0  0  0  0  0
  -24.5960  -31.8910   23.2490 C   0  0  0  0  0  0  0  0  0  0  0  0
  -27.2280  -27.4100   20.1850 C   0  0  0  0  0  0  0  0  0  0  0  0
  -23.3910  -30.4810   21.6190 C   0  0  0  0  0  3  0  0  0  0  0  0
  -24.8410  -28.9390   20.1920 C   0  0  0  0  0  0  0  0  0  0  0  0
  -25.9200  -30.8270   21.4220 C   0  0  0  0  0  2  0  0  0  0  0  0
  -26.0020  -29.4550   20.7830 C   0  0  0  0  0  0  0  0  0  0  0  0
  -27.2020  -28.7000   20.7740 C   0  0  0  0  0  3  0  0  0  0  0  0
  -26.0550  -26.9270   19.5640 C   0  0  0  0  0  3  0  0  0  0  0  0
  -24.8660  -27.6770   19.5760 C   0  0  0  0  0  3  0  0  0  0  0  0
  -23.5980  -29.8010   20.2390 C   0  0  0  0  0  2  0  0  0  0  0  0
  -24.6550  -31.0790   22.1560 N   0  0  0  0  0  0  0  0  0  0  0  0
  -23.5100  -32.1880   23.7660 O   0  0  0  0  0  0  0  0  0  0  0  0
  -22.7380  -29.4630   22.5800 C   0  0  0  0  0  0  0  0  0  0  0  0
  -21.4130  -29.2820   22.4560 N   0  0  0  0  0  0  0  0  0  0  0  0
  -23.4210  -28.8370   23.3950 O   0  0  0  0  0  0  0  0  0  0  0  0
  -20.9210  -29.8400   21.7700 H   0  0  0  0  0  0  0  0  0  0  0  0
  -18.0370  -28.0970   22.9630 C   0  0  0  0  0  0  0  0  0  0  0  0
  -20.5960  -28.3470   23.2290 C   0  0  0  0  0  3  0  0  0  0  0  0
  -20.6910  -26.9160   22.6520 C   0  0  0  0  0  2  0  0  0  0  0  0
  -19.5860  -26.5970   21.6400 C   0  0  0  0  0  2  0  0  0  0  0  0
  -18.2060  -26.7470   22.2870 C   0  0  0  0  0  2  0  0  0  0  0  0
  -19.1590  -28.8550   23.3920 C   0  0  0  0  0  0  0  0  0  0  0  0
  -18.9450  -30.1180   23.9840 C   0  0  0  0  0  3  0  0  0  0  0  0
  -17.6420  -30.6250   24.1490 C   0  0  0  0  0  3  0  0  0  0  0  0
  -16.5340  -29.8630   23.7360 C   0  0  0  0  0  3  0  0  0  0  0  0
  -16.7330  -28.6000   23.1510 C   0  0  0  0  0  3  0  0  0  0  0  0
  -25.8820  -32.5140   23.8790 C   0  0  0  0  0  3  0  0  0  0  0  0
  -25.5780  -33.9120   24.2090 N   0  0  0  0  0  0  0  0  0  0  0  0
  -25.9090  -34.9610   23.4440 C   0  0  0  0  0  0  0  0  0  0  0  0
  -26.5770  -34.8520   22.4120 O   0  0  0  0  0  0  0  0  0  0  0  0
  -24.9840  -34.0710   25.0100 H   0  0  0  0  0  0  0  0  0  0  0  0
  -24.1790  -36.7490   23.0860 C   0  0  0  0  0  1  0  0  0  0  0  0
  -25.4230  -36.3520   23.8960 C   0  0  0  0  0  3  0  0  0  0  0  0
  -27.5640  -37.2370   24.7110 C   0  0  0  0  0  1  0  0  0  0  0  0
  -26.4570  -37.4040   23.7730 N   0  0  0  0  0  0  0  0  0  0  0  0
  -26.0530  -38.3260   23.9170 H   0  0  0  0  0  0  0  0  0  0  0  0
  -26.3960  -31.7400   25.1550 C   0  0  1  0  0  0  0  0  0  0  0  0
  -25.3030  -31.5030   26.2230 C   0  0  0  0  0  1  0  0  0  0  0  0
  -26.9770  -30.3640   24.7560 C   0  0  0  0  0  1  0  0  0  0  0  0
  -27.5510  -32.5300   25.8160 C   0  0  0  0  0  1  0  0  0  0  0  0
  -29.6850  -17.8550   19.9220 C   0  0  0  0  0  2  0  0  0  0  0  0
  -30.2840  -16.9720   21.0620 C   0  0  0  0  0  2  0  0  0  0  0  0
  -30.6480  -14.5120   20.4880 C   0  0  0  0  0  0  0  0  0  0  0  0
  -30.3690  -12.3440   19.3360 C   0  0  0  0  0  2  0  0  0  0  0  0
  -29.4220  -12.5400   18.1350 C   0  0  0  0  0  2  0  0  0  0  0  0
  -27.9480  -12.4000   18.5630 C   0  0  0  0  0  2  0  0  0  0  0  0
  -27.6120  -13.2340   19.8280 C   0  0  0  0  0  3  0  0  0  0  0  0
  -28.6670  -13.0160   20.9340 C   0  0  0  0  0  2  0  0  0  0  0  0
  -29.9890  -13.3260   20.3640 N   0  0  0  0  0  0  0  0  0  0  0  0
  -31.7900  -14.6900   20.0560 O   0  0  0  0  0  0  0  0  0  0  0  0
  -29.9100  -15.5410   20.9580 N   0  0  0  0  0  0  0  0  0  0  0  0
  -28.9710  -15.3030   21.2440 H   0  0  0  0  0  0  0  0  0  0  0  0
  -25.2110  -13.8400   20.5280 C   0  0  0  0  0  0  0  0  0  0  0  0
  -24.1440  -13.0690   20.8970 C   0  0  0  0  0  0  0  0  0  0  0  0
  -24.6080  -11.7170   20.8750 C   0  0  0  0  0  0  0  0  0  0  0  0
  -26.2590  -12.9600   20.3050 N   0  0  0  0  0  0  0  0  0  0  0  0
  -25.8980  -11.6780   20.5720 N   0  0  0  0  0  0  0  0  0  0  0  0
  -23.8850  -10.4540   21.0690 C   0  0  0  0  0  0  0  0  0  0  0  0
  -24.3270   -9.4810   21.9930 C   0  0  0  0  0  3  0  0  0  0  0  0
  -23.6020   -8.2840   22.1740 C   0  0  0  0  0  3  0  0  0  0  0  0
  -22.4200   -8.0510   21.4300 C   0  0  0  0  0  0  0  0  0  0  0  0
  -22.0000   -9.0110   20.4940 C   0  0  0  0  0  3  0  0  0  0  0  0
  -22.7250  -10.1990   20.3110 C   0  0  0  0  0  3  0  0  0  0  0  0
  -21.6660   -6.9060   21.5190 O   0  0  0  0  0  0  0  0  0  0  0  0
  -21.6420   -6.1480   22.6630 C   0  0  0  0  0  0  0  0  0  0  0  0
  -21.2550   -6.6900   23.9070 C   0  0  0  0  0  3  0  0  0  0  0  0
  -21.1780   -5.8600   25.0430 C   0  0  0  0  0  3  0  0  0  0  0  0
  -21.4760   -4.4880   24.9350 C   0  0  0  0  0  0  0  0  0  0  0  0
  -21.8580   -3.9460   23.6950 C   0  0  0  0  0  3  0  0  0  0  0  0
  -21.9360   -4.7730   22.5620 C   0  0  0  0  0  0  0  0  0  0  0  0
  -22.2830   -4.2410   21.3650 F   0  0  0  0  0  0  0  0  0  0  0  0
  -21.3940   -3.6890   26.0240 F   0  0  0  0  0  0  0  0  0  0  0  0
  -22.7450  -13.5440   21.1600 C   0  0  0  0  0  0  0  0  0  0  0  0
  -22.0180  -12.8500   22.0280 N   0  0  0  0  0  0  0  0  0  0  0  0
  -22.3050  -14.5660   20.6330 O   0  0  0  0  0  0  0  0  0  0  0  0
  -22.3880  -12.0230   22.4740 H   0  0  0  0  0  0  0  0  0  0  0  0
  -21.0790  -13.1500   22.2510 H   0  0  0  0  0  0  0  0  0  0  0  0
  -25.3740  -15.2100   20.3440 N   0  0  0  0  0  0  0  0  0  0  0  0
  -24.6060  -15.8610   20.4540 H   0  0  0  0  0  0  0  0  0  0  0  0
  -26.2160  -15.6480   19.9920 H   0  0  0  0  0  0  0  0  0  0  0  0
  1  2  1  0
  1  3  2  0
  2  5  2  0
  3  6  1  0
  5  6  1  0
  6  4  1  0
  7  2  1  0
  7  8  1  0
  8  9  1  0
 10  9  1  0
 11 22  2  0
 12 10  1  0
 12 17  1  0
 13 21  1  0
 13 23  1  0
 14 20  1  0
 14 16  1  0
 15 21  1  0
 16 15  1  0
 17 16  2  0
 18 19  1  0
 18 12  2  0
 19 14  2  0
 20 13  1  0
 21 11  1  0
 23 25  2  0
 24 23  1  0
 26 24  1  0
 27 36  2  0
 27 32  1  0
 28 24  1  0
 28 32  1  0
 29 28  1  0
 30 31  1  0
 30 29  1  0
 31 27  1  0
 32 33  2  0
 33 34  1  0
 35 34  2  0
 36 35  1  0
 37 11  1  0
 37 38  1  0
 37 47  1  0
 38 41  1  0
 39 43  1  0
 39 38  1  0
 40 39  2  0
 43 42  1  0
 45 43  1  0
 45 46  1  0
 45 44  1  0
 47 50  1  1
 47 48  1  0
 49 47  1  0
 51  3  1  0
 51 52  1  0
 53 61  1  0
 54 59  1  0
 55 56  1  0
 55 54  1  0
 57 56  1  0
 57 66  1  0
 57 58  1  0
 59 53  1  0
 59 58  1  0
 60 53  2  0
 61 52  1  0
 61 62  1  0
 63 64  2  0
 64 83  1  0
 65 64  1  0
 65 68  1  0
 66 63  1  0
 66 67  1  0
 67 65  2  0
 68 69  1  0
 69 70  2  0
 71 74  1  0
 71 70  1  0
 72 71  2  0
 73 72  1  0
 73 68  2  0
 74 75  1  0
 75 76  1  0
 76 77  2  0
 78 77  1  0
 78 82  1  0
 79 78  2  0
 80 75  2  0
 80 79  1  0
 81 80  1  0
 83 84  1  0
 84 87  1  0
 84 86  1  0
 85 83  2  0
 88 89  1  0
 88 63  1  0
 90 88  1  0
M  ISO  4   9 101  10 101  53 100  61 100
M  END
>  <TORSDO>  (31) 
F 21

>  <SCORE>  (31) 
-13.489

>  <name>  (31) 
30

>  <ligand_id>  (31) 
30

>  <original_smiles>  (31) 
[H]c1c([H])c([H])c2c(c1[H])C([H])([H])C([H])([H])C([H])([H])C2([H])N([H])C(=O)C1([H])N(C(=O)C([H])(N([H])C(=O)C([H])(N([H])C([H])([H])[H])C([H])([H])[H])C(C([H])([H])[H])(C([H])([H])[H])C([H])([H])[H])C([H])([H])c2c([H])c(OC([H])([H])C([H])([H])C([H])([H])c3nn(C([H])([H])[H])c(C([H])([H])C([H])([H])N([H])C(=O)N4C([H])([H])C([H])([H])C([H])([H])C([H])(n5nc(-c6c([H])c([H])c(Oc7c([H])c([H])c(F)c([H])c7F)c([H])c6[H])c(C(=O)N([H])[H])c5N([H])[H])C4([H])[H])c3[H])c([H])c([H])c2C1([H])[H]

>  <smiles>  (31) 
[H]c1c([H])c([H])c2c(c1[H])C([H])([H])C([H])([H])C([H])([H])C2([H])N([H])C(=O)C1([H])N(C(=O)C([H])(N([H])C(=O)C([H])(N([H])C([H])([H])[H])C([H])([H])[H])C(C([H])([H])[H])(C([H])([H])[H])C([H])([H])[H])C([H])([H])c2c([H])c(OC([H])([H])C([H])([H])C([H])([H])c3nn(C([H])([H])[H])c(C([H])([H])C([H])([H])N([H])C(=O)N4C([H])([H])C([H])([H])C([H])([H])C([H])(n5nc(-c6c([H])c([H])c(Oc7c([H])c([H])c(F)c([H])c7F)c([H])c6[H])c(C(=O)N([H])[H])c5N([H])[H])C4([H])[H])c3[H])c([H])c([H])c2C1([H])[H]

> <Step>
41.0

> <Scaffold>
O=C(NC1CCCc2ccccc21)C1Cc2ccc(OCCCc3cc(CCNC(=O)N4CCCC(n5ccc(-c6ccc(Oc7ccccc7)cc6)n5)C4)[nH]n3)cc2CN1

> <SMILES>
CNC(C)C(=O)NC(C(=O)N1Cc2cc(OCCCc3cc(CCNC(=O)N4CCCC(n5nc(-c6ccc(Oc7ccc(F)cc7F)cc6)c(C(N)=O)c5N)C4)n(C)n3)ccc2CC1C(=O)NC1CCCc2ccccc21)C(C)(C)C

> <Tanimoto ROCS sim>
0.23214901983737946

> <Custom alerts>
1.0

> <Linker Num Aromatic Rings>
1.0

> <Linker Effective Length>
1.0

> <ADV>
0.9925611019134521

> <PostDock Tanimoto ROCS sim>
0.9923325777053833

> <raw_Linker Num Aromatic Rings>
1.0

> <raw_Linker Effective Length>
8.0

> <raw_ADV>
-13.50100040435791

> <total_score>
0.9962234497070312

> <ID>
default_job_130

> <PostDock Tanimoto ROCS sim (re-score)>
0.9855801

> <raw_ADV (re-score)>
-13.489

$$$$
default_job_131
     RDKit          3D

 95103  0  0  1  0  0  0  0  0999 V2000
  -30.4780  -22.2680   20.1430 C   0  0  0  0  0  3  0  0  0  0  0  0
  -31.2270  -23.4510   20.1930 C   0  0  0  0  0  0  0  0  0  0  0  0
  -29.1120  -22.3640   20.4560 C   0  0  0  0  0  0  0  0  0  0  0  0
  -29.3650  -24.6220   20.8330 C   0  0  0  0  0  0  0  0  0  0  0  0
  -32.7030  -23.4710   19.8600 C   0  0  0  0  0  1  0  0  0  0  0  0
  -30.6640  -24.6240   20.5370 N   0  0  0  0  0  0  0  0  0  0  0  0
  -28.5730  -23.5510   20.8010 N   0  0  0  0  0  0  0  0  0  0  0  0
  -28.1390  -21.1860   20.4080 C   0  0  0  0  0  2  0  0  0  0  0  0
  -28.5830  -19.9650   19.7330 N   0  0  0  0  0  0  0  0  0  0  0  0
  -27.4870  -19.4020   18.9600 F   0  0  0  0  0  0  0  0  0  0  0  0
  -29.1580  -19.0170   20.6960 C   0  0  0  0  0  2  0  0  0  0  0  0
  -31.1990  -18.2660   19.4110 C   0  0  0  0  0  1  0  0  0  0  0  0
  -29.0550  -17.0320   19.0410 C   0  0  0  0  0  1  0  0  0  0  0  0
  -29.9090  -17.7770   20.1000 C   0  0  2  0  0  0  0  0  0  0  0  0
  -30.3170  -16.8400   21.2980 C   0  0  0  0  0  2  0  0  0  0  0  0
  -30.6670  -14.4590   20.5530 C   0  0  0  0  0  0  0  0  0  0  0  0
  -30.3710  -12.3280   19.3480 C   0  0  0  0  0  2  0  0  0  0  0  0
  -29.4320  -12.5620   18.1480 C   0  0  0  0  0  2  0  0  0  0  0  0
  -27.9550  -12.4210   18.5690 C   0  0  0  0  0  2  0  0  0  0  0  0
  -27.6180  -13.2380   19.8450 C   0  0  0  0  0  3  0  0  0  0  0  0
  -28.6670  -12.9780   20.9500 C   0  0  0  0  0  2  0  0  0  0  0  0
  -29.9970  -13.2870   20.3970 N   0  0  0  0  0  0  0  0  0  0  0  0
  -31.7760  -14.6810   20.0620 O   0  0  0  0  0  0  0  0  0  0  0  0
  -29.9600  -15.4230   21.1610 N   0  0  0  0  0  0  0  0  0  0  0  0
  -29.0560  -15.1480   21.5130 H   0  0  0  0  0  0  0  0  0  0  0  0
  -25.2090  -13.8470   20.5210 C   0  0  0  0  0  0  0  0  0  0  0  0
  -24.1390  -13.0740   20.8870 C   0  0  0  0  0  0  0  0  0  0  0  0
  -24.6040  -11.7240   20.8680 C   0  0  0  0  0  0  0  0  0  0  0  0
  -26.2600  -12.9660   20.3090 N   0  0  0  0  0  0  0  0  0  0  0  0
  -25.8960  -11.6850   20.5730 N   0  0  0  0  0  0  0  0  0  0  0  0
  -23.8790  -10.4600   21.0590 C   0  0  0  0  0  0  0  0  0  0  0  0
  -24.3180   -9.4900   21.9870 C   0  0  0  0  0  3  0  0  0  0  0  0
  -23.5960   -8.2900   22.1650 C   0  0  0  0  0  3  0  0  0  0  0  0
  -22.4200   -8.0540   21.4160 C   0  0  0  0  0  0  0  0  0  0  0  0
  -21.9990   -9.0120   20.4770 C   0  0  0  0  0  3  0  0  0  0  0  0
  -22.7210  -10.2030   20.2970 C   0  0  0  0  0  3  0  0  0  0  0  0
  -21.6670   -6.9070   21.5050 O   0  0  0  0  0  0  0  0  0  0  0  0
  -21.6400   -6.1510   22.6490 C   0  0  0  0  0  0  0  0  0  0  0  0
  -21.2490   -6.6930   23.8920 C   0  0  0  0  0  3  0  0  0  0  0  0
  -21.1700   -5.8640   25.0290 C   0  0  0  0  0  3  0  0  0  0  0  0
  -21.4710   -4.4930   24.9230 C   0  0  0  0  0  0  0  0  0  0  0  0
  -21.8540   -3.9500   23.6850 C   0  0  0  0  0  3  0  0  0  0  0  0
  -21.9360   -4.7770   22.5500 C   0  0  0  0  0  0  0  0  0  0  0  0
  -22.2870   -4.2450   21.3560 F   0  0  0  0  0  0  0  0  0  0  0  0
  -21.3870   -3.6940   26.0120 F   0  0  0  0  0  0  0  0  0  0  0  0
  -22.7390  -13.5490   21.1460 C   0  0  0  0  0  0  0  0  0  0  0  0
  -22.0050  -12.8560   22.0120 N   0  0  0  0  0  0  0  0  0  0  0  0
  -22.3010  -14.5710   20.6180 O   0  0  0  0  0  0  0  0  0  0  0  0
  -22.3700  -12.0280   22.4600 H   0  0  0  0  0  0  0  0  0  0  0  0
  -21.0660  -13.1590   22.2290 H   0  0  0  0  0  0  0  0  0  0  0  0
  -25.3700  -15.2160   20.3340 N   0  0  0  0  0  0  0  0  0  0  0  0
  -24.5960  -15.8660   20.4190 H   0  0  0  0  0  0  0  0  0  0  0  0
  -26.2140  -15.6520   19.9860 H   0  0  0  0  0  0  0  0  0  0  0  0
  -28.7250  -25.9570   21.2110 C   0  0  0  0  0  2  0  0  0  0  0  0
  -28.4670  -26.7760   20.0690 O   0  0  0  0  0  0  0  0  0  0  0  0
  -24.6670  -31.9180   23.2470 C   0  0  0  0  0  0  0  0  0  0  0  0
  -27.3060  -27.4980   20.1440 C   0  0  0  0  0  0  0  0  0  0  0  0
  -23.4510  -30.5020   21.6240 C   0  0  0  0  0  3  0  0  0  0  0  0
  -24.8990  -28.9660   20.1910 C   0  0  0  0  0  0  0  0  0  0  0  0
  -25.9710  -30.8730   21.4020 C   0  0  0  0  0  2  0  0  0  0  0  0
  -26.0580  -29.5020   20.7700 C   0  0  0  0  0  0  0  0  0  0  0  0
  -27.2660  -28.7720   20.7500 C   0  0  0  0  0  3  0  0  0  0  0  0
  -26.1370  -26.9680   19.5650 C   0  0  0  0  0  3  0  0  0  0  0  0
  -24.9300  -27.6940   19.5890 C   0  0  0  0  0  3  0  0  0  0  0  0
  -23.6500  -29.8170   20.2450 C   0  0  0  0  0  2  0  0  0  0  0  0
  -24.7160  -31.1090   22.1520 N   0  0  0  0  0  0  0  0  0  0  0  0
  -23.5860  -32.2090   23.7760 O   0  0  0  0  0  0  0  0  0  0  0  0
  -22.8140  -29.4810   22.5930 C   0  0  0  0  0  0  0  0  0  0  0  0
  -21.4900  -29.2860   22.4700 N   0  0  0  0  0  0  0  0  0  0  0  0
  -23.5050  -28.8650   23.4080 O   0  0  0  0  0  0  0  0  0  0  0  0
  -20.9950  -29.8350   21.7820 H   0  0  0  0  0  0  0  0  0  0  0  0
  -18.1310  -28.0520   22.9640 C   0  0  0  0  0  0  0  0  0  0  0  0
  -20.6840  -28.3440   23.2450 C   0  0  0  0  0  3  0  0  0  0  0  0
  -20.8070  -26.9100   22.6810 C   0  0  0  0  0  2  0  0  0  0  0  0
  -19.7140  -26.5640   21.6660 C   0  0  0  0  0  2  0  0  0  0  0  0
  -18.3280  -26.6980   22.3030 C   0  0  0  0  0  2  0  0  0  0  0  0
  -19.2380  -28.8310   23.3920 C   0  0  0  0  0  0  0  0  0  0  0  0
  -19.0010  -30.0980   23.9700 C   0  0  0  0  0  3  0  0  0  0  0  0
  -17.6900  -30.5850   24.1230 C   0  0  0  0  0  3  0  0  0  0  0  0
  -16.5970  -29.8030   23.7120 C   0  0  0  0  0  3  0  0  0  0  0  0
  -16.8180  -28.5380   23.1380 C   0  0  0  0  0  3  0  0  0  0  0  0
  -25.9600  -32.5430   23.8630 C   0  0  0  0  0  3  0  0  0  0  0  0
  -25.6560  -33.9390   24.1990 N   0  0  0  0  0  0  0  0  0  0  0  0
  -25.9710  -34.9920   23.4310 C   0  0  0  0  0  0  0  0  0  0  0  0
  -26.6230  -34.8880   22.3890 O   0  0  0  0  0  0  0  0  0  0  0  0
  -25.0770  -34.0930   25.0110 H   0  0  0  0  0  0  0  0  0  0  0  0
  -24.2250  -36.7700   23.1070 C   0  0  0  0  0  1  0  0  0  0  0  0
  -25.4850  -36.3780   23.8940 C   0  0  0  0  0  3  0  0  0  0  0  0
  -27.6330  -37.2740   24.6770 C   0  0  0  0  0  1  0  0  0  0  0  0
  -26.5090  -37.4350   23.7570 N   0  0  0  0  0  0  0  0  0  0  0  0
  -26.1020  -38.3540   23.9120 H   0  0  0  0  0  0  0  0  0  0  0  0
  -26.4930  -31.7670   25.1290 C   0  0  1  0  0  0  0  0  0  0  0  0
  -25.4120  -31.5240   26.2070 C   0  0  0  0  0  1  0  0  0  0  0  0
  -27.0740  -30.3930   24.7220 C   0  0  0  0  0  1  0  0  0  0  0  0
  -27.6510  -32.5600   25.7800 C   0  0  0  0  0  1  0  0  0  0  0  0
  1  2  2  0
  1  3  1  0
  2  6  1  0
  3  7  2  0
  4 54  1  0
  5  2  1  0
  6  4  2  0
  7  4  1  0
  8  3  1  0
  9  8  1  0
  9 11  1  0
 10  9  1  0
 14 12  1  6
 13 14  1  0
 14 11  1  0
 14 15  1  0
 16 24  1  0
 17 22  1  0
 18 19  1  0
 18 17  1  0
 20 19  1  0
 20 29  1  0
 20 21  1  0
 22 16  1  0
 22 21  1  0
 23 16  2  0
 24 15  1  0
 24 25  1  0
 26 27  2  0
 27 46  1  0
 28 27  1  0
 28 31  1  0
 29 26  1  0
 29 30  1  0
 30 28  2  0
 31 32  1  0
 32 33  2  0
 34 37  1  0
 34 33  1  0
 35 34  2  0
 36 35  1  0
 36 31  2  0
 37 38  1  0
 38 39  1  0
 39 40  2  0
 41 40  1  0
 41 45  1  0
 42 41  2  0
 43 38  2  0
 43 42  1  0
 44 43  1  0
 46 47  1  0
 47 50  1  0
 47 49  1  0
 48 46  2  0
 51 52  1  0
 51 26  1  0
 53 51  1  0
 55 57  1  0
 55 54  1  0
 56 67  2  0
 57 62  1  0
 58 66  1  0
 58 68  1  0
 59 65  1  0
 59 61  1  0
 60 66  1  0
 61 60  1  0
 62 61  2  0
 63 64  1  0
 63 57  2  0
 64 59  2  0
 65 58  1  0
 66 56  1  0
 68 70  2  0
 69 68  1  0
 71 69  1  0
 72 81  2  0
 72 77  1  0
 73 69  1  0
 73 77  1  0
 74 73  1  0
 75 76  1  0
 75 74  1  0
 76 72  1  0
 77 78  2  0
 78 79  1  0
 80 79  2  0
 81 80  1  0
 82 56  1  0
 82 83  1  0
 82 92  1  0
 83 86  1  0
 84 88  1  0
 84 83  1  0
 85 84  2  0
 88 87  1  0
 90 88  1  0
 90 91  1  0
 90 89  1  0
 92 95  1  1
 92 93  1  0
 94 92  1  0
M  ISO  4  16 100  24 100  54 101  55 101
M  END
>  <TORSDO>  (32) 
F 22

>  <SCORE>  (32) 
-13.413

>  <name>  (32) 
31

>  <ligand_id>  (32) 
31

>  <original_smiles>  (32) 
[H]c1c(C([H])([H])[H])nc(C([H])([H])Oc2c([H])c([H])c3c(c2[H])C([H])([H])N(C(=O)C([H])(N([H])C(=O)C([H])(N([H])C([H])([H])[H])C([H])([H])[H])C(C([H])([H])[H])(C([H])([H])[H])C([H])([H])[H])C([H])(C(=O)N([H])C2([H])c4c([H])c([H])c([H])c([H])c4C([H])([H])C([H])([H])C2([H])[H])C3([H])[H])nc1C([H])([H])N(F)C([H])([H])C(C([H])([H])[H])(C([H])([H])[H])C([H])([H])N([H])C(=O)N1C([H])([H])C([H])([H])C([H])([H])C([H])(n2nc(-c3c([H])c([H])c(Oc4c([H])c([H])c(F)c([H])c4F)c([H])c3[H])c(C(=O)N([H])[H])c2N([H])[H])C1([H])[H]

>  <smiles>  (32) 
[H]c1c(C([H])([H])[H])nc(C([H])([H])Oc2c([H])c([H])c3c(c2[H])C([H])([H])N(C(=O)C([H])(N([H])C(=O)C([H])(N([H])C([H])([H])[H])C([H])([H])[H])C(C([H])([H])[H])(C([H])([H])[H])C([H])([H])[H])C([H])(C(=O)N([H])C2([H])c4c([H])c([H])c([H])c([H])c4C([H])([H])C([H])([H])C2([H])[H])C3([H])[H])nc1C([H])([H])N(F)C([H])([H])C(C([H])([H])[H])(C([H])([H])[H])C([H])([H])N([H])C(=O)N1C([H])([H])C([H])([H])C([H])([H])C([H])(n2nc(-c3c([H])c([H])c(Oc4c([H])c([H])c(F)c([H])c4F)c([H])c3[H])c(C(=O)N([H])[H])c2N([H])[H])C1([H])[H]

> <Step>
49.0

> <Scaffold>
O=C(NC1CCCc2ccccc21)C1Cc2ccc(OCc3nccc(CNCCCNC(=O)N4CCCC(n5ccc(-c6ccc(Oc7ccccc7)cc6)n5)C4)n3)cc2CN1

> <SMILES>
CNC(C)C(=O)NC(C(=O)N1Cc2cc(OCc3nc(C)cc(CN(F)CC(C)(C)CNC(=O)N4CCCC(n5nc(-c6ccc(Oc7ccc(F)cc7F)cc6)c(C(N)=O)c5N)C4)n3)ccc2CC1C(=O)NC1CCCc2ccccc21)C(C)(C)C

> <Tanimoto ROCS sim>
0.224155992269516

> <Custom alerts>
1.0

> <Linker Num Aromatic Rings>
1.0

> <Linker Effective Length>
1.0

> <ADV>
0.9921417832374573

> <PostDock Tanimoto ROCS sim>
0.9927404522895813

> <raw_Linker Num Aromatic Rings>
1.0

> <raw_Linker Effective Length>
9.0

> <raw_ADV>
-13.404999732971191

> <total_score>
0.9962205290794373

> <ID>
default_job_131

> <PostDock Tanimoto ROCS sim (re-score)>
0.9846436

> <raw_ADV (re-score)>
-13.413

$$$$
default_job_132
     RDKit          3D

 96105  0  0  1  0  0  0  0  0999 V2000
  -32.1860  -22.3020   20.1600 C   0  0  0  0  0  0  0  0  0  0  0  0
  -31.2120  -23.3020   19.9050 C   0  0  0  0  0  0  0  0  0  0  0  0
  -31.7670  -21.0460   20.6630 C   0  0  0  0  0  0  0  0  0  0  0  0
  -29.8360  -22.9970   20.0720 C   0  0  0  0  0  0  0  0  0  0  0  0
  -30.3860  -20.8070   20.8310 C   0  0  0  0  0  0  0  0  0  0  0  0
  -33.6700  -22.5610   19.8950 C   0  0  0  0  0  1  0  0  0  0  0  0
  -31.6510  -24.6930   19.4460 C   0  0  0  0  0  1  0  0  0  0  0  0
  -32.7960  -19.9720   21.0320 C   0  0  0  0  0  1  0  0  0  0  0  0
  -29.4540  -21.7630   20.5470 N   0  0  0  0  0  0  0  0  0  0  0  0
  -27.4980  -23.3110   19.0590 C   0  0  0  0  0  1  0  0  0  0  0  0
  -28.7330  -24.0330   19.6330 C   0  0  0  0  0  3  0  0  0  0  0  0
  -28.3510  -25.1950   20.6420 C   0  0  0  0  0  2  0  0  0  0  0  0
  -28.4050  -26.5820   20.1570 O   0  0  0  0  0  0  0  0  0  0  0  0
  -24.6400  -31.8910   23.2520 C   0  0  0  0  0  0  0  0  0  0  0  0
  -27.2480  -27.3590   20.1920 C   0  0  0  0  0  0  0  0  0  0  0  0
  -23.4230  -30.4780   21.6310 C   0  0  0  0  0  3  0  0  0  0  0  0
  -24.8660  -28.9230   20.2050 C   0  0  0  0  0  0  0  0  0  0  0  0
  -25.9570  -30.8070   21.4290 C   0  0  0  0  0  2  0  0  0  0  0  0
  -26.0340  -29.4300   20.7870 C   0  0  0  0  0  0  0  0  0  0  0  0
  -27.2300  -28.6610   20.7690 C   0  0  0  0  0  3  0  0  0  0  0  0
  -26.0600  -26.8860   19.6010 C   0  0  0  0  0  3  0  0  0  0  0  0
  -24.8770  -27.6520   19.6040 C   0  0  0  0  0  3  0  0  0  0  0  0
  -23.6270  -29.7910   20.2540 C   0  0  0  0  0  2  0  0  0  0  0  0
  -24.6930  -31.0720   22.1620 N   0  0  0  0  0  0  0  0  0  0  0  0
  -23.5560  -32.1970   23.7680 O   0  0  0  0  0  0  0  0  0  0  0  0
  -22.7690  -29.4650   22.6000 C   0  0  0  0  0  0  0  0  0  0  0  0
  -21.4450  -29.2800   22.4740 N   0  0  0  0  0  0  0  0  0  0  0  0
  -23.4510  -28.8480   23.4200 O   0  0  0  0  0  0  0  0  0  0  0  0
  -20.9530  -29.8270   21.7800 H   0  0  0  0  0  0  0  0  0  0  0  0
  -18.0740  -28.0670   22.9680 C   0  0  0  0  0  0  0  0  0  0  0  0
  -20.6280  -28.3440   23.2480 C   0  0  0  0  0  3  0  0  0  0  0  0
  -20.7430  -26.9090   22.6830 C   0  0  0  0  0  2  0  0  0  0  0  0
  -19.6490  -26.5720   21.6660 C   0  0  0  0  0  2  0  0  0  0  0  0
  -18.2630  -26.7140   22.3020 C   0  0  0  0  0  2  0  0  0  0  0  0
  -19.1860  -28.8390   23.3960 C   0  0  0  0  0  0  0  0  0  0  0  0
  -18.9570  -30.1060   23.9770 C   0  0  0  0  0  3  0  0  0  0  0  0
  -17.6480  -30.6020   24.1300 C   0  0  0  0  0  3  0  0  0  0  0  0
  -16.5510  -29.8270   23.7180 C   0  0  0  0  0  3  0  0  0  0  0  0
  -16.7650  -28.5600   23.1460 C   0  0  0  0  0  3  0  0  0  0  0  0
  -25.9300  -32.5120   23.8740 C   0  0  0  0  0  3  0  0  0  0  0  0
  -26.4490  -31.7360   25.1480 C   0  0  1  0  0  0  0  0  0  0  0  0
  -25.3590  -31.5020   26.2180 C   0  0  0  0  0  1  0  0  0  0  0  0
  -27.0260  -30.3560   24.7520 C   0  0  0  0  0  1  0  0  0  0  0  0
  -27.6080  -32.5240   25.8050 C   0  0  0  0  0  1  0  0  0  0  0  0
  -25.6290  -33.9090   24.2100 N   0  0  0  0  0  0  0  0  0  0  0  0
  -25.9540  -34.9610   23.4450 C   0  0  0  0  0  0  0  0  0  0  0  0
  -26.6120  -34.8550   22.4060 O   0  0  0  0  0  0  0  0  0  0  0  0
  -25.0430  -34.0650   25.0170 H   0  0  0  0  0  0  0  0  0  0  0  0
  -24.2180  -36.7490   23.1090 C   0  0  0  0  0  1  0  0  0  0  0  0
  -25.4710  -36.3500   23.9040 C   0  0  0  0  0  3  0  0  0  0  0  0
  -27.6180  -37.2340   24.7000 C   0  0  0  0  0  1  0  0  0  0  0  0
  -26.5020  -37.4020   23.7730 N   0  0  0  0  0  0  0  0  0  0  0  0
  -26.1000  -38.3230   23.9240 H   0  0  0  0  0  0  0  0  0  0  0  0
  -29.9500  -19.5820   21.3970 N   0  0  0  0  0  0  0  0  0  0  0  0
  -30.4740  -19.3940   22.2420 H   0  0  0  0  0  0  0  0  0  0  0  0
  -30.6720  -14.6580   20.3920 C   0  0  0  0  0  0  0  0  0  0  0  0
  -30.3830  -12.4350   19.3080 C   0  0  0  0  0  2  0  0  0  0  0  0
  -29.4380  -12.5290   18.0930 C   0  0  0  0  0  2  0  0  0  0  0  0
  -27.9730  -12.3360   18.5300 C   0  0  0  0  0  2  0  0  0  0  0  0
  -27.6020  -13.2150   19.7490 C   0  0  0  0  0  3  0  0  0  0  0  0
  -28.6740  -13.1220   20.8670 C   0  0  0  0  0  2  0  0  0  0  0  0
  -29.9700  -13.4800   20.2720 N   0  0  0  0  0  0  0  0  0  0  0  0
  -31.8660  -14.6890   20.0730 O   0  0  0  0  0  0  0  0  0  0  0  0
  -28.4910  -17.7350   20.6640 C   0  0  0  0  0  2  0  0  0  0  0  0
  -28.6850  -16.2440   20.3690 C   0  0  0  0  0  2  0  0  0  0  0  0
  -30.7570  -17.1250   21.0410 C   0  0  0  0  0  2  0  0  0  0  0  0
  -29.8770  -18.3440   20.5840 C   0  0  0  0  0  3  0  0  0  0  0  0
  -30.0450  -15.8430   20.7480 N   0  0  0  0  0  0  0  0  0  0  0  0
  -25.2140  -13.8410   20.4690 C   0  0  0  0  0  0  0  0  0  0  0  0
  -24.1470  -13.0750   20.8480 C   0  0  0  0  0  0  0  0  0  0  0  0
  -24.6110  -11.7240   20.8360 C   0  0  0  0  0  0  0  0  0  0  0  0
  -26.2580  -12.9530   20.2460 N   0  0  0  0  0  0  0  0  0  0  0  0
  -25.9000  -11.6780   20.5300 N   0  0  0  0  0  0  0  0  0  0  0  0
  -23.8870  -10.4650   21.0340 C   0  0  0  0  0  0  0  0  0  0  0  0
  -24.3300   -9.5000   21.9650 C   0  0  0  0  0  3  0  0  0  0  0  0
  -23.6050   -8.3030   22.1490 C   0  0  0  0  0  3  0  0  0  0  0  0
  -22.4270   -8.0640   21.4040 C   0  0  0  0  0  0  0  0  0  0  0  0
  -22.0060   -9.0180   20.4600 C   0  0  0  0  0  3  0  0  0  0  0  0
  -22.7300  -10.2060   20.2730 C   0  0  0  0  0  3  0  0  0  0  0  0
  -21.6740   -6.9190   21.4990 O   0  0  0  0  0  0  0  0  0  0  0  0
  -21.6460   -6.1710   22.6490 C   0  0  0  0  0  0  0  0  0  0  0  0
  -21.2540   -6.7240   23.8870 C   0  0  0  0  0  3  0  0  0  0  0  0
  -21.1740   -5.9020   25.0290 C   0  0  0  0  0  3  0  0  0  0  0  0
  -21.4750   -4.5310   24.9350 C   0  0  0  0  0  0  0  0  0  0  0  0
  -21.8610   -3.9790   23.7010 C   0  0  0  0  0  3  0  0  0  0  0  0
  -21.9440   -4.7960   22.5600 C   0  0  0  0  0  0  0  0  0  0  0  0
  -22.2970   -4.2560   21.3700 F   0  0  0  0  0  0  0  0  0  0  0  0
  -21.3890   -3.7400   26.0300 F   0  0  0  0  0  0  0  0  0  0  0  0
  -22.7480  -13.5570   21.1070 C   0  0  0  0  0  0  0  0  0  0  0  0
  -22.0150  -12.8730   21.9780 N   0  0  0  0  0  0  0  0  0  0  0  0
  -22.3140  -14.5770   20.5720 O   0  0  0  0  0  0  0  0  0  0  0  0
  -22.3800  -12.0530   22.4370 H   0  0  0  0  0  0  0  0  0  0  0  0
  -21.0750  -13.1770   22.1900 H   0  0  0  0  0  0  0  0  0  0  0  0
  -25.3620  -15.2100   20.2680 N   0  0  0  0  0  0  0  0  0  0  0  0
  -24.5830  -15.8490   20.3720 H   0  0  0  0  0  0  0  0  0  0  0  0
  -26.1960  -15.6570   19.9080 H   0  0  0  0  0  0  0  0  0  0  0  0
  1  3  1  0
  2  4  1  0
  2  1  2  0
  3  5  2  0
  3  8  1  0
  4  9  2  0
  5 54  1  0
  6  1  1  0
  7  2  1  0
  9  5  1  0
 11 10  1  0
 11  4  1  0
 11 12  1  0
 13 15  1  0
 13 12  1  0
 14 25  2  0
 15 20  1  0
 16 24  1  0
 16 26  1  0
 17 23  1  0
 17 19  1  0
 18 24  1  0
 19 18  1  0
 20 19  2  0
 21 22  1  0
 21 15  2  0
 22 17  2  0
 23 16  1  0
 24 14  1  0
 26 28  2  0
 27 26  1  0
 29 27  1  0
 30 39  2  0
 30 35  1  0
 31 27  1  0
 31 35  1  0
 32 31  1  0
 33 34  1  0
 33 32  1  0
 34 30  1  0
 35 36  2  0
 36 37  1  0
 38 37  2  0
 39 38  1  0
 40 14  1  0
 40 45  1  0
 40 41  1  0
 41 44  1  1
 41 42  1  0
 43 41  1  0
 45 48  1  0
 46 50  1  0
 46 45  1  0
 47 46  2  0
 50 49  1  0
 52 50  1  0
 52 53  1  0
 52 51  1  0
 54 55  1  0
 56 68  1  0
 57 62  1  0
 58 59  1  0
 58 57  1  0
 60 59  1  0
 60 72  1  0
 60 61  1  0
 62 56  1  0
 62 61  1  0
 63 56  2  0
 65 64  1  0
 65 68  1  0
 67 64  1  0
 67 66  1  0
 67 54  1  0
 68 66  1  0
 69 70  2  0
 70 89  1  0
 71 70  1  0
 71 74  1  0
 72 69  1  0
 72 73  1  0
 73 71  2  0
 74 75  1  0
 75 76  2  0
 77 80  1  0
 77 76  1  0
 78 77  2  0
 79 78  1  0
 79 74  2  0
 80 81  1  0
 81 82  1  0
 82 83  2  0
 84 83  1  0
 84 88  1  0
 85 84  2  0
 86 81  2  0
 86 85  1  0
 87 86  1  0
 89 90  1  0
 90 93  1  0
 90 92  1  0
 91 89  2  0
 94 95  1  0
 94 69  1  0
 96 94  1  0
M  ISO  4  12 101  13 101  56 100  68 100
M  END
>  <TORSDO>  (33) 
F 19

>  <SCORE>  (33) 
-14.677

>  <name>  (33) 
32

>  <ligand_id>  (33) 
32

>  <original_smiles>  (33) 
[H]c1c([H])c([H])c2c(c1[H])C([H])([H])C([H])([H])C([H])([H])C2([H])N([H])C(=O)C1([H])N(C(=O)C([H])(N([H])C(=O)C([H])(N([H])C([H])([H])[H])C([H])([H])[H])C(C([H])([H])[H])(C([H])([H])[H])C([H])([H])[H])C([H])([H])c2c([H])c(OC([H])([H])C([H])(c3nc(N([H])C4([H])C([H])([H])N(C(=O)N5C([H])([H])C([H])([H])C([H])([H])C([H])(n6nc(-c7c([H])c([H])c(Oc8c([H])c([H])c(F)c([H])c8F)c([H])c7[H])c(C(=O)N([H])[H])c6N([H])[H])C5([H])[H])C([H])([H])C4([H])[H])c(C([H])([H])[H])c(C([H])([H])[H])c3C([H])([H])[H])C([H])([H])[H])c([H])c([H])c2C1([H])[H]

>  <smiles>  (33) 
[H]c1c([H])c([H])c2c(c1[H])C([H])([H])C([H])([H])C([H])([H])C2([H])N([H])C(=O)C1([H])N(C(=O)C([H])(N([H])C(=O)C([H])(N([H])C([H])([H])[H])C([H])([H])[H])C(C([H])([H])[H])(C([H])([H])[H])C([H])([H])[H])C([H])([H])c2c([H])c(OC([H])([H])C([H])(c3nc(N([H])C4([H])C([H])([H])N(C(=O)N5C([H])([H])C([H])([H])C([H])([H])C([H])(n6nc(-c7c([H])c([H])c(Oc8c([H])c([H])c(F)c([H])c8F)c([H])c7[H])c(C(=O)N([H])[H])c6N([H])[H])C5([H])[H])C([H])([H])C4([H])[H])c(C([H])([H])[H])c(C([H])([H])[H])c3C([H])([H])[H])C([H])([H])[H])c([H])c([H])c2C1([H])[H]

> <Step>
165.0

> <Scaffold>
O=C(NC1CCCc2ccccc21)C1Cc2ccc(OCCc3cccc(NC4CCN(C(=O)N5CCCC(n6ccc(-c7ccc(Oc8ccccc8)cc7)n6)C5)C4)n3)cc2CN1

> <SMILES>
CNC(C)C(=O)NC(C(=O)N1Cc2cc(OCC(C)c3nc(NC4CCN(C(=O)N5CCCC(n6nc(-c7ccc(Oc8ccc(F)cc8F)cc7)c(C(N)=O)c6N)C5)C4)c(C)c(C)c3C)ccc2CC1C(=O)NC1CCCc2ccccc21)C(C)(C)C

> <Tanimoto ROCS sim>
0.22559785842895508

> <Custom alerts>
1.0

> <Linker Num Aromatic Rings>
1.0

> <Linker Effective Length>
1.0

> <ADV>
0.9962211847305298

> <PostDock Tanimoto ROCS sim>
0.9886599183082581

> <raw_Linker Num Aromatic Rings>
1.0

> <raw_Linker Effective Length>
8.0

> <raw_ADV>
-14.684000015258789

> <total_score>
0.9962202310562134

> <ID>
default_job_132

> <PostDock Tanimoto ROCS sim (re-score)>
0.98142266

> <raw_ADV (re-score)>
-14.677

$$$$
default_job_133
     RDKit          3D

 91 99  0  0  1  0  0  0  0  0999 V2000
  -28.4930  -19.9910   20.7260 C   0  0  0  0  0  3  0  0  0  0  0  0
  -30.8440  -20.1640   21.0200 C   0  0  0  0  0  3  0  0  0  0  0  0
  -29.7500  -19.3690   20.6340 C   0  0  0  0  0  0  0  0  0  0  0  0
  -29.4450  -21.9250   21.4930 C   0  0  0  0  0  0  0  0  0  0  0  0
  -28.3500  -21.2600   21.1540 N   0  0  0  0  0  0  0  0  0  0  0  0
  -30.6850  -21.4410   21.4380 N   0  0  0  0  0  0  0  0  0  0  0  0
  -30.7090  -17.8630   18.8300 C   0  0  0  0  0  1  0  0  0  0  0  0
  -29.8700  -17.9270   20.1180 C   0  0  0  0  0  3  0  0  0  0  0  0
  -30.3560  -16.9270   21.2010 C   0  0  0  0  0  2  0  0  0  0  0  0
  -30.6820  -14.5210   20.4500 C   0  0  0  0  0  0  0  0  0  0  0  0
  -30.3760  -12.3700   19.2740 C   0  0  0  0  0  2  0  0  0  0  0  0
  -29.4220  -12.5780   18.0820 C   0  0  0  0  0  2  0  0  0  0  0  0
  -27.9510  -12.4430   18.5280 C   0  0  0  0  0  2  0  0  0  0  0  0
  -27.6260  -13.2730   19.7990 C   0  0  0  0  0  3  0  0  0  0  0  0
  -28.6920  -13.0410   20.8940 C   0  0  0  0  0  2  0  0  0  0  0  0
  -30.0100  -13.3470   20.3100 N   0  0  0  0  0  0  0  0  0  0  0  0
  -31.8250  -14.7000   20.0270 O   0  0  0  0  0  0  0  0  0  0  0  0
  -29.9500  -15.5350   20.9460 N   0  0  0  0  0  0  0  0  0  0  0  0
  -29.0020  -15.2940   21.1910 H   0  0  0  0  0  0  0  0  0  0  0  0
  -25.2250  -13.8830   20.5120 C   0  0  0  0  0  0  0  0  0  0  0  0
  -24.1570  -13.1110   20.8840 C   0  0  0  0  0  0  0  0  0  0  0  0
  -24.6190  -11.7600   20.8580 C   0  0  0  0  0  0  0  0  0  0  0  0
  -26.2720  -13.0020   20.2850 N   0  0  0  0  0  0  0  0  0  0  0  0
  -25.9110  -11.7200   20.5500 N   0  0  0  0  0  0  0  0  0  0  0  0
  -23.8940  -10.4980   21.0500 C   0  0  0  0  0  0  0  0  0  0  0  0
  -24.3310   -9.5300   21.9820 C   0  0  0  0  0  3  0  0  0  0  0  0
  -23.6040   -8.3320   22.1630 C   0  0  0  0  0  3  0  0  0  0  0  0
  -22.4270   -8.0950   21.4120 C   0  0  0  0  0  0  0  0  0  0  0  0
  -22.0100   -9.0540   20.4710 C   0  0  0  0  0  3  0  0  0  0  0  0
  -22.7380  -10.2410   20.2880 C   0  0  0  0  0  3  0  0  0  0  0  0
  -21.6710   -6.9510   21.5050 O   0  0  0  0  0  0  0  0  0  0  0  0
  -21.6350   -6.2020   22.6540 C   0  0  0  0  0  0  0  0  0  0  0  0
  -21.2280   -6.7530   23.8890 C   0  0  0  0  0  3  0  0  0  0  0  0
  -21.1380   -5.9300   25.0310 C   0  0  0  0  0  3  0  0  0  0  0  0
  -21.4470   -4.5610   24.9390 C   0  0  0  0  0  0  0  0  0  0  0  0
  -21.8470   -4.0110   23.7070 C   0  0  0  0  0  3  0  0  0  0  0  0
  -21.9380   -4.8290   22.5700 C   0  0  0  0  0  0  0  0  0  0  0  0
  -22.3040   -4.2900   21.3800 F   0  0  0  0  0  0  0  0  0  0  0  0
  -21.3520   -3.7690   26.0320 F   0  0  0  0  0  0  0  0  0  0  0  0
  -22.7590  -13.5870   21.1550 C   0  0  0  0  0  0  0  0  0  0  0  0
  -22.0290  -12.8900   22.0190 N   0  0  0  0  0  0  0  0  0  0  0  0
  -22.3210  -14.6110   20.6320 O   0  0  0  0  0  0  0  0  0  0  0  0
  -22.3970  -12.0600   22.4620 H   0  0  0  0  0  0  0  0  0  0  0  0
  -21.0920  -13.1910   22.2440 H   0  0  0  0  0  0  0  0  0  0  0  0
  -25.3820  -15.2530   20.3290 N   0  0  0  0  0  0  0  0  0  0  0  0
  -24.6100  -15.8980   20.4360 H   0  0  0  0  0  0  0  0  0  0  0  0
  -26.2200  -15.6970   19.9720 H   0  0  0  0  0  0  0  0  0  0  0  0
  -29.2350  -23.3610   21.9750 C   0  0  0  0  0  2  0  0  0  0  0  0
  -29.0360  -24.3890   20.8320 C   0  0  0  0  0  2  0  0  0  0  0  0
  -28.5300  -25.7700   21.3150 C   0  0  0  0  0  2  0  0  0  0  0  0
  -28.4230  -26.7110   20.2320 O   0  0  0  0  0  0  0  0  0  0  0  0
  -24.5910  -31.9110   23.2590 C   0  0  0  0  0  0  0  0  0  0  0  0
  -27.2660  -27.4550   20.2340 C   0  0  0  0  0  0  0  0  0  0  0  0
  -23.3990  -30.4890   21.6280 C   0  0  0  0  0  3  0  0  0  0  0  0
  -24.8660  -28.9470   20.2190 C   0  0  0  0  0  0  0  0  0  0  0  0
  -25.9250  -30.8530   21.4410 C   0  0  0  0  0  2  0  0  0  0  0  0
  -26.0180  -29.4810   20.8090 C   0  0  0  0  0  0  0  0  0  0  0  0
  -27.2230  -28.7410   20.8190 C   0  0  0  0  0  3  0  0  0  0  0  0
  -26.1020  -26.9330   19.6330 C   0  0  0  0  0  3  0  0  0  0  0  0
  -24.9010  -27.6700   19.6290 C   0  0  0  0  0  3  0  0  0  0  0  0
  -23.6190  -29.8010   20.2530 C   0  0  0  0  0  2  0  0  0  0  0  0
  -24.6560  -31.0950   22.1690 N   0  0  0  0  0  0  0  0  0  0  0  0
  -23.5030  -32.2170   23.7600 O   0  0  0  0  0  0  0  0  0  0  0  0
  -22.7460  -29.4730   22.5950 C   0  0  0  0  0  0  0  0  0  0  0  0
  -21.4250  -29.2810   22.4580 N   0  0  0  0  0  0  0  0  0  0  0  0
  -23.4270  -28.8550   23.4200 O   0  0  0  0  0  0  0  0  0  0  0  0
  -20.9390  -29.8280   21.7610 H   0  0  0  0  0  0  0  0  0  0  0  0
  -18.0520  -28.0670   22.9350 C   0  0  0  0  0  0  0  0  0  0  0  0
  -20.6080  -28.3420   23.2260 C   0  0  0  0  0  3  0  0  0  0  0  0
  -20.7240  -26.9100   22.6560 C   0  0  0  0  0  2  0  0  0  0  0  0
  -19.6310  -26.5780   21.6350 C   0  0  0  0  0  2  0  0  0  0  0  0
  -18.2420  -26.7170   22.2650 C   0  0  0  0  0  2  0  0  0  0  0  0
  -19.1630  -28.8370   23.3710 C   0  0  0  0  0  0  0  0  0  0  0  0
  -18.9340  -30.1010   23.9560 C   0  0  0  0  0  3  0  0  0  0  0  0
  -17.6260  -30.5960   24.1120 C   0  0  0  0  0  3  0  0  0  0  0  0
  -16.5280  -29.8250   23.6910 C   0  0  0  0  0  3  0  0  0  0  0  0
  -16.7430  -28.5610   23.1090 C   0  0  0  0  0  3  0  0  0  0  0  0
  -25.8750  -32.5320   23.8950 C   0  0  0  0  0  3  0  0  0  0  0  0
  -25.5710  -33.9310   24.2170 N   0  0  0  0  0  0  0  0  0  0  0  0
  -25.9010  -34.9770   23.4500 C   0  0  0  0  0  0  0  0  0  0  0  0
  -26.5730  -34.8670   22.4190 O   0  0  0  0  0  0  0  0  0  0  0  0
  -24.9780  -34.0920   25.0160 H   0  0  0  0  0  0  0  0  0  0  0  0
  -24.1680  -36.7630   23.0880 C   0  0  0  0  0  1  0  0  0  0  0  0
  -25.4110  -36.3670   23.8990 C   0  0  0  0  0  3  0  0  0  0  0  0
  -27.5460  -37.2600   24.7140 C   0  0  0  0  0  1  0  0  0  0  0  0
  -26.4360  -37.4250   23.7780 N   0  0  0  0  0  0  0  0  0  0  0  0
  -26.0270  -38.3420   23.9330 H   0  0  0  0  0  0  0  0  0  0  0  0
  -26.3840  -31.7610   25.1760 C   0  0  1  0  0  0  0  0  0  0  0  0
  -25.2800  -31.5280   26.2340 C   0  0  0  0  0  1  0  0  0  0  0  0
  -26.9740  -30.3850   24.7890 C   0  0  0  0  0  1  0  0  0  0  0  0
  -27.5360  -32.5580   25.8370 C   0  0  0  0  0  1  0  0  0  0  0  0
  1  5  1  0
  2  6  2  0
  3  1  2  0
  3  2  1  0
  4 48  1  0
  5  4  2  0
  6  4  1  0
  8  7  1  0
  8  3  1  0
  8  9  1  0
 10 18  1  0
 11 16  1  0
 12 13  1  0
 12 11  1  0
 14 13  1  0
 14 23  1  0
 14 15  1  0
 16 10  1  0
 16 15  1  0
 17 10  2  0
 18 19  1  0
 18  9  1  0
 20 21  2  0
 21 40  1  0
 22 21  1  0
 22 25  1  0
 23 20  1  0
 23 24  1  0
 24 22  2  0
 25 26  1  0
 26 27  2  0
 28 31  1  0
 28 27  1  0
 29 28  2  0
 30 29  1  0
 30 25  2  0
 31 32  1  0
 32 33  1  0
 33 34  2  0
 35 34  1  0
 35 39  1  0
 36 35  2  0
 37 32  2  0
 37 36  1  0
 38 37  1  0
 40 41  1  0
 41 44  1  0
 41 43  1  0
 42 40  2  0
 45 46  1  0
 45 20  1  0
 47 45  1  0
 49 50  1  0
 49 48  1  0
 51 53  1  0
 51 50  1  0
 52 63  2  0
 53 58  1  0
 54 62  1  0
 54 64  1  0
 55 61  1  0
 55 57  1  0
 56 62  1  0
 57 58  2  0
 57 56  1  0
 59 53  2  0
 60 59  1  0
 60 55  2  0
 61 54  1  0
 62 52  1  0
 64 66  2  0
 65 64  1  0
 67 65  1  0
 68 77  2  0
 68 73  1  0
 69 65  1  0
 69 73  1  0
 70 69  1  0
 71 72  1  0
 71 70  1  0
 72 68  1  0
 73 74  2  0
 74 75  1  0
 76 75  2  0
 77 76  1  0
 78 52  1  0
 78 79  1  0
 78 88  1  0
 79 82  1  0
 80 84  1  0
 80 79  1  0
 81 80  2  0
 84 83  1  0
 86 84  1  0
 86 87  1  0
 86 85  1  0
 88 91  1  1
 88 89  1  0
 90 88  1  0
M  ISO  4  10 100  18 100  50 101  51 101
M  END
>  <TORSDO>  (34) 
F 21

>  <SCORE>  (34) 
-13.803

>  <name>  (34) 
33

>  <ligand_id>  (34) 
33

>  <original_smiles>  (34) 
[H]c1nc(C([H])([H])C([H])([H])C([H])([H])Oc2c([H])c([H])c3c(c2[H])C([H])([H])N(C(=O)C([H])(N([H])C(=O)C([H])(N([H])C([H])([H])[H])C([H])([H])[H])C(C([H])([H])[H])(C([H])([H])[H])C([H])([H])[H])C([H])(C(=O)N([H])C2([H])c4c([H])c([H])c([H])c([H])c4C([H])([H])C([H])([H])C2([H])[H])C3([H])[H])nc([H])c1C([H])(C([H])([H])[H])C([H])([H])N([H])C(=O)N1C([H])([H])C([H])([H])C([H])([H])C([H])(n2nc(-c3c([H])c([H])c(Oc4c([H])c([H])c(F)c([H])c4F)c([H])c3[H])c(C(=O)N([H])[H])c2N([H])[H])C1([H])[H]

>  <smiles>  (34) 
[H]c1nc(C([H])([H])C([H])([H])C([H])([H])Oc2c([H])c([H])c3c(c2[H])C([H])([H])N(C(=O)C([H])(N([H])C(=O)C([H])(N([H])C([H])([H])[H])C([H])([H])[H])C(C([H])([H])[H])(C([H])([H])[H])C([H])([H])[H])C([H])(C(=O)N([H])C2([H])c4c([H])c([H])c([H])c([H])c4C([H])([H])C([H])([H])C2([H])[H])C3([H])[H])nc([H])c1C([H])(C([H])([H])[H])C([H])([H])N([H])C(=O)N1C([H])([H])C([H])([H])C([H])([H])C([H])(n2nc(-c3c([H])c([H])c(Oc4c([H])c([H])c(F)c([H])c4F)c([H])c3[H])c(C(=O)N([H])[H])c2N([H])[H])C1([H])[H]

> <Step>
75.0

> <Scaffold>
O=C(NC1CCCc2ccccc21)C1Cc2ccc(OCCCc3ncc(CCNC(=O)N4CCCC(n5ccc(-c6ccc(Oc7ccccc7)cc6)n5)C4)cn3)cc2CN1

> <SMILES>
CNC(C)C(=O)NC(C(=O)N1Cc2cc(OCCCc3ncc(C(C)CNC(=O)N4CCCC(n5nc(-c6ccc(Oc7ccc(F)cc7F)cc6)c(C(N)=O)c5N)C4)cn3)ccc2CC1C(=O)NC1CCCc2ccccc21)C(C)(C)C

> <Tanimoto ROCS sim>
0.22752562165260315

> <Custom alerts>
1.0

> <Linker Num Aromatic Rings>
1.0

> <Linker Effective Length>
1.0

> <ADV>
0.9936831593513489

> <PostDock Tanimoto ROCS sim>
0.9911868572235107

> <raw_Linker Num Aromatic Rings>
1.0

> <raw_Linker Effective Length>
9.0

> <raw_ADV>
-13.786999702453613

> <total_score>
0.9962174892425537

> <ID>
default_job_133

> <PostDock Tanimoto ROCS sim (re-score)>
0.9828552

> <raw_ADV (re-score)>
-13.803

$$$$
default_job_134
     RDKit          3D

 94103  0  0  1  0  0  0  0  0999 V2000
  -30.6850  -22.2330   19.8540 C   0  0  0  0  0  3  0  0  0  0  0  0
  -30.6750  -20.8400   20.1000 C   0  0  0  0  0  3  0  0  0  0  0  0
  -28.5590  -21.0780   21.2610 C   0  0  0  0  0  3  0  0  0  0  0  0
  -29.6340  -23.0610   20.3070 C   0  0  0  0  0  0  0  0  0  0  0  0
  -28.5570  -22.4710   21.0130 C   0  0  0  0  0  0  0  0  0  0  0  0
  -29.6110  -20.2420   20.8180 C   0  0  0  0  0  0  0  0  0  0  0  0
  -29.6720  -24.5730   20.0440 C   0  0  0  0  0  2  0  0  0  0  0  0
  -27.6130  -24.7050   21.4650 C   0  0  0  0  0  2  0  0  0  0  0  0
  -28.2850  -25.2370   20.1800 C   0  0  0  0  0  3  0  0  0  0  0  0
  -27.4790  -23.2500   21.4640 N   0  0  0  0  0  0  0  0  0  0  0  0
  -26.7800  -22.8300   22.0730 H   0  0  0  0  0  0  0  0  0  0  0  0
  -29.5490  -18.8660   21.1320 N   0  0  0  0  0  0  0  0  0  0  0  0
  -28.7270  -18.5340   21.6320 H   0  0  0  0  0  0  0  0  0  0  0  0
  -30.4130  -17.8310   20.5570 C   0  0  0  0  0  2  0  0  0  0  0  0
  -30.6910  -16.6860   21.5650 C   0  0  0  0  0  2  0  0  0  0  0  0
  -30.7200  -14.4510   20.4130 C   0  0  0  0  0  0  0  0  0  0  0  0
  -30.3580  -12.3400   19.1810 C   0  0  0  0  0  2  0  0  0  0  0  0
  -29.3970  -12.5770   17.9970 C   0  0  0  0  0  2  0  0  0  0  0  0
  -27.9300  -12.4470   18.4500 C   0  0  0  0  0  2  0  0  0  0  0  0
  -27.6240  -13.2670   19.7300 C   0  0  0  0  0  3  0  0  0  0  0  0
  -28.6890  -13.0040   20.8180 C   0  0  0  0  0  2  0  0  0  0  0  0
  -30.0120  -13.3030   20.2390 N   0  0  0  0  0  0  0  0  0  0  0  0
  -31.8080  -14.6630   19.8710 O   0  0  0  0  0  0  0  0  0  0  0  0
  -30.1260  -15.3900   21.1690 N   0  0  0  0  0  0  0  0  0  0  0  0
  -29.2190  -15.1550   21.5440 H   0  0  0  0  0  0  0  0  0  0  0  0
  -25.2360  -13.8980   20.4560 C   0  0  0  0  0  0  0  0  0  0  0  0
  -24.1650  -13.1360   20.8370 C   0  0  0  0  0  0  0  0  0  0  0  0
  -24.6140  -11.7810   20.8070 C   0  0  0  0  0  0  0  0  0  0  0  0
  -26.2720  -13.0080   20.2200 N   0  0  0  0  0  0  0  0  0  0  0  0
  -25.9000  -11.7290   20.4870 N   0  0  0  0  0  0  0  0  0  0  0  0
  -23.8790  -10.5260   21.0080 C   0  0  0  0  0  0  0  0  0  0  0  0
  -24.3170   -9.5550   21.9350 C   0  0  0  0  0  3  0  0  0  0  0  0
  -23.5830   -8.3630   22.1230 C   0  0  0  0  0  3  0  0  0  0  0  0
  -22.3980   -8.1350   21.3840 C   0  0  0  0  0  0  0  0  0  0  0  0
  -21.9800   -9.0940   20.4450 C   0  0  0  0  0  3  0  0  0  0  0  0
  -22.7140  -10.2770   20.2550 C   0  0  0  0  0  3  0  0  0  0  0  0
  -21.6360   -6.9960   21.4820 O   0  0  0  0  0  0  0  0  0  0  0  0
  -21.6000   -6.2500   22.6340 C   0  0  0  0  0  0  0  0  0  0  0  0
  -21.2080   -6.8080   23.8700 C   0  0  0  0  0  3  0  0  0  0  0  0
  -21.1180   -5.9900   25.0140 C   0  0  0  0  0  3  0  0  0  0  0  0
  -21.4100   -4.6160   24.9230 C   0  0  0  0  0  0  0  0  0  0  0  0
  -21.7950   -4.0580   23.6910 C   0  0  0  0  0  3  0  0  0  0  0  0
  -21.8870   -4.8730   22.5490 C   0  0  0  0  0  0  0  0  0  0  0  0
  -22.2380   -4.3270   21.3600 F   0  0  0  0  0  0  0  0  0  0  0  0
  -21.3160   -3.8280   26.0190 F   0  0  0  0  0  0  0  0  0  0  0  0
  -22.7740  -13.6270   21.1220 C   0  0  0  0  0  0  0  0  0  0  0  0
  -22.0490  -12.9380   21.9970 N   0  0  0  0  0  0  0  0  0  0  0  0
  -22.3390  -14.6550   20.6050 O   0  0  0  0  0  0  0  0  0  0  0  0
  -22.4130  -12.1060   22.4380 H   0  0  0  0  0  0  0  0  0  0  0  0
  -21.1170  -13.2470   22.2310 H   0  0  0  0  0  0  0  0  0  0  0  0
  -25.4120  -15.2670   20.2730 N   0  0  0  0  0  0  0  0  0  0  0  0
  -24.6520  -15.9300   20.3830 H   0  0  0  0  0  0  0  0  0  0  0  0
  -26.2670  -15.6960   19.9400 H   0  0  0  0  0  0  0  0  0  0  0  0
  -28.3850  -26.6780   20.1980 O   0  0  0  0  0  0  0  0  0  0  0  0
  -24.5800  -31.8890   23.2490 C   0  0  0  0  0  0  0  0  0  0  0  0
  -27.2110  -27.4160   20.1710 C   0  0  0  0  0  0  0  0  0  0  0  0
  -23.3720  -30.4810   21.6180 C   0  0  0  0  0  3  0  0  0  0  0  0
  -24.8200  -28.9440   20.1900 C   0  0  0  0  0  0  0  0  0  0  0  0
  -25.9020  -30.8280   21.4200 C   0  0  0  0  0  2  0  0  0  0  0  0
  -25.9830  -29.4580   20.7750 C   0  0  0  0  0  0  0  0  0  0  0  0
  -27.1810  -28.7050   20.7590 C   0  0  0  0  0  3  0  0  0  0  0  0
  -26.0250  -26.9270   19.5740 C   0  0  0  0  0  3  0  0  0  0  0  0
  -24.8370  -27.6770   19.5870 C   0  0  0  0  0  3  0  0  0  0  0  0
  -23.5770  -29.8030   20.2370 C   0  0  0  0  0  2  0  0  0  0  0  0
  -24.6370  -31.0780   22.1550 N   0  0  0  0  0  0  0  0  0  0  0  0
  -23.4950  -32.1870   23.7660 O   0  0  0  0  0  0  0  0  0  0  0  0
  -22.7200  -29.4590   22.5780 C   0  0  0  0  0  0  0  0  0  0  0  0
  -21.3950  -29.2790   22.4520 N   0  0  0  0  0  0  0  0  0  0  0  0
  -23.4040  -28.8320   23.3920 O   0  0  0  0  0  0  0  0  0  0  0  0
  -20.9060  -29.8360   21.7660 H   0  0  0  0  0  0  0  0  0  0  0  0
  -18.0170  -28.0960   22.9570 C   0  0  0  0  0  0  0  0  0  0  0  0
  -20.5770  -28.3430   23.2230 C   0  0  0  0  0  3  0  0  0  0  0  0
  -20.6730  -26.9130   22.6430 C   0  0  0  0  0  2  0  0  0  0  0  0
  -19.5660  -26.5970   21.6320 C   0  0  0  0  0  2  0  0  0  0  0  0
  -18.1870  -26.7470   22.2790 C   0  0  0  0  0  2  0  0  0  0  0  0
  -19.1410  -28.8520   23.3850 C   0  0  0  0  0  0  0  0  0  0  0  0
  -18.9280  -30.1160   23.9780 C   0  0  0  0  0  3  0  0  0  0  0  0
  -17.6260  -30.6230   24.1470 C   0  0  0  0  0  3  0  0  0  0  0  0
  -16.5180  -29.8630   23.7340 C   0  0  0  0  0  3  0  0  0  0  0  0
  -16.7140  -28.6020   23.1450 C   0  0  0  0  0  3  0  0  0  0  0  0
  -25.8690  -32.5080   23.8750 C   0  0  0  0  0  3  0  0  0  0  0  0
  -26.3870  -31.7310   25.1470 C   0  0  1  0  0  0  0  0  0  0  0  0
  -25.2940  -31.4900   26.2140 C   0  0  0  0  0  1  0  0  0  0  0  0
  -26.9700  -30.3550   24.7480 C   0  0  0  0  0  1  0  0  0  0  0  0
  -27.5400  -32.5220   25.8100 C   0  0  0  0  0  1  0  0  0  0  0  0
  -25.5650  -33.9060   24.2100 N   0  0  0  0  0  0  0  0  0  0  0  0
  -25.8870  -34.9570   23.4440 C   0  0  0  0  0  0  0  0  0  0  0  0
  -26.5440  -34.8530   22.4060 O   0  0  0  0  0  0  0  0  0  0  0  0
  -24.9830  -34.0610   25.0190 H   0  0  0  0  0  0  0  0  0  0  0  0
  -24.1450  -36.7400   23.1140 C   0  0  0  0  0  1  0  0  0  0  0  0
  -25.4010  -36.3440   23.9050 C   0  0  0  0  0  3  0  0  0  0  0  0
  -27.5460  -37.2390   24.6970 C   0  0  0  0  0  1  0  0  0  0  0  0
  -26.4280  -37.4010   23.7720 N   0  0  0  0  0  0  0  0  0  0  0  0
  -26.0210  -38.3200   23.9250 H   0  0  0  0  0  0  0  0  0  0  0  0
  1  2  2  0
  1  4  1  0
  2  6  1  0
  4  5  2  0
  5  3  1  0
  5 10  1  0
  6 12  1  0
  6  3  2  0
  7  9  1  0
  7  4  1  0
  9 54  1  0
  9  8  1  0
 10  8  1  0
 10 11  1  0
 12 13  1  0
 14 12  1  0
 14 15  1  0
 16 24  1  0
 17 22  1  0
 18 19  1  0
 18 17  1  0
 20 19  1  0
 20 29  1  0
 20 21  1  0
 22 16  1  0
 22 21  1  0
 23 16  2  0
 24 25  1  0
 24 15  1  0
 26 27  2  0
 27 46  1  0
 28 27  1  0
 28 31  1  0
 29 26  1  0
 29 30  1  0
 30 28  2  0
 31 32  1  0
 32 33  2  0
 34 37  1  0
 34 33  1  0
 35 34  2  0
 36 35  1  0
 36 31  2  0
 37 38  1  0
 38 39  1  0
 39 40  2  0
 41 40  1  0
 41 45  1  0
 42 41  2  0
 43 38  2  0
 43 42  1  0
 44 43  1  0
 46 47  1  0
 47 50  1  0
 47 49  1  0
 48 46  2  0
 51 52  1  0
 51 26  1  0
 53 51  1  0
 55 66  2  0
 56 54  1  0
 56 61  1  0
 57 65  1  0
 57 67  1  0
 58 64  1  0
 58 60  1  0
 59 65  1  0
 60 59  1  0
 61 60  2  0
 62 63  1  0
 62 56  2  0
 63 58  2  0
 64 57  1  0
 65 55  1  0
 67 69  2  0
 68 67  1  0
 70 68  1  0
 71 80  2  0
 71 76  1  0
 72 68  1  0
 72 76  1  0
 73 72  1  0
 74 75  1  0
 74 73  1  0
 75 71  1  0
 76 77  2  0
 77 78  1  0
 79 78  2  0
 80 79  1  0
 81 55  1  0
 81 86  1  0
 81 82  1  0
 82 85  1  1
 82 83  1  0
 84 82  1  0
 86 89  1  0
 87 91  1  0
 87 86  1  0
 88 87  2  0
 91 90  1  0
 93 91  1  0
 93 94  1  0
 93 92  1  0
M  ISO  4   9 101  16 100  24 100  54 101
M  END
>  <TORSDO>  (35) 
F 19

>  <SCORE>  (35) 
-14.725

>  <name>  (35) 
34

>  <ligand_id>  (35) 
34

>  <original_smiles>  (35) 
[H]c1c([H])c([H])c2c(c1[H])C([H])([H])C([H])([H])C([H])([H])C2([H])N([H])C(=O)C1([H])N(C(=O)C([H])(N([H])C(=O)C([H])(N([H])C([H])([H])[H])C([H])([H])[H])C(C([H])([H])[H])(C([H])([H])[H])C([H])([H])[H])C([H])([H])c2c([H])c(OC3([H])C([H])([H])c4c([H])c([H])c(N([H])C([H])([H])C([H])([H])N([H])C(=O)N5C([H])([H])C([H])([H])C([H])([H])C([H])(n6nc(-c7c([H])c([H])c(Oc8c([H])c([H])c(F)c([H])c8F)c([H])c7[H])c(C(=O)N([H])[H])c6N([H])[H])C5([H])[H])c([H])c4N([H])C3([H])[H])c([H])c([H])c2C1([H])[H]

>  <smiles>  (35) 
[H]c1c([H])c([H])c2c(c1[H])C([H])([H])C([H])([H])C([H])([H])C2([H])N([H])C(=O)C1([H])N(C(=O)C([H])(N([H])C(=O)C([H])(N([H])C([H])([H])[H])C([H])([H])[H])C(C([H])([H])[H])(C([H])([H])[H])C([H])([H])[H])C([H])([H])c2c([H])c(OC3([H])C([H])([H])c4c([H])c([H])c(N([H])C([H])([H])C([H])([H])N([H])C(=O)N5C([H])([H])C([H])([H])C([H])([H])C([H])(n6nc(-c7c([H])c([H])c(Oc8c([H])c([H])c(F)c([H])c8F)c([H])c7[H])c(C(=O)N([H])[H])c6N([H])[H])C5([H])[H])c([H])c4N([H])C3([H])[H])c([H])c([H])c2C1([H])[H]

> <Step>
131.0

> <Scaffold>
O=C(NC1CCCc2ccccc21)C1Cc2ccc(OC3CNc4cc(NCCNC(=O)N5CCCC(n6ccc(-c7ccc(Oc8ccccc8)cc7)n6)C5)ccc4C3)cc2CN1

> <SMILES>
CNC(C)C(=O)NC(C(=O)N1Cc2cc(OC3CNc4cc(NCCNC(=O)N5CCCC(n6nc(-c7ccc(Oc8ccc(F)cc8F)cc7)c(C(N)=O)c6N)C5)ccc4C3)ccc2CC1C(=O)NC1CCCc2ccccc21)C(C)(C)C

> <Tanimoto ROCS sim>
0.37252458930015564

> <Custom alerts>
1.0

> <Linker Num Aromatic Rings>
1.0

> <Linker Effective Length>
1.0

> <ADV>
0.9963740706443787

> <PostDock Tanimoto ROCS sim>
0.988475501537323

> <raw_Linker Num Aromatic Rings>
1.0

> <raw_Linker Effective Length>
9.0

> <raw_ADV>
-14.755999565124512

> <total_score>
0.9962124228477478

> <ID>
default_job_134

> <PostDock Tanimoto ROCS sim (re-score)>
0.9811848

> <raw_ADV (re-score)>
-14.725

$$$$
default_job_135
     RDKit          3D

 96104  0  0  1  0  0  0  0  0999 V2000
  -29.6560  -21.5570   18.6760 C   0  0  0  0  0  0  0  0  0  0  0  0
  -29.5890  -22.9450   20.8630 C   0  0  0  0  0  1  0  0  0  0  0  0
  -29.5230  -22.7650   19.3950 N   0  0  0  0  0  0  0  0  0  0  0  0
  -29.7370  -21.6190   17.4390 O   0  0  0  0  0  0  0  0  0  0  0  0
  -30.5330  -19.0670   18.5260 C   0  0  0  0  0  3  0  0  0  0  0  0
  -29.1480  -18.1880   20.7530 C   0  0  0  0  0  3  0  0  0  0  0  0
  -29.7940  -20.0860   19.2370 C   0  0  0  0  0  0  0  0  0  0  0  0
  -29.9220  -17.1990   20.0810 C   0  0  0  0  0  0  0  0  0  0  0  0
  -30.5780  -17.6790   18.9120 C   0  0  0  0  0  0  0  0  0  0  0  0
  -29.0430  -19.5540   20.3240 C   0  0  0  0  0  0  0  0  0  0  0  0
  -31.1750  -16.7880   18.0830 F   0  0  0  0  0  0  0  0  0  0  0  0
  -28.1110  -20.3220   20.9210 F   0  0  0  0  0  0  0  0  0  0  0  0
  -30.6570  -14.6950   20.3220 C   0  0  0  0  0  0  0  0  0  0  0  0
  -30.4320  -12.4130   19.3730 C   0  0  0  0  0  2  0  0  0  0  0  0
  -29.5100  -12.5660   18.1480 C   0  0  0  0  0  2  0  0  0  0  0  0
  -28.0340  -12.4040   18.5580 C   0  0  0  0  0  2  0  0  0  0  0  0
  -27.6670  -13.2650   19.8000 C   0  0  0  0  0  3  0  0  0  0  0  0
  -28.7260  -13.1510   20.9240 C   0  0  0  0  0  2  0  0  0  0  0  0
  -30.0400  -13.4630   20.3370 N   0  0  0  0  0  0  0  0  0  0  0  0
  -31.8410  -14.8140   20.0100 O   0  0  0  0  0  0  0  0  0  0  0  0
  -29.8460  -15.7840   20.5140 N   0  0  0  0  0  0  0  0  0  0  0  0
  -28.9690  -15.5120   20.9280 H   0  0  0  0  0  0  0  0  0  0  0  0
  -25.2680  -13.8520   20.5330 C   0  0  0  0  0  0  0  0  0  0  0  0
  -24.2070  -13.0780   20.8970 C   0  0  0  0  0  0  0  0  0  0  0  0
  -24.6720  -11.7260   20.8630 C   0  0  0  0  0  0  0  0  0  0  0  0
  -26.3180  -12.9780   20.2860 N   0  0  0  0  0  0  0  0  0  0  0  0
  -25.9630  -11.6930   20.5480 N   0  0  0  0  0  0  0  0  0  0  0  0
  -23.9430  -10.4650   21.0500 C   0  0  0  0  0  0  0  0  0  0  0  0
  -24.3700   -9.5000   21.9930 C   0  0  0  0  0  3  0  0  0  0  0  0
  -23.6480   -8.3000   22.1600 C   0  0  0  0  0  3  0  0  0  0  0  0
  -22.4800   -8.0610   21.3930 C   0  0  0  0  0  0  0  0  0  0  0  0
  -22.0740   -9.0140   20.4420 C   0  0  0  0  0  3  0  0  0  0  0  0
  -22.7980  -10.2070   20.2700 C   0  0  0  0  0  3  0  0  0  0  0  0
  -21.7200   -6.9180   21.4840 O   0  0  0  0  0  0  0  0  0  0  0  0
  -21.6530   -6.1810   22.6410 C   0  0  0  0  0  0  0  0  0  0  0  0
  -21.1850   -6.7340   23.8530 C   0  0  0  0  0  3  0  0  0  0  0  0
  -21.0680   -5.9210   24.9980 C   0  0  0  0  0  3  0  0  0  0  0  0
  -21.4080   -4.5580   24.9330 C   0  0  0  0  0  0  0  0  0  0  0  0
  -21.8710   -4.0020   23.7250 C   0  0  0  0  0  3  0  0  0  0  0  0
  -21.9930   -4.8120   22.5830 C   0  0  0  0  0  0  0  0  0  0  0  0
  -22.4180   -4.2680   21.4170 F   0  0  0  0  0  0  0  0  0  0  0  0
  -21.2880   -3.7770   26.0310 F   0  0  0  0  0  0  0  0  0  0  0  0
  -22.8080  -13.5550   21.1730 C   0  0  0  0  0  0  0  0  0  0  0  0
  -22.0740  -12.8570   22.0280 N   0  0  0  0  0  0  0  0  0  0  0  0
  -22.3780  -14.5910   20.6640 O   0  0  0  0  0  0  0  0  0  0  0  0
  -22.4340  -12.0190   22.4600 H   0  0  0  0  0  0  0  0  0  0  0  0
  -21.1370  -13.1620   22.2460 H   0  0  0  0  0  0  0  0  0  0  0  0
  -25.4210  -15.2250   20.3610 N   0  0  0  0  0  0  0  0  0  0  0  0
  -24.6130  -15.8300   20.4540 H   0  0  0  0  0  0  0  0  0  0  0  0
  -26.2290  -15.6980   19.9820 H   0  0  0  0  0  0  0  0  0  0  0  0
  -29.5920  -24.1750   18.7840 C   0  0  0  0  0  3  0  0  0  0  0  0
  -31.5040  -25.5600   17.5950 C   0  0  0  0  0  1  0  0  0  0  0  0
  -32.2140  -23.6860   19.0480 C   0  0  0  0  0  1  0  0  0  0  0  0
  -31.0770  -24.7380   18.8390 C   0  0  0  0  0  3  0  0  0  0  0  0
  -28.3730  -25.2080   19.1900 C   0  0  0  0  0  2  0  0  0  0  0  0
  -28.4650  -26.5330   19.9020 O   0  0  0  0  0  0  0  0  0  0  0  0
  -24.6090  -31.8840   23.2110 C   0  0  0  0  0  0  0  0  0  0  0  0
  -27.2960  -27.3410   20.0440 C   0  0  0  0  0  0  0  0  0  0  0  0
  -23.4140  -30.4600   21.5870 C   0  0  0  0  0  3  0  0  0  0  0  0
  -24.8800  -28.9080   20.1710 C   0  0  0  0  0  0  0  0  0  0  0  0
  -25.9590  -30.7750   21.4140 C   0  0  0  0  0  2  0  0  0  0  0  0
  -26.0520  -29.3990   20.7590 C   0  0  0  0  0  0  0  0  0  0  0  0
  -27.2600  -28.6260   20.6970 C   0  0  0  0  0  3  0  0  0  0  0  0
  -26.0730  -26.9030   19.4850 C   0  0  0  0  0  3  0  0  0  0  0  0
  -24.8910  -27.6620   19.5320 C   0  0  0  0  0  3  0  0  0  0  0  0
  -23.6370  -29.7750   20.2150 C   0  0  0  0  0  2  0  0  0  0  0  0
  -24.6800  -31.0540   22.1290 N   0  0  0  0  0  0  0  0  0  0  0  0
  -23.5150  -32.1860   23.7120 O   0  0  0  0  0  0  0  0  0  0  0  0
  -22.7430  -29.4560   22.5520 C   0  0  0  0  0  0  0  0  0  0  0  0
  -21.4150  -29.2830   22.4290 N   0  0  0  0  0  0  0  0  0  0  0  0
  -23.4200  -28.8310   23.3740 O   0  0  0  0  0  0  0  0  0  0  0  0
  -20.9260  -29.8420   21.7440 H   0  0  0  0  0  0  0  0  0  0  0  0
  -18.0340  -28.0920   22.9450 C   0  0  0  0  0  0  0  0  0  0  0  0
  -20.5960  -28.3470   23.2020 C   0  0  0  0  0  3  0  0  0  0  0  0
  -20.6920  -26.9170   22.6200 C   0  0  0  0  0  2  0  0  0  0  0  0
  -19.5830  -26.5970   21.6110 C   0  0  0  0  0  2  0  0  0  0  0  0
  -18.2060  -26.7460   22.2620 C   0  0  0  0  0  2  0  0  0  0  0  0
  -19.1580  -28.8500   23.3740 C   0  0  0  0  0  0  0  0  0  0  0  0
  -18.9410  -30.1100   23.9730 C   0  0  0  0  0  3  0  0  0  0  0  0
  -17.6370  -30.6130   24.1460 C   0  0  0  0  0  3  0  0  0  0  0  0
  -16.5300  -29.8500   23.7330 C   0  0  0  0  0  3  0  0  0  0  0  0
  -16.7300  -28.5920   23.1410 C   0  0  0  0  0  3  0  0  0  0  0  0
  -25.8880  -32.5100   23.8490 C   0  0  0  0  0  3  0  0  0  0  0  0
  -26.3880  -31.7520   25.1390 C   0  0  1  0  0  0  0  0  0  0  0  0
  -25.2790  -31.5290   26.1930 C   0  0  0  0  0  1  0  0  0  0  0  0
  -26.9740  -30.3690   24.7720 C   0  0  0  0  0  1  0  0  0  0  0  0
  -27.5350  -32.5490   25.8090 C   0  0  0  0  0  1  0  0  0  0  0  0
  -25.5820  -33.9110   24.1710 N   0  0  0  0  0  0  0  0  0  0  0  0
  -25.9160  -34.9590   23.4080 C   0  0  0  0  0  0  0  0  0  0  0  0
  -26.5820  -34.8510   22.3770 O   0  0  0  0  0  0  0  0  0  0  0  0
  -24.9890  -34.0700   24.9710 H   0  0  0  0  0  0  0  0  0  0  0  0
  -24.1970  -36.7640   23.0380 C   0  0  0  0  0  1  0  0  0  0  0  0
  -25.4300  -36.3530   23.8600 C   0  0  0  0  0  3  0  0  0  0  0  0
  -27.5620  -37.2310   24.7090 C   0  0  0  0  0  1  0  0  0  0  0  0
  -26.4690  -37.4030   23.7570 N   0  0  0  0  0  0  0  0  0  0  0  0
  -26.0630  -38.3250   23.9010 H   0  0  0  0  0  0  0  0  0  0  0  0
  1  7  1  0
  1  3  1  0
  3  2  1  0
  4  1  2  0
  5  9  2  0
  5  7  1  0
  7 10  2  0
  8 21  1  0
  8  6  2  0
  9  8  1  0
 10  6  1  0
 10 12  1  0
 11  9  1  0
 13 19  1  0
 13 21  1  0
 14 19  1  0
 15 16  1  0
 15 14  1  0
 17 16  1  0
 17 26  1  0
 17 18  1  0
 19 18  1  0
 20 13  2  0
 21 22  1  0
 23 24  2  0
 24 43  1  0
 25 24  1  0
 25 28  1  0
 26 23  1  0
 26 27  1  0
 27 25  2  0
 28 29  1  0
 29 30  2  0
 31 34  1  0
 31 30  1  0
 32 31  2  0
 33 32  1  0
 33 28  2  0
 34 35  1  0
 35 36  1  0
 36 37  2  0
 38 37  1  0
 38 42  1  0
 39 38  2  0
 40 35  2  0
 40 39  1  0
 41 40  1  0
 43 44  1  0
 44 47  1  0
 44 46  1  0
 45 43  2  0
 48 49  1  0
 48 23  1  0
 50 48  1  0
 51 54  1  0
 51 55  1  0
 51  3  1  0
 52 54  1  0
 54 53  1  0
 55 56  1  0
 56 58  1  0
 57 68  2  0
 58 63  1  0
 59 67  1  0
 59 69  1  0
 60 66  1  0
 60 62  1  0
 61 67  1  0
 62 61  1  0
 63 62  2  0
 64 65  1  0
 64 58  2  0
 65 60  2  0
 66 59  1  0
 67 57  1  0
 69 71  2  0
 70 69  1  0
 72 70  1  0
 73 82  2  0
 73 78  1  0
 74 70  1  0
 74 78  1  0
 75 74  1  0
 76 77  1  0
 76 75  1  0
 77 73  1  0
 78 79  2  0
 79 80  1  0
 81 80  2  0
 82 81  1  0
 83 57  1  0
 83 88  1  0
 83 84  1  0
 84 87  1  1
 84 85  1  0
 86 84  1  0
 88 91  1  0
 89 93  1  0
 89 88  1  0
 90 89  2  0
 93 92  1  0
 95 93  1  0
 95 96  1  0
 95 94  1  0
M  ISO  4  13 100  21 100  55 101  56 101
M  END
>  <TORSDO>  (36) 
F 20

>  <SCORE>  (36) 
-14.076

>  <name>  (36) 
35

>  <ligand_id>  (36) 
35

>  <original_smiles>  (36) 
[H]c1c([H])c([H])c2c(c1[H])C([H])([H])C([H])([H])C([H])([H])C2([H])N([H])C(=O)C1([H])N(C(=O)C([H])(N([H])C(=O)C([H])(N([H])C([H])([H])[H])C([H])([H])[H])C(C([H])([H])[H])(C([H])([H])[H])C([H])([H])[H])C([H])([H])c2c([H])c(OC([H])([H])C([H])(N(C(=O)c3c([H])c(F)c(N([H])C(=O)N4C([H])([H])C([H])([H])C([H])([H])C([H])(n5nc(-c6c([H])c([H])c(Oc7c([H])c([H])c(F)c([H])c7F)c([H])c6[H])c(C(=O)N([H])[H])c5N([H])[H])C4([H])[H])c([H])c3F)C([H])([H])[H])C([H])(C([H])([H])[H])C([H])([H])[H])c([H])c([H])c2C1([H])[H]

>  <smiles>  (36) 
[H]c1c([H])c([H])c2c(c1[H])C([H])([H])C([H])([H])C([H])([H])C2([H])N([H])C(=O)C1([H])N(C(=O)C([H])(N([H])C(=O)C([H])(N([H])C([H])([H])[H])C([H])([H])[H])C(C([H])([H])[H])(C([H])([H])[H])C([H])([H])[H])C([H])([H])c2c([H])c(OC([H])([H])C([H])(N(C(=O)c3c([H])c(F)c(N([H])C(=O)N4C([H])([H])C([H])([H])C([H])([H])C([H])(n5nc(-c6c([H])c([H])c(Oc7c([H])c([H])c(F)c([H])c7F)c([H])c6[H])c(C(=O)N([H])[H])c5N([H])[H])C4([H])[H])c([H])c3F)C([H])([H])[H])C([H])(C([H])([H])[H])C([H])([H])[H])c([H])c([H])c2C1([H])[H]

> <Step>
8.0

> <Scaffold>
O=C(NCCOc1ccc2c(c1)CNC(C(=O)NC1CCCc3ccccc31)C2)c1ccc(NC(=O)N2CCCC(n3ccc(-c4ccc(Oc5ccccc5)cc4)n3)C2)cc1

> <SMILES>
CNC(C)C(=O)NC(C(=O)N1Cc2cc(OCC(C(C)C)N(C)C(=O)c3cc(F)c(NC(=O)N4CCCC(n5nc(-c6ccc(Oc7ccc(F)cc7F)cc6)c(C(N)=O)c5N)C4)cc3F)ccc2CC1C(=O)NC1CCCc2ccccc21)C(C)(C)C

> <Tanimoto ROCS sim>
0.25104060769081116

> <Custom alerts>
1.0

> <Linker Num Aromatic Rings>
1.0

> <Linker Effective Length>
1.0

> <ADV>
0.994770348072052

> <PostDock Tanimoto ROCS sim>
0.9900496602058411

> <raw_Linker Num Aromatic Rings>
1.0

> <raw_Linker Effective Length>
8.0

> <raw_ADV>
-14.116999626159668

> <total_score>
0.9962049722671509

> <ID>
default_job_135

> <PostDock Tanimoto ROCS sim (re-score)>
0.9808629

> <raw_ADV (re-score)>
-14.076

$$$$
default_job_136
     RDKit          3D

 95104  0  0  1  0  0  0  0  0999 V2000
  -28.6310  -24.5140   18.8350 C   0  0  0  0  0  3  0  0  0  0  0  0
  -28.5200  -24.3820   21.2420 C   0  0  0  0  0  3  0  0  0  0  0  0
  -28.9490  -23.1280   18.8120 C   0  0  0  0  0  0  0  0  0  0  0  0
  -29.0840  -22.3420   19.9590 C   0  0  0  0  0  0  0  0  0  0  0  0
  -28.8530  -22.9860   21.2070 C   0  0  0  0  0  0  0  0  0  0  0  0
  -28.4340  -25.1830   20.0680 C   0  0  0  0  0  0  0  0  0  0  0  0
  -29.2930  -22.3560   17.5740 C   0  0  0  0  0  2  0  0  0  0  0  0
  -29.6530  -20.9210   19.6150 C   0  0  0  0  0  3  0  0  0  0  0  0
  -29.6330  -20.9030   18.0360 C   0  0  1  0  0  0  0  0  0  0  0  0
  -29.0340  -22.2450   22.5140 C   0  0  0  0  0  1  0  0  0  0  0  0
  -28.5650  -19.9620   17.4420 C   0  0  0  0  0  1  0  0  0  0  0  0
  -31.0140  -20.5100   17.4640 C   0  0  0  0  0  1  0  0  0  0  0  0
  -28.3820  -26.5880   20.1250 O   0  0  0  0  0  0  0  0  0  0  0  0
  -24.6130  -31.8670   23.2310 C   0  0  0  0  0  0  0  0  0  0  0  0
  -27.2090  -27.3400   20.1460 C   0  0  0  0  0  0  0  0  0  0  0  0
  -23.3960  -30.4660   21.5990 C   0  0  0  0  0  3  0  0  0  0  0  0
  -24.8340  -28.9130   20.1640 C   0  0  0  0  0  0  0  0  0  0  0  0
  -25.9280  -30.7900   21.3990 C   0  0  0  0  0  2  0  0  0  0  0  0
  -26.0000  -29.4130   20.7550 C   0  0  0  0  0  0  0  0  0  0  0  0
  -27.1880  -28.6340   20.7420 C   0  0  0  0  0  3  0  0  0  0  0  0
  -26.0240  -26.8710   19.5440 C   0  0  0  0  0  3  0  0  0  0  0  0
  -24.8430  -27.6450   19.5550 C   0  0  0  0  0  3  0  0  0  0  0  0
  -23.5990  -29.7880   20.2170 C   0  0  0  0  0  2  0  0  0  0  0  0
  -24.6660  -31.0540   22.1370 N   0  0  0  0  0  0  0  0  0  0  0  0
  -23.5280  -32.1750   23.7440 O   0  0  0  0  0  0  0  0  0  0  0  0
  -22.7370  -29.4490   22.5620 C   0  0  0  0  0  0  0  0  0  0  0  0
  -21.4110  -29.2710   22.4350 N   0  0  0  0  0  0  0  0  0  0  0  0
  -23.4170  -28.8230   23.3780 O   0  0  0  0  0  0  0  0  0  0  0  0
  -20.9210  -29.8330   21.7530 H   0  0  0  0  0  0  0  0  0  0  0  0
  -18.0330  -28.0730   22.9260 C   0  0  0  0  0  0  0  0  0  0  0  0
  -20.5910  -28.3310   23.2020 C   0  0  0  0  0  3  0  0  0  0  0  0
  -20.6940  -26.9000   22.6220 C   0  0  0  0  0  2  0  0  0  0  0  0
  -19.5930  -26.5820   21.6060 C   0  0  0  0  0  2  0  0  0  0  0  0
  -18.2100  -26.7250   22.2480 C   0  0  0  0  0  2  0  0  0  0  0  0
  -19.1510  -28.8340   23.3590 C   0  0  0  0  0  0  0  0  0  0  0  0
  -18.9330  -30.0940   23.9550 C   0  0  0  0  0  3  0  0  0  0  0  0
  -17.6280  -30.5960   24.1210 C   0  0  0  0  0  3  0  0  0  0  0  0
  -16.5240  -29.8340   23.7030 C   0  0  0  0  0  3  0  0  0  0  0  0
  -16.7270  -28.5730   23.1120 C   0  0  0  0  0  3  0  0  0  0  0  0
  -25.9020  -32.4790   23.8630 C   0  0  0  0  0  3  0  0  0  0  0  0
  -26.4230  -31.6870   25.1260 C   0  0  1  0  0  0  0  0  0  0  0  0
  -25.3350  -31.4380   26.1960 C   0  0  0  0  0  1  0  0  0  0  0  0
  -26.9980  -30.3130   24.7110 C   0  0  0  0  0  1  0  0  0  0  0  0
  -27.5790  -32.4690   25.7950 C   0  0  0  0  0  1  0  0  0  0  0  0
  -25.6010  -33.8740   24.2160 N   0  0  0  0  0  0  0  0  0  0  0  0
  -25.9060  -34.9330   23.4550 C   0  0  0  0  0  0  0  0  0  0  0  0
  -26.5440  -34.8400   22.4020 O   0  0  0  0  0  0  0  0  0  0  0  0
  -25.0270  -34.0200   25.0330 H   0  0  0  0  0  0  0  0  0  0  0  0
  -24.1450  -36.7090   23.1890 C   0  0  0  0  0  1  0  0  0  0  0  0
  -25.4270  -36.3140   23.9390 C   0  0  0  0  0  3  0  0  0  0  0  0
  -27.5880  -37.2160   24.6760 C   0  0  0  0  0  1  0  0  0  0  0  0
  -26.4430  -37.3770   23.7830 N   0  0  0  0  0  0  0  0  0  0  0  0
  -26.0350  -38.2920   23.9560 H   0  0  0  0  0  0  0  0  0  0  0  0
  -29.1560  -19.6080   20.3850 C   0  0  0  0  0  2  0  0  0  0  0  0
  -29.6890  -18.1560   19.9680 C   0  0  0  0  0  2  0  0  0  0  0  0
  -31.2930  -17.3500   21.8260 C   0  0  0  0  0  1  0  0  0  0  0  0
  -29.9600  -17.0910   21.1070 C   0  0  0  0  0  3  0  0  0  0  0  0
  -30.5910  -14.6090   20.3820 C   0  0  0  0  0  0  0  0  0  0  0  0
  -30.3850  -12.3900   19.2830 C   0  0  0  0  0  2  0  0  0  0  0  0
  -29.4340  -12.5420   18.0770 C   0  0  0  0  0  2  0  0  0  0  0  0
  -27.9610  -12.3870   18.5130 C   0  0  0  0  0  2  0  0  0  0  0  0
  -27.6150  -13.2320   19.7700 C   0  0  0  0  0  3  0  0  0  0  0  0
  -28.6770  -13.0420   20.8730 C   0  0  0  0  0  2  0  0  0  0  0  0
  -29.9810  -13.3900   20.2860 N   0  0  0  0  0  0  0  0  0  0  0  0
  -31.7510  -14.7870   19.9970 O   0  0  0  0  0  0  0  0  0  0  0  0
  -29.7740  -15.6340   20.7760 N   0  0  0  0  0  0  0  0  0  0  0  0
  -28.8440  -15.3020   20.9850 H   0  0  0  0  0  0  0  0  0  0  0  0
  -25.2220  -13.8380   20.4910 C   0  0  0  0  0  0  0  0  0  0  0  0
  -24.1570  -13.0660   20.8690 C   0  0  0  0  0  0  0  0  0  0  0  0
  -24.6200  -11.7150   20.8460 C   0  0  0  0  0  0  0  0  0  0  0  0
  -26.2670  -12.9550   20.2590 N   0  0  0  0  0  0  0  0  0  0  0  0
  -25.9100  -11.6740   20.5330 N   0  0  0  0  0  0  0  0  0  0  0  0
  -23.8970  -10.4530   21.0450 C   0  0  0  0  0  0  0  0  0  0  0  0
  -24.3370   -9.4920   21.9810 C   0  0  0  0  0  3  0  0  0  0  0  0
  -23.6150   -8.2950   22.1720 C   0  0  0  0  0  3  0  0  0  0  0  0
  -22.4370   -8.0500   21.4240 C   0  0  0  0  0  0  0  0  0  0  0  0
  -22.0170   -9.0000   20.4780 C   0  0  0  0  0  3  0  0  0  0  0  0
  -22.7390  -10.1890   20.2850 C   0  0  0  0  0  3  0  0  0  0  0  0
  -21.6860   -6.9030   21.5230 O   0  0  0  0  0  0  0  0  0  0  0  0
  -21.6480   -6.1650   22.6780 C   0  0  0  0  0  0  0  0  0  0  0  0
  -21.2350   -6.7220   23.9070 C   0  0  0  0  0  3  0  0  0  0  0  0
  -21.1410   -5.9070   25.0540 C   0  0  0  0  0  3  0  0  0  0  0  0
  -21.4530   -4.5370   24.9720 C   0  0  0  0  0  0  0  0  0  0  0  0
  -21.8640   -3.9800   23.7480 C   0  0  0  0  0  3  0  0  0  0  0  0
  -21.9580   -4.7910   22.6040 C   0  0  0  0  0  0  0  0  0  0  0  0
  -22.3290   -4.2440   21.4210 F   0  0  0  0  0  0  0  0  0  0  0  0
  -21.3610   -3.7540   26.0710 F   0  0  0  0  0  0  0  0  0  0  0  0
  -22.7600  -13.5420   21.1400 C   0  0  0  0  0  0  0  0  0  0  0  0
  -22.0360  -12.8530   22.0140 N   0  0  0  0  0  0  0  0  0  0  0  0
  -22.3180  -14.5630   20.6130 O   0  0  0  0  0  0  0  0  0  0  0  0
  -22.4070  -12.0300   22.4650 H   0  0  0  0  0  0  0  0  0  0  0  0
  -21.0950  -13.1470   22.2330 H   0  0  0  0  0  0  0  0  0  0  0  0
  -25.3830  -15.2070   20.3060 N   0  0  0  0  0  0  0  0  0  0  0  0
  -24.6130  -15.8580   20.4210 H   0  0  0  0  0  0  0  0  0  0  0  0
  -26.2240  -15.6510   19.9580 H   0  0  0  0  0  0  0  0  0  0  0  0
  1  6  1  0
  3  1  2  0
  3  4  1  0
  4  5  2  0
  5  2  1  0
  5 10  1  0
  6 13  1  0
  6  2  2  0
  7  9  1  0
  7  3  1  0
  8  4  1  0
  8 54  1  0
  9  8  1  0
  9 11  1  1
 12  9  1  0
 13 15  1  0
 14 25  2  0
 15 20  1  0
 16 24  1  0
 16 26  1  0
 17 23  1  0
 17 19  1  0
 18 24  1  0
 19 18  1  0
 20 19  2  0
 21 22  1  0
 21 15  2  0
 22 17  2  0
 23 16  1  0
 24 14  1  0
 26 28  2  0
 27 26  1  0
 29 27  1  0
 30 39  2  0
 30 35  1  0
 31 27  1  0
 31 35  1  0
 32 31  1  0
 33 34  1  0
 33 32  1  0
 34 30  1  0
 35 36  2  0
 36 37  1  0
 38 37  2  0
 39 38  1  0
 40 14  1  0
 40 45  1  0
 40 41  1  0
 41 44  1  1
 41 42  1  0
 43 41  1  0
 45 48  1  0
 46 50  1  0
 46 45  1  0
 47 46  2  0
 50 49  1  0
 52 50  1  0
 52 53  1  0
 52 51  1  0
 55 54  1  0
 55 57  1  0
 57 56  1  0
 58 66  1  0
 59 64  1  0
 60 61  1  0
 60 59  1  0
 62 61  1  0
 62 71  1  0
 62 63  1  0
 64 58  1  0
 64 63  1  0
 65 58  2  0
 66 67  1  0
 66 57  1  0
 68 69  2  0
 69 88  1  0
 70 69  1  0
 70 73  1  0
 71 68  1  0
 71 72  1  0
 72 70  2  0
 73 74  1  0
 74 75  2  0
 76 79  1  0
 76 75  1  0
 77 76  2  0
 78 77  1  0
 78 73  2  0
 79 80  1  0
 80 81  1  0
 81 82  2  0
 83 82  1  0
 83 87  1  0
 84 83  2  0
 85 80  2  0
 85 84  1  0
 86 85  1  0
 88 89  1  0
 89 92  1  0
 89 91  1  0
 90 88  2  0
 93 94  1  0
 93 68  1  0
 95 93  1  0
M  ISO  4   6 101  13 101  58 100  66 100
M  END
>  <TORSDO>  (37) 
F 19

>  <SCORE>  (37) 
-14.512

>  <name>  (37) 
36

>  <ligand_id>  (37) 
36

>  <original_smiles>  (37) 
[H]c1c([H])c([H])c2c(c1[H])C([H])([H])C([H])([H])C([H])([H])C2([H])N([H])C(=O)C1([H])N(C(=O)C([H])(N([H])C(=O)C([H])(N([H])C([H])([H])[H])C([H])([H])[H])C(C([H])([H])[H])(C([H])([H])[H])C([H])([H])[H])C([H])([H])c2c([H])c(Oc3c([H])c(C([H])([H])[H])c4c(c3[H])C([H])([H])C(C([H])([H])[H])(C([H])([H])[H])C4([H])C([H])([H])C([H])([H])C([H])(N([H])C(=O)N3C([H])([H])C([H])([H])C([H])([H])C([H])(n4nc(-c5c([H])c([H])c(Oc6c([H])c([H])c(F)c([H])c6F)c([H])c5[H])c(C(=O)N([H])[H])c4N([H])[H])C3([H])[H])C([H])([H])[H])c([H])c([H])c2C1([H])[H]

>  <smiles>  (37) 
[H]c1c([H])c([H])c2c(c1[H])C([H])([H])C([H])([H])C([H])([H])C2([H])N([H])C(=O)C1([H])N(C(=O)C([H])(N([H])C(=O)C([H])(N([H])C([H])([H])[H])C([H])([H])[H])C(C([H])([H])[H])(C([H])([H])[H])C([H])([H])[H])C([H])([H])c2c([H])c(Oc3c([H])c(C([H])([H])[H])c4c(c3[H])C([H])([H])C(C([H])([H])[H])(C([H])([H])[H])C4([H])C([H])([H])C([H])([H])C([H])(N([H])C(=O)N3C([H])([H])C([H])([H])C([H])([H])C([H])(n4nc(-c5c([H])c([H])c(Oc6c([H])c([H])c(F)c([H])c6F)c([H])c5[H])c(C(=O)N([H])[H])c4N([H])[H])C3([H])[H])C([H])([H])[H])c([H])c([H])c2C1([H])[H]

> <Step>
148.0

> <Scaffold>
O=C(NC1CCCc2ccccc21)C1Cc2ccc(Oc3ccc4c(c3)CCC4CCCNC(=O)N3CCCC(n4ccc(-c5ccc(Oc6ccccc6)cc5)n4)C3)cc2CN1

> <SMILES>
CNC(C)C(=O)NC(C(=O)N1Cc2cc(Oc3cc(C)c4c(c3)CC(C)(C)C4CCC(C)NC(=O)N3CCCC(n4nc(-c5ccc(Oc6ccc(F)cc6F)cc5)c(C(N)=O)c4N)C3)ccc2CC1C(=O)NC1CCCc2ccccc21)C(C)(C)C

> <Tanimoto ROCS sim>
0.20792365074157715

> <Custom alerts>
1.0

> <Linker Num Aromatic Rings>
1.0

> <Linker Effective Length>
1.0

> <ADV>
0.9958103895187378

> <PostDock Tanimoto ROCS sim>
0.988979160785675

> <raw_Linker Num Aromatic Rings>
1.0

> <raw_Linker Effective Length>
8.0

> <raw_ADV>
-14.503999710083008

> <total_score>
0.9961974024772644

> <ID>
default_job_136

> <PostDock Tanimoto ROCS sim (re-score)>
0.98308814

> <raw_ADV (re-score)>
-14.512

$$$$
default_job_137
     RDKit          3D

 93103  0  0  1  0  0  0  0  0999 V2000
  -28.9050  -20.1460   19.4030 C   0  0  0  0  0  3  0  0  0  0  0  0
  -28.7600  -21.5720   19.3810 C   0  0  0  0  0  3  0  0  0  0  0  0
  -30.1100  -20.3050   21.4560 C   0  0  0  0  0  3  0  0  0  0  0  0
  -29.6200  -19.4630   20.4240 C   0  0  0  0  0  0  0  0  0  0  0  0
  -29.9670  -21.7350   21.4520 C   0  0  0  0  0  0  0  0  0  0  0  0
  -29.3200  -22.4250   20.3760 C   0  0  0  0  0  0  0  0  0  0  0  0
  -30.5900  -14.6930   20.3450 C   0  0  0  0  0  0  0  0  0  0  0  0
  -30.3420  -12.4540   19.2760 C   0  0  0  0  0  2  0  0  0  0  0  0
  -29.3780  -12.5660   18.0740 C   0  0  0  0  0  2  0  0  0  0  0  0
  -27.9190  -12.3890   18.5350 C   0  0  0  0  0  2  0  0  0  0  0  0
  -27.5730  -13.2590   19.7720 C   0  0  0  0  0  3  0  0  0  0  0  0
  -28.6530  -13.1410   20.8700 C   0  0  0  0  0  2  0  0  0  0  0  0
  -29.9440  -13.4840   20.2600 N   0  0  0  0  0  0  0  0  0  0  0  0
  -31.7550  -14.8080   19.9530 O   0  0  0  0  0  0  0  0  0  0  0  0
  -30.4450  -16.9950   21.4960 C   0  0  0  0  0  2  0  0  0  0  0  0
  -29.0360  -16.7250   19.9950 C   0  0  0  0  0  2  0  0  0  0  0  0
  -29.9690  -17.9120   20.3440 C   0  0  0  0  0  3  0  0  0  0  0  0
  -29.8860  -15.7950   20.8010 N   0  0  0  0  0  0  0  0  0  0  0  0
  -25.1980  -13.8470   20.5520 C   0  0  0  0  0  0  0  0  0  0  0  0
  -24.1380  -13.0700   20.9310 C   0  0  0  0  0  0  0  0  0  0  0  0
  -24.5990  -11.7180   20.8750 C   0  0  0  0  0  0  0  0  0  0  0  0
  -26.2370  -12.9680   20.2850 N   0  0  0  0  0  0  0  0  0  0  0  0
  -25.8830  -11.6830   20.5400 N   0  0  0  0  0  0  0  0  0  0  0  0
  -23.8760  -10.4540   21.0640 C   0  0  0  0  0  0  0  0  0  0  0  0
  -24.3150   -9.4790   21.9850 C   0  0  0  0  0  3  0  0  0  0  0  0
  -23.5900   -8.2810   22.1610 C   0  0  0  0  0  3  0  0  0  0  0  0
  -22.4100   -8.0490   21.4140 C   0  0  0  0  0  0  0  0  0  0  0  0
  -21.9900   -9.0140   20.4820 C   0  0  0  0  0  3  0  0  0  0  0  0
  -22.7150  -10.2030   20.3040 C   0  0  0  0  0  3  0  0  0  0  0  0
  -21.6560   -6.9030   21.5010 O   0  0  0  0  0  0  0  0  0  0  0  0
  -21.6080   -6.1590   22.6520 C   0  0  0  0  0  0  0  0  0  0  0  0
  -21.1450   -6.7010   23.8720 C   0  0  0  0  0  3  0  0  0  0  0  0
  -21.0450   -5.8810   25.0130 C   0  0  0  0  0  3  0  0  0  0  0  0
  -21.3990   -4.5200   24.9380 C   0  0  0  0  0  0  0  0  0  0  0  0
  -21.8550   -3.9770   23.7220 C   0  0  0  0  0  3  0  0  0  0  0  0
  -21.9560   -4.7950   22.5830 C   0  0  0  0  0  0  0  0  0  0  0  0
  -22.3760   -4.2620   21.4100 F   0  0  0  0  0  0  0  0  0  0  0  0
  -21.2960   -3.7310   26.0320 F   0  0  0  0  0  0  0  0  0  0  0  0
  -22.7470  -13.5450   21.2340 C   0  0  0  0  0  0  0  0  0  0  0  0
  -22.0350  -12.8420   22.1090 N   0  0  0  0  0  0  0  0  0  0  0  0
  -22.3010  -14.5760   20.7320 O   0  0  0  0  0  0  0  0  0  0  0  0
  -22.4090  -12.0090   22.5370 H   0  0  0  0  0  0  0  0  0  0  0  0
  -21.1020  -13.1430   22.3540 H   0  0  0  0  0  0  0  0  0  0  0  0
  -25.3590  -15.2190   20.3880 N   0  0  0  0  0  0  0  0  0  0  0  0
  -24.5990  -15.8740   20.5280 H   0  0  0  0  0  0  0  0  0  0  0  0
  -26.2080  -15.6600   20.0590 H   0  0  0  0  0  0  0  0  0  0  0  0
  -30.4030  -22.0490   24.0240 C   0  0  0  0  0  2  0  0  0  0  0  0
  -29.7320  -23.3120   23.5370 C   0  0  0  0  0  2  0  0  0  0  0  0
  -30.5840  -22.4960   22.5900 C   0  0  0  0  0  3  0  0  0  0  0  0
  -30.0570  -24.3170   18.8180 C   0  0  0  0  0  1  0  0  0  0  0  0
  -29.4160  -24.0120   20.1830 C   0  0  0  0  0  3  0  0  0  0  0  0
  -28.1440  -24.9650   20.3700 C   0  0  0  0  0  2  0  0  0  0  0  0
  -28.3490  -26.4460   20.2710 O   0  0  0  0  0  0  0  0  0  0  0  0
  -24.6380  -31.9130   23.2630 C   0  0  0  0  0  0  0  0  0  0  0  0
  -27.2310  -27.3050   20.2350 C   0  0  0  0  0  0  0  0  0  0  0  0
  -23.4340  -30.5110   21.6280 C   0  0  0  0  0  3  0  0  0  0  0  0
  -24.8800  -28.9480   20.2130 C   0  0  0  0  0  0  0  0  0  0  0  0
  -25.9800  -30.8050   21.4610 C   0  0  0  0  0  2  0  0  0  0  0  0
  -26.0510  -29.4250   20.8150 C   0  0  0  0  0  0  0  0  0  0  0  0
  -27.2300  -28.6170   20.8130 C   0  0  0  0  0  3  0  0  0  0  0  0
  -26.0350  -26.8900   19.6070 C   0  0  0  0  0  3  0  0  0  0  0  0
  -24.8750  -27.6870   19.6000 C   0  0  0  0  0  3  0  0  0  0  0  0
  -23.6490  -29.8320   20.2520 C   0  0  0  0  0  2  0  0  0  0  0  0
  -24.7040  -31.0900   22.1760 N   0  0  0  0  0  0  0  0  0  0  0  0
  -23.5490  -32.2250   23.7630 O   0  0  0  0  0  0  0  0  0  0  0  0
  -22.7580  -29.5030   22.5870 C   0  0  0  0  0  0  0  0  0  0  0  0
  -21.4310  -29.3290   22.4510 N   0  0  0  0  0  0  0  0  0  0  0  0
  -23.4260  -28.8760   23.4150 O   0  0  0  0  0  0  0  0  0  0  0  0
  -20.9500  -29.8870   21.7580 H   0  0  0  0  0  0  0  0  0  0  0  0
  -18.0410  -28.1660   22.9420 C   0  0  0  0  0  0  0  0  0  0  0  0
  -20.6020  -28.3980   23.2170 C   0  0  0  0  0  3  0  0  0  0  0  0
  -20.6890  -26.9670   22.6370 C   0  0  0  0  0  2  0  0  0  0  0  0
  -19.5850  -26.6600   21.6190 C   0  0  0  0  0  2  0  0  0  0  0  0
  -18.2050  -26.8170   22.2620 C   0  0  0  0  0  2  0  0  0  0  0  0
  -19.1670  -28.9150   23.3770 C   0  0  0  0  0  0  0  0  0  0  0  0
  -18.9600  -30.1780   23.9730 C   0  0  0  0  0  3  0  0  0  0  0  0
  -17.6600  -30.6910   24.1380 C   0  0  0  0  0  3  0  0  0  0  0  0
  -16.5490  -29.9400   23.7210 C   0  0  0  0  0  3  0  0  0  0  0  0
  -16.7400  -28.6780   23.1280 C   0  0  0  0  0  3  0  0  0  0  0  0
  -25.9220  -32.5280   23.9020 C   0  0  0  0  0  3  0  0  0  0  0  0
  -26.4230  -31.7490   25.1810 C   0  0  1  0  0  0  0  0  0  0  0  0
  -25.3180  -31.5140   26.2370 C   0  0  0  0  0  1  0  0  0  0  0  0
  -27.0040  -30.3700   24.7920 C   0  0  0  0  0  1  0  0  0  0  0  0
  -27.5700  -32.5370   25.8570 C   0  0  0  0  0  1  0  0  0  0  0  0
  -25.6200  -33.9270   24.2370 N   0  0  0  0  0  0  0  0  0  0  0  0
  -25.9330  -34.9780   23.4690 C   0  0  0  0  0  0  0  0  0  0  0  0
  -26.5760  -34.8720   22.4210 O   0  0  0  0  0  0  0  0  0  0  0  0
  -25.0450  -34.0810   25.0520 H   0  0  0  0  0  0  0  0  0  0  0  0
  -24.1840  -36.7610   23.1680 C   0  0  0  0  0  1  0  0  0  0  0  0
  -25.4570  -36.3670   23.9350 C   0  0  0  0  0  3  0  0  0  0  0  0
  -27.6120  -37.2720   24.6870 C   0  0  0  0  0  1  0  0  0  0  0  0
  -26.4790  -37.4230   23.7770 N   0  0  0  0  0  0  0  0  0  0  0  0
  -26.0730  -38.3430   23.9280 H   0  0  0  0  0  0  0  0  0  0  0  0
  1  4  1  0
  2  1  2  0
  2  6  1  0
  4  3  2  0
  5  3  1  0
  5 49  1  0
  6  5  2  0
  7 18  1  0
  8 13  1  0
  9 10  1  0
  9  8  1  0
 11 10  1  0
 11 22  1  0
 11 12  1  0
 13  7  1  0
 13 12  1  0
 14  7  2  0
 16 17  1  0
 16 18  1  0
 17  4  1  0
 17 15  1  0
 18 15  1  0
 19 20  2  0
 20 39  1  0
 21 20  1  0
 21 24  1  0
 22 23  1  0
 22 19  1  0
 23 21  2  0
 24 25  1  0
 25 26  2  0
 27 30  1  0
 27 26  1  0
 28 27  2  0
 29 28  1  0
 29 24  2  0
 30 31  1  0
 31 32  1  0
 32 33  2  0
 34 33  1  0
 34 38  1  0
 35 34  2  0
 36 31  2  0
 36 35  1  0
 37 36  1  0
 39 40  1  0
 40 43  1  0
 40 42  1  0
 41 39  2  0
 44 45  1  0
 44 19  1  0
 46 44  1  0
 48 47  1  0
 49 48  1  0
 49 47  1  0
 51 50  1  0
 51 52  1  0
 51  6  1  0
 53 52  1  0
 54 65  2  0
 55 53  1  0
 55 60  1  0
 56 64  1  0
 56 66  1  0
 57 63  1  0
 57 59  1  0
 58 64  1  0
 59 58  1  0
 60 59  2  0
 61 55  2  0
 62 61  1  0
 62 57  2  0
 63 56  1  0
 64 54  1  0
 66 68  2  0
 67 66  1  0
 69 67  1  0
 70 79  2  0
 70 75  1  0
 71 67  1  0
 71 75  1  0
 72 71  1  0
 73 74  1  0
 73 72  1  0
 74 70  1  0
 75 76  2  0
 76 77  1  0
 78 77  2  0
 79 78  1  0
 80 54  1  0
 80 85  1  0
 80 81  1  0
 81 84  1  1
 81 82  1  0
 83 81  1  0
 85 88  1  0
 86 90  1  0
 86 85  1  0
 87 86  2  0
 90 89  1  0
 92 93  1  0
 92 90  1  0
 92 91  1  0
M  ISO  4   7 100  18 100  52 101  53 101
M  END
>  <TORSDO>  (38) 
F 19

>  <SCORE>  (38) 
-14.809

>  <name>  (38) 
37

>  <ligand_id>  (38) 
37

>  <original_smiles>  (38) 
[H]c1c([H])c([H])c2c(c1[H])C([H])([H])C([H])([H])C([H])([H])C2([H])N([H])C(=O)C1([H])N(C(=O)C([H])(N([H])C(=O)C([H])(N([H])C([H])([H])[H])C([H])([H])[H])C(C([H])([H])[H])(C([H])([H])[H])C([H])([H])[H])C([H])([H])c2c([H])c(OC([H])([H])C([H])(c3c([H])c([H])c(C4([H])C([H])([H])N(C(=O)N5C([H])([H])C([H])([H])C([H])([H])C([H])(n6nc(-c7c([H])c([H])c(Oc8c([H])c([H])c(F)c([H])c8F)c([H])c7[H])c(C(=O)N([H])[H])c6N([H])[H])C5([H])[H])C4([H])[H])c([H])c3C3([H])C([H])([H])C3([H])[H])C([H])([H])[H])c([H])c([H])c2C1([H])[H]

>  <smiles>  (38) 
[H]c1c([H])c([H])c2c(c1[H])C([H])([H])C([H])([H])C([H])([H])C2([H])N([H])C(=O)C1([H])N(C(=O)C([H])(N([H])C(=O)C([H])(N([H])C([H])([H])[H])C([H])([H])[H])C(C([H])([H])[H])(C([H])([H])[H])C([H])([H])[H])C([H])([H])c2c([H])c(OC([H])([H])C([H])(c3c([H])c([H])c(C4([H])C([H])([H])N(C(=O)N5C([H])([H])C([H])([H])C([H])([H])C([H])(n6nc(-c7c([H])c([H])c(Oc8c([H])c([H])c(F)c([H])c8F)c([H])c7[H])c(C(=O)N([H])[H])c6N([H])[H])C5([H])[H])C4([H])[H])c([H])c3C3([H])C([H])([H])C3([H])[H])C([H])([H])[H])c([H])c([H])c2C1([H])[H]

> <Step>
170.0

> <Scaffold>
O=C(NC1CCCc2ccccc21)C1Cc2ccc(OCCc3ccc(C4CN(C(=O)N5CCCC(n6ccc(-c7ccc(Oc8ccccc8)cc7)n6)C5)C4)cc3C3CC3)cc2CN1

> <SMILES>
CNC(C)C(=O)NC(C(=O)N1Cc2cc(OCC(C)c3ccc(C4CN(C(=O)N5CCCC(n6nc(-c7ccc(Oc8ccc(F)cc8F)cc7)c(C(N)=O)c6N)C5)C4)cc3C3CC3)ccc2CC1C(=O)NC1CCCc2ccccc21)C(C)(C)C

> <Tanimoto ROCS sim>
0.21587809920310974

> <Custom alerts>
1.0

> <Linker Num Aromatic Rings>
1.0

> <Linker Effective Length>
1.0

> <ADV>
0.9964461326599121

> <PostDock Tanimoto ROCS sim>
0.9883409142494202

> <raw_Linker Num Aromatic Rings>
1.0

> <raw_Linker Effective Length>
8.0

> <raw_ADV>
-14.791000366210938

> <total_score>
0.9961967468261719

> <ID>
default_job_137

> <PostDock Tanimoto ROCS sim (re-score)>
0.9792119

> <raw_ADV (re-score)>
-14.809

$$$$
default_job_138
     RDKit          3D

 95103  0  0  1  0  0  0  0  0999 V2000
  -30.0170  -23.8980   18.3540 C   0  0  0  0  0  3  0  0  0  0  0  0
  -31.0680  -23.1380   17.8180 C   0  0  0  0  0  3  0  0  0  0  0  0
  -29.4410  -22.0290   19.8010 C   0  0  0  0  0  3  0  0  0  0  0  0
  -29.1880  -23.3560   19.3520 C   0  0  0  0  0  0  0  0  0  0  0  0
  -31.3240  -21.8250   18.2690 C   0  0  0  0  0  0  0  0  0  0  0  0
  -30.5040  -21.2450   19.2810 C   0  0  0  0  0  0  0  0  0  0  0  0
  -32.4900  -21.1040   17.6230 C   0  0  0  0  0  1  0  0  0  0  0  0
  -26.8950  -23.3930   20.5310 C   0  0  0  0  0  1  0  0  0  0  0  0
  -28.0160  -24.2080   19.8650 C   0  0  0  0  0  3  0  0  0  0  0  0
  -28.4220  -25.4190   20.7600 C   0  0  0  0  0  2  0  0  0  0  0  0
  -28.4280  -26.6990   20.1000 O   0  0  0  0  0  0  0  0  0  0  0  0
  -24.6530  -31.8780   23.2530 C   0  0  0  0  0  0  0  0  0  0  0  0
  -27.2490  -27.4190   20.1470 C   0  0  0  0  0  0  0  0  0  0  0  0
  -23.4200  -30.4780   21.6260 C   0  0  0  0  0  3  0  0  0  0  0  0
  -24.8540  -28.9330   20.1910 C   0  0  0  0  0  0  0  0  0  0  0  0
  -25.9470  -30.8250   21.4010 C   0  0  0  0  0  2  0  0  0  0  0  0
  -26.0210  -29.4530   20.7620 C   0  0  0  0  0  0  0  0  0  0  0  0
  -27.2250  -28.7100   20.7300 C   0  0  0  0  0  3  0  0  0  0  0  0
  -26.0570  -26.9100   19.5850 C   0  0  0  0  0  3  0  0  0  0  0  0
  -24.8690  -27.6620   19.5980 C   0  0  0  0  0  3  0  0  0  0  0  0
  -23.6100  -29.7910   20.2480 C   0  0  0  0  0  2  0  0  0  0  0  0
  -24.6930  -31.0720   22.1540 N   0  0  0  0  0  0  0  0  0  0  0  0
  -23.5760  -32.1730   23.7860 O   0  0  0  0  0  0  0  0  0  0  0  0
  -22.7710  -29.4610   22.5920 C   0  0  0  0  0  0  0  0  0  0  0  0
  -21.4450  -29.2790   22.4700 N   0  0  0  0  0  0  0  0  0  0  0  0
  -23.4580  -28.8350   23.4030 O   0  0  0  0  0  0  0  0  0  0  0  0
  -20.9550  -29.8310   21.7810 H   0  0  0  0  0  0  0  0  0  0  0  0
  -18.0770  -28.0710   22.9640 C   0  0  0  0  0  0  0  0  0  0  0  0
  -20.6300  -28.3410   23.2410 C   0  0  0  0  0  3  0  0  0  0  0  0
  -20.7440  -26.9080   22.6700 C   0  0  0  0  0  2  0  0  0  0  0  0
  -19.6460  -26.5730   21.6550 C   0  0  0  0  0  2  0  0  0  0  0  0
  -18.2610  -26.7180   22.2930 C   0  0  0  0  0  2  0  0  0  0  0  0
  -19.1900  -28.8390   23.3920 C   0  0  0  0  0  0  0  0  0  0  0  0
  -18.9650  -30.1060   23.9730 C   0  0  0  0  0  3  0  0  0  0  0  0
  -17.6570  -30.6030   24.1330 C   0  0  0  0  0  3  0  0  0  0  0  0
  -16.5580  -29.8300   23.7240 C   0  0  0  0  0  3  0  0  0  0  0  0
  -16.7660  -28.5660   23.1430 C   0  0  0  0  0  3  0  0  0  0  0  0
  -25.9480  -32.4950   23.8700 C   0  0  0  0  0  3  0  0  0  0  0  0
  -25.6560  -33.8930   24.2050 N   0  0  0  0  0  0  0  0  0  0  0  0
  -25.9760  -34.9410   23.4360 C   0  0  0  0  0  0  0  0  0  0  0  0
  -26.6230  -34.8340   22.3920 O   0  0  0  0  0  0  0  0  0  0  0  0
  -25.1070  -34.0550   25.0360 H   0  0  0  0  0  0  0  0  0  0  0  0
  -24.2470  -36.7340   23.1050 C   0  0  0  0  0  1  0  0  0  0  0  0
  -25.5000  -36.3310   23.9010 C   0  0  0  0  0  3  0  0  0  0  0  0
  -27.6480  -37.2070   24.6990 C   0  0  0  0  0  1  0  0  0  0  0  0
  -26.5320  -37.3820   23.7730 N   0  0  0  0  0  0  0  0  0  0  0  0
  -26.1300  -38.3020   23.9300 H   0  0  0  0  0  0  0  0  0  0  0  0
  -26.4670  -31.7230   25.1450 C   0  0  1  0  0  0  0  0  0  0  0  0
  -25.3840  -31.4910   26.2240 C   0  0  0  0  0  1  0  0  0  0  0  0
  -27.0380  -30.3440   24.7460 C   0  0  0  0  0  1  0  0  0  0  0  0
  -27.6250  -32.5180   25.7970 C   0  0  0  0  0  1  0  0  0  0  0  0
  -30.7510  -19.8360   19.8770 C   0  0  0  0  0  2  0  0  0  0  0  0
  -31.4230  -17.8940   18.2910 C   0  0  0  0  0  1  0  0  0  0  0  0
  -30.2720  -18.6160   19.0280 C   0  0  0  0  0  3  0  0  0  0  0  0
  -28.0360  -17.9720   20.1520 C   0  0  0  0  0  1  0  0  0  0  0  0
  -29.4590  -17.5250   19.7930 C   0  0  0  0  0  3  0  0  0  0  0  0
  -30.1870  -16.8840   21.0110 C   0  0  0  0  0  2  0  0  0  0  0  0
  -30.6270  -14.4720   20.5160 C   0  0  0  0  0  0  0  0  0  0  0  0
  -30.3510  -12.3270   19.3420 C   0  0  0  0  0  2  0  0  0  0  0  0
  -29.3980  -12.5400   18.1460 C   0  0  0  0  0  2  0  0  0  0  0  0
  -27.9320  -12.3690   18.5860 C   0  0  0  0  0  2  0  0  0  0  0  0
  -27.5960  -13.2190   19.8400 C   0  0  0  0  0  3  0  0  0  0  0  0
  -28.6470  -12.9800   20.9490 C   0  0  0  0  0  2  0  0  0  0  0  0
  -29.9740  -13.2880   20.3890 N   0  0  0  0  0  0  0  0  0  0  0  0
  -31.7290  -14.6920   20.0080 O   0  0  0  0  0  0  0  0  0  0  0  0
  -29.9100  -15.4460   21.1010 N   0  0  0  0  0  0  0  0  0  0  0  0
  -29.0270  -15.1740   21.5060 H   0  0  0  0  0  0  0  0  0  0  0  0
  -25.1950  -13.8400   20.5290 C   0  0  0  0  0  0  0  0  0  0  0  0
  -24.1260  -13.0700   20.9010 C   0  0  0  0  0  0  0  0  0  0  0  0
  -24.5870  -11.7180   20.8800 C   0  0  0  0  0  0  0  0  0  0  0  0
  -26.2410  -12.9570   20.3120 N   0  0  0  0  0  0  0  0  0  0  0  0
  -25.8770  -11.6780   20.5800 N   0  0  0  0  0  0  0  0  0  0  0  0
  -23.8640  -10.4570   21.0740 C   0  0  0  0  0  0  0  0  0  0  0  0
  -24.3100   -9.4860   21.9970 C   0  0  0  0  0  3  0  0  0  0  0  0
  -23.5920   -8.2860   22.1760 C   0  0  0  0  0  3  0  0  0  0  0  0
  -22.4110   -8.0490   21.4330 C   0  0  0  0  0  0  0  0  0  0  0  0
  -21.9840   -9.0070   20.4970 C   0  0  0  0  0  3  0  0  0  0  0  0
  -22.7040  -10.2000   20.3160 C   0  0  0  0  0  3  0  0  0  0  0  0
  -21.6600   -6.9030   21.5230 O   0  0  0  0  0  0  0  0  0  0  0  0
  -21.6380   -6.1470   22.6680 C   0  0  0  0  0  0  0  0  0  0  0  0
  -21.2490   -6.6880   23.9110 C   0  0  0  0  0  3  0  0  0  0  0  0
  -21.1750   -5.8570   25.0480 C   0  0  0  0  0  3  0  0  0  0  0  0
  -21.4790   -4.4870   24.9410 C   0  0  0  0  0  0  0  0  0  0  0  0
  -21.8590   -3.9450   23.7000 C   0  0  0  0  0  3  0  0  0  0  0  0
  -21.9360   -4.7720   22.5660 C   0  0  0  0  0  0  0  0  0  0  0  0
  -22.2830   -4.2430   21.3690 F   0  0  0  0  0  0  0  0  0  0  0  0
  -21.3990   -3.6860   26.0290 F   0  0  0  0  0  0  0  0  0  0  0  0
  -22.7280  -13.5470   21.1690 C   0  0  0  0  0  0  0  0  0  0  0  0
  -22.0000  -12.8540   22.0380 N   0  0  0  0  0  0  0  0  0  0  0  0
  -22.2890  -14.5720   20.6460 O   0  0  0  0  0  0  0  0  0  0  0  0
  -22.3650  -12.0200   22.4730 H   0  0  0  0  0  0  0  0  0  0  0  0
  -21.0650  -13.1580   22.2680 H   0  0  0  0  0  0  0  0  0  0  0  0
  -25.3620  -15.2080   20.3370 N   0  0  0  0  0  0  0  0  0  0  0  0
  -24.5950  -15.8670   20.4150 H   0  0  0  0  0  0  0  0  0  0  0  0
  -26.2130  -15.6310   19.9890 H   0  0  0  0  0  0  0  0  0  0  0  0
  1  4  1  0
  2  5  1  0
  2  1  2  0
  4  3  2  0
  4  9  1  0
  5  6  2  0
  6  3  1  0
  6 52  1  0
  7  5  1  0
  9  8  1  0
  9 10  1  0
 11 13  1  0
 11 10  1  0
 12 23  2  0
 13 18  1  0
 14 22  1  0
 14 24  1  0
 15 21  1  0
 15 17  1  0
 16 22  1  0
 17 16  1  0
 18 17  2  0
 19 20  1  0
 19 13  2  0
 20 15  2  0
 21 14  1  0
 22 12  1  0
 24 26  2  0
 25 24  1  0
 27 25  1  0
 28 37  2  0
 28 33  1  0
 29 25  1  0
 29 33  1  0
 30 29  1  0
 31 32  1  0
 31 30  1  0
 32 28  1  0
 33 34  2  0
 34 35  1  0
 36 35  2  0
 37 36  1  0
 38 12  1  0
 38 39  1  0
 38 48  1  0
 39 42  1  0
 40 44  1  0
 40 39  1  0
 41 40  2  0
 44 43  1  0
 46 44  1  0
 46 47  1  0
 46 45  1  0
 48 51  1  1
 48 49  1  0
 50 48  1  0
 54 53  1  0
 54 56  1  0
 54 52  1  0
 56 55  1  0
 56 57  1  0
 57 66  1  0
 58 66  1  0
 59 64  1  0
 60 61  1  0
 60 59  1  0
 62 61  1  0
 62 71  1  0
 62 63  1  0
 64 58  1  0
 64 63  1  0
 65 58  2  0
 66 67  1  0
 68 69  2  0
 69 88  1  0
 70 69  1  0
 70 73  1  0
 71 68  1  0
 71 72  1  0
 72 70  2  0
 73 74  1  0
 74 75  2  0
 76 79  1  0
 76 75  1  0
 77 76  2  0
 78 77  1  0
 78 73  2  0
 79 80  1  0
 80 81  1  0
 81 82  2  0
 83 82  1  0
 83 87  1  0
 84 83  2  0
 85 80  2  0
 85 84  1  0
 86 85  1  0
 88 89  1  0
 89 92  1  0
 89 91  1  0
 90 88  2  0
 93 94  1  0
 93 68  1  0
 95 93  1  0
M  ISO  4  10 101  11 101  58 100  66 100
M  END
>  <TORSDO>  (39) 
F 22

>  <SCORE>  (39) 
-13.319

>  <name>  (39) 
38

>  <ligand_id>  (39) 
38

>  <original_smiles>  (39) 
[H]c1c([H])c([H])c2c(c1[H])C([H])([H])C([H])([H])C([H])([H])C2([H])N([H])C(=O)C1([H])N(C(=O)C([H])(N([H])C(=O)C([H])(N([H])C([H])([H])[H])C([H])([H])[H])C(C([H])([H])[H])(C([H])([H])[H])C([H])([H])[H])C([H])([H])c2c([H])c(OC([H])([H])C([H])(c3c([H])c([H])c(C([H])([H])[H])c(C([H])([H])C([H])(C([H])([H])[H])C([H])(C([H])([H])[H])C([H])([H])N([H])C(=O)N4C([H])([H])C([H])([H])C([H])([H])C([H])(n5nc(-c6c([H])c([H])c(Oc7c([H])c([H])c(F)c([H])c7F)c([H])c6[H])c(C(=O)N([H])[H])c5N([H])[H])C4([H])[H])c3[H])C([H])([H])[H])c([H])c([H])c2C1([H])[H]

>  <smiles>  (39) 
[H]c1c([H])c([H])c2c(c1[H])C([H])([H])C([H])([H])C([H])([H])C2([H])N([H])C(=O)C1([H])N(C(=O)C([H])(N([H])C(=O)C([H])(N([H])C([H])([H])[H])C([H])([H])[H])C(C([H])([H])[H])(C([H])([H])[H])C([H])([H])[H])C([H])([H])c2c([H])c(OC([H])([H])C([H])(c3c([H])c([H])c(C([H])([H])[H])c(C([H])([H])C([H])(C([H])([H])[H])C([H])(C([H])([H])[H])C([H])([H])N([H])C(=O)N4C([H])([H])C([H])([H])C([H])([H])C([H])(n5nc(-c6c([H])c([H])c(Oc7c([H])c([H])c(F)c([H])c7F)c([H])c6[H])c(C(=O)N([H])[H])c5N([H])[H])C4([H])[H])c3[H])C([H])([H])[H])c([H])c([H])c2C1([H])[H]

> <Step>
88.0

> <Scaffold>
O=C(NC1CCCc2ccccc21)C1Cc2ccc(OCCc3cccc(CCCCNC(=O)N4CCCC(n5ccc(-c6ccc(Oc7ccccc7)cc6)n5)C4)c3)cc2CN1

> <SMILES>
CNC(C)C(=O)NC(C(=O)N1Cc2cc(OCC(C)c3ccc(C)c(CC(C)C(C)CNC(=O)N4CCCC(n5nc(-c6ccc(Oc7ccc(F)cc7F)cc6)c(C(N)=O)c5N)C4)c3)ccc2CC1C(=O)NC1CCCc2ccccc21)C(C)(C)C

> <Tanimoto ROCS sim>
0.22564314305782318

> <Custom alerts>
1.0

> <Linker Num Aromatic Rings>
1.0

> <Linker Effective Length>
1.0

> <ADV>
0.9917885661125183

> <PostDock Tanimoto ROCS sim>
0.992991030216217

> <raw_Linker Num Aromatic Rings>
1.0

> <raw_Linker Effective Length>
9.0

> <raw_ADV>
-13.32800006866455

> <total_score>
0.9961948990821838

> <ID>
default_job_138

> <PostDock Tanimoto ROCS sim (re-score)>
0.98497266

> <raw_ADV (re-score)>
-13.319

$$$$
default_job_139
     RDKit          3D

 93101  0  0  1  0  0  0  0  0999 V2000
  -28.2540  -22.2430   19.8910 C   0  0  0  0  0  3  0  0  0  0  0  0
  -28.1730  -20.8340   19.9010 C   0  0  0  0  0  3  0  0  0  0  0  0
  -29.3610  -22.9000   20.4810 C   0  0  0  0  0  0  0  0  0  0  0  0
  -30.3530  -22.0480   21.0520 C   0  0  0  0  0  0  0  0  0  0  0  0
  -29.2060  -20.0840   20.4840 C   0  0  0  0  0  0  0  0  0  0  0  0
  -31.5990  -22.5670   21.7520 C   0  0  0  0  0  1  0  0  0  0  0  0
  -30.2720  -20.6880   21.0430 N   0  0  0  0  0  0  0  0  0  0  0  0
  -29.1140  -18.6810   20.5240 N   0  0  0  0  0  0  0  0  0  0  0  0
  -28.2720  -18.2960   20.1120 H   0  0  0  0  0  0  0  0  0  0  0  0
  -29.4440  -24.4170   20.4640 C   0  0  0  0  0  0  0  0  0  0  0  0
  -30.4520  -25.0460   20.8000 O   0  0  0  0  0  0  0  0  0  0  0  0
  -28.2030  -25.2190   20.0000 C   0  0  0  0  0  2  0  0  0  0  0  0
  -28.3580  -26.6470   20.1770 O   0  0  0  0  0  0  0  0  0  0  0  0
  -24.5980  -31.8780   23.2480 C   0  0  0  0  0  0  0  0  0  0  0  0
  -27.1950  -27.4010   20.1520 C   0  0  0  0  0  0  0  0  0  0  0  0
  -23.3730  -30.4800   21.6190 C   0  0  0  0  0  3  0  0  0  0  0  0
  -24.8100  -28.9390   20.1810 C   0  0  0  0  0  0  0  0  0  0  0  0
  -25.9040  -30.8200   21.4070 C   0  0  0  0  0  2  0  0  0  0  0  0
  -25.9770  -29.4500   20.7620 C   0  0  0  0  0  0  0  0  0  0  0  0
  -27.1720  -28.6900   20.7420 C   0  0  0  0  0  3  0  0  0  0  0  0
  -26.0060  -26.9160   19.5570 C   0  0  0  0  0  3  0  0  0  0  0  0
  -24.8200  -27.6720   19.5760 C   0  0  0  0  0  3  0  0  0  0  0  0
  -23.5710  -29.8040   20.2370 C   0  0  0  0  0  2  0  0  0  0  0  0
  -24.6440  -31.0700   22.1520 N   0  0  0  0  0  0  0  0  0  0  0  0
  -23.5160  -32.1770   23.7750 O   0  0  0  0  0  0  0  0  0  0  0  0
  -22.7220  -29.4600   22.5800 C   0  0  0  0  0  0  0  0  0  0  0  0
  -21.3950  -29.2810   22.4570 N   0  0  0  0  0  0  0  0  0  0  0  0
  -23.4070  -28.8320   23.3910 O   0  0  0  0  0  0  0  0  0  0  0  0
  -20.9040  -29.8400   21.7740 H   0  0  0  0  0  0  0  0  0  0  0  0
  -18.0210  -28.0910   22.9610 C   0  0  0  0  0  0  0  0  0  0  0  0
  -20.5800  -28.3430   23.2280 C   0  0  0  0  0  3  0  0  0  0  0  0
  -20.6780  -26.9110   22.6540 C   0  0  0  0  0  2  0  0  0  0  0  0
  -19.5740  -26.5920   21.6410 C   0  0  0  0  0  2  0  0  0  0  0  0
  -18.1940  -26.7420   22.2860 C   0  0  0  0  0  2  0  0  0  0  0  0
  -19.1420  -28.8520   23.3910 C   0  0  0  0  0  0  0  0  0  0  0  0
  -18.9280  -30.1170   23.9790 C   0  0  0  0  0  3  0  0  0  0  0  0
  -17.6250  -30.6220   24.1440 C   0  0  0  0  0  3  0  0  0  0  0  0
  -16.5180  -29.8590   23.7320 C   0  0  0  0  0  3  0  0  0  0  0  0
  -16.7170  -28.5960   23.1480 C   0  0  0  0  0  3  0  0  0  0  0  0
  -25.8910  -32.4920   23.8710 C   0  0  0  0  0  3  0  0  0  0  0  0
  -26.4150  -31.7080   25.1360 C   0  0  1  0  0  0  0  0  0  0  0  0
  -25.3280  -31.4700   26.2090 C   0  0  0  0  0  1  0  0  0  0  0  0
  -26.9870  -30.3320   24.7260 C   0  0  0  0  0  1  0  0  0  0  0  0
  -27.5740  -32.4930   25.7950 C   0  0  0  0  0  1  0  0  0  0  0  0
  -25.5940  -33.8890   24.2110 N   0  0  0  0  0  0  0  0  0  0  0  0
  -25.9140  -34.9420   23.4460 C   0  0  0  0  0  0  0  0  0  0  0  0
  -26.5630  -34.8380   22.4010 O   0  0  0  0  0  0  0  0  0  0  0  0
  -25.0170  -34.0460   25.0240 H   0  0  0  0  0  0  0  0  0  0  0  0
  -24.1760  -36.7300   23.1340 C   0  0  0  0  0  1  0  0  0  0  0  0
  -25.4380  -36.3300   23.9140 C   0  0  0  0  0  3  0  0  0  0  0  0
  -27.5930  -37.2130   24.6890 C   0  0  0  0  0  1  0  0  0  0  0  0
  -26.4670  -37.3830   23.7740 N   0  0  0  0  0  0  0  0  0  0  0  0
  -26.0650  -38.3020   23.9350 H   0  0  0  0  0  0  0  0  0  0  0  0
  -30.3000  -17.8270   20.3830 C   0  0  0  0  0  2  0  0  0  0  0  0
  -30.4410  -16.7800   21.5190 C   0  0  0  0  0  2  0  0  0  0  0  0
  -30.6460  -14.4590   20.5400 C   0  0  0  0  0  0  0  0  0  0  0  0
  -30.3570  -12.3130   19.3470 C   0  0  0  0  0  2  0  0  0  0  0  0
  -29.4190  -12.5260   18.1410 C   0  0  0  0  0  2  0  0  0  0  0  0
  -27.9430  -12.3800   18.5650 C   0  0  0  0  0  2  0  0  0  0  0  0
  -27.6000  -13.2100   19.8310 C   0  0  0  0  0  3  0  0  0  0  0  0
  -28.6480  -12.9710   20.9410 C   0  0  0  0  0  2  0  0  0  0  0  0
  -29.9750  -13.2860   20.3810 N   0  0  0  0  0  0  0  0  0  0  0  0
  -31.7630  -14.6650   20.0560 O   0  0  0  0  0  0  0  0  0  0  0  0
  -29.9640  -15.4320   21.1720 N   0  0  0  0  0  0  0  0  0  0  0  0
  -29.0390  -15.1880   21.4910 H   0  0  0  0  0  0  0  0  0  0  0  0
  -25.1980  -13.8230   20.5200 C   0  0  0  0  0  0  0  0  0  0  0  0
  -24.1270  -13.0530   20.8870 C   0  0  0  0  0  0  0  0  0  0  0  0
  -24.5890  -11.7010   20.8670 C   0  0  0  0  0  0  0  0  0  0  0  0
  -26.2440  -12.9400   20.3000 N   0  0  0  0  0  0  0  0  0  0  0  0
  -25.8800  -11.6590   20.5650 N   0  0  0  0  0  0  0  0  0  0  0  0
  -23.8630  -10.4390   21.0600 C   0  0  0  0  0  0  0  0  0  0  0  0
  -24.3000   -9.4690   21.9880 C   0  0  0  0  0  3  0  0  0  0  0  0
  -23.5740   -8.2730   22.1690 C   0  0  0  0  0  3  0  0  0  0  0  0
  -22.3960   -8.0380   21.4220 C   0  0  0  0  0  0  0  0  0  0  0  0
  -21.9780   -8.9970   20.4820 C   0  0  0  0  0  3  0  0  0  0  0  0
  -22.7050  -10.1850   20.2990 C   0  0  0  0  0  3  0  0  0  0  0  0
  -21.6420   -6.8930   21.5110 O   0  0  0  0  0  0  0  0  0  0  0  0
  -21.6100   -6.1390   22.6570 C   0  0  0  0  0  0  0  0  0  0  0  0
  -21.2120   -6.6850   23.8970 C   0  0  0  0  0  3  0  0  0  0  0  0
  -21.1280   -5.8580   25.0340 C   0  0  0  0  0  3  0  0  0  0  0  0
  -21.4320   -4.4870   24.9340 C   0  0  0  0  0  0  0  0  0  0  0  0
  -21.8240   -3.9420   23.6990 C   0  0  0  0  0  3  0  0  0  0  0  0
  -21.9100   -4.7650   22.5630 C   0  0  0  0  0  0  0  0  0  0  0  0
  -22.2680   -4.2310   21.3710 F   0  0  0  0  0  0  0  0  0  0  0  0
  -21.3430   -3.6910   26.0250 F   0  0  0  0  0  0  0  0  0  0  0  0
  -22.7280  -13.5310   21.1500 C   0  0  0  0  0  0  0  0  0  0  0  0
  -21.9960  -12.8360   22.0130 N   0  0  0  0  0  0  0  0  0  0  0  0
  -22.2930  -14.5550   20.6240 O   0  0  0  0  0  0  0  0  0  0  0  0
  -22.3610  -12.0070   22.4580 H   0  0  0  0  0  0  0  0  0  0  0  0
  -21.0570  -13.1370   22.2320 H   0  0  0  0  0  0  0  0  0  0  0  0
  -25.3650  -15.1920   20.3370 N   0  0  0  0  0  0  0  0  0  0  0  0
  -24.6020  -15.8510   20.4480 H   0  0  0  0  0  0  0  0  0  0  0  0
  -26.2190  -15.6260   20.0090 H   0  0  0  0  0  0  0  0  0  0  0  0
  1  2  2  0
  1  3  1  0
  2  5  1  0
  3  4  2  0
  4  6  1  0
  5  8  1  0
  5  7  2  0
  7  4  1  0
  9  8  1  0
 10  3  1  0
 10 11  2  0
 12 13  1  0
 12 10  1  0
 14 25  2  0
 15 13  1  0
 15 20  1  0
 16 24  1  0
 16 26  1  0
 17 23  1  0
 17 19  1  0
 18 24  1  0
 19 18  1  0
 20 19  2  0
 21 22  1  0
 21 15  2  0
 22 17  2  0
 23 16  1  0
 24 14  1  0
 26 28  2  0
 27 26  1  0
 29 27  1  0
 30 39  2  0
 30 35  1  0
 31 27  1  0
 31 35  1  0
 32 31  1  0
 33 34  1  0
 33 32  1  0
 34 30  1  0
 35 36  2  0
 36 37  1  0
 38 37  2  0
 39 38  1  0
 40 14  1  0
 40 45  1  0
 40 41  1  0
 41 44  1  1
 41 42  1  0
 43 41  1  0
 45 48  1  0
 46 50  1  0
 46 45  1  0
 47 46  2  0
 50 49  1  0
 52 50  1  0
 52 53  1  0
 52 51  1  0
 54  8  1  0
 54 55  1  0
 56 64  1  0
 57 62  1  0
 58 59  1  0
 58 57  1  0
 60 59  1  0
 60 69  1  0
 60 61  1  0
 62 56  1  0
 62 61  1  0
 63 56  2  0
 64 65  1  0
 64 55  1  0
 66 67  2  0
 67 86  1  0
 68 67  1  0
 68 71  1  0
 69 66  1  0
 69 70  1  0
 70 68  2  0
 71 72  1  0
 72 73  2  0
 74 77  1  0
 74 73  1  0
 75 74  2  0
 76 75  1  0
 76 71  2  0
 77 78  1  0
 78 79  1  0
 79 80  2  0
 81 80  1  0
 81 85  1  0
 82 81  2  0
 83 78  2  0
 83 82  1  0
 84 83  1  0
 86 87  1  0
 87 90  1  0
 87 89  1  0
 88 86  2  0
 91 92  1  0
 91 66  1  0
 93 91  1  0
M  ISO  4  12 101  13 101  56 100  64 100
M  END
>  <TORSDO>  (40) 
F 20

>  <SCORE>  (40) 
-13.867

>  <name>  (40) 
39

>  <ligand_id>  (40) 
39

>  <original_smiles>  (40) 
[H]c1c(N([H])C([H])([H])C([H])([H])N([H])C(=O)N2C([H])([H])C([H])([H])C([H])([H])C([H])(n3nc(-c4c([H])c([H])c(Oc5c([H])c([H])c(F)c([H])c5F)c([H])c4[H])c(C(=O)N([H])[H])c3N([H])[H])C2([H])[H])nc(C([H])([H])[H])c(C(=O)C([H])([H])Oc2c([H])c([H])c3c(c2[H])C([H])([H])N(C(=O)C([H])(N([H])C(=O)C([H])(N([H])C([H])([H])[H])C([H])([H])[H])C(C([H])([H])[H])(C([H])([H])[H])C([H])([H])[H])C([H])(C(=O)N([H])C2([H])c4c([H])c([H])c([H])c([H])c4C([H])([H])C([H])([H])C2([H])[H])C3([H])[H])c1[H]

>  <smiles>  (40) 
[H]c1c(N([H])C([H])([H])C([H])([H])N([H])C(=O)N2C([H])([H])C([H])([H])C([H])([H])C([H])(n3nc(-c4c([H])c([H])c(Oc5c([H])c([H])c(F)c([H])c5F)c([H])c4[H])c(C(=O)N([H])[H])c3N([H])[H])C2([H])[H])nc(C([H])([H])[H])c(C(=O)C([H])([H])Oc2c([H])c([H])c3c(c2[H])C([H])([H])N(C(=O)C([H])(N([H])C(=O)C([H])(N([H])C([H])([H])[H])C([H])([H])[H])C(C([H])([H])[H])(C([H])([H])[H])C([H])([H])[H])C([H])(C(=O)N([H])C2([H])c4c([H])c([H])c([H])c([H])c4C([H])([H])C([H])([H])C2([H])[H])C3([H])[H])c1[H]

> <Step>
115.0

> <Scaffold>
O=C(COc1ccc2c(c1)CNC(C(=O)NC1CCCc3ccccc31)C2)c1ccc(NCCNC(=O)N2CCCC(n3ccc(-c4ccc(Oc5ccccc5)cc4)n3)C2)nc1

> <SMILES>
CNC(C)C(=O)NC(C(=O)N1Cc2cc(OCC(=O)c3ccc(NCCNC(=O)N4CCCC(n5nc(-c6ccc(Oc7ccc(F)cc7F)cc6)c(C(N)=O)c5N)C4)nc3C)ccc2CC1C(=O)NC1CCCc2ccccc21)C(C)(C)C

> <Tanimoto ROCS sim>
0.22488844394683838

> <Custom alerts>
1.0

> <Linker Num Aromatic Rings>
1.0

> <Linker Effective Length>
1.0

> <ADV>
0.9938963055610657

> <PostDock Tanimoto ROCS sim>
0.9908745884895325

> <raw_Linker Num Aromatic Rings>
1.0

> <raw_Linker Effective Length>
9.0

> <raw_ADV>
-13.847000122070312

> <total_score>
0.9961926937103271

> <ID>
default_job_139

> <PostDock Tanimoto ROCS sim (re-score)>
0.98602307

> <raw_ADV (re-score)>
-13.867

$$$$
default_job_140
     RDKit          3D

 89 97  0  0  1  0  0  0  0  0999 V2000
  -30.3660  -20.4080   20.6650 C   0  0  0  0  0  2  0  0  0  0  0  0
  -28.2560  -20.3560   19.3580 C   0  0  0  0  0  2  0  0  0  0  0  0
  -30.0370  -21.8670   21.1130 C   0  0  0  0  0  2  0  0  0  0  0  0
  -27.9360  -21.8330   19.7550 C   0  0  0  0  0  2  0  0  0  0  0  0
  -29.0960  -19.5670   20.4000 C   0  0  0  0  0  3  0  0  0  0  0  0
  -29.1840  -22.6890   20.1050 C   0  0  0  0  0  3  0  0  0  0  0  0
  -29.3300  -18.0600   19.9670 C   0  0  0  0  0  2  0  0  0  0  0  0
  -30.1440  -17.1080   20.9170 C   0  0  0  0  0  2  0  0  0  0  0  0
  -30.6070  -14.6120   20.4030 C   0  0  0  0  0  0  0  0  0  0  0  0
  -30.3740  -12.4090   19.2950 C   0  0  0  0  0  2  0  0  0  0  0  0
  -29.4240  -12.5790   18.0880 C   0  0  0  0  0  2  0  0  0  0  0  0
  -27.9530  -12.4230   18.5230 C   0  0  0  0  0  2  0  0  0  0  0  0
  -27.6060  -13.2620   19.7810 C   0  0  0  0  0  3  0  0  0  0  0  0
  -28.6690  -13.0710   20.8870 C   0  0  0  0  0  2  0  0  0  0  0  0
  -29.9780  -13.4040   20.3060 N   0  0  0  0  0  0  0  0  0  0  0  0
  -31.7580  -14.7870   19.9970 O   0  0  0  0  0  0  0  0  0  0  0  0
  -29.8260  -15.6530   20.8000 N   0  0  0  0  0  0  0  0  0  0  0  0
  -28.8990  -15.3850   21.0950 H   0  0  0  0  0  0  0  0  0  0  0  0
  -25.2070  -13.8580   20.4940 C   0  0  0  0  0  0  0  0  0  0  0  0
  -24.1430  -13.0830   20.8670 C   0  0  0  0  0  0  0  0  0  0  0  0
  -24.6100  -11.7330   20.8400 C   0  0  0  0  0  0  0  0  0  0  0  0
  -26.2560  -12.9810   20.2650 N   0  0  0  0  0  0  0  0  0  0  0  0
  -25.9010  -11.6980   20.5310 N   0  0  0  0  0  0  0  0  0  0  0  0
  -23.8880  -10.4690   21.0350 C   0  0  0  0  0  0  0  0  0  0  0  0
  -24.3330   -9.5030   21.9640 C   0  0  0  0  0  3  0  0  0  0  0  0
  -23.6140   -8.3020   22.1480 C   0  0  0  0  0  3  0  0  0  0  0  0
  -22.4350   -8.0590   21.4030 C   0  0  0  0  0  0  0  0  0  0  0  0
  -22.0090   -9.0140   20.4640 C   0  0  0  0  0  3  0  0  0  0  0  0
  -22.7270  -10.2070   20.2790 C   0  0  0  0  0  3  0  0  0  0  0  0
  -21.6870   -6.9110   21.4970 O   0  0  0  0  0  0  0  0  0  0  0  0
  -21.6610   -6.1600   22.6440 C   0  0  0  0  0  0  0  0  0  0  0  0
  -21.2610   -6.7060   23.8820 C   0  0  0  0  0  3  0  0  0  0  0  0
  -21.1820   -5.8830   25.0230 C   0  0  0  0  0  3  0  0  0  0  0  0
  -21.4910   -4.5140   24.9260 C   0  0  0  0  0  0  0  0  0  0  0  0
  -21.8830   -3.9660   23.6930 C   0  0  0  0  0  3  0  0  0  0  0  0
  -21.9640   -4.7860   22.5540 C   0  0  0  0  0  0  0  0  0  0  0  0
  -22.3220   -4.2500   21.3630 F   0  0  0  0  0  0  0  0  0  0  0  0
  -21.4080   -3.7210   26.0200 F   0  0  0  0  0  0  0  0  0  0  0  0
  -22.7440  -13.5560   21.1400 C   0  0  0  0  0  0  0  0  0  0  0  0
  -22.0220  -12.8580   22.0100 N   0  0  0  0  0  0  0  0  0  0  0  0
  -22.3000  -14.5780   20.6160 O   0  0  0  0  0  0  0  0  0  0  0  0
  -22.3940  -12.0320   22.4560 H   0  0  0  0  0  0  0  0  0  0  0  0
  -21.0830  -13.1540   22.2370 H   0  0  0  0  0  0  0  0  0  0  0  0
  -25.3670  -15.2280   20.3070 N   0  0  0  0  0  0  0  0  0  0  0  0
  -24.5930  -15.8790   20.3950 H   0  0  0  0  0  0  0  0  0  0  0  0
  -26.2080  -15.6620   19.9500 H   0  0  0  0  0  0  0  0  0  0  0  0
  -28.8480  -24.1400   20.6510 C   0  0  0  0  0  3  0  0  0  0  0  0
  -28.5660  -25.3000   19.6250 C   0  0  0  0  0  3  0  0  0  0  0  0
  -28.4320  -26.6390   20.2130 O   0  0  0  0  0  0  0  0  0  0  0  0
  -24.6140  -31.9050   23.2590 C   0  0  0  0  0  0  0  0  0  0  0  0
  -27.2490  -27.3820   20.1870 C   0  0  0  0  0  0  0  0  0  0  0  0
  -23.4100  -30.4940   21.6330 C   0  0  0  0  0  3  0  0  0  0  0  0
  -24.8590  -28.9490   20.2090 C   0  0  0  0  0  0  0  0  0  0  0  0
  -25.9450  -30.8290   21.4400 C   0  0  0  0  0  2  0  0  0  0  0  0
  -26.0260  -29.4530   20.7960 C   0  0  0  0  0  0  0  0  0  0  0  0
  -27.2180  -28.6780   20.7780 C   0  0  0  0  0  3  0  0  0  0  0  0
  -26.0470  -26.9060   19.6060 C   0  0  0  0  0  3  0  0  0  0  0  0
  -24.8710  -27.6790   19.6140 C   0  0  0  0  0  3  0  0  0  0  0  0
  -23.6190  -29.8150   20.2540 C   0  0  0  0  0  2  0  0  0  0  0  0
  -24.6760  -31.0870   22.1700 N   0  0  0  0  0  0  0  0  0  0  0  0
  -23.5250  -32.2080   23.7680 O   0  0  0  0  0  0  0  0  0  0  0  0
  -22.7580  -29.4740   22.5960 C   0  0  0  0  0  0  0  0  0  0  0  0
  -21.4330  -29.2880   22.4690 N   0  0  0  0  0  0  0  0  0  0  0  0
  -23.4410  -28.8550   23.4180 O   0  0  0  0  0  0  0  0  0  0  0  0
  -20.9430  -29.8390   21.7790 H   0  0  0  0  0  0  0  0  0  0  0  0
  -18.0630  -28.0670   22.9510 C   0  0  0  0  0  0  0  0  0  0  0  0
  -20.6180  -28.3490   23.2400 C   0  0  0  0  0  3  0  0  0  0  0  0
  -20.7360  -26.9150   22.6750 C   0  0  0  0  0  2  0  0  0  0  0  0
  -19.6440  -26.5760   21.6560 C   0  0  0  0  0  2  0  0  0  0  0  0
  -18.2550  -26.7150   22.2870 C   0  0  0  0  0  2  0  0  0  0  0  0
  -19.1720  -28.8420   23.3850 C   0  0  0  0  0  0  0  0  0  0  0  0
  -18.9390  -30.1060   23.9670 C   0  0  0  0  0  3  0  0  0  0  0  0
  -17.6290  -30.5970   24.1190 C   0  0  0  0  0  3  0  0  0  0  0  0
  -16.5350  -29.8210   23.7020 C   0  0  0  0  0  3  0  0  0  0  0  0
  -16.7530  -28.5580   23.1220 C   0  0  0  0  0  3  0  0  0  0  0  0
  -25.8980  -32.5270   23.8890 C   0  0  0  0  0  3  0  0  0  0  0  0
  -26.4090  -31.7580   25.1680 C   0  0  1  0  0  0  0  0  0  0  0  0
  -25.3100  -31.5300   26.2320 C   0  0  0  0  0  1  0  0  0  0  0  0
  -26.9880  -30.3770   24.7830 C   0  0  0  0  0  1  0  0  0  0  0  0
  -27.5610  -32.5530   25.8280 C   0  0  0  0  0  1  0  0  0  0  0  0
  -25.5930  -33.9270   24.2170 N   0  0  0  0  0  0  0  0  0  0  0  0
  -25.9200  -34.9770   23.4520 C   0  0  0  0  0  0  0  0  0  0  0  0
  -26.5830  -34.8690   22.4170 O   0  0  0  0  0  0  0  0  0  0  0  0
  -25.0000  -34.0820   25.0180 H   0  0  0  0  0  0  0  0  0  0  0  0
  -24.1790  -36.7620   23.1110 C   0  0  0  0  0  1  0  0  0  0  0  0
  -25.4340  -36.3670   23.9080 C   0  0  0  0  0  3  0  0  0  0  0  0
  -27.5780  -37.2630   24.7000 C   0  0  0  0  0  1  0  0  0  0  0  0
  -26.4620  -37.4220   23.7720 N   0  0  0  0  0  0  0  0  0  0  0  0
  -26.0570  -38.3430   23.9220 H   0  0  0  0  0  0  0  0  0  0  0  0
  1  3  1  0
  2  4  1  0
  2  5  1  0
  4  6  1  0
  5  7  1  0
  5  1  1  0
  6 47  1  0
  6  3  1  0
  7  8  1  0
  9 17  1  0
 10 15  1  0
 11 12  1  0
 11 10  1  0
 13 12  1  0
 13 22  1  0
 13 14  1  0
 15  9  1  0
 15 14  1  0
 16  9  2  0
 17  8  1  0
 17 18  1  0
 19 20  2  0
 20 39  1  0
 21 20  1  0
 21 24  1  0
 22 19  1  0
 22 23  1  0
 23 21  2  0
 24 25  1  0
 25 26  2  0
 27 30  1  0
 27 26  1  0
 28 27  2  0
 29 28  1  0
 29 24  2  0
 30 31  1  0
 31 32  1  0
 32 33  2  0
 34 33  1  0
 34 38  1  0
 35 34  2  0
 36 31  2  0
 36 35  1  0
 37 36  1  0
 39 40  1  0
 40 43  1  0
 40 42  1  0
 41 39  2  0
 44 45  1  0
 44 19  1  0
 46 44  1  0
 48 49  1  0
 48 47  2  0
 50 61  2  0
 51 49  1  0
 51 56  1  0
 52 60  1  0
 52 62  1  0
 53 59  1  0
 53 55  1  0
 54 60  1  0
 55 54  1  0
 56 55  2  0
 57 58  1  0
 57 51  2  0
 58 53  2  0
 59 52  1  0
 60 50  1  0
 62 64  2  0
 63 62  1  0
 65 63  1  0
 66 75  2  0
 66 71  1  0
 67 63  1  0
 67 71  1  0
 68 67  1  0
 69 70  1  0
 69 68  1  0
 70 66  1  0
 71 72  2  0
 72 73  1  0
 74 73  2  0
 75 74  1  0
 76 50  1  0
 76 81  1  0
 76 77  1  0
 77 80  1  1
 77 78  1  0
 79 77  1  0
 81 84  1  0
 82 86  1  0
 82 81  1  0
 83 82  2  0
 86 85  1  0
 88 86  1  0
 88 89  1  0
 88 87  1  0
M  ISO  4   9 100  17 100  48 101  49 101
M  END
>  <TORSDO>  (41) 
F 20

>  <SCORE>  (41) 
-13.865

>  <name>  (41) 
40

>  <ligand_id>  (41) 
40

>  <original_smiles>  (41) 
[H]c1c([H])c([H])c2c(c1[H])C([H])([H])C([H])([H])C([H])([H])C2([H])N([H])C(=O)C1([H])N(C(=O)C([H])(N([H])C(=O)C([H])(N([H])C([H])([H])[H])C([H])([H])[H])C(C([H])([H])[H])(C([H])([H])[H])C([H])([H])[H])C([H])([H])c2c([H])c(OC([H])([H])C([H])([H])C3([H])C([H])([H])C([H])([H])C([H])(C([H])([H])C([H])([H])N([H])C(=O)N4C([H])([H])C([H])([H])C([H])([H])C([H])(n5nc(-c6c([H])c([H])c(Oc7c([H])c([H])c(F)c([H])c7F)c([H])c6[H])c(C(=O)N([H])[H])c5N([H])[H])C4([H])[H])C([H])([H])C3([H])[H])c([H])c([H])c2C1([H])[H]

>  <smiles>  (41) 
[H]c1c([H])c([H])c2c(c1[H])C([H])([H])C([H])([H])C([H])([H])C2([H])N([H])C(=O)C1([H])N(C(=O)C([H])(N([H])C(=O)C([H])(N([H])C([H])([H])[H])C([H])([H])[H])C(C([H])([H])[H])(C([H])([H])[H])C([H])([H])[H])C([H])([H])c2c([H])c(OC([H])([H])C([H])([H])C3([H])C([H])([H])C([H])([H])C([H])(C([H])([H])C([H])([H])N([H])C(=O)N4C([H])([H])C([H])([H])C([H])([H])C([H])(n5nc(-c6c([H])c([H])c(Oc7c([H])c([H])c(F)c([H])c7F)c([H])c6[H])c(C(=O)N([H])[H])c5N([H])[H])C4([H])[H])C([H])([H])C3([H])[H])c([H])c([H])c2C1([H])[H]

> <Step>
85.0

> <Scaffold>
O=C(NC1CCCc2ccccc21)C1Cc2ccc(OCCC3CCC(CCNC(=O)N4CCCC(n5ccc(-c6ccc(Oc7ccccc7)cc6)n5)C4)CC3)cc2CN1

> <SMILES>
CNC(C)C(=O)NC(C(=O)N1Cc2cc(OCCC3CCC(CCNC(=O)N4CCCC(n5nc(-c6ccc(Oc7ccc(F)cc7F)cc6)c(C(N)=O)c5N)C4)CC3)ccc2CC1C(=O)NC1CCCc2ccccc21)C(C)(C)C

> <Tanimoto ROCS sim>
0.29588770866394043

> <Custom alerts>
1.0

> <Linker Num Aromatic Rings>
1.0

> <Linker Effective Length>
1.0

> <ADV>
0.9940786361694336

> <PostDock Tanimoto ROCS sim>
0.9906802773475647

> <raw_Linker Num Aromatic Rings>
0.0

> <raw_Linker Effective Length>
8.0

> <raw_ADV>
-13.899999618530273

> <total_score>
0.9961897134780884

> <ID>
default_job_140

> <PostDock Tanimoto ROCS sim (re-score)>
0.9824983

> <raw_ADV (re-score)>
-13.865

$$$$
default_job_141
     RDKit          3D

 96106  0  0  1  0  0  0  0  0999 V2000
  -31.4610  -19.7890   19.0120 C   0  0  0  0  0  3  0  0  0  0  0  0
  -31.6100  -21.6710   17.5290 C   0  0  0  0  0  3  0  0  0  0  0  0
  -30.3110  -20.3090   19.6560 C   0  0  0  0  0  0  0  0  0  0  0  0
  -32.1370  -20.4680   17.9930 C   0  0  0  0  0  0  0  0  0  0  0  0
  -30.4950  -22.2560   18.1560 C   0  0  0  0  0  0  0  0  0  0  0  0
  -29.9230  -21.7000   19.3520 C   0  0  0  0  0  0  0  0  0  0  0  0
  -33.3560  -19.8580   17.3340 C   0  0  0  0  0  1  0  0  0  0  0  0
  -29.9090  -23.4510   17.4130 C   0  0  0  0  0  1  0  0  0  0  0  0
  -30.7110  -14.7340   20.3490 C   0  0  0  0  0  0  0  0  0  0  0  0
  -30.3770  -12.4860   19.3120 C   0  0  0  0  0  2  0  0  0  0  0  0
  -29.4340  -12.5520   18.0960 C   0  0  0  0  0  2  0  0  0  0  0  0
  -27.9780  -12.3560   18.5520 C   0  0  0  0  0  2  0  0  0  0  0  0
  -27.6080  -13.2510   19.7610 C   0  0  0  0  0  3  0  0  0  0  0  0
  -28.6870  -13.2420   20.8700 C   0  0  0  0  0  2  0  0  0  0  0  0
  -29.9760  -13.5690   20.2460 N   0  0  0  0  0  0  0  0  0  0  0  0
  -31.9020  -14.7000   20.0310 O   0  0  0  0  0  0  0  0  0  0  0  0
  -29.0230  -18.0390   19.5940 C   0  0  0  0  0  2  0  0  0  0  0  0
  -30.4300  -18.4580   21.5970 C   0  0  0  0  0  2  0  0  0  0  0  0
  -28.9150  -16.5720   20.1750 C   0  0  0  0  0  2  0  0  0  0  0  0
  -31.0540  -17.0360   21.2650 C   0  0  0  0  0  2  0  0  0  0  0  0
  -29.5800  -19.1930   20.5040 C   0  0  0  0  0  3  0  0  0  0  0  0
  -30.1580  -15.9650   20.7240 N   0  0  0  0  0  0  0  0  0  0  0  0
  -25.2440  -13.8510   20.5360 C   0  0  0  0  0  0  0  0  0  0  0  0
  -24.1790  -13.0770   20.9070 C   0  0  0  0  0  0  0  0  0  0  0  0
  -24.6370  -11.7260   20.8560 C   0  0  0  0  0  0  0  0  0  0  0  0
  -26.2780  -12.9670   20.2770 N   0  0  0  0  0  0  0  0  0  0  0  0
  -25.9230  -11.6840   20.5340 N   0  0  0  0  0  0  0  0  0  0  0  0
  -23.9090  -10.4650   21.0360 C   0  0  0  0  0  0  0  0  0  0  0  0
  -24.3320   -9.4970   21.9730 C   0  0  0  0  0  3  0  0  0  0  0  0
  -23.6050   -8.2990   22.1420 C   0  0  0  0  0  3  0  0  0  0  0  0
  -22.4410   -8.0630   21.3720 C   0  0  0  0  0  0  0  0  0  0  0  0
  -22.0390   -9.0180   20.4220 C   0  0  0  0  0  3  0  0  0  0  0  0
  -22.7680  -10.2060   20.2520 C   0  0  0  0  0  3  0  0  0  0  0  0
  -21.6870   -6.9170   21.4500 O   0  0  0  0  0  0  0  0  0  0  0  0
  -21.6040   -6.1880   22.6090 C   0  0  0  0  0  0  0  0  0  0  0  0
  -21.1090   -6.7490   23.8070 C   0  0  0  0  0  3  0  0  0  0  0  0
  -20.9760   -5.9450   24.9580 C   0  0  0  0  0  3  0  0  0  0  0  0
  -21.3260   -4.5820   24.9090 C   0  0  0  0  0  0  0  0  0  0  0  0
  -21.8110   -4.0210   23.7150 C   0  0  0  0  0  3  0  0  0  0  0  0
  -21.9470   -4.8220   22.5680 C   0  0  0  0  0  0  0  0  0  0  0  0
  -22.3970   -4.2720   21.4140 F   0  0  0  0  0  0  0  0  0  0  0  0
  -21.1890   -3.8080   26.0100 F   0  0  0  0  0  0  0  0  0  0  0  0
  -22.7860  -13.5570   21.1960 C   0  0  0  0  0  0  0  0  0  0  0  0
  -22.0610  -12.8470   22.0530 N   0  0  0  0  0  0  0  0  0  0  0  0
  -22.3510  -14.5940   20.6980 O   0  0  0  0  0  0  0  0  0  0  0  0
  -22.4270  -12.0080   22.4770 H   0  0  0  0  0  0  0  0  0  0  0  0
  -21.1260  -13.1480   22.2890 H   0  0  0  0  0  0  0  0  0  0  0  0
  -25.4100  -15.2240   20.3710 N   0  0  0  0  0  0  0  0  0  0  0  0
  -24.6450  -15.8780   20.5020 H   0  0  0  0  0  0  0  0  0  0  0  0
  -26.2580  -15.6650   20.0430 H   0  0  0  0  0  0  0  0  0  0  0  0
  -27.1730  -24.0090   20.4420 C   0  0  0  0  0  2  0  0  0  0  0  0
  -27.6600  -22.5830   20.0380 C   0  0  0  0  0  2  0  0  0  0  0  0
  -29.4790  -24.0330   20.3350 C   0  0  0  0  0  2  0  0  0  0  0  0
  -28.2680  -24.9710   19.9220 C   0  0  0  0  0  3  0  0  0  0  0  0
  -29.1140  -22.5820   20.1650 N   0  0  0  0  0  0  0  0  0  0  0  0
  -28.3220  -26.4110   20.3390 O   0  0  0  0  0  0  0  0  0  0  0  0
  -24.6490  -31.8870   23.2810 C   0  0  0  0  0  0  0  0  0  0  0  0
  -27.2240  -27.2880   20.2210 C   0  0  0  0  0  0  0  0  0  0  0  0
  -23.4390  -30.4950   21.6420 C   0  0  0  0  0  3  0  0  0  0  0  0
  -24.8800  -28.9420   20.2040 C   0  0  0  0  0  0  0  0  0  0  0  0
  -25.9830  -30.7810   21.4750 C   0  0  0  0  0  2  0  0  0  0  0  0
  -26.0490  -29.4060   20.8200 C   0  0  0  0  0  0  0  0  0  0  0  0
  -27.2190  -28.5860   20.8270 C   0  0  0  0  0  3  0  0  0  0  0  0
  -26.0500  -26.9080   19.5370 C   0  0  0  0  0  3  0  0  0  0  0  0
  -24.8850  -27.7000   19.5520 C   0  0  0  0  0  3  0  0  0  0  0  0
  -23.6500  -29.8250   20.2600 C   0  0  0  0  0  2  0  0  0  0  0  0
  -24.7100  -31.0680   22.1910 N   0  0  0  0  0  0  0  0  0  0  0  0
  -23.5620  -32.2000   23.7850 O   0  0  0  0  0  0  0  0  0  0  0  0
  -22.7660  -29.4780   22.5970 C   0  0  0  0  0  0  0  0  0  0  0  0
  -21.4400  -29.3050   22.4620 N   0  0  0  0  0  0  0  0  0  0  0  0
  -23.4380  -28.8500   23.4200 O   0  0  0  0  0  0  0  0  0  0  0  0
  -20.9580  -29.8650   21.7720 H   0  0  0  0  0  0  0  0  0  0  0  0
  -18.0550  -28.1260   22.9480 C   0  0  0  0  0  0  0  0  0  0  0  0
  -20.6140  -28.3670   23.2250 C   0  0  0  0  0  3  0  0  0  0  0  0
  -20.7080  -26.9390   22.6410 C   0  0  0  0  0  2  0  0  0  0  0  0
  -19.6060  -26.6300   21.6230 C   0  0  0  0  0  2  0  0  0  0  0  0
  -18.2240  -26.7800   22.2640 C   0  0  0  0  0  2  0  0  0  0  0  0
  -19.1770  -28.8780   23.3860 C   0  0  0  0  0  0  0  0  0  0  0  0
  -18.9640  -30.1390   23.9850 C   0  0  0  0  0  3  0  0  0  0  0  0
  -17.6620  -30.6470   24.1520 C   0  0  0  0  0  3  0  0  0  0  0  0
  -16.5540  -29.8920   23.7300 C   0  0  0  0  0  3  0  0  0  0  0  0
  -16.7510  -28.6330   23.1340 C   0  0  0  0  0  3  0  0  0  0  0  0
  -25.9360  -32.4960   23.9210 C   0  0  0  0  0  3  0  0  0  0  0  0
  -25.6480  -33.9010   24.2390 N   0  0  0  0  0  0  0  0  0  0  0  0
  -25.9820  -34.9410   23.4640 C   0  0  0  0  0  0  0  0  0  0  0  0
  -26.6400  -34.8170   22.4270 O   0  0  0  0  0  0  0  0  0  0  0  0
  -25.0650  -34.0730   25.0450 H   0  0  0  0  0  0  0  0  0  0  0  0
  -24.2680  -36.7460   23.1100 C   0  0  0  0  0  1  0  0  0  0  0  0
  -25.5160  -36.3400   23.9100 C   0  0  0  0  0  3  0  0  0  0  0  0
  -27.6670  -37.2170   24.7050 C   0  0  0  0  0  1  0  0  0  0  0  0
  -26.5570  -37.3810   23.7690 N   0  0  0  0  0  0  0  0  0  0  0  0
  -26.1630  -38.3070   23.9070 H   0  0  0  0  0  0  0  0  0  0  0  0
  -26.4230  -31.7270   25.2110 C   0  0  1  0  0  0  0  0  0  0  0  0
  -25.3110  -31.5160   26.2650 C   0  0  0  0  0  1  0  0  0  0  0  0
  -26.9920  -30.3380   24.8420 C   0  0  0  0  0  1  0  0  0  0  0  0
  -27.5760  -32.5120   25.8810 C   0  0  0  0  0  1  0  0  0  0  0  0
  1  3  1  0
  2  4  1  0
  2  5  2  0
  4  1  2  0
  5  6  1  0
  6  3  2  0
  6 55  1  0
  7  4  1  0
  8  5  1  0
  9 22  1  0
 10 15  1  0
 11 12  1  0
 11 10  1  0
 13 12  1  0
 13 26  1  0
 13 14  1  0
 15  9  1  0
 15 14  1  0
 16  9  2  0
 17 19  1  0
 17 21  1  0
 19 22  1  0
 20 18  1  0
 21  3  1  0
 21 18  1  0
 22 20  1  0
 23 24  2  0
 24 43  1  0
 25 24  1  0
 25 28  1  0
 26 27  1  0
 26 23  1  0
 27 25  2  0
 28 29  1  0
 29 30  2  0
 31 34  1  0
 31 30  1  0
 32 31  2  0
 33 32  1  0
 33 28  2  0
 34 35  1  0
 35 36  1  0
 36 37  2  0
 38 37  1  0
 38 42  1  0
 39 38  2  0
 40 35  2  0
 40 39  1  0
 41 40  1  0
 43 44  1  0
 44 47  1  0
 44 46  1  0
 45 43  2  0
 48 49  1  0
 48 23  1  0
 50 48  1  0
 52 55  1  0
 52 51  1  0
 54 53  1  0
 54 56  1  0
 54 51  1  0
 55 53  1  0
 57 68  2  0
 58 56  1  0
 58 63  1  0
 59 67  1  0
 59 69  1  0
 60 66  1  0
 60 62  1  0
 61 67  1  0
 62 63  2  0
 62 61  1  0
 64 65  1  0
 64 58  2  0
 65 60  2  0
 66 59  1  0
 67 57  1  0
 69 71  2  0
 70 69  1  0
 72 70  1  0
 73 82  2  0
 73 78  1  0
 74 70  1  0
 74 78  1  0
 75 74  1  0
 76 77  1  0
 76 75  1  0
 77 73  1  0
 78 79  2  0
 79 80  1  0
 81 80  2  0
 82 81  1  0
 83 57  1  0
 83 84  1  0
 83 93  1  0
 84 87  1  0
 85 89  1  0
 85 84  1  0
 86 85  2  0
 89 88  1  0
 91 92  1  0
 91 89  1  0
 91 90  1  0
 93 96  1  1
 93 94  1  0
 95 93  1  0
M  ISO  4   9 100  22 100  54 101  56 101
M  END
>  <TORSDO>  (42) 
F 17

>  <SCORE>  (42) 
-15.32

>  <name>  (42) 
41

>  <ligand_id>  (42) 
41

>  <original_smiles>  (42) 
[H]c1c([H])c([H])c2c(c1[H])C([H])([H])C([H])([H])C([H])([H])C2([H])N([H])C(=O)C1([H])N(C(=O)C([H])(N([H])C(=O)C([H])(N([H])C([H])([H])[H])C([H])([H])[H])C(C([H])([H])[H])(C([H])([H])[H])C([H])([H])[H])C([H])([H])c2c([H])c(OC3([H])C([H])([H])N(c4c(C([H])([H])[H])c([H])c(C([H])([H])[H])c([H])c4C4([H])C([H])([H])C([H])([H])N(C(=O)N5C([H])([H])C([H])([H])C([H])([H])C([H])(n6nc(-c7c([H])c([H])c(Oc8c([H])c([H])c(F)c([H])c8F)c([H])c7[H])c(C(=O)N([H])[H])c6N([H])[H])C5([H])[H])C([H])([H])C4([H])[H])C([H])([H])C3([H])[H])c([H])c([H])c2C1([H])[H]

>  <smiles>  (42) 
[H]c1c([H])c([H])c2c(c1[H])C([H])([H])C([H])([H])C([H])([H])C2([H])N([H])C(=O)C1([H])N(C(=O)C([H])(N([H])C(=O)C([H])(N([H])C([H])([H])[H])C([H])([H])[H])C(C([H])([H])[H])(C([H])([H])[H])C([H])([H])[H])C([H])([H])c2c([H])c(OC3([H])C([H])([H])N(c4c(C([H])([H])[H])c([H])c(C([H])([H])[H])c([H])c4C4([H])C([H])([H])C([H])([H])N(C(=O)N5C([H])([H])C([H])([H])C([H])([H])C([H])(n6nc(-c7c([H])c([H])c(Oc8c([H])c([H])c(F)c([H])c8F)c([H])c7[H])c(C(=O)N([H])[H])c6N([H])[H])C5([H])[H])C([H])([H])C4([H])[H])C([H])([H])C3([H])[H])c([H])c([H])c2C1([H])[H]

> <Step>
166.0

> <Scaffold>
O=C(NC1CCCc2ccccc21)C1Cc2ccc(OC3CCN(c4ccccc4C4CCN(C(=O)N5CCCC(n6ccc(-c7ccc(Oc8ccccc8)cc7)n6)C5)CC4)C3)cc2CN1

> <SMILES>
CNC(C)C(=O)NC(C(=O)N1Cc2cc(OC3CCN(c4c(C)cc(C)cc4C4CCN(C(=O)N5CCCC(n6nc(-c7ccc(Oc8ccc(F)cc8F)cc7)c(C(N)=O)c6N)C5)CC4)C3)ccc2CC1C(=O)NC1CCCc2ccccc21)C(C)(C)C

> <Tanimoto ROCS sim>
0.1690886914730072

> <Custom alerts>
1.0

> <Linker Num Aromatic Rings>
1.0

> <Linker Effective Length>
1.0

> <ADV>
0.9973991513252258

> <PostDock Tanimoto ROCS sim>
0.9873459339141846

> <raw_Linker Num Aromatic Rings>
1.0

> <raw_Linker Effective Length>
8.0

> <raw_ADV>
-15.335000038146973

> <total_score>
0.9961862564086914

> <ID>
default_job_141

> <PostDock Tanimoto ROCS sim (re-score)>
0.9771064

> <raw_ADV (re-score)>
-15.32

$$$$
default_job_142
     RDKit          3D

 94103  0  0  1  0  0  0  0  0999 V2000
  -28.8840  -22.1350   19.2150 C   0  0  0  0  0  3  0  0  0  0  0  0
  -30.2050  -22.0130   21.2140 C   0  0  0  0  0  3  0  0  0  0  0  0
  -29.6130  -19.8920   20.0470 C   0  0  0  0  0  0  0  0  0  0  0  0
  -29.5370  -22.8170   20.2590 C   0  0  0  0  0  0  0  0  0  0  0  0
  -28.9000  -20.7180   19.1130 C   0  0  0  0  0  0  0  0  0  0  0  0
  -30.2410  -20.5890   21.1290 C   0  0  0  0  0  0  0  0  0  0  0  0
  -28.1100  -20.1520   17.9430 C   0  0  0  0  0  1  0  0  0  0  0  0
  -30.9720  -19.8570   22.2410 C   0  0  0  0  0  1  0  0  0  0  0  0
  -30.1080  -17.7980   18.4890 C   0  0  0  0  0  2  0  0  0  0  0  0
  -29.6470  -18.3160   19.8730 C   0  0  0  0  0  3  0  0  0  0  0  0
  -31.4660  -17.4650   19.0940 C   0  0  0  0  0  3  0  0  0  0  0  0
  -30.6850  -17.2330   20.4180 C   0  0  0  0  0  3  0  0  0  0  0  0
  -32.5560  -18.5430   19.0290 C   0  0  0  0  0  1  0  0  0  0  0  0
  -30.8150  -14.6570   20.4050 C   0  0  0  0  0  0  0  0  0  0  0  0
  -30.4800  -12.4440   19.3610 C   0  0  0  0  0  2  0  0  0  0  0  0
  -29.5540  -12.5940   18.1380 C   0  0  0  0  0  2  0  0  0  0  0  0
  -28.0820  -12.4460   18.5660 C   0  0  0  0  0  2  0  0  0  0  0  0
  -27.7210  -13.3240   19.7950 C   0  0  0  0  0  3  0  0  0  0  0  0
  -28.7840  -13.2140   20.9150 C   0  0  0  0  0  2  0  0  0  0  0  0
  -30.0960  -13.4970   20.3210 N   0  0  0  0  0  0  0  0  0  0  0  0
  -32.0110  -14.6810   20.1280 O   0  0  0  0  0  0  0  0  0  0  0  0
  -30.1340  -15.8290   20.5540 N   0  0  0  0  0  0  0  0  0  0  0  0
  -29.1550  -15.7500   20.7790 H   0  0  0  0  0  0  0  0  0  0  0  0
  -25.3240  -13.9090   20.5060 C   0  0  0  0  0  0  0  0  0  0  0  0
  -24.2580  -13.1350   20.8700 C   0  0  0  0  0  0  0  0  0  0  0  0
  -24.7230  -11.7830   20.8410 C   0  0  0  0  0  0  0  0  0  0  0  0
  -26.3740  -13.0340   20.2810 N   0  0  0  0  0  0  0  0  0  0  0  0
  -26.0170  -11.7490   20.5430 N   0  0  0  0  0  0  0  0  0  0  0  0
  -23.9980  -10.5190   21.0270 C   0  0  0  0  0  0  0  0  0  0  0  0
  -24.4170   -9.5580   21.9730 C   0  0  0  0  0  3  0  0  0  0  0  0
  -23.6920   -8.3590   22.1460 C   0  0  0  0  0  3  0  0  0  0  0  0
  -22.5320   -8.1130   21.3750 C   0  0  0  0  0  0  0  0  0  0  0  0
  -22.1290   -9.0640   20.4200 C   0  0  0  0  0  3  0  0  0  0  0  0
  -22.8560  -10.2540   20.2440 C   0  0  0  0  0  3  0  0  0  0  0  0
  -21.7790   -6.9670   21.4580 O   0  0  0  0  0  0  0  0  0  0  0  0
  -21.7030   -6.2380   22.6190 C   0  0  0  0  0  0  0  0  0  0  0  0
  -21.2110   -6.7950   23.8190 C   0  0  0  0  0  3  0  0  0  0  0  0
  -21.0850   -5.9910   24.9690 C   0  0  0  0  0  3  0  0  0  0  0  0
  -21.4400   -4.6300   24.9190 C   0  0  0  0  0  0  0  0  0  0  0  0
  -21.9260   -4.0720   23.7230 C   0  0  0  0  0  3  0  0  0  0  0  0
  -22.0540   -4.8730   22.5750 C   0  0  0  0  0  0  0  0  0  0  0  0
  -22.5010   -4.3250   21.4200 F   0  0  0  0  0  0  0  0  0  0  0  0
  -21.3130   -3.8550   26.0220 F   0  0  0  0  0  0  0  0  0  0  0  0
  -22.8570  -13.6070   21.1310 C   0  0  0  0  0  0  0  0  0  0  0  0
  -22.1270  -12.9130   21.9970 N   0  0  0  0  0  0  0  0  0  0  0  0
  -22.4200  -14.6280   20.6030 O   0  0  0  0  0  0  0  0  0  0  0  0
  -22.4930  -12.0870   22.4460 H   0  0  0  0  0  0  0  0  0  0  0  0
  -21.1870  -13.2110   22.2130 H   0  0  0  0  0  0  0  0  0  0  0  0
  -25.4880  -15.2810   20.3260 N   0  0  0  0  0  0  0  0  0  0  0  0
  -24.7160  -15.9310   20.4180 H   0  0  0  0  0  0  0  0  0  0  0  0
  -26.3350  -15.7160   19.9840 H   0  0  0  0  0  0  0  0  0  0  0  0
  -29.6000  -24.3740   20.3220 C   0  0  0  0  0  3  0  0  0  0  0  0
  -28.3120  -25.2050   19.9740 C   0  0  0  0  0  3  0  0  0  0  0  0
  -28.4200  -26.6500   20.1990 O   0  0  0  0  0  0  0  0  0  0  0  0
  -24.6060  -31.9140   23.2640 C   0  0  0  0  0  0  0  0  0  0  0  0
  -27.2580  -27.4230   20.1700 C   0  0  0  0  0  0  0  0  0  0  0  0
  -23.4080  -30.5110   21.6210 C   0  0  0  0  0  3  0  0  0  0  0  0
  -24.8680  -28.9830   20.1830 C   0  0  0  0  0  0  0  0  0  0  0  0
  -25.9450  -30.8510   21.4440 C   0  0  0  0  0  2  0  0  0  0  0  0
  -26.0300  -29.4860   20.7810 C   0  0  0  0  0  0  0  0  0  0  0  0
  -27.2250  -28.7160   20.7670 C   0  0  0  0  0  3  0  0  0  0  0  0
  -26.0690  -26.9560   19.5620 C   0  0  0  0  0  3  0  0  0  0  0  0
  -24.8860  -27.7220   19.5710 C   0  0  0  0  0  3  0  0  0  0  0  0
  -23.6250  -29.8460   20.2350 C   0  0  0  0  0  2  0  0  0  0  0  0
  -24.6720  -31.1040   22.1690 N   0  0  0  0  0  0  0  0  0  0  0  0
  -23.5180  -32.2140   23.7730 O   0  0  0  0  0  0  0  0  0  0  0  0
  -22.7520  -29.4860   22.5720 C   0  0  0  0  0  0  0  0  0  0  0  0
  -21.4300  -29.2960   22.4330 N   0  0  0  0  0  0  0  0  0  0  0  0
  -23.4300  -28.8630   23.3950 O   0  0  0  0  0  0  0  0  0  0  0  0
  -20.9430  -29.8470   21.7390 H   0  0  0  0  0  0  0  0  0  0  0  0
  -18.0600  -28.0700   22.8840 C   0  0  0  0  0  0  0  0  0  0  0  0
  -20.6130  -28.3470   23.1900 C   0  0  0  0  0  3  0  0  0  0  0  0
  -20.7340  -26.9200   22.6120 C   0  0  0  0  0  2  0  0  0  0  0  0
  -19.6490  -26.5910   21.5840 C   0  0  0  0  0  2  0  0  0  0  0  0
  -18.2570  -26.7220   22.2100 C   0  0  0  0  0  2  0  0  0  0  0  0
  -19.1670  -28.8380   23.3300 C   0  0  0  0  0  0  0  0  0  0  0  0
  -18.9300  -30.0980   23.9220 C   0  0  0  0  0  3  0  0  0  0  0  0
  -17.6200  -30.5880   24.0760 C   0  0  0  0  0  3  0  0  0  0  0  0
  -16.5260  -29.8120   23.6510 C   0  0  0  0  0  3  0  0  0  0  0  0
  -16.7470  -28.5560   23.0590 C   0  0  0  0  0  3  0  0  0  0  0  0
  -25.8910  -32.5330   23.9010 C   0  0  0  0  0  3  0  0  0  0  0  0
  -26.4000  -31.7580   25.1800 C   0  0  1  0  0  0  0  0  0  0  0  0
  -25.2960  -31.5190   26.2350 C   0  0  0  0  0  1  0  0  0  0  0  0
  -26.9920  -30.3840   24.7900 C   0  0  0  0  0  1  0  0  0  0  0  0
  -27.5410  -32.5530   25.8580 C   0  0  0  0  0  1  0  0  0  0  0  0
  -25.5850  -33.9300   24.2360 N   0  0  0  0  0  0  0  0  0  0  0  0
  -25.8900  -34.9810   23.4640 C   0  0  0  0  0  0  0  0  0  0  0  0
  -26.5310  -34.8790   22.4160 O   0  0  0  0  0  0  0  0  0  0  0  0
  -25.0060  -34.0830   25.0470 H   0  0  0  0  0  0  0  0  0  0  0  0
  -24.1270  -36.7500   23.1730 C   0  0  0  0  0  1  0  0  0  0  0  0
  -25.4070  -36.3660   23.9320 C   0  0  0  0  0  3  0  0  0  0  0  0
  -27.5580  -37.2870   24.6750 C   0  0  0  0  0  1  0  0  0  0  0  0
  -26.4230  -37.4310   23.7680 N   0  0  0  0  0  0  0  0  0  0  0  0
  -26.0100  -38.3480   23.9200 H   0  0  0  0  0  0  0  0  0  0  0  0
  1  4  1  0
  3  6  2  0
  4 52  1  0
  4  2  2  0
  5  1  2  0
  5  3  1  0
  6  2  1  0
  6  8  1  0
  7  5  1  0
  9 11  1  0
  9 10  1  0
 10  3  1  0
 10 12  1  0
 11 13  1  0
 11 12  1  0
 12 22  1  0
 14 22  1  0
 15 20  1  0
 16 17  1  0
 16 15  1  0
 18 17  1  0
 18 27  1  0
 18 19  1  0
 20 14  1  0
 20 19  1  0
 21 14  2  0
 22 23  1  0
 24 25  2  0
 25 44  1  0
 26 25  1  0
 26 29  1  0
 27 24  1  0
 27 28  1  0
 28 26  2  0
 29 30  1  0
 30 31  2  0
 32 35  1  0
 32 31  1  0
 33 32  2  0
 34 33  1  0
 34 29  2  0
 35 36  1  0
 36 37  1  0
 37 38  2  0
 39 38  1  0
 39 43  1  0
 40 39  2  0
 41 36  2  0
 41 40  1  0
 42 41  1  0
 44 45  1  0
 45 48  1  0
 45 47  1  0
 46 44  2  0
 49 50  1  0
 49 24  1  0
 51 49  1  0
 53 54  1  0
 53 52  2  0
 55 66  2  0
 56 54  1  0
 56 61  1  0
 57 65  1  0
 57 67  1  0
 58 64  1  0
 58 60  1  0
 59 65  1  0
 60 59  1  0
 61 60  2  0
 62 63  1  0
 62 56  2  0
 63 58  2  0
 64 57  1  0
 65 55  1  0
 67 69  2  0
 68 67  1  0
 70 68  1  0
 71 80  2  0
 71 76  1  0
 72 68  1  0
 72 76  1  0
 73 72  1  0
 74 75  1  0
 74 73  1  0
 75 71  1  0
 76 77  2  0
 77 78  1  0
 79 78  2  0
 80 79  1  0
 81 55  1  0
 81 86  1  0
 81 82  1  0
 82 85  1  1
 82 83  1  0
 84 82  1  0
 86 89  1  0
 87 91  1  0
 87 86  1  0
 88 87  2  0
 91 90  1  0
 93 94  1  0
 93 91  1  0
 93 92  1  0
M  ISO  4  14 100  22 100  53 101  54 101
M  END
>  <TORSDO>  (43) 
F 19

>  <SCORE>  (43) 
-14.565

>  <name>  (43) 
42

>  <ligand_id>  (43) 
42

>  <original_smiles>  (43) 
[H]c1c([H])c([H])c2c(c1[H])C([H])([H])C([H])([H])C([H])([H])C2([H])N([H])C(=O)C1([H])N(C(=O)C([H])(N([H])C(=O)C([H])(N([H])C([H])([H])[H])C([H])([H])[H])C(C([H])([H])[H])(C([H])([H])[H])C([H])([H])[H])C([H])([H])c2c([H])c(OC([H])([H])C([H])([H])c3c([H])c(C([H])([H])[H])c(C4([H])C([H])([H])C([H])(C([H])([H])[H])C4([H])N([H])C(=O)N4C([H])([H])C([H])([H])C([H])([H])C([H])(n5nc(-c6c([H])c([H])c(Oc7c([H])c([H])c(F)c([H])c7F)c([H])c6[H])c(C(=O)N([H])[H])c5N([H])[H])C4([H])[H])c(C([H])([H])[H])c3[H])c([H])c([H])c2C1([H])[H]

>  <smiles>  (43) 
[H]c1c([H])c([H])c2c(c1[H])C([H])([H])C([H])([H])C([H])([H])C2([H])N([H])C(=O)C1([H])N(C(=O)C([H])(N([H])C(=O)C([H])(N([H])C([H])([H])[H])C([H])([H])[H])C(C([H])([H])[H])(C([H])([H])[H])C([H])([H])[H])C([H])([H])c2c([H])c(OC([H])([H])C([H])([H])c3c([H])c(C([H])([H])[H])c(C4([H])C([H])([H])C([H])(C([H])([H])[H])C4([H])N([H])C(=O)N4C([H])([H])C([H])([H])C([H])([H])C([H])(n5nc(-c6c([H])c([H])c(Oc7c([H])c([H])c(F)c([H])c7F)c([H])c6[H])c(C(=O)N([H])[H])c5N([H])[H])C4([H])[H])c(C([H])([H])[H])c3[H])c([H])c([H])c2C1([H])[H]

> <Step>
140.0

> <Scaffold>
O=C(NC1CCCc2ccccc21)C1Cc2ccc(OCCc3ccc(C4CCC4NC(=O)N4CCCC(n5ccc(-c6ccc(Oc7ccccc7)cc6)n5)C4)cc3)cc2CN1

> <SMILES>
CNC(C)C(=O)NC(C(=O)N1Cc2cc(OCCc3cc(C)c(C4CC(C)C4NC(=O)N4CCCC(n5nc(-c6ccc(Oc7ccc(F)cc7F)cc6)c(C(N)=O)c5N)C4)c(C)c3)ccc2CC1C(=O)NC1CCCc2ccccc21)C(C)(C)C

> <Tanimoto ROCS sim>
0.17800937592983246

> <Custom alerts>
1.0

> <Linker Num Aromatic Rings>
1.0

> <Linker Effective Length>
1.0

> <ADV>
0.9959705471992493

> <PostDock Tanimoto ROCS sim>
0.9887663722038269

> <raw_Linker Num Aromatic Rings>
1.0

> <raw_Linker Effective Length>
8.0

> <raw_ADV>
-14.571999549865723

> <total_score>
0.996184229850769

> <ID>
default_job_142

> <PostDock Tanimoto ROCS sim (re-score)>
0.9809583

> <raw_ADV (re-score)>
-14.565

$$$$
default_job_143
     RDKit          3D

 93102  0  0  1  0  0  0  0  0999 V2000
  -31.1380  -23.5280   18.9920 C   0  0  0  0  0  0  0  0  0  0  0  0
  -29.2130  -23.9620   20.0240 C   0  0  0  0  0  0  0  0  0  0  0  0
  -29.8910  -21.8150   19.6670 C   0  0  0  0  0  0  0  0  0  0  0  0
  -32.3940  -24.0310   18.3050 C   0  0  0  0  0  1  0  0  0  0  0  0
  -30.3100  -24.4540   19.4560 N   0  0  0  0  0  4  0  0  0  0  0  0
  -30.9830  -22.2080   19.0410 N   0  0  0  0  0  0  0  0  0  0  0  0
  -28.9550  -22.6300   20.1840 N   0  0  0  0  0  2  0  0  0  0  0  0
  -29.7300  -20.4110   19.5990 N   0  0  0  0  0  0  0  0  0  0  0  0
  -30.3650  -20.0450   18.8980 H   0  0  0  0  0  0  0  0  0  0  0  0
  -28.2060  -25.0390   22.0990 C   0  0  0  0  0  1  0  0  0  0  0  0
  -28.1920  -25.0390   20.5640 C   0  0  0  0  0  3  0  0  0  0  0  0
  -28.3760  -26.4710   20.1710 O   0  0  0  0  0  0  0  0  0  0  0  0
  -24.6550  -31.8830   23.2550 C   0  0  0  0  0  0  0  0  0  0  0  0
  -27.2540  -27.3180   20.1800 C   0  0  0  0  0  0  0  0  0  0  0  0
  -23.4400  -30.4720   21.6340 C   0  0  0  0  0  3  0  0  0  0  0  0
  -24.8820  -28.9210   20.2020 C   0  0  0  0  0  0  0  0  0  0  0  0
  -25.9800  -30.7890   21.4370 C   0  0  0  0  0  2  0  0  0  0  0  0
  -26.0560  -29.4110   20.7890 C   0  0  0  0  0  0  0  0  0  0  0  0
  -27.2450  -28.6220   20.7710 C   0  0  0  0  0  3  0  0  0  0  0  0
  -26.0580  -26.8850   19.5650 C   0  0  0  0  0  3  0  0  0  0  0  0
  -24.8830  -27.6620   19.5840 C   0  0  0  0  0  3  0  0  0  0  0  0
  -23.6450  -29.7940   20.2550 C   0  0  0  0  0  2  0  0  0  0  0  0
  -24.7120  -31.0610   22.1670 N   0  0  0  0  0  0  0  0  0  0  0  0
  -23.5700  -32.1890   23.7680 O   0  0  0  0  0  0  0  0  0  0  0  0
  -22.7850  -29.4580   22.6010 C   0  0  0  0  0  0  0  0  0  0  0  0
  -21.4600  -29.2690   22.4730 N   0  0  0  0  0  0  0  0  0  0  0  0
  -23.4670  -28.8440   23.4260 O   0  0  0  0  0  0  0  0  0  0  0  0
  -20.9700  -29.8160   21.7790 H   0  0  0  0  0  0  0  0  0  0  0  0
  -18.0930  -28.0410   22.9670 C   0  0  0  0  0  0  0  0  0  0  0  0
  -20.6470  -28.3310   23.2480 C   0  0  0  0  0  3  0  0  0  0  0  0
  -20.7680  -26.8970   22.6840 C   0  0  0  0  0  2  0  0  0  0  0  0
  -19.6740  -26.5540   21.6680 C   0  0  0  0  0  2  0  0  0  0  0  0
  -18.2870  -26.6890   22.3040 C   0  0  0  0  0  2  0  0  0  0  0  0
  -19.2010  -28.8190   23.3970 C   0  0  0  0  0  0  0  0  0  0  0  0
  -18.9670  -30.0830   23.9790 C   0  0  0  0  0  3  0  0  0  0  0  0
  -17.6560  -30.5720   24.1340 C   0  0  0  0  0  3  0  0  0  0  0  0
  -16.5620  -29.7930   23.7220 C   0  0  0  0  0  3  0  0  0  0  0  0
  -16.7800  -28.5300   23.1440 C   0  0  0  0  0  3  0  0  0  0  0  0
  -25.9440  -32.5050   23.8790 C   0  0  0  0  0  3  0  0  0  0  0  0
  -25.6400  -33.9040   24.2100 N   0  0  0  0  0  0  0  0  0  0  0  0
  -25.9650  -34.9560   23.4480 C   0  0  0  0  0  0  0  0  0  0  0  0
  -26.6260  -34.8500   22.4120 O   0  0  0  0  0  0  0  0  0  0  0  0
  -25.0450  -34.0560   25.0110 H   0  0  0  0  0  0  0  0  0  0  0  0
  -24.2370  -36.7520   23.1060 C   0  0  0  0  0  1  0  0  0  0  0  0
  -25.4830  -36.3450   23.9090 C   0  0  0  0  0  3  0  0  0  0  0  0
  -27.6210  -37.2270   24.7260 C   0  0  0  0  0  1  0  0  0  0  0  0
  -26.5150  -37.3960   23.7890 N   0  0  0  0  0  0  0  0  0  0  0  0
  -26.1090  -38.3170   23.9400 H   0  0  0  0  0  0  0  0  0  0  0  0
  -26.4610  -31.7320   25.1550 C   0  0  1  0  0  0  0  0  0  0  0  0
  -25.3690  -31.5010   26.2240 C   0  0  0  0  0  1  0  0  0  0  0  0
  -27.0390  -30.3520   24.7680 C   0  0  0  0  0  1  0  0  0  0  0  0
  -27.6160  -32.5240   25.8120 C   0  0  0  0  0  1  0  0  0  0  0  0
  -29.5790  -19.4210   20.7040 C   0  0  0  0  0  2  0  0  0  0  0  0
  -30.6300  -14.6790   20.4100 C   0  0  0  0  0  0  0  0  0  0  0  0
  -30.4010  -12.4350   19.3570 C   0  0  0  0  0  2  0  0  0  0  0  0
  -29.4710  -12.5620   18.1320 C   0  0  0  0  0  2  0  0  0  0  0  0
  -27.9950  -12.4090   18.5530 C   0  0  0  0  0  2  0  0  0  0  0  0
  -27.6290  -13.2740   19.7900 C   0  0  0  0  0  3  0  0  0  0  0  0
  -28.6790  -13.1390   20.9110 C   0  0  0  0  0  2  0  0  0  0  0  0
  -29.9880  -13.4680   20.3290 N   0  0  0  0  0  0  0  0  0  0  0  0
  -31.8110  -14.7960   20.0710 O   0  0  0  0  0  0  0  0  0  0  0  0
  -29.4210  -16.8140   19.6860 C   0  0  0  0  0  2  0  0  0  0  0  0
  -30.2080  -16.9050   21.6070 C   0  0  0  0  0  2  0  0  0  0  0  0
  -30.1530  -17.9430   20.4580 C   0  0  0  0  0  3  0  0  0  0  0  0
  -29.8590  -15.7920   20.6830 N   0  0  0  0  0  0  0  0  0  0  0  0
  -25.2320  -13.8760   20.4870 C   0  0  0  0  0  0  0  0  0  0  0  0
  -24.1600  -13.1070   20.8510 C   0  0  0  0  0  0  0  0  0  0  0  0
  -24.6220  -11.7550   20.8310 C   0  0  0  0  0  0  0  0  0  0  0  0
  -26.2770  -12.9930   20.2660 N   0  0  0  0  0  0  0  0  0  0  0  0
  -25.9150  -11.7120   20.5350 N   0  0  0  0  0  0  0  0  0  0  0  0
  -23.8900  -10.4950   21.0190 C   0  0  0  0  0  0  0  0  0  0  0  0
  -24.3070   -9.5330   21.9670 C   0  0  0  0  0  3  0  0  0  0  0  0
  -23.5780   -8.3370   22.1440 C   0  0  0  0  0  3  0  0  0  0  0  0
  -22.4150   -8.0960   21.3750 C   0  0  0  0  0  0  0  0  0  0  0  0
  -22.0150   -9.0460   20.4190 C   0  0  0  0  0  3  0  0  0  0  0  0
  -22.7440  -10.2330   20.2390 C   0  0  0  0  0  3  0  0  0  0  0  0
  -21.6590   -6.9520   21.4620 O   0  0  0  0  0  0  0  0  0  0  0  0
  -21.5880   -6.2190   22.6200 C   0  0  0  0  0  0  0  0  0  0  0  0
  -21.1390   -6.7830   23.8330 C   0  0  0  0  0  3  0  0  0  0  0  0
  -21.0200   -5.9770   24.9840 C   0  0  0  0  0  3  0  0  0  0  0  0
  -21.3380   -4.6070   24.9200 C   0  0  0  0  0  0  0  0  0  0  0  0
  -21.7800   -4.0430   23.7110 C   0  0  0  0  0  3  0  0  0  0  0  0
  -21.9020   -4.8470   22.5640 C   0  0  0  0  0  0  0  0  0  0  0  0
  -22.3080   -4.2920   21.3960 F   0  0  0  0  0  0  0  0  0  0  0  0
  -21.2160   -3.8300   26.0220 F   0  0  0  0  0  0  0  0  0  0  0  0
  -22.7620  -13.5880   21.1080 C   0  0  0  0  0  0  0  0  0  0  0  0
  -22.0230  -12.8960   21.9680 N   0  0  0  0  0  0  0  0  0  0  0  0
  -22.3340  -14.6120   20.5800 O   0  0  0  0  0  0  0  0  0  0  0  0
  -22.3780  -12.0650   22.4170 H   0  0  0  0  0  0  0  0  0  0  0  0
  -21.0830  -13.2010   22.1790 H   0  0  0  0  0  0  0  0  0  0  0  0
  -25.4050  -15.2460   20.3070 N   0  0  0  0  0  0  0  0  0  0  0  0
  -24.6500  -15.9120   20.4190 H   0  0  0  0  0  0  0  0  0  0  0  0
  -26.2790  -15.6750   20.0310 H   0  0  0  0  0  0  0  0  0  0  0  0
  1  6  1  0
  1  5  2  0
  2  7  1  0
  2 11  1  0
  3  7  1  0
  4  1  1  0
  5  2  2  0
  6  3  2  0
  8  3  1  0
  8 53  1  0
  9  8  1  0
 11 10  1  0
 12 14  1  0
 12 11  1  0
 13 24  2  0
 14 19  1  0
 15 23  1  0
 15 25  1  0
 16 22  1  0
 16 18  1  0
 17 23  1  0
 18 17  1  0
 19 18  2  0
 20 21  1  0
 20 14  2  0
 21 16  2  0
 22 15  1  0
 23 13  1  0
 25 27  2  0
 26 25  1  0
 28 26  1  0
 29 38  2  0
 29 34  1  0
 30 26  1  0
 30 34  1  0
 31 30  1  0
 32 33  1  0
 32 31  1  0
 33 29  1  0
 34 35  2  0
 35 36  1  0
 37 36  2  0
 38 37  1  0
 39 13  1  0
 39 40  1  0
 39 49  1  0
 40 43  1  0
 41 45  1  0
 41 40  1  0
 42 41  2  0
 45 44  1  0
 47 45  1  0
 47 48  1  0
 47 46  1  0
 49 52  1  1
 49 50  1  0
 51 49  1  0
 54 65  1  0
 55 60  1  0
 56 57  1  0
 56 55  1  0
 58 57  1  0
 58 69  1  0
 58 59  1  0
 60 54  1  0
 60 59  1  0
 61 54  2  0
 62 64  1  0
 62 65  1  0
 64 53  1  0
 64 63  1  0
 65 63  1  0
 66 67  2  0
 67 86  1  0
 68 67  1  0
 68 71  1  0
 69 66  1  0
 69 70  1  0
 70 68  2  0
 71 72  1  0
 72 73  2  0
 74 77  1  0
 74 73  1  0
 75 74  2  0
 76 75  1  0
 76 71  2  0
 77 78  1  0
 78 79  1  0
 79 80  2  0
 81 80  1  0
 81 85  1  0
 82 81  2  0
 83 78  2  0
 83 82  1  0
 84 83  1  0
 86 87  1  0
 87 90  1  0
 87 89  1  0
 88 86  2  0
 91 92  1  0
 91 66  1  0
 93 91  1  0
M  ISO  4  11 101  12 101  54 100  65 100
M  END
>  <TORSDO>  (44) 
F 18

>  <SCORE>  (44) 
-14.67

>  <name>  (44) 
43

>  <ligand_id>  (44) 
43

>  <original_smiles>  (44) 
[H]c1c([H])c([H])c2c(c1[H])C([H])([H])C([H])([H])C([H])([H])C2([H])N([H])C(=O)C1([H])N(C(=O)C([H])(N([H])C(=O)C([H])(N([H])C([H])([H])[H])C([H])([H])[H])C(C([H])([H])[H])(C([H])([H])[H])C([H])([H])[H])C([H])([H])c2c([H])c(OC([H])(c3nc(N([H])C([H])([H])C4([H])C([H])([H])N(C(=O)N5C([H])([H])C([H])([H])C([H])([H])C([H])(n6nc(-c7c([H])c([H])c(Oc8c([H])c([H])c(F)c([H])c8F)c([H])c7[H])c(C(=O)N([H])[H])c6N([H])[H])C5([H])[H])C4([H])[H])nc(C([H])([H])[H])n3)C([H])([H])[H])c([H])c([H])c2C1([H])[H]

>  <smiles>  (44) 
[H]c1c([H])c([H])c2c(c1[H])C([H])([H])C([H])([H])C([H])([H])C2([H])N([H])C(=O)C1([H])N(C(=O)C([H])(N([H])C(=O)C([H])(N([H])C([H])([H])[H])C([H])([H])[H])C(C([H])([H])[H])(C([H])([H])[H])C([H])([H])[H])C([H])([H])c2c([H])c(OC([H])(c3nc(N([H])C([H])([H])C4([H])C([H])([H])N(C(=O)N5C([H])([H])C([H])([H])C([H])([H])C([H])(n6nc(-c7c([H])c([H])c(Oc8c([H])c([H])c(F)c([H])c8F)c([H])c7[H])c(C(=O)N([H])[H])c6N([H])[H])C5([H])[H])C4([H])[H])nc(C([H])([H])[H])n3)C([H])([H])[H])c([H])c([H])c2C1([H])[H]

> <Step>
181.0

> <Scaffold>
O=C(NC1CCCc2ccccc21)C1Cc2ccc(OCc3ncnc(NCC4CN(C(=O)N5CCCC(n6ccc(-c7ccc(Oc8ccccc8)cc7)n6)C5)C4)n3)cc2CN1

> <SMILES>
CNC(C)C(=O)NC(C(=O)N1Cc2cc(OC(C)c3nc(C)nc(NCC4CN(C(=O)N5CCCC(n6nc(-c7ccc(Oc8ccc(F)cc8F)cc7)c(C(N)=O)c6N)C5)C4)n3)ccc2CC1C(=O)NC1CCCc2ccccc21)C(C)(C)C

> <Tanimoto ROCS sim>
0.2707150876522064

> <Custom alerts>
1.0

> <Linker Num Aromatic Rings>
1.0

> <Linker Effective Length>
1.0

> <ADV>
0.996319591999054

> <PostDock Tanimoto ROCS sim>
0.9884154200553894

> <raw_Linker Num Aromatic Rings>
1.0

> <raw_Linker Effective Length>
8.0

> <raw_ADV>
-14.729999542236328

> <total_score>
0.9961837530136108

> <ID>
default_job_143

> <PostDock Tanimoto ROCS sim (re-score)>
0.9779427

> <raw_ADV (re-score)>
-14.67

$$$$
default_job_144
     RDKit          3D

 94101  0  0  1  0  0  0  0  0999 V2000
  -28.8290  -15.9430   19.1770 C   0  0  0  0  0  2  0  0  0  0  0  0
  -28.3230  -17.7350   19.6180 C   0  0  0  0  0  2  0  0  0  0  0  0
  -29.8120  -16.7630   18.5850 C   0  0  0  0  0  3  0  0  0  0  0  0
  -29.2700  -17.7630   20.5570 C   0  0  0  0  0  3  0  0  0  0  0  0
  -28.7570  -12.9620   19.4410 C   0  0  0  0  0  2  0  0  0  0  0  0
  -30.4410  -16.9500   17.2190 C   0  0  0  0  0  1  0  0  0  0  0  0
  -29.3590  -18.6130   21.7870 C   0  0  0  0  0  1  0  0  0  0  0  0
  -30.3180  -17.5360   19.6670 N   0  0  0  0  0  0  0  0  0  0  0  0
  -32.3380  -18.3320   21.1750 C   0  0  0  0  0  2  0  0  0  0  0  0
  -32.8810  -17.1600   19.6010 C   0  0  0  0  0  2  0  0  0  0  0  0
  -31.6650  -18.1030   19.7830 C   0  0  0  0  0  3  0  0  0  0  0  0
  -32.7890  -16.8650   21.1290 C   0  0  0  0  0  3  0  0  0  0  0  0
  -31.7590  -14.6380   21.1560 C   0  0  0  0  0  0  0  0  0  0  0  0
  -31.2460  -13.3080   19.1690 C   0  0  0  0  0  3  0  0  0  0  0  0
  -30.0250  -12.8460   17.8380 C   0  0  0  0  0  3  0  0  0  0  0  0
  -28.1560  -13.0970   18.1420 C   0  0  0  0  0  3  0  0  0  0  0  0
  -27.6030  -13.8360   19.8720 C   0  0  2  0  0  0  0  0  0  0  0  0
  -29.0070  -14.3310   21.1520 C   0  0  0  0  0  2  0  0  0  0  0  0
  -30.6940  -14.0970   20.6440 N   0  0  0  0  0  0  0  0  0  0  0  0
  -32.8540  -14.1490   20.9130 O   0  0  0  0  0  0  0  0  0  0  0  0
  -31.6840  -15.9300   21.5000 N   0  0  0  0  0  0  0  0  0  0  0  0
  -30.7450  -16.3010   21.4320 H   0  0  0  0  0  0  0  0  0  0  0  0
  -25.3560  -13.6960   20.5540 C   0  0  0  0  0  0  0  0  0  0  0  0
  -24.4470  -12.8270   21.0070 C   0  0  0  0  0  0  0  0  0  0  0  0
  -24.9740  -11.5070   20.8710 C   0  0  0  0  0  0  0  0  0  0  0  0
  -26.4770  -12.9970   20.3370 N   0  0  0  0  0  0  0  0  0  0  0  0
  -26.2610  -11.6150   20.4610 N   0  0  0  0  0  0  0  0  0  0  0  0
  -24.2270  -10.2280   21.0760 C   0  0  0  0  0  0  0  0  0  0  0  0
  -24.6330   -9.2130   21.9760 C   0  0  0  0  0  3  0  0  0  0  0  0
  -23.8090   -8.0850   22.2230 C   0  0  0  0  0  3  0  0  0  0  0  0
  -22.5590   -7.9500   21.5730 C   0  0  0  0  0  0  0  0  0  0  0  0
  -22.1610   -8.9470   20.6640 C   0  0  0  0  0  3  0  0  0  0  0  0
  -22.9850  -10.0590   20.4140 C   0  0  0  0  0  3  0  0  0  0  0  0
  -21.7030   -6.8780   21.7230 O   0  0  0  0  0  0  0  0  0  0  0  0
  -21.6910   -6.1070   22.8590 C   0  0  0  0  0  0  0  0  0  0  0  0
  -21.3980   -6.6540   24.1260 C   0  0  0  0  0  3  0  0  0  0  0  0
  -21.3290   -5.8180   25.2580 C   0  0  0  0  0  3  0  0  0  0  0  0
  -21.5450   -4.4330   25.1290 C   0  0  0  0  0  0  0  0  0  0  0  0
  -21.8260   -3.8810   23.8650 C   0  0  0  0  0  3  0  0  0  0  0  0
  -21.8940   -4.7150   22.7330 C   0  0  0  0  0  0  0  0  0  0  0  0
  -22.1430   -4.1720   21.5180 F   0  0  0  0  0  0  0  0  0  0  0  0
  -21.4810   -3.6290   26.2160 F   0  0  0  0  0  0  0  0  0  0  0  0
  -23.1080  -13.2960   21.4310 C   0  0  0  0  0  0  0  0  0  0  0  0
  -22.5050  -12.6250   22.3940 N   0  0  0  0  0  0  0  0  0  0  0  0
  -22.6470  -14.3420   20.9700 O   0  0  0  0  0  0  0  0  0  0  0  0
  -22.9200  -11.7930   22.7860 H   0  0  0  0  0  0  0  0  0  0  0  0
  -21.6110  -12.9410   22.7400 H   0  0  0  0  0  0  0  0  0  0  0  0
  -25.2930  -15.0640   20.2990 N   0  0  0  0  0  0  0  0  0  0  0  0
  -24.3720  -15.5030   20.2650 H   0  0  0  0  0  0  0  0  0  0  0  0
  -25.9340  -15.4810   19.6370 H   0  0  0  0  0  0  0  0  0  0  0  0
  -26.4910  -19.8320   18.7150 C   0  0  0  0  0  1  0  0  0  0  0  0
  -27.9190  -19.9880   19.3230 C   0  0  0  0  0  1  0  0  0  0  0  0
  -27.6970  -22.2690   20.0100 C   0  0  0  0  0 15  0  0  0  0  0  0
  -27.8550  -24.4050   19.9600 O   0  0  0  0  0  1  0  0  0  0  0  0
  -24.8810  -31.7050   23.1760 C   0  0  0  0  0  0  0  0  0  0  0  0
  -27.1200  -25.9920   20.1040 C   0  0  0  0  0  0  0  0  0  0  0  0
  -23.7170  -30.3360   21.5370 C   0  0  0  0  0  3  0  0  0  0  0  0
  -25.1090  -28.5670   20.1300 C   0  0  0  0  0  0  0  0  0  0  0  0
  -26.3200  -30.1760   21.5510 C   0  0  0  0  0  2  0  0  0  0  0  0
  -26.3100  -28.7000   20.8270 C   0  0  0  0  0  0  0  0  0  0  0  0
  -27.2850  -27.4690   20.7600 C   0  0  0  0  0  3  0  0  0  0  0  0
  -25.9200  -26.2640   19.3710 C   0  0  0  0  0  3  0  0  0  0  0  0
  -25.0020  -27.3860   19.3700 C   0  0  0  0  0  3  0  0  0  0  0  0
  -23.9830  -29.6360   20.1730 C   0  0  0  0  0  2  0  0  0  0  0  0
  -25.0160  -30.7830   22.1440 N   0  0  0  0  0  0  0  0  0  0  0  0
  -23.7580  -32.0990   23.5300 O   0  0  0  0  0  0  0  0  0  0  0  0
  -22.9030  -29.4020   22.4860 C   0  0  0  0  0  0  0  0  0  0  0  0
  -21.5660  -29.3000   22.3250 N   0  0  0  0  0  0  0  0  0  0  0  0
  -23.4970  -28.7660   23.3580 O   0  0  0  0  0  0  0  0  0  0  0  0
  -21.1250  -29.8590   21.6080 H   0  0  0  0  0  0  0  0  0  0  0  0
  -18.1410  -28.1220   22.7330 C   0  0  0  0  0  0  0  0  0  0  0  0
  -20.6980  -28.3640   23.0560 C   0  0  0  0  0  3  0  0  0  0  0  0
  -20.7960  -26.9420   22.4600 C   0  0  0  0  0  2  0  0  0  0  0  0
  -19.7200  -26.6560   21.4050 C   0  0  0  0  0  2  0  0  0  0  0  0
  -18.3220  -26.7940   22.0160 C   0  0  0  0  0  2  0  0  0  0  0  0
  -19.2560  -28.8670   23.2040 C   0  0  0  0  0  0  0  0  0  0  0  0
  -19.0280  -30.1040   23.8420 C   0  0  0  0  0  3  0  0  0  0  0  0
  -17.7210  -30.6040   24.0050 C   0  0  0  0  0  3  0  0  0  0  0  0
  -16.6220  -29.8590   23.5440 C   0  0  0  0  0  3  0  0  0  0  0  0
  -16.8320  -28.6180   22.9170 C   0  0  0  0  0  3  0  0  0  0  0  0
  -26.0860  -32.3480   23.9380 C   0  0  0  0  0  3  0  0  0  0  0  0
  -26.5100  -31.5580   25.2390 C   0  0  1  0  0  0  0  0  0  0  0  0
  -25.3510  -31.3150   26.2350 C   0  0  0  0  0  1  0  0  0  0  0  0
  -27.1030  -30.1800   24.8850 C   0  0  0  0  0  1  0  0  0  0  0  0
  -27.6250  -32.3320   25.9790 C   0  0  0  0  0  1  0  0  0  0  0  0
  -25.7240  -33.7360   24.3290 N   0  0  0  0  0  0  0  0  0  0  0  0
  -26.0890  -34.8560   23.6870 C   0  0  0  0  0  0  0  0  0  0  0  0
  -26.8050  -34.8310   22.6850 O   0  0  0  0  0  0  0  0  0  0  0  0
  -25.0900  -33.8280   25.1090 H   0  0  0  0  0  0  0  0  0  0  0  0
  -24.3720  -36.6930   23.4330 C   0  0  0  0  0  1  0  0  0  0  0  0
  -25.5940  -36.2180   24.2370 C   0  0  0  0  0  3  0  0  0  0  0  0
  -27.7060  -37.0570   25.1800 C   0  0  0  0  0  1  0  0  0  0  0  0
  -26.6290  -37.2800   24.2180 N   0  0  0  0  0  0  0  0  0  0  0  0
  -26.2150  -38.1890   24.4130 H   0  0  0  0  0  0  0  0  0  0  0  0
  1  2  1  0
  2  4  1  0
  3  6  1  0
  3  1  1  0
  3  8  1  0
  4  7  1  0
  8 11  1  0
  8  4  1  0
 10 12  1  0
 11 10  1  0
 11  9  1  0
 12  9  1  0
 12 21  1  0
 13 21  1  0
 14 19  1  0
 15 14  2  0
 16 15  1  0
 16  5  1  0
 16 17  1  0
 17  5  1  0
 17 26  1  1
 17 18  1  0
 19 18  1  0
 19 13  1  0
 20 13  2  0
 22 21  1  0
 23 24  2  0
 24 43  1  0
 25 24  1  0
 25 28  1  0
 26 27  1  0
 26 23  1  0
 27 25  2  0
 28 29  1  0
 29 30  2  0
 31 34  1  0
 31 30  1  0
 32 31  2  0
 33 32  1  0
 33 28  2  0
 34 35  1  0
 35 36  1  0
 36 37  2  0
 38 37  1  0
 38 42  1  0
 39 38  2  0
 40 35  2  0
 40 39  1  0
 41 40  1  0
 43 44  1  0
 44 47  1  0
 44 46  1  0
 45 43  2  0
 48 23  1  0
 49 48  1  0
 50 48  1  0
 51 52  1  0
 54 56  1  0
 55 66  2  0
 56 61  1  0
 57 65  1  0
 57 67  1  0
 58 64  1  0
 58 60  1  0
 59 65  1  0
 60 59  1  0
 61 60  2  0
 62 56  2  0
 63 62  1  0
 63 58  2  0
 64 57  1  0
 65 55  1  0
 67 69  2  0
 68 67  1  0
 70 68  1  0
 71 80  2  0
 71 76  1  0
 72 68  1  0
 72 76  1  0
 73 72  1  0
 74 75  1  0
 74 73  1  0
 75 71  1  0
 76 77  2  0
 77 78  1  0
 79 78  2  0
 80 79  1  0
 81 55  1  0
 81 86  1  0
 81 82  1  0
 82 85  1  1
 82 83  1  0
 84 82  1  0
 86 89  1  0
 87 91  1  0
 87 86  1  0
 88 87  2  0
 91 90  1  0
 93 91  1  0
 93 94  1  0
 93 92  1  0
M  ISO  4  13 100  21 100  53 101  54 101
M  END
>  <TORSDO>  (45) 
F 19

>  <SCORE>  (45) 
-11.796

>  <name>  (45) 
44

>  <ligand_id>  (45) 
44

>  <original_smiles>  (45) 
[H]c1c([H])c([H])c2c(c1[H])C([H])([H])C([H])([H])C([H])([H])C2([H])N([H])C(=O)C1([H])N(C(=O)C([H])(N([H])C(=O)C([H])(N([H])C([H])([H])[H])C([H])([H])[H])C(C([H])([H])[H])(C([H])([H])[H])C([H])([H])[H])C([H])([H])c2c([H])c(OC([H])([H])C([H])(c3c(C([H])([H])[H])c(C([H])([H])[H])n(C4([H])C([H])([H])C([H])(N([H])C(=O)N5C([H])([H])C([H])([H])C([H])([H])C([H])(n6nc(-c7c([H])c([H])c(Oc8c([H])c([H])c(F)c([H])c8F)c([H])c7[H])c(C(=O)N([H])[H])c6N([H])[H])C5([H])[H])C4([H])[H])c3C([H])([H])[H])C([H])([H])[H])c([H])c([H])c2C1([H])[H]

>  <smiles>  (45) 
[H]c1c([H])c([H])c2c(c1[H])C([H])([H])C([H])([H])C([H])([H])C2([H])N([H])C(=O)C1([H])N(C(=O)C([H])(N([H])C(=O)C([H])(N([H])C([H])([H])[H])C([H])([H])[H])C(C([H])([H])[H])(C([H])([H])[H])C([H])([H])[H])C([H])([H])c2c([H])c(OC([H])([H])C([H])(c3c(C([H])([H])[H])c(C([H])([H])[H])n(C4([H])C([H])([H])C([H])(N([H])C(=O)N5C([H])([H])C([H])([H])C([H])([H])C([H])(n6nc(-c7c([H])c([H])c(Oc8c([H])c([H])c(F)c([H])c8F)c([H])c7[H])c(C(=O)N([H])[H])c6N([H])[H])C5([H])[H])C4([H])[H])c3C([H])([H])[H])C([H])([H])[H])c([H])c([H])c2C1([H])[H]

> <Step>
163.0

> <Scaffold>
O=C(NC1CCCc2ccccc21)C1Cc2ccc(OCCc3ccn(C4CC(NC(=O)N5CCCC(n6ccc(-c7ccc(Oc8ccccc8)cc7)n6)C5)C4)c3)cc2CN1

> <SMILES>
CNC(C)C(=O)NC(C(=O)N1Cc2cc(OCC(C)c3c(C)c(C)n(C4CC(NC(=O)N5CCCC(n6nc(-c7ccc(Oc8ccc(F)cc8F)cc7)c(C(N)=O)c6N)C5)C4)c3C)ccc2CC1C(=O)NC1CCCc2ccccc21)C(C)(C)C

> <Tanimoto ROCS sim>
0.2593553960323334

> <Custom alerts>
1.0

> <Linker Num Aromatic Rings>
1.0

> <Linker Effective Length>
1.0

> <ADV>
0.993854284286499

> <PostDock Tanimoto ROCS sim>
0.9908798933029175

> <raw_Linker Num Aromatic Rings>
1.0

> <raw_Linker Effective Length>
8.0

> <raw_ADV>
-13.835000038146973

> <total_score>
0.9961835145950317

> <ID>
default_job_144

> <PostDock Tanimoto ROCS sim (re-score)>
0.0

> <raw_ADV (re-score)>
-11.796

$$$$
default_job_145
     RDKit          3D

 96106  0  0  1  0  0  0  0  0999 V2000
  -28.5080  -20.9520   21.1260 C   0  0  0  0  0  2  0  0  0  0  0  0
  -29.5420  -23.3250   21.5080 C   0  0  0  0  0  2  0  0  0  0  0  0
  -28.0770  -22.9270   19.4850 C   0  0  0  0  0  2  0  0  0  0  0  0
  -29.3150  -24.8610   21.4530 C   0  0  0  0  0  2  0  0  0  0  0  0
  -28.2680  -24.4420   19.2030 C   0  0  0  0  0  2  0  0  0  0  0  0
  -28.3650  -22.4980   20.9470 C   0  0  0  0  0  3  0  0  0  0  0  0
  -28.2010  -25.3040   20.4820 C   0  0  0  0  0  3  0  0  0  0  0  0
  -28.3490  -26.7170   20.2250 O   0  0  0  0  0  0  0  0  0  0  0  0
  -24.5660  -31.9350   23.2660 C   0  0  0  0  0  0  0  0  0  0  0  0
  -27.1880  -27.4660   20.2050 C   0  0  0  0  0  0  0  0  0  0  0  0
  -23.3560  -30.5300   21.6340 C   0  0  0  0  0  3  0  0  0  0  0  0
  -24.8040  -28.9890   20.2140 C   0  0  0  0  0  0  0  0  0  0  0  0
  -25.8880  -30.8790   21.4380 C   0  0  0  0  0  2  0  0  0  0  0  0
  -25.9660  -29.5080   20.7960 C   0  0  0  0  0  0  0  0  0  0  0  0
  -27.1650  -28.7560   20.7810 C   0  0  0  0  0  3  0  0  0  0  0  0
  -26.0040  -26.9640   19.6210 C   0  0  0  0  0  3  0  0  0  0  0  0
  -24.8160  -27.7160   19.6230 C   0  0  0  0  0  3  0  0  0  0  0  0
  -23.5610  -29.8510   20.2570 C   0  0  0  0  0  2  0  0  0  0  0  0
  -24.6230  -31.1240   22.1720 N   0  0  0  0  0  0  0  0  0  0  0  0
  -23.4790  -32.2330   23.7790 O   0  0  0  0  0  0  0  0  0  0  0  0
  -22.7050  -29.5070   22.5950 C   0  0  0  0  0  0  0  0  0  0  0  0
  -21.3840  -29.3130   22.4540 N   0  0  0  0  0  0  0  0  0  0  0  0
  -23.3840  -28.8910   23.4200 O   0  0  0  0  0  0  0  0  0  0  0  0
  -20.8960  -29.8570   21.7550 H   0  0  0  0  0  0  0  0  0  0  0  0
  -18.0110  -28.1040   22.9210 C   0  0  0  0  0  0  0  0  0  0  0  0
  -20.5650  -28.3730   23.2180 C   0  0  0  0  0  3  0  0  0  0  0  0
  -20.6810  -26.9400   22.6490 C   0  0  0  0  0  2  0  0  0  0  0  0
  -19.5890  -26.6100   21.6260 C   0  0  0  0  0  2  0  0  0  0  0  0
  -18.2000  -26.7550   22.2530 C   0  0  0  0  0  2  0  0  0  0  0  0
  -19.1220  -28.8740   23.3590 C   0  0  0  0  0  0  0  0  0  0  0  0
  -18.8890  -30.1430   23.9350 C   0  0  0  0  0  3  0  0  0  0  0  0
  -17.5790  -30.6350   24.0870 C   0  0  0  0  0  3  0  0  0  0  0  0
  -16.4830  -29.8610   23.6680 C   0  0  0  0  0  3  0  0  0  0  0  0
  -16.7000  -28.5970   23.0900 C   0  0  0  0  0  3  0  0  0  0  0  0
  -25.8500  -32.5570   23.8970 C   0  0  0  0  0  3  0  0  0  0  0  0
  -26.3570  -31.7900   25.1810 C   0  0  1  0  0  0  0  0  0  0  0  0
  -25.2590  -31.5600   26.2440 C   0  0  0  0  0  1  0  0  0  0  0  0
  -26.9440  -30.4150   24.7940 C   0  0  0  0  0  1  0  0  0  0  0  0
  -27.5080  -32.5830   25.8400 C   0  0  0  0  0  1  0  0  0  0  0  0
  -25.5500  -33.9600   24.2150 N   0  0  0  0  0  0  0  0  0  0  0  0
  -25.8810  -35.0040   23.4450 C   0  0  0  0  0  0  0  0  0  0  0  0
  -26.5520  -34.8920   22.4160 O   0  0  0  0  0  0  0  0  0  0  0  0
  -24.9710  -34.1260   25.0230 H   0  0  0  0  0  0  0  0  0  0  0  0
  -24.1560  -36.7920   23.0720 C   0  0  0  0  0  1  0  0  0  0  0  0
  -25.3940  -36.3950   23.8910 C   0  0  0  0  0  3  0  0  0  0  0  0
  -27.5260  -37.2740   24.7230 C   0  0  0  0  0  1  0  0  0  0  0  0
  -26.4260  -37.4480   23.7790 N   0  0  0  0  0  0  0  0  0  0  0  0
  -26.0210  -38.3650   23.9370 H   0  0  0  0  0  0  0  0  0  0  0  0
  -29.3720  -20.3910   20.1330 O   0  0  0  0  0  0  0  0  0  0  0  0
  -30.7530  -14.5360   20.3760 C   0  0  0  0  0  0  0  0  0  0  0  0
  -30.3640  -12.3760   19.2400 C   0  0  0  0  0  2  0  0  0  0  0  0
  -29.4160  -12.6030   18.0460 C   0  0  0  0  0  2  0  0  0  0  0  0
  -27.9480  -12.4690   18.4930 C   0  0  0  0  0  2  0  0  0  0  0  0
  -27.6340  -13.2860   19.7750 C   0  0  0  0  0  3  0  0  0  0  0  0
  -28.7170  -13.0970   20.8650 C   0  0  0  0  0  2  0  0  0  0  0  0
  -30.0300  -13.3820   20.2660 N   0  0  0  0  0  0  0  0  0  0  0  0
  -31.8700  -14.6280   19.8600 O   0  0  0  0  0  0  0  0  0  0  0  0
  -29.7170  -18.0230   20.6770 C   0  0  0  0  0  3  0  0  0  0  0  0
  -32.4040  -18.5020   20.9290 C   0  0  0  0  0  3  0  0  0  0  0  0
  -31.5780  -19.5870   20.5910 C   0  0  0  0  0  0  0  0  0  0  0  0
  -30.1910  -19.3490   20.5090 C   0  0  0  0  0  0  0  0  0  0  0  0
  -30.6320  -16.9640   20.9150 C   0  0  0  0  0  0  0  0  0  0  0  0
  -31.9480  -17.2440   21.0980 N   0  0  0  0  0  0  0  0  0  0  0  0
  -30.1390  -15.6120   20.9220 N   0  0  0  0  0  0  0  0  0  0  0  0
  -29.1860  -15.4750   21.2130 H   0  0  0  0  0  0  0  0  0  0  0  0
  -25.2500  -13.8630   20.5410 C   0  0  0  0  0  0  0  0  0  0  0  0
  -24.1930  -13.0810   20.9230 C   0  0  0  0  0  0  0  0  0  0  0  0
  -24.6580  -11.7330   20.8680 C   0  0  0  0  0  0  0  0  0  0  0  0
  -26.2950  -12.9910   20.2810 N   0  0  0  0  0  0  0  0  0  0  0  0
  -25.9450  -11.7030   20.5340 N   0  0  0  0  0  0  0  0  0  0  0  0
  -23.9400  -10.4670   21.0610 C   0  0  0  0  0  0  0  0  0  0  0  0
  -24.3900   -9.4920   21.9790 C   0  0  0  0  0  3  0  0  0  0  0  0
  -23.6710   -8.2910   22.1580 C   0  0  0  0  0  3  0  0  0  0  0  0
  -22.4870   -8.0550   21.4190 C   0  0  0  0  0  0  0  0  0  0  0  0
  -22.0570   -9.0180   20.4890 C   0  0  0  0  0  3  0  0  0  0  0  0
  -22.7760  -10.2100   20.3070 C   0  0  0  0  0  3  0  0  0  0  0  0
  -21.7340   -6.9100   21.5120 O   0  0  0  0  0  0  0  0  0  0  0  0
  -21.7030   -6.1580   22.6590 C   0  0  0  0  0  0  0  0  0  0  0  0
  -21.2850   -6.7010   23.8950 C   0  0  0  0  0  3  0  0  0  0  0  0
  -21.2000   -5.8750   25.0330 C   0  0  0  0  0  3  0  0  0  0  0  0
  -21.5250   -4.5080   24.9400 C   0  0  0  0  0  0  0  0  0  0  0  0
  -21.9370   -3.9660   23.7090 C   0  0  0  0  0  3  0  0  0  0  0  0
  -22.0230   -4.7870   22.5710 C   0  0  0  0  0  0  0  0  0  0  0  0
  -22.4000   -4.2550   21.3840 F   0  0  0  0  0  0  0  0  0  0  0  0
  -21.4370   -3.7130   26.0310 F   0  0  0  0  0  0  0  0  0  0  0  0
  -22.8000  -13.5510   21.2280 C   0  0  0  0  0  0  0  0  0  0  0  0
  -22.0890  -12.8420   22.0980 N   0  0  0  0  0  0  0  0  0  0  0  0
  -22.3500  -14.5810   20.7300 O   0  0  0  0  0  0  0  0  0  0  0  0
  -22.4630  -12.0040   22.5170 H   0  0  0  0  0  0  0  0  0  0  0  0
  -21.1540  -13.1400   22.3430 H   0  0  0  0  0  0  0  0  0  0  0  0
  -25.4020  -15.2370   20.3750 N   0  0  0  0  0  0  0  0  0  0  0  0
  -24.6250  -15.8780   20.4960 H   0  0  0  0  0  0  0  0  0  0  0  0
  -26.2330  -15.6880   20.0160 H   0  0  0  0  0  0  0  0  0  0  0  0
  -31.9330  -21.6550   19.0160 C   0  0  0  0  0  2  0  0  0  0  0  0
  -33.3180  -21.1990   19.3970 C   0  0  0  0  0  2  0  0  0  0  0  0
  -32.1560  -20.9520   20.3420 C   0  0  0  0  0  3  0  0  0  0  0  0
  3  6  1  0
  4  2  1  0
  5  3  1  0
  5  7  1  0
  6  1  1  0
  6  2  1  0
  7  8  1  0
  7  4  1  0
  9 20  2  0
 10  8  1  0
 10 15  1  0
 11 19  1  0
 11 21  1  0
 12 18  1  0
 12 14  1  0
 13 19  1  0
 14 13  1  0
 15 14  2  0
 16 17  1  0
 16 10  2  0
 17 12  2  0
 18 11  1  0
 19  9  1  0
 21 23  2  0
 22 21  1  0
 24 22  1  0
 25 34  2  0
 25 30  1  0
 26 22  1  0
 26 30  1  0
 27 26  1  0
 28 29  1  0
 28 27  1  0
 29 25  1  0
 30 31  2  0
 31 32  1  0
 33 32  2  0
 34 33  1  0
 35  9  1  0
 35 40  1  0
 35 36  1  0
 36 39  1  1
 36 37  1  0
 38 36  1  0
 40 43  1  0
 41 45  1  0
 41 40  1  0
 42 41  2  0
 45 44  1  0
 47 45  1  0
 47 48  1  0
 47 46  1  0
 49 61  1  0
 49  1  1  0
 50 64  1  0
 51 56  1  0
 52 53  1  0
 52 51  1  0
 54 53  1  0
 54 69  1  0
 54 55  1  0
 56 50  1  0
 56 55  1  0
 57 50  2  0
 58 62  1  0
 59 63  1  0
 60 59  2  0
 61 60  1  0
 61 58  2  0
 62 64  1  0
 62 63  2  0
 64 65  1  0
 66 67  2  0
 67 86  1  0
 68 67  1  0
 68 71  1  0
 69 70  1  0
 69 66  1  0
 70 68  2  0
 71 72  1  0
 72 73  2  0
 74 77  1  0
 74 73  1  0
 75 74  2  0
 76 75  1  0
 76 71  2  0
 77 78  1  0
 78 79  1  0
 79 80  2  0
 81 80  1  0
 81 85  1  0
 82 81  2  0
 83 78  2  0
 83 82  1  0
 84 83  1  0
 86 87  1  0
 87 90  1  0
 87 89  1  0
 88 86  2  0
 91 92  1  0
 91 66  1  0
 93 91  1  0
 94 95  1  0
 94 96  1  0
 95 96  1  0
 96 60  1  0
M  ISO  4   7 101   8 101  50 100  64 100
M  END
>  <TORSDO>  (46) 
F 19

>  <SCORE>  (46) 
-14.796

>  <name>  (46) 
45

>  <ligand_id>  (46) 
45

>  <original_smiles>  (46) 
[H]c1nc(N([H])C(=O)N2C([H])([H])C([H])([H])C([H])([H])C([H])(n3nc(-c4c([H])c([H])c(Oc5c([H])c([H])c(F)c([H])c5F)c([H])c4[H])c(C(=O)N([H])[H])c3N([H])[H])C2([H])[H])c([H])c(OC([H])([H])C2([H])C([H])([H])C([H])([H])C([H])(Oc3c([H])c([H])c4c(c3[H])C([H])([H])N(C(=O)C([H])(N([H])C(=O)C([H])(N([H])C([H])([H])[H])C([H])([H])[H])C(C([H])([H])[H])(C([H])([H])[H])C([H])([H])[H])C([H])(C(=O)N([H])C3([H])c5c([H])c([H])c([H])c([H])c5C([H])([H])C([H])([H])C3([H])[H])C4([H])[H])C([H])([H])C2([H])[H])c1C1([H])C([H])([H])C1([H])[H]

>  <smiles>  (46) 
[H]c1nc(N([H])C(=O)N2C([H])([H])C([H])([H])C([H])([H])C([H])(n3nc(-c4c([H])c([H])c(Oc5c([H])c([H])c(F)c([H])c5F)c([H])c4[H])c(C(=O)N([H])[H])c3N([H])[H])C2([H])[H])c([H])c(OC([H])([H])C2([H])C([H])([H])C([H])([H])C([H])(Oc3c([H])c([H])c4c(c3[H])C([H])([H])N(C(=O)C([H])(N([H])C(=O)C([H])(N([H])C([H])([H])[H])C([H])([H])[H])C(C([H])([H])[H])(C([H])([H])[H])C([H])([H])[H])C([H])(C(=O)N([H])C3([H])c5c([H])c([H])c([H])c([H])c5C([H])([H])C([H])([H])C3([H])[H])C4([H])[H])C([H])([H])C2([H])[H])c1C1([H])C([H])([H])C1([H])[H]

> <Step>
146.0

> <Scaffold>
O=C(NC1CCCc2ccccc21)C1Cc2ccc(OC3CCC(COc4cc(NC(=O)N5CCCC(n6ccc(-c7ccc(Oc8ccccc8)cc7)n6)C5)ncc4C4CC4)CC3)cc2CN1

> <SMILES>
CNC(C)C(=O)NC(C(=O)N1Cc2cc(OC3CCC(COc4cc(NC(=O)N5CCCC(n6nc(-c7ccc(Oc8ccc(F)cc8F)cc7)c(C(N)=O)c6N)C5)ncc4C4CC4)CC3)ccc2CC1C(=O)NC1CCCc2ccccc21)C(C)(C)C

> <Tanimoto ROCS sim>
0.2764037847518921

> <Custom alerts>
1.0

> <Linker Num Aromatic Rings>
1.0

> <Linker Effective Length>
1.0

> <ADV>
0.9965027570724487

> <PostDock Tanimoto ROCS sim>
0.9882136583328247

> <raw_Linker Num Aromatic Rings>
1.0

> <raw_Linker Effective Length>
9.0

> <raw_ADV>
-14.819000244140625

> <total_score>
0.9961791038513184

> <ID>
default_job_145

> <PostDock Tanimoto ROCS sim (re-score)>
0.98354435

> <raw_ADV (re-score)>
-14.796

$$$$
default_job_146
     RDKit          3D

 93103  0  0  1  0  0  0  0  0999 V2000
  -28.6110  -19.2900   18.6400 C   0  0  0  0  0  3  0  0  0  0  0  0
  -28.1090  -20.4450   18.0280 C   0  0  0  0  0  3  0  0  0  0  0  0
  -29.1700  -19.4240   19.9180 C   0  0  0  0  0  0  0  0  0  0  0  0
  -28.7520  -21.7190   19.8090 C   0  0  0  0  0  0  0  0  0  0  0  0
  -30.1400  -25.1050   20.0070 C   0  0  0  0  0  2  0  0  0  0  0  0
  -30.2750  -23.5720   20.0300 C   0  0  0  0  0  2  0  0  0  0  0  0
  -27.9650  -24.1200   20.1740 C   0  0  0  0  0  2  0  0  0  0  0  0
  -28.6760  -25.4040   19.6490 C   0  0  0  0  0  3  0  0  0  0  0  0
  -28.1770  -21.6530   18.6180 N   0  0  0  0  0  0  0  0  0  0  0  0
  -29.2590  -20.6690   20.4810 N   0  0  0  0  0  0  0  0  0  0  0  0
  -28.9570  -23.0150   20.3100 N   0  0  0  0  0  0  0  0  0  0  0  0
  -30.7290  -14.6130   20.4000 C   0  0  0  0  0  0  0  0  0  0  0  0
  -30.3730  -12.3870   19.3880 C   0  0  0  0  0  2  0  0  0  0  0  0
  -29.4480  -12.5260   18.1640 C   0  0  0  0  0  2  0  0  0  0  0  0
  -27.9710  -12.4020   18.5860 C   0  0  0  0  0  2  0  0  0  0  0  0
  -27.6230  -13.2740   19.8230 C   0  0  0  0  0  3  0  0  0  0  0  0
  -28.6890  -13.1750   20.9380 C   0  0  0  0  0  2  0  0  0  0  0  0
  -30.0030  -13.4510   20.3430 N   0  0  0  0  0  0  0  0  0  0  0  0
  -31.8710  -14.6590   19.9280 O   0  0  0  0  0  0  0  0  0  0  0  0
  -31.0530  -18.0580   21.1330 C   0  0  0  0  0  2  0  0  0  0  0  0
  -31.1210  -16.6310   21.7180 C   0  0  0  0  0  2  0  0  0  0  0  0
  -29.3540  -16.7260   20.1800 C   0  0  0  0  0  2  0  0  0  0  0  0
  -29.5900  -18.1710   20.7550 C   0  0  0  0  0  3  0  0  0  0  0  0
  -30.1990  -15.7560   20.9530 N   0  0  0  0  0  0  0  0  0  0  0  0
  -25.2290  -13.8490   20.5510 C   0  0  0  0  0  0  0  0  0  0  0  0
  -24.1640  -13.0730   20.9190 C   0  0  0  0  0  0  0  0  0  0  0  0
  -24.6300  -11.7250   20.8850 C   0  0  0  0  0  0  0  0  0  0  0  0
  -26.2780  -12.9770   20.3160 N   0  0  0  0  0  0  0  0  0  0  0  0
  -25.9230  -11.6900   20.5780 N   0  0  0  0  0  0  0  0  0  0  0  0
  -23.9000  -10.4590   21.0660 C   0  0  0  0  0  0  0  0  0  0  0  0
  -24.3330   -9.4870   21.9910 C   0  0  0  0  0  3  0  0  0  0  0  0
  -23.6120   -8.2860   22.1630 C   0  0  0  0  0  3  0  0  0  0  0  0
  -22.4360   -8.0510   21.4110 C   0  0  0  0  0  0  0  0  0  0  0  0
  -22.0230   -9.0150   20.4770 C   0  0  0  0  0  3  0  0  0  0  0  0
  -22.7470  -10.2060   20.3010 C   0  0  0  0  0  3  0  0  0  0  0  0
  -21.6770   -6.9100   21.5020 O   0  0  0  0  0  0  0  0  0  0  0  0
  -21.6400   -6.1590   22.6510 C   0  0  0  0  0  0  0  0  0  0  0  0
  -21.2180   -6.7010   23.8840 C   0  0  0  0  0  3  0  0  0  0  0  0
  -21.1280   -5.8730   25.0220 C   0  0  0  0  0  3  0  0  0  0  0  0
  -21.4450   -4.5050   24.9250 C   0  0  0  0  0  0  0  0  0  0  0  0
  -21.8570   -3.9620   23.6950 C   0  0  0  0  0  3  0  0  0  0  0  0
  -21.9490   -4.7860   22.5610 C   0  0  0  0  0  0  0  0  0  0  0  0
  -22.3280   -4.2530   21.3760 F   0  0  0  0  0  0  0  0  0  0  0  0
  -21.3500   -3.7100   26.0150 F   0  0  0  0  0  0  0  0  0  0  0  0
  -22.7660  -13.5480   21.1910 C   0  0  0  0  0  0  0  0  0  0  0  0
  -22.0340  -12.8480   22.0500 N   0  0  0  0  0  0  0  0  0  0  0  0
  -22.3310  -14.5780   20.6770 O   0  0  0  0  0  0  0  0  0  0  0  0
  -22.4000  -12.0140   22.4910 H   0  0  0  0  0  0  0  0  0  0  0  0
  -21.0920  -13.1450   22.2610 H   0  0  0  0  0  0  0  0  0  0  0  0
  -25.4010  -15.2200   20.3750 N   0  0  0  0  0  0  0  0  0  0  0  0
  -24.6590  -15.8960   20.4950 H   0  0  0  0  0  0  0  0  0  0  0  0
  -26.2680  -15.6420   20.0650 H   0  0  0  0  0  0  0  0  0  0  0  0
  -28.4080  -26.7020   20.2460 O   0  0  0  0  0  0  0  0  0  0  0  0
  -24.5850  -31.9120   23.2230 C   0  0  0  0  0  0  0  0  0  0  0  0
  -27.2140  -27.4050   20.1660 C   0  0  0  0  0  0  0  0  0  0  0  0
  -23.3710  -30.5030   21.5890 C   0  0  0  0  0  3  0  0  0  0  0  0
  -24.8210  -28.9390   20.1700 C   0  0  0  0  0  0  0  0  0  0  0  0
  -25.9020  -30.8310   21.4030 C   0  0  0  0  0  2  0  0  0  0  0  0
  -25.9780  -29.4570   20.7620 C   0  0  0  0  0  0  0  0  0  0  0  0
  -27.1680  -28.6920   20.7620 C   0  0  0  0  0  3  0  0  0  0  0  0
  -26.0430  -26.9060   19.5570 C   0  0  0  0  0  3  0  0  0  0  0  0
  -24.8500  -27.6640   19.5650 C   0  0  0  0  0  3  0  0  0  0  0  0
  -23.5780  -29.8000   20.2160 C   0  0  0  0  0  2  0  0  0  0  0  0
  -24.6390  -31.0950   22.1320 N   0  0  0  0  0  0  0  0  0  0  0  0
  -23.5020  -32.2230   23.7320 O   0  0  0  0  0  0  0  0  0  0  0  0
  -22.7090  -29.4970   22.5600 C   0  0  0  0  0  0  0  0  0  0  0  0
  -21.3830  -29.3260   22.4350 N   0  0  0  0  0  0  0  0  0  0  0  0
  -23.3880  -28.8700   23.3780 O   0  0  0  0  0  0  0  0  0  0  0  0
  -20.8970  -29.8860   21.7500 H   0  0  0  0  0  0  0  0  0  0  0  0
  -18.0010  -28.1630   22.9470 C   0  0  0  0  0  0  0  0  0  0  0  0
  -20.5620  -28.3920   23.2060 C   0  0  0  0  0  3  0  0  0  0  0  0
  -20.6450  -26.9620   22.6230 C   0  0  0  0  0  2  0  0  0  0  0  0
  -19.5370  -26.6560   21.6120 C   0  0  0  0  0  2  0  0  0  0  0  0
  -18.1610  -26.8150   22.2630 C   0  0  0  0  0  2  0  0  0  0  0  0
  -19.1290  -28.9090   23.3750 C   0  0  0  0  0  0  0  0  0  0  0  0
  -18.9290  -30.1730   23.9710 C   0  0  0  0  0  3  0  0  0  0  0  0
  -17.6300  -30.6890   24.1460 C   0  0  0  0  0  3  0  0  0  0  0  0
  -16.5170  -29.9380   23.7370 C   0  0  0  0  0  3  0  0  0  0  0  0
  -16.7020  -28.6770   23.1420 C   0  0  0  0  0  3  0  0  0  0  0  0
  -25.8790  -32.5250   23.8510 C   0  0  0  0  0  3  0  0  0  0  0  0
  -25.5840  -33.9220   24.1940 N   0  0  0  0  0  0  0  0  0  0  0  0
  -25.9050  -34.9790   23.4340 C   0  0  0  0  0  0  0  0  0  0  0  0
  -26.5550  -34.8770   22.3900 O   0  0  0  0  0  0  0  0  0  0  0  0
  -25.0040  -34.0720   25.0070 H   0  0  0  0  0  0  0  0  0  0  0  0
  -24.1730  -36.7750   23.1200 C   0  0  0  0  0  1  0  0  0  0  0  0
  -25.4290  -36.3660   23.9060 C   0  0  0  0  0  3  0  0  0  0  0  0
  -27.5800  -37.2490   24.6970 C   0  0  0  0  0  1  0  0  0  0  0  0
  -26.4580  -37.4210   23.7770 N   0  0  0  0  0  0  0  0  0  0  0  0
  -26.0540  -38.3390   23.9380 H   0  0  0  0  0  0  0  0  0  0  0  0
  -26.3980  -31.7440   25.1210 C   0  0  1  0  0  0  0  0  0  0  0  0
  -25.3050  -31.5090   26.1880 C   0  0  0  0  0  1  0  0  0  0  0  0
  -26.9770  -30.3650   24.7240 C   0  0  0  0  0  1  0  0  0  0  0  0
  -27.5500  -32.5320   25.7890 C   0  0  0  0  0  1  0  0  0  0  0  0
  1  3  1  0
  2  9  1  0
  2  1  2  0
  3 10  2  0
  4 11  1  0
  4 10  1  0
  5  6  1  0
  6 11  1  0
  7 11  1  0
  8  5  1  0
  8  7  1  0
  8 53  1  0
  9  4  2  0
 12 24  1  0
 13 18  1  0
 14 15  1  0
 14 13  1  0
 16 15  1  0
 16 28  1  0
 16 17  1  0
 18 12  1  0
 18 17  1  0
 19 12  2  0
 20 21  1  0
 22 23  1  0
 22 24  1  0
 23  3  1  0
 23 20  1  0
 24 21  1  0
 25 26  2  0
 26 45  1  0
 27 26  1  0
 27 30  1  0
 28 25  1  0
 28 29  1  0
 29 27  2  0
 30 31  1  0
 31 32  2  0
 33 36  1  0
 33 32  1  0
 34 33  2  0
 35 34  1  0
 35 30  2  0
 36 37  1  0
 37 38  1  0
 38 39  2  0
 40 39  1  0
 40 44  1  0
 41 40  2  0
 42 37  2  0
 42 41  1  0
 43 42  1  0
 45 46  1  0
 46 49  1  0
 46 48  1  0
 47 45  2  0
 50 51  1  0
 50 25  1  0
 52 50  1  0
 54 65  2  0
 55 53  1  0
 55 60  1  0
 56 64  1  0
 56 66  1  0
 57 63  1  0
 57 59  1  0
 58 64  1  0
 59 60  2  0
 59 58  1  0
 61 62  1  0
 61 55  2  0
 62 57  2  0
 63 56  1  0
 64 54  1  0
 66 68  2  0
 67 66  1  0
 69 67  1  0
 70 79  2  0
 70 75  1  0
 71 67  1  0
 71 75  1  0
 72 71  1  0
 73 74  1  0
 73 72  1  0
 74 70  1  0
 75 76  2  0
 76 77  1  0
 78 77  2  0
 79 78  1  0
 80 54  1  0
 80 81  1  0
 80 90  1  0
 81 84  1  0
 82 86  1  0
 82 81  1  0
 83 82  2  0
 86 85  1  0
 88 86  1  0
 88 89  1  0
 88 87  1  0
 90 93  1  1
 90 91  1  0
 92 90  1  0
M  ISO  4   8 101  12 100  24 100  53 101
M  END
>  <TORSDO>  (47) 
F 16

>  <SCORE>  (47) 
-15.951

>  <name>  (47) 
46

>  <ligand_id>  (47) 
46

>  <original_smiles>  (47) 
[H]c1nc(N2C([H])([H])C([H])([H])C([H])(Oc3c([H])c([H])c4c(c3[H])C([H])([H])N(C(=O)C([H])(N([H])C(=O)C([H])(N([H])C([H])([H])[H])C([H])([H])[H])C(C([H])([H])[H])(C([H])([H])[H])C([H])([H])[H])C([H])(C(=O)N([H])C3([H])c5c([H])c([H])c([H])c([H])c5C([H])([H])C([H])([H])C3([H])[H])C4([H])[H])C2([H])[H])nc(C2([H])C([H])([H])N(C(=O)N3C([H])([H])C([H])([H])C([H])([H])C([H])(n4nc(-c5c([H])c([H])c(Oc6c([H])c([H])c(F)c([H])c6F)c([H])c5[H])c(C(=O)N([H])[H])c4N([H])[H])C3([H])[H])C([H])([H])C2([H])[H])c1[H]

>  <smiles>  (47) 
[H]c1nc(N2C([H])([H])C([H])([H])C([H])(Oc3c([H])c([H])c4c(c3[H])C([H])([H])N(C(=O)C([H])(N([H])C(=O)C([H])(N([H])C([H])([H])[H])C([H])([H])[H])C(C([H])([H])[H])(C([H])([H])[H])C([H])([H])[H])C([H])(C(=O)N([H])C3([H])c5c([H])c([H])c([H])c([H])c5C([H])([H])C([H])([H])C3([H])[H])C4([H])[H])C2([H])[H])nc(C2([H])C([H])([H])N(C(=O)N3C([H])([H])C([H])([H])C([H])([H])C([H])(n4nc(-c5c([H])c([H])c(Oc6c([H])c([H])c(F)c([H])c6F)c([H])c5[H])c(C(=O)N([H])[H])c4N([H])[H])C3([H])[H])C([H])([H])C2([H])[H])c1[H]

> <Step>
191.0

> <Scaffold>
O=C(NC1CCCc2ccccc21)C1Cc2ccc(OC3CCN(c4nccc(C5CCN(C(=O)N6CCCC(n7ccc(-c8ccc(Oc9ccccc9)cc8)n7)C6)C5)n4)C3)cc2CN1

> <SMILES>
CNC(C)C(=O)NC(C(=O)N1Cc2cc(OC3CCN(c4nccc(C5CCN(C(=O)N6CCCC(n7nc(-c8ccc(Oc9ccc(F)cc9F)cc8)c(C(N)=O)c7N)C6)C5)n4)C3)ccc2CC1C(=O)NC1CCCc2ccccc21)C(C)(C)C

> <Tanimoto ROCS sim>
0.26549163460731506

> <Custom alerts>
1.0

> <Linker Num Aromatic Rings>
1.0

> <Linker Effective Length>
1.0

> <ADV>
0.9981036186218262

> <PostDock Tanimoto ROCS sim>
0.9866122007369995

> <raw_Linker Num Aromatic Rings>
1.0

> <raw_Linker Effective Length>
8.0

> <raw_ADV>
-15.885000228881836

> <total_score>
0.9961789846420288

> <ID>
default_job_146

> <PostDock Tanimoto ROCS sim (re-score)>
0.98495686

> <raw_ADV (re-score)>
-15.951

$$$$
default_job_147
     RDKit          3D

 97106  0  0  1  0  0  0  0  0999 V2000
  -30.3950  -24.4240   20.7460 C   0  0  0  0  0  2  0  0  0  0  0  0
  -30.5740  -25.3540   21.9760 C   0  0  0  0  0  2  0  0  0  0  0  0
  -28.1180  -25.3890   22.4520 C   0  0  0  0  0  2  0  0  0  0  0  0
  -28.9430  -23.9390   20.5100 C   0  0  0  0  0  3  0  0  0  0  0  0
  -27.9990  -25.1410   20.9080 C   0  0  0  0  0  3  0  0  0  0  0  0
  -29.5000  -25.1990   22.9860 N   0  0  0  0  0  4  0  0  0  0  0  0
  -29.6590  -25.8530   23.7410 H   0  0  0  0  0  0  0  0  0  0  0  0
  -29.5900  -24.2890   23.4190 H   0  0  0  0  0  0  0  0  0  0  0  0
  -28.6540  -22.5290   21.1800 C   0  0  0  0  0  0  0  0  0  0  0  0
  -29.4380  -21.4590   20.8620 N   0  0  0  0  0  0  0  0  0  0  0  0
  -27.7060  -22.3980   21.9530 O   0  0  0  0  0  0  0  0  0  0  0  0
  -30.2170  -21.6620   20.2520 H   0  0  0  0  0  0  0  0  0  0  0  0
  -30.2720  -19.2840   21.9550 C   0  0  0  0  0  2  0  0  0  0  0  0
  -29.1440  -19.3160   19.7030 C   0  0  0  0  0  2  0  0  0  0  0  0
  -30.2090  -17.7190   21.9330 C   0  0  0  0  0  2  0  0  0  0  0  0
  -29.1090  -17.7630   19.6950 C   0  0  0  0  0  2  0  0  0  0  0  0
  -29.1890  -20.0000   21.0890 C   0  0  0  0  0  3  0  0  0  0  0  0
  -30.2300  -17.0830   20.5190 C   0  0  0  0  0  3  0  0  0  0  0  0
  -30.8190  -14.5980   20.0680 C   0  0  0  0  0  0  0  0  0  0  0  0
  -30.5590  -12.3990   18.9410 C   0  0  0  0  0  2  0  0  0  0  0  0
  -29.5530  -12.5650   17.7820 C   0  0  0  0  0  2  0  0  0  0  0  0
  -28.1050  -12.4040   18.2890 C   0  0  0  0  0  2  0  0  0  0  0  0
  -27.8170  -13.2350   19.5670 C   0  0  0  0  0  3  0  0  0  0  0  0
  -28.9290  -13.0300   20.6190 C   0  0  0  0  0  2  0  0  0  0  0  0
  -30.2120  -13.3820   19.9840 N   0  0  0  0  0  0  0  0  0  0  0  0
  -31.9300  -14.8140   19.5690 O   0  0  0  0  0  0  0  0  0  0  0  0
  -30.0440  -15.6040   20.5560 N   0  0  0  0  0  0  0  0  0  0  0  0
  -29.1420  -15.2950   20.8930 H   0  0  0  0  0  0  0  0  0  0  0  0
  -25.4860  -13.8220   20.4640 C   0  0  0  0  0  0  0  0  0  0  0  0
  -24.4390  -13.0380   20.8750 C   0  0  0  0  0  0  0  0  0  0  0  0
  -24.8850  -11.6880   20.7600 C   0  0  0  0  0  0  0  0  0  0  0  0
  -26.5020  -12.9440   20.1250 N   0  0  0  0  0  0  0  0  0  0  0  0
  -26.1520  -11.6520   20.3590 N   0  0  0  0  0  0  0  0  0  0  0  0
  -24.1630  -10.4210   20.9400 C   0  0  0  0  0  0  0  0  0  0  0  0
  -24.5890   -9.4680   21.8890 C   0  0  0  0  0  3  0  0  0  0  0  0
  -23.8700   -8.2660   22.0660 C   0  0  0  0  0  3  0  0  0  0  0  0
  -22.7130   -8.0080   21.2920 C   0  0  0  0  0  0  0  0  0  0  0  0
  -22.3110   -8.9510   20.3300 C   0  0  0  0  0  3  0  0  0  0  0  0
  -23.0300  -10.1450   20.1520 C   0  0  0  0  0  3  0  0  0  0  0  0
  -21.9670   -6.8600   21.3760 O   0  0  0  0  0  0  0  0  0  0  0  0
  -21.8110   -6.1820   22.5590 C   0  0  0  0  0  0  0  0  0  0  0  0
  -21.2400   -6.7920   23.6960 C   0  0  0  0  0  3  0  0  0  0  0  0
  -21.0360   -6.0390   24.8700 C   0  0  0  0  0  3  0  0  0  0  0  0
  -21.3890   -4.6770   24.9060 C   0  0  0  0  0  0  0  0  0  0  0  0
  -21.9520   -4.0660   23.7710 C   0  0  0  0  0  3  0  0  0  0  0  0
  -22.1580   -4.8150   22.5970 C   0  0  0  0  0  0  0  0  0  0  0  0
  -22.6790   -4.2150   21.4980 F   0  0  0  0  0  0  0  0  0  0  0  0
  -21.1850   -3.9510   26.0300 F   0  0  0  0  0  0  0  0  0  0  0  0
  -23.0670  -13.5080   21.2580 C   0  0  0  0  0  0  0  0  0  0  0  0
  -22.3960  -12.7850   22.1470 N   0  0  0  0  0  0  0  0  0  0  0  0
  -22.5950  -14.5460   20.8030 O   0  0  0  0  0  0  0  0  0  0  0  0
  -22.7920  -11.9490   22.5470 H   0  0  0  0  0  0  0  0  0  0  0  0
  -21.4700  -13.0730   22.4350 H   0  0  0  0  0  0  0  0  0  0  0  0
  -25.6470  -15.1990   20.3370 N   0  0  0  0  0  0  0  0  0  0  0  0
  -24.8920  -15.8510   20.5250 H   0  0  0  0  0  0  0  0  0  0  0  0
  -26.4690  -15.6500   19.9590 H   0  0  0  0  0  0  0  0  0  0  0  0
  -28.2760  -26.3960   20.1360 O   0  0  0  0  0  0  0  0  0  0  0  0
  -24.6270  -31.7660   23.0170 C   0  0  0  0  0  0  0  0  0  0  0  0
  -27.2120  -27.2800   19.9800 C   0  0  0  0  0  0  0  0  0  0  0  0
  -23.4110  -30.3840   21.3640 C   0  0  0  0  0  3  0  0  0  0  0  0
  -24.8620  -28.8790   19.8940 C   0  0  0  0  0  0  0  0  0  0  0  0
  -25.9340  -30.7520   21.1460 C   0  0  0  0  0  2  0  0  0  0  0  0
  -26.0240  -29.3800   20.4970 C   0  0  0  0  0  0  0  0  0  0  0  0
  -27.2110  -28.5980   20.5160 C   0  0  0  0  0  3  0  0  0  0  0  0
  -26.0510  -26.8350   19.3150 C   0  0  0  0  0  3  0  0  0  0  0  0
  -24.8840  -27.6180   19.2740 C   0  0  0  0  0  3  0  0  0  0  0  0
  -23.6130  -29.7340   19.9660 C   0  0  0  0  0  2  0  0  0  0  0  0
  -24.6770  -30.9820   21.9040 N   0  0  0  0  0  0  0  0  0  0  0  0
  -23.5430  -32.0420   23.5520 O   0  0  0  0  0  0  0  0  0  0  0  0
  -22.7670  -29.3480   22.3180 C   0  0  0  0  0  0  0  0  0  0  0  0
  -21.4380  -29.1730   22.2210 N   0  0  0  0  0  0  0  0  0  0  0  0
  -23.4640  -28.6930   23.0980 O   0  0  0  0  0  0  0  0  0  0  0  0
  -20.9300  -29.7540   21.5660 H   0  0  0  0  0  0  0  0  0  0  0  0
  -18.0670  -28.0030   22.8090 C   0  0  0  0  0  0  0  0  0  0  0  0
  -20.6370  -28.2200   22.9930 C   0  0  0  0  0  3  0  0  0  0  0  0
  -20.6970  -26.8070   22.3700 C   0  0  0  0  0  2  0  0  0  0  0  0
  -19.5560  -26.5340   21.3820 C   0  0  0  0  0  2  0  0  0  0  0  0
  -18.1990  -26.6760   22.0780 C   0  0  0  0  0  2  0  0  0  0  0  0
  -19.2120  -28.7320   23.2260 C   0  0  0  0  0  0  0  0  0  0  0  0
  -19.0320  -29.9750   23.8700 C   0  0  0  0  0  3  0  0  0  0  0  0
  -17.7410  -30.4920   24.0950 C   0  0  0  0  0  3  0  0  0  0  0  0
  -16.6110  -29.7600   23.6930 C   0  0  0  0  0  3  0  0  0  0  0  0
  -16.7740  -28.5170   23.0560 C   0  0  0  0  0  3  0  0  0  0  0  0
  -25.9140  -32.3860   23.6430 C   0  0  0  0  0  3  0  0  0  0  0  0
  -25.5930  -33.7680   24.0300 N   0  0  0  0  0  0  0  0  0  0  0  0
  -25.9060  -34.8510   23.3070 C   0  0  0  0  0  0  0  0  0  0  0  0
  -26.5650  -34.7910   22.2650 O   0  0  0  0  0  0  0  0  0  0  0  0
  -24.9970  -33.8830   24.8370 H   0  0  0  0  0  0  0  0  0  0  0  0
  -24.1610  -36.6420   23.0430 C   0  0  0  0  0  1  0  0  0  0  0  0
  -25.4100  -36.2140   23.8250 C   0  0  0  0  0  3  0  0  0  0  0  0
  -27.5420  -37.0890   24.6700 C   0  0  0  0  0  1  0  0  0  0  0  0
  -26.4300  -37.2790   23.7420 N   0  0  0  0  0  0  0  0  0  0  0  0
  -26.0210  -38.1890   23.9310 H   0  0  0  0  0  0  0  0  0  0  0  0
  -26.4640  -31.5740   24.8760 C   0  0  1  0  0  0  0  0  0  0  0  0
  -25.4010  -31.2950   25.9610 C   0  0  0  0  0  1  0  0  0  0  0  0
  -27.0380  -30.2120   24.4200 C   0  0  0  0  0  1  0  0  0  0  0  0
  -27.6320  -32.3470   25.5300 C   0  0  0  0  0  1  0  0  0  0  0  0
  1  2  1  0
  2  6  1  0
  3  6  1  0
  4  1  1  0
  4  5  1  0
  4  9  1  0
  5 57  1  0
  5  3  1  0
  6  8  1  0
  6  7  1  0
  9 11  2  0
 10  9  1  0
 12 10  1  0
 14 17  1  0
 15 13  1  0
 16 14  1  0
 16 18  1  0
 17 10  1  0
 17 13  1  0
 18 27  1  0
 18 15  1  0
 19 27  1  0
 20 25  1  0
 21 22  1  0
 21 20  1  0
 23 22  1  0
 23 32  1  0
 23 24  1  0
 25 19  1  0
 25 24  1  0
 26 19  2  0
 27 28  1  0
 29 30  2  0
 30 49  1  0
 31 30  1  0
 31 34  1  0
 32 33  1  0
 32 29  1  0
 33 31  2  0
 34 35  1  0
 35 36  2  0
 37 40  1  0
 37 36  1  0
 38 37  2  0
 39 38  1  0
 39 34  2  0
 40 41  1  0
 41 46  2  0
 41 42  1  0
 42 43  2  0
 43 44  1  0
 44 48  1  0
 45 44  2  0
 46 45  1  0
 47 46  1  0
 49 50  1  0
 50 53  1  0
 50 52  1  0
 51 49  2  0
 54 29  1  0
 54 55  1  0
 56 54  1  0
 58 69  2  0
 59 57  1  0
 59 64  1  0
 60 68  1  0
 60 70  1  0
 61 67  1  0
 61 63  1  0
 62 68  1  0
 63 64  2  0
 63 62  1  0
 65 59  2  0
 66 65  1  0
 66 61  2  0
 67 60  1  0
 68 58  1  0
 70 72  2  0
 71 70  1  0
 73 71  1  0
 74 83  2  0
 74 79  1  0
 75 71  1  0
 75 79  1  0
 76 75  1  0
 77 78  1  0
 77 76  1  0
 78 74  1  0
 79 80  2  0
 80 81  1  0
 82 81  2  0
 83 82  1  0
 84 58  1  0
 84 85  1  0
 84 94  1  0
 85 88  1  0
 86 90  1  0
 86 85  1  0
 87 86  2  0
 90 89  1  0
 92 90  1  0
 92 93  1  0
 92 91  1  0
 94 97  1  1
 94 95  1  0
 96 94  1  0
M  ISO  4   5 101  19 100  27 100  57 101
M  END
>  <TORSDO>  (48) 
F 18

>  <SCORE>  (48) 
-13.889

>  <name>  (48) 
47

>  <ligand_id>  (48) 
47

>  <original_smiles>  (48) 
[H]c1c([H])c([H])c2c(c1[H])C([H])([H])C([H])([H])C([H])([H])C2([H])N([H])C(=O)C1([H])N(C(=O)C([H])(N([H])C(=O)C([H])(N([H])C([H])([H])[H])C([H])([H])[H])C(C([H])([H])[H])(C([H])([H])[H])C([H])([H])[H])C([H])([H])c2c([H])c(OC3([H])C([H])(C(=O)N([H])C4([H])C([H])([H])C([H])([H])C([H])(N([H])C(=O)N5C([H])([H])C([H])([H])C([H])([H])C([H])(n6nc(-c7c([H])c([H])c(Oc8c([H])c([H])c(F)c([H])c8F)c([H])c7[H])c(C(=O)N([H])[H])c6N([H])[H])C5([H])[H])C([H])([H])C4([H])[H])C([H])([H])C([H])([H])[N+]([H])([H])C3([H])[H])c([H])c([H])c2C1([H])[H]

>  <smiles>  (48) 
[H]c1c([H])c([H])c2c(c1[H])C([H])([H])C([H])([H])C([H])([H])C2([H])N([H])C(=O)C1([H])N(C(=O)C([H])(N([H])C(=O)C([H])(N([H])C([H])([H])[H])C([H])([H])[H])C(C([H])([H])[H])(C([H])([H])[H])C([H])([H])[H])C([H])([H])c2c([H])c(OC3([H])C([H])(C(=O)N([H])C4([H])C([H])([H])C([H])([H])C([H])(N([H])C(=O)N5C([H])([H])C([H])([H])C([H])([H])C([H])(n6nc(-c7c([H])c([H])c(Oc8c([H])c([H])c(F)c([H])c8F)c([H])c7[H])c(C(=O)N([H])[H])c6N([H])[H])C5([H])[H])C([H])([H])C4([H])[H])C([H])([H])C([H])([H])[N+]([H])([H])C3([H])[H])c([H])c([H])c2C1([H])[H]

> <Step>
131.0

> <Scaffold>
O=C(NC1CCCc2ccccc21)C1Cc2ccc(OC3CNCCC3C(=O)NC3CCC(NC(=O)N4CCCC(n5ccc(-c6ccc(Oc7ccccc7)cc6)n5)C4)CC3)cc2CN1

> <SMILES>
CNC(C)C(=O)NC(C(=O)N1Cc2cc(OC3CNCCC3C(=O)NC3CCC(NC(=O)N4CCCC(n5nc(-c6ccc(Oc7ccc(F)cc7F)cc6)c(C(N)=O)c5N)C4)CC3)ccc2CC1C(=O)NC1CCCc2ccccc21)C(C)(C)C

> <Tanimoto ROCS sim>
0.3617419898509979

> <Custom alerts>
1.0

> <Linker Num Aromatic Rings>
1.0

> <Linker Effective Length>
1.0

> <ADV>
0.9882345199584961

> <PostDock Tanimoto ROCS sim>
0.9964802265167236

> <raw_Linker Num Aromatic Rings>
0.0

> <raw_Linker Effective Length>
8.0

> <raw_ADV>
-12.696999549865723

> <total_score>
0.9961786866188049

> <ID>
default_job_147

> <PostDock Tanimoto ROCS sim (re-score)>
0.9570753

> <raw_ADV (re-score)>
-13.889

$$$$
default_job_148
     RDKit          3D

 92101  0  0  1  0  0  0  0  0999 V2000
  -31.3760  -23.1730   19.8540 C   0  0  0  0  0  3  0  0  0  0  0  0
  -30.4500  -24.2350   19.9260 C   0  0  0  0  0  3  0  0  0  0  0  0
  -30.9520  -21.8550   20.1320 C   0  0  0  0  0  3  0  0  0  0  0  0
  -29.1180  -23.9510   20.2750 C   0  0  0  0  0  0  0  0  0  0  0  0
  -29.6130  -21.6240   20.4900 C   0  0  0  0  0  0  0  0  0  0  0  0
  -28.7280  -22.6630   20.5560 N   0  0  0  0  0  0  0  0  0  0  0  0
  -29.1100  -20.3340   20.8070 N   0  0  0  0  0  0  0  0  0  0  0  0
  -28.1600  -20.3170   21.1580 H   0  0  0  0  0  0  0  0  0  0  0  0
  -30.6720  -14.6670   20.3330 C   0  0  0  0  0  0  0  0  0  0  0  0
  -30.3280  -12.4310   19.2920 C   0  0  0  0  0  2  0  0  0  0  0  0
  -29.3830  -12.5180   18.0760 C   0  0  0  0  0  2  0  0  0  0  0  0
  -27.9320  -12.3070   18.5410 C   0  0  0  0  0  2  0  0  0  0  0  0
  -27.5650  -13.2240   19.7290 C   0  0  0  0  0  3  0  0  0  0  0  0
  -28.6380  -13.2040   20.8460 C   0  0  0  0  0  2  0  0  0  0  0  0
  -29.9370  -13.5090   20.2320 N   0  0  0  0  0  0  0  0  0  0  0  0
  -31.8620  -14.6500   20.0050 O   0  0  0  0  0  0  0  0  0  0  0  0
  -28.5880  -17.9830   20.1250 C   0  0  0  0  0  2  0  0  0  0  0  0
  -30.4400  -18.3290   21.6180 C   0  0  0  0  0  2  0  0  0  0  0  0
  -29.0130  -16.4930   19.8750 C   0  0  0  0  0  2  0  0  0  0  0  0
  -31.0110  -16.9120   21.2790 C   0  0  0  0  0  2  0  0  0  0  0  0
  -29.6930  -19.0060   20.4570 C   0  0  0  0  0  3  0  0  0  0  0  0
  -30.0970  -15.8840   20.6980 N   0  0  0  0  0  0  0  0  0  0  0  0
  -25.2010  -13.8420   20.5100 C   0  0  0  0  0  0  0  0  0  0  0  0
  -24.1360  -13.0730   20.8880 C   0  0  0  0  0  0  0  0  0  0  0  0
  -24.5940  -11.7200   20.8470 C   0  0  0  0  0  0  0  0  0  0  0  0
  -26.2320  -12.9540   20.2490 N   0  0  0  0  0  0  0  0  0  0  0  0
  -25.8780  -11.6750   20.5230 N   0  0  0  0  0  0  0  0  0  0  0  0
  -23.8700  -10.4580   21.0340 C   0  0  0  0  0  0  0  0  0  0  0  0
  -24.3030   -9.4930   21.9690 C   0  0  0  0  0  3  0  0  0  0  0  0
  -23.5820   -8.2930   22.1440 C   0  0  0  0  0  3  0  0  0  0  0  0
  -22.4140   -8.0510   21.3830 C   0  0  0  0  0  0  0  0  0  0  0  0
  -21.9990   -9.0060   20.4380 C   0  0  0  0  0  3  0  0  0  0  0  0
  -22.7220  -10.1970   20.2600 C   0  0  0  0  0  3  0  0  0  0  0  0
  -21.6640   -6.9040   21.4680 O   0  0  0  0  0  0  0  0  0  0  0  0
  -21.6000   -6.1710   22.6250 C   0  0  0  0  0  0  0  0  0  0  0  0
  -21.1500   -6.7340   23.8390 C   0  0  0  0  0  3  0  0  0  0  0  0
  -21.0320   -5.9280   24.9880 C   0  0  0  0  0  3  0  0  0  0  0  0
  -21.3570   -4.5590   24.9250 C   0  0  0  0  0  0  0  0  0  0  0  0
  -21.8000   -3.9960   23.7160 C   0  0  0  0  0  3  0  0  0  0  0  0
  -21.9190   -4.8000   22.5680 C   0  0  0  0  0  0  0  0  0  0  0  0
  -22.3270   -4.2490   21.4000 F   0  0  0  0  0  0  0  0  0  0  0  0
  -21.2380   -3.7800   26.0250 F   0  0  0  0  0  0  0  0  0  0  0  0
  -22.7420  -13.5540   21.1690 C   0  0  0  0  0  0  0  0  0  0  0  0
  -22.0140  -12.8580   22.0330 N   0  0  0  0  0  0  0  0  0  0  0  0
  -22.3070  -14.5850   20.6560 O   0  0  0  0  0  0  0  0  0  0  0  0
  -22.3760  -12.0270   22.4770 H   0  0  0  0  0  0  0  0  0  0  0  0
  -21.0770  -13.1640   22.2550 H   0  0  0  0  0  0  0  0  0  0  0  0
  -25.3680  -15.2140   20.3410 N   0  0  0  0  0  0  0  0  0  0  0  0
  -24.6180  -15.8760   20.5050 H   0  0  0  0  0  0  0  0  0  0  0  0
  -26.2200  -15.6530   20.0180 H   0  0  0  0  0  0  0  0  0  0  0  0
  -28.0030  -25.0370   20.2000 C   0  0  0  0  0  2  0  0  0  0  0  0
  -28.3140  -26.4810   20.2260 O   0  0  0  0  0  0  0  0  0  0  0  0
  -24.6030  -31.8840   23.2550 C   0  0  0  0  0  0  0  0  0  0  0  0
  -27.2000  -27.3380   20.1780 C   0  0  0  0  0  0  0  0  0  0  0  0
  -23.3930  -30.4830   21.6270 C   0  0  0  0  0  3  0  0  0  0  0  0
  -24.8350  -28.9430   20.1980 C   0  0  0  0  0  0  0  0  0  0  0  0
  -25.9340  -30.8030   21.4330 C   0  0  0  0  0  2  0  0  0  0  0  0
  -26.0110  -29.4280   20.7860 C   0  0  0  0  0  0  0  0  0  0  0  0
  -27.1990  -28.6400   20.7640 C   0  0  0  0  0  3  0  0  0  0  0  0
  -25.9980  -26.9160   19.5560 C   0  0  0  0  0  3  0  0  0  0  0  0
  -24.8300  -27.6940   19.5730 C   0  0  0  0  0  3  0  0  0  0  0  0
  -23.6010  -29.8140   20.2460 C   0  0  0  0  0  2  0  0  0  0  0  0
  -24.6650  -31.0700   22.1640 N   0  0  0  0  0  0  0  0  0  0  0  0
  -23.5150  -32.1880   23.7660 O   0  0  0  0  0  0  0  0  0  0  0  0
  -22.7330  -29.4620   22.5860 C   0  0  0  0  0  0  0  0  0  0  0  0
  -21.4080  -29.2790   22.4510 N   0  0  0  0  0  0  0  0  0  0  0  0
  -23.4100  -28.8370   23.4050 O   0  0  0  0  0  0  0  0  0  0  0  0
  -20.9240  -29.8400   21.7640 H   0  0  0  0  0  0  0  0  0  0  0  0
  -18.0310  -28.0690   22.9200 C   0  0  0  0  0  0  0  0  0  0  0  0
  -20.5850  -28.3400   23.2140 C   0  0  0  0  0  3  0  0  0  0  0  0
  -20.6990  -26.9060   22.6470 C   0  0  0  0  0  2  0  0  0  0  0  0
  -19.6090  -26.5730   21.6230 C   0  0  0  0  0  2  0  0  0  0  0  0
  -18.2190  -26.7160   22.2530 C   0  0  0  0  0  2  0  0  0  0  0  0
  -19.1410  -28.8380   23.3560 C   0  0  0  0  0  0  0  0  0  0  0  0
  -18.9100  -30.1050   23.9370 C   0  0  0  0  0  3  0  0  0  0  0  0
  -17.6010  -30.6010   24.0840 C   0  0  0  0  0  3  0  0  0  0  0  0
  -16.5050  -29.8290   23.6640 C   0  0  0  0  0  3  0  0  0  0  0  0
  -16.7200  -28.5640   23.0890 C   0  0  0  0  0  3  0  0  0  0  0  0
  -25.8870  -32.5020   23.8890 C   0  0  0  0  0  3  0  0  0  0  0  0
  -25.5840  -33.9010   24.2220 N   0  0  0  0  0  0  0  0  0  0  0  0
  -25.9010  -34.9520   23.4540 C   0  0  0  0  0  0  0  0  0  0  0  0
  -26.5540  -34.8450   22.4120 O   0  0  0  0  0  0  0  0  0  0  0  0
  -24.9960  -34.0580   25.0290 H   0  0  0  0  0  0  0  0  0  0  0  0
  -24.1540  -36.7370   23.1410 C   0  0  0  0  0  1  0  0  0  0  0  0
  -25.4220  -36.3420   23.9160 C   0  0  0  0  0  3  0  0  0  0  0  0
  -27.5790  -37.2400   24.6730 C   0  0  0  0  0  1  0  0  0  0  0  0
  -26.4460  -37.3980   23.7640 N   0  0  0  0  0  0  0  0  0  0  0  0
  -26.0400  -38.3160   23.9250 H   0  0  0  0  0  0  0  0  0  0  0  0
  -26.3970  -31.7220   25.1640 C   0  0  1  0  0  0  0  0  0  0  0  0
  -25.3020  -31.4850   26.2290 C   0  0  0  0  0  1  0  0  0  0  0  0
  -26.9700  -30.3440   24.7620 C   0  0  0  0  0  1  0  0  0  0  0  0
  -27.5510  -32.5090   25.8320 C   0  0  0  0  0  1  0  0  0  0  0  0
  1  2  2  0
  1  3  1  0
  2  4  1  0
  3  5  2  0
  4  6  2  0
  5  6  1  0
  5  7  1  0
  7  8  1  0
  9 22  1  0
 10 15  1  0
 11 12  1  0
 11 10  1  0
 13 12  1  0
 13 26  1  0
 13 14  1  0
 15  9  1  0
 15 14  1  0
 16  9  2  0
 17 21  1  0
 19 17  1  0
 19 22  1  0
 20 18  1  0
 21  7  1  0
 21 18  1  0
 22 20  1  0
 23 24  2  0
 24 43  1  0
 25 24  1  0
 25 28  1  0
 26 23  1  0
 26 27  1  0
 27 25  2  0
 28 29  1  0
 29 30  2  0
 31 34  1  0
 31 30  1  0
 32 31  2  0
 33 32  1  0
 33 28  2  0
 34 35  1  0
 35 36  1  0
 36 37  2  0
 38 37  1  0
 38 42  1  0
 39 38  2  0
 40 35  2  0
 40 39  1  0
 41 40  1  0
 43 44  1  0
 44 47  1  0
 44 46  1  0
 45 43  2  0
 48 49  1  0
 48 23  1  0
 50 48  1  0
 51 52  1  0
 51  4  1  0
 53 64  2  0
 54 52  1  0
 54 59  1  0
 55 63  1  0
 55 65  1  0
 56 62  1  0
 56 58  1  0
 57 63  1  0
 58 57  1  0
 59 58  2  0
 60 61  1  0
 60 54  2  0
 61 56  2  0
 62 55  1  0
 63 53  1  0
 65 67  2  0
 66 65  1  0
 68 66  1  0
 69 78  2  0
 69 74  1  0
 70 66  1  0
 70 74  1  0
 71 70  1  0
 72 73  1  0
 72 71  1  0
 73 69  1  0
 74 75  2  0
 75 76  1  0
 77 76  2  0
 78 77  1  0
 79 53  1  0
 79 80  1  0
 79 89  1  0
 80 83  1  0
 81 85  1  0
 81 80  1  0
 82 81  2  0
 85 84  1  0
 87 85  1  0
 87 88  1  0
 87 86  1  0
 89 92  1  1
 89 90  1  0
 91 89  1  0
M  ISO  4   9 100  22 100  51 101  52 101
M  END
>  <TORSDO>  (49) 
F 18

>  <SCORE>  (49) 
-14.911

>  <name>  (49) 
48

>  <ligand_id>  (49) 
48

>  <original_smiles>  (49) 
[H]c1c(N([H])C2([H])C([H])([H])C([H])([H])N(C(=O)N3C([H])([H])C([H])([H])C([H])([H])C([H])(n4nc(-c5c([H])c([H])c(Oc6c([H])c([H])c(F)c([H])c6F)c([H])c5[H])c(C(=O)N([H])[H])c4N([H])[H])C3([H])[H])C([H])([H])C2([H])[H])nc(C([H])([H])Oc2c([H])c([H])c3c(c2[H])C([H])([H])N(C(=O)C([H])(N([H])C(=O)C([H])(N([H])C([H])([H])[H])C([H])([H])[H])C(C([H])([H])[H])(C([H])([H])[H])C([H])([H])[H])C([H])(C(=O)N([H])C2([H])c4c([H])c([H])c([H])c([H])c4C([H])([H])C([H])([H])C2([H])[H])C3([H])[H])c([H])c1[H]

>  <smiles>  (49) 
[H]c1c(N([H])C2([H])C([H])([H])C([H])([H])N(C(=O)N3C([H])([H])C([H])([H])C([H])([H])C([H])(n4nc(-c5c([H])c([H])c(Oc6c([H])c([H])c(F)c([H])c6F)c([H])c5[H])c(C(=O)N([H])[H])c4N([H])[H])C3([H])[H])C([H])([H])C2([H])[H])nc(C([H])([H])Oc2c([H])c([H])c3c(c2[H])C([H])([H])N(C(=O)C([H])(N([H])C(=O)C([H])(N([H])C([H])([H])[H])C([H])([H])[H])C(C([H])([H])[H])(C([H])([H])[H])C([H])([H])[H])C([H])(C(=O)N([H])C2([H])c4c([H])c([H])c([H])c([H])c4C([H])([H])C([H])([H])C2([H])[H])C3([H])[H])c([H])c1[H]

> <Step>
169.0

> <Scaffold>
O=C(NC1CCCc2ccccc21)C1Cc2ccc(OCc3cccc(NC4CCN(C(=O)N5CCCC(n6ccc(-c7ccc(Oc8ccccc8)cc7)n6)C5)CC4)n3)cc2CN1

> <SMILES>
CNC(C)C(=O)NC(C(=O)N1Cc2cc(OCc3cccc(NC4CCN(C(=O)N5CCCC(n6nc(-c7ccc(Oc8ccc(F)cc8F)cc7)c(C(N)=O)c6N)C5)CC4)n3)ccc2CC1C(=O)NC1CCCc2ccccc21)C(C)(C)C

> <Tanimoto ROCS sim>
0.24388159811496735

> <Custom alerts>
1.0

> <Linker Num Aromatic Rings>
1.0

> <Linker Effective Length>
1.0

> <ADV>
0.9966710805892944

> <PostDock Tanimoto ROCS sim>
0.9880427122116089

> <raw_Linker Num Aromatic Rings>
1.0

> <raw_Linker Effective Length>
8.0

> <raw_ADV>
-14.904999732971191

> <total_score>
0.9961785078048706

> <ID>
default_job_148

> <PostDock Tanimoto ROCS sim (re-score)>
0.9802371

> <raw_ADV (re-score)>
-14.911

$$$$
default_job_149
     RDKit          3D

 92100  0  0  1  0  0  0  0  0999 V2000
  -28.8600  -22.8000   19.0860 C   0  0  0  0  0  3  0  0  0  0  0  0
  -28.7870  -23.7860   20.1060 C   0  0  0  0  0  0  0  0  0  0  0  0
  -29.3310  -21.4730   19.2990 C   0  0  0  0  0  0  0  0  0  0  0  0
  -29.2530  -23.3800   21.3890 C   0  0  0  0  0  0  0  0  0  0  0  0
  -29.7460  -22.0440   21.6100 C   0  0  0  0  0  0  0  0  0  0  0  0
  -29.7490  -21.0430   20.5870 C   0  0  0  0  0  0  0  0  0  0  0  0
  -29.4130  -20.5520   18.0970 C   0  0  0  0  0  1  0  0  0  0  0  0
  -29.2070  -24.3720   22.5440 C   0  0  0  0  0  1  0  0  0  0  0  0
  -30.2800  -21.6710   22.9890 C   0  0  0  0  0  1  0  0  0  0  0  0
  -27.9510  -25.0870   19.7980 C   0  0  0  0  0  2  0  0  0  0  0  0
  -28.2900  -26.4850   20.1790 O   0  0  0  0  0  0  0  0  0  0  0  0
  -24.6270  -31.9260   23.2780 C   0  0  0  0  0  0  0  0  0  0  0  0
  -27.2020  -27.3890   20.1300 C   0  0  0  0  0  0  0  0  0  0  0  0
  -23.4100  -30.5470   21.6390 C   0  0  0  0  0  3  0  0  0  0  0  0
  -24.8470  -29.0310   20.1740 C   0  0  0  0  0  0  0  0  0  0  0  0
  -25.9570  -30.8510   21.4540 C   0  0  0  0  0  2  0  0  0  0  0  0
  -26.0250  -29.4880   20.7780 C   0  0  0  0  0  0  0  0  0  0  0  0
  -27.2040  -28.6780   20.7550 C   0  0  0  0  0  3  0  0  0  0  0  0
  -25.9950  -27.0150   19.4820 C   0  0  0  0  0  3  0  0  0  0  0  0
  -24.8360  -27.7990   19.5180 C   0  0  0  0  0  3  0  0  0  0  0  0
  -23.6130  -29.9050   20.2450 C   0  0  0  0  0  2  0  0  0  0  0  0
  -24.6840  -31.1200   22.1810 N   0  0  0  0  0  0  0  0  0  0  0  0
  -23.5420  -32.2260   23.7970 O   0  0  0  0  0  0  0  0  0  0  0  0
  -22.7530  -29.5110   22.5840 C   0  0  0  0  0  0  0  0  0  0  0  0
  -21.4300  -29.3200   22.4490 N   0  0  0  0  0  0  0  0  0  0  0  0
  -23.4340  -28.8850   23.4010 O   0  0  0  0  0  0  0  0  0  0  0  0
  -20.9400  -29.8780   21.7630 H   0  0  0  0  0  0  0  0  0  0  0  0
  -18.0600  -28.0880   22.9280 C   0  0  0  0  0  0  0  0  0  0  0  0
  -20.6160  -28.3700   23.2090 C   0  0  0  0  0  3  0  0  0  0  0  0
  -20.7330  -26.9420   22.6270 C   0  0  0  0  0  2  0  0  0  0  0  0
  -19.6370  -26.6140   21.6060 C   0  0  0  0  0  2  0  0  0  0  0  0
  -18.2510  -26.7440   22.2440 C   0  0  0  0  0  2  0  0  0  0  0  0
  -19.1710  -28.8590   23.3660 C   0  0  0  0  0  0  0  0  0  0  0  0
  -18.9380  -30.1160   23.9640 C   0  0  0  0  0  3  0  0  0  0  0  0
  -17.6280  -30.6040   24.1290 C   0  0  0  0  0  3  0  0  0  0  0  0
  -16.5330  -29.8320   23.7050 C   0  0  0  0  0  3  0  0  0  0  0  0
  -16.7490  -28.5760   23.1110 C   0  0  0  0  0  3  0  0  0  0  0  0
  -25.9150  -32.5390   23.9080 C   0  0  0  0  0  3  0  0  0  0  0  0
  -26.4200  -31.7640   25.1860 C   0  0  1  0  0  0  0  0  0  0  0  0
  -25.3180  -31.5320   26.2460 C   0  0  0  0  0  1  0  0  0  0  0  0
  -27.0020  -30.3840   24.8010 C   0  0  0  0  0  1  0  0  0  0  0  0
  -27.5700  -32.5550   25.8540 C   0  0  0  0  0  1  0  0  0  0  0  0
  -25.6190  -33.9400   24.2390 N   0  0  0  0  0  0  0  0  0  0  0  0
  -25.9180  -34.9860   23.4590 C   0  0  0  0  0  0  0  0  0  0  0  0
  -26.5470  -34.8730   22.4030 O   0  0  0  0  0  0  0  0  0  0  0  0
  -25.0620  -34.1020   25.0650 H   0  0  0  0  0  0  0  0  0  0  0  0
  -24.1620  -36.7630   23.1720 C   0  0  0  0  0  1  0  0  0  0  0  0
  -25.4460  -36.3770   23.9240 C   0  0  0  0  0  3  0  0  0  0  0  0
  -27.6110  -37.2860   24.6400 C   0  0  0  0  0  1  0  0  0  0  0  0
  -26.4650  -37.4340   23.7450 N   0  0  0  0  0  0  0  0  0  0  0  0
  -26.0610  -38.3540   23.8980 H   0  0  0  0  0  0  0  0  0  0  0  0
  -30.3010  -19.7690   20.8500 O   0  0  0  0  0  0  0  0  0  0  0  0
  -29.5890  -18.5020   20.6410 C   0  0  0  0  0  2  0  0  0  0  0  0
  -30.4810  -17.2370   21.0220 C   0  0  0  0  0  2  0  0  0  0  0  0
  -30.6200  -14.7290   20.4860 C   0  0  0  0  0  0  0  0  0  0  0  0
  -30.3520  -12.5240   19.3730 C   0  0  0  0  0  2  0  0  0  0  0  0
  -29.4090  -12.6660   18.1600 C   0  0  0  0  0  2  0  0  0  0  0  0
  -27.9420  -12.4880   18.5940 C   0  0  0  0  0  2  0  0  0  0  0  0
  -27.5810  -13.3330   19.8450 C   0  0  0  0  0  3  0  0  0  0  0  0
  -28.6470  -13.1980   20.9560 C   0  0  0  0  0  2  0  0  0  0  0  0
  -29.9490  -13.5390   20.3690 N   0  0  0  0  0  0  0  0  0  0  0  0
  -31.7850  -14.8400   20.1030 O   0  0  0  0  0  0  0  0  0  0  0  0
  -29.9220  -15.8430   20.8680 N   0  0  0  0  0  0  0  0  0  0  0  0
  -28.9550  -15.7050   21.1230 H   0  0  0  0  0  0  0  0  0  0  0  0
  -25.1820  -13.8840   20.5710 C   0  0  0  0  0  0  0  0  0  0  0  0
  -24.1280  -13.0920   20.9340 C   0  0  0  0  0  0  0  0  0  0  0  0
  -24.6110  -11.7480   20.8970 C   0  0  0  0  0  0  0  0  0  0  0  0
  -26.2410  -13.0240   20.3330 N   0  0  0  0  0  0  0  0  0  0  0  0
  -25.9030  -11.7330   20.5900 N   0  0  0  0  0  0  0  0  0  0  0  0
  -23.9050  -10.4740   21.0800 C   0  0  0  0  0  0  0  0  0  0  0  0
  -24.3440   -9.5130   22.0170 C   0  0  0  0  0  3  0  0  0  0  0  0
  -23.6360   -8.3040   22.1880 C   0  0  0  0  0  3  0  0  0  0  0  0
  -22.4750   -8.0460   21.4230 C   0  0  0  0  0  0  0  0  0  0  0  0
  -22.0550   -8.9960   20.4740 C   0  0  0  0  0  3  0  0  0  0  0  0
  -22.7640  -10.1970   20.3020 C   0  0  0  0  0  3  0  0  0  0  0  0
  -21.7380   -6.8910   21.5030 O   0  0  0  0  0  0  0  0  0  0  0  0
  -21.6830   -6.1510   22.6570 C   0  0  0  0  0  0  0  0  0  0  0  0
  -21.1900   -6.6910   23.8650 C   0  0  0  0  0  3  0  0  0  0  0  0
  -21.0870   -5.8750   25.0100 C   0  0  0  0  0  3  0  0  0  0  0  0
  -21.4660   -4.5210   24.9480 C   0  0  0  0  0  0  0  0  0  0  0  0
  -21.9520   -3.9800   23.7430 C   0  0  0  0  0  3  0  0  0  0  0  0
  -22.0570   -4.7940   22.6010 C   0  0  0  0  0  0  0  0  0  0  0  0
  -22.5060   -4.2630   21.4380 F   0  0  0  0  0  0  0  0  0  0  0  0
  -21.3590   -3.7350   26.0440 F   0  0  0  0  0  0  0  0  0  0  0  0
  -22.7230  -13.5450   21.2080 C   0  0  0  0  0  0  0  0  0  0  0  0
  -22.0100  -12.8360   22.0770 N   0  0  0  0  0  0  0  0  0  0  0  0
  -22.2680  -14.5630   20.6880 O   0  0  0  0  0  0  0  0  0  0  0  0
  -22.3940  -12.0130   22.5160 H   0  0  0  0  0  0  0  0  0  0  0  0
  -21.0680  -13.1200   22.3050 H   0  0  0  0  0  0  0  0  0  0  0  0
  -25.3250  -15.2580   20.3980 N   0  0  0  0  0  0  0  0  0  0  0  0
  -24.5440  -15.8980   20.4970 H   0  0  0  0  0  0  0  0  0  0  0  0
  -26.1640  -15.7110   20.0570 H   0  0  0  0  0  0  0  0  0  0  0  0
  1  3  2  0
  1  2  1  0
  2  4  2  0
  3  6  1  0
  4  5  1  0
  4  8  1  0
  5  9  1  0
  6 52  1  0
  6  5  2  0
  7  3  1  0
 10  2  1  0
 10 11  1  0
 12 23  2  0
 13 11  1  0
 13 18  1  0
 14 22  1  0
 14 24  1  0
 15 21  1  0
 15 17  1  0
 16 22  1  0
 17 16  1  0
 18 17  2  0
 19 20  1  0
 19 13  2  0
 20 15  2  0
 21 14  1  0
 22 12  1  0
 24 26  2  0
 25 24  1  0
 27 25  1  0
 28 37  2  0
 28 33  1  0
 29 25  1  0
 29 33  1  0
 30 29  1  0
 31 32  1  0
 31 30  1  0
 32 28  1  0
 33 34  2  0
 34 35  1  0
 36 35  2  0
 37 36  1  0
 38 12  1  0
 38 43  1  0
 38 39  1  0
 39 42  1  1
 39 40  1  0
 41 39  1  0
 43 46  1  0
 44 48  1  0
 44 43  1  0
 45 44  2  0
 48 47  1  0
 50 51  1  0
 50 48  1  0
 50 49  1  0
 53 52  1  0
 53 54  1  0
 55 63  1  0
 56 61  1  0
 57 58  1  0
 57 56  1  0
 59 58  1  0
 59 68  1  0
 59 60  1  0
 61 55  1  0
 61 60  1  0
 62 55  2  0
 63 54  1  0
 63 64  1  0
 65 66  2  0
 66 85  1  0
 67 66  1  0
 67 70  1  0
 68 65  1  0
 68 69  1  0
 69 67  2  0
 70 71  1  0
 71 72  2  0
 73 76  1  0
 73 72  1  0
 74 73  2  0
 75 74  1  0
 75 70  2  0
 76 77  1  0
 77 78  1  0
 78 79  2  0
 80 79  1  0
 80 84  1  0
 81 80  2  0
 82 77  2  0
 82 81  1  0
 83 82  1  0
 85 86  1  0
 86 89  1  0
 86 88  1  0
 87 85  2  0
 90 91  1  0
 90 65  1  0
 92 90  1  0
M  ISO  4  10 101  11 101  55 100  63 100
M  END
>  <TORSDO>  (50) 
F 20

>  <SCORE>  (50) 
-14.161

>  <name>  (50) 
49

>  <ligand_id>  (50) 
49

>  <original_smiles>  (50) 
[H]c1c([H])c([H])c2c(c1[H])C([H])([H])C([H])([H])C([H])([H])C2([H])N([H])C(=O)C1([H])N(C(=O)C([H])(N([H])C(=O)C([H])(N([H])C([H])([H])[H])C([H])([H])[H])C(C([H])([H])[H])(C([H])([H])[H])C([H])([H])[H])C([H])([H])c2c([H])c(OC([H])([H])c3c([H])c(C([H])([H])[H])c(OC([H])([H])C([H])([H])N([H])C(=O)N4C([H])([H])C([H])([H])C([H])([H])C([H])(n5nc(-c6c([H])c([H])c(Oc7c([H])c([H])c(F)c([H])c7F)c([H])c6[H])c(C(=O)N([H])[H])c5N([H])[H])C4([H])[H])c(C([H])([H])[H])c3C([H])([H])[H])c([H])c([H])c2C1([H])[H]

>  <smiles>  (50) 
[H]c1c([H])c([H])c2c(c1[H])C([H])([H])C([H])([H])C([H])([H])C2([H])N([H])C(=O)C1([H])N(C(=O)C([H])(N([H])C(=O)C([H])(N([H])C([H])([H])[H])C([H])([H])[H])C(C([H])([H])[H])(C([H])([H])[H])C([H])([H])[H])C([H])([H])c2c([H])c(OC([H])([H])c3c([H])c(C([H])([H])[H])c(OC([H])([H])C([H])([H])N([H])C(=O)N4C([H])([H])C([H])([H])C([H])([H])C([H])(n5nc(-c6c([H])c([H])c(Oc7c([H])c([H])c(F)c([H])c7F)c([H])c6[H])c(C(=O)N([H])[H])c5N([H])[H])C4([H])[H])c(C([H])([H])[H])c3C([H])([H])[H])c([H])c([H])c2C1([H])[H]

> <Step>
160.0

> <Scaffold>
O=C(NC1CCCc2ccccc21)C1Cc2ccc(OCc3ccc(OCCNC(=O)N4CCCC(n5ccc(-c6ccc(Oc7ccccc7)cc6)n5)C4)cc3)cc2CN1

> <SMILES>
CNC(C)C(=O)NC(C(=O)N1Cc2cc(OCc3cc(C)c(OCCNC(=O)N4CCCC(n5nc(-c6ccc(Oc7ccc(F)cc7F)cc6)c(C(N)=O)c5N)C4)c(C)c3C)ccc2CC1C(=O)NC1CCCc2ccccc21)C(C)(C)C

> <Tanimoto ROCS sim>
0.3464941382408142

> <Custom alerts>
1.0

> <Linker Num Aromatic Rings>
1.0

> <Linker Effective Length>
1.0

> <ADV>
0.9945564866065979

> <PostDock Tanimoto ROCS sim>
0.9901548624038696

> <raw_Linker Num Aromatic Rings>
1.0

> <raw_Linker Effective Length>
8.0

> <raw_ADV>
-14.04699993133545

> <total_score>
0.9961777925491333

> <ID>
default_job_149

> <PostDock Tanimoto ROCS sim (re-score)>
0.9804686

> <raw_ADV (re-score)>
-14.161

$$$$
default_job_150
     RDKit          3D

 93102  0  0  1  0  0  0  0  0999 V2000
  -30.4760  -22.8590   22.1890 C   0  0  0  0  0  3  0  0  0  0  0  0
  -28.7550  -22.3750   20.5640 C   0  0  0  0  0  3  0  0  0  0  0  0
  -30.9050  -21.5130   22.1250 C   0  0  0  0  0  3  0  0  0  0  0  0
  -29.1820  -21.0220   20.5030 C   0  0  0  0  0  3  0  0  0  0  0  0
  -29.3850  -23.3250   21.4100 C   0  0  0  0  0  0  0  0  0  0  0  0
  -30.2610  -20.5680   21.3000 C   0  0  0  0  0  0  0  0  0  0  0  0
  -28.6660  -25.3330   23.6130 C   0  0  0  0  0  2  0  0  0  0  0  0
  -27.6860  -24.9140   22.5160 C   0  0  0  0  0  2  0  0  0  0  0  0
  -29.5950  -25.7700   22.4840 C   0  0  0  0  0  2  0  0  0  0  0  0
  -28.8590  -24.7950   21.5130 C   0  0  1  0  0  0  0  0  0  0  0  0
  -28.5840  -25.3680   20.0930 C   0  0  0  0  0  2  0  0  0  0  0  0
  -28.4810  -26.8070   20.0580 O   0  0  0  0  0  0  0  0  0  0  0  0
  -24.6180  -31.9080   23.1830 C   0  0  0  0  0  0  0  0  0  0  0  0
  -27.2630  -27.4630   20.0900 C   0  0  0  0  0  0  0  0  0  0  0  0
  -23.4040  -30.4950   21.5560 C   0  0  0  0  0  3  0  0  0  0  0  0
  -24.8520  -28.9550   20.1270 C   0  0  0  0  0  0  0  0  0  0  0  0
  -25.9270  -30.8610   21.3370 C   0  0  0  0  0  2  0  0  0  0  0  0
  -26.0100  -29.4860   20.7020 C   0  0  0  0  0  0  0  0  0  0  0  0
  -27.2150  -28.7480   20.6770 C   0  0  0  0  0  3  0  0  0  0  0  0
  -26.0810  -26.9410   19.5120 C   0  0  0  0  0  3  0  0  0  0  0  0
  -24.8820  -27.6810   19.5300 C   0  0  0  0  0  3  0  0  0  0  0  0
  -23.6040  -29.8090   20.1780 C   0  0  0  0  0  2  0  0  0  0  0  0
  -24.6690  -31.0990   22.0860 N   0  0  0  0  0  0  0  0  0  0  0  0
  -23.5370  -32.2020   23.7080 O   0  0  0  0  0  0  0  0  0  0  0  0
  -22.7630  -29.4730   22.5230 C   0  0  0  0  0  0  0  0  0  0  0  0
  -21.4370  -29.2920   22.4090 N   0  0  0  0  0  0  0  0  0  0  0  0
  -23.4550  -28.8450   23.3280 O   0  0  0  0  0  0  0  0  0  0  0  0
  -20.9400  -29.8530   21.7310 H   0  0  0  0  0  0  0  0  0  0  0  0
  -18.0660  -28.0970   22.9280 C   0  0  0  0  0  0  0  0  0  0  0  0
  -20.6280  -28.3520   23.1840 C   0  0  0  0  0  3  0  0  0  0  0  0
  -20.7250  -26.9230   22.6030 C   0  0  0  0  0  2  0  0  0  0  0  0
  -19.6150  -26.6060   21.5960 C   0  0  0  0  0  2  0  0  0  0  0  0
  -18.2380  -26.7480   22.2500 C   0  0  0  0  0  2  0  0  0  0  0  0
  -19.1900  -28.8550   23.3540 C   0  0  0  0  0  0  0  0  0  0  0  0
  -18.9760  -30.1180   23.9490 C   0  0  0  0  0  3  0  0  0  0  0  0
  -17.6740  -30.6200   24.1240 C   0  0  0  0  0  3  0  0  0  0  0  0
  -16.5650  -29.8580   23.7180 C   0  0  0  0  0  3  0  0  0  0  0  0
  -16.7630  -28.5980   23.1240 C   0  0  0  0  0  3  0  0  0  0  0  0
  -25.9100  -32.5280   23.8070 C   0  0  0  0  0  3  0  0  0  0  0  0
  -25.6020  -33.9210   24.1550 N   0  0  0  0  0  0  0  0  0  0  0  0
  -25.9260  -34.9810   23.4030 C   0  0  0  0  0  0  0  0  0  0  0  0
  -26.5870  -34.8880   22.3650 O   0  0  0  0  0  0  0  0  0  0  0  0
  -25.0060  -34.0660   24.9570 H   0  0  0  0  0  0  0  0  0  0  0  0
  -24.1840  -36.7660   23.0840 C   0  0  0  0  0  1  0  0  0  0  0  0
  -25.4370  -36.3630   23.8770 C   0  0  0  0  0  3  0  0  0  0  0  0
  -27.5780  -37.2460   24.6880 C   0  0  0  0  0  1  0  0  0  0  0  0
  -26.4630  -37.4220   23.7610 N   0  0  0  0  0  0  0  0  0  0  0  0
  -26.0560  -38.3380   23.9270 H   0  0  0  0  0  0  0  0  0  0  0  0
  -26.4420  -31.7430   25.0690 C   0  0  1  0  0  0  0  0  0  0  0  0
  -25.3610  -31.4910   26.1450 C   0  0  0  0  0  1  0  0  0  0  0  0
  -27.0240  -30.3730   24.6510 C   0  0  0  0  0  1  0  0  0  0  0  0
  -27.5990  -32.5320   25.7290 C   0  0  0  0  0  1  0  0  0  0  0  0
  -30.7520  -19.2700   21.3360 O   0  0  0  0  0  0  0  0  0  0  0  0
  -29.9960  -18.1510   20.8430 C   0  0  0  0  0  2  0  0  0  0  0  0
  -30.6450  -16.8690   21.4460 C   0  0  0  0  0  2  0  0  0  0  0  0
  -30.6580  -14.5340   20.5020 C   0  0  0  0  0  0  0  0  0  0  0  0
  -30.3260  -12.3800   19.3380 C   0  0  0  0  0  2  0  0  0  0  0  0
  -29.3790  -12.5790   18.1390 C   0  0  0  0  0  2  0  0  0  0  0  0
  -27.9090  -12.4370   18.5790 C   0  0  0  0  0  2  0  0  0  0  0  0
  -27.5780  -13.2730   19.8440 C   0  0  0  0  0  3  0  0  0  0  0  0
  -28.6410  -13.0700   20.9460 C   0  0  0  0  0  2  0  0  0  0  0  0
  -29.9590  -13.3730   20.3630 N   0  0  0  0  0  0  0  0  0  0  0  0
  -31.7820  -14.6880   20.0190 O   0  0  0  0  0  0  0  0  0  0  0  0
  -30.0260  -15.5660   21.1000 N   0  0  0  0  0  0  0  0  0  0  0  0
  -29.0900  -15.3930   21.4330 H   0  0  0  0  0  0  0  0  0  0  0  0
  -25.1830  -13.8690   20.5660 C   0  0  0  0  0  0  0  0  0  0  0  0
  -24.1180  -13.0940   20.9390 C   0  0  0  0  0  0  0  0  0  0  0  0
  -24.5820  -11.7420   20.9020 C   0  0  0  0  0  0  0  0  0  0  0  0
  -26.2290  -12.9910   20.3300 N   0  0  0  0  0  0  0  0  0  0  0  0
  -25.8710  -11.7070   20.5910 N   0  0  0  0  0  0  0  0  0  0  0  0
  -23.8590  -10.4790   21.0920 C   0  0  0  0  0  0  0  0  0  0  0  0
  -24.3080   -9.5010   22.0080 C   0  0  0  0  0  3  0  0  0  0  0  0
  -23.5860   -8.3020   22.1850 C   0  0  0  0  0  3  0  0  0  0  0  0
  -22.4000   -8.0710   21.4470 C   0  0  0  0  0  0  0  0  0  0  0  0
  -21.9710   -9.0370   20.5200 C   0  0  0  0  0  3  0  0  0  0  0  0
  -22.6940  -10.2280   20.3410 C   0  0  0  0  0  3  0  0  0  0  0  0
  -21.6460   -6.9250   21.5360 O   0  0  0  0  0  0  0  0  0  0  0  0
  -21.6300   -6.1610   22.6750 C   0  0  0  0  0  0  0  0  0  0  0  0
  -21.2520   -6.6960   23.9260 C   0  0  0  0  0  3  0  0  0  0  0  0
  -21.1820   -5.8580   25.0570 C   0  0  0  0  0  3  0  0  0  0  0  0
  -21.4780   -4.4880   24.9390 C   0  0  0  0  0  0  0  0  0  0  0  0
  -21.8490   -3.9520   23.6920 C   0  0  0  0  0  3  0  0  0  0  0  0
  -21.9220   -4.7860   22.5640 C   0  0  0  0  0  0  0  0  0  0  0  0
  -22.2590   -4.2620   21.3610 F   0  0  0  0  0  0  0  0  0  0  0  0
  -21.4030   -3.6810   26.0240 F   0  0  0  0  0  0  0  0  0  0  0  0
  -22.7200  -13.5670   21.2180 C   0  0  0  0  0  0  0  0  0  0  0  0
  -21.9970  -12.8670   22.0850 N   0  0  0  0  0  0  0  0  0  0  0  0
  -22.2780  -14.5930   20.7030 O   0  0  0  0  0  0  0  0  0  0  0  0
  -22.3690  -12.0380   22.5240 H   0  0  0  0  0  0  0  0  0  0  0  0
  -21.0600  -13.1630   22.3140 H   0  0  0  0  0  0  0  0  0  0  0  0
  -25.3440  -15.2400   20.3870 N   0  0  0  0  0  0  0  0  0  0  0  0
  -24.5740  -15.8930   20.4820 H   0  0  0  0  0  0  0  0  0  0  0  0
  -26.1940  -15.6760   20.0540 H   0  0  0  0  0  0  0  0  0  0  0  0
  2  5  1  0
  3  1  1  0
  4  2  2  0
  4  6  1  0
  5 10  1  0
  5  1  2  0
  6 53  1  0
  6  3  2  0
  8  7  1  0
  9  7  1  0
 10  9  1  0
 10  8  1  0
 10 11  1  6
 12 14  1  0
 12 11  1  0
 13 24  2  0
 14 19  1  0
 15 23  1  0
 15 25  1  0
 16 22  1  0
 16 18  1  0
 17 23  1  0
 18 17  1  0
 19 18  2  0
 20 21  1  0
 20 14  2  0
 21 16  2  0
 22 15  1  0
 23 13  1  0
 25 27  2  0
 26 25  1  0
 28 26  1  0
 29 38  2  0
 29 34  1  0
 30 26  1  0
 30 34  1  0
 31 30  1  0
 32 33  1  0
 32 31  1  0
 33 29  1  0
 34 35  2  0
 35 36  1  0
 37 36  2  0
 38 37  1  0
 39 13  1  0
 39 40  1  0
 39 49  1  0
 40 43  1  0
 41 45  1  0
 41 40  1  0
 42 41  2  0
 45 44  1  0
 47 45  1  0
 47 48  1  0
 47 46  1  0
 49 52  1  1
 49 50  1  0
 51 49  1  0
 54 53  1  0
 54 55  1  0
 56 64  1  0
 57 62  1  0
 58 59  1  0
 58 57  1  0
 60 59  1  0
 60 69  1  0
 60 61  1  0
 62 56  1  0
 62 61  1  0
 63 56  2  0
 64 65  1  0
 64 55  1  0
 66 67  2  0
 67 86  1  0
 68 67  1  0
 68 71  1  0
 69 66  1  0
 69 70  1  0
 70 68  2  0
 71 72  1  0
 72 73  2  0
 74 77  1  0
 74 73  1  0
 75 74  2  0
 76 75  1  0
 76 71  2  0
 77 78  1  0
 78 79  1  0
 79 80  2  0
 81 80  1  0
 81 85  1  0
 82 81  2  0
 83 78  2  0
 83 82  1  0
 84 83  1  0
 86 87  1  0
 87 90  1  0
 87 89  1  0
 88 86  2  0
 91 92  1  0
 91 66  1  0
 93 91  1  0
M  ISO  4  11 101  12 101  56 100  64 100
M  END
>  <TORSDO>  (51) 
F 21

>  <SCORE>  (51) 
-13.683

>  <name>  (51) 
50

>  <ligand_id>  (51) 
50

>  <original_smiles>  (51) 
[H]c1c([H])c([H])c2c(c1[H])C([H])([H])C([H])([H])C([H])([H])C2([H])N([H])C(=O)C1([H])N(C(=O)C([H])(N([H])C(=O)C([H])(N([H])C([H])([H])[H])C([H])([H])[H])C(C([H])([H])[H])(C([H])([H])[H])C([H])([H])[H])C([H])([H])c2c([H])c(OC([H])([H])C3(c4c([H])c([H])c(OC([H])([H])C([H])([H])N([H])C(=O)N5C([H])([H])C([H])([H])C([H])([H])C([H])(n6nc(-c7c([H])c([H])c(Oc8c([H])c([H])c(F)c([H])c8F)c([H])c7[H])c(C(=O)N([H])[H])c6N([H])[H])C5([H])[H])c([H])c4[H])C([H])([H])C([H])([H])C3([H])[H])c([H])c([H])c2C1([H])[H]

>  <smiles>  (51) 
[H]c1c([H])c([H])c2c(c1[H])C([H])([H])C([H])([H])C([H])([H])C2([H])N([H])C(=O)C1([H])N(C(=O)C([H])(N([H])C(=O)C([H])(N([H])C([H])([H])[H])C([H])([H])[H])C(C([H])([H])[H])(C([H])([H])[H])C([H])([H])[H])C([H])([H])c2c([H])c(OC([H])([H])C3(c4c([H])c([H])c(OC([H])([H])C([H])([H])N([H])C(=O)N5C([H])([H])C([H])([H])C([H])([H])C([H])(n6nc(-c7c([H])c([H])c(Oc8c([H])c([H])c(F)c([H])c8F)c([H])c7[H])c(C(=O)N([H])[H])c6N([H])[H])C5([H])[H])c([H])c4[H])C([H])([H])C([H])([H])C3([H])[H])c([H])c([H])c2C1([H])[H]

> <Step>
136.0

> <Scaffold>
O=C(NC1CCCc2ccccc21)C1Cc2ccc(OCC3(c4ccc(OCCNC(=O)N5CCCC(n6ccc(-c7ccc(Oc8ccccc8)cc7)n6)C5)cc4)CCC3)cc2CN1

> <SMILES>
CNC(C)C(=O)NC(C(=O)N1Cc2cc(OCC3(c4ccc(OCCNC(=O)N5CCCC(n6nc(-c7ccc(Oc8ccc(F)cc8F)cc7)c(C(N)=O)c6N)C5)cc4)CCC3)ccc2CC1C(=O)NC1CCCc2ccccc21)C(C)(C)C

> <Tanimoto ROCS sim>
0.11789613962173462

> <Custom alerts>
1.0

> <Linker Num Aromatic Rings>
1.0

> <Linker Effective Length>
1.0

> <ADV>
0.993406355381012

> <PostDock Tanimoto ROCS sim>
0.9913007616996765

> <raw_Linker Num Aromatic Rings>
1.0

> <raw_Linker Effective Length>
9.0

> <raw_ADV>
-13.711999893188477

> <total_score>
0.9961767792701721

> <ID>
default_job_150

> <PostDock Tanimoto ROCS sim (re-score)>
0.985582

> <raw_ADV (re-score)>
-13.683

$$$$
default_job_151
     RDKit          3D

 91 99  0  0  1  0  0  0  0  0999 V2000
  -29.9440  -23.4640   21.8460 C   0  0  0  0  0  3  0  0  0  0  0  0
  -30.3430  -22.1030   21.8510 C   0  0  0  0  0  3  0  0  0  0  0  0
  -28.4210  -22.9220   20.0990 C   0  0  0  0  0  3  0  0  0  0  0  0
  -28.9370  -23.9360   20.9680 C   0  0  0  0  0  0  0  0  0  0  0  0
  -29.7440  -21.1590   20.9900 C   0  0  0  0  0  0  0  0  0  0  0  0
  -28.8020  -21.5900   20.1090 N   0  0  0  0  0  0  0  0  0  0  0  0
  -30.2190  -19.8070   21.0480 N   0  0  0  0  0  0  0  0  0  0  0  0
  -30.9650  -19.7110   21.7310 H   0  0  0  0  0  0  0  0  0  0  0  0
  -26.9940  -25.2170   22.0070 C   0  0  0  0  0  1  0  0  0  0  0  0
  -28.3160  -25.3780   21.2260 C   0  0  0  0  0  3  0  0  0  0  0  0
  -28.3070  -26.4520   20.1920 O   0  0  0  0  0  0  0  0  0  0  0  0
  -24.5870  -31.8800   23.2380 C   0  0  0  0  0  0  0  0  0  0  0  0
  -27.2210  -27.3460   20.1720 C   0  0  0  0  0  0  0  0  0  0  0  0
  -23.3960  -30.4850   21.5910 C   0  0  0  0  0  3  0  0  0  0  0  0
  -24.8590  -28.9540   20.1500 C   0  0  0  0  0  0  0  0  0  0  0  0
  -25.9340  -30.8110   21.4200 C   0  0  0  0  0  2  0  0  0  0  0  0
  -26.0230  -29.4380   20.7670 C   0  0  0  0  0  0  0  0  0  0  0  0
  -27.2070  -28.6400   20.7760 C   0  0  0  0  0  3  0  0  0  0  0  0
  -26.0460  -26.9220   19.5150 C   0  0  0  0  0  3  0  0  0  0  0  0
  -24.8730  -27.7020   19.5150 C   0  0  0  0  0  3  0  0  0  0  0  0
  -23.6180  -29.8250   20.2030 C   0  0  0  0  0  2  0  0  0  0  0  0
  -24.6600  -31.0690   22.1440 N   0  0  0  0  0  0  0  0  0  0  0  0
  -23.4970  -32.1730   23.7470 O   0  0  0  0  0  0  0  0  0  0  0  0
  -22.7320  -29.4580   22.5390 C   0  0  0  0  0  0  0  0  0  0  0  0
  -21.4060  -29.2830   22.4070 N   0  0  0  0  0  0  0  0  0  0  0  0
  -23.4060  -28.8250   23.3550 O   0  0  0  0  0  0  0  0  0  0  0  0
  -20.9200  -29.8480   21.7250 H   0  0  0  0  0  0  0  0  0  0  0  0
  -18.0180  -28.0970   22.8870 C   0  0  0  0  0  0  0  0  0  0  0  0
  -20.5780  -28.3410   23.1650 C   0  0  0  0  0  3  0  0  0  0  0  0
  -20.6750  -26.9160   22.5710 C   0  0  0  0  0  2  0  0  0  0  0  0
  -19.5710  -26.6120   21.5540 C   0  0  0  0  0  2  0  0  0  0  0  0
  -18.1880  -26.7540   22.1970 C   0  0  0  0  0  2  0  0  0  0  0  0
  -19.1400  -28.8480   23.3270 C   0  0  0  0  0  0  0  0  0  0  0  0
  -18.9250  -30.1040   23.9340 C   0  0  0  0  0  3  0  0  0  0  0  0
  -17.6230  -30.6110   24.1040 C   0  0  0  0  0  3  0  0  0  0  0  0
  -16.5160  -29.8560   23.6800 C   0  0  0  0  0  3  0  0  0  0  0  0
  -16.7140  -28.6000   23.0780 C   0  0  0  0  0  3  0  0  0  0  0  0
  -25.8670  -32.5020   23.8820 C   0  0  0  0  0  3  0  0  0  0  0  0
  -26.3620  -31.7320   25.1660 C   0  0  1  0  0  0  0  0  0  0  0  0
  -25.2550  -31.4970   26.2190 C   0  0  0  0  0  1  0  0  0  0  0  0
  -26.9450  -30.3530   24.7820 C   0  0  0  0  0  1  0  0  0  0  0  0
  -27.5110  -32.5220   25.8420 C   0  0  0  0  0  1  0  0  0  0  0  0
  -25.5640  -33.9050   24.2060 N   0  0  0  0  0  0  0  0  0  0  0  0
  -25.9030  -34.9510   23.4410 C   0  0  0  0  0  0  0  0  0  0  0  0
  -26.5770  -34.8400   22.4140 O   0  0  0  0  0  0  0  0  0  0  0  0
  -24.9700  -34.0670   25.0050 H   0  0  0  0  0  0  0  0  0  0  0  0
  -24.1820  -36.7460   23.0680 C   0  0  0  0  0  1  0  0  0  0  0  0
  -25.4180  -36.3450   23.8890 C   0  0  0  0  0  3  0  0  0  0  0  0
  -27.5510  -37.2200   24.7310 C   0  0  0  0  0  1  0  0  0  0  0  0
  -26.4560  -37.3940   23.7780 N   0  0  0  0  0  0  0  0  0  0  0  0
  -26.0550  -38.3170   23.9250 H   0  0  0  0  0  0  0  0  0  0  0  0
  -29.5150  -18.5040   20.7990 C   0  0  0  0  0  2  0  0  0  0  0  0
  -30.4890  -17.2270   20.8360 C   0  0  0  0  0  2  0  0  0  0  0  0
  -30.6450  -14.6910   20.4540 C   0  0  0  0  0  0  0  0  0  0  0  0
  -30.3820  -12.4680   19.3600 C   0  0  0  0  0  2  0  0  0  0  0  0
  -29.4390  -12.5840   18.1440 C   0  0  0  0  0  2  0  0  0  0  0  0
  -27.9710  -12.4250   18.5790 C   0  0  0  0  0  2  0  0  0  0  0  0
  -27.6170  -13.2810   19.8240 C   0  0  0  0  0  3  0  0  0  0  0  0
  -28.6770  -13.1630   20.9420 C   0  0  0  0  0  2  0  0  0  0  0  0
  -29.9780  -13.4950   20.3480 N   0  0  0  0  0  0  0  0  0  0  0  0
  -31.8140  -14.7940   20.0750 O   0  0  0  0  0  0  0  0  0  0  0  0
  -29.9400  -15.8190   20.8000 N   0  0  0  0  0  0  0  0  0  0  0  0
  -28.9690  -15.6920   21.0560 H   0  0  0  0  0  0  0  0  0  0  0  0
  -25.2250  -13.8650   20.5480 C   0  0  0  0  0  0  0  0  0  0  0  0
  -24.1650  -13.0860   20.9160 C   0  0  0  0  0  0  0  0  0  0  0  0
  -24.6320  -11.7340   20.8770 C   0  0  0  0  0  0  0  0  0  0  0  0
  -26.2740  -12.9900   20.3150 N   0  0  0  0  0  0  0  0  0  0  0  0
  -25.9260  -11.7030   20.5780 N   0  0  0  0  0  0  0  0  0  0  0  0
  -23.9130  -10.4660   21.0600 C   0  0  0  0  0  0  0  0  0  0  0  0
  -24.3480   -9.4960   21.9900 C   0  0  0  0  0  3  0  0  0  0  0  0
  -23.6320   -8.2920   22.1670 C   0  0  0  0  0  3  0  0  0  0  0  0
  -22.4620   -8.0450   21.4060 C   0  0  0  0  0  0  0  0  0  0  0  0
  -22.0460   -9.0030   20.4630 C   0  0  0  0  0  3  0  0  0  0  0  0
  -22.7660  -10.1980   20.2880 C   0  0  0  0  0  3  0  0  0  0  0  0
  -21.7200   -6.8940   21.4870 O   0  0  0  0  0  0  0  0  0  0  0  0
  -21.6680   -6.1520   22.6390 C   0  0  0  0  0  0  0  0  0  0  0  0
  -21.2060   -6.6990   23.8570 C   0  0  0  0  0  3  0  0  0  0  0  0
  -21.0990   -5.8790   24.9980 C   0  0  0  0  0  3  0  0  0  0  0  0
  -21.4470   -4.5170   24.9240 C   0  0  0  0  0  0  0  0  0  0  0  0
  -21.8980   -3.9710   23.7090 C   0  0  0  0  0  3  0  0  0  0  0  0
  -22.0050   -4.7850   22.5680 C   0  0  0  0  0  0  0  0  0  0  0  0
  -22.4220   -4.2480   21.3960 F   0  0  0  0  0  0  0  0  0  0  0  0
  -21.3360   -3.7300   26.0190 F   0  0  0  0  0  0  0  0  0  0  0  0
  -22.7630  -13.5510   21.1860 C   0  0  0  0  0  0  0  0  0  0  0  0
  -22.0300  -12.8450   22.0430 N   0  0  0  0  0  0  0  0  0  0  0  0
  -22.3210  -14.5740   20.6650 O   0  0  0  0  0  0  0  0  0  0  0  0
  -22.3940  -12.0130   22.4810 H   0  0  0  0  0  0  0  0  0  0  0  0
  -21.0880  -13.1390   22.2590 H   0  0  0  0  0  0  0  0  0  0  0  0
  -25.3770  -15.2390   20.3660 N   0  0  0  0  0  0  0  0  0  0  0  0
  -24.5980  -15.8820   20.4690 H   0  0  0  0  0  0  0  0  0  0  0  0
  -26.2210  -15.6870   20.0280 H   0  0  0  0  0  0  0  0  0  0  0  0
  1  2  1  0
  3  6  2  0
  3  4  1  0
  4 10  1  0
  4  1  2  0
  5  7  1  0
  5  2  2  0
  6  5  1  0
  7  8  1  0
 10  9  1  0
 11 10  1  0
 12 23  2  0
 13 11  1  0
 13 18  1  0
 14 22  1  0
 14 24  1  0
 15 21  1  0
 15 17  1  0
 16 22  1  0
 17 18  2  0
 17 16  1  0
 19 13  2  0
 20 19  1  0
 20 15  2  0
 21 14  1  0
 22 12  1  0
 24 26  2  0
 25 24  1  0
 27 25  1  0
 28 37  2  0
 28 33  1  0
 29 25  1  0
 29 33  1  0
 30 29  1  0
 31 32  1  0
 31 30  1  0
 32 28  1  0
 33 34  2  0
 34 35  1  0
 36 35  2  0
 37 36  1  0
 38 12  1  0
 38 43  1  0
 38 39  1  0
 39 42  1  1
 39 40  1  0
 41 39  1  0
 43 46  1  0
 44 48  1  0
 44 43  1  0
 45 44  2  0
 48 47  1  0
 50 48  1  0
 50 51  1  0
 50 49  1  0
 52 53  1  0
 52  7  1  0
 54 62  1  0
 55 60  1  0
 56 57  1  0
 56 55  1  0
 58 57  1  0
 58 67  1  0
 58 59  1  0
 60 54  1  0
 60 59  1  0
 61 54  2  0
 62 53  1  0
 62 63  1  0
 64 65  2  0
 65 84  1  0
 66 65  1  0
 66 69  1  0
 67 64  1  0
 67 68  1  0
 68 66  2  0
 69 70  1  0
 70 71  2  0
 72 75  1  0
 72 71  1  0
 73 72  2  0
 74 73  1  0
 74 69  2  0
 75 76  1  0
 76 77  1  0
 77 78  2  0
 79 78  1  0
 79 83  1  0
 80 79  2  0
 81 76  2  0
 81 80  1  0
 82 81  1  0
 84 85  1  0
 85 88  1  0
 85 87  1  0
 86 84  2  0
 89 90  1  0
 89 64  1  0
 91 89  1  0
M  ISO  4  10 101  11 101  54 100  62 100
M  END
>  <TORSDO>  (52) 
F 19

>  <SCORE>  (52) 
-14.392

>  <name>  (52) 
51

>  <ligand_id>  (52) 
51

>  <original_smiles>  (52) 
[H]c1nc(N([H])C([H])([H])C([H])([H])N([H])C(=O)N2C([H])([H])C([H])([H])C([H])([H])C([H])(n3nc(-c4c([H])c([H])c(Oc5c([H])c([H])c(F)c([H])c5F)c([H])c4[H])c(C(=O)N([H])[H])c3N([H])[H])C2([H])[H])c([H])c([H])c1C([H])(Oc1c([H])c([H])c2c(c1[H])C([H])([H])N(C(=O)C([H])(N([H])C(=O)C([H])(N([H])C([H])([H])[H])C([H])([H])[H])C(C([H])([H])[H])(C([H])([H])[H])C([H])([H])[H])C([H])(C(=O)N([H])C1([H])c3c([H])c([H])c([H])c([H])c3C([H])([H])C([H])([H])C1([H])[H])C2([H])[H])C([H])([H])[H]

>  <smiles>  (52) 
[H]c1nc(N([H])C([H])([H])C([H])([H])N([H])C(=O)N2C([H])([H])C([H])([H])C([H])([H])C([H])(n3nc(-c4c([H])c([H])c(Oc5c([H])c([H])c(F)c([H])c5F)c([H])c4[H])c(C(=O)N([H])[H])c3N([H])[H])C2([H])[H])c([H])c([H])c1C([H])(Oc1c([H])c([H])c2c(c1[H])C([H])([H])N(C(=O)C([H])(N([H])C(=O)C([H])(N([H])C([H])([H])[H])C([H])([H])[H])C(C([H])([H])[H])(C([H])([H])[H])C([H])([H])[H])C([H])(C(=O)N([H])C1([H])c3c([H])c([H])c([H])c([H])c3C([H])([H])C([H])([H])C1([H])[H])C2([H])[H])C([H])([H])[H]

> <Step>
126.0

> <Scaffold>
O=C(NC1CCCc2ccccc21)C1Cc2ccc(OCc3ccc(NCCNC(=O)N4CCCC(n5ccc(-c6ccc(Oc7ccccc7)cc6)n5)C4)nc3)cc2CN1

> <SMILES>
CNC(C)C(=O)NC(C(=O)N1Cc2cc(OC(C)c3ccc(NCCNC(=O)N4CCCC(n5nc(-c6ccc(Oc7ccc(F)cc7F)cc6)c(C(N)=O)c5N)C4)nc3)ccc2CC1C(=O)NC1CCCc2ccccc21)C(C)(C)C

> <Tanimoto ROCS sim>
0.1909002959728241

> <Custom alerts>
1.0

> <Linker Num Aromatic Rings>
1.0

> <Linker Effective Length>
1.0

> <ADV>
0.9952772855758667

> <PostDock Tanimoto ROCS sim>
0.9894101619720459

> <raw_Linker Num Aromatic Rings>
1.0

> <raw_Linker Effective Length>
8.0

> <raw_ADV>
-14.295000076293945

> <total_score>
0.9961718916893005

> <ID>
default_job_151

> <PostDock Tanimoto ROCS sim (re-score)>
0.9833529

> <raw_ADV (re-score)>
-14.392

$$$$
default_job_152
     RDKit          3D

 90 98  0  0  1  0  0  0  0  0999 V2000
  -31.1020  -21.3730   21.4660 C   0  0  0  0  0  3  0  0  0  0  0  0
  -29.8310  -21.8120   21.1650 C   0  0  0  0  0  0  0  0  0  0  0  0
  -30.2970  -19.4310   20.5350 C   0  0  0  0  0  0  0  0  0  0  0  0
  -31.3550  -20.0400   21.0930 N   0  0  0  0  0  0  0  0  0  0  0  0
  -28.9470  -20.5570   20.3180 S   0  0  0  0  0  0  0  0  0  0  0  0
  -31.0840  -17.7480   18.8160 C   0  0  0  0  0  1  0  0  0  0  0  0
  -30.2480  -17.9740   20.0890 C   0  0  0  0  0  3  0  0  0  0  0  0
  -30.5600  -16.9370   21.2160 C   0  0  0  0  0  2  0  0  0  0  0  0
  -30.6990  -14.5040   20.5000 C   0  0  0  0  0  0  0  0  0  0  0  0
  -30.3630  -12.3350   19.3760 C   0  0  0  0  0  2  0  0  0  0  0  0
  -29.4440  -12.5430   18.1560 C   0  0  0  0  0  2  0  0  0  0  0  0
  -27.9640  -12.3980   18.5700 C   0  0  0  0  0  2  0  0  0  0  0  0
  -27.6050  -13.2570   19.8160 C   0  0  0  0  0  3  0  0  0  0  0  0
  -28.6520  -13.0710   20.9370 C   0  0  0  0  0  2  0  0  0  0  0  0
  -29.9890  -13.3480   20.3780 N   0  0  0  0  0  0  0  0  0  0  0  0
  -31.8420  -14.6420   20.0590 O   0  0  0  0  0  0  0  0  0  0  0  0
  -30.0380  -15.5640   21.0050 N   0  0  0  0  0  0  0  0  0  0  0  0
  -29.0960  -15.3860   21.3140 H   0  0  0  0  0  0  0  0  0  0  0  0
  -25.2030  -13.8700   20.5180 C   0  0  0  0  0  0  0  0  0  0  0  0
  -24.1280  -13.1040   20.8800 C   0  0  0  0  0  0  0  0  0  0  0  0
  -24.5870  -11.7500   20.8580 C   0  0  0  0  0  0  0  0  0  0  0  0
  -26.2480  -12.9870   20.2910 N   0  0  0  0  0  0  0  0  0  0  0  0
  -25.8780  -11.7070   20.5560 N   0  0  0  0  0  0  0  0  0  0  0  0
  -23.8560  -10.4900   21.0490 C   0  0  0  0  0  0  0  0  0  0  0  0
  -24.2810   -9.5210   21.9830 C   0  0  0  0  0  3  0  0  0  0  0  0
  -23.5500   -8.3260   22.1620 C   0  0  0  0  0  3  0  0  0  0  0  0
  -22.3780   -8.0930   21.4040 C   0  0  0  0  0  0  0  0  0  0  0  0
  -21.9710   -9.0500   20.4610 C   0  0  0  0  0  3  0  0  0  0  0  0
  -22.7050  -10.2360   20.2800 C   0  0  0  0  0  3  0  0  0  0  0  0
  -21.6210   -6.9490   21.4850 O   0  0  0  0  0  0  0  0  0  0  0  0
  -21.5720   -6.2010   22.6320 C   0  0  0  0  0  0  0  0  0  0  0  0
  -21.1650   -6.7520   23.8680 C   0  0  0  0  0  3  0  0  0  0  0  0
  -21.0660   -5.9300   25.0070 C   0  0  0  0  0  3  0  0  0  0  0  0
  -21.3610   -4.5560   24.9140 C   0  0  0  0  0  0  0  0  0  0  0  0
  -21.7650   -4.0050   23.6840 C   0  0  0  0  0  3  0  0  0  0  0  0
  -21.8680   -4.8260   22.5480 C   0  0  0  0  0  0  0  0  0  0  0  0
  -22.2340   -4.2850   21.3600 F   0  0  0  0  0  0  0  0  0  0  0  0
  -21.2590   -3.7640   26.0070 F   0  0  0  0  0  0  0  0  0  0  0  0
  -22.7290  -13.5890   21.1330 C   0  0  0  0  0  0  0  0  0  0  0  0
  -21.9820  -12.9020   21.9920 N   0  0  0  0  0  0  0  0  0  0  0  0
  -22.3030  -14.6120   20.6020 O   0  0  0  0  0  0  0  0  0  0  0  0
  -22.3390  -12.0810   22.4570 H   0  0  0  0  0  0  0  0  0  0  0  0
  -21.0420  -13.2140   22.1920 H   0  0  0  0  0  0  0  0  0  0  0  0
  -25.3670  -15.2430   20.3450 N   0  0  0  0  0  0  0  0  0  0  0  0
  -24.5910  -15.8850   20.4610 H   0  0  0  0  0  0  0  0  0  0  0  0
  -26.2150  -15.6990   20.0300 H   0  0  0  0  0  0  0  0  0  0  0  0
  -29.1500  -23.1120   21.5620 C   0  0  0  0  0  2  0  0  0  0  0  0
  -29.2650  -24.3370   20.6110 C   0  0  0  0  0  2  0  0  0  0  0  0
  -28.2640  -25.4620   20.9940 C   0  0  0  0  0  2  0  0  0  0  0  0
  -28.3930  -26.6820   20.2350 O   0  0  0  0  0  0  0  0  0  0  0  0
  -24.5890  -31.9090   23.2570 C   0  0  0  0  0  0  0  0  0  0  0  0
  -27.2450  -27.4490   20.2080 C   0  0  0  0  0  0  0  0  0  0  0  0
  -23.3880  -30.4980   21.6170 C   0  0  0  0  0  3  0  0  0  0  0  0
  -24.8500  -28.9580   20.1930 C   0  0  0  0  0  0  0  0  0  0  0  0
  -25.9130  -30.8560   21.4280 C   0  0  0  0  0  2  0  0  0  0  0  0
  -26.0020  -29.4820   20.7920 C   0  0  0  0  0  0  0  0  0  0  0  0
  -27.2070  -28.7330   20.7960 C   0  0  0  0  0  3  0  0  0  0  0  0
  -26.0790  -26.9490   19.5860 C   0  0  0  0  0  3  0  0  0  0  0  0
  -24.8850  -27.6900   19.5840 C   0  0  0  0  0  3  0  0  0  0  0  0
  -23.6040  -29.8140   20.2370 C   0  0  0  0  0  2  0  0  0  0  0  0
  -24.6470  -31.1020   22.1600 N   0  0  0  0  0  0  0  0  0  0  0  0
  -23.5030  -32.1990   23.7800 O   0  0  0  0  0  0  0  0  0  0  0  0
  -22.7390  -29.4760   22.5800 C   0  0  0  0  0  0  0  0  0  0  0  0
  -21.4140  -29.2960   22.4560 N   0  0  0  0  0  0  0  0  0  0  0  0
  -23.4240  -28.8500   23.3950 O   0  0  0  0  0  0  0  0  0  0  0  0
  -20.9190  -29.8560   21.7760 H   0  0  0  0  0  0  0  0  0  0  0  0
  -18.0420  -28.0990   22.9620 C   0  0  0  0  0  0  0  0  0  0  0  0
  -20.5990  -28.3580   23.2280 C   0  0  0  0  0  3  0  0  0  0  0  0
  -20.6990  -26.9260   22.6530 C   0  0  0  0  0  2  0  0  0  0  0  0
  -19.5960  -26.6020   21.6390 C   0  0  0  0  0  2  0  0  0  0  0  0
  -18.2160  -26.7490   22.2840 C   0  0  0  0  0  2  0  0  0  0  0  0
  -19.1610  -28.8610   23.3900 C   0  0  0  0  0  0  0  0  0  0  0  0
  -18.9450  -30.1250   23.9770 C   0  0  0  0  0  3  0  0  0  0  0  0
  -17.6410  -30.6280   24.1470 C   0  0  0  0  0  3  0  0  0  0  0  0
  -16.5350  -29.8650   23.7320 C   0  0  0  0  0  3  0  0  0  0  0  0
  -16.7370  -28.6030   23.1450 C   0  0  0  0  0  3  0  0  0  0  0  0
  -25.8770  -32.5370   23.8770 C   0  0  0  0  0  3  0  0  0  0  0  0
  -25.5760  -33.9360   24.2040 N   0  0  0  0  0  0  0  0  0  0  0  0
  -25.9090  -34.9850   23.4370 C   0  0  0  0  0  0  0  0  0  0  0  0
  -26.5770  -34.8730   22.4040 O   0  0  0  0  0  0  0  0  0  0  0  0
  -24.9920  -34.0920   25.0110 H   0  0  0  0  0  0  0  0  0  0  0  0
  -24.1870  -36.7750   23.0550 C   0  0  0  0  0  1  0  0  0  0  0  0
  -25.4210  -36.3760   23.8830 C   0  0  0  0  0  3  0  0  0  0  0  0
  -27.5570  -37.2540   24.7220 C   0  0  0  0  0  1  0  0  0  0  0  0
  -26.4560  -37.4280   23.7760 N   0  0  0  0  0  0  0  0  0  0  0  0
  -26.0500  -38.3470   23.9180 H   0  0  0  0  0  0  0  0  0  0  0  0
  -26.3920  -31.7670   25.1540 C   0  0  1  0  0  0  0  0  0  0  0  0
  -25.3030  -31.5330   26.2260 C   0  0  0  0  0  1  0  0  0  0  0  0
  -26.9720  -30.3850   24.7600 C   0  0  0  0  0  1  0  0  0  0  0  0
  -27.5420  -32.5620   25.8160 C   0  0  0  0  0  1  0  0  0  0  0  0
  2  1  2  0
  2 47  1  0
  3  4  2  0
  4  1  1  0
  5  3  1  0
  5  2  1  0
  7  6  1  0
  7  3  1  0
  7  8  1  0
  9 17  1  0
 10 15  1  0
 11 12  1  0
 11 10  1  0
 13 12  1  0
 13 22  1  0
 13 14  1  0
 15  9  1  0
 15 14  1  0
 16  9  2  0
 17  8  1  0
 17 18  1  0
 19 20  2  0
 20 39  1  0
 21 20  1  0
 21 24  1  0
 22 19  1  0
 22 23  1  0
 23 21  2  0
 24 25  1  0
 25 26  2  0
 27 30  1  0
 27 26  1  0
 28 27  2  0
 29 28  1  0
 29 24  2  0
 30 31  1  0
 31 32  1  0
 32 33  2  0
 34 33  1  0
 34 38  1  0
 35 34  2  0
 36 31  2  0
 36 35  1  0
 37 36  1  0
 39 40  1  0
 40 43  1  0
 40 42  1  0
 41 39  2  0
 44 45  1  0
 44 19  1  0
 46 44  1  0
 48 49  1  0
 48 47  1  0
 50 49  1  0
 51 62  2  0
 52 50  1  0
 52 57  1  0
 53 61  1  0
 53 63  1  0
 54 60  1  0
 54 56  1  0
 55 61  1  0
 56 57  2  0
 56 55  1  0
 58 52  2  0
 59 58  1  0
 59 54  2  0
 60 53  1  0
 61 51  1  0
 63 65  2  0
 64 63  1  0
 66 64  1  0
 67 76  2  0
 67 72  1  0
 68 64  1  0
 68 72  1  0
 69 68  1  0
 70 71  1  0
 70 69  1  0
 71 67  1  0
 72 73  2  0
 73 74  1  0
 75 74  2  0
 76 75  1  0
 77 51  1  0
 77 78  1  0
 77 87  1  0
 78 81  1  0
 79 83  1  0
 79 78  1  0
 80 79  2  0
 83 82  1  0
 85 83  1  0
 85 86  1  0
 85 84  1  0
 87 90  1  1
 87 88  1  0
 89 87  1  0
M  ISO  4   9 100  17 100  49 101  50 101
M  END
>  <TORSDO>  (53) 
F 21

>  <SCORE>  (53) 
-13.62

>  <name>  (53) 
52

>  <ligand_id>  (53) 
52

>  <original_smiles>  (53) 
[H]c1nc(C([H])(C([H])([H])[H])C([H])([H])N([H])C(=O)N2C([H])([H])C([H])([H])C([H])([H])C([H])(n3nc(-c4c([H])c([H])c(Oc5c([H])c([H])c(F)c([H])c5F)c([H])c4[H])c(C(=O)N([H])[H])c3N([H])[H])C2([H])[H])sc1C([H])([H])C([H])([H])C([H])([H])Oc1c([H])c([H])c2c(c1[H])C([H])([H])N(C(=O)C([H])(N([H])C(=O)C([H])(N([H])C([H])([H])[H])C([H])([H])[H])C(C([H])([H])[H])(C([H])([H])[H])C([H])([H])[H])C([H])(C(=O)N([H])C1([H])c3c([H])c([H])c([H])c([H])c3C([H])([H])C([H])([H])C1([H])[H])C2([H])[H]

>  <smiles>  (53) 
[H]c1nc(C([H])(C([H])([H])[H])C([H])([H])N([H])C(=O)N2C([H])([H])C([H])([H])C([H])([H])C([H])(n3nc(-c4c([H])c([H])c(Oc5c([H])c([H])c(F)c([H])c5F)c([H])c4[H])c(C(=O)N([H])[H])c3N([H])[H])C2([H])[H])sc1C([H])([H])C([H])([H])C([H])([H])Oc1c([H])c([H])c2c(c1[H])C([H])([H])N(C(=O)C([H])(N([H])C(=O)C([H])(N([H])C([H])([H])[H])C([H])([H])[H])C(C([H])([H])[H])(C([H])([H])[H])C([H])([H])[H])C([H])(C(=O)N([H])C1([H])c3c([H])c([H])c([H])c([H])c3C([H])([H])C([H])([H])C1([H])[H])C2([H])[H]

> <Step>
84.0

> <Scaffold>
O=C(NC1CCCc2ccccc21)C1Cc2ccc(OCCCc3cnc(CCNC(=O)N4CCCC(n5ccc(-c6ccc(Oc7ccccc7)cc6)n5)C4)s3)cc2CN1

> <SMILES>
CNC(C)C(=O)NC(C(=O)N1Cc2cc(OCCCc3cnc(C(C)CNC(=O)N4CCCC(n5nc(-c6ccc(Oc7ccc(F)cc7F)cc6)c(C(N)=O)c5N)C4)s3)ccc2CC1C(=O)NC1CCCc2ccccc21)C(C)(C)C

> <Tanimoto ROCS sim>
0.27364423871040344

> <Custom alerts>
1.0

> <Linker Num Aromatic Rings>
1.0

> <Linker Effective Length>
1.0

> <ADV>
0.9930779933929443

> <PostDock Tanimoto ROCS sim>
0.9916061758995056

> <raw_Linker Num Aromatic Rings>
1.0

> <raw_Linker Effective Length>
8.0

> <raw_ADV>
-13.626999855041504

> <total_score>
0.9961710572242737

> <ID>
default_job_152

> <PostDock Tanimoto ROCS sim (re-score)>
0.9828913

> <raw_ADV (re-score)>
-13.62

$$$$
default_job_153
     RDKit          3D

 93101  0  0  1  0  0  0  0  0999 V2000
  -28.1830  -20.9620   20.5650 C   0  0  0  0  0  3  0  0  0  0  0  0
  -29.0550  -21.9170   20.0110 C   0  0  0  0  0  0  0  0  0  0  0  0
  -30.2660  -21.3990   19.5110 C   0  0  0  0  0  0  0  0  0  0  0  0
  -29.5950  -19.2390   19.9970 C   0  0  0  0  0  0  0  0  0  0  0  0
  -31.3480  -22.2870   18.9310 C   0  0  0  0  0  1  0  0  0  0  0  0
  -28.4600  -19.6440   20.5680 N   0  0  0  0  0  0  0  0  0  0  0  0
  -30.5170  -20.0730   19.5030 N   0  0  0  0  0  0  0  0  0  0  0  0
  -28.5940  -17.1330   18.9930 C   0  0  0  0  0  1  0  0  0  0  0  0
  -29.7850  -17.7050   19.7870 C   0  0  1  0  0  0  0  0  0  0  0  0
  -30.8320  -17.5060   18.9800 F   0  0  0  0  0  0  0  0  0  0  0  0
  -30.1160  -16.9170   21.0980 C   0  0  0  0  0  2  0  0  0  0  0  0
  -30.6330  -14.4860   20.4960 C   0  0  0  0  0  0  0  0  0  0  0  0
  -30.3650  -12.3420   19.2990 C   0  0  0  0  0  2  0  0  0  0  0  0
  -29.4140  -12.5610   18.1040 C   0  0  0  0  0  2  0  0  0  0  0  0
  -27.9390  -12.4200   18.5350 C   0  0  0  0  0  2  0  0  0  0  0  0
  -27.6090  -13.2340   19.8160 C   0  0  0  0  0  3  0  0  0  0  0  0
  -28.6620  -12.9730   20.9150 C   0  0  0  0  0  2  0  0  0  0  0  0
  -29.9860  -13.2960   20.3530 N   0  0  0  0  0  0  0  0  0  0  0  0
  -31.7510  -14.7080   20.0290 O   0  0  0  0  0  0  0  0  0  0  0  0
  -29.8820  -15.4560   21.0480 N   0  0  0  0  0  0  0  0  0  0  0  0
  -28.9890  -15.1470   21.4010 H   0  0  0  0  0  0  0  0  0  0  0  0
  -25.2110  -13.8590   20.5110 C   0  0  0  0  0  0  0  0  0  0  0  0
  -24.1370  -13.0950   20.8820 C   0  0  0  0  0  0  0  0  0  0  0  0
  -24.5930  -11.7410   20.8580 C   0  0  0  0  0  0  0  0  0  0  0  0
  -26.2520  -12.9710   20.2880 N   0  0  0  0  0  0  0  0  0  0  0  0
  -25.8830  -11.6930   20.5530 N   0  0  0  0  0  0  0  0  0  0  0  0
  -23.8620  -10.4830   21.0520 C   0  0  0  0  0  0  0  0  0  0  0  0
  -24.3000   -9.5120   21.9780 C   0  0  0  0  0  3  0  0  0  0  0  0
  -23.5740   -8.3160   22.1610 C   0  0  0  0  0  3  0  0  0  0  0  0
  -22.3920   -8.0850   21.4170 C   0  0  0  0  0  0  0  0  0  0  0  0
  -21.9720   -9.0450   20.4770 C   0  0  0  0  0  3  0  0  0  0  0  0
  -22.7010  -10.2310   20.2940 C   0  0  0  0  0  3  0  0  0  0  0  0
  -21.6350   -6.9420   21.5100 O   0  0  0  0  0  0  0  0  0  0  0  0
  -21.6050   -6.1870   22.6540 C   0  0  0  0  0  0  0  0  0  0  0  0
  -21.2190   -6.7330   23.8990 C   0  0  0  0  0  3  0  0  0  0  0  0
  -21.1360   -5.9030   25.0340 C   0  0  0  0  0  3  0  0  0  0  0  0
  -21.4300   -4.5300   24.9290 C   0  0  0  0  0  0  0  0  0  0  0  0
  -21.8100   -3.9860   23.6900 C   0  0  0  0  0  3  0  0  0  0  0  0
  -21.8940   -4.8120   22.5550 C   0  0  0  0  0  0  0  0  0  0  0  0
  -22.2390   -4.2760   21.3590 F   0  0  0  0  0  0  0  0  0  0  0  0
  -21.3430   -3.7320   26.0190 F   0  0  0  0  0  0  0  0  0  0  0  0
  -22.7390  -13.5780   21.1470 C   0  0  0  0  0  0  0  0  0  0  0  0
  -22.0050  -12.8870   22.0120 N   0  0  0  0  0  0  0  0  0  0  0  0
  -22.3040  -14.6010   20.6190 O   0  0  0  0  0  0  0  0  0  0  0  0
  -22.3690  -12.0600   22.4610 H   0  0  0  0  0  0  0  0  0  0  0  0
  -21.0650  -13.1870   22.2240 H   0  0  0  0  0  0  0  0  0  0  0  0
  -25.3860  -15.2280   20.3250 N   0  0  0  0  0  0  0  0  0  0  0  0
  -24.6280  -15.8930   20.4360 H   0  0  0  0  0  0  0  0  0  0  0  0
  -26.2350  -15.6490   19.9750 H   0  0  0  0  0  0  0  0  0  0  0  0
  -28.6310  -23.3970   19.8940 C   0  0  0  0  0  2  0  0  0  0  0  0
  -29.2210  -24.3730   20.9420 C   0  0  0  0  0  2  0  0  0  0  0  0
  -28.3700  -25.6470   21.2150 C   0  0  0  0  0  2  0  0  0  0  0  0
  -28.4090  -26.6640   20.1990 O   0  0  0  0  0  0  0  0  0  0  0  0
  -24.6250  -31.9000   23.2510 C   0  0  0  0  0  0  0  0  0  0  0  0
  -27.2720  -27.4430   20.1870 C   0  0  0  0  0  0  0  0  0  0  0  0
  -23.4190  -30.4830   21.6230 C   0  0  0  0  0  3  0  0  0  0  0  0
  -24.8760  -28.9430   20.1990 C   0  0  0  0  0  0  0  0  0  0  0  0
  -25.9460  -30.8420   21.4230 C   0  0  0  0  0  2  0  0  0  0  0  0
  -26.0340  -29.4710   20.7840 C   0  0  0  0  0  0  0  0  0  0  0  0
  -27.2390  -28.7280   20.7770 C   0  0  0  0  0  3  0  0  0  0  0  0
  -26.1010  -26.9310   19.5920 C   0  0  0  0  0  3  0  0  0  0  0  0
  -24.9050  -27.6720   19.5990 C   0  0  0  0  0  3  0  0  0  0  0  0
  -23.6290  -29.7980   20.2460 C   0  0  0  0  0  2  0  0  0  0  0  0
  -24.6820  -31.0860   22.1600 N   0  0  0  0  0  0  0  0  0  0  0  0
  -23.5400  -32.1970   23.7690 O   0  0  0  0  0  0  0  0  0  0  0  0
  -22.7710  -29.4630   22.5890 C   0  0  0  0  0  0  0  0  0  0  0  0
  -21.4470  -29.2770   22.4620 N   0  0  0  0  0  0  0  0  0  0  0  0
  -23.4560  -28.8430   23.4060 O   0  0  0  0  0  0  0  0  0  0  0  0
  -20.9570  -29.8300   21.7730 H   0  0  0  0  0  0  0  0  0  0  0  0
  -18.0750  -28.0720   22.9560 C   0  0  0  0  0  0  0  0  0  0  0  0
  -20.6320  -28.3400   23.2340 C   0  0  0  0  0  3  0  0  0  0  0  0
  -20.7400  -26.9060   22.6630 C   0  0  0  0  0  2  0  0  0  0  0  0
  -19.6430  -26.5770   21.6470 C   0  0  0  0  0  2  0  0  0  0  0  0
  -18.2590  -26.7220   22.2870 C   0  0  0  0  0  2  0  0  0  0  0  0
  -19.1900  -28.8390   23.3860 C   0  0  0  0  0  0  0  0  0  0  0  0
  -18.9660  -30.1050   23.9700 C   0  0  0  0  0  3  0  0  0  0  0  0
  -17.6590  -30.6040   24.1280 C   0  0  0  0  0  3  0  0  0  0  0  0
  -16.5580  -29.8330   23.7150 C   0  0  0  0  0  3  0  0  0  0  0  0
  -16.7680  -28.5700   23.1340 C   0  0  0  0  0  3  0  0  0  0  0  0
  -25.9120  -32.5240   23.8770 C   0  0  0  0  0  3  0  0  0  0  0  0
  -25.6070  -33.9200   24.2100 N   0  0  0  0  0  0  0  0  0  0  0  0
  -25.9310  -34.9710   23.4450 C   0  0  0  0  0  0  0  0  0  0  0  0
  -26.5930  -34.8660   22.4080 O   0  0  0  0  0  0  0  0  0  0  0  0
  -25.0150  -34.0750   25.0120 H   0  0  0  0  0  0  0  0  0  0  0  0
  -24.1900  -36.7530   23.1070 C   0  0  0  0  0  1  0  0  0  0  0  0
  -25.4440  -36.3590   23.9030 C   0  0  0  0  0  3  0  0  0  0  0  0
  -27.5870  -37.2520   24.7000 C   0  0  0  0  0  1  0  0  0  0  0  0
  -26.4720  -37.4150   23.7720 N   0  0  0  0  0  0  0  0  0  0  0  0
  -26.0650  -38.3340   23.9240 H   0  0  0  0  0  0  0  0  0  0  0  0
  -26.4340  -31.7490   25.1490 C   0  0  1  0  0  0  0  0  0  0  0  0
  -25.3430  -31.5110   26.2190 C   0  0  0  0  0  1  0  0  0  0  0  0
  -27.0160  -30.3720   24.7520 C   0  0  0  0  0  1  0  0  0  0  0  0
  -27.5870  -32.5420   25.8090 C   0  0  0  0  0  1  0  0  0  0  0  0
  1  6  1  0
  2  1  2  0
  3  2  1  0
  4  6  2  0
  5  3  1  0
  7  3  2  0
  7  4  1  0
  9  8  1  6
  9  4  1  0
  9 11  1  0
 10  9  1  0
 12 20  1  0
 13 18  1  0
 14 15  1  0
 14 13  1  0
 16 15  1  0
 16 25  1  0
 16 17  1  0
 18 12  1  0
 18 17  1  0
 19 12  2  0
 20 11  1  0
 20 21  1  0
 22 23  2  0
 23 42  1  0
 24 23  1  0
 24 27  1  0
 25 22  1  0
 25 26  1  0
 26 24  2  0
 27 28  1  0
 28 29  2  0
 30 33  1  0
 30 29  1  0
 31 30  2  0
 32 31  1  0
 32 27  2  0
 33 34  1  0
 34 35  1  0
 35 36  2  0
 37 36  1  0
 37 41  1  0
 38 37  2  0
 39 34  2  0
 39 38  1  0
 40 39  1  0
 42 43  1  0
 43 46  1  0
 43 45  1  0
 44 42  2  0
 47 48  1  0
 47 22  1  0
 49 47  1  0
 50  2  1  0
 50 51  1  0
 51 52  1  0
 53 52  1  0
 54 65  2  0
 55 53  1  0
 55 60  1  0
 56 64  1  0
 56 66  1  0
 57 63  1  0
 57 59  1  0
 58 64  1  0
 59 58  1  0
 60 59  2  0
 61 62  1  0
 61 55  2  0
 62 57  2  0
 63 56  1  0
 64 54  1  0
 66 68  2  0
 67 66  1  0
 69 67  1  0
 70 79  2  0
 70 75  1  0
 71 67  1  0
 71 75  1  0
 72 71  1  0
 73 74  1  0
 73 72  1  0
 74 70  1  0
 75 76  2  0
 76 77  1  0
 78 77  2  0
 79 78  1  0
 80 54  1  0
 80 81  1  0
 80 90  1  0
 81 84  1  0
 82 86  1  0
 82 81  1  0
 83 82  2  0
 86 85  1  0
 88 86  1  0
 88 89  1  0
 88 87  1  0
 90 93  1  1
 90 91  1  0
 92 90  1  0
M  ISO  4  12 100  20 100  52 101  53 101
M  END
>  <TORSDO>  (54) 
F 21

>  <SCORE>  (54) 
-13.81

>  <name>  (54) 
53

>  <ligand_id>  (54) 
53

>  <original_smiles>  (54) 
[H]c1nc(C(F)(C([H])([H])[H])C([H])([H])N([H])C(=O)N2C([H])([H])C([H])([H])C([H])([H])C([H])(n3nc(-c4c([H])c([H])c(Oc5c([H])c([H])c(F)c([H])c5F)c([H])c4[H])c(C(=O)N([H])[H])c3N([H])[H])C2([H])[H])nc(C([H])([H])[H])c1C([H])([H])C([H])([H])C([H])([H])Oc1c([H])c([H])c2c(c1[H])C([H])([H])N(C(=O)C([H])(N([H])C(=O)C([H])(N([H])C([H])([H])[H])C([H])([H])[H])C(C([H])([H])[H])(C([H])([H])[H])C([H])([H])[H])C([H])(C(=O)N([H])C1([H])c3c([H])c([H])c([H])c([H])c3C([H])([H])C([H])([H])C1([H])[H])C2([H])[H]

>  <smiles>  (54) 
[H]c1nc(C(F)(C([H])([H])[H])C([H])([H])N([H])C(=O)N2C([H])([H])C([H])([H])C([H])([H])C([H])(n3nc(-c4c([H])c([H])c(Oc5c([H])c([H])c(F)c([H])c5F)c([H])c4[H])c(C(=O)N([H])[H])c3N([H])[H])C2([H])[H])nc(C([H])([H])[H])c1C([H])([H])C([H])([H])C([H])([H])Oc1c([H])c([H])c2c(c1[H])C([H])([H])N(C(=O)C([H])(N([H])C(=O)C([H])(N([H])C([H])([H])[H])C([H])([H])[H])C(C([H])([H])[H])(C([H])([H])[H])C([H])([H])[H])C([H])(C(=O)N([H])C1([H])c3c([H])c([H])c([H])c([H])c3C([H])([H])C([H])([H])C1([H])[H])C2([H])[H]

> <Step>
67.0

> <Scaffold>
O=C(NC1CCCc2ccccc21)C1Cc2ccc(OCCCc3cnc(CCNC(=O)N4CCCC(n5ccc(-c6ccc(Oc7ccccc7)cc6)n5)C4)nc3)cc2CN1

> <SMILES>
CNC(C)C(=O)NC(C(=O)N1Cc2cc(OCCCc3cnc(C(C)(F)CNC(=O)N4CCCC(n5nc(-c6ccc(Oc7ccc(F)cc7F)cc6)c(C(N)=O)c5N)C4)nc3C)ccc2CC1C(=O)NC1CCCc2ccccc21)C(C)(C)C

> <Tanimoto ROCS sim>
0.26560381054878235

> <Custom alerts>
1.0

> <Linker Num Aromatic Rings>
1.0

> <Linker Effective Length>
1.0

> <ADV>
0.9939137697219849

> <PostDock Tanimoto ROCS sim>
0.9907525777816772

> <raw_Linker Num Aromatic Rings>
1.0

> <raw_Linker Effective Length>
9.0

> <raw_ADV>
-13.85200023651123

> <total_score>
0.9961665868759155

> <ID>
default_job_153

> <PostDock Tanimoto ROCS sim (re-score)>
0.9838315

> <raw_ADV (re-score)>
-13.81

$$$$
default_job_154
     RDKit          3D

 95104  0  0  1  0  0  0  0  0999 V2000
  -31.2830  -19.0260   22.0260 C   0  0  0  0  0  3  0  0  0  0  0  0
  -29.9670  -20.6140   20.7840 C   0  0  0  0  0  0  0  0  0  0  0  0
  -31.0190  -20.3660   21.6810 C   0  0  0  0  0  0  0  0  0  0  0  0
  -29.2710  -19.5250   20.2710 C   0  0  0  0  0  0  0  0  0  0  0  0
  -30.5140  -17.9810   21.4620 C   0  0  0  0  0  0  0  0  0  0  0  0
  -28.2360  -19.9730   19.2710 C   0  0  0  0  0  2  0  0  0  0  0  0
  -28.2480  -21.5250   19.3780 C   0  0  0  0  0  2  0  0  0  0  0  0
  -29.5180  -21.9440   20.1750 C   0  0  0  0  0  3  0  0  0  0  0  0
  -29.5040  -18.2220   20.5820 N   0  0  0  0  0  0  0  0  0  0  0  0
  -31.9530  -21.6550   22.3510 Cl  0  0  0  0  0  0  0  0  0  0  0  0
  -29.2620  -23.0410   21.1590 N   0  0  0  0  0  4  0  0  0  0  0  0
  -29.9490  -22.9030   21.8850 H   0  0  0  0  0  0  0  0  0  0  0  0
  -28.3620  -22.9300   21.5990 H   0  0  0  0  0  0  0  0  0  0  0  0
  -29.4740  -24.4560   20.7090 C   0  0  0  0  0  2  0  0  0  0  0  0
  -28.1940  -25.2100   20.2580 C   0  0  0  0  0  2  0  0  0  0  0  0
  -28.3630  -26.6510   20.2570 O   0  0  0  0  0  0  0  0  0  0  0  0
  -24.5880  -31.9290   23.2570 C   0  0  0  0  0  0  0  0  0  0  0  0
  -27.2060  -27.4160   20.2200 C   0  0  0  0  0  0  0  0  0  0  0  0
  -23.3790  -30.5130   21.6340 C   0  0  0  0  0  3  0  0  0  0  0  0
  -24.8250  -28.9600   20.2170 C   0  0  0  0  0  0  0  0  0  0  0  0
  -25.9110  -30.8500   21.4380 C   0  0  0  0  0  2  0  0  0  0  0  0
  -25.9890  -29.4740   20.8020 C   0  0  0  0  0  0  0  0  0  0  0  0
  -27.1840  -28.7120   20.7960 C   0  0  0  0  0  3  0  0  0  0  0  0
  -26.0200  -26.9300   19.6210 C   0  0  0  0  0  3  0  0  0  0  0  0
  -24.8370  -27.6900   19.6220 C   0  0  0  0  0  3  0  0  0  0  0  0
  -23.5860  -29.8260   20.2590 C   0  0  0  0  0  2  0  0  0  0  0  0
  -24.6450  -31.1100   22.1690 N   0  0  0  0  0  0  0  0  0  0  0  0
  -23.5020  -32.2340   23.7690 O   0  0  0  0  0  0  0  0  0  0  0  0
  -22.7220  -29.5000   22.6000 C   0  0  0  0  0  0  0  0  0  0  0  0
  -21.3980  -29.3140   22.4670 N   0  0  0  0  0  0  0  0  0  0  0  0
  -23.4010  -28.8830   23.4250 O   0  0  0  0  0  0  0  0  0  0  0  0
  -20.9110  -29.8630   21.7720 H   0  0  0  0  0  0  0  0  0  0  0  0
  -18.0230  -28.1130   22.9460 C   0  0  0  0  0  0  0  0  0  0  0  0
  -20.5760  -28.3830   23.2400 C   0  0  0  0  0  3  0  0  0  0  0  0
  -20.6900  -26.9460   22.6820 C   0  0  0  0  0  2  0  0  0  0  0  0
  -19.6000  -26.6070   21.6610 C   0  0  0  0  0  2  0  0  0  0  0  0
  -18.2110  -26.7550   22.2890 C   0  0  0  0  0  2  0  0  0  0  0  0
  -19.1350  -28.8840   23.3770 C   0  0  0  0  0  0  0  0  0  0  0  0
  -18.9060  -30.1540   23.9490 C   0  0  0  0  0  3  0  0  0  0  0  0
  -17.5980  -30.6530   24.0960 C   0  0  0  0  0  3  0  0  0  0  0  0
  -16.5010  -29.8790   23.6800 C   0  0  0  0  0  3  0  0  0  0  0  0
  -16.7140  -28.6110   23.1100 C   0  0  0  0  0  3  0  0  0  0  0  0
  -25.8760  -32.5500   23.8820 C   0  0  0  0  0  3  0  0  0  0  0  0
  -26.3890  -31.7810   25.1610 C   0  0  1  0  0  0  0  0  0  0  0  0
  -25.2930  -31.5500   26.2270 C   0  0  0  0  0  1  0  0  0  0  0  0
  -26.9680  -30.4000   24.7720 C   0  0  0  0  0  1  0  0  0  0  0  0
  -27.5420  -32.5720   25.8220 C   0  0  0  0  0  1  0  0  0  0  0  0
  -25.5760  -33.9500   24.2080 N   0  0  0  0  0  0  0  0  0  0  0  0
  -25.9090  -34.9970   23.4400 C   0  0  0  0  0  0  0  0  0  0  0  0
  -26.5760  -34.8840   22.4070 O   0  0  0  0  0  0  0  0  0  0  0  0
  -24.9840  -34.1120   25.0090 H   0  0  0  0  0  0  0  0  0  0  0  0
  -24.1840  -36.7900   23.0770 C   0  0  0  0  0  1  0  0  0  0  0  0
  -25.4260  -36.3890   23.8890 C   0  0  0  0  0  3  0  0  0  0  0  0
  -27.5640  -37.2720   24.7090 C   0  0  0  0  0  1  0  0  0  0  0  0
  -26.4610  -37.4380   23.7670 N   0  0  0  0  0  0  0  0  0  0  0  0
  -26.0590  -38.3610   23.9100 H   0  0  0  0  0  0  0  0  0  0  0  0
  -30.8210  -16.5420   21.9070 C   0  0  0  0  0  2  0  0  0  0  0  0
  -30.6940  -14.4940   20.4840 C   0  0  0  0  0  0  0  0  0  0  0  0
  -30.3550  -12.3780   19.2440 C   0  0  0  0  0  2  0  0  0  0  0  0
  -29.3980  -12.5920   18.0540 C   0  0  0  0  0  2  0  0  0  0  0  0
  -27.9310  -12.4400   18.5000 C   0  0  0  0  0  2  0  0  0  0  0  0
  -27.6080  -13.2600   19.7780 C   0  0  0  0  0  3  0  0  0  0  0  0
  -28.6730  -13.0240   20.8700 C   0  0  0  0  0  2  0  0  0  0  0  0
  -29.9880  -13.3440   20.2920 N   0  0  0  0  0  0  0  0  0  0  0  0
  -31.7940  -14.6920   19.9620 O   0  0  0  0  0  0  0  0  0  0  0  0
  -30.1150  -15.4260   21.2610 N   0  0  0  0  0  0  0  0  0  0  0  0
  -29.1720  -15.2530   21.5710 H   0  0  0  0  0  0  0  0  0  0  0  0
  -25.2110  -13.8580   20.5000 C   0  0  0  0  0  0  0  0  0  0  0  0
  -24.1480  -13.0810   20.8740 C   0  0  0  0  0  0  0  0  0  0  0  0
  -24.6150  -11.7320   20.8430 C   0  0  0  0  0  0  0  0  0  0  0  0
  -26.2590  -12.9800   20.2650 N   0  0  0  0  0  0  0  0  0  0  0  0
  -25.9040  -11.6960   20.5290 N   0  0  0  0  0  0  0  0  0  0  0  0
  -23.8940  -10.4660   21.0380 C   0  0  0  0  0  0  0  0  0  0  0  0
  -24.3380   -9.4980   21.9650 C   0  0  0  0  0  3  0  0  0  0  0  0
  -23.6180   -8.2980   22.1490 C   0  0  0  0  0  3  0  0  0  0  0  0
  -22.4390   -8.0580   21.4040 C   0  0  0  0  0  0  0  0  0  0  0  0
  -22.0140   -9.0150   20.4650 C   0  0  0  0  0  3  0  0  0  0  0  0
  -22.7340  -10.2060   20.2800 C   0  0  0  0  0  3  0  0  0  0  0  0
  -21.6890   -6.9110   21.4950 O   0  0  0  0  0  0  0  0  0  0  0  0
  -21.6570   -6.1620   22.6440 C   0  0  0  0  0  0  0  0  0  0  0  0
  -21.2510   -6.7100   23.8800 C   0  0  0  0  0  3  0  0  0  0  0  0
  -21.1660   -5.8880   25.0220 C   0  0  0  0  0  3  0  0  0  0  0  0
  -21.4770   -4.5190   24.9280 C   0  0  0  0  0  0  0  0  0  0  0  0
  -21.8770   -3.9700   23.6970 C   0  0  0  0  0  3  0  0  0  0  0  0
  -21.9640   -4.7880   22.5580 C   0  0  0  0  0  0  0  0  0  0  0  0
  -22.3290   -4.2500   21.3690 F   0  0  0  0  0  0  0  0  0  0  0  0
  -21.3890   -3.7260   26.0220 F   0  0  0  0  0  0  0  0  0  0  0  0
  -22.7500  -13.5540   21.1530 C   0  0  0  0  0  0  0  0  0  0  0  0
  -22.0290  -12.8540   22.0220 N   0  0  0  0  0  0  0  0  0  0  0  0
  -22.3070  -14.5780   20.6370 O   0  0  0  0  0  0  0  0  0  0  0  0
  -22.4000  -12.0250   22.4610 H   0  0  0  0  0  0  0  0  0  0  0  0
  -21.0920  -13.1520   22.2520 H   0  0  0  0  0  0  0  0  0  0  0  0
  -25.3710  -15.2290   20.3210 N   0  0  0  0  0  0  0  0  0  0  0  0
  -24.6060  -15.8830   20.4360 H   0  0  0  0  0  0  0  0  0  0  0  0
  -26.2250  -15.6690   20.0000 H   0  0  0  0  0  0  0  0  0  0  0  0
  2  3  2  0
  3  1  1  0
  3 10  1  0
  4  9  2  0
  4  2  1  0
  5 57  1  0
  5  1  2  0
  6  7  1  0
  6  4  1  0
  7  8  1  0
  8  2  1  0
  8 11  1  0
  9  5  1  0
 11 13  1  0
 11 12  1  0
 14 11  1  0
 15 14  1  0
 16 15  1  0
 17 28  2  0
 18 16  1  0
 18 23  1  0
 19 27  1  0
 19 29  1  0
 20 26  1  0
 20 22  1  0
 21 27  1  0
 22 21  1  0
 23 22  2  0
 24 25  1  0
 24 18  2  0
 25 20  2  0
 26 19  1  0
 27 17  1  0
 29 31  2  0
 30 29  1  0
 32 30  1  0
 33 42  2  0
 33 38  1  0
 34 30  1  0
 34 38  1  0
 35 34  1  0
 36 37  1  0
 36 35  1  0
 37 33  1  0
 38 39  2  0
 39 40  1  0
 41 40  2  0
 42 41  1  0
 43 17  1  0
 43 48  1  0
 43 44  1  0
 44 47  1  1
 44 45  1  0
 46 44  1  0
 48 51  1  0
 49 53  1  0
 49 48  1  0
 50 49  2  0
 53 52  1  0
 55 53  1  0
 55 56  1  0
 55 54  1  0
 58 66  1  0
 59 64  1  0
 60 61  1  0
 60 59  1  0
 62 61  1  0
 62 71  1  0
 62 63  1  0
 64 58  1  0
 64 63  1  0
 65 58  2  0
 66 67  1  0
 66 57  1  0
 68 69  2  0
 69 88  1  0
 70 69  1  0
 70 73  1  0
 71 68  1  0
 71 72  1  0
 72 70  2  0
 73 74  1  0
 74 75  2  0
 76 79  1  0
 76 75  1  0
 77 76  2  0
 78 77  1  0
 78 73  2  0
 79 80  1  0
 80 81  1  0
 81 82  2  0
 83 82  1  0
 83 87  1  0
 84 83  2  0
 85 80  2  0
 85 84  1  0
 86 85  1  0
 88 89  1  0
 89 92  1  0
 89 91  1  0
 90 88  2  0
 93 94  1  0
 93 68  1  0
 95 93  1  0
M  ISO  4  15 101  16 101  58 100  66 100
M  END
>  <TORSDO>  (55) 
F 20

>  <SCORE>  (55) 
-14.28

>  <name>  (55) 
54

>  <ligand_id>  (55) 
54

>  <original_smiles>  (55) 
[H]c1c([H])c([H])c2c(c1[H])C([H])([H])C([H])([H])C([H])([H])C2([H])N([H])C(=O)C1([H])N(C(=O)C([H])(N([H])C(=O)C([H])(N([H])C([H])([H])[H])C([H])([H])[H])C(C([H])([H])[H])(C([H])([H])[H])C([H])([H])[H])C([H])([H])c2c([H])c(OC([H])([H])C([H])([H])[N+]([H])([H])C3([H])c4c(nc(C([H])([H])N([H])C(=O)N5C([H])([H])C([H])([H])C([H])([H])C([H])(n6nc(-c7c([H])c([H])c(Oc8c([H])c([H])c(F)c([H])c8F)c([H])c7[H])c(C(=O)N([H])[H])c6N([H])[H])C5([H])[H])c([H])c4Cl)C([H])([H])C3([H])[H])c([H])c([H])c2C1([H])[H]

>  <smiles>  (55) 
[H]c1c([H])c([H])c2c(c1[H])C([H])([H])C([H])([H])C([H])([H])C2([H])N([H])C(=O)C1([H])N(C(=O)C([H])(N([H])C(=O)C([H])(N([H])C([H])([H])[H])C([H])([H])[H])C(C([H])([H])[H])(C([H])([H])[H])C([H])([H])[H])C([H])([H])c2c([H])c(OC([H])([H])C([H])([H])[N+]([H])([H])C3([H])c4c(nc(C([H])([H])N([H])C(=O)N5C([H])([H])C([H])([H])C([H])([H])C([H])(n6nc(-c7c([H])c([H])c(Oc8c([H])c([H])c(F)c([H])c8F)c([H])c7[H])c(C(=O)N([H])[H])c6N([H])[H])C5([H])[H])c([H])c4Cl)C([H])([H])C3([H])[H])c([H])c([H])c2C1([H])[H]

> <Step>
181.0

> <Scaffold>
O=C(NC1CCCc2ccccc21)C1Cc2ccc(OCCNC3CCc4nc(CNC(=O)N5CCCC(n6ccc(-c7ccc(Oc8ccccc8)cc7)n6)C5)ccc43)cc2CN1

> <SMILES>
CNC(C)C(=O)NC(C(=O)N1Cc2cc(OCCNC3CCc4nc(CNC(=O)N5CCCC(n6nc(-c7ccc(Oc8ccc(F)cc8F)cc7)c(C(N)=O)c6N)C5)cc(Cl)c43)ccc2CC1C(=O)NC1CCCc2ccccc21)C(C)(C)C

> <Tanimoto ROCS sim>
0.15863624215126038

> <Custom alerts>
1.0

> <Linker Num Aromatic Rings>
1.0

> <Linker Effective Length>
1.0

> <ADV>
0.9952173829078674

> <PostDock Tanimoto ROCS sim>
0.9894344806671143

> <raw_Linker Num Aromatic Rings>
1.0

> <raw_Linker Effective Length>
9.0

> <raw_ADV>
-14.27299976348877

> <total_score>
0.9961629509925842

> <ID>
default_job_154

> <PostDock Tanimoto ROCS sim (re-score)>
0.9838499

> <raw_ADV (re-score)>
-14.28

$$$$
default_job_155
     RDKit          3D

 93101  0  0  1  0  0  0  0  0999 V2000
  -31.6720  -23.7260   20.7610 C   0  0  0  0  0  3  0  0  0  0  0  0
  -30.6550  -24.6710   20.5390 C   0  0  0  0  0  0  0  0  0  0  0  0
  -31.4630  -22.3390   20.6190 C   0  0  0  0  0  0  0  0  0  0  0  0
  -29.3630  -24.2310   20.1540 C   0  0  0  0  0  0  0  0  0  0  0  0
  -29.1430  -22.8180   20.0150 C   0  0  0  0  0  0  0  0  0  0  0  0
  -30.1650  -21.8500   20.2730 C   0  0  0  0  0  0  0  0  0  0  0  0
  -31.0190  -26.1380   20.7090 C   0  0  0  0  0  1  0  0  0  0  0  0
  -32.7010  -21.4710   20.7880 C   0  0  0  0  0  1  0  0  0  0  0  0
  -27.7670  -22.3170   19.5750 C   0  0  0  0  0  1  0  0  0  0  0  0
  -28.1980  -25.2140   19.8530 C   0  0  0  0  0  2  0  0  0  0  0  0
  -28.3390  -26.6220   20.1690 O   0  0  0  0  0  0  0  0  0  0  0  0
  -24.6110  -31.8960   23.2460 C   0  0  0  0  0  0  0  0  0  0  0  0
  -27.1850  -27.3980   20.1410 C   0  0  0  0  0  0  0  0  0  0  0  0
  -23.3810  -30.4980   21.6230 C   0  0  0  0  0  3  0  0  0  0  0  0
  -24.8090  -28.9570   20.1800 C   0  0  0  0  0  0  0  0  0  0  0  0
  -25.9140  -30.8260   21.4090 C   0  0  0  0  0  2  0  0  0  0  0  0
  -25.9810  -29.4560   20.7600 C   0  0  0  0  0  0  0  0  0  0  0  0
  -27.1720  -28.6870   20.7350 C   0  0  0  0  0  3  0  0  0  0  0  0
  -25.9870  -26.9300   19.5480 C   0  0  0  0  0  3  0  0  0  0  0  0
  -24.8080  -27.6930   19.5710 C   0  0  0  0  0  3  0  0  0  0  0  0
  -23.5740  -29.8250   20.2410 C   0  0  0  0  0  2  0  0  0  0  0  0
  -24.6550  -31.0850   22.1520 N   0  0  0  0  0  0  0  0  0  0  0  0
  -23.5310  -32.2000   23.7710 O   0  0  0  0  0  0  0  0  0  0  0  0
  -22.7320  -29.4780   22.5880 C   0  0  0  0  0  0  0  0  0  0  0  0
  -21.4060  -29.2940   22.4640 N   0  0  0  0  0  0  0  0  0  0  0  0
  -23.4170  -28.8540   23.4030 O   0  0  0  0  0  0  0  0  0  0  0  0
  -20.9150  -29.8490   21.7770 H   0  0  0  0  0  0  0  0  0  0  0  0
  -18.0350  -28.0850   22.9580 C   0  0  0  0  0  0  0  0  0  0  0  0
  -20.5910  -28.3590   23.2390 C   0  0  0  0  0  3  0  0  0  0  0  0
  -20.7040  -26.9230   22.6750 C   0  0  0  0  0  2  0  0  0  0  0  0
  -19.6070  -26.5860   21.6590 C   0  0  0  0  0  2  0  0  0  0  0  0
  -18.2220  -26.7300   22.2960 C   0  0  0  0  0  2  0  0  0  0  0  0
  -19.1480  -28.8560   23.3870 C   0  0  0  0  0  0  0  0  0  0  0  0
  -18.9210  -30.1230   23.9660 C   0  0  0  0  0  3  0  0  0  0  0  0
  -17.6130  -30.6200   24.1210 C   0  0  0  0  0  3  0  0  0  0  0  0
  -16.5140  -29.8460   23.7080 C   0  0  0  0  0  3  0  0  0  0  0  0
  -16.7260  -28.5810   23.1330 C   0  0  0  0  0  3  0  0  0  0  0  0
  -25.9050  -32.5100   23.8630 C   0  0  0  0  0  3  0  0  0  0  0  0
  -25.6080  -33.9060   24.2100 N   0  0  0  0  0  0  0  0  0  0  0  0
  -25.9170  -34.9610   23.4460 C   0  0  0  0  0  0  0  0  0  0  0  0
  -26.5590  -34.8610   22.3950 O   0  0  0  0  0  0  0  0  0  0  0  0
  -25.0350  -34.0570   25.0270 H   0  0  0  0  0  0  0  0  0  0  0  0
  -24.1680  -36.7440   23.1560 C   0  0  0  0  0  1  0  0  0  0  0  0
  -25.4410  -36.3460   23.9200 C   0  0  0  0  0  3  0  0  0  0  0  0
  -27.6030  -37.2380   24.6670 C   0  0  0  0  0  1  0  0  0  0  0  0
  -26.4640  -37.4030   23.7670 N   0  0  0  0  0  0  0  0  0  0  0  0
  -26.0600  -38.3220   23.9310 H   0  0  0  0  0  0  0  0  0  0  0  0
  -26.4340  -31.7240   25.1260 C   0  0  1  0  0  0  0  0  0  0  0  0
  -25.3500  -31.4820   26.2020 C   0  0  0  0  0  1  0  0  0  0  0  0
  -27.0060  -30.3460   24.7130 C   0  0  0  0  0  1  0  0  0  0  0  0
  -27.5970  -32.5060   25.7800 C   0  0  0  0  0  1  0  0  0  0  0  0
  -29.8090  -20.5050   20.1130 O   0  0  0  0  0  0  0  0  0  0  0  0
  -30.4930  -19.4250   20.7780 C   0  0  0  0  0  2  0  0  0  0  0  0
  -29.7820  -18.0460   20.6350 C   0  0  0  0  0  2  0  0  0  0  0  0
  -30.5530  -16.8830   21.3350 C   0  0  0  0  0  2  0  0  0  0  0  0
  -30.6630  -14.4960   20.5100 C   0  0  0  0  0  0  0  0  0  0  0  0
  -30.3500  -12.3320   19.3610 C   0  0  0  0  0  2  0  0  0  0  0  0
  -29.4170  -12.5260   18.1490 C   0  0  0  0  0  2  0  0  0  0  0  0
  -27.9410  -12.3910   18.5700 C   0  0  0  0  0  2  0  0  0  0  0  0
  -27.5970  -13.2340   19.8280 C   0  0  0  0  0  3  0  0  0  0  0  0
  -28.6480  -13.0300   20.9430 C   0  0  0  0  0  2  0  0  0  0  0  0
  -29.9720  -13.3290   20.3770 N   0  0  0  0  0  0  0  0  0  0  0  0
  -31.7860  -14.6580   20.0250 O   0  0  0  0  0  0  0  0  0  0  0  0
  -30.0100  -15.5220   21.0970 N   0  0  0  0  0  0  0  0  0  0  0  0
  -29.0840  -15.3230   21.4450 H   0  0  0  0  0  0  0  0  0  0  0  0
  -25.1950  -13.8450   20.5210 C   0  0  0  0  0  0  0  0  0  0  0  0
  -24.1240  -13.0750   20.8890 C   0  0  0  0  0  0  0  0  0  0  0  0
  -24.5850  -11.7230   20.8710 C   0  0  0  0  0  0  0  0  0  0  0  0
  -26.2410  -12.9610   20.3030 N   0  0  0  0  0  0  0  0  0  0  0  0
  -25.8760  -11.6810   20.5710 N   0  0  0  0  0  0  0  0  0  0  0  0
  -23.8560  -10.4620   21.0670 C   0  0  0  0  0  0  0  0  0  0  0  0
  -24.3010   -9.4870   21.9880 C   0  0  0  0  0  3  0  0  0  0  0  0
  -23.5730   -8.2930   22.1730 C   0  0  0  0  0  3  0  0  0  0  0  0
  -22.3860   -8.0630   21.4370 C   0  0  0  0  0  0  0  0  0  0  0  0
  -21.9610   -9.0270   20.5060 C   0  0  0  0  0  3  0  0  0  0  0  0
  -22.6900  -10.2130   20.3190 C   0  0  0  0  0  3  0  0  0  0  0  0
  -21.6290   -6.9210   21.5310 O   0  0  0  0  0  0  0  0  0  0  0  0
  -21.6160   -6.1570   22.6710 C   0  0  0  0  0  0  0  0  0  0  0  0
  -21.2520   -6.6950   23.9250 C   0  0  0  0  0  3  0  0  0  0  0  0
  -21.1830   -5.8590   25.0560 C   0  0  0  0  0  3  0  0  0  0  0  0
  -21.4710   -4.4860   24.9370 C   0  0  0  0  0  0  0  0  0  0  0  0
  -21.8310   -3.9480   23.6890 C   0  0  0  0  0  3  0  0  0  0  0  0
  -21.9000   -4.7810   22.5590 C   0  0  0  0  0  0  0  0  0  0  0  0
  -22.2240   -4.2530   21.3540 F   0  0  0  0  0  0  0  0  0  0  0  0
  -21.3980   -3.6800   26.0220 F   0  0  0  0  0  0  0  0  0  0  0  0
  -22.7250  -13.5550   21.1490 C   0  0  0  0  0  0  0  0  0  0  0  0
  -21.9930  -12.8690   22.0200 N   0  0  0  0  0  0  0  0  0  0  0  0
  -22.2880  -14.5740   20.6160 O   0  0  0  0  0  0  0  0  0  0  0  0
  -22.3600  -12.0450   22.4730 H   0  0  0  0  0  0  0  0  0  0  0  0
  -21.0550  -13.1730   22.2370 H   0  0  0  0  0  0  0  0  0  0  0  0
  -25.3630  -15.2130   20.3330 N   0  0  0  0  0  0  0  0  0  0  0  0
  -24.5990  -15.8740   20.4280 H   0  0  0  0  0  0  0  0  0  0  0  0
  -26.2190  -15.6460   20.0060 H   0  0  0  0  0  0  0  0  0  0  0  0
  2  7  1  0
  2  1  2  0
  3  1  1  0
  3  8  1  0
  4  2  1  0
  5  4  2  0
  5  6  1  0
  6  3  2  0
  9  5  1  0
 10  4  1  0
 10 11  1  0
 12 23  2  0
 13 11  1  0
 13 18  1  0
 14 22  1  0
 14 24  1  0
 15 21  1  0
 15 17  1  0
 16 22  1  0
 17 16  1  0
 18 17  2  0
 19 20  1  0
 19 13  2  0
 20 15  2  0
 21 14  1  0
 22 12  1  0
 24 26  2  0
 25 24  1  0
 27 25  1  0
 28 37  2  0
 28 33  1  0
 29 25  1  0
 29 33  1  0
 30 29  1  0
 31 32  1  0
 31 30  1  0
 32 28  1  0
 33 34  2  0
 34 35  1  0
 36 35  2  0
 37 36  1  0
 38 12  1  0
 38 39  1  0
 38 48  1  0
 39 42  1  0
 40 44  1  0
 40 39  1  0
 41 40  2  0
 44 43  1  0
 46 44  1  0
 46 47  1  0
 46 45  1  0
 48 51  1  1
 48 49  1  0
 50 48  1  0
 52  6  1  0
 52 53  1  0
 54 53  1  0
 54 55  1  0
 56 64  1  0
 57 62  1  0
 58 59  1  0
 58 57  1  0
 60 59  1  0
 60 69  1  0
 60 61  1  0
 62 56  1  0
 62 61  1  0
 63 56  2  0
 64 55  1  0
 64 65  1  0
 66 67  2  0
 67 86  1  0
 68 67  1  0
 68 71  1  0
 69 66  1  0
 69 70  1  0
 70 68  2  0
 71 72  1  0
 72 73  2  0
 74 77  1  0
 74 73  1  0
 75 74  2  0
 76 75  1  0
 76 71  2  0
 77 78  1  0
 78 79  1  0
 79 80  2  0
 81 80  1  0
 81 85  1  0
 82 81  2  0
 83 78  2  0
 83 82  1  0
 84 83  1  0
 86 87  1  0
 87 90  1  0
 87 89  1  0
 88 86  2  0
 91 92  1  0
 91 66  1  0
 93 91  1  0
M  ISO  4  10 101  11 101  56 100  64 100
M  END
>  <TORSDO>  (56) 
F 21

>  <SCORE>  (56) 
-13.536

>  <name>  (56) 
55

>  <ligand_id>  (56) 
55

>  <original_smiles>  (56) 
[H]c1c([H])c([H])c2c(c1[H])C([H])([H])C([H])([H])C([H])([H])C2([H])N([H])C(=O)C1([H])N(C(=O)C([H])(N([H])C(=O)C([H])(N([H])C([H])([H])[H])C([H])([H])[H])C(C([H])([H])[H])(C([H])([H])[H])C([H])([H])[H])C([H])([H])c2c([H])c(OC([H])([H])c3c(C([H])([H])[H])c([H])c(C([H])([H])[H])c(OC([H])([H])C([H])([H])C([H])([H])N([H])C(=O)N4C([H])([H])C([H])([H])C([H])([H])C([H])(n5nc(-c6c([H])c([H])c(Oc7c([H])c([H])c(F)c([H])c7F)c([H])c6[H])c(C(=O)N([H])[H])c5N([H])[H])C4([H])[H])c3C([H])([H])[H])c([H])c([H])c2C1([H])[H]

>  <smiles>  (56) 
[H]c1c([H])c([H])c2c(c1[H])C([H])([H])C([H])([H])C([H])([H])C2([H])N([H])C(=O)C1([H])N(C(=O)C([H])(N([H])C(=O)C([H])(N([H])C([H])([H])[H])C([H])([H])[H])C(C([H])([H])[H])(C([H])([H])[H])C([H])([H])[H])C([H])([H])c2c([H])c(OC([H])([H])c3c(C([H])([H])[H])c([H])c(C([H])([H])[H])c(OC([H])([H])C([H])([H])C([H])([H])N([H])C(=O)N4C([H])([H])C([H])([H])C([H])([H])C([H])(n5nc(-c6c([H])c([H])c(Oc7c([H])c([H])c(F)c([H])c7F)c([H])c6[H])c(C(=O)N([H])[H])c5N([H])[H])C4([H])[H])c3C([H])([H])[H])c([H])c([H])c2C1([H])[H]

> <Step>
18.0

> <Scaffold>
O=C(NC1CCCc2ccccc21)C1Cc2ccc(OCc3cccc(OCCCNC(=O)N4CCCC(n5ccc(-c6ccc(Oc7ccccc7)cc6)n5)C4)c3)cc2CN1

> <SMILES>
CNC(C)C(=O)NC(C(=O)N1Cc2cc(OCc3c(C)cc(C)c(OCCCNC(=O)N4CCCC(n5nc(-c6ccc(Oc7ccc(F)cc7F)cc6)c(C(N)=O)c5N)C4)c3C)ccc2CC1C(=O)NC1CCCc2ccccc21)C(C)(C)C

> <Tanimoto ROCS sim>
0.19745902717113495

> <Custom alerts>
1.0

> <Linker Num Aromatic Rings>
1.0

> <Linker Effective Length>
1.0

> <ADV>
0.9926077127456665

> <PostDock Tanimoto ROCS sim>
0.9920224547386169

> <raw_Linker Num Aromatic Rings>
1.0

> <raw_Linker Effective Length>
8.0

> <raw_ADV>
-13.51200008392334

> <total_score>
0.9961575269699097

> <ID>
default_job_155

> <PostDock Tanimoto ROCS sim (re-score)>
0.9860121

> <raw_ADV (re-score)>
-13.536

$$$$
default_job_156
     RDKit          3D

 90 98  0  0  1  0  0  0  0  0999 V2000
  -28.5160  -21.3150   20.3340 C   0  0  0  0  0  3  0  0  0  0  0  0
  -29.5730  -20.6180   20.8520 C   0  0  0  0  0  0  0  0  0  0  0  0
  -29.9210  -21.1920   22.0740 N   0  0  0  0  0  0  0  0  0  0  0  0
  -29.1350  -22.1950   22.3200 N   0  0  0  0  0  0  0  0  0  0  0  0
  -28.2740  -22.2960   21.2800 N   0  0  0  0  0  0  0  0  0  0  0  0
  -30.2940  -19.4090   20.3260 C   0  0  0  0  0  2  0  0  0  0  0  0
  -29.6840  -18.0730   20.8120 C   0  0  0  0  0  2  0  0  0  0  0  0
  -30.6340  -16.8870   20.5600 C   0  0  0  0  0  2  0  0  0  0  0  0
  -30.7130  -14.4440   20.4280 C   0  0  0  0  0  0  0  0  0  0  0  0
  -30.3450  -12.2920   19.3120 C   0  0  0  0  0  2  0  0  0  0  0  0
  -29.4290  -12.5370   18.0980 C   0  0  0  0  0  2  0  0  0  0  0  0
  -27.9490  -12.4240   18.5150 C   0  0  0  0  0  2  0  0  0  0  0  0
  -27.6110  -13.2480   19.7910 C   0  0  0  0  0  3  0  0  0  0  0  0
  -28.6640  -13.0380   20.9030 C   0  0  0  0  0  2  0  0  0  0  0  0
  -29.9900  -13.2970   20.3260 N   0  0  0  0  0  0  0  0  0  0  0  0
  -31.8660  -14.5400   20.0110 O   0  0  0  0  0  0  0  0  0  0  0  0
  -30.0510  -15.5560   20.7950 N   0  0  0  0  0  0  0  0  0  0  0  0
  -29.0890  -15.4830   21.0890 H   0  0  0  0  0  0  0  0  0  0  0  0
  -25.2040  -13.8480   20.4680 C   0  0  0  0  0  0  0  0  0  0  0  0
  -24.1330  -13.0770   20.8330 C   0  0  0  0  0  0  0  0  0  0  0  0
  -24.5980  -11.7270   20.8210 C   0  0  0  0  0  0  0  0  0  0  0  0
  -26.2540  -12.9680   20.2610 N   0  0  0  0  0  0  0  0  0  0  0  0
  -25.8910  -11.6870   20.5270 N   0  0  0  0  0  0  0  0  0  0  0  0
  -23.8700  -10.4660   21.0160 C   0  0  0  0  0  0  0  0  0  0  0  0
  -24.2980   -9.5040   21.9560 C   0  0  0  0  0  3  0  0  0  0  0  0
  -23.5700   -8.3090   22.1400 C   0  0  0  0  0  3  0  0  0  0  0  0
  -22.4000   -8.0650   21.3830 C   0  0  0  0  0  0  0  0  0  0  0  0
  -21.9900   -9.0160   20.4330 C   0  0  0  0  0  3  0  0  0  0  0  0
  -22.7180  -10.2030   20.2470 C   0  0  0  0  0  3  0  0  0  0  0  0
  -21.6440   -6.9210   21.4780 O   0  0  0  0  0  0  0  0  0  0  0  0
  -21.6000   -6.1810   22.6310 C   0  0  0  0  0  0  0  0  0  0  0  0
  -21.1810   -6.7360   23.8600 C   0  0  0  0  0  3  0  0  0  0  0  0
  -21.0870   -5.9210   25.0050 C   0  0  0  0  0  3  0  0  0  0  0  0
  -21.3980   -4.5520   24.9230 C   0  0  0  0  0  0  0  0  0  0  0  0
  -21.8100   -3.9950   23.6990 C   0  0  0  0  0  3  0  0  0  0  0  0
  -21.9070   -4.8060   22.5570 C   0  0  0  0  0  0  0  0  0  0  0  0
  -22.2850   -4.2610   21.3750 F   0  0  0  0  0  0  0  0  0  0  0  0
  -21.2990   -3.7670   26.0220 F   0  0  0  0  0  0  0  0  0  0  0  0
  -22.7340  -13.5570   21.0890 C   0  0  0  0  0  0  0  0  0  0  0  0
  -22.0000  -12.8660   21.9550 N   0  0  0  0  0  0  0  0  0  0  0  0
  -22.3000  -14.5770   20.5570 O   0  0  0  0  0  0  0  0  0  0  0  0
  -22.3670  -12.0430   22.4090 H   0  0  0  0  0  0  0  0  0  0  0  0
  -21.0600  -13.1680   22.1720 H   0  0  0  0  0  0  0  0  0  0  0  0
  -25.3690  -15.2160   20.2800 N   0  0  0  0  0  0  0  0  0  0  0  0
  -24.6040  -15.8720   20.3870 H   0  0  0  0  0  0  0  0  0  0  0  0
  -26.2280  -15.6510   19.9650 H   0  0  0  0  0  0  0  0  0  0  0  0
  -27.2020  -23.2800   21.3330 C   0  0  0  0  0  2  0  0  0  0  0  0
  -27.6800  -24.7420   21.4700 C   0  0  0  0  0  2  0  0  0  0  0  0
  -28.3630  -25.3180   20.2070 C   0  0  0  0  0  2  0  0  0  0  0  0
  -28.4260  -26.7530   20.2320 O   0  0  0  0  0  0  0  0  0  0  0  0
  -24.5880  -31.8950   23.2550 C   0  0  0  0  0  0  0  0  0  0  0  0
  -27.2400  -27.4620   20.1870 C   0  0  0  0  0  0  0  0  0  0  0  0
  -23.3850  -30.4860   21.6180 C   0  0  0  0  0  3  0  0  0  0  0  0
  -24.8400  -28.9600   20.1880 C   0  0  0  0  0  0  0  0  0  0  0  0
  -25.9090  -30.8530   21.4200 C   0  0  0  0  0  2  0  0  0  0  0  0
  -25.9970  -29.4860   20.7780 C   0  0  0  0  0  0  0  0  0  0  0  0
  -27.1960  -28.7430   20.7790 C   0  0  0  0  0  3  0  0  0  0  0  0
  -26.0670  -26.9520   19.5840 C   0  0  0  0  0  3  0  0  0  0  0  0
  -24.8700  -27.6890   19.5930 C   0  0  0  0  0  3  0  0  0  0  0  0
  -23.5950  -29.8140   20.2360 C   0  0  0  0  0  2  0  0  0  0  0  0
  -24.6470  -31.0860   22.1590 N   0  0  0  0  0  0  0  0  0  0  0  0
  -23.5010  -32.1920   23.7680 O   0  0  0  0  0  0  0  0  0  0  0  0
  -22.7380  -29.4590   22.5750 C   0  0  0  0  0  0  0  0  0  0  0  0
  -21.4130  -29.2780   22.4500 N   0  0  0  0  0  0  0  0  0  0  0  0
  -23.4230  -28.8330   23.3870 O   0  0  0  0  0  0  0  0  0  0  0  0
  -20.9170  -29.8330   21.7690 H   0  0  0  0  0  0  0  0  0  0  0  0
  -18.0410  -28.0910   22.9460 C   0  0  0  0  0  0  0  0  0  0  0  0
  -20.5980  -28.3390   23.2200 C   0  0  0  0  0  3  0  0  0  0  0  0
  -20.6990  -26.9110   22.6360 C   0  0  0  0  0  2  0  0  0  0  0  0
  -19.5950  -26.5990   21.6210 C   0  0  0  0  0  2  0  0  0  0  0  0
  -18.2130  -26.7440   22.2640 C   0  0  0  0  0  2  0  0  0  0  0  0
  -19.1610  -28.8460   23.3790 C   0  0  0  0  0  0  0  0  0  0  0  0
  -18.9480  -30.1080   23.9740 C   0  0  0  0  0  3  0  0  0  0  0  0
  -17.6450  -30.6150   24.1450 C   0  0  0  0  0  3  0  0  0  0  0  0
  -16.5370  -29.8550   23.7300 C   0  0  0  0  0  3  0  0  0  0  0  0
  -16.7360  -28.5960   23.1350 C   0  0  0  0  0  3  0  0  0  0  0  0
  -25.8760  -32.5170   23.8830 C   0  0  0  0  0  3  0  0  0  0  0  0
  -25.5710  -33.9170   24.2100 N   0  0  0  0  0  0  0  0  0  0  0  0
  -25.9040  -34.9650   23.4440 C   0  0  0  0  0  0  0  0  0  0  0  0
  -26.5740  -34.8550   22.4130 O   0  0  0  0  0  0  0  0  0  0  0  0
  -24.9780  -34.0780   25.0100 H   0  0  0  0  0  0  0  0  0  0  0  0
  -24.1690  -36.7490   23.0880 C   0  0  0  0  0  1  0  0  0  0  0  0
  -25.4170  -36.3540   23.8950 C   0  0  0  0  0  3  0  0  0  0  0  0
  -27.5560  -37.2420   24.7080 C   0  0  0  0  0  1  0  0  0  0  0  0
  -26.4480  -37.4080   23.7720 N   0  0  0  0  0  0  0  0  0  0  0  0
  -26.0440  -38.3290   23.9200 H   0  0  0  0  0  0  0  0  0  0  0  0
  -26.3900  -31.7450   25.1600 C   0  0  1  0  0  0  0  0  0  0  0  0
  -25.2960  -31.5160   26.2260 C   0  0  0  0  0  1  0  0  0  0  0  0
  -26.9720  -30.3670   24.7670 C   0  0  0  0  0  1  0  0  0  0  0  0
  -27.5400  -32.5380   25.8240 C   0  0  0  0  0  1  0  0  0  0  0  0
  1  2  2  0
  1  5  1  0
  2  3  1  0
  3  4  2  0
  5 47  1  0
  5  4  1  0
  6  7  1  0
  6  2  1  0
  8 17  1  0
  8  7  1  0
  9 17  1  0
 10 15  1  0
 11 12  1  0
 11 10  1  0
 13 12  1  0
 13 22  1  0
 13 14  1  0
 15  9  1  0
 15 14  1  0
 16  9  2  0
 17 18  1  0
 19 20  2  0
 20 39  1  0
 21 20  1  0
 21 24  1  0
 22 19  1  0
 22 23  1  0
 23 21  2  0
 24 25  1  0
 25 26  2  0
 27 30  1  0
 27 26  1  0
 28 27  2  0
 29 28  1  0
 29 24  2  0
 30 31  1  0
 31 32  1  0
 32 33  2  0
 34 33  1  0
 34 38  1  0
 35 34  2  0
 36 31  2  0
 36 35  1  0
 37 36  1  0
 39 40  1  0
 40 43  1  0
 40 42  1  0
 41 39  2  0
 44 45  1  0
 44 19  1  0
 46 44  1  0
 47 48  1  0
 49 50  1  0
 49 48  1  0
 51 62  2  0
 52 50  1  0
 52 57  1  0
 53 61  1  0
 53 63  1  0
 54 60  1  0
 54 56  1  0
 55 61  1  0
 56 57  2  0
 56 55  1  0
 58 59  1  0
 58 52  2  0
 59 54  2  0
 60 53  1  0
 61 51  1  0
 63 65  2  0
 64 63  1  0
 66 64  1  0
 67 76  2  0
 67 72  1  0
 68 64  1  0
 68 72  1  0
 69 68  1  0
 70 71  1  0
 70 69  1  0
 71 67  1  0
 72 73  2  0
 73 74  1  0
 75 74  2  0
 76 75  1  0
 77 51  1  0
 77 78  1  0
 77 87  1  0
 78 81  1  0
 79 83  1  0
 79 78  1  0
 80 79  2  0
 83 82  1  0
 85 83  1  0
 85 86  1  0
 85 84  1  0
 87 90  1  1
 87 88  1  0
 89 87  1  0
M  ISO  4   9 100  17 100  49 101  50 101
M  END
>  <TORSDO>  (57) 
F 22

>  <SCORE>  (57) 
-13.353

>  <name>  (57) 
56

>  <ligand_id>  (57) 
56

>  <original_smiles>  (57) 
[H]c1c([H])c([H])c2c(c1[H])C([H])([H])C([H])([H])C([H])([H])C2([H])N([H])C(=O)C1([H])N(C(=O)C([H])(N([H])C(=O)C([H])(N([H])C([H])([H])[H])C([H])([H])[H])C(C([H])([H])[H])(C([H])([H])[H])C([H])([H])[H])C([H])([H])c2c([H])c(OC([H])([H])C([H])([H])C([H])([H])n3nnc(C([H])([H])C([H])([H])C([H])([H])N([H])C(=O)N4C([H])([H])C([H])([H])C([H])([H])C([H])(n5nc(-c6c([H])c([H])c(Oc7c([H])c([H])c(F)c([H])c7F)c([H])c6[H])c(C(=O)N([H])[H])c5N([H])[H])C4([H])[H])c3[H])c([H])c([H])c2C1([H])[H]

>  <smiles>  (57) 
[H]c1c([H])c([H])c2c(c1[H])C([H])([H])C([H])([H])C([H])([H])C2([H])N([H])C(=O)C1([H])N(C(=O)C([H])(N([H])C(=O)C([H])(N([H])C([H])([H])[H])C([H])([H])[H])C(C([H])([H])[H])(C([H])([H])[H])C([H])([H])[H])C([H])([H])c2c([H])c(OC([H])([H])C([H])([H])C([H])([H])n3nnc(C([H])([H])C([H])([H])C([H])([H])N([H])C(=O)N4C([H])([H])C([H])([H])C([H])([H])C([H])(n5nc(-c6c([H])c([H])c(Oc7c([H])c([H])c(F)c([H])c7F)c([H])c6[H])c(C(=O)N([H])[H])c5N([H])[H])C4([H])[H])c3[H])c([H])c([H])c2C1([H])[H]

> <Step>
44.0

> <Scaffold>
O=C(NC1CCCc2ccccc21)C1Cc2ccc(OCCCn3cc(CCCNC(=O)N4CCCC(n5ccc(-c6ccc(Oc7ccccc7)cc6)n5)C4)nn3)cc2CN1

> <SMILES>
CNC(C)C(=O)NC(C(=O)N1Cc2cc(OCCCn3cc(CCCNC(=O)N4CCCC(n5nc(-c6ccc(Oc7ccc(F)cc7F)cc6)c(C(N)=O)c5N)C4)nn3)ccc2CC1C(=O)NC1CCCc2ccccc21)C(C)(C)C

> <Tanimoto ROCS sim>
0.24192844331264496

> <Custom alerts>
1.0

> <Linker Num Aromatic Rings>
1.0

> <Linker Effective Length>
1.0

> <ADV>
0.9919095635414124

> <PostDock Tanimoto ROCS sim>
0.9927198886871338

> <raw_Linker Num Aromatic Rings>
1.0

> <raw_Linker Effective Length>
9.0

> <raw_ADV>
-13.354000091552734

> <total_score>
0.9961573481559753

> <ID>
default_job_156

> <PostDock Tanimoto ROCS sim (re-score)>
0.9836206

> <raw_ADV (re-score)>
-13.353

$$$$
default_job_157
     RDKit          3D

 96105  0  0  1  0  0  0  0  0999 V2000
  -29.0630  -25.0740   21.5360 C   0  0  0  0  0  3  0  0  0  0  0  0
  -29.5480  -23.7610   21.6630 C   0  0  0  0  0  0  0  0  0  0  0  0
  -29.5440  -22.9240   20.5170 C   0  0  0  0  0  0  0  0  0  0  0  0
  -28.9870  -23.4390   19.3190 C   0  0  0  0  0  0  0  0  0  0  0  0
  -28.6110  -25.5120   20.2830 C   0  0  0  0  0  0  0  0  0  0  0  0
  -30.1520  -23.3290   22.9880 C   0  0  0  0  0  1  0  0  0  0  0  0
  -28.9180  -22.6310   18.0330 C   0  0  0  0  0  1  0  0  0  0  0  0
  -28.5460  -24.7080   19.2040 N   0  0  0  0  0  0  0  0  0  0  0  0
  -28.4640  -26.8470   20.0320 O   0  0  0  0  0  0  0  0  0  0  0  0
  -24.6050  -31.8760   23.2510 C   0  0  0  0  0  0  0  0  0  0  0  0
  -27.2480  -27.4730   20.1380 C   0  0  0  0  0  0  0  0  0  0  0  0
  -23.3950  -30.4820   21.6020 C   0  0  0  0  0  3  0  0  0  0  0  0
  -24.8460  -28.9460   20.1750 C   0  0  0  0  0  0  0  0  0  0  0  0
  -25.9200  -30.8390   21.4130 C   0  0  0  0  0  2  0  0  0  0  0  0
  -25.9980  -29.4720   20.7700 C   0  0  0  0  0  0  0  0  0  0  0  0
  -27.2000  -28.7400   20.7550 C   0  0  0  0  0  3  0  0  0  0  0  0
  -26.0820  -26.9450   19.5450 C   0  0  0  0  0  3  0  0  0  0  0  0
  -24.8770  -27.6770   19.5690 C   0  0  0  0  0  3  0  0  0  0  0  0
  -23.6040  -29.8080   20.2180 C   0  0  0  0  0  2  0  0  0  0  0  0
  -24.6580  -31.0760   22.1490 N   0  0  0  0  0  0  0  0  0  0  0  0
  -23.5210  -32.1710   23.7710 O   0  0  0  0  0  0  0  0  0  0  0  0
  -22.7460  -29.4520   22.5530 C   0  0  0  0  0  0  0  0  0  0  0  0
  -21.4220  -29.2730   22.4250 N   0  0  0  0  0  0  0  0  0  0  0  0
  -23.4290  -28.8160   23.3600 O   0  0  0  0  0  0  0  0  0  0  0  0
  -20.9310  -29.8370   21.7440 H   0  0  0  0  0  0  0  0  0  0  0  0
  -18.0410  -28.1000   22.9180 C   0  0  0  0  0  0  0  0  0  0  0  0
  -20.6030  -28.3300   23.1840 C   0  0  0  0  0  3  0  0  0  0  0  0
  -20.6920  -26.9070   22.5840 C   0  0  0  0  0  2  0  0  0  0  0  0
  -19.5830  -26.6110   21.5700 C   0  0  0  0  0  2  0  0  0  0  0  0
  -18.2030  -26.7590   22.2200 C   0  0  0  0  0  2  0  0  0  0  0  0
  -19.1690  -28.8440   23.3560 C   0  0  0  0  0  0  0  0  0  0  0  0
  -18.9640  -30.1010   23.9650 C   0  0  0  0  0  3  0  0  0  0  0  0
  -17.6640  -30.6130   24.1420 C   0  0  0  0  0  3  0  0  0  0  0  0
  -16.5520  -29.8650   23.7200 C   0  0  0  0  0  3  0  0  0  0  0  0
  -16.7400  -28.6090   23.1140 C   0  0  0  0  0  3  0  0  0  0  0  0
  -25.8950  -32.4860   23.8870 C   0  0  0  0  0  3  0  0  0  0  0  0
  -26.3990  -31.7070   25.1630 C   0  0  1  0  0  0  0  0  0  0  0  0
  -25.2970  -31.4760   26.2220 C   0  0  0  0  0  1  0  0  0  0  0  0
  -26.9750  -30.3270   24.7680 C   0  0  0  0  0  1  0  0  0  0  0  0
  -27.5520  -32.4910   25.8320 C   0  0  0  0  0  1  0  0  0  0  0  0
  -25.6000  -33.8870   24.2170 N   0  0  0  0  0  0  0  0  0  0  0  0
  -25.9360  -34.9340   23.4520 C   0  0  0  0  0  0  0  0  0  0  0  0
  -26.6040  -34.8220   22.4190 O   0  0  0  0  0  0  0  0  0  0  0  0
  -25.0050  -34.0470   25.0160 H   0  0  0  0  0  0  0  0  0  0  0  0
  -24.2160  -36.7310   23.0960 C   0  0  0  0  0  1  0  0  0  0  0  0
  -25.4570  -36.3250   23.9050 C   0  0  0  0  0  3  0  0  0  0  0  0
  -27.5980  -37.2000   24.7290 C   0  0  0  0  0  1  0  0  0  0  0  0
  -26.4950  -37.3720   23.7860 N   0  0  0  0  0  0  0  0  0  0  0  0
  -26.0950  -38.2950   23.9330 H   0  0  0  0  0  0  0  0  0  0  0  0
  -30.2870  -21.5860   20.5200 C   0  0  0  0  0  2  0  0  0  0  0  0
  -29.5050  -20.4050   20.9590 N   0  0  0  0  0  4  0  0  0  0  0  0
  -29.2850  -20.5110   21.9350 H   0  0  0  0  0  0  0  0  0  0  0  0
  -28.6350  -20.3420   20.4550 H   0  0  0  0  0  0  0  0  0  0  0  0
  -30.8190  -17.2750   19.3510 C   0  0  0  0  0  2  0  0  0  0  0  0
  -30.4110  -18.7430   19.3020 C   0  0  0  0  0  2  0  0  0  0  0  0
  -29.7370  -17.8910   21.4520 C   0  0  0  0  0  2  0  0  0  0  0  0
  -30.6190  -16.8050   20.8140 C   0  0  0  0  0  3  0  0  0  0  0  0
  -30.2830  -19.1570   20.7730 C   0  0  0  0  0  3  0  0  0  0  0  0
  -30.7440  -14.3890   20.3980 C   0  0  0  0  0  0  0  0  0  0  0  0
  -30.3720  -12.2660   19.2330 C   0  0  0  0  0  2  0  0  0  0  0  0
  -29.4300  -12.5190   18.0390 C   0  0  0  0  0  2  0  0  0  0  0  0
  -27.9580  -12.4000   18.4800 C   0  0  0  0  0  2  0  0  0  0  0  0
  -27.6440  -13.2230   19.7590 C   0  0  0  0  0  3  0  0  0  0  0  0
  -28.7070  -12.9810   20.8560 C   0  0  0  0  0  2  0  0  0  0  0  0
  -30.0300  -13.2450   20.2740 N   0  0  0  0  0  0  0  0  0  0  0  0
  -31.8760  -14.5280   19.9260 O   0  0  0  0  0  0  0  0  0  0  0  0
  -30.0790  -15.4440   20.8920 N   0  0  0  0  0  0  0  0  0  0  0  0
  -29.1480  -15.2970   21.2530 H   0  0  0  0  0  0  0  0  0  0  0  0
  -25.2560  -13.8380   20.4950 C   0  0  0  0  0  0  0  0  0  0  0  0
  -24.1890  -13.0670   20.8710 C   0  0  0  0  0  0  0  0  0  0  0  0
  -24.6430  -11.7140   20.8270 C   0  0  0  0  0  0  0  0  0  0  0  0
  -26.2950  -12.9540   20.2490 N   0  0  0  0  0  0  0  0  0  0  0  0
  -25.9300  -11.6700   20.5050 N   0  0  0  0  0  0  0  0  0  0  0  0
  -23.9140  -10.4540   21.0170 C   0  0  0  0  0  0  0  0  0  0  0  0
  -24.3370   -9.4920   21.9590 C   0  0  0  0  0  3  0  0  0  0  0  0
  -23.6100   -8.2950   22.1360 C   0  0  0  0  0  3  0  0  0  0  0  0
  -22.4440   -8.0540   21.3720 C   0  0  0  0  0  0  0  0  0  0  0  0
  -22.0410   -9.0050   20.4180 C   0  0  0  0  0  3  0  0  0  0  0  0
  -22.7690  -10.1920   20.2390 C   0  0  0  0  0  3  0  0  0  0  0  0
  -21.6870   -6.9100   21.4580 O   0  0  0  0  0  0  0  0  0  0  0  0
  -21.6010   -6.1900   22.6220 C   0  0  0  0  0  0  0  0  0  0  0  0
  -21.1120   -6.7610   23.8170 C   0  0  0  0  0  3  0  0  0  0  0  0
  -20.9750   -5.9670   24.9730 C   0  0  0  0  0  3  0  0  0  0  0  0
  -21.3180   -4.6010   24.9340 C   0  0  0  0  0  0  0  0  0  0  0  0
  -21.8000   -4.0300   23.7430 C   0  0  0  0  0  3  0  0  0  0  0  0
  -21.9390   -4.8220   22.5900 C   0  0  0  0  0  0  0  0  0  0  0  0
  -22.3830   -4.2610   21.4400 F   0  0  0  0  0  0  0  0  0  0  0  0
  -21.1790   -3.8350   26.0410 F   0  0  0  0  0  0  0  0  0  0  0  0
  -22.7970  -13.5490   21.1620 C   0  0  0  0  0  0  0  0  0  0  0  0
  -22.0750  -12.8500   22.0310 N   0  0  0  0  0  0  0  0  0  0  0  0
  -22.3580  -14.5820   20.6560 O   0  0  0  0  0  0  0  0  0  0  0  0
  -22.4440  -12.0150   22.4630 H   0  0  0  0  0  0  0  0  0  0  0  0
  -21.1420  -13.1520   22.2680 H   0  0  0  0  0  0  0  0  0  0  0  0
  -25.4270  -15.2090   20.3220 N   0  0  0  0  0  0  0  0  0  0  0  0
  -24.6600  -15.8630   20.4310 H   0  0  0  0  0  0  0  0  0  0  0  0
  -26.2740  -15.6430   19.9780 H   0  0  0  0  0  0  0  0  0  0  0  0
  1  2  2  0
  2  6  1  0
  3 50  1  0
  3  2  1  0
  4  3  2  0
  5  1  1  0
  7  4  1  0
  8  4  1  0
  8  5  2  0
  9 11  1  0
  9  5  1  0
 10 21  2  0
 11 16  1  0
 12 20  1  0
 12 22  1  0
 13 19  1  0
 13 15  1  0
 14 20  1  0
 15 14  1  0
 16 15  2  0
 17 18  1  0
 17 11  2  0
 18 13  2  0
 19 12  1  0
 20 10  1  0
 22 24  2  0
 23 22  1  0
 25 23  1  0
 26 35  2  0
 26 31  1  0
 27 23  1  0
 27 31  1  0
 28 27  1  0
 29 30  1  0
 29 28  1  0
 30 26  1  0
 31 32  2  0
 32 33  1  0
 34 33  2  0
 35 34  1  0
 36 10  1  0
 36 41  1  0
 36 37  1  0
 37 40  1  1
 37 38  1  0
 39 37  1  0
 41 44  1  0
 42 46  1  0
 42 41  1  0
 43 42  2  0
 46 45  1  0
 48 46  1  0
 48 49  1  0
 48 47  1  0
 50 51  1  0
 51 52  1  0
 53 51  1  0
 54 57  1  0
 55 54  1  0
 55 58  1  0
 57 67  1  0
 57 56  1  0
 58 51  1  0
 58 56  1  0
 59 67  1  0
 60 65  1  0
 61 62  1  0
 61 60  1  0
 63 62  1  0
 63 72  1  0
 63 64  1  0
 65 59  1  0
 65 64  1  0
 66 59  2  0
 67 68  1  0
 69 70  2  0
 70 89  1  0
 71 70  1  0
 71 74  1  0
 72 69  1  0
 72 73  1  0
 73 71  2  0
 74 75  1  0
 75 76  2  0
 77 80  1  0
 77 76  1  0
 78 77  2  0
 79 78  1  0
 79 74  2  0
 80 81  1  0
 81 82  1  0
 82 83  2  0
 84 83  1  0
 84 88  1  0
 85 84  2  0
 86 81  2  0
 86 85  1  0
 87 86  1  0
 89 90  1  0
 90 93  1  0
 90 92  1  0
 91 89  2  0
 94 95  1  0
 94 69  1  0
 96 94  1  0
M  ISO  4   5 101   9 101  59 100  67 100
M  END
>  <TORSDO>  (58) 
F 19

>  <SCORE>  (58) 
-14.325

>  <name>  (58) 
57

>  <ligand_id>  (58) 
57

>  <original_smiles>  (58) 
[H]c1c([H])c([H])c2c(c1[H])C([H])([H])C([H])([H])C([H])([H])C2([H])N([H])C(=O)C1([H])N(C(=O)C([H])(N([H])C(=O)C([H])(N([H])C([H])([H])[H])C([H])([H])[H])C(C([H])([H])[H])(C([H])([H])[H])C([H])([H])[H])C([H])([H])c2c([H])c(Oc3nc(C([H])([H])[H])c(C([H])([H])[N+]([H])([H])C4([H])C([H])([H])C([H])([H])C([H])(N([H])C(=O)N5C([H])([H])C([H])([H])C([H])([H])C([H])(n6nc(-c7c([H])c([H])c(Oc8c([H])c([H])c(F)c([H])c8F)c([H])c7[H])c(C(=O)N([H])[H])c6N([H])[H])C5([H])[H])C4([H])[H])c(C([H])([H])[H])c3[H])c([H])c([H])c2C1([H])[H]

>  <smiles>  (58) 
[H]c1c([H])c([H])c2c(c1[H])C([H])([H])C([H])([H])C([H])([H])C2([H])N([H])C(=O)C1([H])N(C(=O)C([H])(N([H])C(=O)C([H])(N([H])C([H])([H])[H])C([H])([H])[H])C(C([H])([H])[H])(C([H])([H])[H])C([H])([H])[H])C([H])([H])c2c([H])c(Oc3nc(C([H])([H])[H])c(C([H])([H])[N+]([H])([H])C4([H])C([H])([H])C([H])([H])C([H])(N([H])C(=O)N5C([H])([H])C([H])([H])C([H])([H])C([H])(n6nc(-c7c([H])c([H])c(Oc8c([H])c([H])c(F)c([H])c8F)c([H])c7[H])c(C(=O)N([H])[H])c6N([H])[H])C5([H])[H])C4([H])[H])c(C([H])([H])[H])c3[H])c([H])c([H])c2C1([H])[H]

> <Step>
134.0

> <Scaffold>
O=C(NC1CCCc2ccccc21)C1Cc2ccc(Oc3ccc(CNC4CCC(NC(=O)N5CCCC(n6ccc(-c7ccc(Oc8ccccc8)cc7)n6)C5)C4)cn3)cc2CN1

> <SMILES>
CNC(C)C(=O)NC(C(=O)N1Cc2cc(Oc3cc(C)c(CNC4CCC(NC(=O)N5CCCC(n6nc(-c7ccc(Oc8ccc(F)cc8F)cc7)c(C(N)=O)c6N)C5)C4)c(C)n3)ccc2CC1C(=O)NC1CCCc2ccccc21)C(C)(C)C

> <Tanimoto ROCS sim>
0.23086008429527283

> <Custom alerts>
1.0

> <Linker Num Aromatic Rings>
1.0

> <Linker Effective Length>
1.0

> <ADV>
0.9953710436820984

> <PostDock Tanimoto ROCS sim>
0.9892545342445374

> <raw_Linker Num Aromatic Rings>
1.0

> <raw_Linker Effective Length>
9.0

> <raw_ADV>
-14.329999923706055

> <total_score>
0.9961563944816589

> <ID>
default_job_157

> <PostDock Tanimoto ROCS sim (re-score)>
0.9823678

> <raw_ADV (re-score)>
-14.325

$$$$
default_job_158
     RDKit          3D

 90 98  0  0  1  0  0  0  0  0999 V2000
  -28.3450  -22.7240   19.0410 C   0  0  0  0  0  3  0  0  0  0  0  0
  -29.1920  -23.5030   21.1460 C   0  0  0  0  0  3  0  0  0  0  0  0
  -28.6400  -21.3700   19.3950 C   0  0  0  0  0  3  0  0  0  0  0  0
  -29.4910  -22.1490   21.5020 C   0  0  0  0  0  3  0  0  0  0  0  0
  -28.6280  -23.8350   19.8890 C   0  0  0  0  0  0  0  0  0  0  0  0
  -29.2460  -21.0430   20.6340 C   0  0  0  0  0  0  0  0  0  0  0  0
  -29.6500  -19.7230   21.0310 N   0  0  0  0  0  0  0  0  0  0  0  0
  -30.2000  -19.6680   21.8880 H   0  0  0  0  0  0  0  0  0  0  0  0
  -29.3580  -18.3980   20.3960 C   0  0  0  0  0  2  0  0  0  0  0  0
  -30.2450  -17.1940   20.9660 C   0  0  0  0  0  2  0  0  0  0  0  0
  -30.5510  -14.6700   20.4510 C   0  0  0  0  0  0  0  0  0  0  0  0
  -30.3350  -12.4390   19.3680 C   0  0  0  0  0  2  0  0  0  0  0  0
  -29.3940  -12.5690   18.1510 C   0  0  0  0  0  2  0  0  0  0  0  0
  -27.9230  -12.3970   18.5790 C   0  0  0  0  0  2  0  0  0  0  0  0
  -27.5590  -13.2480   19.8250 C   0  0  0  0  0  3  0  0  0  0  0  0
  -28.6170  -13.1060   20.9390 C   0  0  0  0  0  2  0  0  0  0  0  0
  -29.9180  -13.4580   20.3550 N   0  0  0  0  0  0  0  0  0  0  0  0
  -31.7230  -14.8040   20.0890 O   0  0  0  0  0  0  0  0  0  0  0  0
  -29.7930  -15.7660   20.7850 N   0  0  0  0  0  0  0  0  0  0  0  0
  -28.8330  -15.5710   21.0270 H   0  0  0  0  0  0  0  0  0  0  0  0
  -25.1610  -13.8130   20.5420 C   0  0  0  0  0  0  0  0  0  0  0  0
  -24.1030  -13.0230   20.9050 C   0  0  0  0  0  0  0  0  0  0  0  0
  -24.5840  -11.6800   20.8750 C   0  0  0  0  0  0  0  0  0  0  0  0
  -26.2160  -12.9460   20.3090 N   0  0  0  0  0  0  0  0  0  0  0  0
  -25.8740  -11.6580   20.5700 N   0  0  0  0  0  0  0  0  0  0  0  0
  -23.8720  -10.4070   21.0610 C   0  0  0  0  0  0  0  0  0  0  0  0
  -24.3110   -9.4450   21.9960 C   0  0  0  0  0  3  0  0  0  0  0  0
  -23.5990   -8.2380   22.1680 C   0  0  0  0  0  3  0  0  0  0  0  0
  -22.4350   -7.9850   21.4030 C   0  0  0  0  0  0  0  0  0  0  0  0
  -22.0170   -8.9360   20.4560 C   0  0  0  0  0  3  0  0  0  0  0  0
  -22.7300  -10.1350   20.2830 C   0  0  0  0  0  3  0  0  0  0  0  0
  -21.6930   -6.8320   21.4850 O   0  0  0  0  0  0  0  0  0  0  0  0
  -21.6400   -6.0910   22.6390 C   0  0  0  0  0  0  0  0  0  0  0  0
  -21.1780   -6.6410   23.8550 C   0  0  0  0  0  3  0  0  0  0  0  0
  -21.0730   -5.8260   25.0010 C   0  0  0  0  0  3  0  0  0  0  0  0
  -21.4210   -4.4640   24.9300 C   0  0  0  0  0  0  0  0  0  0  0  0
  -21.8760   -3.9150   23.7180 C   0  0  0  0  0  3  0  0  0  0  0  0
  -21.9820   -4.7270   22.5750 C   0  0  0  0  0  0  0  0  0  0  0  0
  -22.4020   -4.1870   21.4050 F   0  0  0  0  0  0  0  0  0  0  0  0
  -21.3110   -3.6790   26.0270 F   0  0  0  0  0  0  0  0  0  0  0  0
  -22.7010  -13.4820   21.1780 C   0  0  0  0  0  0  0  0  0  0  0  0
  -21.9820  -12.7690   22.0370 N   0  0  0  0  0  0  0  0  0  0  0  0
  -22.2530  -14.5070   20.6660 O   0  0  0  0  0  0  0  0  0  0  0  0
  -22.3570  -11.9350   22.4640 H   0  0  0  0  0  0  0  0  0  0  0  0
  -21.0430  -13.0590   22.2720 H   0  0  0  0  0  0  0  0  0  0  0  0
  -25.3080  -15.1850   20.3670 N   0  0  0  0  0  0  0  0  0  0  0  0
  -24.5310  -15.8290   20.4750 H   0  0  0  0  0  0  0  0  0  0  0  0
  -26.1440  -15.6320   20.0170 H   0  0  0  0  0  0  0  0  0  0  0  0
  -28.4790  -25.3070   19.3380 C   0  0  0  0  0  2  0  0  0  0  0  0
  -28.3290  -26.4850   20.2230 O   0  0  0  0  0  0  0  0  0  0  0  0
  -24.5910  -31.8850   23.2360 C   0  0  0  0  0  0  0  0  0  0  0  0
  -27.1980  -27.3190   20.1630 C   0  0  0  0  0  0  0  0  0  0  0  0
  -23.3900  -30.4800   21.6030 C   0  0  0  0  0  3  0  0  0  0  0  0
  -24.8380  -28.9390   20.1710 C   0  0  0  0  0  0  0  0  0  0  0  0
  -25.9310  -30.7940   21.4250 C   0  0  0  0  0  2  0  0  0  0  0  0
  -26.0070  -29.4180   20.7730 C   0  0  0  0  0  0  0  0  0  0  0  0
  -27.1870  -28.6170   20.7640 C   0  0  0  0  0  3  0  0  0  0  0  0
  -25.9940  -26.8840   19.5640 C   0  0  0  0  0  3  0  0  0  0  0  0
  -24.8350  -27.6800   19.5550 C   0  0  0  0  0  3  0  0  0  0  0  0
  -23.6050  -29.8160   20.2200 C   0  0  0  0  0  2  0  0  0  0  0  0
  -24.6580  -31.0670   22.1470 N   0  0  0  0  0  0  0  0  0  0  0  0
  -23.5010  -32.1820   23.7430 O   0  0  0  0  0  0  0  0  0  0  0  0
  -22.7250  -29.4600   22.5610 C   0  0  0  0  0  0  0  0  0  0  0  0
  -21.3980  -29.2850   22.4400 N   0  0  0  0  0  0  0  0  0  0  0  0
  -23.4040  -28.8310   23.3770 O   0  0  0  0  0  0  0  0  0  0  0  0
  -20.9070  -29.8540   21.7660 H   0  0  0  0  0  0  0  0  0  0  0  0
  -18.0190  -28.0870   22.9320 C   0  0  0  0  0  0  0  0  0  0  0  0
  -20.5780  -28.3430   23.2060 C   0  0  0  0  0  3  0  0  0  0  0  0
  -20.6780  -26.9110   22.6270 C   0  0  0  0  0  2  0  0  0  0  0  0
  -19.5760  -26.5920   21.6130 C   0  0  0  0  0  2  0  0  0  0  0  0
  -18.1930  -26.7380   22.2560 C   0  0  0  0  0  2  0  0  0  0  0  0
  -19.1390  -28.8480   23.3640 C   0  0  0  0  0  0  0  0  0  0  0  0
  -18.9200  -30.1110   23.9560 C   0  0  0  0  0  3  0  0  0  0  0  0
  -17.6160  -30.6120   24.1230 C   0  0  0  0  0  3  0  0  0  0  0  0
  -16.5110  -29.8480   23.7080 C   0  0  0  0  0  3  0  0  0  0  0  0
  -16.7130  -28.5880   23.1190 C   0  0  0  0  0  3  0  0  0  0  0  0
  -25.8710  -32.5110   23.8700 C   0  0  0  0  0  3  0  0  0  0  0  0
  -26.3760  -31.7460   25.1570 C   0  0  1  0  0  0  0  0  0  0  0  0
  -25.2730  -31.5220   26.2190 C   0  0  0  0  0  1  0  0  0  0  0  0
  -26.9600  -30.3630   24.7800 C   0  0  0  0  0  1  0  0  0  0  0  0
  -27.5230  -32.5430   25.8240 C   0  0  0  0  0  1  0  0  0  0  0  0
  -25.5680  -33.9120   24.1920 N   0  0  0  0  0  0  0  0  0  0  0  0
  -25.9030  -34.9590   23.4270 C   0  0  0  0  0  0  0  0  0  0  0  0
  -26.5720  -34.8490   22.3960 O   0  0  0  0  0  0  0  0  0  0  0  0
  -24.9840  -34.0740   25.0000 H   0  0  0  0  0  0  0  0  0  0  0  0
  -24.1840  -36.7610   23.0600 C   0  0  0  0  0  1  0  0  0  0  0  0
  -25.4180  -36.3510   23.8790 C   0  0  0  0  0  3  0  0  0  0  0  0
  -27.5520  -37.2280   24.7210 C   0  0  0  0  0  1  0  0  0  0  0  0
  -26.4530  -37.4030   23.7750 N   0  0  0  0  0  0  0  0  0  0  0  0
  -26.0480  -38.3200   23.9310 H   0  0  0  0  0  0  0  0  0  0  0  0
  1  3  2  0
  1  5  1  0
  2  4  1  0
  3  6  1  0
  5  2  2  0
  6  7  1  0
  6  4  2  0
  7  8  1  0
  9 10  1  0
  9  7  1  0
 11 19  1  0
 12 17  1  0
 13 14  1  0
 13 12  1  0
 15 14  1  0
 15 24  1  0
 15 16  1  0
 17 11  1  0
 17 16  1  0
 18 11  2  0
 19 10  1  0
 19 20  1  0
 21 22  2  0
 22 41  1  0
 23 22  1  0
 23 26  1  0
 24 21  1  0
 24 25  1  0
 25 23  2  0
 26 27  1  0
 27 28  2  0
 29 32  1  0
 29 28  1  0
 30 29  2  0
 31 30  1  0
 31 26  2  0
 32 33  1  0
 33 34  1  0
 34 35  2  0
 36 35  1  0
 36 40  1  0
 37 36  2  0
 38 33  2  0
 38 37  1  0
 39 38  1  0
 41 42  1  0
 42 45  1  0
 42 44  1  0
 43 41  2  0
 46 47  1  0
 46 21  1  0
 48 46  1  0
 49  5  1  0
 49 50  1  0
 51 62  2  0
 52 50  1  0
 52 57  1  0
 53 61  1  0
 53 63  1  0
 54 60  1  0
 54 56  1  0
 55 61  1  0
 56 55  1  0
 57 56  2  0
 58 52  2  0
 59 58  1  0
 59 54  2  0
 60 53  1  0
 61 51  1  0
 63 65  2  0
 64 63  1  0
 66 64  1  0
 67 76  2  0
 67 72  1  0
 68 64  1  0
 68 72  1  0
 69 68  1  0
 70 71  1  0
 70 69  1  0
 71 67  1  0
 72 73  2  0
 73 74  1  0
 75 74  2  0
 76 75  1  0
 77 51  1  0
 77 82  1  0
 77 78  1  0
 78 81  1  1
 78 79  1  0
 80 78  1  0
 82 85  1  0
 83 87  1  0
 83 82  1  0
 84 83  2  0
 87 86  1  0
 89 87  1  0
 89 90  1  0
 89 88  1  0
M  ISO  4  11 100  19 100  49 101  50 101
M  END
>  <TORSDO>  (59) 
F 20

>  <SCORE>  (59) 
-13.938

>  <name>  (59) 
58

>  <ligand_id>  (59) 
58

>  <original_smiles>  (59) 
[H]c1c([H])c([H])c2c(c1[H])C([H])([H])C([H])([H])C([H])([H])C2([H])N([H])C(=O)C1([H])N(C(=O)C([H])(N([H])C(=O)C([H])(N([H])C([H])([H])[H])C([H])([H])[H])C(C([H])([H])[H])(C([H])([H])[H])C([H])([H])[H])C([H])([H])c2c([H])c(OC([H])([H])c3c([H])c([H])c(N([H])C([H])([H])C([H])([H])N([H])C(=O)N4C([H])([H])C([H])([H])C([H])([H])C([H])(n5nc(-c6c([H])c([H])c(Oc7c([H])c([H])c(F)c([H])c7F)c([H])c6[H])c(C(=O)N([H])[H])c5N([H])[H])C4([H])[H])c([H])c3[H])c([H])c([H])c2C1([H])[H]

>  <smiles>  (59) 
[H]c1c([H])c([H])c2c(c1[H])C([H])([H])C([H])([H])C([H])([H])C2([H])N([H])C(=O)C1([H])N(C(=O)C([H])(N([H])C(=O)C([H])(N([H])C([H])([H])[H])C([H])([H])[H])C(C([H])([H])[H])(C([H])([H])[H])C([H])([H])[H])C([H])([H])c2c([H])c(OC([H])([H])c3c([H])c([H])c(N([H])C([H])([H])C([H])([H])N([H])C(=O)N4C([H])([H])C([H])([H])C([H])([H])C([H])(n5nc(-c6c([H])c([H])c(Oc7c([H])c([H])c(F)c([H])c7F)c([H])c6[H])c(C(=O)N([H])[H])c5N([H])[H])C4([H])[H])c([H])c3[H])c([H])c([H])c2C1([H])[H]

> <Step>
126.0

> <Scaffold>
O=C(NC1CCCc2ccccc21)C1Cc2ccc(OCc3ccc(NCCNC(=O)N4CCCC(n5ccc(-c6ccc(Oc7ccccc7)cc6)n5)C4)cc3)cc2CN1

> <SMILES>
CNC(C)C(=O)NC(C(=O)N1Cc2cc(OCc3ccc(NCCNC(=O)N4CCCC(n5nc(-c6ccc(Oc7ccc(F)cc7F)cc6)c(C(N)=O)c5N)C4)cc3)ccc2CC1C(=O)NC1CCCc2ccccc21)C(C)(C)C

> <Tanimoto ROCS sim>
0.34869593381881714

> <Custom alerts>
1.0

> <Linker Num Aromatic Rings>
1.0

> <Linker Effective Length>
1.0

> <ADV>
0.9940651059150696

> <PostDock Tanimoto ROCS sim>
0.9905529022216797

> <raw_Linker Num Aromatic Rings>
1.0

> <raw_Linker Effective Length>
8.0

> <raw_ADV>
-13.895999908447266

> <total_score>
0.9961544871330261

> <ID>
default_job_158

> <PostDock Tanimoto ROCS sim (re-score)>
0.9822853

> <raw_ADV (re-score)>
-13.938

$$$$
default_job_159
     RDKit          3D

 92100  0  0  1  0  0  0  0  0999 V2000
  -31.3490  -24.2190   18.7180 C   0  0  0  0  0  3  0  0  0  0  0  0
  -30.9960  -22.9240   18.3070 C   0  0  0  0  0  0  0  0  0  0  0  0
  -29.7650  -22.4320   18.7890 C   0  0  0  0  0  0  0  0  0  0  0  0
  -29.3720  -24.4530   19.8410 C   0  0  0  0  0  0  0  0  0  0  0  0
  -30.5380  -24.9820   19.4780 N   0  0  0  0  0  0  0  0  0  0  0  0
  -28.9660  -23.2110   19.5560 N   0  0  0  0  0  0  0  0  0  0  0  0
  -32.0170  -22.0600   17.2090 Cl  0  0  0  0  0  0  0  0  0  0  0  0
  -29.1630  -21.0940   18.3470 C   0  0  0  0  0  2  0  0  0  0  0  0
  -29.9630  -19.7850   18.5970 C   0  0  0  0  0  2  0  0  0  0  0  0
  -29.8510  -19.1170   19.9850 C   0  0  0  0  0  2  0  0  0  0  0  0
  -30.0430  -17.5830   19.8890 C   0  0  0  0  0  2  0  0  0  0  0  0
  -30.2270  -16.8560   21.2410 C   0  0  0  0  0  2  0  0  0  0  0  0
  -30.6360  -14.4600   20.5410 C   0  0  0  0  0  0  0  0  0  0  0  0
  -30.3520  -12.3190   19.3480 C   0  0  0  0  0  2  0  0  0  0  0  0
  -29.4070  -12.5410   18.1480 C   0  0  0  0  0  2  0  0  0  0  0  0
  -27.9310  -12.4000   18.5730 C   0  0  0  0  0  2  0  0  0  0  0  0
  -27.5940  -13.2230   19.8440 C   0  0  0  0  0  3  0  0  0  0  0  0
  -28.6440  -12.9680   20.9500 C   0  0  0  0  0  2  0  0  0  0  0  0
  -29.9750  -13.2810   20.3940 N   0  0  0  0  0  0  0  0  0  0  0  0
  -31.7420  -14.6870   20.0430 O   0  0  0  0  0  0  0  0  0  0  0  0
  -29.9270  -15.4220   21.1540 N   0  0  0  0  0  0  0  0  0  0  0  0
  -29.0360  -15.1300   21.5290 H   0  0  0  0  0  0  0  0  0  0  0  0
  -25.1890  -13.8360   20.5300 C   0  0  0  0  0  0  0  0  0  0  0  0
  -24.1190  -13.0650   20.8970 C   0  0  0  0  0  0  0  0  0  0  0  0
  -24.5810  -11.7140   20.8780 C   0  0  0  0  0  0  0  0  0  0  0  0
  -26.2370  -12.9540   20.3130 N   0  0  0  0  0  0  0  0  0  0  0  0
  -25.8730  -11.6730   20.5770 N   0  0  0  0  0  0  0  0  0  0  0  0
  -23.8560  -10.4520   21.0730 C   0  0  0  0  0  0  0  0  0  0  0  0
  -24.3000   -9.4790   21.9950 C   0  0  0  0  0  3  0  0  0  0  0  0
  -23.5760   -8.2810   22.1760 C   0  0  0  0  0  3  0  0  0  0  0  0
  -22.3940   -8.0470   21.4350 C   0  0  0  0  0  0  0  0  0  0  0  0
  -21.9680   -9.0080   20.5020 C   0  0  0  0  0  3  0  0  0  0  0  0
  -22.6930  -10.1990   20.3190 C   0  0  0  0  0  3  0  0  0  0  0  0
  -21.6390   -6.9020   21.5270 O   0  0  0  0  0  0  0  0  0  0  0  0
  -21.6230   -6.1410   22.6680 C   0  0  0  0  0  0  0  0  0  0  0  0
  -21.2490   -6.6800   23.9180 C   0  0  0  0  0  3  0  0  0  0  0  0
  -21.1790   -5.8450   25.0520 C   0  0  0  0  0  3  0  0  0  0  0  0
  -21.4740   -4.4740   24.9370 C   0  0  0  0  0  0  0  0  0  0  0  0
  -21.8410   -3.9340   23.6910 C   0  0  0  0  0  3  0  0  0  0  0  0
  -21.9130   -4.7660   22.5600 C   0  0  0  0  0  0  0  0  0  0  0  0
  -22.2480   -4.2370   21.3580 F   0  0  0  0  0  0  0  0  0  0  0  0
  -21.3980   -3.6700   26.0230 F   0  0  0  0  0  0  0  0  0  0  0  0
  -22.7200  -13.5420   21.1610 C   0  0  0  0  0  0  0  0  0  0  0  0
  -21.9900  -12.8500   22.0290 N   0  0  0  0  0  0  0  0  0  0  0  0
  -22.2820  -14.5630   20.6310 O   0  0  0  0  0  0  0  0  0  0  0  0
  -22.3570  -12.0240   22.4770 H   0  0  0  0  0  0  0  0  0  0  0  0
  -21.0510  -13.1520   22.2480 H   0  0  0  0  0  0  0  0  0  0  0  0
  -25.3540  -15.2060   20.3440 N   0  0  0  0  0  0  0  0  0  0  0  0
  -24.5880  -15.8610   20.4430 H   0  0  0  0  0  0  0  0  0  0  0  0
  -26.2090  -15.6420   20.0190 H   0  0  0  0  0  0  0  0  0  0  0  0
  -28.3940  -25.3710   20.5810 C   0  0  0  0  0  2  0  0  0  0  0  0
  -28.4360  -26.7390   20.1260 O   0  0  0  0  0  0  0  0  0  0  0  0
  -24.6220  -31.8960   23.2400 C   0  0  0  0  0  0  0  0  0  0  0  0
  -27.2550  -27.4440   20.1620 C   0  0  0  0  0  0  0  0  0  0  0  0
  -23.4090  -30.4850   21.6120 C   0  0  0  0  0  3  0  0  0  0  0  0
  -24.8550  -28.9430   20.1870 C   0  0  0  0  0  0  0  0  0  0  0  0
  -25.9340  -30.8420   21.4040 C   0  0  0  0  0  2  0  0  0  0  0  0
  -26.0160  -29.4710   20.7660 C   0  0  0  0  0  0  0  0  0  0  0  0
  -27.2200  -28.7300   20.7470 C   0  0  0  0  0  3  0  0  0  0  0  0
  -26.0790  -26.9330   19.5700 C   0  0  0  0  0  3  0  0  0  0  0  0
  -24.8810  -27.6720   19.5860 C   0  0  0  0  0  3  0  0  0  0  0  0
  -23.6120  -29.8010   20.2340 C   0  0  0  0  0  2  0  0  0  0  0  0
  -24.6740  -31.0860   22.1460 N   0  0  0  0  0  0  0  0  0  0  0  0
  -23.5390  -32.1940   23.7620 O   0  0  0  0  0  0  0  0  0  0  0  0
  -22.7620  -29.4660   22.5760 C   0  0  0  0  0  0  0  0  0  0  0  0
  -21.4380  -29.2780   22.4480 N   0  0  0  0  0  0  0  0  0  0  0  0
  -23.4470  -28.8470   23.3940 O   0  0  0  0  0  0  0  0  0  0  0  0
  -20.9460  -29.8290   21.7590 H   0  0  0  0  0  0  0  0  0  0  0  0
  -18.0690  -28.0640   22.9330 C   0  0  0  0  0  0  0  0  0  0  0  0
  -20.6240  -28.3380   23.2200 C   0  0  0  0  0  3  0  0  0  0  0  0
  -20.7390  -26.9050   22.6520 C   0  0  0  0  0  2  0  0  0  0  0  0
  -19.6450  -26.5700   21.6330 C   0  0  0  0  0  2  0  0  0  0  0  0
  -18.2580  -26.7100   22.2670 C   0  0  0  0  0  2  0  0  0  0  0  0
  -19.1800  -28.8350   23.3660 C   0  0  0  0  0  0  0  0  0  0  0  0
  -18.9510  -30.1010   23.9470 C   0  0  0  0  0  3  0  0  0  0  0  0
  -17.6420  -30.5960   24.1000 C   0  0  0  0  0  3  0  0  0  0  0  0
  -16.5450  -29.8210   23.6850 C   0  0  0  0  0  3  0  0  0  0  0  0
  -16.7590  -28.5570   23.1070 C   0  0  0  0  0  3  0  0  0  0  0  0
  -25.9130  -32.5150   23.8630 C   0  0  0  0  0  3  0  0  0  0  0  0
  -25.6120  -33.9130   24.2020 N   0  0  0  0  0  0  0  0  0  0  0  0
  -25.9340  -34.9650   23.4390 C   0  0  0  0  0  0  0  0  0  0  0  0
  -26.5910  -34.8630   22.3990 O   0  0  0  0  0  0  0  0  0  0  0  0
  -25.0270  -34.0660   25.0100 H   0  0  0  0  0  0  0  0  0  0  0  0
  -24.1950  -36.7500   23.1100 C   0  0  0  0  0  1  0  0  0  0  0  0
  -25.4500  -36.3520   23.9030 C   0  0  0  0  0  3  0  0  0  0  0  0
  -27.5970  -37.2400   24.6970 C   0  0  0  0  0  1  0  0  0  0  0  0
  -26.4780  -37.4070   23.7720 N   0  0  0  0  0  0  0  0  0  0  0  0
  -26.0730  -38.3260   23.9270 H   0  0  0  0  0  0  0  0  0  0  0  0
  -26.4380  -31.7360   25.1310 C   0  0  1  0  0  0  0  0  0  0  0  0
  -25.3510  -31.4950   26.2040 C   0  0  0  0  0  1  0  0  0  0  0  0
  -27.0170  -30.3610   24.7260 C   0  0  0  0  0  1  0  0  0  0  0  0
  -27.5950  -32.5240   25.7900 C   0  0  0  0  0  1  0  0  0  0  0  0
  1  5  1  0
  2  1  2  0
  2  3  1  0
  3  6  2  0
  4 51  1  0
  5  4  2  0
  6  4  1  0
  7  2  1  0
  8  9  1  0
  8  3  1  0
  9 10  1  0
 11 10  1  0
 11 12  1  0
 13 21  1  0
 14 19  1  0
 15 16  1  0
 15 14  1  0
 17 16  1  0
 17 26  1  0
 17 18  1  0
 19 13  1  0
 19 18  1  0
 20 13  2  0
 21 12  1  0
 21 22  1  0
 23 24  2  0
 24 43  1  0
 25 24  1  0
 25 28  1  0
 26 23  1  0
 26 27  1  0
 27 25  2  0
 28 29  1  0
 29 30  2  0
 31 34  1  0
 31 30  1  0
 32 31  2  0
 33 32  1  0
 33 28  2  0
 34 35  1  0
 35 36  1  0
 36 37  2  0
 38 37  1  0
 38 42  1  0
 39 38  2  0
 40 35  2  0
 40 39  1  0
 41 40  1  0
 43 44  1  0
 44 47  1  0
 44 46  1  0
 45 43  2  0
 48 49  1  0
 48 23  1  0
 50 48  1  0
 52 54  1  0
 52 51  1  0
 53 64  2  0
 54 59  1  0
 55 63  1  0
 55 65  1  0
 56 62  1  0
 56 58  1  0
 57 63  1  0
 58 57  1  0
 59 58  2  0
 60 61  1  0
 60 54  2  0
 61 56  2  0
 62 55  1  0
 63 53  1  0
 65 67  2  0
 66 65  1  0
 68 66  1  0
 69 78  2  0
 69 74  1  0
 70 66  1  0
 70 74  1  0
 71 70  1  0
 72 73  1  0
 72 71  1  0
 73 69  1  0
 74 75  2  0
 75 76  1  0
 77 76  2  0
 78 77  1  0
 79 53  1  0
 79 80  1  0
 79 89  1  0
 80 83  1  0
 81 85  1  0
 81 80  1  0
 82 81  2  0
 85 84  1  0
 87 85  1  0
 87 88  1  0
 87 86  1  0
 89 92  1  1
 89 90  1  0
 91 89  1  0
M  ISO  4  13 100  21 100  51 101  52 101
M  END
>  <TORSDO>  (60) 
F 22

>  <SCORE>  (60) 
-13.039

>  <name>  (60) 
59

>  <ligand_id>  (60) 
59

>  <original_smiles>  (60) 
[H]c1nc(C([H])([H])Oc2c([H])c([H])c3c(c2[H])C([H])([H])N(C(=O)C([H])(N([H])C(=O)C([H])(N([H])C([H])([H])[H])C([H])([H])[H])C(C([H])([H])[H])(C([H])([H])[H])C([H])([H])[H])C([H])(C(=O)N([H])C2([H])c4c([H])c([H])c([H])c([H])c4C([H])([H])C([H])([H])C2([H])[H])C3([H])[H])nc(C([H])([H])C([H])([H])C([H])([H])C([H])([H])C([H])([H])N([H])C(=O)N2C([H])([H])C([H])([H])C([H])([H])C([H])(n3nc(-c4c([H])c([H])c(Oc5c([H])c([H])c(F)c([H])c5F)c([H])c4[H])c(C(=O)N([H])[H])c3N([H])[H])C2([H])[H])c1Cl

>  <smiles>  (60) 
[H]c1nc(C([H])([H])Oc2c([H])c([H])c3c(c2[H])C([H])([H])N(C(=O)C([H])(N([H])C(=O)C([H])(N([H])C([H])([H])[H])C([H])([H])[H])C(C([H])([H])[H])(C([H])([H])[H])C([H])([H])[H])C([H])(C(=O)N([H])C2([H])c4c([H])c([H])c([H])c([H])c4C([H])([H])C([H])([H])C2([H])[H])C3([H])[H])nc(C([H])([H])C([H])([H])C([H])([H])C([H])([H])C([H])([H])N([H])C(=O)N2C([H])([H])C([H])([H])C([H])([H])C([H])(n3nc(-c4c([H])c([H])c(Oc5c([H])c([H])c(F)c([H])c5F)c([H])c4[H])c(C(=O)N([H])[H])c3N([H])[H])C2([H])[H])c1Cl

> <Step>
44.0

> <Scaffold>
O=C(NC1CCCc2ccccc21)C1Cc2ccc(OCc3nccc(CCCCCNC(=O)N4CCCC(n5ccc(-c6ccc(Oc7ccccc7)cc6)n5)C4)n3)cc2CN1

> <SMILES>
CNC(C)C(=O)NC(C(=O)N1Cc2cc(OCc3ncc(Cl)c(CCCCCNC(=O)N4CCCC(n5nc(-c6ccc(Oc7ccc(F)cc7F)cc6)c(C(N)=O)c5N)C4)n3)ccc2CC1C(=O)NC1CCCc2ccccc21)C(C)(C)C

> <Tanimoto ROCS sim>
0.19048137962818146

> <Custom alerts>
1.0

> <Linker Num Aromatic Rings>
1.0

> <Linker Effective Length>
1.0

> <ADV>
0.9900140166282654

> <PostDock Tanimoto ROCS sim>
0.994566023349762

> <raw_Linker Num Aromatic Rings>
1.0

> <raw_Linker Effective Length>
9.0

> <raw_ADV>
-12.984999656677246

> <total_score>
0.9961450099945068

> <ID>
default_job_159

> <PostDock Tanimoto ROCS sim (re-score)>
0.98633176

> <raw_ADV (re-score)>
-13.039

$$$$
default_job_160
     RDKit          3D

 91 99  0  0  1  0  0  0  0  0999 V2000
  -29.8990  -21.9630   20.8550 C   0  0  0  0  0  2  0  0  0  0  0  0
  -28.9920  -22.9630   20.2830 N   0  0  0  0  0  0  0  0  0  0  0  0
  -28.0540  -22.8030   20.6470 H   0  0  0  0  0  0  0  0  0  0  0  0
  -29.3520  -24.3640   20.5420 C   0  0  0  0  0  2  0  0  0  0  0  0
  -28.2250  -25.2680   19.9820 C   0  0  0  0  0  2  0  0  0  0  0  0
  -28.3750  -26.6810   20.2270 O   0  0  0  0  0  0  0  0  0  0  0  0
  -24.5950  -31.9190   23.2570 C   0  0  0  0  0  0  0  0  0  0  0  0
  -27.2150  -27.4420   20.1790 C   0  0  0  0  0  0  0  0  0  0  0  0
  -23.3840  -30.5210   21.6190 C   0  0  0  0  0  3  0  0  0  0  0  0
  -24.8310  -28.9850   20.1880 C   0  0  0  0  0  0  0  0  0  0  0  0
  -25.9170  -30.8570   21.4310 C   0  0  0  0  0  2  0  0  0  0  0  0
  -25.9940  -29.4890   20.7850 C   0  0  0  0  0  0  0  0  0  0  0  0
  -27.1880  -28.7260   20.7760 C   0  0  0  0  0  3  0  0  0  0  0  0
  -26.0310  -26.9700   19.5590 C   0  0  0  0  0  3  0  0  0  0  0  0
  -24.8450  -27.7250   19.5730 C   0  0  0  0  0  3  0  0  0  0  0  0
  -23.5930  -29.8490   20.2370 C   0  0  0  0  0  2  0  0  0  0  0  0
  -24.6520  -31.1100   22.1620 N   0  0  0  0  0  0  0  0  0  0  0  0
  -23.5090  -32.2200   23.7720 O   0  0  0  0  0  0  0  0  0  0  0  0
  -22.7260  -29.4990   22.5730 C   0  0  0  0  0  0  0  0  0  0  0  0
  -21.4010  -29.3220   22.4400 N   0  0  0  0  0  0  0  0  0  0  0  0
  -23.4040  -28.8700   23.3900 O   0  0  0  0  0  0  0  0  0  0  0  0
  -20.9160  -29.8820   21.7540 H   0  0  0  0  0  0  0  0  0  0  0  0
  -18.0200  -28.1420   22.9240 C   0  0  0  0  0  0  0  0  0  0  0  0
  -20.5770  -28.3850   23.2060 C   0  0  0  0  0  3  0  0  0  0  0  0
  -20.6740  -26.9550   22.6250 C   0  0  0  0  0  2  0  0  0  0  0  0
  -19.5740  -26.6420   21.6060 C   0  0  0  0  0  2  0  0  0  0  0  0
  -18.1900  -26.7930   22.2460 C   0  0  0  0  0  2  0  0  0  0  0  0
  -19.1410  -28.8960   23.3610 C   0  0  0  0  0  0  0  0  0  0  0  0
  -18.9270  -30.1600   23.9530 C   0  0  0  0  0  3  0  0  0  0  0  0
  -17.6250  -30.6680   24.1150 C   0  0  0  0  0  3  0  0  0  0  0  0
  -16.5180  -29.9110   23.6950 C   0  0  0  0  0  3  0  0  0  0  0  0
  -16.7160  -28.6490   23.1060 C   0  0  0  0  0  3  0  0  0  0  0  0
  -25.8830  -32.5310   23.8890 C   0  0  0  0  0  3  0  0  0  0  0  0
  -25.5900  -33.9340   24.2130 N   0  0  0  0  0  0  0  0  0  0  0  0
  -25.9280  -34.9780   23.4430 C   0  0  0  0  0  0  0  0  0  0  0  0
  -26.5930  -34.8610   22.4110 O   0  0  0  0  0  0  0  0  0  0  0  0
  -24.9990  -34.0990   25.0140 H   0  0  0  0  0  0  0  0  0  0  0  0
  -24.2090  -36.7770   23.0810 C   0  0  0  0  0  1  0  0  0  0  0  0
  -25.4510  -36.3720   23.8910 C   0  0  0  0  0  3  0  0  0  0  0  0
  -27.5950  -37.2470   24.7040 C   0  0  0  0  0  1  0  0  0  0  0  0
  -26.4880  -37.4180   23.7670 N   0  0  0  0  0  0  0  0  0  0  0  0
  -26.0880  -38.3410   23.9170 H   0  0  0  0  0  0  0  0  0  0  0  0
  -26.3850  -31.7580   25.1700 C   0  0  1  0  0  0  0  0  0  0  0  0
  -25.2830  -31.5350   26.2320 C   0  0  0  0  0  1  0  0  0  0  0  0
  -26.9570  -30.3730   24.7850 C   0  0  0  0  0  1  0  0  0  0  0  0
  -27.5400  -32.5420   25.8370 C   0  0  0  0  0  1  0  0  0  0  0  0
  -29.3980  -20.5420   20.4700 C   0  0  0  0  0  2  0  0  0  0  0  0
  -30.1420  -19.4100   21.0940 N   0  0  0  0  0  4  0  0  0  0  0  0
  -31.1150  -19.4770   20.8420 H   0  0  0  0  0  0  0  0  0  0  0  0
  -30.0770  -19.5100   22.0940 H   0  0  0  0  0  0  0  0  0  0  0  0
  -30.6670  -14.5490   20.4760 C   0  0  0  0  0  0  0  0  0  0  0  0
  -30.3880  -12.3470   19.4170 C   0  0  0  0  0  2  0  0  0  0  0  0
  -29.4540  -12.5010   18.1980 C   0  0  0  0  0  2  0  0  0  0  0  0
  -27.9790  -12.3540   18.6240 C   0  0  0  0  0  2  0  0  0  0  0  0
  -27.6160  -13.2160   19.8620 C   0  0  0  0  0  3  0  0  0  0  0  0
  -28.6740  -13.0860   20.9820 C   0  0  0  0  0  2  0  0  0  0  0  0
  -29.9930  -13.3680   20.3960 N   0  0  0  0  0  0  0  0  0  0  0  0
  -31.8660  -14.6530   20.2050 O   0  0  0  0  0  0  0  0  0  0  0  0
  -29.7410  -17.7230   19.2440 C   0  0  0  0  0  2  0  0  0  0  0  0
  -29.4360  -16.2270   19.2480 C   0  0  0  0  0  2  0  0  0  0  0  0
  -30.2690  -16.8320   21.3750 C   0  0  0  0  0  2  0  0  0  0  0  0
  -29.6120  -18.0670   20.7160 C   0  0  0  0  0  3  0  0  0  0  0  0
  -29.8960  -15.6660   20.5390 N   0  0  0  0  0  0  0  0  0  0  0  0
  -25.2200  -13.8340   20.5540 C   0  0  0  0  0  0  0  0  0  0  0  0
  -24.1480  -13.0630   20.9150 C   0  0  0  0  0  0  0  0  0  0  0  0
  -24.6120  -11.7120   20.8980 C   0  0  0  0  0  0  0  0  0  0  0  0
  -26.2660  -12.9490   20.3390 N   0  0  0  0  0  0  0  0  0  0  0  0
  -25.9060  -11.6700   20.6060 N   0  0  0  0  0  0  0  0  0  0  0  0
  -23.8900  -10.4490   21.0840 C   0  0  0  0  0  0  0  0  0  0  0  0
  -24.3290   -9.4790   22.0110 C   0  0  0  0  0  3  0  0  0  0  0  0
  -23.6080   -8.2790   22.1850 C   0  0  0  0  0  3  0  0  0  0  0  0
  -22.4340   -8.0410   21.4320 C   0  0  0  0  0  0  0  0  0  0  0  0
  -22.0140   -9.0010   20.4930 C   0  0  0  0  0  3  0  0  0  0  0  0
  -22.7370  -10.1920   20.3170 C   0  0  0  0  0  3  0  0  0  0  0  0
  -21.6830   -6.8940   21.5170 O   0  0  0  0  0  0  0  0  0  0  0  0
  -21.6500   -6.1400   22.6620 C   0  0  0  0  0  0  0  0  0  0  0  0
  -21.2420   -6.6820   23.9000 C   0  0  0  0  0  3  0  0  0  0  0  0
  -21.1560   -5.8530   25.0370 C   0  0  0  0  0  3  0  0  0  0  0  0
  -21.4680   -4.4840   24.9370 C   0  0  0  0  0  0  0  0  0  0  0  0
  -21.8710   -3.9420   23.7030 C   0  0  0  0  0  3  0  0  0  0  0  0
  -21.9580   -4.7680   22.5690 C   0  0  0  0  0  0  0  0  0  0  0  0
  -22.3260   -4.2360   21.3780 F   0  0  0  0  0  0  0  0  0  0  0  0
  -21.3790   -3.6870   26.0270 F   0  0  0  0  0  0  0  0  0  0  0  0
  -22.7470  -13.5380   21.1660 C   0  0  0  0  0  0  0  0  0  0  0  0
  -22.0090  -12.8430   22.0260 N   0  0  0  0  0  0  0  0  0  0  0  0
  -22.3130  -14.5610   20.6370 O   0  0  0  0  0  0  0  0  0  0  0  0
  -22.3730  -12.0160   22.4760 H   0  0  0  0  0  0  0  0  0  0  0  0
  -21.0680  -13.1430   22.2380 H   0  0  0  0  0  0  0  0  0  0  0  0
  -25.3860  -15.2040   20.3720 N   0  0  0  0  0  0  0  0  0  0  0  0
  -24.6200  -15.8610   20.4760 H   0  0  0  0  0  0  0  0  0  0  0  0
  -26.2480  -15.6420   20.0770 H   0  0  0  0  0  0  0  0  0  0  0  0
  2  4  1  0
  2  3  1  0
  2  1  1  0
  5  6  1  0
  5  4  1  0
  7 18  2  0
  8  6  1  0
  8 13  1  0
  9 17  1  0
  9 19  1  0
 10 16  1  0
 10 12  1  0
 11 17  1  0
 12 11  1  0
 13 12  2  0
 14 15  1  0
 14  8  2  0
 15 10  2  0
 16  9  1  0
 17  7  1  0
 19 21  2  0
 20 19  1  0
 22 20  1  0
 23 32  2  0
 23 28  1  0
 24 20  1  0
 24 28  1  0
 25 24  1  0
 26 27  1  0
 26 25  1  0
 27 23  1  0
 28 29  2  0
 29 30  1  0
 31 30  2  0
 32 31  1  0
 33  7  1  0
 33 34  1  0
 33 43  1  0
 34 37  1  0
 35 39  1  0
 35 34  1  0
 36 35  2  0
 39 38  1  0
 41 39  1  0
 41 42  1  0
 41 40  1  0
 43 46  1  1
 43 44  1  0
 45 43  1  0
 47  1  1  0
 47 48  1  0
 48 50  1  0
 49 48  1  0
 51 63  1  0
 52 57  1  0
 53 54  1  0
 53 52  1  0
 55 54  1  0
 55 67  1  0
 55 56  1  0
 57 51  1  0
 57 56  1  0
 58 51  2  0
 59 60  1  0
 59 62  1  0
 60 63  1  0
 62 48  1  0
 62 61  1  0
 63 61  1  0
 64 65  2  0
 65 84  1  0
 66 65  1  0
 66 69  1  0
 67 64  1  0
 67 68  1  0
 68 66  2  0
 69 70  1  0
 70 71  2  0
 72 75  1  0
 72 71  1  0
 73 72  2  0
 74 73  1  0
 74 69  2  0
 75 76  1  0
 76 77  1  0
 77 78  2  0
 79 78  1  0
 79 83  1  0
 80 79  2  0
 81 76  2  0
 81 80  1  0
 82 81  1  0
 84 85  1  0
 85 88  1  0
 85 87  1  0
 86 84  2  0
 89 90  1  0
 89 64  1  0
 91 89  1  0
M  ISO  4   5 101   6 101  51 100  63 100
M  END
>  <TORSDO>  (61) 
F 21

>  <SCORE>  (61) 
-13.569

>  <name>  (61) 
60

>  <ligand_id>  (61) 
60

>  <original_smiles>  (61) 
[H]c1c([H])c([H])c2c(c1[H])C([H])([H])C([H])([H])C([H])([H])C2([H])N([H])C(=O)C1([H])N(C(=O)C([H])(N([H])C(=O)C([H])(N([H])C([H])([H])[H])C([H])([H])[H])C(C([H])([H])[H])(C([H])([H])[H])C([H])([H])[H])C([H])([H])c2c([H])c(OC([H])([H])C([H])([H])N([H])C([H])([H])C([H])([H])[N+]([H])([H])C3([H])C([H])([H])N(C(=O)N4C([H])([H])C([H])([H])C([H])([H])C([H])(n5nc(-c6c([H])c([H])c(Oc7c([H])c([H])c(F)c([H])c7F)c([H])c6[H])c(C(=O)N([H])[H])c5N([H])[H])C4([H])[H])C([H])([H])C3([H])[H])c([H])c([H])c2C1([H])[H]

>  <smiles>  (61) 
[H]c1c([H])c([H])c2c(c1[H])C([H])([H])C([H])([H])C([H])([H])C2([H])N([H])C(=O)C1([H])N(C(=O)C([H])(N([H])C(=O)C([H])(N([H])C([H])([H])[H])C([H])([H])[H])C(C([H])([H])[H])(C([H])([H])[H])C([H])([H])[H])C([H])([H])c2c([H])c(OC([H])([H])C([H])([H])N([H])C([H])([H])C([H])([H])[N+]([H])([H])C3([H])C([H])([H])N(C(=O)N4C([H])([H])C([H])([H])C([H])([H])C([H])(n5nc(-c6c([H])c([H])c(Oc7c([H])c([H])c(F)c([H])c7F)c([H])c6[H])c(C(=O)N([H])[H])c5N([H])[H])C4([H])[H])C([H])([H])C3([H])[H])c([H])c([H])c2C1([H])[H]

> <Step>
194.0

> <Scaffold>
O=C(NC1CCCc2ccccc21)C1Cc2ccc(OCCNCCNC3CCN(C(=O)N4CCCC(n5ccc(-c6ccc(Oc7ccccc7)cc6)n5)C4)C3)cc2CN1

> <SMILES>
CNC(C)C(=O)NC(C(=O)N1Cc2cc(OCCNCCNC3CCN(C(=O)N4CCCC(n5nc(-c6ccc(Oc7ccc(F)cc7F)cc6)c(C(N)=O)c5N)C4)C3)ccc2CC1C(=O)NC1CCCc2ccccc21)C(C)(C)C

> <Tanimoto ROCS sim>
0.26167070865631104

> <Custom alerts>
1.0

> <Linker Num Aromatic Rings>
1.0

> <Linker Effective Length>
1.0

> <ADV>
0.992658257484436

> <PostDock Tanimoto ROCS sim>
0.9919111132621765

> <raw_Linker Num Aromatic Rings>
0.0

> <raw_Linker Effective Length>
8.0

> <raw_ADV>
-13.52400016784668

> <total_score>
0.9961423277854919

> <ID>
default_job_160

> <PostDock Tanimoto ROCS sim (re-score)>
0.98648494

> <raw_ADV (re-score)>
-13.569

$$$$
default_job_161
     RDKit          3D

 93102  0  0  1  0  0  0  0  0999 V2000
  -30.4090  -20.7720   18.4640 C   0  0  0  0  0  2  0  0  0  0  0  0
  -31.0330  -21.6250   19.5650 C   0  0  0  0  0  2  0  0  0  0  0  0
  -29.4720  -20.1400   19.5190 C   0  0  0  0  0  3  0  0  0  0  0  0
  -29.7300  -21.4620   20.3610 C   0  0  0  0  0  3  0  0  0  0  0  0
  -30.7280  -14.5740   20.3720 C   0  0  0  0  0  0  0  0  0  0  0  0
  -30.3890  -12.3710   19.3180 C   0  0  0  0  0  2  0  0  0  0  0  0
  -29.4500  -12.5340   18.1070 C   0  0  0  0  0  2  0  0  0  0  0  0
  -27.9800  -12.4070   18.5470 C   0  0  0  0  0  2  0  0  0  0  0  0
  -27.6420  -13.2730   19.7930 C   0  0  0  0  0  3  0  0  0  0  0  0
  -28.7120  -13.1340   20.8980 C   0  0  0  0  0  2  0  0  0  0  0  0
  -30.0130  -13.4160   20.2850 N   0  0  0  0  0  0  0  0  0  0  0  0
  -31.9370  -14.5820   20.1260 O   0  0  0  0  0  0  0  0  0  0  0  0
  -29.7990  -16.6470   21.3780 C   0  0  0  0  0  2  0  0  0  0  0  0
  -29.1920  -18.0770   21.0750 C   0  0  0  0  0  2  0  0  0  0  0  0
  -30.4880  -16.5390   19.0510 C   0  0  0  0  0  2  0  0  0  0  0  0
  -29.6480  -17.7900   18.7520 C   0  0  0  0  0  3  0  0  0  0  0  0
  -28.1940  -17.4610   18.3540 C   0  0  0  0  0  1  0  0  0  0  0  0
  -30.0360  -15.7490   20.2160 N   0  0  0  0  0  0  0  0  0  0  0  0
  -29.7980  -18.7110   19.8920 N   0  0  0  0  0  0  0  0  0  0  0  0
  -25.2630  -13.8710   20.5520 C   0  0  0  0  0  0  0  0  0  0  0  0
  -24.1970  -13.0980   20.9250 C   0  0  0  0  0  0  0  0  0  0  0  0
  -24.6540  -11.7460   20.8780 C   0  0  0  0  0  0  0  0  0  0  0  0
  -26.3010  -12.9900   20.2950 N   0  0  0  0  0  0  0  0  0  0  0  0
  -25.9410  -11.7070   20.5550 N   0  0  0  0  0  0  0  0  0  0  0  0
  -23.9240  -10.4840   21.0630 C   0  0  0  0  0  0  0  0  0  0  0  0
  -24.3580   -9.5070   21.9850 C   0  0  0  0  0  3  0  0  0  0  0  0
  -23.6290   -8.3100   22.1570 C   0  0  0  0  0  3  0  0  0  0  0  0
  -22.4480   -8.0840   21.4100 C   0  0  0  0  0  0  0  0  0  0  0  0
  -22.0340   -9.0510   20.4770 C   0  0  0  0  0  3  0  0  0  0  0  0
  -22.7630  -10.2380   20.3010 C   0  0  0  0  0  3  0  0  0  0  0  0
  -21.6880   -6.9420   21.4940 O   0  0  0  0  0  0  0  0  0  0  0  0
  -21.6410   -6.1940   22.6420 C   0  0  0  0  0  0  0  0  0  0  0  0
  -21.1930   -6.7360   23.8670 C   0  0  0  0  0  3  0  0  0  0  0  0
  -21.0900   -5.9110   25.0050 C   0  0  0  0  0  3  0  0  0  0  0  0
  -21.4260   -4.5480   24.9210 C   0  0  0  0  0  0  0  0  0  0  0  0
  -21.8670   -4.0060   23.7020 C   0  0  0  0  0  3  0  0  0  0  0  0
  -21.9700   -4.8260   22.5660 C   0  0  0  0  0  0  0  0  0  0  0  0
  -22.3740   -4.2930   21.3870 F   0  0  0  0  0  0  0  0  0  0  0  0
  -21.3220   -3.7530   26.0140 F   0  0  0  0  0  0  0  0  0  0  0  0
  -22.8040  -13.5790   21.2130 C   0  0  0  0  0  0  0  0  0  0  0  0
  -22.0800  -12.8840   22.0840 N   0  0  0  0  0  0  0  0  0  0  0  0
  -22.3680  -14.6090   20.7020 O   0  0  0  0  0  0  0  0  0  0  0  0
  -22.4490  -12.0540   22.5240 H   0  0  0  0  0  0  0  0  0  0  0  0
  -21.1440  -13.1890   22.3110 H   0  0  0  0  0  0  0  0  0  0  0  0
  -25.4340  -15.2420   20.3900 N   0  0  0  0  0  0  0  0  0  0  0  0
  -24.6770  -15.9020   20.5200 H   0  0  0  0  0  0  0  0  0  0  0  0
  -26.2920  -15.6760   20.0800 H   0  0  0  0  0  0  0  0  0  0  0  0
  -28.7490  -22.5910   20.1280 N   0  0  0  0  0  4  0  0  0  0  0  0
  -27.9100  -22.3650   20.6380 H   0  0  0  0  0  0  0  0  0  0  0  0
  -28.4980  -22.5740   19.1520 H   0  0  0  0  0  0  0  0  0  0  0  0
  -29.1520  -24.0110   20.4820 C   0  0  0  0  0  2  0  0  0  0  0  0
  -28.1120  -25.0940   20.0070 C   0  0  0  0  0  2  0  0  0  0  0  0
  -28.3490  -26.5210   20.2830 O   0  0  0  0  0  0  0  0  0  0  0  0
  -24.6380  -31.9060   23.2820 C   0  0  0  0  0  0  0  0  0  0  0  0
  -27.2340  -27.3660   20.2130 C   0  0  0  0  0  0  0  0  0  0  0  0
  -23.4330  -30.5170   21.6390 C   0  0  0  0  0  3  0  0  0  0  0  0
  -24.8800  -28.9770   20.2080 C   0  0  0  0  0  0  0  0  0  0  0  0
  -25.9750  -30.8250   21.4700 C   0  0  0  0  0  2  0  0  0  0  0  0
  -26.0480  -29.4550   20.8130 C   0  0  0  0  0  0  0  0  0  0  0  0
  -27.2290  -28.6620   20.8080 C   0  0  0  0  0  3  0  0  0  0  0  0
  -26.0440  -26.9430   19.5730 C   0  0  0  0  0  3  0  0  0  0  0  0
  -24.8780  -27.7260   19.5780 C   0  0  0  0  0  3  0  0  0  0  0  0
  -23.6480  -29.8540   20.2540 C   0  0  0  0  0  2  0  0  0  0  0  0
  -24.7020  -31.0940   22.1900 N   0  0  0  0  0  0  0  0  0  0  0  0
  -23.5490  -32.2140   23.7870 O   0  0  0  0  0  0  0  0  0  0  0  0
  -22.7660  -29.4930   22.5880 C   0  0  0  0  0  0  0  0  0  0  0  0
  -21.4390  -29.3240   22.4570 N   0  0  0  0  0  0  0  0  0  0  0  0
  -23.4390  -28.8550   23.4010 O   0  0  0  0  0  0  0  0  0  0  0  0
  -20.9550  -29.8920   21.7780 H   0  0  0  0  0  0  0  0  0  0  0  0
  -18.0510  -28.1590   22.9480 C   0  0  0  0  0  0  0  0  0  0  0  0
  -20.6120  -28.3880   23.2210 C   0  0  0  0  0  3  0  0  0  0  0  0
  -20.6970  -26.9600   22.6350 C   0  0  0  0  0  2  0  0  0  0  0  0
  -19.5910  -26.6560   21.6190 C   0  0  0  0  0  2  0  0  0  0  0  0
  -18.2110  -26.8130   22.2640 C   0  0  0  0  0  2  0  0  0  0  0  0
  -19.1780  -28.9050   23.3840 C   0  0  0  0  0  0  0  0  0  0  0  0
  -18.9720  -30.1670   23.9850 C   0  0  0  0  0  3  0  0  0  0  0  0
  -17.6720  -30.6800   24.1550 C   0  0  0  0  0  3  0  0  0  0  0  0
  -16.5600  -29.9310   23.7330 C   0  0  0  0  0  3  0  0  0  0  0  0
  -16.7510  -28.6720   23.1350 C   0  0  0  0  0  3  0  0  0  0  0  0
  -25.9230  -32.5200   23.9210 C   0  0  0  0  0  3  0  0  0  0  0  0
  -26.4160  -31.7460   25.2050 C   0  0  1  0  0  0  0  0  0  0  0  0
  -25.3070  -31.5180   26.2570 C   0  0  0  0  0  1  0  0  0  0  0  0
  -26.9960  -30.3630   24.8250 C   0  0  0  0  0  1  0  0  0  0  0  0
  -27.5620  -32.5340   25.8840 C   0  0  0  0  0  1  0  0  0  0  0  0
  -25.6260  -33.9210   24.2450 N   0  0  0  0  0  0  0  0  0  0  0  0
  -25.9470  -34.9650   23.4690 C   0  0  0  0  0  0  0  0  0  0  0  0
  -26.5990  -34.8490   22.4290 O   0  0  0  0  0  0  0  0  0  0  0  0
  -25.0430  -34.0850   25.0530 H   0  0  0  0  0  0  0  0  0  0  0  0
  -24.2060  -36.7510   23.1450 C   0  0  0  0  0  1  0  0  0  0  0  0
  -25.4720  -36.3580   23.9250 C   0  0  0  0  0  3  0  0  0  0  0  0
  -27.6240  -37.2590   24.6870 C   0  0  0  0  0  1  0  0  0  0  0  0
  -26.4980  -37.4100   23.7680 N   0  0  0  0  0  0  0  0  0  0  0  0
  -26.0950  -38.3310   23.9120 H   0  0  0  0  0  0  0  0  0  0  0  0
  1  2  1  0
  2  4  1  0
  3  1  1  0
  3 19  1  0
  3  4  1  0
  4 48  1  0
  6 11  1  0
  7  8  1  0
  7  6  1  0
  9  8  1  0
  9 23  1  0
  9 10  1  0
 11  5  1  0
 11 10  1  0
 12  5  2  0
 14 13  1  0
 15 18  1  0
 16 17  1  0
 16 15  1  0
 16 19  1  0
 18  5  1  0
 18 13  1  0
 19 14  1  0
 20 21  2  0
 21 40  1  0
 22 21  1  0
 22 25  1  0
 23 20  1  0
 23 24  1  0
 24 22  2  0
 25 26  1  0
 26 27  2  0
 28 31  1  0
 28 27  1  0
 29 28  2  0
 30 29  1  0
 30 25  2  0
 31 32  1  0
 32 33  1  0
 33 34  2  0
 35 34  1  0
 35 39  1  0
 36 35  2  0
 37 32  2  0
 37 36  1  0
 38 37  1  0
 40 41  1  0
 41 44  1  0
 41 43  1  0
 42 40  2  0
 45 46  1  0
 45 20  1  0
 47 45  1  0
 48 51  1  0
 48 49  1  0
 50 48  1  0
 52 53  1  0
 52 51  1  0
 54 65  2  0
 55 53  1  0
 55 60  1  0
 56 64  1  0
 56 66  1  0
 57 63  1  0
 57 59  1  0
 58 64  1  0
 59 58  1  0
 60 59  2  0
 61 62  1  0
 61 55  2  0
 62 57  2  0
 63 56  1  0
 64 54  1  0
 66 68  2  0
 67 66  1  0
 69 67  1  0
 70 79  2  0
 70 75  1  0
 71 67  1  0
 71 75  1  0
 72 71  1  0
 73 74  1  0
 73 72  1  0
 74 70  1  0
 75 76  2  0
 76 77  1  0
 78 77  2  0
 79 78  1  0
 80 54  1  0
 80 85  1  0
 80 81  1  0
 81 84  1  1
 81 82  1  0
 83 81  1  0
 85 88  1  0
 86 90  1  0
 86 85  1  0
 87 86  2  0
 90 89  1  0
 92 93  1  0
 92 90  1  0
 92 91  1  0
M  ISO  4   5 100  18 100  52 101  53 101
M  END
>  <TORSDO>  (62) 
F 19

>  <SCORE>  (62) 
-14.31

>  <name>  (62) 
61

>  <ligand_id>  (62) 
61

>  <original_smiles>  (62) 
[H]c1c([H])c([H])c2c(c1[H])C([H])([H])C([H])([H])C([H])([H])C2([H])N([H])C(=O)C1([H])N(C(=O)C([H])(N([H])C(=O)C([H])(N([H])C([H])([H])[H])C([H])([H])[H])C(C([H])([H])[H])(C([H])([H])[H])C([H])([H])[H])C([H])([H])c2c([H])c(OC([H])([H])C([H])([H])[N+]([H])([H])C3([H])C([H])([H])C([H])([H])C3([H])N3C([H])([H])C([H])([H])N(C(=O)N4C([H])([H])C([H])([H])C([H])([H])C([H])(n5nc(-c6c([H])c([H])c(Oc7c([H])c([H])c(F)c([H])c7F)c([H])c6[H])c(C(=O)N([H])[H])c5N([H])[H])C4([H])[H])C([H])([H])C3([H])C([H])([H])[H])c([H])c([H])c2C1([H])[H]

>  <smiles>  (62) 
[H]c1c([H])c([H])c2c(c1[H])C([H])([H])C([H])([H])C([H])([H])C2([H])N([H])C(=O)C1([H])N(C(=O)C([H])(N([H])C(=O)C([H])(N([H])C([H])([H])[H])C([H])([H])[H])C(C([H])([H])[H])(C([H])([H])[H])C([H])([H])[H])C([H])([H])c2c([H])c(OC([H])([H])C([H])([H])[N+]([H])([H])C3([H])C([H])([H])C([H])([H])C3([H])N3C([H])([H])C([H])([H])N(C(=O)N4C([H])([H])C([H])([H])C([H])([H])C([H])(n5nc(-c6c([H])c([H])c(Oc7c([H])c([H])c(F)c([H])c7F)c([H])c6[H])c(C(=O)N([H])[H])c5N([H])[H])C4([H])[H])C([H])([H])C3([H])C([H])([H])[H])c([H])c([H])c2C1([H])[H]

> <Step>
173.0

> <Scaffold>
O=C(NC1CCCc2ccccc21)C1Cc2ccc(OCCNC3CCC3N3CCN(C(=O)N4CCCC(n5ccc(-c6ccc(Oc7ccccc7)cc6)n5)C4)CC3)cc2CN1

> <SMILES>
CNC(C)C(=O)NC(C(=O)N1Cc2cc(OCCNC3CCC3N3CCN(C(=O)N4CCCC(n5nc(-c6ccc(Oc7ccc(F)cc7F)cc6)c(C(N)=O)c5N)C4)CC3C)ccc2CC1C(=O)NC1CCCc2ccccc21)C(C)(C)C

> <Tanimoto ROCS sim>
0.24213270843029022

> <Custom alerts>
1.0

> <Linker Num Aromatic Rings>
1.0

> <Linker Effective Length>
1.0

> <ADV>
0.9952555894851685

> <PostDock Tanimoto ROCS sim>
0.9892333149909973

> <raw_Linker Num Aromatic Rings>
0.0

> <raw_Linker Effective Length>
8.0

> <raw_ADV>
-14.286999702453613

> <total_score>
0.9961221814155579

> <ID>
default_job_161

> <PostDock Tanimoto ROCS sim (re-score)>
0.9825806

> <raw_ADV (re-score)>
-14.31

$$$$
default_job_162
     RDKit          3D

 95105  0  0  1  0  0  0  0  0999 V2000
  -30.0480  -21.5030   22.5300 C   0  0  0  0  0  3  0  0  0  0  0  0
  -30.5320  -22.7290   21.9910 C   0  0  0  0  0  0  0  0  0  0  0  0
  -30.9520  -20.5510   22.1390 C   0  0  0  0  0  0  0  0  0  0  0  0
  -31.6410  -22.5400   21.2910 N   0  0  0  0  0  0  0  0  0  0  0  0
  -31.9060  -21.2060   21.3680 N   0  0  0  0  0  0  0  0  0  0  0  0
  -34.0410  -21.5640   19.9980 C   0  0  0  0  0  2  0  0  0  0  0  0
  -33.0940  -20.6750   19.2220 C   0  0  0  0  0  2  0  0  0  0  0  0
  -33.0980  -20.6300   20.7350 C   0  0  0  0  0  3  0  0  0  0  0  0
  -29.9850  -24.1240   22.2130 C   0  0  0  0  0  2  0  0  0  0  0  0
  -29.4160  -24.8110   20.9560 C   0  0  0  0  0  2  0  0  0  0  0  0
  -28.7730  -26.1810   21.2640 C   0  0  0  0  0  2  0  0  0  0  0  0
  -28.3390  -26.7680   20.0430 O   0  0  0  0  0  0  0  0  0  0  0  0
  -24.5490  -31.9370   23.2290 C   0  0  0  0  0  0  0  0  0  0  0  0
  -27.1890  -27.5100   20.1270 C   0  0  0  0  0  0  0  0  0  0  0  0
  -23.3400  -30.5270   21.5930 C   0  0  0  0  0  3  0  0  0  0  0  0
  -24.7930  -28.9950   20.1620 C   0  0  0  0  0  0  0  0  0  0  0  0
  -25.8660  -30.8810   21.4030 C   0  0  0  0  0  2  0  0  0  0  0  0
  -25.9510  -29.5150   20.7600 C   0  0  0  0  0  0  0  0  0  0  0  0
  -27.1530  -28.7750   20.7520 C   0  0  0  0  0  3  0  0  0  0  0  0
  -26.0230  -26.9970   19.5270 C   0  0  0  0  0  3  0  0  0  0  0  0
  -24.8210  -27.7300   19.5490 C   0  0  0  0  0  3  0  0  0  0  0  0
  -23.5510  -29.8520   20.2120 C   0  0  0  0  0  2  0  0  0  0  0  0
  -24.6030  -31.1250   22.1360 N   0  0  0  0  0  0  0  0  0  0  0  0
  -23.4650  -32.2410   23.7420 O   0  0  0  0  0  0  0  0  0  0  0  0
  -22.6930  -29.5030   22.5520 C   0  0  0  0  0  0  0  0  0  0  0  0
  -21.3710  -29.3130   22.4160 N   0  0  0  0  0  0  0  0  0  0  0  0
  -23.3750  -28.8830   23.3710 O   0  0  0  0  0  0  0  0  0  0  0  0
  -20.8880  -29.8640   21.7210 H   0  0  0  0  0  0  0  0  0  0  0  0
  -17.9980  -28.1020   22.8750 C   0  0  0  0  0  0  0  0  0  0  0  0
  -20.5520  -28.3710   23.1760 C   0  0  0  0  0  3  0  0  0  0  0  0
  -20.6680  -26.9430   22.5980 C   0  0  0  0  0  2  0  0  0  0  0  0
  -19.5800  -26.6150   21.5710 C   0  0  0  0  0  2  0  0  0  0  0  0
  -18.1900  -26.7530   22.2020 C   0  0  0  0  0  2  0  0  0  0  0  0
  -19.1090  -28.8680   23.3160 C   0  0  0  0  0  0  0  0  0  0  0  0
  -18.8800  -30.1290   23.9070 C   0  0  0  0  0  3  0  0  0  0  0  0
  -17.5720  -30.6270   24.0620 C   0  0  0  0  0  3  0  0  0  0  0  0
  -16.4750  -29.8550   23.6400 C   0  0  0  0  0  3  0  0  0  0  0  0
  -16.6880  -28.5960   23.0520 C   0  0  0  0  0  3  0  0  0  0  0  0
  -25.8410  -32.5490   23.8580 C   0  0  0  0  0  3  0  0  0  0  0  0
  -25.5480  -33.9480   24.1890 N   0  0  0  0  0  0  0  0  0  0  0  0
  -25.8910  -34.9930   23.4260 C   0  0  0  0  0  0  0  0  0  0  0  0
  -26.5620  -34.8820   22.3970 O   0  0  0  0  0  0  0  0  0  0  0  0
  -24.9460  -34.1080   24.9850 H   0  0  0  0  0  0  0  0  0  0  0  0
  -24.1780  -36.7930   23.0590 C   0  0  0  0  0  1  0  0  0  0  0  0
  -25.4110  -36.3820   23.8790 C   0  0  0  0  0  3  0  0  0  0  0  0
  -27.5480  -37.2490   24.7270 C   0  0  0  0  0  1  0  0  0  0  0  0
  -26.4530  -37.4280   23.7750 N   0  0  0  0  0  0  0  0  0  0  0  0
  -26.0530  -38.3510   23.9200 H   0  0  0  0  0  0  0  0  0  0  0  0
  -26.3510  -31.7740   25.1350 C   0  0  1  0  0  0  0  0  0  0  0  0
  -25.2500  -31.5400   26.1950 C   0  0  0  0  0  1  0  0  0  0  0  0
  -26.9370  -30.3960   24.7480 C   0  0  0  0  0  1  0  0  0  0  0  0
  -27.5040  -32.5620   25.8040 C   0  0  0  0  0  1  0  0  0  0  0  0
  -30.9950  -19.0750   22.4730 C   0  0  0  0  0  2  0  0  0  0  0  0
  -30.7670  -14.5220   20.4040 C   0  0  0  0  0  0  0  0  0  0  0  0
  -30.4230  -12.3300   19.3480 C   0  0  0  0  0  2  0  0  0  0  0  0
  -29.4950  -12.4620   18.1280 C   0  0  0  0  0  2  0  0  0  0  0  0
  -28.0160  -12.3460   18.5500 C   0  0  0  0  0  2  0  0  0  0  0  0
  -27.6580  -13.2310   19.7760 C   0  0  0  0  0  3  0  0  0  0  0  0
  -28.7160  -13.1120   20.8960 C   0  0  0  0  0  2  0  0  0  0  0  0
  -30.0360  -13.3770   20.3080 N   0  0  0  0  0  0  0  0  0  0  0  0
  -31.9580  -14.5620   20.0820 O   0  0  0  0  0  0  0  0  0  0  0  0
  -29.0020  -17.6650   19.4360 C   0  0  0  0  0  2  0  0  0  0  0  0
  -29.8820  -18.6560   20.1820 C   0  0  0  0  0  2  0  0  0  0  0  0
  -29.7480  -16.3360   19.2900 C   0  0  0  0  0  2  0  0  0  0  0  0
  -30.7470  -16.6650   21.5280 C   0  0  0  0  0  2  0  0  0  0  0  0
  -30.1450  -18.1090   21.5900 C   0  0  0  0  0  3  0  0  0  0  0  0
  -30.1070  -15.7010   20.5810 N   0  0  0  0  0  0  0  0  0  0  0  0
  -25.2640  -13.8470   20.4780 C   0  0  0  0  0  0  0  0  0  0  0  0
  -24.1890  -13.0770   20.8380 C   0  0  0  0  0  0  0  0  0  0  0  0
  -24.6480  -11.7240   20.8250 C   0  0  0  0  0  0  0  0  0  0  0  0
  -26.3060  -12.9600   20.2590 N   0  0  0  0  0  0  0  0  0  0  0  0
  -25.9420  -11.6790   20.5280 N   0  0  0  0  0  0  0  0  0  0  0  0
  -23.9160  -10.4660   21.0150 C   0  0  0  0  0  0  0  0  0  0  0  0
  -24.3290   -9.5070   21.9650 C   0  0  0  0  0  3  0  0  0  0  0  0
  -23.5960   -8.3130   22.1410 C   0  0  0  0  0  3  0  0  0  0  0  0
  -22.4360   -8.0710   21.3680 C   0  0  0  0  0  0  0  0  0  0  0  0
  -22.0460   -9.0180   20.4030 C   0  0  0  0  0  3  0  0  0  0  0  0
  -22.7790  -10.2020   20.2250 C   0  0  0  0  0  3  0  0  0  0  0  0
  -21.6730   -6.9330   21.4540 O   0  0  0  0  0  0  0  0  0  0  0  0
  -21.5900   -6.2090   22.6170 C   0  0  0  0  0  0  0  0  0  0  0  0
  -21.1070   -6.7770   23.8160 C   0  0  0  0  0  3  0  0  0  0  0  0
  -20.9740   -5.9780   24.9700 C   0  0  0  0  0  3  0  0  0  0  0  0
  -21.3140   -4.6120   24.9240 C   0  0  0  0  0  0  0  0  0  0  0  0
  -21.7900   -4.0450   23.7290 C   0  0  0  0  0  3  0  0  0  0  0  0
  -21.9260   -4.8410   22.5790 C   0  0  0  0  0  0  0  0  0  0  0  0
  -22.3650   -4.2840   21.4250 F   0  0  0  0  0  0  0  0  0  0  0  0
  -21.1770   -3.8420   26.0300 F   0  0  0  0  0  0  0  0  0  0  0  0
  -22.7910  -13.5600   21.0920 C   0  0  0  0  0  0  0  0  0  0  0  0
  -22.0490  -12.8670   21.9520 N   0  0  0  0  0  0  0  0  0  0  0  0
  -22.3630  -14.5840   20.5620 O   0  0  0  0  0  0  0  0  0  0  0  0
  -22.4110  -12.0410   22.4050 H   0  0  0  0  0  0  0  0  0  0  0  0
  -21.1060  -13.1630   22.1540 H   0  0  0  0  0  0  0  0  0  0  0  0
  -25.4330  -15.2160   20.2970 N   0  0  0  0  0  0  0  0  0  0  0  0
  -24.6680  -15.8720   20.4180 H   0  0  0  0  0  0  0  0  0  0  0  0
  -26.2960  -15.6620   20.0130 H   0  0  0  0  0  0  0  0  0  0  0  0
  2  9  1  0
  2  1  1  0
  3 53  1  0
  3  1  2  0
  4  5  1  0
  4  2  2  0
  5  3  1  0
  6  8  1  0
  7  6  1  0
  7  8  1  0
  8  5  1  0
 10 11  1  0
 10  9  1  0
 12 14  1  0
 12 11  1  0
 13 24  2  0
 14 19  1  0
 15 23  1  0
 15 25  1  0
 16 22  1  0
 16 18  1  0
 17 23  1  0
 18 17  1  0
 19 18  2  0
 20 21  1  0
 20 14  2  0
 21 16  2  0
 22 15  1  0
 23 13  1  0
 25 27  2  0
 26 25  1  0
 28 26  1  0
 29 38  2  0
 29 34  1  0
 30 26  1  0
 30 34  1  0
 31 30  1  0
 32 33  1  0
 32 31  1  0
 33 29  1  0
 34 35  2  0
 35 36  1  0
 37 36  2  0
 38 37  1  0
 39 13  1  0
 39 40  1  0
 39 49  1  0
 40 43  1  0
 41 45  1  0
 41 40  1  0
 42 41  2  0
 45 44  1  0
 47 45  1  0
 47 48  1  0
 47 46  1  0
 49 52  1  1
 49 50  1  0
 51 49  1  0
 54 67  1  0
 55 60  1  0
 56 57  1  0
 56 55  1  0
 58 57  1  0
 58 71  1  0
 58 59  1  0
 60 54  1  0
 60 59  1  0
 61 54  2  0
 62 63  1  0
 63 66  1  0
 64 62  1  0
 64 67  1  0
 65 66  1  0
 66 53  1  0
 67 65  1  0
 68 69  2  0
 69 88  1  0
 70 69  1  0
 70 73  1  0
 71 68  1  0
 71 72  1  0
 72 70  2  0
 73 74  1  0
 74 75  2  0
 76 79  1  0
 76 75  1  0
 77 76  2  0
 78 77  1  0
 78 73  2  0
 79 80  1  0
 80 81  1  0
 81 82  2  0
 83 82  1  0
 83 87  1  0
 84 83  2  0
 85 80  2  0
 85 84  1  0
 86 85  1  0
 88 89  1  0
 89 92  1  0
 89 91  1  0
 90 88  2  0
 93 94  1  0
 93 68  1  0
 95 93  1  0
M  ISO  4  11 101  12 101  54 100  67 100
M  END
>  <TORSDO>  (63) 
F 21

>  <SCORE>  (63) 
-13.734

>  <name>  (63) 
62

>  <ligand_id>  (63) 
62

>  <original_smiles>  (63) 
[H]c1c([H])c([H])c2c(c1[H])C([H])([H])C([H])([H])C([H])([H])C2([H])N([H])C(=O)C1([H])N(C(=O)C([H])(N([H])C(=O)C([H])(N([H])C([H])([H])[H])C([H])([H])[H])C(C([H])([H])[H])(C([H])([H])[H])C([H])([H])[H])C([H])([H])c2c([H])c(OC([H])([H])C([H])([H])C([H])([H])c3nn(C4([H])C([H])([H])C4([H])[H])c(C([H])([H])C4([H])C([H])([H])N(C(=O)N5C([H])([H])C([H])([H])C([H])([H])C([H])(n6nc(-c7c([H])c([H])c(Oc8c([H])c([H])c(F)c([H])c8F)c([H])c7[H])c(C(=O)N([H])[H])c6N([H])[H])C5([H])[H])C([H])([H])C([H])([H])C4([H])[H])c3[H])c([H])c([H])c2C1([H])[H]

>  <smiles>  (63) 
[H]c1c([H])c([H])c2c(c1[H])C([H])([H])C([H])([H])C([H])([H])C2([H])N([H])C(=O)C1([H])N(C(=O)C([H])(N([H])C(=O)C([H])(N([H])C([H])([H])[H])C([H])([H])[H])C(C([H])([H])[H])(C([H])([H])[H])C([H])([H])[H])C([H])([H])c2c([H])c(OC([H])([H])C([H])([H])C([H])([H])c3nn(C4([H])C([H])([H])C4([H])[H])c(C([H])([H])C4([H])C([H])([H])N(C(=O)N5C([H])([H])C([H])([H])C([H])([H])C([H])(n6nc(-c7c([H])c([H])c(Oc8c([H])c([H])c(F)c([H])c8F)c([H])c7[H])c(C(=O)N([H])[H])c6N([H])[H])C5([H])[H])C([H])([H])C([H])([H])C4([H])[H])c3[H])c([H])c([H])c2C1([H])[H]

> <Step>
33.0

> <Scaffold>
O=C(NC1CCCc2ccccc21)C1Cc2ccc(OCCCc3cc(CC4CCCN(C(=O)N5CCCC(n6ccc(-c7ccc(Oc8ccccc8)cc7)n6)C5)C4)n(C4CC4)n3)cc2CN1

> <SMILES>
CNC(C)C(=O)NC(C(=O)N1Cc2cc(OCCCc3cc(CC4CCCN(C(=O)N5CCCC(n6nc(-c7ccc(Oc8ccc(F)cc8F)cc7)c(C(N)=O)c6N)C5)C4)n(C4CC4)n3)ccc2CC1C(=O)NC1CCCc2ccccc21)C(C)(C)C

> <Tanimoto ROCS sim>
0.2140287458896637

> <Custom alerts>
1.0

> <Linker Num Aromatic Rings>
1.0

> <Linker Effective Length>
1.0

> <ADV>
0.9935665130615234

> <PostDock Tanimoto ROCS sim>
0.9909124374389648

> <raw_Linker Num Aromatic Rings>
1.0

> <raw_Linker Effective Length>
9.0

> <raw_ADV>
-13.755000114440918

> <total_score>
0.9961197376251221

> <ID>
default_job_162

> <PostDock Tanimoto ROCS sim (re-score)>
0.98259574

> <raw_ADV (re-score)>
-13.734

$$$$
default_job_163
     RDKit          3D

 94103  0  0  1  0  0  0  0  0999 V2000
  -27.6170  -23.9200   17.0230 C   0  0  0  0  0  3  0  0  0  0  0  0
  -27.3590  -22.5570   17.2090 C   0  0  0  0  0  3  0  0  0  0  0  0
  -27.9820  -24.7100   18.1220 C   0  0  0  0  0  3  0  0  0  0  0  0
  -27.5560  -21.9580   18.4690 C   0  0  0  0  0  0  0  0  0  0  0  0
  -28.0690  -22.7130   19.5590 C   0  0  0  0  0  0  0  0  0  0  0  0
  -28.1440  -24.1570   19.4140 C   0  0  0  0  0  0  0  0  0  0  0  0
  -27.1060  -20.5150   18.6400 C   0  0  0  0  0  2  0  0  0  0  0  0
  -28.4720  -21.9170   20.8300 C   0  0  0  0  0  2  0  0  0  0  0  0
  -28.2460  -19.4970   18.7100 C   0  0  0  0  0  2  0  0  0  0  0  0
  -29.4290  -20.6600   20.6350 C   0  0  0  0  0  2  0  0  0  0  0  0
  -28.8390  -19.2930   20.1200 C   0  0  0  0  0  3  0  0  0  0  0  0
  -28.3090  -25.1690   20.5810 C   0  0  0  0  0  2  0  0  0  0  0  0
  -28.3510  -26.6070   20.2620 O   0  0  0  0  0  0  0  0  0  0  0  0
  -24.5550  -31.9140   23.2850 C   0  0  0  0  0  0  0  0  0  0  0  0
  -27.1840  -27.3730   20.2670 C   0  0  0  0  0  0  0  0  0  0  0  0
  -23.3540  -30.5040   21.6520 C   0  0  0  0  0  3  0  0  0  0  0  0
  -24.8070  -28.9460   20.2430 C   0  0  0  0  0  0  0  0  0  0  0  0
  -25.8870  -30.8360   21.4650 C   0  0  0  0  0  2  0  0  0  0  0  0
  -25.9710  -29.4560   20.8320 C   0  0  0  0  0  0  0  0  0  0  0  0
  -27.1640  -28.6820   20.8260 C   0  0  0  0  0  3  0  0  0  0  0  0
  -25.9910  -26.8890   19.6880 C   0  0  0  0  0  3  0  0  0  0  0  0
  -24.8160  -27.6660   19.6650 C   0  0  0  0  0  3  0  0  0  0  0  0
  -23.5690  -29.8190   20.2770 C   0  0  0  0  0  2  0  0  0  0  0  0
  -24.6190  -31.0970   22.1950 N   0  0  0  0  0  0  0  0  0  0  0  0
  -23.4660  -32.2160   23.7930 O   0  0  0  0  0  0  0  0  0  0  0  0
  -22.6870  -29.4920   22.6130 C   0  0  0  0  0  0  0  0  0  0  0  0
  -21.3670  -29.2950   22.4630 N   0  0  0  0  0  0  0  0  0  0  0  0
  -23.3590  -28.8830   23.4510 O   0  0  0  0  0  0  0  0  0  0  0  0
  -20.8830  -29.8390   21.7600 H   0  0  0  0  0  0  0  0  0  0  0  0
  -17.9950  -28.0640   22.9070 C   0  0  0  0  0  0  0  0  0  0  0  0
  -20.5440  -28.3550   23.2270 C   0  0  0  0  0  3  0  0  0  0  0  0
  -20.6750  -26.9190   22.6680 C   0  0  0  0  0  2  0  0  0  0  0  0
  -19.5980  -26.5730   21.6370 C   0  0  0  0  0  2  0  0  0  0  0  0
  -18.2020  -26.7100   22.2510 C   0  0  0  0  0  2  0  0  0  0  0  0
  -19.0960  -28.8440   23.3520 C   0  0  0  0  0  0  0  0  0  0  0  0
  -18.8520  -30.1110   23.9240 C   0  0  0  0  0  3  0  0  0  0  0  0
  -17.5390  -30.6000   24.0570 C   0  0  0  0  0  3  0  0  0  0  0  0
  -16.4520  -29.8180   23.6290 C   0  0  0  0  0  3  0  0  0  0  0  0
  -16.6810  -28.5520   23.0610 C   0  0  0  0  0  3  0  0  0  0  0  0
  -25.8380  -32.5350   23.9220 C   0  0  0  0  0  3  0  0  0  0  0  0
  -26.3240  -31.7780   25.2180 C   0  0  1  0  0  0  0  0  0  0  0  0
  -25.2130  -31.5660   26.2720 C   0  0  0  0  0  1  0  0  0  0  0  0
  -26.9030  -30.3910   24.8550 C   0  0  0  0  0  1  0  0  0  0  0  0
  -27.4720  -32.5730   25.8880 C   0  0  0  0  0  1  0  0  0  0  0  0
  -25.5410  -33.9410   24.2270 N   0  0  0  0  0  0  0  0  0  0  0  0
  -25.8840  -34.9770   23.4510 C   0  0  0  0  0  0  0  0  0  0  0  0
  -26.5590  -34.8490   22.4250 O   0  0  0  0  0  0  0  0  0  0  0  0
  -24.9470  -34.1140   25.0250 H   0  0  0  0  0  0  0  0  0  0  0  0
  -24.1770  -36.7820   23.0470 C   0  0  0  0  0  1  0  0  0  0  0  0
  -25.4060  -36.3790   23.8790 C   0  0  0  0  0  3  0  0  0  0  0  0
  -27.5380  -37.2600   24.7210 C   0  0  0  0  0  1  0  0  0  0  0  0
  -26.4520  -37.4190   23.7590 N   0  0  0  0  0  0  0  0  0  0  0  0
  -26.0530  -38.3460   23.8830 H   0  0  0  0  0  0  0  0  0  0  0  0
  -29.8250  -18.0430   20.0580 C   0  0  0  0  0  2  0  0  0  0  0  0
  -31.1350  -17.3280   22.1660 C   0  0  0  0  0  1  0  0  0  0  0  0
  -29.9110  -17.0510   21.2780 C   0  0  0  0  0  3  0  0  0  0  0  0
  -30.5550  -14.6140   20.4600 C   0  0  0  0  0  0  0  0  0  0  0  0
  -30.3400  -12.4420   19.2700 C   0  0  0  0  0  2  0  0  0  0  0  0
  -29.3610  -12.6250   18.0890 C   0  0  0  0  0  2  0  0  0  0  0  0
  -27.8970  -12.4450   18.5440 C   0  0  0  0  0  2  0  0  0  0  0  0
  -27.5700  -13.2470   19.8320 C   0  0  0  0  0  3  0  0  0  0  0  0
  -28.6530  -13.0180   20.9090 C   0  0  0  0  0  2  0  0  0  0  0  0
  -29.9490  -13.3970   20.3200 N   0  0  0  0  0  0  0  0  0  0  0  0
  -31.6910  -14.8350   20.0270 O   0  0  0  0  0  0  0  0  0  0  0  0
  -29.7530  -15.5910   20.9690 N   0  0  0  0  0  0  0  0  0  0  0  0
  -28.8430  -15.2320   21.2140 H   0  0  0  0  0  0  0  0  0  0  0  0
  -25.1810  -13.8140   20.6010 C   0  0  0  0  0  0  0  0  0  0  0  0
  -24.1310  -13.0230   20.9780 C   0  0  0  0  0  0  0  0  0  0  0  0
  -24.6080  -11.6770   20.9170 C   0  0  0  0  0  0  0  0  0  0  0  0
  -26.2320  -12.9470   20.3340 N   0  0  0  0  0  0  0  0  0  0  0  0
  -25.8910  -11.6580   20.5830 N   0  0  0  0  0  0  0  0  0  0  0  0
  -23.9000  -10.4050   21.1020 C   0  0  0  0  0  0  0  0  0  0  0  0
  -24.3550   -9.4320   22.0190 C   0  0  0  0  0  3  0  0  0  0  0  0
  -23.6470   -8.2240   22.1920 C   0  0  0  0  0  3  0  0  0  0  0  0
  -22.4700   -7.9790   21.4450 C   0  0  0  0  0  0  0  0  0  0  0  0
  -22.0350   -8.9400   20.5150 C   0  0  0  0  0  3  0  0  0  0  0  0
  -22.7440  -10.1400   20.3420 C   0  0  0  0  0  3  0  0  0  0  0  0
  -21.7320   -6.8230   21.5270 O   0  0  0  0  0  0  0  0  0  0  0  0
  -21.7060   -6.0660   22.6700 C   0  0  0  0  0  0  0  0  0  0  0  0
  -21.2530   -6.5890   23.9010 C   0  0  0  0  0  3  0  0  0  0  0  0
  -21.1780   -5.7560   25.0350 C   0  0  0  0  0  3  0  0  0  0  0  0
  -21.5440   -4.4010   24.9400 C   0  0  0  0  0  0  0  0  0  0  0  0
  -21.9890   -3.8760   23.7140 C   0  0  0  0  0  3  0  0  0  0  0  0
  -22.0670   -4.7050   22.5820 C   0  0  0  0  0  0  0  0  0  0  0  0
  -22.4770   -4.1900   21.3980 F   0  0  0  0  0  0  0  0  0  0  0  0
  -21.4620   -3.5970   26.0270 F   0  0  0  0  0  0  0  0  0  0  0  0
  -22.7340  -13.4790   21.2870 C   0  0  0  0  0  0  0  0  0  0  0  0
  -22.0320  -12.7590   22.1550 N   0  0  0  0  0  0  0  0  0  0  0  0
  -22.2750  -14.5100   20.7950 O   0  0  0  0  0  0  0  0  0  0  0  0
  -22.4180  -11.9250   22.5730 H   0  0  0  0  0  0  0  0  0  0  0  0
  -21.0960  -13.0450   22.4030 H   0  0  0  0  0  0  0  0  0  0  0  0
  -25.3280  -15.1900   20.4400 N   0  0  0  0  0  0  0  0  0  0  0  0
  -24.5500  -15.8300   20.5640 H   0  0  0  0  0  0  0  0  0  0  0  0
  -26.1580  -15.6420   20.0800 H   0  0  0  0  0  0  0  0  0  0  0  0
  1  2  2  0
  1  3  1  0
  2  4  1  0
  3  6  2  0
  4  7  1  0
  4  5  2  0
  5  8  1  0
  6  5  1  0
  6 12  1  0
  7  9  1  0
  9 11  1  0
 10  8  1  0
 11 54  1  0
 11 10  1  0
 13 15  1  0
 13 12  1  0
 14 25  2  0
 15 20  1  0
 16 24  1  0
 16 26  1  0
 17 23  1  0
 17 19  1  0
 18 24  1  0
 19 18  1  0
 20 19  2  0
 21 15  2  0
 22 21  1  0
 22 17  2  0
 23 16  1  0
 24 14  1  0
 26 28  2  0
 27 26  1  0
 29 27  1  0
 30 39  2  0
 30 35  1  0
 31 27  1  0
 31 35  1  0
 32 31  1  0
 33 34  1  0
 33 32  1  0
 34 30  1  0
 35 36  2  0
 36 37  1  0
 38 37  2  0
 39 38  1  0
 40 14  1  0
 40 45  1  0
 40 41  1  0
 41 44  1  1
 41 42  1  0
 43 41  1  0
 45 48  1  0
 46 50  1  0
 46 45  1  0
 47 46  2  0
 50 49  1  0
 52 50  1  0
 52 53  1  0
 52 51  1  0
 54 56  1  0
 56 55  1  0
 57 65  1  0
 58 63  1  0
 59 60  1  0
 59 58  1  0
 61 60  1  0
 61 70  1  0
 61 62  1  0
 63 57  1  0
 63 62  1  0
 64 57  2  0
 65 66  1  0
 65 56  1  0
 67 68  2  0
 68 87  1  0
 69 68  1  0
 69 72  1  0
 70 71  1  0
 70 67  1  0
 71 69  2  0
 72 73  1  0
 73 74  2  0
 75 78  1  0
 75 74  1  0
 76 75  2  0
 77 76  1  0
 77 72  2  0
 78 79  1  0
 79 80  1  0
 80 81  2  0
 82 81  1  0
 82 86  1  0
 83 82  2  0
 84 79  2  0
 84 83  1  0
 85 84  1  0
 87 88  1  0
 88 91  1  0
 88 90  1  0
 89 87  2  0
 92 93  1  0
 92 67  1  0
 94 92  1  0
M  ISO  4  12 101  13 101  57 100  65 100
M  END
>  <TORSDO>  (64) 
F 19

>  <SCORE>  (64) 
-13.833

>  <name>  (64) 
63

>  <ligand_id>  (64) 
63

>  <original_smiles>  (64) 
[H]c1c([H])c([H])c2c(c1[H])C([H])([H])C([H])([H])C([H])([H])C2([H])N([H])C(=O)C1([H])N(C(=O)C([H])(N([H])C(=O)C([H])(N([H])C([H])([H])[H])C([H])([H])[H])C(C([H])([H])[H])(C([H])([H])[H])C([H])([H])[H])C([H])([H])c2c([H])c(OC([H])([H])c3c([H])c([H])c([H])c4c3C([H])([H])C([H])([H])C([H])(C([H])([H])C([H])(N([H])C(=O)N3C([H])([H])C([H])([H])C([H])([H])C([H])(n5nc(-c6c([H])c([H])c(Oc7c([H])c([H])c(F)c([H])c7F)c([H])c6[H])c(C(=O)N([H])[H])c5N([H])[H])C3([H])[H])C([H])([H])[H])C([H])([H])C4([H])[H])c([H])c([H])c2C1([H])[H]

>  <smiles>  (64) 
[H]c1c([H])c([H])c2c(c1[H])C([H])([H])C([H])([H])C([H])([H])C2([H])N([H])C(=O)C1([H])N(C(=O)C([H])(N([H])C(=O)C([H])(N([H])C([H])([H])[H])C([H])([H])[H])C(C([H])([H])[H])(C([H])([H])[H])C([H])([H])[H])C([H])([H])c2c([H])c(OC([H])([H])c3c([H])c([H])c([H])c4c3C([H])([H])C([H])([H])C([H])(C([H])([H])C([H])(N([H])C(=O)N3C([H])([H])C([H])([H])C([H])([H])C([H])(n5nc(-c6c([H])c([H])c(Oc7c([H])c([H])c(F)c([H])c7F)c([H])c6[H])c(C(=O)N([H])[H])c5N([H])[H])C3([H])[H])C([H])([H])[H])C([H])([H])C4([H])[H])c([H])c([H])c2C1([H])[H]

> <Step>
139.0

> <Scaffold>
O=C(NC1CCCc2ccccc21)C1Cc2ccc(OCc3cccc4c3CCC(CCNC(=O)N3CCCC(n5ccc(-c6ccc(Oc7ccccc7)cc6)n5)C3)CC4)cc2CN1

> <SMILES>
CNC(C)C(=O)NC(C(=O)N1Cc2cc(OCc3cccc4c3CCC(CC(C)NC(=O)N3CCCC(n5nc(-c6ccc(Oc7ccc(F)cc7F)cc6)c(C(N)=O)c5N)C3)CC4)ccc2CC1C(=O)NC1CCCc2ccccc21)C(C)(C)C

> <Tanimoto ROCS sim>
0.21909655630588531

> <Custom alerts>
1.0

> <Linker Num Aromatic Rings>
1.0

> <Linker Effective Length>
1.0

> <ADV>
0.9935958981513977

> <PostDock Tanimoto ROCS sim>
0.9908686876296997

> <raw_Linker Num Aromatic Rings>
1.0

> <raw_Linker Effective Length>
8.0

> <raw_ADV>
-13.762999534606934

> <total_score>
0.9961161613464355

> <ID>
default_job_163

> <PostDock Tanimoto ROCS sim (re-score)>
0.98071015

> <raw_ADV (re-score)>
-13.833

$$$$
default_job_164
     RDKit          3D

 90 98  0  0  1  0  0  0  0  0999 V2000
  -28.6230  -22.6720   20.5590 N   0  0  0  0  0  4  0  0  0  0  0  0
  -29.3120  -22.6700   21.2950 H   0  0  0  0  0  0  0  0  0  0  0  0
  -27.7270  -22.5110   20.9920 H   0  0  0  0  0  0  0  0  0  0  0  0
  -28.9130  -21.5090   19.6500 C   0  0  0  0  0  2  0  0  0  0  0  0
  -28.7270  -20.0280   20.2100 C   0  0  0  0  0  2  0  0  0  0  0  0
  -31.0220  -19.3060   19.7010 C   0  0  0  0  0  1  0  0  0  0  0  0
  -29.9030  -19.2120   20.6390 N   0  0  0  0  0  0  0  0  0  0  0  0
  -30.6410  -14.5520   20.4460 C   0  0  0  0  0  0  0  0  0  0  0  0
  -30.3610  -12.3450   19.3640 C   0  0  0  0  0  2  0  0  0  0  0  0
  -29.4270  -12.5120   18.1470 C   0  0  0  0  0  2  0  0  0  0  0  0
  -27.9490  -12.3880   18.5680 C   0  0  0  0  0  2  0  0  0  0  0  0
  -27.6040  -13.2390   19.8220 C   0  0  0  0  0  3  0  0  0  0  0  0
  -28.6590  -13.0580   20.9350 C   0  0  0  0  0  2  0  0  0  0  0  0
  -29.9740  -13.3640   20.3560 N   0  0  0  0  0  0  0  0  0  0  0  0
  -31.8020  -14.6730   20.0430 O   0  0  0  0  0  0  0  0  0  0  0  0
  -30.5600  -16.7660   21.5670 C   0  0  0  0  0  2  0  0  0  0  0  0
  -29.4970  -16.6510   19.8150 C   0  0  0  0  0  2  0  0  0  0  0  0
  -29.5870  -17.7490   20.8890 C   0  0  0  0  0  3  0  0  0  0  0  0
  -29.9200  -15.6490   20.8280 N   0  0  0  0  0  0  0  0  0  0  0  0
  -25.2070  -13.8460   20.5200 C   0  0  0  0  0  0  0  0  0  0  0  0
  -24.1360  -13.0750   20.8870 C   0  0  0  0  0  0  0  0  0  0  0  0
  -24.5970  -11.7230   20.8650 C   0  0  0  0  0  0  0  0  0  0  0  0
  -26.2530  -12.9640   20.3000 N   0  0  0  0  0  0  0  0  0  0  0  0
  -25.8900  -11.6820   20.5660 N   0  0  0  0  0  0  0  0  0  0  0  0
  -23.8680  -10.4630   21.0600 C   0  0  0  0  0  0  0  0  0  0  0  0
  -24.3090   -9.4900   21.9830 C   0  0  0  0  0  3  0  0  0  0  0  0
  -23.5820   -8.2940   22.1660 C   0  0  0  0  0  3  0  0  0  0  0  0
  -22.4000   -8.0620   21.4240 C   0  0  0  0  0  0  0  0  0  0  0  0
  -21.9790   -9.0230   20.4880 C   0  0  0  0  0  3  0  0  0  0  0  0
  -22.7060  -10.2110   20.3040 C   0  0  0  0  0  3  0  0  0  0  0  0
  -21.6440   -6.9190   21.5140 O   0  0  0  0  0  0  0  0  0  0  0  0
  -21.6190   -6.1600   22.6550 C   0  0  0  0  0  0  0  0  0  0  0  0
  -21.2380   -6.7010   23.9030 C   0  0  0  0  0  3  0  0  0  0  0  0
  -21.1600   -5.8690   25.0380 C   0  0  0  0  0  3  0  0  0  0  0  0
  -21.4550   -4.4970   24.9280 C   0  0  0  0  0  0  0  0  0  0  0  0
  -21.8310   -3.9560   23.6860 C   0  0  0  0  0  3  0  0  0  0  0  0
  -21.9100   -4.7840   22.5530 C   0  0  0  0  0  0  0  0  0  0  0  0
  -22.2520   -4.2520   21.3550 F   0  0  0  0  0  0  0  0  0  0  0  0
  -21.3730   -3.6970   26.0160 F   0  0  0  0  0  0  0  0  0  0  0  0
  -22.7380  -13.5540   21.1510 C   0  0  0  0  0  0  0  0  0  0  0  0
  -22.0070  -12.8650   22.0200 N   0  0  0  0  0  0  0  0  0  0  0  0
  -22.3020  -14.5760   20.6210 O   0  0  0  0  0  0  0  0  0  0  0  0
  -22.3740  -12.0390   22.4700 H   0  0  0  0  0  0  0  0  0  0  0  0
  -21.0670  -13.1660   22.2370 H   0  0  0  0  0  0  0  0  0  0  0  0
  -25.3750  -15.2160   20.3350 N   0  0  0  0  0  0  0  0  0  0  0  0
  -24.6150  -15.8770   20.4540 H   0  0  0  0  0  0  0  0  0  0  0  0
  -26.2410  -15.6520   20.0460 H   0  0  0  0  0  0  0  0  0  0  0  0
  -28.6020  -24.0270   19.8770 C   0  0  0  0  0  3  0  0  0  0  0  0
  -28.2060  -25.2530   20.7790 C   0  0  0  0  0  3  0  0  0  0  0  0
  -28.3480  -26.5800   20.1730 O   0  0  0  0  0  0  0  0  0  0  0  0
  -24.6110  -31.8880   23.2270 C   0  0  0  0  0  0  0  0  0  0  0  0
  -27.2140  -27.3790   20.1610 C   0  0  0  0  0  0  0  0  0  0  0  0
  -23.3980  -30.4800   21.6010 C   0  0  0  0  0  3  0  0  0  0  0  0
  -24.8410  -28.9370   20.1650 C   0  0  0  0  0  0  0  0  0  0  0  0
  -25.9290  -30.8190   21.3960 C   0  0  0  0  0  2  0  0  0  0  0  0
  -26.0070  -29.4460   20.7500 C   0  0  0  0  0  0  0  0  0  0  0  0
  -27.2010  -28.6780   20.7380 C   0  0  0  0  0  3  0  0  0  0  0  0
  -26.0330  -26.9040   19.5550 C   0  0  0  0  0  3  0  0  0  0  0  0
  -24.8520  -27.6700   19.5590 C   0  0  0  0  0  3  0  0  0  0  0  0
  -23.6010  -29.8030   20.2190 C   0  0  0  0  0  2  0  0  0  0  0  0
  -24.6650  -31.0730   22.1360 N   0  0  0  0  0  0  0  0  0  0  0  0
  -23.5280  -32.1910   23.7440 O   0  0  0  0  0  0  0  0  0  0  0  0
  -22.7470  -29.4610   22.5640 C   0  0  0  0  0  0  0  0  0  0  0  0
  -21.4210  -29.2780   22.4390 N   0  0  0  0  0  0  0  0  0  0  0  0
  -23.4300  -28.8370   23.3810 O   0  0  0  0  0  0  0  0  0  0  0  0
  -20.9300  -29.8290   21.7490 H   0  0  0  0  0  0  0  0  0  0  0  0
  -18.0500  -28.0700   22.9360 C   0  0  0  0  0  0  0  0  0  0  0  0
  -20.6060  -28.3390   23.2110 C   0  0  0  0  0  3  0  0  0  0  0  0
  -20.7160  -26.9070   22.6380 C   0  0  0  0  0  2  0  0  0  0  0  0
  -19.6170  -26.5770   21.6230 C   0  0  0  0  0  2  0  0  0  0  0  0
  -18.2340  -26.7200   22.2640 C   0  0  0  0  0  2  0  0  0  0  0  0
  -19.1650  -28.8370   23.3660 C   0  0  0  0  0  0  0  0  0  0  0  0
  -18.9420  -30.1020   23.9540 C   0  0  0  0  0  3  0  0  0  0  0  0
  -17.6350  -30.5990   24.1150 C   0  0  0  0  0  3  0  0  0  0  0  0
  -16.5340  -29.8300   23.7020 C   0  0  0  0  0  3  0  0  0  0  0  0
  -16.7430  -28.5670   23.1190 C   0  0  0  0  0  3  0  0  0  0  0  0
  -25.9020  -32.5070   23.8510 C   0  0  0  0  0  3  0  0  0  0  0  0
  -25.5990  -33.9030   24.1930 N   0  0  0  0  0  0  0  0  0  0  0  0
  -25.9230  -34.9580   23.4340 C   0  0  0  0  0  0  0  0  0  0  0  0
  -26.5800  -34.8580   22.3950 O   0  0  0  0  0  0  0  0  0  0  0  0
  -25.0130  -34.0530   25.0010 H   0  0  0  0  0  0  0  0  0  0  0  0
  -24.1860  -36.7470   23.1020 C   0  0  0  0  0  1  0  0  0  0  0  0
  -25.4380  -36.3440   23.8990 C   0  0  0  0  0  3  0  0  0  0  0  0
  -27.5820  -37.2290   24.7060 C   0  0  0  0  0  1  0  0  0  0  0  0
  -26.4670  -37.4000   23.7780 N   0  0  0  0  0  0  0  0  0  0  0  0
  -26.0610  -38.3190   23.9360 H   0  0  0  0  0  0  0  0  0  0  0  0
  -26.4250  -31.7270   25.1200 C   0  0  1  0  0  0  0  0  0  0  0  0
  -25.3340  -31.4870   26.1900 C   0  0  0  0  0  1  0  0  0  0  0  0
  -27.0020  -30.3490   24.7150 C   0  0  0  0  0  1  0  0  0  0  0  0
  -27.5810  -32.5140   25.7820 C   0  0  0  0  0  1  0  0  0  0  0  0
  1  3  1  0
  1  2  1  0
  4  5  1  0
  4  1  1  0
  5  7  1  0
  6  7  1  0
  8 19  1  0
  9 14  1  0
 10 11  1  0
 10  9  1  0
 12 11  1  0
 12 23  1  0
 12 13  1  0
 14  8  1  0
 14 13  1  0
 15  8  2  0
 17 19  1  0
 17 18  1  0
 18  7  1  0
 18 16  1  0
 19 16  1  0
 20 21  2  0
 21 40  1  0
 22 21  1  0
 22 25  1  0
 23 20  1  0
 23 24  1  0
 24 22  2  0
 25 26  1  0
 26 27  2  0
 28 31  1  0
 28 27  1  0
 29 28  2  0
 30 29  1  0
 30 25  2  0
 31 32  1  0
 32 33  1  0
 33 34  2  0
 35 34  1  0
 35 39  1  0
 36 35  2  0
 37 32  2  0
 37 36  1  0
 38 37  1  0
 40 41  1  0
 41 44  1  0
 41 43  1  0
 42 40  2  0
 45 46  1  0
 45 20  1  0
 47 45  1  0
 48  1  1  0
 48 49  2  0
 50 49  1  0
 51 62  2  0
 52 50  1  0
 52 57  1  0
 53 61  1  0
 53 63  1  0
 54 60  1  0
 54 56  1  0
 55 61  1  0
 56 55  1  0
 57 56  2  0
 58 59  1  0
 58 52  2  0
 59 54  2  0
 60 53  1  0
 61 51  1  0
 63 65  2  0
 64 63  1  0
 66 64  1  0
 67 76  2  0
 67 72  1  0
 68 64  1  0
 68 72  1  0
 69 68  1  0
 70 71  1  0
 70 69  1  0
 71 67  1  0
 72 73  2  0
 73 74  1  0
 75 74  2  0
 76 75  1  0
 77 51  1  0
 77 78  1  0
 77 87  1  0
 78 81  1  0
 79 83  1  0
 79 78  1  0
 80 79  2  0
 83 82  1  0
 85 83  1  0
 85 86  1  0
 85 84  1  0
 87 90  1  1
 87 88  1  0
 89 87  1  0
M  ISO  4   8 100  19 100  49 101  50 101
M  END
>  <TORSDO>  (65) 
F 21

>  <SCORE>  (65) 
-13.554

>  <name>  (65) 
64

>  <ligand_id>  (65) 
64

>  <original_smiles>  (65) 
[H]c1c([H])c([H])c2c(c1[H])C([H])([H])C([H])([H])C([H])([H])C2([H])N([H])C(=O)C1([H])N(C(=O)C([H])(N([H])C(=O)C([H])(N([H])C([H])([H])[H])C([H])([H])[H])C(C([H])([H])[H])(C([H])([H])[H])C([H])([H])[H])C([H])([H])c2c([H])c(OC([H])([H])C([H])([H])[N+]([H])([H])C([H])([H])C([H])([H])N(C([H])([H])[H])C3([H])C([H])([H])N(C(=O)N4C([H])([H])C([H])([H])C([H])([H])C([H])(n5nc(-c6c([H])c([H])c(Oc7c([H])c([H])c(F)c([H])c7F)c([H])c6[H])c(C(=O)N([H])[H])c5N([H])[H])C4([H])[H])C3([H])[H])c([H])c([H])c2C1([H])[H]

>  <smiles>  (65) 
[H]c1c([H])c([H])c2c(c1[H])C([H])([H])C([H])([H])C([H])([H])C2([H])N([H])C(=O)C1([H])N(C(=O)C([H])(N([H])C(=O)C([H])(N([H])C([H])([H])[H])C([H])([H])[H])C(C([H])([H])[H])(C([H])([H])[H])C([H])([H])[H])C([H])([H])c2c([H])c(OC([H])([H])C([H])([H])[N+]([H])([H])C([H])([H])C([H])([H])N(C([H])([H])[H])C3([H])C([H])([H])N(C(=O)N4C([H])([H])C([H])([H])C([H])([H])C([H])(n5nc(-c6c([H])c([H])c(Oc7c([H])c([H])c(F)c([H])c7F)c([H])c6[H])c(C(=O)N([H])[H])c5N([H])[H])C4([H])[H])C3([H])[H])c([H])c([H])c2C1([H])[H]

> <Step>
192.0

> <Scaffold>
O=C(NC1CCCc2ccccc21)C1Cc2ccc(OCCNCCNC3CN(C(=O)N4CCCC(n5ccc(-c6ccc(Oc7ccccc7)cc6)n5)C4)C3)cc2CN1

> <SMILES>
CNC(C)C(=O)NC(C(=O)N1Cc2cc(OCCNCCN(C)C3CN(C(=O)N4CCCC(n5nc(-c6ccc(Oc7ccc(F)cc7F)cc6)c(C(N)=O)c5N)C4)C3)ccc2CC1C(=O)NC1CCCc2ccccc21)C(C)(C)C

> <Tanimoto ROCS sim>
0.26365160942077637

> <Custom alerts>
1.0

> <Linker Num Aromatic Rings>
1.0

> <Linker Effective Length>
1.0

> <ADV>
0.9926498532295227

> <PostDock Tanimoto ROCS sim>
0.9917966723442078

> <raw_Linker Num Aromatic Rings>
0.0

> <raw_Linker Effective Length>
8.0

> <raw_ADV>
-13.522000312805176

> <total_score>
0.9961116313934326

> <ID>
default_job_164

> <PostDock Tanimoto ROCS sim (re-score)>
0.9855123

> <raw_ADV (re-score)>
-13.554

$$$$
default_job_165
     RDKit          3D

 93102  0  0  1  0  0  0  0  0999 V2000
  -30.4970  -22.2370   19.5950 C   0  0  0  0  0  2  0  0  0  0  0  0
  -30.7990  -23.7060   19.8980 C   0  0  0  0  0  2  0  0  0  0  0  0
  -29.3570  -23.0230   21.5640 C   0  0  0  0  0  2  0  0  0  0  0  0
  -29.4430  -21.8040   20.6260 C   0  0  0  0  0  3  0  0  0  0  0  0
  -29.6740  -24.1690   20.7040 N   0  0  0  0  0  0  0  0  0  0  0  0
  -30.6780  -26.5440   20.8390 C   0  0  0  0  0  2  0  0  0  0  0  0
  -30.0010  -25.3570   21.5030 C   0  0  0  0  0  3  0  0  0  0  0  0
  -29.2380  -26.6560   21.2580 C   0  0  0  0  0  3  0  0  0  0  0  0
  -28.3720  -26.6520   20.1210 O   0  0  0  0  0  0  0  0  0  0  0  0
  -24.6110  -31.8800   23.2420 C   0  0  0  0  0  0  0  0  0  0  0  0
  -27.2430  -27.4370   20.1720 C   0  0  0  0  0  0  0  0  0  0  0  0
  -23.3920  -30.4710   21.6120 C   0  0  0  0  0  3  0  0  0  0  0  0
  -24.8410  -28.9270   20.1840 C   0  0  0  0  0  0  0  0  0  0  0  0
  -25.9150  -30.8320   21.3990 C   0  0  0  0  0  2  0  0  0  0  0  0
  -25.9960  -29.4590   20.7680 C   0  0  0  0  0  0  0  0  0  0  0  0
  -27.2020  -28.7220   20.7650 C   0  0  0  0  0  3  0  0  0  0  0  0
  -26.0760  -26.9250   19.5680 C   0  0  0  0  0  3  0  0  0  0  0  0
  -24.8730  -27.6580   19.5810 C   0  0  0  0  0  3  0  0  0  0  0  0
  -23.5950  -29.7840   20.2340 C   0  0  0  0  0  2  0  0  0  0  0  0
  -24.6570  -31.0730   22.1450 N   0  0  0  0  0  0  0  0  0  0  0  0
  -23.5300  -32.1770   23.7700 O   0  0  0  0  0  0  0  0  0  0  0  0
  -22.7450  -29.4550   22.5800 C   0  0  0  0  0  0  0  0  0  0  0  0
  -21.4200  -29.2700   22.4570 N   0  0  0  0  0  0  0  0  0  0  0  0
  -23.4310  -28.8350   23.3970 O   0  0  0  0  0  0  0  0  0  0  0  0
  -20.9330  -29.8210   21.7670 H   0  0  0  0  0  0  0  0  0  0  0  0
  -18.0490  -28.0610   22.9500 C   0  0  0  0  0  0  0  0  0  0  0  0
  -20.6060  -28.3340   23.2300 C   0  0  0  0  0  3  0  0  0  0  0  0
  -20.7190  -26.9000   22.6630 C   0  0  0  0  0  2  0  0  0  0  0  0
  -19.6220  -26.5650   21.6480 C   0  0  0  0  0  2  0  0  0  0  0  0
  -18.2360  -26.7090   22.2830 C   0  0  0  0  0  2  0  0  0  0  0  0
  -19.1630  -28.8320   23.3800 C   0  0  0  0  0  0  0  0  0  0  0  0
  -18.9360  -30.1000   23.9570 C   0  0  0  0  0  3  0  0  0  0  0  0
  -17.6280  -30.5980   24.1120 C   0  0  0  0  0  3  0  0  0  0  0  0
  -16.5300  -29.8230   23.6990 C   0  0  0  0  0  3  0  0  0  0  0  0
  -16.7400  -28.5580   23.1230 C   0  0  0  0  0  3  0  0  0  0  0  0
  -25.9070  -32.4980   23.8580 C   0  0  0  0  0  3  0  0  0  0  0  0
  -25.6100  -33.8930   24.2020 N   0  0  0  0  0  0  0  0  0  0  0  0
  -25.9250  -34.9470   23.4380 C   0  0  0  0  0  0  0  0  0  0  0  0
  -26.5750  -34.8480   22.3930 O   0  0  0  0  0  0  0  0  0  0  0  0
  -25.0300  -34.0460   25.0150 H   0  0  0  0  0  0  0  0  0  0  0  0
  -24.1850  -36.7360   23.1220 C   0  0  0  0  0  1  0  0  0  0  0  0
  -25.4450  -36.3330   23.9070 C   0  0  0  0  0  3  0  0  0  0  0  0
  -27.5960  -37.2230   24.6880 C   0  0  0  0  0  1  0  0  0  0  0  0
  -26.4700  -37.3920   23.7730 N   0  0  0  0  0  0  0  0  0  0  0  0
  -26.0640  -38.3070   23.9340 H   0  0  0  0  0  0  0  0  0  0  0  0
  -26.4380  -31.7130   25.1210 C   0  0  1  0  0  0  0  0  0  0  0  0
  -25.3550  -31.4680   26.1980 C   0  0  0  0  0  1  0  0  0  0  0  0
  -27.0120  -30.3370   24.7090 C   0  0  0  0  0  1  0  0  0  0  0  0
  -27.5950  -32.5000   25.7780 C   0  0  0  0  0  1  0  0  0  0  0  0
  -29.7580  -20.5280   21.3240 N   0  0  0  0  0  4  0  0  0  0  0  0
  -28.9750  -20.3130   21.9210 H   0  0  0  0  0  0  0  0  0  0  0  0
  -30.5560  -20.6540   21.9250 H   0  0  0  0  0  0  0  0  0  0  0  0
  -30.0010  -19.3640   20.4360 C   0  0  0  0  0  2  0  0  0  0  0  0
  -29.7510  -17.9930   21.1140 C   0  0  0  0  0  2  0  0  0  0  0  0
  -30.2780  -16.8410   20.2370 C   0  0  0  0  0  2  0  0  0  0  0  0
  -30.6890  -14.4170   20.4170 C   0  0  0  0  0  0  0  0  0  0  0  0
  -30.3370  -12.2740   19.2890 C   0  0  0  0  0  2  0  0  0  0  0  0
  -29.4060  -12.5380   18.0880 C   0  0  0  0  0  2  0  0  0  0  0  0
  -27.9270  -12.4360   18.5130 C   0  0  0  0  0  2  0  0  0  0  0  0
  -27.6110  -13.2390   19.8020 C   0  0  0  0  0  3  0  0  0  0  0  0
  -28.6700  -12.9890   20.9030 C   0  0  0  0  0  2  0  0  0  0  0  0
  -29.9980  -13.2550   20.3290 N   0  0  0  0  0  0  0  0  0  0  0  0
  -31.8370  -14.5550   19.9890 O   0  0  0  0  0  0  0  0  0  0  0  0
  -29.9590  -15.4980   20.7400 N   0  0  0  0  0  0  0  0  0  0  0  0
  -29.0160  -15.3260   21.0540 H   0  0  0  0  0  0  0  0  0  0  0  0
  -25.2120  -13.8560   20.4930 C   0  0  0  0  0  0  0  0  0  0  0  0
  -24.1420  -13.0900   20.8640 C   0  0  0  0  0  0  0  0  0  0  0  0
  -24.5990  -11.7370   20.8480 C   0  0  0  0  0  0  0  0  0  0  0  0
  -26.2560  -12.9700   20.2760 N   0  0  0  0  0  0  0  0  0  0  0  0
  -25.8890  -11.6900   20.5420 N   0  0  0  0  0  0  0  0  0  0  0  0
  -23.8670  -10.4790   21.0450 C   0  0  0  0  0  0  0  0  0  0  0  0
  -24.3060   -9.5100   21.9730 C   0  0  0  0  0  3  0  0  0  0  0  0
  -23.5790   -8.3150   22.1590 C   0  0  0  0  0  3  0  0  0  0  0  0
  -22.3970   -8.0810   21.4150 C   0  0  0  0  0  0  0  0  0  0  0  0
  -21.9770   -9.0390   20.4770 C   0  0  0  0  0  3  0  0  0  0  0  0
  -22.7050  -10.2260   20.2890 C   0  0  0  0  0  3  0  0  0  0  0  0
  -21.6380   -6.9390   21.5120 O   0  0  0  0  0  0  0  0  0  0  0  0
  -21.6140   -6.1860   22.6560 C   0  0  0  0  0  0  0  0  0  0  0  0
  -21.2380   -6.7350   23.9030 C   0  0  0  0  0  3  0  0  0  0  0  0
  -21.1610   -5.9070   25.0420 C   0  0  0  0  0  3  0  0  0  0  0  0
  -21.4480   -4.5330   24.9340 C   0  0  0  0  0  0  0  0  0  0  0  0
  -21.8180   -3.9840   23.6940 C   0  0  0  0  0  3  0  0  0  0  0  0
  -21.8980   -4.8080   22.5580 C   0  0  0  0  0  0  0  0  0  0  0  0
  -22.2330   -4.2710   21.3610 F   0  0  0  0  0  0  0  0  0  0  0  0
  -21.3680   -3.7370   26.0260 F   0  0  0  0  0  0  0  0  0  0  0  0
  -22.7450  -13.5720   21.1340 C   0  0  0  0  0  0  0  0  0  0  0  0
  -22.0180  -12.8810   22.0050 N   0  0  0  0  0  0  0  0  0  0  0  0
  -22.3090  -14.5960   20.6090 O   0  0  0  0  0  0  0  0  0  0  0  0
  -22.3850  -12.0540   22.4500 H   0  0  0  0  0  0  0  0  0  0  0  0
  -21.0800  -13.1820   22.2300 H   0  0  0  0  0  0  0  0  0  0  0  0
  -25.3870  -15.2250   20.3050 N   0  0  0  0  0  0  0  0  0  0  0  0
  -24.6210  -15.8830   20.3940 H   0  0  0  0  0  0  0  0  0  0  0  0
  -26.2370  -15.6540   19.9670 H   0  0  0  0  0  0  0  0  0  0  0  0
  1  2  1  0
  1  4  1  0
  4 50  1  0
  4  3  1  0
  5  2  1  0
  5  7  1  0
  5  3  1  0
  6  8  1  0
  7  6  1  0
  8  9  1  0
  8  7  1  0
  9 11  1  0
 10 21  2  0
 11 16  1  0
 12 20  1  0
 12 22  1  0
 13 19  1  0
 13 15  1  0
 14 20  1  0
 15 14  1  0
 16 15  2  0
 17 18  1  0
 17 11  2  0
 18 13  2  0
 19 12  1  0
 20 10  1  0
 22 24  2  0
 23 22  1  0
 25 23  1  0
 26 35  2  0
 26 31  1  0
 27 23  1  0
 27 31  1  0
 28 27  1  0
 29 30  1  0
 29 28  1  0
 30 26  1  0
 31 32  2  0
 32 33  1  0
 34 33  2  0
 35 34  1  0
 36 10  1  0
 36 37  1  0
 36 46  1  0
 37 40  1  0
 38 42  1  0
 38 37  1  0
 39 38  2  0
 42 41  1  0
 44 42  1  0
 44 45  1  0
 44 43  1  0
 46 49  1  1
 46 47  1  0
 48 46  1  0
 50 51  1  0
 50 52  1  0
 53 54  1  0
 53 50  1  0
 55 64  1  0
 55 54  1  0
 56 64  1  0
 57 62  1  0
 58 59  1  0
 58 57  1  0
 60 59  1  0
 60 69  1  0
 60 61  1  0
 62 56  1  0
 62 61  1  0
 63 56  2  0
 64 65  1  0
 66 67  2  0
 67 86  1  0
 68 67  1  0
 68 71  1  0
 69 66  1  0
 69 70  1  0
 70 68  2  0
 71 72  1  0
 72 73  2  0
 74 77  1  0
 74 73  1  0
 75 74  2  0
 76 75  1  0
 76 71  2  0
 77 78  1  0
 78 79  1  0
 79 80  2  0
 81 80  1  0
 81 85  1  0
 82 81  2  0
 83 78  2  0
 83 82  1  0
 84 83  1  0
 86 87  1  0
 87 90  1  0
 87 89  1  0
 88 86  2  0
 91 92  1  0
 91 66  1  0
 93 91  1  0
M  ISO  4   8 101   9 101  56 100  64 100
M  END
>  <TORSDO>  (66) 
F 21

>  <SCORE>  (66) 
-13.51

>  <name>  (66) 
65

>  <ligand_id>  (66) 
65

>  <original_smiles>  (66) 
[H]c1c([H])c([H])c2c(c1[H])C([H])([H])C([H])([H])C([H])([H])C2([H])N([H])C(=O)C1([H])N(C(=O)C([H])(N([H])C(=O)C([H])(N([H])C([H])([H])[H])C([H])([H])[H])C(C([H])([H])[H])(C([H])([H])[H])C([H])([H])[H])C([H])([H])c2c([H])c(OC3([H])C([H])([H])C3([H])N3C([H])([H])C([H])([H])C([H])([N+]([H])([H])C([H])([H])C([H])([H])C([H])([H])N([H])C(=O)N4C([H])([H])C([H])([H])C([H])([H])C([H])(n5nc(-c6c([H])c([H])c(Oc7c([H])c([H])c(F)c([H])c7F)c([H])c6[H])c(C(=O)N([H])[H])c5N([H])[H])C4([H])[H])C3([H])[H])c([H])c([H])c2C1([H])[H]

>  <smiles>  (66) 
[H]c1c([H])c([H])c2c(c1[H])C([H])([H])C([H])([H])C([H])([H])C2([H])N([H])C(=O)C1([H])N(C(=O)C([H])(N([H])C(=O)C([H])(N([H])C([H])([H])[H])C([H])([H])[H])C(C([H])([H])[H])(C([H])([H])[H])C([H])([H])[H])C([H])([H])c2c([H])c(OC3([H])C([H])([H])C3([H])N3C([H])([H])C([H])([H])C([H])([N+]([H])([H])C([H])([H])C([H])([H])C([H])([H])N([H])C(=O)N4C([H])([H])C([H])([H])C([H])([H])C([H])(n5nc(-c6c([H])c([H])c(Oc7c([H])c([H])c(F)c([H])c7F)c([H])c6[H])c(C(=O)N([H])[H])c5N([H])[H])C4([H])[H])C3([H])[H])c([H])c([H])c2C1([H])[H]

> <Step>
196.0

> <Scaffold>
O=C(NC1CCCc2ccccc21)C1Cc2ccc(OC3CC3N3CCC(NCCCNC(=O)N4CCCC(n5ccc(-c6ccc(Oc7ccccc7)cc6)n5)C4)C3)cc2CN1

> <SMILES>
CNC(C)C(=O)NC(C(=O)N1Cc2cc(OC3CC3N3CCC(NCCCNC(=O)N4CCCC(n5nc(-c6ccc(Oc7ccc(F)cc7F)cc6)c(C(N)=O)c5N)C4)C3)ccc2CC1C(=O)NC1CCCc2ccccc21)C(C)(C)C

> <Tanimoto ROCS sim>
0.2091742753982544

> <Custom alerts>
1.0

> <Linker Num Aromatic Rings>
1.0

> <Linker Effective Length>
1.0

> <ADV>
0.9925738573074341

> <PostDock Tanimoto ROCS sim>
0.9918554425239563

> <raw_Linker Num Aromatic Rings>
0.0

> <raw_Linker Effective Length>
9.0

> <raw_ADV>
-13.503999710083008

> <total_score>
0.996107280254364

> <ID>
default_job_165

> <PostDock Tanimoto ROCS sim (re-score)>
0.9847705

> <raw_ADV (re-score)>
-13.51

$$$$
default_job_166
     RDKit          3D

 90 98  0  0  1  0  0  0  0  0999 V2000
  -28.6150  -20.3860   20.8710 C   0  0  0  0  0  3  0  0  0  0  0  0
  -30.4320  -21.3740   20.2340 C   0  0  0  0  0  3  0  0  0  0  0  0
  -29.4890  -19.4270   20.3880 C   0  0  0  0  0  0  0  0  0  0  0  0
  -30.6540  -20.0810   19.9750 N   0  0  0  0  0  0  0  0  0  0  0  0
  -29.2280  -21.6390   20.7630 N   0  0  0  0  0  0  0  0  0  0  0  0
  -29.2040  -17.5440   18.7350 C   0  0  0  0  0  1  0  0  0  0  0  0
  -29.2700  -17.9210   20.2250 C   0  0  0  0  0  3  0  0  0  0  0  0
  -30.2750  -17.0140   21.0060 C   0  0  0  0  0  2  0  0  0  0  0  0
  -30.6670  -14.5520   20.4750 C   0  0  0  0  0  0  0  0  0  0  0  0
  -30.3960  -12.3870   19.3170 C   0  0  0  0  0  2  0  0  0  0  0  0
  -29.4520  -12.5890   18.1140 C   0  0  0  0  0  2  0  0  0  0  0  0
  -27.9770  -12.4450   18.5390 C   0  0  0  0  0  2  0  0  0  0  0  0
  -27.6360  -13.2700   19.8100 C   0  0  0  0  0  3  0  0  0  0  0  0
  -28.6920  -13.0440   20.9170 C   0  0  0  0  0  2  0  0  0  0  0  0
  -30.0130  -13.3640   20.3500 N   0  0  0  0  0  0  0  0  0  0  0  0
  -31.8010  -14.7380   20.0270 O   0  0  0  0  0  0  0  0  0  0  0  0
  -29.9300  -15.5700   20.9690 N   0  0  0  0  0  0  0  0  0  0  0  0
  -29.0090  -15.3210   21.2990 H   0  0  0  0  0  0  0  0  0  0  0  0
  -25.2330  -13.8700   20.5040 C   0  0  0  0  0  0  0  0  0  0  0  0
  -24.1660  -13.0960   20.8720 C   0  0  0  0  0  0  0  0  0  0  0  0
  -24.6320  -11.7460   20.8490 C   0  0  0  0  0  0  0  0  0  0  0  0
  -26.2820  -12.9920   20.2840 N   0  0  0  0  0  0  0  0  0  0  0  0
  -25.9240  -11.7080   20.5480 N   0  0  0  0  0  0  0  0  0  0  0  0
  -23.9090  -10.4810   21.0420 C   0  0  0  0  0  0  0  0  0  0  0  0
  -24.3460   -9.5160   21.9760 C   0  0  0  0  0  3  0  0  0  0  0  0
  -23.6250   -8.3160   22.1550 C   0  0  0  0  0  3  0  0  0  0  0  0
  -22.4520   -8.0740   21.4020 C   0  0  0  0  0  0  0  0  0  0  0  0
  -22.0350   -9.0280   20.4560 C   0  0  0  0  0  3  0  0  0  0  0  0
  -22.7570  -10.2190   20.2750 C   0  0  0  0  0  3  0  0  0  0  0  0
  -21.7010   -6.9270   21.4910 O   0  0  0  0  0  0  0  0  0  0  0  0
  -21.6600   -6.1810   22.6410 C   0  0  0  0  0  0  0  0  0  0  0  0
  -21.2410   -6.7300   23.8720 C   0  0  0  0  0  3  0  0  0  0  0  0
  -21.1480   -5.9110   25.0140 C   0  0  0  0  0  3  0  0  0  0  0  0
  -21.4650   -4.5420   24.9270 C   0  0  0  0  0  0  0  0  0  0  0  0
  -21.8780   -3.9910   23.7010 C   0  0  0  0  0  3  0  0  0  0  0  0
  -21.9720   -4.8080   22.5600 C   0  0  0  0  0  0  0  0  0  0  0  0
  -22.3500   -4.2690   21.3760 F   0  0  0  0  0  0  0  0  0  0  0  0
  -21.3690   -3.7510   26.0210 F   0  0  0  0  0  0  0  0  0  0  0  0
  -22.7660  -13.5690   21.1370 C   0  0  0  0  0  0  0  0  0  0  0  0
  -22.0360  -12.8710   22.0000 N   0  0  0  0  0  0  0  0  0  0  0  0
  -22.3270  -14.5920   20.6130 O   0  0  0  0  0  0  0  0  0  0  0  0
  -22.4050  -12.0440   22.4450 H   0  0  0  0  0  0  0  0  0  0  0  0
  -21.0960  -13.1690   22.2190 H   0  0  0  0  0  0  0  0  0  0  0  0
  -25.3950  -15.2400   20.3180 N   0  0  0  0  0  0  0  0  0  0  0  0
  -24.6230  -15.8930   20.4090 H   0  0  0  0  0  0  0  0  0  0  0  0
  -26.2390  -15.6720   19.9680 H   0  0  0  0  0  0  0  0  0  0  0  0
  -28.7000  -22.9250   21.2490 C   0  0  0  0  0  2  0  0  0  0  0  0
  -28.8490  -24.1690   20.3180 C   0  0  0  0  0  2  0  0  0  0  0  0
  -28.3010  -25.4670   20.9880 C   0  0  0  0  0  2  0  0  0  0  0  0
  -28.4000  -26.6780   20.2040 O   0  0  0  0  0  0  0  0  0  0  0  0
  -24.6060  -31.9170   23.2580 C   0  0  0  0  0  0  0  0  0  0  0  0
  -27.2560  -27.4520   20.1970 C   0  0  0  0  0  0  0  0  0  0  0  0
  -23.4070  -30.5070   21.6200 C   0  0  0  0  0  3  0  0  0  0  0  0
  -24.8650  -28.9690   20.1980 C   0  0  0  0  0  0  0  0  0  0  0  0
  -25.9360  -30.8620   21.4310 C   0  0  0  0  0  2  0  0  0  0  0  0
  -26.0240  -29.4910   20.7880 C   0  0  0  0  0  0  0  0  0  0  0  0
  -27.2260  -28.7420   20.7800 C   0  0  0  0  0  3  0  0  0  0  0  0
  -26.0830  -26.9490   19.5960 C   0  0  0  0  0  3  0  0  0  0  0  0
  -24.8910  -27.6980   19.5970 C   0  0  0  0  0  3  0  0  0  0  0  0
  -23.6200  -29.8270   20.2410 C   0  0  0  0  0  2  0  0  0  0  0  0
  -24.6680  -31.1070   22.1630 N   0  0  0  0  0  0  0  0  0  0  0  0
  -23.5180  -32.2120   23.7710 O   0  0  0  0  0  0  0  0  0  0  0  0
  -22.7520  -29.4860   22.5800 C   0  0  0  0  0  0  0  0  0  0  0  0
  -21.4280  -29.3020   22.4480 N   0  0  0  0  0  0  0  0  0  0  0  0
  -23.4330  -28.8630   23.3990 O   0  0  0  0  0  0  0  0  0  0  0  0
  -20.9390  -29.8580   21.7600 H   0  0  0  0  0  0  0  0  0  0  0  0
  -18.0520  -28.1010   22.9300 C   0  0  0  0  0  0  0  0  0  0  0  0
  -20.6080  -28.3630   23.2150 C   0  0  0  0  0  3  0  0  0  0  0  0
  -20.7160  -26.9320   22.6390 C   0  0  0  0  0  2  0  0  0  0  0  0
  -19.6200  -26.6080   21.6180 C   0  0  0  0  0  2  0  0  0  0  0  0
  -18.2350  -26.7520   22.2550 C   0  0  0  0  0  2  0  0  0  0  0  0
  -19.1680  -28.8640   23.3660 C   0  0  0  0  0  0  0  0  0  0  0  0
  -18.9440  -30.1280   23.9560 C   0  0  0  0  0  3  0  0  0  0  0  0
  -17.6380  -30.6280   24.1150 C   0  0  0  0  0  3  0  0  0  0  0  0
  -16.5370  -29.8610   23.6940 C   0  0  0  0  0  3  0  0  0  0  0  0
  -16.7450  -28.5990   23.1080 C   0  0  0  0  0  3  0  0  0  0  0  0
  -25.8900  -32.5390   23.8900 C   0  0  0  0  0  3  0  0  0  0  0  0
  -25.5870  -33.9390   24.2170 N   0  0  0  0  0  0  0  0  0  0  0  0
  -25.9170  -34.9860   23.4510 C   0  0  0  0  0  0  0  0  0  0  0  0
  -26.5830  -34.8770   22.4170 O   0  0  0  0  0  0  0  0  0  0  0  0
  -24.9940  -34.0980   25.0190 H   0  0  0  0  0  0  0  0  0  0  0  0
  -24.1840  -36.7740   23.0950 C   0  0  0  0  0  1  0  0  0  0  0  0
  -25.4300  -36.3780   23.9010 C   0  0  0  0  0  3  0  0  0  0  0  0
  -27.5680  -37.2690   24.7140 C   0  0  0  0  0  1  0  0  0  0  0  0
  -26.4620  -37.4300   23.7760 N   0  0  0  0  0  0  0  0  0  0  0  0
  -26.0560  -38.3510   23.9180 H   0  0  0  0  0  0  0  0  0  0  0  0
  -26.3990  -31.7680   25.1700 C   0  0  1  0  0  0  0  0  0  0  0  0
  -25.2990  -31.5350   26.2310 C   0  0  0  0  0  1  0  0  0  0  0  0
  -26.9820  -30.3890   24.7810 C   0  0  0  0  0  1  0  0  0  0  0  0
  -27.5490  -32.5600   25.8380 C   0  0  0  0  0  1  0  0  0  0  0  0
  2  5  1  0
  3  1  2  0
  4  2  2  0
  4  3  1  0
  5  1  1  0
  5 47  1  0
  7  6  1  0
  7  3  1  0
  7  8  1  0
  9 17  1  0
 10 15  1  0
 11 12  1  0
 11 10  1  0
 13 12  1  0
 13 22  1  0
 13 14  1  0
 15  9  1  0
 15 14  1  0
 16  9  2  0
 17  8  1  0
 17 18  1  0
 19 20  2  0
 20 39  1  0
 21 20  1  0
 21 24  1  0
 22 19  1  0
 22 23  1  0
 23 21  2  0
 24 25  1  0
 25 26  2  0
 27 30  1  0
 27 26  1  0
 28 27  2  0
 29 28  1  0
 29 24  2  0
 30 31  1  0
 31 32  1  0
 32 33  2  0
 34 33  1  0
 34 38  1  0
 35 34  2  0
 36 31  2  0
 36 35  1  0
 37 36  1  0
 39 40  1  0
 40 43  1  0
 40 42  1  0
 41 39  2  0
 44 45  1  0
 44 19  1  0
 46 44  1  0
 48 49  1  0
 48 47  1  0
 50 49  1  0
 51 62  2  0
 52 50  1  0
 52 57  1  0
 53 61  1  0
 53 63  1  0
 54 60  1  0
 54 56  1  0
 55 61  1  0
 56 55  1  0
 57 56  2  0
 58 59  1  0
 58 52  2  0
 59 54  2  0
 60 53  1  0
 61 51  1  0
 63 65  2  0
 64 63  1  0
 66 64  1  0
 67 76  2  0
 67 72  1  0
 68 64  1  0
 68 72  1  0
 69 68  1  0
 70 71  1  0
 70 69  1  0
 71 67  1  0
 72 73  2  0
 73 74  1  0
 75 74  2  0
 76 75  1  0
 77 51  1  0
 77 78  1  0
 77 87  1  0
 78 81  1  0
 79 83  1  0
 79 78  1  0
 80 79  2  0
 83 82  1  0
 85 83  1  0
 85 86  1  0
 85 84  1  0
 87 90  1  1
 87 88  1  0
 89 87  1  0
M  ISO  4   9 100  17 100  49 101  50 101
M  END
>  <TORSDO>  (67) 
F 21

>  <SCORE>  (67) 
-13.664

>  <name>  (67) 
66

>  <ligand_id>  (67) 
66

>  <original_smiles>  (67) 
[H]c1c([H])c([H])c2c(c1[H])C([H])([H])C([H])([H])C([H])([H])C2([H])N([H])C(=O)C1([H])N(C(=O)C([H])(N([H])C(=O)C([H])(N([H])C([H])([H])[H])C([H])([H])[H])C(C([H])([H])[H])(C([H])([H])[H])C([H])([H])[H])C([H])([H])c2c([H])c(OC([H])([H])C([H])([H])C([H])([H])n3c([H])nc(C([H])(C([H])([H])[H])C([H])([H])N([H])C(=O)N4C([H])([H])C([H])([H])C([H])([H])C([H])(n5nc(-c6c([H])c([H])c(Oc7c([H])c([H])c(F)c([H])c7F)c([H])c6[H])c(C(=O)N([H])[H])c5N([H])[H])C4([H])[H])c3[H])c([H])c([H])c2C1([H])[H]

>  <smiles>  (67) 
[H]c1c([H])c([H])c2c(c1[H])C([H])([H])C([H])([H])C([H])([H])C2([H])N([H])C(=O)C1([H])N(C(=O)C([H])(N([H])C(=O)C([H])(N([H])C([H])([H])[H])C([H])([H])[H])C(C([H])([H])[H])(C([H])([H])[H])C([H])([H])[H])C([H])([H])c2c([H])c(OC([H])([H])C([H])([H])C([H])([H])n3c([H])nc(C([H])(C([H])([H])[H])C([H])([H])N([H])C(=O)N4C([H])([H])C([H])([H])C([H])([H])C([H])(n5nc(-c6c([H])c([H])c(Oc7c([H])c([H])c(F)c([H])c7F)c([H])c6[H])c(C(=O)N([H])[H])c5N([H])[H])C4([H])[H])c3[H])c([H])c([H])c2C1([H])[H]

> <Step>
80.0

> <Scaffold>
O=C(NC1CCCc2ccccc21)C1Cc2ccc(OCCCn3cnc(CCNC(=O)N4CCCC(n5ccc(-c6ccc(Oc7ccccc7)cc6)n5)C4)c3)cc2CN1

> <SMILES>
CNC(C)C(=O)NC(C(=O)N1Cc2cc(OCCCn3cnc(C(C)CNC(=O)N4CCCC(n5nc(-c6ccc(Oc7ccc(F)cc7F)cc6)c(C(N)=O)c5N)C4)c3)ccc2CC1C(=O)NC1CCCc2ccccc21)C(C)(C)C

> <Tanimoto ROCS sim>
0.2390516996383667

> <Custom alerts>
1.0

> <Linker Num Aromatic Rings>
1.0

> <Linker Effective Length>
1.0

> <ADV>
0.9932807087898254

> <PostDock Tanimoto ROCS sim>
0.9911434650421143

> <raw_Linker Num Aromatic Rings>
1.0

> <raw_Linker Effective Length>
8.0

> <raw_ADV>
-13.678999900817871

> <total_score>
0.9961060285568237

> <ID>
default_job_166

> <PostDock Tanimoto ROCS sim (re-score)>
0.98445475

> <raw_ADV (re-score)>
-13.664

$$$$
default_job_167
     RDKit          3D

 93101  0  0  1  0  0  0  0  0999 V2000
  -29.8590  -20.5040   20.9590 C   0  0  0  0  0  3  0  0  0  0  0  0
  -31.5010  -22.2480   21.2010 C   0  0  0  0  0  3  0  0  0  0  0  0
  -30.1550  -21.8840   21.1570 C   0  0  0  0  0  0  0  0  0  0  0  0
  -30.8900  -19.5200   20.7990 C   0  0  0  0  0  0  0  0  0  0  0  0
  -32.2220  -20.0440   20.8970 C   0  0  0  0  0  0  0  0  0  0  0  0
  -33.5110  -19.2360   20.8670 C   0  0  0  0  0  1  0  0  0  0  0  0
  -32.4960  -21.3570   21.0840 N   0  0  0  0  0  0  0  0  0  0  0  0
  -30.9680  -17.8050   18.9590 C   0  0  0  0  0  1  0  0  0  0  0  0
  -28.9790  -17.7940   20.4090 C   0  0  0  0  0  1  0  0  0  0  0  0
  -30.5160  -18.0190   20.4220 C   0  0  2  0  0  0  0  0  0  0  0  0
  -31.0970  -16.8660   21.3510 C   0  0  0  0  0  2  0  0  0  0  0  0
  -30.8340  -14.4780   20.4600 C   0  0  0  0  0  0  0  0  0  0  0  0
  -30.3240  -12.3360   19.3400 C   0  0  0  0  0  2  0  0  0  0  0  0
  -29.4030  -12.5440   18.1220 C   0  0  0  0  0  2  0  0  0  0  0  0
  -27.9400  -12.3940   18.5720 C   0  0  0  0  0  2  0  0  0  0  0  0
  -27.5990  -13.2770   19.8010 C   0  0  0  0  0  3  0  0  0  0  0  0
  -28.6730  -13.1670   20.9190 C   0  0  0  0  0  2  0  0  0  0  0  0
  -30.0190  -13.3810   20.3400 N   0  0  0  0  0  0  0  0  0  0  0  0
  -31.8990  -14.5690   19.8540 O   0  0  0  0  0  0  0  0  0  0  0  0
  -30.4400  -15.5180   21.2160 N   0  0  0  0  0  0  0  0  0  0  0  0
  -29.5680  -15.3900   21.7030 H   0  0  0  0  0  0  0  0  0  0  0  0
  -25.2050  -13.8540   20.5460 C   0  0  0  0  0  0  0  0  0  0  0  0
  -24.1450  -13.0750   20.9140 C   0  0  0  0  0  0  0  0  0  0  0  0
  -24.6110  -11.7210   20.8770 C   0  0  0  0  0  0  0  0  0  0  0  0
  -26.2550  -12.9810   20.3040 N   0  0  0  0  0  0  0  0  0  0  0  0
  -25.9010  -11.6940   20.5630 N   0  0  0  0  0  0  0  0  0  0  0  0
  -23.8900  -10.4540   21.0670 C   0  0  0  0  0  0  0  0  0  0  0  0
  -24.3350   -9.4800   21.9880 C   0  0  0  0  0  3  0  0  0  0  0  0
  -23.6080   -8.2840   22.1710 C   0  0  0  0  0  3  0  0  0  0  0  0
  -22.4240   -8.0540   21.4330 C   0  0  0  0  0  0  0  0  0  0  0  0
  -22.0000   -9.0150   20.4990 C   0  0  0  0  0  3  0  0  0  0  0  0
  -22.7270  -10.2010   20.3130 C   0  0  0  0  0  3  0  0  0  0  0  0
  -21.6720   -6.9050   21.5240 O   0  0  0  0  0  0  0  0  0  0  0  0
  -21.6490   -6.1420   22.6650 C   0  0  0  0  0  0  0  0  0  0  0  0
  -21.2690   -6.6820   23.9140 C   0  0  0  0  0  3  0  0  0  0  0  0
  -21.1930   -5.8510   25.0480 C   0  0  0  0  0  3  0  0  0  0  0  0
  -21.4900   -4.4800   24.9390 C   0  0  0  0  0  0  0  0  0  0  0  0
  -21.8660   -3.9380   23.6970 C   0  0  0  0  0  3  0  0  0  0  0  0
  -21.9410   -4.7650   22.5640 C   0  0  0  0  0  0  0  0  0  0  0  0
  -22.2810   -4.2330   21.3640 F   0  0  0  0  0  0  0  0  0  0  0  0
  -21.4100   -3.6790   26.0280 F   0  0  0  0  0  0  0  0  0  0  0  0
  -22.7450  -13.5420   21.1910 C   0  0  0  0  0  0  0  0  0  0  0  0
  -22.0280  -12.8400   22.0590 N   0  0  0  0  0  0  0  0  0  0  0  0
  -22.2980  -14.5660   20.6710 O   0  0  0  0  0  0  0  0  0  0  0  0
  -22.4000  -12.0130   22.5050 H   0  0  0  0  0  0  0  0  0  0  0  0
  -21.0800  -13.1180   22.2740 H   0  0  0  0  0  0  0  0  0  0  0  0
  -25.3630  -15.2300   20.3690 N   0  0  0  0  0  0  0  0  0  0  0  0
  -24.6110  -15.8900   20.5400 H   0  0  0  0  0  0  0  0  0  0  0  0
  -26.2210  -15.6840   20.0830 H   0  0  0  0  0  0  0  0  0  0  0  0
  -29.0840  -22.9620   21.4210 C   0  0  0  0  0  3  0  0  0  0  0  0
  -29.2000  -24.3000   20.6000 C   0  0  0  0  0  3  0  0  0  0  0  0
  -28.2070  -25.4210   21.0140 C   0  0  0  0  0  2  0  0  0  0  0  0
  -28.3510  -26.6410   20.2430 O   0  0  0  0  0  0  0  0  0  0  0  0
  -24.5940  -31.9000   23.2520 C   0  0  0  0  0  0  0  0  0  0  0  0
  -27.2140  -27.4270   20.2020 C   0  0  0  0  0  0  0  0  0  0  0  0
  -23.3830  -30.4900   21.6260 C   0  0  0  0  0  3  0  0  0  0  0  0
  -24.8310  -28.9630   20.1840 C   0  0  0  0  0  0  0  0  0  0  0  0
  -25.9140  -30.8440   21.4260 C   0  0  0  0  0  2  0  0  0  0  0  0
  -25.9920  -29.4780   20.7760 C   0  0  0  0  0  0  0  0  0  0  0  0
  -27.1880  -28.7190   20.7760 C   0  0  0  0  0  3  0  0  0  0  0  0
  -26.0420  -26.9360   19.5880 C   0  0  0  0  0  3  0  0  0  0  0  0
  -24.8530  -27.6950   19.5780 C   0  0  0  0  0  3  0  0  0  0  0  0
  -23.5820  -29.8200   20.2410 C   0  0  0  0  0  2  0  0  0  0  0  0
  -24.6500  -31.0890   22.1600 N   0  0  0  0  0  0  0  0  0  0  0  0
  -23.5090  -32.2020   23.7710 O   0  0  0  0  0  0  0  0  0  0  0  0
  -22.7390  -29.4630   22.5830 C   0  0  0  0  0  0  0  0  0  0  0  0
  -21.4140  -29.2780   22.4570 N   0  0  0  0  0  0  0  0  0  0  0  0
  -23.4260  -28.8390   23.3970 O   0  0  0  0  0  0  0  0  0  0  0  0
  -20.9290  -29.8220   21.7580 H   0  0  0  0  0  0  0  0  0  0  0  0
  -18.0400  -28.0860   22.9560 C   0  0  0  0  0  0  0  0  0  0  0  0
  -20.5990  -28.3440   23.2290 C   0  0  0  0  0  3  0  0  0  0  0  0
  -20.7050  -26.9120   22.6580 C   0  0  0  0  0  2  0  0  0  0  0  0
  -19.6040  -26.5860   21.6460 C   0  0  0  0  0  2  0  0  0  0  0  0
  -18.2190  -26.7330   22.2860 C   0  0  0  0  0  2  0  0  0  0  0  0
  -19.1580  -28.8470   23.3840 C   0  0  0  0  0  0  0  0  0  0  0  0
  -18.9400  -30.1110   23.9760 C   0  0  0  0  0  3  0  0  0  0  0  0
  -17.6360  -30.6120   24.1410 C   0  0  0  0  0  3  0  0  0  0  0  0
  -16.5320  -29.8470   23.7340 C   0  0  0  0  0  3  0  0  0  0  0  0
  -16.7330  -28.5850   23.1460 C   0  0  0  0  0  3  0  0  0  0  0  0
  -25.8850  -32.5200   23.8750 C   0  0  0  0  0  3  0  0  0  0  0  0
  -25.5820  -33.9180   24.2080 N   0  0  0  0  0  0  0  0  0  0  0  0
  -25.9160  -34.9680   23.4440 C   0  0  0  0  0  0  0  0  0  0  0  0
  -26.5840  -34.8600   22.4140 O   0  0  0  0  0  0  0  0  0  0  0  0
  -24.9820  -34.0770   25.0030 H   0  0  0  0  0  0  0  0  0  0  0  0
  -24.1820  -36.7540   23.0930 C   0  0  0  0  0  1  0  0  0  0  0  0
  -25.4290  -36.3570   23.8990 C   0  0  0  0  0  3  0  0  0  0  0  0
  -27.5670  -37.2390   24.7160 C   0  0  0  0  0  1  0  0  0  0  0  0
  -26.4600  -37.4100   23.7770 N   0  0  0  0  0  0  0  0  0  0  0  0
  -26.0580  -38.3300   23.9290 H   0  0  0  0  0  0  0  0  0  0  0  0
  -26.4040  -31.7450   25.1490 C   0  0  1  0  0  0  0  0  0  0  0  0
  -25.3070  -31.5080   26.2120 C   0  0  0  0  0  1  0  0  0  0  0  0
  -26.9870  -30.3660   24.7580 C   0  0  0  0  0  1  0  0  0  0  0  0
  -27.5620  -32.5350   25.8040 C   0  0  0  0  0  1  0  0  0  0  0  0
  1  3  1  0
  3  2  2  0
  3 50  1  0
  4  5  1  0
  4  1  2  0
  5  7  2  0
  6  5  1  0
  7  2  1  0
 10  8  1  6
  9 10  1  0
 10  4  1  0
 10 11  1  0
 12 20  1  0
 13 18  1  0
 14 15  1  0
 14 13  1  0
 16 15  1  0
 16 25  1  0
 16 17  1  0
 18 12  1  0
 18 17  1  0
 19 12  2  0
 20 11  1  0
 20 21  1  0
 22 23  2  0
 23 42  1  0
 24 23  1  0
 24 27  1  0
 25 22  1  0
 25 26  1  0
 26 24  2  0
 27 28  1  0
 28 29  2  0
 30 33  1  0
 30 29  1  0
 31 30  2  0
 32 31  1  0
 32 27  2  0
 33 34  1  0
 34 35  1  0
 35 36  2  0
 37 36  1  0
 37 41  1  0
 38 37  2  0
 39 34  2  0
 39 38  1  0
 40 39  1  0
 42 43  1  0
 43 46  1  0
 43 45  1  0
 44 42  2  0
 47 48  1  0
 47 22  1  0
 49 47  1  0
 51 52  1  0
 51 50  2  0
 53 52  1  0
 54 65  2  0
 55 53  1  0
 55 60  1  0
 56 64  1  0
 56 66  1  0
 57 63  1  0
 57 59  1  0
 58 64  1  0
 59 58  1  0
 60 59  2  0
 61 55  2  0
 62 61  1  0
 62 57  2  0
 63 56  1  0
 64 54  1  0
 66 68  2  0
 67 66  1  0
 69 67  1  0
 70 79  2  0
 70 75  1  0
 71 67  1  0
 71 75  1  0
 72 71  1  0
 73 74  1  0
 73 72  1  0
 74 70  1  0
 75 76  2  0
 76 77  1  0
 78 77  2  0
 79 78  1  0
 80 54  1  0
 80 81  1  0
 80 90  1  0
 81 84  1  0
 82 86  1  0
 82 81  1  0
 83 82  2  0
 86 85  1  0
 88 86  1  0
 88 89  1  0
 88 87  1  0
 90 93  1  1
 90 91  1  0
 92 90  1  0
M  ISO  4  12 100  20 100  52 101  53 101
M  END
>  <TORSDO>  (68) 
F 21

>  <SCORE>  (68) 
-13.891

>  <name>  (68) 
67

>  <ligand_id>  (68) 
67

>  <original_smiles>  (68) 
[H]c1nc(C([H])([H])[H])c(C(C([H])([H])[H])(C([H])([H])[H])C([H])([H])N([H])C(=O)N2C([H])([H])C([H])([H])C([H])([H])C([H])(n3nc(-c4c([H])c([H])c(Oc5c([H])c([H])c(F)c([H])c5F)c([H])c4[H])c(C(=O)N([H])[H])c3N([H])[H])C2([H])[H])c([H])c1C([H])([H])C([H])([H])C([H])([H])Oc1c([H])c([H])c2c(c1[H])C([H])([H])N(C(=O)C([H])(N([H])C(=O)C([H])(N([H])C([H])([H])[H])C([H])([H])[H])C(C([H])([H])[H])(C([H])([H])[H])C([H])([H])[H])C([H])(C(=O)N([H])C1([H])c3c([H])c([H])c([H])c([H])c3C([H])([H])C([H])([H])C1([H])[H])C2([H])[H]

>  <smiles>  (68) 
[H]c1nc(C([H])([H])[H])c(C(C([H])([H])[H])(C([H])([H])[H])C([H])([H])N([H])C(=O)N2C([H])([H])C([H])([H])C([H])([H])C([H])(n3nc(-c4c([H])c([H])c(Oc5c([H])c([H])c(F)c([H])c5F)c([H])c4[H])c(C(=O)N([H])[H])c3N([H])[H])C2([H])[H])c([H])c1C([H])([H])C([H])([H])C([H])([H])Oc1c([H])c([H])c2c(c1[H])C([H])([H])N(C(=O)C([H])(N([H])C(=O)C([H])(N([H])C([H])([H])[H])C([H])([H])[H])C(C([H])([H])[H])(C([H])([H])[H])C([H])([H])[H])C([H])(C(=O)N([H])C1([H])c3c([H])c([H])c([H])c([H])c3C([H])([H])C([H])([H])C1([H])[H])C2([H])[H]

> <Step>
101.0

> <Scaffold>
O=C(NC1CCCc2ccccc21)C1Cc2ccc(OCCCc3cncc(CCNC(=O)N4CCCC(n5ccc(-c6ccc(Oc7ccccc7)cc6)n5)C4)c3)cc2CN1

> <SMILES>
CNC(C)C(=O)NC(C(=O)N1Cc2cc(OCCCc3cnc(C)c(C(C)(C)CNC(=O)N4CCCC(n5nc(-c6ccc(Oc7ccc(F)cc7F)cc6)c(C(N)=O)c5N)C4)c3)ccc2CC1C(=O)NC1CCCc2ccccc21)C(C)(C)C

> <Tanimoto ROCS sim>
0.22228214144706726

> <Custom alerts>
1.0

> <Linker Num Aromatic Rings>
1.0

> <Linker Effective Length>
1.0

> <ADV>
0.994051456451416

> <PostDock Tanimoto ROCS sim>
0.9903700351715088

> <raw_Linker Num Aromatic Rings>
1.0

> <raw_Linker Effective Length>
8.0

> <raw_ADV>
-13.892000198364258

> <total_score>
0.9961053729057312

> <ID>
default_job_167

> <PostDock Tanimoto ROCS sim (re-score)>
0.9853073

> <raw_ADV (re-score)>
-13.891

$$$$
default_job_168
     RDKit          3D

 90 98  0  0  1  0  0  0  0  0999 V2000
  -28.1000  -20.0030   19.6370 C   0  0  0  0  0  3  0  0  0  0  0  0
  -30.4570  -19.6520   20.8580 C   0  0  0  0  0  3  0  0  0  0  0  0
  -28.8560  -21.1460   20.0450 C   0  0  0  0  0  0  0  0  0  0  0  0
  -29.7480  -18.5130   20.3680 C   0  0  0  0  0  0  0  0  0  0  0  0
  -30.0350  -20.9450   20.6910 N   0  0  0  0  0  0  0  0  0  0  0  0
  -28.5320  -18.7080   19.7870 N   0  0  0  0  0  0  0  0  0  0  0  0
  -30.9710  -17.1950   18.6480 C   0  0  0  0  0  1  0  0  0  0  0  0
  -30.5140  -17.1600   20.1260 C   0  0  0  0  0  3  0  0  0  0  0  0
  -30.6330  -14.6300   20.3900 C   0  0  0  0  0  0  0  0  0  0  0  0
  -30.3370  -12.4050   19.3590 C   0  0  0  0  0  2  0  0  0  0  0  0
  -29.4060  -12.5480   18.1380 C   0  0  0  0  0  2  0  0  0  0  0  0
  -27.9310  -12.4160   18.5660 C   0  0  0  0  0  2  0  0  0  0  0  0
  -27.5810  -13.2790   19.8090 C   0  0  0  0  0  3  0  0  0  0  0  0
  -28.6420  -13.1520   20.9220 C   0  0  0  0  0  2  0  0  0  0  0  0
  -29.9450  -13.4520   20.3210 N   0  0  0  0  0  0  0  0  0  0  0  0
  -31.8390  -14.6570   20.1330 O   0  0  0  0  0  0  0  0  0  0  0  0
  -29.9270  -15.8070   20.4590 N   0  0  0  0  0  0  0  0  0  0  0  0
  -28.9340  -15.7610   20.6260 H   0  0  0  0  0  0  0  0  0  0  0  0
  -25.1970  -13.8760   20.5470 C   0  0  0  0  0  0  0  0  0  0  0  0
  -24.1300  -13.1040   20.9160 C   0  0  0  0  0  0  0  0  0  0  0  0
  -24.5880  -11.7520   20.8810 C   0  0  0  0  0  0  0  0  0  0  0  0
  -26.2370  -12.9940   20.3020 N   0  0  0  0  0  0  0  0  0  0  0  0
  -25.8780  -11.7110   20.5670 N   0  0  0  0  0  0  0  0  0  0  0  0
  -23.8580  -10.4920   21.0690 C   0  0  0  0  0  0  0  0  0  0  0  0
  -24.2940   -9.5160   21.9920 C   0  0  0  0  0  3  0  0  0  0  0  0
  -23.5650   -8.3200   22.1680 C   0  0  0  0  0  3  0  0  0  0  0  0
  -22.3840   -8.0910   21.4220 C   0  0  0  0  0  0  0  0  0  0  0  0
  -21.9670   -9.0560   20.4880 C   0  0  0  0  0  3  0  0  0  0  0  0
  -22.6970  -10.2430   20.3100 C   0  0  0  0  0  3  0  0  0  0  0  0
  -21.6260   -6.9490   21.5080 O   0  0  0  0  0  0  0  0  0  0  0  0
  -21.5880   -6.1950   22.6530 C   0  0  0  0  0  0  0  0  0  0  0  0
  -21.1860   -6.7400   23.8930 C   0  0  0  0  0  3  0  0  0  0  0  0
  -21.0950   -5.9120   25.0300 C   0  0  0  0  0  3  0  0  0  0  0  0
  -21.3960   -4.5410   24.9280 C   0  0  0  0  0  0  0  0  0  0  0  0
  -21.7910   -3.9950   23.6950 C   0  0  0  0  0  3  0  0  0  0  0  0
  -21.8850   -4.8200   22.5610 C   0  0  0  0  0  0  0  0  0  0  0  0
  -22.2450   -4.2860   21.3690 F   0  0  0  0  0  0  0  0  0  0  0  0
  -21.3020   -3.7430   26.0180 F   0  0  0  0  0  0  0  0  0  0  0  0
  -22.7350  -13.5850   21.1890 C   0  0  0  0  0  0  0  0  0  0  0  0
  -22.0030  -12.8920   22.0530 N   0  0  0  0  0  0  0  0  0  0  0  0
  -22.3030  -14.6140   20.6710 O   0  0  0  0  0  0  0  0  0  0  0  0
  -22.3680  -12.0630   22.4990 H   0  0  0  0  0  0  0  0  0  0  0  0
  -21.0650  -13.1950   22.2740 H   0  0  0  0  0  0  0  0  0  0  0  0
  -25.3630  -15.2460   20.3730 N   0  0  0  0  0  0  0  0  0  0  0  0
  -24.5900  -15.8920   20.4820 H   0  0  0  0  0  0  0  0  0  0  0  0
  -26.2020  -15.6910   20.0220 H   0  0  0  0  0  0  0  0  0  0  0  0
  -28.5580  -22.5790   19.4760 C   0  0  0  0  0  2  0  0  0  0  0  0
  -28.4230  -23.8780   20.3820 C   0  0  0  0  0  2  0  0  0  0  0  0
  -28.4900  -25.2420   19.5640 C   0  0  0  0  0  2  0  0  0  0  0  0
  -28.3810  -26.5480   20.2400 O   0  0  0  0  0  0  0  0  0  0  0  0
  -24.6020  -31.8870   23.2400 C   0  0  0  0  0  0  0  0  0  0  0  0
  -27.2250  -27.3390   20.1870 C   0  0  0  0  0  0  0  0  0  0  0  0
  -23.3980  -30.4730   21.6150 C   0  0  0  0  0  3  0  0  0  0  0  0
  -24.8480  -28.9240   20.1910 C   0  0  0  0  0  0  0  0  0  0  0  0
  -25.9340  -30.8000   21.4270 C   0  0  0  0  0  2  0  0  0  0  0  0
  -26.0140  -29.4240   20.7820 C   0  0  0  0  0  0  0  0  0  0  0  0
  -27.2020  -28.6390   20.7750 C   0  0  0  0  0  3  0  0  0  0  0  0
  -26.0280  -26.8780   19.5910 C   0  0  0  0  0  3  0  0  0  0  0  0
  -24.8550  -27.6550   19.5930 C   0  0  0  0  0  3  0  0  0  0  0  0
  -23.6060  -29.7880   20.2400 C   0  0  0  0  0  2  0  0  0  0  0  0
  -24.6640  -31.0660   22.1530 N   0  0  0  0  0  0  0  0  0  0  0  0
  -23.5130  -32.1920   23.7480 O   0  0  0  0  0  0  0  0  0  0  0  0
  -22.7410  -29.4570   22.5810 C   0  0  0  0  0  0  0  0  0  0  0  0
  -21.4170  -29.2760   22.4550 N   0  0  0  0  0  0  0  0  0  0  0  0
  -23.4230  -28.8330   23.3970 O   0  0  0  0  0  0  0  0  0  0  0  0
  -20.9250  -29.8310   21.7690 H   0  0  0  0  0  0  0  0  0  0  0  0
  -18.0420  -28.0820   22.9600 C   0  0  0  0  0  0  0  0  0  0  0  0
  -20.6010  -28.3380   23.2260 C   0  0  0  0  0  3  0  0  0  0  0  0
  -20.7020  -26.9070   22.6500 C   0  0  0  0  0  2  0  0  0  0  0  0
  -19.5980  -26.5860   21.6380 C   0  0  0  0  0  2  0  0  0  0  0  0
  -18.2170  -26.7330   22.2840 C   0  0  0  0  0  2  0  0  0  0  0  0
  -19.1620  -28.8430   23.3880 C   0  0  0  0  0  0  0  0  0  0  0  0
  -18.9460  -30.1070   23.9790 C   0  0  0  0  0  3  0  0  0  0  0  0
  -17.6420  -30.6100   24.1480 C   0  0  0  0  0  3  0  0  0  0  0  0
  -16.5360  -29.8440   23.7370 C   0  0  0  0  0  3  0  0  0  0  0  0
  -16.7380  -28.5840   23.1490 C   0  0  0  0  0  3  0  0  0  0  0  0
  -25.8850  -32.5120   23.8710 C   0  0  0  0  0  3  0  0  0  0  0  0
  -26.3960  -31.7440   25.1530 C   0  0  1  0  0  0  0  0  0  0  0  0
  -25.2960  -31.5170   26.2160 C   0  0  0  0  0  1  0  0  0  0  0  0
  -26.9790  -30.3640   24.7700 C   0  0  0  0  0  1  0  0  0  0  0  0
  -27.5450  -32.5400   25.8180 C   0  0  0  0  0  1  0  0  0  0  0  0
  -25.5800  -33.9110   24.1980 N   0  0  0  0  0  0  0  0  0  0  0  0
  -25.9120  -34.9610   23.4380 C   0  0  0  0  0  0  0  0  0  0  0  0
  -26.5810  -34.8540   22.4050 O   0  0  0  0  0  0  0  0  0  0  0  0
  -24.9800  -34.0680   24.9960 H   0  0  0  0  0  0  0  0  0  0  0  0
  -24.1800  -36.7510   23.0820 C   0  0  0  0  0  1  0  0  0  0  0  0
  -25.4240  -36.3510   23.8910 C   0  0  0  0  0  3  0  0  0  0  0  0
  -27.5590  -37.2400   24.7150 C   0  0  0  0  0  1  0  0  0  0  0  0
  -26.4540  -37.4050   23.7720 N   0  0  0  0  0  0  0  0  0  0  0  0
  -26.0470  -38.3240   23.9190 H   0  0  0  0  0  0  0  0  0  0  0  0
  1  6  2  0
  1  3  1  0
  3  5  2  0
  4  2  2  0
  5  2  1  0
  6  4  1  0
  8  7  1  0
  8  4  1  0
  8 17  1  0
  9 17  1  0
 10 15  1  0
 11 12  1  0
 11 10  1  0
 13 12  1  0
 13 22  1  0
 13 14  1  0
 15  9  1  0
 15 14  1  0
 16  9  2  0
 17 18  1  0
 19 20  2  0
 20 39  1  0
 21 20  1  0
 21 24  1  0
 22 19  1  0
 22 23  1  0
 23 21  2  0
 24 25  1  0
 25 26  2  0
 27 30  1  0
 27 26  1  0
 28 27  2  0
 29 28  1  0
 29 24  2  0
 30 31  1  0
 31 32  1  0
 32 33  2  0
 34 33  1  0
 34 38  1  0
 35 34  2  0
 36 31  2  0
 36 35  1  0
 37 36  1  0
 39 40  1  0
 40 43  1  0
 40 42  1  0
 41 39  2  0
 44 45  1  0
 44 19  1  0
 46 44  1  0
 47  3  1  0
 47 48  1  0
 49 50  1  0
 49 48  1  0
 51 62  2  0
 52 50  1  0
 52 57  1  0
 53 61  1  0
 53 63  1  0
 54 60  1  0
 54 56  1  0
 55 61  1  0
 56 55  1  0
 57 56  2  0
 58 59  1  0
 58 52  2  0
 59 54  2  0
 60 53  1  0
 61 51  1  0
 63 65  2  0
 64 63  1  0
 66 64  1  0
 67 76  2  0
 67 72  1  0
 68 64  1  0
 68 72  1  0
 69 68  1  0
 70 71  1  0
 70 69  1  0
 71 67  1  0
 72 73  2  0
 73 74  1  0
 75 74  2  0
 76 75  1  0
 77 51  1  0
 77 82  1  0
 77 78  1  0
 78 81  1  1
 78 79  1  0
 80 78  1  0
 82 85  1  0
 83 87  1  0
 83 82  1  0
 84 83  2  0
 87 86  1  0
 89 87  1  0
 89 90  1  0
 89 88  1  0
M  ISO  4   9 100  17 100  49 101  50 101
M  END
>  <TORSDO>  (69) 
F 20

>  <SCORE>  (69) 
-13.9

>  <name>  (69) 
68

>  <ligand_id>  (69) 
68

>  <original_smiles>  (69) 
[H]c1nc(C([H])(N([H])C(=O)N2C([H])([H])C([H])([H])C([H])([H])C([H])(n3nc(-c4c([H])c([H])c(Oc5c([H])c([H])c(F)c([H])c5F)c([H])c4[H])c(C(=O)N([H])[H])c3N([H])[H])C2([H])[H])C([H])([H])[H])c([H])nc1C([H])([H])C([H])([H])C([H])([H])Oc1c([H])c([H])c2c(c1[H])C([H])([H])N(C(=O)C([H])(N([H])C(=O)C([H])(N([H])C([H])([H])[H])C([H])([H])[H])C(C([H])([H])[H])(C([H])([H])[H])C([H])([H])[H])C([H])(C(=O)N([H])C1([H])c3c([H])c([H])c([H])c([H])c3C([H])([H])C([H])([H])C1([H])[H])C2([H])[H]

>  <smiles>  (69) 
[H]c1nc(C([H])(N([H])C(=O)N2C([H])([H])C([H])([H])C([H])([H])C([H])(n3nc(-c4c([H])c([H])c(Oc5c([H])c([H])c(F)c([H])c5F)c([H])c4[H])c(C(=O)N([H])[H])c3N([H])[H])C2([H])[H])C([H])([H])[H])c([H])nc1C([H])([H])C([H])([H])C([H])([H])Oc1c([H])c([H])c2c(c1[H])C([H])([H])N(C(=O)C([H])(N([H])C(=O)C([H])(N([H])C([H])([H])[H])C([H])([H])[H])C(C([H])([H])[H])(C([H])([H])[H])C([H])([H])[H])C([H])(C(=O)N([H])C1([H])c3c([H])c([H])c([H])c([H])c3C([H])([H])C([H])([H])C1([H])[H])C2([H])[H]

> <Step>
69.0

> <Scaffold>
O=C(NC1CCCc2ccccc21)C1Cc2ccc(OCCCc3cnc(CNC(=O)N4CCCC(n5ccc(-c6ccc(Oc7ccccc7)cc6)n5)C4)cn3)cc2CN1

> <SMILES>
CNC(C)C(=O)NC(C(=O)N1Cc2cc(OCCCc3cnc(C(C)NC(=O)N4CCCC(n5nc(-c6ccc(Oc7ccc(F)cc7F)cc6)c(C(N)=O)c5N)C4)cn3)ccc2CC1C(=O)NC1CCCc2ccccc21)C(C)(C)C

> <Tanimoto ROCS sim>
0.19834266602993011

> <Custom alerts>
1.0

> <Linker Num Aromatic Rings>
1.0

> <Linker Effective Length>
1.0

> <ADV>
0.9941794276237488

> <PostDock Tanimoto ROCS sim>
0.9902369976043701

> <raw_Linker Num Aromatic Rings>
1.0

> <raw_Linker Effective Length>
8.0

> <raw_ADV>
-13.930000305175781

> <total_score>
0.9961041212081909

> <ID>
default_job_168

> <PostDock Tanimoto ROCS sim (re-score)>
0.9811878

> <raw_ADV (re-score)>
-13.9

$$$$
default_job_169
     RDKit          3D

 93101  0  0  1  0  0  0  0  0999 V2000
  -30.9100  -21.7620   18.8800 C   0  0  0  0  0  1  0  0  0  0  0  0
  -30.1960  -21.5830   20.2300 C   0  0  0  0  0  3  0  0  0  0  0  0
  -29.0050  -19.3070   19.8170 C   0  0  0  0  0  3  0  0  0  0  0  0
  -30.9290  -17.8440   21.2350 C   0  0  0  0  0  3  0  0  0  0  0  0
  -30.0340  -20.0370   20.4570 C   0  0  0  0  0  0  0  0  0  0  0  0
  -29.8980  -17.1210   20.5860 C   0  0  0  0  0  0  0  0  0  0  0  0
  -28.9310  -17.8890   19.8860 C   0  0  0  0  0  0  0  0  0  0  0  0
  -30.9980  -19.2650   21.1770 C   0  0  0  0  0  0  0  0  0  0  0  0
  -27.6430  -17.1050   19.0510 Cl  0  0  0  0  0  0  0  0  0  0  0  0
  -32.3200  -20.0270   21.9920 Cl  0  0  0  0  0  0  0  0  0  0  0  0
  -30.5770  -14.6470   20.4490 C   0  0  0  0  0  0  0  0  0  0  0  0
  -30.3780  -12.4300   19.3590 C   0  0  0  0  0  2  0  0  0  0  0  0
  -29.4360  -12.5920   18.1450 C   0  0  0  0  0  2  0  0  0  0  0  0
  -27.9600  -12.4310   18.5680 C   0  0  0  0  0  2  0  0  0  0  0  0
  -27.5990  -13.2720   19.8200 C   0  0  0  0  0  3  0  0  0  0  0  0
  -28.6560  -13.0850   20.9340 C   0  0  0  0  0  2  0  0  0  0  0  0
  -29.9700  -13.4260   20.3650 N   0  0  0  0  0  0  0  0  0  0  0  0
  -31.7530  -14.8210   20.1150 O   0  0  0  0  0  0  0  0  0  0  0  0
  -29.7300  -15.6830   20.7020 N   0  0  0  0  0  0  0  0  0  0  0  0
  -28.7680  -15.3880   20.7730 H   0  0  0  0  0  0  0  0  0  0  0  0
  -25.1960  -13.8700   20.5230 C   0  0  0  0  0  0  0  0  0  0  0  0
  -24.1280  -13.0960   20.8850 C   0  0  0  0  0  0  0  0  0  0  0  0
  -24.5920  -11.7460   20.8560 C   0  0  0  0  0  0  0  0  0  0  0  0
  -26.2450  -12.9930   20.2940 N   0  0  0  0  0  0  0  0  0  0  0  0
  -25.8850  -11.7090   20.5550 N   0  0  0  0  0  0  0  0  0  0  0  0
  -23.8650  -10.4850   21.0400 C   0  0  0  0  0  0  0  0  0  0  0  0
  -24.2830   -9.5250   21.9870 C   0  0  0  0  0  3  0  0  0  0  0  0
  -23.5560   -8.3270   22.1590 C   0  0  0  0  0  3  0  0  0  0  0  0
  -22.3970   -8.0820   21.3840 C   0  0  0  0  0  0  0  0  0  0  0  0
  -21.9970   -9.0330   20.4290 C   0  0  0  0  0  3  0  0  0  0  0  0
  -22.7250  -10.2220   20.2540 C   0  0  0  0  0  3  0  0  0  0  0  0
  -21.6430   -6.9380   21.4650 O   0  0  0  0  0  0  0  0  0  0  0  0
  -21.5670   -6.2060   22.6230 C   0  0  0  0  0  0  0  0  0  0  0  0
  -21.0790   -6.7620   23.8260 C   0  0  0  0  0  3  0  0  0  0  0  0
  -20.9550   -5.9570   24.9750 C   0  0  0  0  0  3  0  0  0  0  0  0
  -21.3070   -4.5940   24.9220 C   0  0  0  0  0  0  0  0  0  0  0  0
  -21.7870   -4.0370   23.7240 C   0  0  0  0  0  3  0  0  0  0  0  0
  -21.9150   -4.8410   22.5770 C   0  0  0  0  0  0  0  0  0  0  0  0
  -22.3590   -4.2940   21.4210 F   0  0  0  0  0  0  0  0  0  0  0  0
  -21.1790   -3.8180   26.0230 F   0  0  0  0  0  0  0  0  0  0  0  0
  -22.7260  -13.5740   21.1430 C   0  0  0  0  0  0  0  0  0  0  0  0
  -21.9850  -12.8750   21.9950 N   0  0  0  0  0  0  0  0  0  0  0  0
  -22.2960  -14.6030   20.6250 O   0  0  0  0  0  0  0  0  0  0  0  0
  -22.3420  -12.0420   22.4390 H   0  0  0  0  0  0  0  0  0  0  0  0
  -21.0470  -13.1810   22.2080 H   0  0  0  0  0  0  0  0  0  0  0  0
  -25.3460  -15.2400   20.3510 N   0  0  0  0  0  0  0  0  0  0  0  0
  -24.5560  -15.8690   20.4430 H   0  0  0  0  0  0  0  0  0  0  0  0
  -26.1610  -15.6930   19.9530 H   0  0  0  0  0  0  0  0  0  0  0  0
  -28.0190  -22.1620   21.5080 C   0  0  0  0  0  1  0  0  0  0  0  0
  -28.9330  -22.5470   20.3270 C   0  0  0  0  0  3  0  0  0  0  0  0
  -29.2680  -24.1070   20.3920 C   0  0  0  0  0  3  0  0  0  0  0  0
  -28.1000  -25.1100   20.0490 C   0  0  0  0  0  3  0  0  0  0  0  0
  -28.3240  -26.5540   20.2210 O   0  0  0  0  0  0  0  0  0  0  0  0
  -24.5950  -31.9050   23.2730 C   0  0  0  0  0  0  0  0  0  0  0  0
  -27.1960  -27.3840   20.1780 C   0  0  0  0  0  0  0  0  0  0  0  0
  -23.3840  -30.5160   21.6330 C   0  0  0  0  0  3  0  0  0  0  0  0
  -24.8280  -28.9810   20.1890 C   0  0  0  0  0  0  0  0  0  0  0  0
  -25.9230  -30.8350   21.4450 C   0  0  0  0  0  2  0  0  0  0  0  0
  -25.9980  -29.4670   20.7850 C   0  0  0  0  0  0  0  0  0  0  0  0
  -27.1860  -28.6820   20.7690 C   0  0  0  0  0  3  0  0  0  0  0  0
  -25.9990  -26.9440   19.5610 C   0  0  0  0  0  3  0  0  0  0  0  0
  -24.8290  -27.7240   19.5700 C   0  0  0  0  0  3  0  0  0  0  0  0
  -23.5900  -29.8520   20.2470 C   0  0  0  0  0  2  0  0  0  0  0  0
  -24.6540  -31.0970   22.1760 N   0  0  0  0  0  0  0  0  0  0  0  0
  -23.5090  -32.2070   23.7880 O   0  0  0  0  0  0  0  0  0  0  0  0
  -22.7240  -29.4890   22.5830 C   0  0  0  0  0  0  0  0  0  0  0  0
  -21.4020  -29.2990   22.4390 N   0  0  0  0  0  0  0  0  0  0  0  0
  -23.3990  -28.8670   23.4060 O   0  0  0  0  0  0  0  0  0  0  0  0
  -20.9180  -29.8510   21.7450 H   0  0  0  0  0  0  0  0  0  0  0  0
  -18.0270  -28.0800   22.8930 C   0  0  0  0  0  0  0  0  0  0  0  0
  -20.5800  -28.3540   23.1950 C   0  0  0  0  0  3  0  0  0  0  0  0
  -20.6980  -26.9260   22.6160 C   0  0  0  0  0  2  0  0  0  0  0  0
  -19.6110  -26.5990   21.5880 C   0  0  0  0  0  2  0  0  0  0  0  0
  -18.2200  -26.7340   22.2150 C   0  0  0  0  0  2  0  0  0  0  0  0
  -19.1360  -28.8480   23.3390 C   0  0  0  0  0  0  0  0  0  0  0  0
  -18.9050  -30.1080   23.9300 C   0  0  0  0  0  3  0  0  0  0  0  0
  -17.5960  -30.6030   24.0830 C   0  0  0  0  0  3  0  0  0  0  0  0
  -16.5000  -29.8320   23.6570 C   0  0  0  0  0  3  0  0  0  0  0  0
  -16.7160  -28.5730   23.0690 C   0  0  0  0  0  3  0  0  0  0  0  0
  -25.8820  -32.5150   23.9100 C   0  0  0  0  0  3  0  0  0  0  0  0
  -26.3860  -31.7300   25.1830 C   0  0  1  0  0  0  0  0  0  0  0  0
  -25.2820  -31.4890   26.2390 C   0  0  0  0  0  1  0  0  0  0  0  0
  -26.9680  -30.3540   24.7860 C   0  0  0  0  0  1  0  0  0  0  0  0
  -27.5350  -32.5160   25.8610 C   0  0  0  0  0  1  0  0  0  0  0  0
  -25.5830  -33.9130   24.2500 N   0  0  0  0  0  0  0  0  0  0  0  0
  -25.8920  -34.9650   23.4810 C   0  0  0  0  0  0  0  0  0  0  0  0
  -26.5340  -34.8610   22.4320 O   0  0  0  0  0  0  0  0  0  0  0  0
  -25.0050  -34.0670   25.0640 H   0  0  0  0  0  0  0  0  0  0  0  0
  -24.1420  -36.7460   23.1780 C   0  0  0  0  0  1  0  0  0  0  0  0
  -25.4130  -36.3520   23.9490 C   0  0  0  0  0  3  0  0  0  0  0  0
  -27.5670  -37.2560   24.7070 C   0  0  0  0  0  1  0  0  0  0  0  0
  -26.4370  -37.4100   23.7940 N   0  0  0  0  0  0  0  0  0  0  0  0
  -26.0310  -38.3310   23.9400 H   0  0  0  0  0  0  0  0  0  0  0  0
  2  1  1  0
  2 50  1  0
  2  5  1  0
  3  7  2  0
  3  5  1  0
  5  8  2  0
  6 19  1  0
  6  4  2  0
  7  6  1  0
  8  4  1  0
  8 10  1  0
  9  7  1  0
 11 19  1  0
 12 17  1  0
 13 14  1  0
 13 12  1  0
 15 14  1  0
 15 24  1  0
 15 16  1  0
 17 11  1  0
 17 16  1  0
 18 11  2  0
 19 20  1  0
 21 22  2  0
 22 41  1  0
 23 22  1  0
 23 26  1  0
 24 21  1  0
 24 25  1  0
 25 23  2  0
 26 27  1  0
 27 28  2  0
 29 32  1  0
 29 28  1  0
 30 29  2  0
 31 30  1  0
 31 26  2  0
 32 33  1  0
 33 34  1  0
 34 35  2  0
 36 35  1  0
 36 40  1  0
 37 36  2  0
 38 33  2  0
 38 37  1  0
 39 38  1  0
 41 42  1  0
 42 45  1  0
 42 44  1  0
 43 41  2  0
 46 47  1  0
 46 21  1  0
 48 46  1  0
 50 51  1  0
 50 49  1  0
 52 53  1  0
 52 51  2  0
 54 65  2  0
 55 53  1  0
 55 60  1  0
 56 64  1  0
 56 66  1  0
 57 63  1  0
 57 59  1  0
 58 64  1  0
 59 58  1  0
 60 59  2  0
 61 62  1  0
 61 55  2  0
 62 57  2  0
 63 56  1  0
 64 54  1  0
 66 68  2  0
 67 66  1  0
 69 67  1  0
 70 79  2  0
 70 75  1  0
 71 67  1  0
 71 75  1  0
 72 71  1  0
 73 74  1  0
 73 72  1  0
 74 70  1  0
 75 76  2  0
 76 77  1  0
 78 77  2  0
 79 78  1  0
 80 54  1  0
 80 85  1  0
 80 81  1  0
 81 84  1  1
 81 82  1  0
 83 81  1  0
 85 88  1  0
 86 90  1  0
 86 85  1  0
 87 86  2  0
 90 89  1  0
 92 93  1  0
 92 90  1  0
 92 91  1  0
M  ISO  4  11 100  19 100  52 101  53 101
M  END
>  <TORSDO>  (70) 
F 20

>  <SCORE>  (70) 
-14.444

>  <name>  (70) 
69

>  <ligand_id>  (70) 
69

>  <original_smiles>  (70) 
[H]c1c([H])c([H])c2c(c1[H])C([H])([H])C([H])([H])C([H])([H])C2([H])N([H])C(=O)C1([H])N(C(=O)C([H])(N([H])C(=O)C([H])(N([H])C([H])([H])[H])C([H])([H])[H])C(C([H])([H])[H])(C([H])([H])[H])C([H])([H])[H])C([H])([H])c2c([H])c(OC([H])([H])C([H])([H])C([H])(C([H])([H])[H])C([H])(c3c([H])c(Cl)c(N([H])C(=O)N4C([H])([H])C([H])([H])C([H])([H])C([H])(n5nc(-c6c([H])c([H])c(Oc7c([H])c([H])c(F)c([H])c7F)c([H])c6[H])c(C(=O)N([H])[H])c5N([H])[H])C4([H])[H])c([H])c3Cl)C([H])([H])[H])c([H])c([H])c2C1([H])[H]

>  <smiles>  (70) 
[H]c1c([H])c([H])c2c(c1[H])C([H])([H])C([H])([H])C([H])([H])C2([H])N([H])C(=O)C1([H])N(C(=O)C([H])(N([H])C(=O)C([H])(N([H])C([H])([H])[H])C([H])([H])[H])C(C([H])([H])[H])(C([H])([H])[H])C([H])([H])[H])C([H])([H])c2c([H])c(OC([H])([H])C([H])([H])C([H])(C([H])([H])[H])C([H])(c3c([H])c(Cl)c(N([H])C(=O)N4C([H])([H])C([H])([H])C([H])([H])C([H])(n5nc(-c6c([H])c([H])c(Oc7c([H])c([H])c(F)c([H])c7F)c([H])c6[H])c(C(=O)N([H])[H])c5N([H])[H])C4([H])[H])c([H])c3Cl)C([H])([H])[H])c([H])c([H])c2C1([H])[H]

> <Step>
23.0

> <Scaffold>
O=C(NC1CCCc2ccccc21)C1Cc2ccc(OCCCCc3ccc(NC(=O)N4CCCC(n5ccc(-c6ccc(Oc7ccccc7)cc6)n5)C4)cc3)cc2CN1

> <SMILES>
CNC(C)C(=O)NC(C(=O)N1Cc2cc(OCCC(C)C(C)c3cc(Cl)c(NC(=O)N4CCCC(n5nc(-c6ccc(Oc7ccc(F)cc7F)cc6)c(C(N)=O)c5N)C4)cc3Cl)ccc2CC1C(=O)NC1CCCc2ccccc21)C(C)(C)C

> <Tanimoto ROCS sim>
0.28203853964805603

> <Custom alerts>
1.0

> <Linker Num Aromatic Rings>
1.0

> <Linker Effective Length>
1.0

> <ADV>
0.9955759048461914

> <PostDock Tanimoto ROCS sim>
0.9888359308242798

> <raw_Linker Num Aromatic Rings>
1.0

> <raw_Linker Effective Length>
8.0

> <raw_ADV>
-14.409000396728516

> <total_score>
0.9961029291152954

> <ID>
default_job_169

> <PostDock Tanimoto ROCS sim (re-score)>
0.9805554

> <raw_ADV (re-score)>
-14.444

$$$$
default_job_170
     RDKit          3D

 93102  0  0  1  0  0  0  0  0999 V2000
  -29.4020  -24.0570   18.5870 C   0  0  0  0  0  3  0  0  0  0  0  0
  -30.0230  -23.0850   17.7910 C   0  0  0  0  0  3  0  0  0  0  0  0
  -29.0310  -22.3320   20.2920 C   0  0  0  0  0  3  0  0  0  0  0  0
  -29.6800  -21.2950   19.4830 C   0  0  0  0  0  0  0  0  0  0  0  0
  -28.8840  -23.7310   19.8500 C   0  0  0  0  0  0  0  0  0  0  0  0
  -30.1620  -21.7540   18.2240 C   0  0  0  0  0  0  0  0  0  0  0  0
  -30.8130  -20.9100   17.3870 F   0  0  0  0  0  0  0  0  0  0  0  0
  -30.5930  -14.7950   20.3620 C   0  0  0  0  0  0  0  0  0  0  0  0
  -30.4210  -12.5010   19.3700 C   0  0  0  0  0  2  0  0  0  0  0  0
  -29.4800  -12.5300   18.1420 C   0  0  0  0  0  2  0  0  0  0  0  0
  -28.0130  -12.3390   18.5750 C   0  0  0  0  0  2  0  0  0  0  0  0
  -27.6240  -13.2500   19.7700 C   0  0  0  0  0  3  0  0  0  0  0  0
  -28.6800  -13.1990   20.8950 C   0  0  0  0  0  2  0  0  0  0  0  0
  -29.9710  -13.5640   20.3000 N   0  0  0  0  0  0  0  0  0  0  0  0
  -31.7890  -14.9010   20.0670 O   0  0  0  0  0  0  0  0  0  0  0  0
  -30.1130  -17.4040   20.3370 C   0  0  0  0  0  3  0  0  0  0  0  0
  -31.5460  -17.8790   20.2650 C   0  0  0  0  0  2  0  0  0  0  0  0
  -31.4570  -19.4320   20.3420 C   0  0  0  0  0  2  0  0  0  0  0  0
  -30.0700  -19.7450   19.7900 C   0  0  0  0  0  3  0  0  0  0  0  0
  -27.8170  -18.5230   20.2160 C   0  0  0  0  0  1  0  0  0  0  0  0
  -29.2840  -18.5210   20.2090 N   0  0  0  0  0  0  0  0  0  0  0  0
  -29.7500  -16.0450   20.4740 N   0  0  0  0  0  0  0  0  0  0  0  0
  -28.7650  -15.9310   20.6270 H   0  0  0  0  0  0  0  0  0  0  0  0
  -25.2380  -13.8360   20.5020 C   0  0  0  0  0  0  0  0  0  0  0  0
  -24.1760  -13.0610   20.8770 C   0  0  0  0  0  0  0  0  0  0  0  0
  -24.6430  -11.7110   20.8500 C   0  0  0  0  0  0  0  0  0  0  0  0
  -26.2820  -12.9580   20.2630 N   0  0  0  0  0  0  0  0  0  0  0  0
  -25.9340  -11.6760   20.5400 N   0  0  0  0  0  0  0  0  0  0  0  0
  -23.9200  -10.4470   21.0420 C   0  0  0  0  0  0  0  0  0  0  0  0
  -24.3590   -9.4790   21.9730 C   0  0  0  0  0  3  0  0  0  0  0  0
  -23.6360   -8.2800   22.1510 C   0  0  0  0  0  3  0  0  0  0  0  0
  -22.4610   -8.0410   21.3990 C   0  0  0  0  0  0  0  0  0  0  0  0
  -22.0430   -8.9960   20.4580 C   0  0  0  0  0  3  0  0  0  0  0  0
  -22.7660  -10.1880   20.2780 C   0  0  0  0  0  3  0  0  0  0  0  0
  -21.7100   -6.8940   21.4900 O   0  0  0  0  0  0  0  0  0  0  0  0
  -21.6720   -6.1480   22.6400 C   0  0  0  0  0  0  0  0  0  0  0  0
  -21.2520   -6.6970   23.8710 C   0  0  0  0  0  3  0  0  0  0  0  0
  -21.1620   -5.8750   25.0130 C   0  0  0  0  0  3  0  0  0  0  0  0
  -21.4800   -4.5080   24.9240 C   0  0  0  0  0  0  0  0  0  0  0  0
  -21.8920   -3.9580   23.6990 C   0  0  0  0  0  3  0  0  0  0  0  0
  -21.9850   -4.7760   22.5580 C   0  0  0  0  0  0  0  0  0  0  0  0
  -22.3630   -4.2370   21.3740 F   0  0  0  0  0  0  0  0  0  0  0  0
  -21.3860   -3.7160   26.0200 F   0  0  0  0  0  0  0  0  0  0  0  0
  -22.7770  -13.5360   21.1390 C   0  0  0  0  0  0  0  0  0  0  0  0
  -22.0460  -12.8420   22.0040 N   0  0  0  0  0  0  0  0  0  0  0  0
  -22.3390  -14.5560   20.6090 O   0  0  0  0  0  0  0  0  0  0  0  0
  -22.4150  -12.0170   22.4560 H   0  0  0  0  0  0  0  0  0  0  0  0
  -21.1080  -13.1410   22.2240 H   0  0  0  0  0  0  0  0  0  0  0  0
  -25.3930  -15.2050   20.3090 N   0  0  0  0  0  0  0  0  0  0  0  0
  -24.5740  -15.8050   20.3410 H   0  0  0  0  0  0  0  0  0  0  0  0
  -26.1280  -15.5840   19.7280 H   0  0  0  0  0  0  0  0  0  0  0  0
  -28.1410  -24.9220   20.6110 C   0  0  0  0  0  2  0  0  0  0  0  0
  -28.3400  -26.3640   20.1890 O   0  0  0  0  0  0  0  0  0  0  0  0
  -24.6360  -31.8760   23.2060 C   0  0  0  0  0  0  0  0  0  0  0  0
  -27.2370  -27.2510   20.1800 C   0  0  0  0  0  0  0  0  0  0  0  0
  -23.4320  -30.4620   21.5850 C   0  0  0  0  0  3  0  0  0  0  0  0
  -24.8810  -28.8990   20.1640 C   0  0  0  0  0  0  0  0  0  0  0  0
  -25.9770  -30.7650   21.4020 C   0  0  0  0  0  2  0  0  0  0  0  0
  -26.0550  -29.3800   20.7590 C   0  0  0  0  0  0  0  0  0  0  0  0
  -27.2360  -28.5690   20.7530 C   0  0  0  0  0  3  0  0  0  0  0  0
  -26.0430  -26.8400   19.5520 C   0  0  0  0  0  3  0  0  0  0  0  0
  -24.8790  -27.6370   19.5500 C   0  0  0  0  0  3  0  0  0  0  0  0
  -23.6470  -29.7780   20.2100 C   0  0  0  0  0  2  0  0  0  0  0  0
  -24.7020  -31.0480   22.1230 N   0  0  0  0  0  0  0  0  0  0  0  0
  -23.5470  -32.1870   23.7060 O   0  0  0  0  0  0  0  0  0  0  0  0
  -22.7680  -29.4520   22.5520 C   0  0  0  0  0  0  0  0  0  0  0  0
  -21.4390  -29.2780   22.4320 N   0  0  0  0  0  0  0  0  0  0  0  0
  -23.4460  -28.8260   23.3690 O   0  0  0  0  0  0  0  0  0  0  0  0
  -20.9490  -29.8340   21.7460 H   0  0  0  0  0  0  0  0  0  0  0  0
  -18.0630  -28.0810   22.9550 C   0  0  0  0  0  0  0  0  0  0  0  0
  -20.6240  -28.3410   23.2100 C   0  0  0  0  0  3  0  0  0  0  0  0
  -20.7220  -26.9100   22.6350 C   0  0  0  0  0  2  0  0  0  0  0  0
  -19.6130  -26.5850   21.6270 C   0  0  0  0  0  2  0  0  0  0  0  0
  -18.2350  -26.7310   22.2780 C   0  0  0  0  0  2  0  0  0  0  0  0
  -19.1840  -28.8440   23.3780 C   0  0  0  0  0  0  0  0  0  0  0  0
  -18.9690  -30.1050   23.9720 C   0  0  0  0  0  3  0  0  0  0  0  0
  -17.6640  -30.6050   24.1490 C   0  0  0  0  0  3  0  0  0  0  0  0
  -16.5580  -29.8410   23.7410 C   0  0  0  0  0  3  0  0  0  0  0  0
  -16.7590  -28.5810   23.1490 C   0  0  0  0  0  3  0  0  0  0  0  0
  -25.9190  -32.5020   23.8390 C   0  0  0  0  0  3  0  0  0  0  0  0
  -25.6070  -33.8980   24.1800 N   0  0  0  0  0  0  0  0  0  0  0  0
  -25.9290  -34.9560   23.4230 C   0  0  0  0  0  0  0  0  0  0  0  0
  -26.5890  -34.8570   22.3850 O   0  0  0  0  0  0  0  0  0  0  0  0
  -25.0180  -34.0450   24.9860 H   0  0  0  0  0  0  0  0  0  0  0  0
  -24.1930  -36.7460   23.0930 C   0  0  0  0  0  1  0  0  0  0  0  0
  -25.4430  -36.3410   23.8910 C   0  0  0  0  0  3  0  0  0  0  0  0
  -27.5820  -37.2280   24.7080 C   0  0  0  0  0  1  0  0  0  0  0  0
  -26.4720  -37.3970   23.7740 N   0  0  0  0  0  0  0  0  0  0  0  0
  -26.0640  -38.3140   23.9300 H   0  0  0  0  0  0  0  0  0  0  0  0
  -26.4360  -31.7270   25.1140 C   0  0  1  0  0  0  0  0  0  0  0  0
  -25.3420  -31.4880   26.1820 C   0  0  0  0  0  1  0  0  0  0  0  0
  -27.0190  -30.3500   24.7220 C   0  0  0  0  0  1  0  0  0  0  0  0
  -27.5890  -32.5190   25.7760 C   0  0  0  0  0  1  0  0  0  0  0  0
  1  5  1  0
  2  6  1  0
  2  1  2  0
  4  3  1  0
  5  3  2  0
  5 52  1  0
  6  4  2  0
  7  6  1  0
  8 22  1  0
  9 14  1  0
 10 11  1  0
 10  9  1  0
 12 11  1  0
 12 27  1  0
 12 13  1  0
 14  8  1  0
 14 13  1  0
 15  8  2  0
 16 22  1  0
 17 16  1  0
 17 18  1  0
 19  4  1  0
 19 21  1  0
 19 18  1  0
 21 20  1  0
 21 16  1  0
 22 23  1  0
 24 25  2  0
 25 44  1  0
 26 25  1  0
 26 29  1  0
 27 24  1  0
 27 28  1  0
 28 26  2  0
 29 30  1  0
 30 31  2  0
 32 35  1  0
 32 31  1  0
 33 32  2  0
 34 33  1  0
 34 29  2  0
 35 36  1  0
 36 37  1  0
 37 38  2  0
 39 38  1  0
 39 43  1  0
 40 39  2  0
 41 36  2  0
 41 40  1  0
 42 41  1  0
 44 45  1  0
 45 48  1  0
 45 47  1  0
 46 44  2  0
 49 50  1  0
 49 24  1  0
 51 49  1  0
 53 52  1  0
 54 65  2  0
 55 53  1  0
 55 60  1  0
 56 64  1  0
 56 66  1  0
 57 63  1  0
 57 59  1  0
 58 64  1  0
 59 58  1  0
 60 59  2  0
 61 55  2  0
 62 61  1  0
 62 57  2  0
 63 56  1  0
 64 54  1  0
 66 68  2  0
 67 66  1  0
 69 67  1  0
 70 79  2  0
 70 75  1  0
 71 67  1  0
 71 75  1  0
 72 71  1  0
 73 74  1  0
 73 72  1  0
 74 70  1  0
 75 76  2  0
 76 77  1  0
 78 77  2  0
 79 78  1  0
 80 54  1  0
 80 81  1  0
 80 90  1  0
 81 84  1  0
 82 86  1  0
 82 81  1  0
 83 82  2  0
 86 85  1  0
 88 86  1  0
 88 89  1  0
 88 87  1  0
 90 93  1  1
 90 91  1  0
 92 90  1  0
M  ISO  4   8 100  22 100  52 101  53 101
M  END
>  <TORSDO>  (71) 
F 17

>  <SCORE>  (71) 
-15.225

>  <name>  (71) 
70

>  <ligand_id>  (71) 
70

>  <original_smiles>  (71) 
[H]c1c([H])c([H])c2c(c1[H])C([H])([H])C([H])([H])C([H])([H])C2([H])N([H])C(=O)C1([H])N(C(=O)C([H])(N([H])C(=O)C([H])(N([H])C([H])([H])[H])C([H])([H])[H])C(C([H])([H])[H])(C([H])([H])[H])C([H])([H])[H])C([H])([H])c2c([H])c(OC([H])([H])c3c([H])c([H])c(F)c(C4([H])N(C([H])([H])[H])C(=[N+]([H])C(=O)N5C([H])([H])C([H])([H])C([H])([H])C([H])(n6nc(-c7c([H])c([H])c(Oc8c([H])c([H])c(F)c([H])c8F)c([H])c7[H])c(C(=O)N([H])[H])c6N([H])[H])C5([H])[H])C([H])([H])C4([H])[H])c3[H])c([H])c([H])c2C1([H])[H]

>  <smiles>  (71) 
[H]c1c([H])c([H])c2c(c1[H])C([H])([H])C([H])([H])C([H])([H])C2([H])N([H])C(=O)C1([H])N(C(=O)C([H])(N([H])C(=O)C([H])(N([H])C([H])([H])[H])C([H])([H])[H])C(C([H])([H])[H])(C([H])([H])[H])C([H])([H])[H])C([H])([H])c2c([H])c(OC([H])([H])c3c([H])c([H])c(F)c(C4([H])N(C([H])([H])[H])C(=[N+]([H])C(=O)N5C([H])([H])C([H])([H])C([H])([H])C([H])(n6nc(-c7c([H])c([H])c(Oc8c([H])c([H])c(F)c([H])c8F)c([H])c7[H])c(C(=O)N([H])[H])c6N([H])[H])C5([H])[H])C([H])([H])C4([H])[H])c3[H])c([H])c([H])c2C1([H])[H]

> <Step>
165.0

> <Scaffold>
O=C(NC1CCCc2ccccc21)C1Cc2ccc(OCc3cccc(C4CCC(=NC(=O)N5CCCC(n6ccc(-c7ccc(Oc8ccccc8)cc7)n6)C5)N4)c3)cc2CN1

> <SMILES>
CNC(C)C(=O)NC(C(=O)N1Cc2cc(OCc3ccc(F)c(C4CCC(=NC(=O)N5CCCC(n6nc(-c7ccc(Oc8ccc(F)cc8F)cc7)c(C(N)=O)c6N)C5)N4C)c3)ccc2CC1C(=O)NC1CCCc2ccccc21)C(C)(C)C

> <Tanimoto ROCS sim>
0.2289753258228302

> <Custom alerts>
1.0

> <Linker Num Aromatic Rings>
1.0

> <Linker Effective Length>
1.0

> <ADV>
0.9972501993179321

> <PostDock Tanimoto ROCS sim>
0.9871521592140198

> <raw_Linker Num Aromatic Rings>
1.0

> <raw_Linker Effective Length>
7.0

> <raw_ADV>
-15.23799991607666

> <total_score>
0.9961005449295044

> <ID>
default_job_170

> <PostDock Tanimoto ROCS sim (re-score)>
0.98029107

> <raw_ADV (re-score)>
-15.225

$$$$
default_job_171
     RDKit          3D

 90 98  0  0  1  0  0  0  0  0999 V2000
  -27.9270  -21.9360   19.6070 C   0  0  0  0  0  3  0  0  0  0  0  0
  -28.4270  -22.8070   20.6200 C   0  0  0  0  0  0  0  0  0  0  0  0
  -29.2820  -21.9840   21.3210 C   0  0  0  0  0  0  0  0  0  0  0  0
  -30.1420  -22.2960   22.5050 C   0  0  0  0  0  1  0  0  0  0  0  0
  -28.4190  -20.7010   19.6830 N   0  0  0  0  0  0  0  0  0  0  0  0
  -29.2420  -20.7080   20.7550 N   0  0  0  0  0  0  0  0  0  0  0  0
  -28.0520  -24.2770   20.8820 C   0  0  0  0  0  2  0  0  0  0  0  0
  -28.5000  -25.2990   19.7960 C   0  0  0  0  0  2  0  0  0  0  0  0
  -28.4240  -26.6880   20.2080 O   0  0  0  0  0  0  0  0  0  0  0  0
  -24.5930  -31.8850   23.2530 C   0  0  0  0  0  0  0  0  0  0  0  0
  -27.2340  -27.4020   20.1840 C   0  0  0  0  0  0  0  0  0  0  0  0
  -23.3900  -30.4800   21.6140 C   0  0  0  0  0  3  0  0  0  0  0  0
  -24.8430  -28.9360   20.1910 C   0  0  0  0  0  0  0  0  0  0  0  0
  -25.9210  -30.8230   21.4280 C   0  0  0  0  0  2  0  0  0  0  0  0
  -26.0020  -29.4510   20.7820 C   0  0  0  0  0  0  0  0  0  0  0  0
  -27.1980  -28.6930   20.7710 C   0  0  0  0  0  3  0  0  0  0  0  0
  -26.0510  -26.9050   19.5930 C   0  0  0  0  0  3  0  0  0  0  0  0
  -24.8650  -27.6640   19.5940 C   0  0  0  0  0  3  0  0  0  0  0  0
  -23.6030  -29.8010   20.2350 C   0  0  0  0  0  2  0  0  0  0  0  0
  -24.6540  -31.0750   22.1580 N   0  0  0  0  0  0  0  0  0  0  0  0
  -23.5050  -32.1840   23.7640 O   0  0  0  0  0  0  0  0  0  0  0  0
  -22.7330  -29.4610   22.5710 C   0  0  0  0  0  0  0  0  0  0  0  0
  -21.4090  -29.2770   22.4360 N   0  0  0  0  0  0  0  0  0  0  0  0
  -23.4110  -28.8360   23.3910 O   0  0  0  0  0  0  0  0  0  0  0  0
  -20.9220  -29.8320   21.7470 H   0  0  0  0  0  0  0  0  0  0  0  0
  -18.0310  -28.0840   22.9160 C   0  0  0  0  0  0  0  0  0  0  0  0
  -20.5880  -28.3370   23.2000 C   0  0  0  0  0  3  0  0  0  0  0  0
  -20.6910  -26.9080   22.6180 C   0  0  0  0  0  2  0  0  0  0  0  0
  -19.5920  -26.5910   21.5980 C   0  0  0  0  0  2  0  0  0  0  0  0
  -18.2080  -26.7360   22.2380 C   0  0  0  0  0  2  0  0  0  0  0  0
  -19.1480  -28.8420   23.3550 C   0  0  0  0  0  0  0  0  0  0  0  0
  -18.9300  -30.1050   23.9490 C   0  0  0  0  0  3  0  0  0  0  0  0
  -17.6250  -30.6070   24.1100 C   0  0  0  0  0  3  0  0  0  0  0  0
  -16.5210  -29.8460   23.6890 C   0  0  0  0  0  3  0  0  0  0  0  0
  -16.7260  -28.5860   23.0980 C   0  0  0  0  0  3  0  0  0  0  0  0
  -25.8780  -32.5040   23.8880 C   0  0  0  0  0  3  0  0  0  0  0  0
  -25.5780  -33.9040   24.2150 N   0  0  0  0  0  0  0  0  0  0  0  0
  -25.9090  -34.9520   23.4490 C   0  0  0  0  0  0  0  0  0  0  0  0
  -26.5750  -34.8410   22.4150 O   0  0  0  0  0  0  0  0  0  0  0  0
  -24.9860  -34.0650   25.0180 H   0  0  0  0  0  0  0  0  0  0  0  0
  -24.1790  -36.7420   23.0960 C   0  0  0  0  0  1  0  0  0  0  0  0
  -25.4270  -36.3420   23.9000 C   0  0  0  0  0  3  0  0  0  0  0  0
  -27.5680  -37.2320   24.7070 C   0  0  0  0  0  1  0  0  0  0  0  0
  -26.4600  -37.3940   23.7710 N   0  0  0  0  0  0  0  0  0  0  0  0
  -26.0550  -38.3150   23.9150 H   0  0  0  0  0  0  0  0  0  0  0  0
  -26.3820  -31.7310   25.1690 C   0  0  1  0  0  0  0  0  0  0  0  0
  -25.2800  -31.5010   26.2290 C   0  0  0  0  0  1  0  0  0  0  0  0
  -26.9610  -30.3500   24.7820 C   0  0  0  0  0  1  0  0  0  0  0  0
  -27.5320  -32.5200   25.8390 C   0  0  0  0  0  1  0  0  0  0  0  0
  -30.0380  -19.5110   21.1190 C   0  0  0  0  0  2  0  0  0  0  0  0
  -29.4710  -18.0960   20.7600 C   0  0  0  0  0  2  0  0  0  0  0  0
  -30.4310  -16.9390   21.2000 C   0  0  0  0  0  2  0  0  0  0  0  0
  -30.6550  -14.5120   20.4970 C   0  0  0  0  0  0  0  0  0  0  0  0
  -30.3900  -12.3290   19.3660 C   0  0  0  0  0  2  0  0  0  0  0  0
  -29.4690  -12.5070   18.1400 C   0  0  0  0  0  2  0  0  0  0  0  0
  -27.9880  -12.3750   18.5440 C   0  0  0  0  0  2  0  0  0  0  0  0
  -27.6260  -13.2290   19.7900 C   0  0  0  0  0  3  0  0  0  0  0  0
  -28.6600  -13.0250   20.9190 C   0  0  0  0  0  2  0  0  0  0  0  0
  -29.9890  -13.3320   20.3680 N   0  0  0  0  0  0  0  0  0  0  0  0
  -31.8060  -14.6690   20.0770 O   0  0  0  0  0  0  0  0  0  0  0  0
  -29.9390  -15.5570   20.9790 N   0  0  0  0  0  0  0  0  0  0  0  0
  -28.9920  -15.3550   21.2660 H   0  0  0  0  0  0  0  0  0  0  0  0
  -25.2180  -13.8500   20.4420 C   0  0  0  0  0  0  0  0  0  0  0  0
  -24.1410  -13.0870   20.8010 C   0  0  0  0  0  0  0  0  0  0  0  0
  -24.6000  -11.7340   20.8020 C   0  0  0  0  0  0  0  0  0  0  0  0
  -26.2640  -12.9640   20.2460 N   0  0  0  0  0  0  0  0  0  0  0  0
  -25.8950  -11.6860   20.5220 N   0  0  0  0  0  0  0  0  0  0  0  0
  -23.8660  -10.4760   20.9990 C   0  0  0  0  0  0  0  0  0  0  0  0
  -24.2800   -9.5210   21.9530 C   0  0  0  0  0  3  0  0  0  0  0  0
  -23.5470   -8.3270   22.1350 C   0  0  0  0  0  3  0  0  0  0  0  0
  -22.3890   -8.0810   21.3610 C   0  0  0  0  0  0  0  0  0  0  0  0
  -21.9950   -9.0250   20.3970 C   0  0  0  0  0  3  0  0  0  0  0  0
  -22.7270  -10.2090   20.2130 C   0  0  0  0  0  3  0  0  0  0  0  0
  -21.6300   -6.9390   21.4520 O   0  0  0  0  0  0  0  0  0  0  0  0
  -21.5610   -6.2110   22.6130 C   0  0  0  0  0  0  0  0  0  0  0  0
  -21.1130   -6.7820   23.8240 C   0  0  0  0  0  3  0  0  0  0  0  0
  -20.9900   -5.9800   24.9760 C   0  0  0  0  0  3  0  0  0  0  0  0
  -21.3050   -4.6090   24.9190 C   0  0  0  0  0  0  0  0  0  0  0  0
  -21.7460   -4.0380   23.7120 C   0  0  0  0  0  3  0  0  0  0  0  0
  -21.8700   -4.8370   22.5620 C   0  0  0  0  0  0  0  0  0  0  0  0
  -22.2760   -4.2780   21.3960 F   0  0  0  0  0  0  0  0  0  0  0  0
  -21.1800   -3.8380   26.0240 F   0  0  0  0  0  0  0  0  0  0  0  0
  -22.7390  -13.5710   21.0360 C   0  0  0  0  0  0  0  0  0  0  0  0
  -21.9910  -12.8910   21.8990 N   0  0  0  0  0  0  0  0  0  0  0  0
  -22.3140  -14.5890   20.4890 O   0  0  0  0  0  0  0  0  0  0  0  0
  -22.3460  -12.0700   22.3640 H   0  0  0  0  0  0  0  0  0  0  0  0
  -21.0500  -13.2010   22.0990 H   0  0  0  0  0  0  0  0  0  0  0  0
  -25.3900  -15.2170   20.2450 N   0  0  0  0  0  0  0  0  0  0  0  0
  -24.6230  -15.8760   20.3300 H   0  0  0  0  0  0  0  0  0  0  0  0
  -26.2450  -15.6490   19.9170 H   0  0  0  0  0  0  0  0  0  0  0  0
  1  5  2  0
  1  2  1  0
  2  7  1  0
  2  3  2  0
  3  4  1  0
  5  6  1  0
  6 50  1  0
  6  3  1  0
  8  9  1  0
  8  7  1  0
 10 21  2  0
 11  9  1  0
 11 16  1  0
 12 20  1  0
 12 22  1  0
 13 19  1  0
 13 15  1  0
 14 20  1  0
 15 14  1  0
 16 15  2  0
 17 18  1  0
 17 11  2  0
 18 13  2  0
 19 12  1  0
 20 10  1  0
 22 24  2  0
 23 22  1  0
 25 23  1  0
 26 35  2  0
 26 31  1  0
 27 23  1  0
 27 31  1  0
 28 27  1  0
 29 30  1  0
 29 28  1  0
 30 26  1  0
 31 32  2  0
 32 33  1  0
 34 33  2  0
 35 34  1  0
 36 10  1  0
 36 37  1  0
 36 46  1  0
 37 40  1  0
 38 42  1  0
 38 37  1  0
 39 38  2  0
 42 41  1  0
 44 42  1  0
 44 45  1  0
 44 43  1  0
 46 49  1  1
 46 47  1  0
 48 46  1  0
 51 50  1  0
 51 52  1  0
 53 61  1  0
 54 59  1  0
 55 56  1  0
 55 54  1  0
 57 56  1  0
 57 66  1  0
 57 58  1  0
 59 53  1  0
 59 58  1  0
 60 53  2  0
 61 52  1  0
 61 62  1  0
 63 64  2  0
 64 65  1  0
 64 83  1  0
 65 68  1  0
 66 63  1  0
 66 67  1  0
 67 65  2  0
 68 69  1  0
 69 70  2  0
 71 74  1  0
 71 70  1  0
 72 71  2  0
 73 72  1  0
 73 68  2  0
 74 75  1  0
 75 76  1  0
 76 77  2  0
 78 77  1  0
 78 82  1  0
 79 78  2  0
 80 75  2  0
 80 79  1  0
 81 80  1  0
 83 84  1  0
 84 87  1  0
 84 86  1  0
 85 83  2  0
 88 89  1  0
 88 63  1  0
 90 88  1  0
M  ISO  4   8 101   9 101  53 100  61 100
M  END
>  <TORSDO>  (72) 
F 21

>  <SCORE>  (72) 
-13.533

>  <name>  (72) 
71

>  <ligand_id>  (72) 
71

>  <original_smiles>  (72) 
[H]c1nn(C([H])([H])C([H])([H])C([H])([H])N([H])C(=O)N2C([H])([H])C([H])([H])C([H])([H])C([H])(n3nc(-c4c([H])c([H])c(Oc5c([H])c([H])c(F)c([H])c5F)c([H])c4[H])c(C(=O)N([H])[H])c3N([H])[H])C2([H])[H])c(C([H])([H])[H])c1C([H])([H])C([H])([H])Oc1c([H])c([H])c2c(c1[H])C([H])([H])N(C(=O)C([H])(N([H])C(=O)C([H])(N([H])C([H])([H])[H])C([H])([H])[H])C(C([H])([H])[H])(C([H])([H])[H])C([H])([H])[H])C([H])(C(=O)N([H])C1([H])c3c([H])c([H])c([H])c([H])c3C([H])([H])C([H])([H])C1([H])[H])C2([H])[H]

>  <smiles>  (72) 
[H]c1nn(C([H])([H])C([H])([H])C([H])([H])N([H])C(=O)N2C([H])([H])C([H])([H])C([H])([H])C([H])(n3nc(-c4c([H])c([H])c(Oc5c([H])c([H])c(F)c([H])c5F)c([H])c4[H])c(C(=O)N([H])[H])c3N([H])[H])C2([H])[H])c(C([H])([H])[H])c1C([H])([H])C([H])([H])Oc1c([H])c([H])c2c(c1[H])C([H])([H])N(C(=O)C([H])(N([H])C(=O)C([H])(N([H])C([H])([H])[H])C([H])([H])[H])C(C([H])([H])[H])(C([H])([H])[H])C([H])([H])[H])C([H])(C(=O)N([H])C1([H])c3c([H])c([H])c([H])c([H])c3C([H])([H])C([H])([H])C1([H])[H])C2([H])[H]

> <Step>
39.0

> <Scaffold>
O=C(NC1CCCc2ccccc21)C1Cc2ccc(OCCc3cnn(CCCNC(=O)N4CCCC(n5ccc(-c6ccc(Oc7ccccc7)cc6)n5)C4)c3)cc2CN1

> <SMILES>
CNC(C)C(=O)NC(C(=O)N1Cc2cc(OCCc3cnn(CCCNC(=O)N4CCCC(n5nc(-c6ccc(Oc7ccc(F)cc7F)cc6)c(C(N)=O)c5N)C4)c3C)ccc2CC1C(=O)NC1CCCc2ccccc21)C(C)(C)C

> <Tanimoto ROCS sim>
0.21699996292591095

> <Custom alerts>
1.0

> <Linker Num Aromatic Rings>
1.0

> <Linker Effective Length>
1.0

> <ADV>
0.993034303188324

> <PostDock Tanimoto ROCS sim>
0.9913442134857178

> <raw_Linker Num Aromatic Rings>
1.0

> <raw_Linker Effective Length>
8.0

> <raw_ADV>
-13.616000175476074

> <total_score>
0.9960946440696716

> <ID>
default_job_171

> <PostDock Tanimoto ROCS sim (re-score)>
0.9807518

> <raw_ADV (re-score)>
-13.533

$$$$
default_job_172
     RDKit          3D

 91 99  0  0  1  0  0  0  0  0999 V2000
  -30.2480  -22.6950   22.1610 C   0  0  0  0  0  0  0  0  0  0  0  0
  -30.3100  -21.9680   20.9460 C   0  0  0  0  0  0  0  0  0  0  0  0
  -29.1110  -24.3610   21.0690 C   0  0  0  0  0  0  0  0  0  0  0  0
  -30.8260  -22.1800   23.4650 C   0  0  0  0  0  1  0  0  0  0  0  0
  -29.6450  -23.9040   22.2100 N   0  0  0  0  0  0  0  0  0  0  0  0
  -29.7760  -22.5160   19.8200 N   0  0  0  0  0  0  0  0  0  0  0  0
  -29.1620  -23.7150   19.8850 N   0  0  0  0  0  0  0  0  0  0  0  0
  -30.9900  -20.5910   20.8240 C   0  0  0  0  0  2  0  0  0  0  0  0
  -30.0130  -19.3900   20.7140 C   0  0  0  0  0  2  0  0  0  0  0  0
  -30.6320  -17.9780   20.9460 C   0  0  0  0  0  2  0  0  0  0  0  0
  -29.6900  -16.8500   20.4480 C   0  0  0  0  0  2  0  0  0  0  0  0
  -30.6290  -14.5150   20.4310 C   0  0  0  0  0  0  0  0  0  0  0  0
  -30.3560  -12.3540   19.2720 C   0  0  0  0  0  2  0  0  0  0  0  0
  -29.4080  -12.5800   18.0750 C   0  0  0  0  0  2  0  0  0  0  0  0
  -27.9330  -12.4360   18.5030 C   0  0  0  0  0  2  0  0  0  0  0  0
  -27.6030  -13.2520   19.7800 C   0  0  0  0  0  3  0  0  0  0  0  0
  -28.6610  -12.9990   20.8830 C   0  0  0  0  0  2  0  0  0  0  0  0
  -29.9910  -13.3150   20.3270 N   0  0  0  0  0  0  0  0  0  0  0  0
  -31.7160  -14.7520   19.8980 O   0  0  0  0  0  0  0  0  0  0  0  0
  -29.8920  -15.4940   20.9900 N   0  0  0  0  0  0  0  0  0  0  0  0
  -29.1040  -15.1400   21.5130 H   0  0  0  0  0  0  0  0  0  0  0  0
  -25.1980  -13.8580   20.4760 C   0  0  0  0  0  0  0  0  0  0  0  0
  -24.1310  -13.0850   20.8500 C   0  0  0  0  0  0  0  0  0  0  0  0
  -24.5970  -11.7340   20.8270 C   0  0  0  0  0  0  0  0  0  0  0  0
  -26.2470  -12.9780   20.2540 N   0  0  0  0  0  0  0  0  0  0  0  0
  -25.8860  -11.6960   20.5200 N   0  0  0  0  0  0  0  0  0  0  0  0
  -23.8760  -10.4700   21.0260 C   0  0  0  0  0  0  0  0  0  0  0  0
  -24.3190   -9.5070   21.9590 C   0  0  0  0  0  3  0  0  0  0  0  0
  -23.6000   -8.3070   22.1450 C   0  0  0  0  0  3  0  0  0  0  0  0
  -22.4230   -8.0630   21.3980 C   0  0  0  0  0  0  0  0  0  0  0  0
  -21.9990   -9.0140   20.4530 C   0  0  0  0  0  3  0  0  0  0  0  0
  -22.7180  -10.2060   20.2660 C   0  0  0  0  0  3  0  0  0  0  0  0
  -21.6730   -6.9150   21.4930 O   0  0  0  0  0  0  0  0  0  0  0  0
  -21.6430   -6.1690   22.6440 C   0  0  0  0  0  0  0  0  0  0  0  0
  -21.2340   -6.7190   23.8790 C   0  0  0  0  0  3  0  0  0  0  0  0
  -21.1520   -5.8990   25.0220 C   0  0  0  0  0  3  0  0  0  0  0  0
  -21.4680   -4.5290   24.9310 C   0  0  0  0  0  0  0  0  0  0  0  0
  -21.8690   -3.9790   23.7010 C   0  0  0  0  0  3  0  0  0  0  0  0
  -21.9530   -4.7970   22.5610 C   0  0  0  0  0  0  0  0  0  0  0  0
  -22.3200   -4.2560   21.3740 F   0  0  0  0  0  0  0  0  0  0  0  0
  -21.3810   -3.7390   26.0260 F   0  0  0  0  0  0  0  0  0  0  0  0
  -22.7330  -13.5580   21.1210 C   0  0  0  0  0  0  0  0  0  0  0  0
  -22.0080  -12.8620   21.9910 N   0  0  0  0  0  0  0  0  0  0  0  0
  -22.2890  -14.5800   20.5980 O   0  0  0  0  0  0  0  0  0  0  0  0
  -22.3790  -12.0350   22.4360 H   0  0  0  0  0  0  0  0  0  0  0  0
  -21.0690  -13.1590   22.2160 H   0  0  0  0  0  0  0  0  0  0  0  0
  -25.3590  -15.2280   20.2890 N   0  0  0  0  0  0  0  0  0  0  0  0
  -24.5880  -15.8810   20.3770 H   0  0  0  0  0  0  0  0  0  0  0  0
  -26.2120  -15.6650   19.9630 H   0  0  0  0  0  0  0  0  0  0  0  0
  -28.2010  -25.5990   21.1970 C   0  0  0  0  0  2  0  0  0  0  0  0
  -28.3710  -26.6690   20.2420 O   0  0  0  0  0  0  0  0  0  0  0  0
  -24.5900  -31.9120   23.2600 C   0  0  0  0  0  0  0  0  0  0  0  0
  -27.2470  -27.4660   20.1920 C   0  0  0  0  0  0  0  0  0  0  0  0
  -23.3910  -30.5040   21.6190 C   0  0  0  0  0  3  0  0  0  0  0  0
  -24.8530  -28.9730   20.1920 C   0  0  0  0  0  0  0  0  0  0  0  0
  -25.9180  -30.8630   21.4320 C   0  0  0  0  0  2  0  0  0  0  0  0
  -26.0100  -29.4960   20.7860 C   0  0  0  0  0  0  0  0  0  0  0  0
  -27.2130  -28.7500   20.7850 C   0  0  0  0  0  3  0  0  0  0  0  0
  -26.0790  -26.9630   19.5810 C   0  0  0  0  0  3  0  0  0  0  0  0
  -24.8830  -27.7050   19.5850 C   0  0  0  0  0  3  0  0  0  0  0  0
  -23.6050  -29.8260   20.2390 C   0  0  0  0  0  2  0  0  0  0  0  0
  -24.6520  -31.1040   22.1640 N   0  0  0  0  0  0  0  0  0  0  0  0
  -23.5030  -32.2060   23.7750 O   0  0  0  0  0  0  0  0  0  0  0  0
  -22.7370  -29.4810   22.5770 C   0  0  0  0  0  0  0  0  0  0  0  0
  -21.4140  -29.2930   22.4430 N   0  0  0  0  0  0  0  0  0  0  0  0
  -23.4180  -28.8600   23.3970 O   0  0  0  0  0  0  0  0  0  0  0  0
  -20.9260  -29.8460   21.7540 H   0  0  0  0  0  0  0  0  0  0  0  0
  -18.0420  -28.0820   22.9180 C   0  0  0  0  0  0  0  0  0  0  0  0
  -20.5960  -28.3520   23.2100 C   0  0  0  0  0  3  0  0  0  0  0  0
  -20.7110  -26.9210   22.6370 C   0  0  0  0  0  2  0  0  0  0  0  0
  -19.6180  -26.5910   21.6150 C   0  0  0  0  0  2  0  0  0  0  0  0
  -18.2300  -26.7320   22.2460 C   0  0  0  0  0  2  0  0  0  0  0  0
  -19.1540  -28.8500   23.3550 C   0  0  0  0  0  0  0  0  0  0  0  0
  -18.9250  -30.1140   23.9410 C   0  0  0  0  0  3  0  0  0  0  0  0
  -17.6160  -30.6110   24.0940 C   0  0  0  0  0  3  0  0  0  0  0  0
  -16.5190  -29.8400   23.6730 C   0  0  0  0  0  3  0  0  0  0  0  0
  -16.7320  -28.5780   23.0910 C   0  0  0  0  0  3  0  0  0  0  0  0
  -25.8760  -32.5360   23.8920 C   0  0  0  0  0  3  0  0  0  0  0  0
  -25.5730  -33.9360   24.2130 N   0  0  0  0  0  0  0  0  0  0  0  0
  -25.9110  -34.9810   23.4460 C   0  0  0  0  0  0  0  0  0  0  0  0
  -26.5820  -34.8680   22.4170 O   0  0  0  0  0  0  0  0  0  0  0  0
  -24.9790  -34.0970   25.0110 H   0  0  0  0  0  0  0  0  0  0  0  0
  -24.1860  -36.7720   23.0720 C   0  0  0  0  0  1  0  0  0  0  0  0
  -25.4240  -36.3730   23.8910 C   0  0  0  0  0  3  0  0  0  0  0  0
  -27.5580  -37.2580   24.7190 C   0  0  0  0  0  1  0  0  0  0  0  0
  -26.4590  -37.4230   23.7730 N   0  0  0  0  0  0  0  0  0  0  0  0
  -26.0540  -38.3440   23.9140 H   0  0  0  0  0  0  0  0  0  0  0  0
  -26.3830  -31.7660   25.1740 C   0  0  1  0  0  0  0  0  0  0  0  0
  -25.2820  -31.5380   26.2350 C   0  0  0  0  0  1  0  0  0  0  0  0
  -26.9630  -30.3860   24.7890 C   0  0  0  0  0  1  0  0  0  0  0  0
  -27.5320  -32.5590   25.8400 C   0  0  0  0  0  1  0  0  0  0  0  0
  1  5  1  0
  1  4  1  0
  2  1  2  0
  3 50  1  0
  3  5  2  0
  6  7  2  0
  6  2  1  0
  7  3  1  0
  8  2  1  0
  9  8  1  0
  9 10  1  0
 11 10  1  0
 11 20  1  0
 12 20  1  0
 13 18  1  0
 14 15  1  0
 14 13  1  0
 16 15  1  0
 16 25  1  0
 16 17  1  0
 18 12  1  0
 18 17  1  0
 19 12  2  0
 20 21  1  0
 22 23  2  0
 23 42  1  0
 24 23  1  0
 24 27  1  0
 25 22  1  0
 25 26  1  0
 26 24  2  0
 27 28  1  0
 28 29  2  0
 30 33  1  0
 30 29  1  0
 31 30  2  0
 32 31  1  0
 32 27  2  0
 33 34  1  0
 34 35  1  0
 35 36  2  0
 37 36  1  0
 37 41  1  0
 38 37  2  0
 39 34  2  0
 39 38  1  0
 40 39  1  0
 42 43  1  0
 43 46  1  0
 43 45  1  0
 44 42  2  0
 47 48  1  0
 47 22  1  0
 49 47  1  0
 51 50  1  0
 52 63  2  0
 53 51  1  0
 53 58  1  0
 54 62  1  0
 54 64  1  0
 55 61  1  0
 55 57  1  0
 56 62  1  0
 57 56  1  0
 58 57  2  0
 59 60  1  0
 59 53  2  0
 60 55  2  0
 61 54  1  0
 62 52  1  0
 64 66  2  0
 65 64  1  0
 67 65  1  0
 68 77  2  0
 68 73  1  0
 69 65  1  0
 69 73  1  0
 70 69  1  0
 71 72  1  0
 71 70  1  0
 72 68  1  0
 73 74  2  0
 74 75  1  0
 76 75  2  0
 77 76  1  0
 78 52  1  0
 78 79  1  0
 78 88  1  0
 79 82  1  0
 80 84  1  0
 80 79  1  0
 81 80  2  0
 84 83  1  0
 86 84  1  0
 86 87  1  0
 86 85  1  0
 88 91  1  1
 88 89  1  0
 90 88  1  0
M  ISO  4  12 100  20 100  50 101  51 101
M  END
>  <TORSDO>  (73) 
F 21

>  <SCORE>  (73) 
-13.67

>  <name>  (73) 
72

>  <ligand_id>  (73) 
72

>  <original_smiles>  (73) 
[H]c1c([H])c([H])c2c(c1[H])C([H])([H])C([H])([H])C([H])([H])C2([H])N([H])C(=O)C1([H])N(C(=O)C([H])(N([H])C(=O)C([H])(N([H])C([H])([H])[H])C([H])([H])[H])C(C([H])([H])[H])(C([H])([H])[H])C([H])([H])[H])C([H])([H])c2c([H])c(OC([H])([H])c3nnc(C([H])([H])C([H])([H])C([H])([H])C([H])([H])N([H])C(=O)N4C([H])([H])C([H])([H])C([H])([H])C([H])(n5nc(-c6c([H])c([H])c(Oc7c([H])c([H])c(F)c([H])c7F)c([H])c6[H])c(C(=O)N([H])[H])c5N([H])[H])C4([H])[H])c(C([H])([H])[H])n3)c([H])c([H])c2C1([H])[H]

>  <smiles>  (73) 
[H]c1c([H])c([H])c2c(c1[H])C([H])([H])C([H])([H])C([H])([H])C2([H])N([H])C(=O)C1([H])N(C(=O)C([H])(N([H])C(=O)C([H])(N([H])C([H])([H])[H])C([H])([H])[H])C(C([H])([H])[H])(C([H])([H])[H])C([H])([H])[H])C([H])([H])c2c([H])c(OC([H])([H])c3nnc(C([H])([H])C([H])([H])C([H])([H])C([H])([H])N([H])C(=O)N4C([H])([H])C([H])([H])C([H])([H])C([H])(n5nc(-c6c([H])c([H])c(Oc7c([H])c([H])c(F)c([H])c7F)c([H])c6[H])c(C(=O)N([H])[H])c5N([H])[H])C4([H])[H])c(C([H])([H])[H])n3)c([H])c([H])c2C1([H])[H]

> <Step>
39.0

> <Scaffold>
O=C(NC1CCCc2ccccc21)C1Cc2ccc(OCc3ncc(CCCCNC(=O)N4CCCC(n5ccc(-c6ccc(Oc7ccccc7)cc6)n5)C4)nn3)cc2CN1

> <SMILES>
CNC(C)C(=O)NC(C(=O)N1Cc2cc(OCc3nnc(CCCCNC(=O)N4CCCC(n5nc(-c6ccc(Oc7ccc(F)cc7F)cc6)c(C(N)=O)c5N)C4)c(C)n3)ccc2CC1C(=O)NC1CCCc2ccccc21)C(C)(C)C

> <Tanimoto ROCS sim>
0.20991277694702148

> <Custom alerts>
1.0

> <Linker Num Aromatic Rings>
1.0

> <Linker Effective Length>
1.0

> <ADV>
0.9933571219444275

> <PostDock Tanimoto ROCS sim>
0.9910110235214233

> <raw_Linker Num Aromatic Rings>
1.0

> <raw_Linker Effective Length>
9.0

> <raw_ADV>
-13.699000358581543

> <total_score>
0.9960920810699463

> <ID>
default_job_172

> <PostDock Tanimoto ROCS sim (re-score)>
0.98380256

> <raw_ADV (re-score)>
-13.67

$$$$
default_job_173
     RDKit          3D

 91 99  0  0  1  0  0  0  0  0999 V2000
  -27.3240  -20.8990   19.7810 C   0  0  0  0  0  2  0  0  0  0  0  0
  -29.4150  -21.2910   20.8730 C   0  0  0  0  0  2  0  0  0  0  0  0
  -27.8230  -19.5140   19.2920 C   0  0  0  0  0  2  0  0  0  0  0  0
  -29.9550  -19.9400   20.3430 C   0  0  0  0  0  2  0  0  0  0  0  0
  -28.4140  -21.8820   19.9660 N   0  0  0  0  0  0  0  0  0  0  0  0
  -28.8400  -18.9710   20.2300 N   0  0  2  0  0  4  0  0  0  0  0  0
  -28.3810  -18.9600   21.1290 H   0  0  0  0  0  0  0  0  0  0  0  0
  -27.8090  -23.0930   20.5590 C   0  0  0  0  0  2  0  0  0  0  0  0
  -28.7360  -24.3280   20.7390 C   0  0  0  0  0  2  0  0  0  0  0  0
  -28.6020  -25.4410   19.6690 C   0  0  0  0  0  2  0  0  0  0  0  0
  -28.4680  -26.7540   20.2540 O   0  0  0  0  0  0  0  0  0  0  0  0
  -24.5930  -31.9490   23.2530 C   0  0  0  0  0  0  0  0  0  0  0  0
  -27.2640  -27.4420   20.2440 C   0  0  0  0  0  0  0  0  0  0  0  0
  -23.4030  -30.5200   21.6260 C   0  0  0  0  0  3  0  0  0  0  0  0
  -24.8660  -28.9650   20.2370 C   0  0  0  0  0  0  0  0  0  0  0  0
  -25.9360  -30.8650   21.4560 C   0  0  0  0  0  2  0  0  0  0  0  0
  -26.0220  -29.4870   20.8280 C   0  0  0  0  0  0  0  0  0  0  0  0
  -27.2190  -28.7320   20.8300 C   0  0  0  0  0  3  0  0  0  0  0  0
  -26.0740  -26.9310   19.6710 C   0  0  0  0  0  3  0  0  0  0  0  0
  -24.8880  -27.6850   19.6600 C   0  0  0  0  0  3  0  0  0  0  0  0
  -23.6270  -29.8270   20.2570 C   0  0  0  0  0  2  0  0  0  0  0  0
  -24.6620  -31.1240   22.1710 N   0  0  0  0  0  0  0  0  0  0  0  0
  -23.5010  -32.2510   23.7560 O   0  0  0  0  0  0  0  0  0  0  0  0
  -22.7440  -29.5070   22.5920 C   0  0  0  0  0  0  0  0  0  0  0  0
  -21.4210  -29.3190   22.4520 N   0  0  0  0  0  0  0  0  0  0  0  0
  -23.4200  -28.8930   23.4220 O   0  0  0  0  0  0  0  0  0  0  0  0
  -20.9370  -29.8700   21.7580 H   0  0  0  0  0  0  0  0  0  0  0  0
  -18.0400  -28.1430   22.9430 C   0  0  0  0  0  0  0  0  0  0  0  0
  -20.5980  -28.3870   23.2230 C   0  0  0  0  0  3  0  0  0  0  0  0
  -20.6940  -26.9540   22.6510 C   0  0  0  0  0  2  0  0  0  0  0  0
  -19.5930  -26.6340   21.6350 C   0  0  0  0  0  2  0  0  0  0  0  0
  -18.2110  -26.7900   22.2750 C   0  0  0  0  0  2  0  0  0  0  0  0
  -19.1610  -28.9000   23.3740 C   0  0  0  0  0  0  0  0  0  0  0  0
  -18.9480  -30.1680   23.9580 C   0  0  0  0  0  3  0  0  0  0  0  0
  -17.6470  -30.6790   24.1150 C   0  0  0  0  0  3  0  0  0  0  0  0
  -16.5400  -29.9190   23.7020 C   0  0  0  0  0  3  0  0  0  0  0  0
  -16.7360  -28.6540   23.1210 C   0  0  0  0  0  3  0  0  0  0  0  0
  -25.8730  -32.5780   23.8880 C   0  0  0  0  0  3  0  0  0  0  0  0
  -25.5660  -33.9790   24.1980 N   0  0  0  0  0  0  0  0  0  0  0  0
  -25.9020  -35.0200   23.4250 C   0  0  0  0  0  0  0  0  0  0  0  0
  -26.5790  -34.9020   22.3990 O   0  0  0  0  0  0  0  0  0  0  0  0
  -24.9690  -34.1470   24.9950 H   0  0  0  0  0  0  0  0  0  0  0  0
  -24.1810  -36.8080   23.0260 C   0  0  0  0  0  1  0  0  0  0  0  0
  -25.4090  -36.4140   23.8600 C   0  0  0  0  0  3  0  0  0  0  0  0
  -27.5280  -37.3090   24.7190 C   0  0  0  0  0  1  0  0  0  0  0  0
  -26.4450  -37.4630   23.7510 N   0  0  0  0  0  0  0  0  0  0  0  0
  -26.0360  -38.3850   23.8770 H   0  0  0  0  0  0  0  0  0  0  0  0
  -26.3750  -31.8210   25.1780 C   0  0  1  0  0  0  0  0  0  0  0  0
  -25.2700  -31.5910   26.2330 C   0  0  0  0  0  1  0  0  0  0  0  0
  -26.9670  -30.4410   24.8060 C   0  0  0  0  0  1  0  0  0  0  0  0
  -27.5160  -32.6230   25.8490 C   0  0  0  0  0  1  0  0  0  0  0  0
  -29.2290  -17.5550   19.9620 C   0  0  0  0  0  2  0  0  0  0  0  0
  -29.9280  -16.8690   21.1690 C   0  0  0  0  0  2  0  0  0  0  0  0
  -30.6530  -14.4950   20.5430 C   0  0  0  0  0  0  0  0  0  0  0  0
  -30.4490  -12.3600   19.3250 C   0  0  0  0  0  2  0  0  0  0  0  0
  -29.5030  -12.5870   18.1230 C   0  0  0  0  0  2  0  0  0  0  0  0
  -28.0180  -12.4590   18.5300 C   0  0  0  0  0  2  0  0  0  0  0  0
  -27.6750  -13.2500   19.8200 C   0  0  0  0  0  3  0  0  0  0  0  0
  -28.7160  -12.9390   20.9210 C   0  0  0  0  0  2  0  0  0  0  0  0
  -30.0470  -13.2880   20.3870 N   0  0  0  0  0  0  0  0  0  0  0  0
  -31.7570  -14.7810   20.0690 O   0  0  0  0  0  0  0  0  0  0  0  0
  -29.8490  -15.4050   21.1170 N   0  0  0  0  0  0  0  0  0  0  0  0
  -28.9990  -15.0070   21.4900 H   0  0  0  0  0  0  0  0  0  0  0  0
  -25.2600  -13.8620   20.4700 C   0  0  0  0  0  0  0  0  0  0  0  0
  -24.1870  -13.0950   20.8320 C   0  0  0  0  0  0  0  0  0  0  0  0
  -24.6530  -11.7440   20.8240 C   0  0  0  0  0  0  0  0  0  0  0  0
  -26.3130  -12.9820   20.2700 N   0  0  0  0  0  0  0  0  0  0  0  0
  -25.9480  -11.7030   20.5390 N   0  0  0  0  0  0  0  0  0  0  0  0
  -23.9280  -10.4830   21.0130 C   0  0  0  0  0  0  0  0  0  0  0  0
  -24.3400   -9.5320   21.9700 C   0  0  0  0  0  3  0  0  0  0  0  0
  -23.6170   -8.3330   22.1450 C   0  0  0  0  0  3  0  0  0  0  0  0
  -22.4670   -8.0770   21.3620 C   0  0  0  0  0  0  0  0  0  0  0  0
  -22.0760   -9.0170   20.3910 C   0  0  0  0  0  3  0  0  0  0  0  0
  -22.7990  -10.2080   20.2150 C   0  0  0  0  0  3  0  0  0  0  0  0
  -21.7160   -6.9300   21.4450 O   0  0  0  0  0  0  0  0  0  0  0  0
  -21.6310   -6.2100   22.6110 C   0  0  0  0  0  0  0  0  0  0  0  0
  -21.1320   -6.7790   23.8030 C   0  0  0  0  0  3  0  0  0  0  0  0
  -20.9960   -5.9850   24.9590 C   0  0  0  0  0  3  0  0  0  0  0  0
  -21.3470   -4.6210   24.9230 C   0  0  0  0  0  0  0  0  0  0  0  0
  -21.8360   -4.0520   23.7350 C   0  0  0  0  0  3  0  0  0  0  0  0
  -21.9740   -4.8430   22.5810 C   0  0  0  0  0  0  0  0  0  0  0  0
  -22.4270   -4.2840   21.4330 F   0  0  0  0  0  0  0  0  0  0  0  0
  -21.2060   -3.8550   26.0310 F   0  0  0  0  0  0  0  0  0  0  0  0
  -22.7840  -13.5720   21.0760 C   0  0  0  0  0  0  0  0  0  0  0  0
  -22.0370  -12.8800   21.9280 N   0  0  0  0  0  0  0  0  0  0  0  0
  -22.3550  -14.5970   20.5440 O   0  0  0  0  0  0  0  0  0  0  0  0
  -22.3900  -12.0530   22.3860 H   0  0  0  0  0  0  0  0  0  0  0  0
  -21.0960  -13.1850   22.1280 H   0  0  0  0  0  0  0  0  0  0  0  0
  -25.4220  -15.2320   20.2730 N   0  0  0  0  0  0  0  0  0  0  0  0
  -24.6380  -15.8720   20.3430 H   0  0  0  0  0  0  0  0  0  0  0  0
  -26.2400  -15.6480   19.8540 H   0  0  0  0  0  0  0  0  0  0  0  0
  1  5  1  0
  3  1  1  0
  3  6  1  0
  4  2  1  0
  5  8  1  0
  5  2  1  0
  6  4  1  0
  6  7  1  1
  8  9  1  0
 10 11  1  0
 10  9  1  0
 12 23  2  0
 13 11  1  0
 13 18  1  0
 14 22  1  0
 14 24  1  0
 15 21  1  0
 15 17  1  0
 16 22  1  0
 17 18  2  0
 17 16  1  0
 19 13  2  0
 20 19  1  0
 20 15  2  0
 21 14  1  0
 22 12  1  0
 24 26  2  0
 25 24  1  0
 27 25  1  0
 28 37  2  0
 28 33  1  0
 29 25  1  0
 29 33  1  0
 30 29  1  0
 31 32  1  0
 31 30  1  0
 32 28  1  0
 33 34  2  0
 34 35  1  0
 36 35  2  0
 37 36  1  0
 38 12  1  0
 38 39  1  0
 38 48  1  0
 39 42  1  0
 40 44  1  0
 40 39  1  0
 41 40  2  0
 44 43  1  0
 46 44  1  0
 46 47  1  0
 46 45  1  0
 48 51  1  1
 48 49  1  0
 50 48  1  0
 52  6  1  0
 52 53  1  0
 54 62  1  0
 55 60  1  0
 56 57  1  0
 56 55  1  0
 58 57  1  0
 58 67  1  0
 58 59  1  0
 60 54  1  0
 60 59  1  0
 61 54  2  0
 62 53  1  0
 62 63  1  0
 64 65  2  0
 65 84  1  0
 66 65  1  0
 66 69  1  0
 67 64  1  0
 67 68  1  0
 68 66  2  0
 69 70  1  0
 70 71  2  0
 72 75  1  0
 72 71  1  0
 73 72  2  0
 74 73  1  0
 74 69  2  0
 75 76  1  0
 76 77  1  0
 77 78  2  0
 79 78  1  0
 79 83  1  0
 80 79  2  0
 81 76  2  0
 81 80  1  0
 82 81  1  0
 84 85  1  0
 85 88  1  0
 85 87  1  0
 86 84  2  0
 89 90  1  0
 89 64  1  0
 91 89  1  0
M  ISO  4  10 101  11 101  54 100  62 100
M  END
>  <TORSDO>  (74) 
F 21

>  <SCORE>  (74) 
-13.423

>  <name>  (74) 
73

>  <ligand_id>  (74) 
73

>  <original_smiles>  (74) 
[H]c1c([H])c([H])c2c(c1[H])C([H])([H])C([H])([H])C([H])([H])C2([H])N([H])C(=O)C1([H])N(C(=O)C([H])(N([H])C(=O)C([H])(N([H])C([H])([H])[H])C([H])([H])[H])C(C([H])([H])[H])(C([H])([H])[H])C([H])([H])[H])C([H])([H])c2c([H])c(OC([H])([H])C([H])([H])C([H])([H])N3C([H])([H])C([H])([H])[N+]([H])(C([H])([H])C([H])([H])N([H])C(=O)N4C([H])([H])C([H])([H])C([H])([H])C([H])(n5nc(-c6c([H])c([H])c(Oc7c([H])c([H])c(F)c([H])c7F)c([H])c6[H])c(C(=O)N([H])[H])c5N([H])[H])C4([H])[H])C([H])([H])C3([H])[H])c([H])c([H])c2C1([H])[H]

>  <smiles>  (74) 
[H]c1c([H])c([H])c2c(c1[H])C([H])([H])C([H])([H])C([H])([H])C2([H])N([H])C(=O)C1([H])N(C(=O)C([H])(N([H])C(=O)C([H])(N([H])C([H])([H])[H])C([H])([H])[H])C(C([H])([H])[H])(C([H])([H])[H])C([H])([H])[H])C([H])([H])c2c([H])c(OC([H])([H])C([H])([H])C([H])([H])N3C([H])([H])C([H])([H])[N+]([H])(C([H])([H])C([H])([H])N([H])C(=O)N4C([H])([H])C([H])([H])C([H])([H])C([H])(n5nc(-c6c([H])c([H])c(Oc7c([H])c([H])c(F)c([H])c7F)c([H])c6[H])c(C(=O)N([H])[H])c5N([H])[H])C4([H])[H])C([H])([H])C3([H])[H])c([H])c([H])c2C1([H])[H]

> <Step>
119.0

> <Scaffold>
O=C(NC1CCCc2ccccc21)C1Cc2ccc(OCCCN3CCN(CCNC(=O)N4CCCC(n5ccc(-c6ccc(Oc7ccccc7)cc6)n5)C4)CC3)cc2CN1

> <SMILES>
CNC(C)C(=O)NC(C(=O)N1Cc2cc(OCCCN3CCN(CCNC(=O)N4CCCC(n5nc(-c6ccc(Oc7ccc(F)cc7F)cc6)c(C(N)=O)c5N)C4)CC3)ccc2CC1C(=O)NC1CCCc2ccccc21)C(C)(C)C

> <Tanimoto ROCS sim>
0.21173205971717834

> <Custom alerts>
1.0

> <Linker Num Aromatic Rings>
1.0

> <Linker Effective Length>
1.0

> <ADV>
0.9930700659751892

> <PostDock Tanimoto ROCS sim>
0.9912981390953064

> <raw_Linker Num Aromatic Rings>
0.0

> <raw_Linker Effective Length>
9.0

> <raw_ADV>
-13.625

> <total_score>
0.9960920810699463

> <ID>
default_job_173

> <PostDock Tanimoto ROCS sim (re-score)>
0.97977525

> <raw_ADV (re-score)>
-13.423

$$$$
default_job_174
     RDKit          3D

 91 99  0  0  1  0  0  0  0  0999 V2000
  -28.8220  -23.9050   20.1580 C   0  0  0  0  0  0  0  0  0  0  0  0
  -29.0530  -22.8090   17.9630 C   0  0  0  0  0  1  0  0  0  0  0  0
  -29.0470  -22.7340   19.4370 N   0  0  0  0  0  0  0  0  0  0  0  0
  -28.8180  -23.9120   21.3940 O   0  0  0  0  0  0  0  0  0  0  0  0
  -30.8070  -19.7540   21.1190 C   0  0  0  0  0  3  0  0  0  0  0  0
  -28.9550  -18.8980   19.8380 C   0  0  0  0  0  3  0  0  0  0  0  0
  -30.4290  -21.0970   20.8130 C   0  0  0  0  0  3  0  0  0  0  0  0
  -28.5750  -20.2440   19.5300 C   0  0  0  0  0  3  0  0  0  0  0  0
  -30.1110  -18.6130   20.6130 C   0  0  0  0  0  0  0  0  0  0  0  0
  -29.3150  -21.3850   19.9780 C   0  0  0  0  0  0  0  0  0  0  0  0
  -30.7500  -17.1840   20.8090 C   0  0  0  0  0  2  0  0  0  0  0  0
  -30.6760  -14.6770   20.4080 C   0  0  0  0  0  0  0  0  0  0  0  0
  -30.3690  -12.4490   19.3520 C   0  0  0  0  0  2  0  0  0  0  0  0
  -29.4330  -12.5620   18.1310 C   0  0  0  0  0  2  0  0  0  0  0  0
  -27.9660  -12.3990   18.5680 C   0  0  0  0  0  2  0  0  0  0  0  0
  -27.6080  -13.2770   19.7970 C   0  0  0  0  0  3  0  0  0  0  0  0
  -28.6740  -13.1800   20.9130 C   0  0  0  0  0  2  0  0  0  0  0  0
  -29.9730  -13.5010   20.3110 N   0  0  0  0  0  0  0  0  0  0  0  0
  -31.8570  -14.7180   20.0620 O   0  0  0  0  0  0  0  0  0  0  0  0
  -30.0300  -15.8550   20.7090 N   0  0  0  0  0  0  0  0  0  0  0  0
  -29.0510  -15.8210   20.9480 H   0  0  0  0  0  0  0  0  0  0  0  0
  -25.2200  -13.8560   20.5270 C   0  0  0  0  0  0  0  0  0  0  0  0
  -24.1560  -13.0770   20.8960 C   0  0  0  0  0  0  0  0  0  0  0  0
  -24.6260  -11.7280   20.8650 C   0  0  0  0  0  0  0  0  0  0  0  0
  -26.2680  -12.9820   20.2910 N   0  0  0  0  0  0  0  0  0  0  0  0
  -25.9180  -11.6960   20.5590 N   0  0  0  0  0  0  0  0  0  0  0  0
  -23.9050  -10.4610   21.0570 C   0  0  0  0  0  0  0  0  0  0  0  0
  -24.3450   -9.4940   21.9890 C   0  0  0  0  0  3  0  0  0  0  0  0
  -23.6260   -8.2910   22.1650 C   0  0  0  0  0  3  0  0  0  0  0  0
  -22.4520   -8.0500   21.4140 C   0  0  0  0  0  0  0  0  0  0  0  0
  -22.0330   -9.0050   20.4690 C   0  0  0  0  0  3  0  0  0  0  0  0
  -22.7520  -10.1970   20.2900 C   0  0  0  0  0  3  0  0  0  0  0  0
  -21.7010   -6.9040   21.5020 O   0  0  0  0  0  0  0  0  0  0  0  0
  -21.6640   -6.1560   22.6520 C   0  0  0  0  0  0  0  0  0  0  0  0
  -21.2380   -6.7020   23.8830 C   0  0  0  0  0  3  0  0  0  0  0  0
  -21.1480   -5.8790   25.0260 C   0  0  0  0  0  3  0  0  0  0  0  0
  -21.4740   -4.5130   24.9360 C   0  0  0  0  0  0  0  0  0  0  0  0
  -21.8920   -3.9680   23.7090 C   0  0  0  0  0  3  0  0  0  0  0  0
  -21.9850   -4.7870   22.5720 C   0  0  0  0  0  0  0  0  0  0  0  0
  -22.3690   -4.2500   21.3880 F   0  0  0  0  0  0  0  0  0  0  0  0
  -21.3800   -3.7210   26.0300 F   0  0  0  0  0  0  0  0  0  0  0  0
  -22.7560  -13.5460   21.1660 C   0  0  0  0  0  0  0  0  0  0  0  0
  -22.0290  -12.8430   22.0290 N   0  0  0  0  0  0  0  0  0  0  0  0
  -22.3140  -14.5690   20.6470 O   0  0  0  0  0  0  0  0  0  0  0  0
  -22.4010  -12.0160   22.4690 H   0  0  0  0  0  0  0  0  0  0  0  0
  -21.0900  -13.1390   22.2510 H   0  0  0  0  0  0  0  0  0  0  0  0
  -25.3770  -15.2280   20.3510 N   0  0  0  0  0  0  0  0  0  0  0  0
  -24.6060  -15.8780   20.4560 H   0  0  0  0  0  0  0  0  0  0  0  0
  -26.2300  -15.6710   20.0320 H   0  0  0  0  0  0  0  0  0  0  0  0
  -28.5680  -25.2880   19.3980 C   0  0  0  0  0  2  0  0  0  0  0  0
  -28.3820  -26.5180   20.2090 O   0  0  0  0  0  0  0  0  0  0  0  0
  -24.6050  -31.8880   23.2230 C   0  0  0  0  0  0  0  0  0  0  0  0
  -27.2280  -27.3260   20.1500 C   0  0  0  0  0  0  0  0  0  0  0  0
  -23.3960  -30.4850   21.5920 C   0  0  0  0  0  3  0  0  0  0  0  0
  -24.8480  -28.9330   20.1590 C   0  0  0  0  0  0  0  0  0  0  0  0
  -25.9370  -30.7950   21.4130 C   0  0  0  0  0  2  0  0  0  0  0  0
  -26.0140  -29.4200   20.7580 C   0  0  0  0  0  0  0  0  0  0  0  0
  -27.1990  -28.6240   20.7500 C   0  0  0  0  0  3  0  0  0  0  0  0
  -26.0230  -26.8770   19.5570 C   0  0  0  0  0  3  0  0  0  0  0  0
  -24.8550  -27.6630   19.5560 C   0  0  0  0  0  3  0  0  0  0  0  0
  -23.6110  -29.8080   20.2090 C   0  0  0  0  0  2  0  0  0  0  0  0
  -24.6650  -31.0690   22.1340 N   0  0  0  0  0  0  0  0  0  0  0  0
  -23.5200  -32.1900   23.7350 O   0  0  0  0  0  0  0  0  0  0  0  0
  -22.7410  -29.4620   22.5530 C   0  0  0  0  0  0  0  0  0  0  0  0
  -21.4160  -29.2820   22.4310 N   0  0  0  0  0  0  0  0  0  0  0  0
  -23.4240  -28.8410   23.3700 O   0  0  0  0  0  0  0  0  0  0  0  0
  -20.9220  -29.8450   21.7510 H   0  0  0  0  0  0  0  0  0  0  0  0
  -18.0430  -28.0750   22.9360 C   0  0  0  0  0  0  0  0  0  0  0  0
  -20.6010  -28.3410   23.2030 C   0  0  0  0  0  3  0  0  0  0  0  0
  -20.7040  -26.9070   22.6300 C   0  0  0  0  0  2  0  0  0  0  0  0
  -19.6030  -26.5830   21.6150 C   0  0  0  0  0  2  0  0  0  0  0  0
  -18.2200  -26.7260   22.2570 C   0  0  0  0  0  2  0  0  0  0  0  0
  -19.1620  -28.8390   23.3650 C   0  0  0  0  0  0  0  0  0  0  0  0
  -18.9440  -30.1010   23.9570 C   0  0  0  0  0  3  0  0  0  0  0  0
  -17.6390  -30.6020   24.1270 C   0  0  0  0  0  3  0  0  0  0  0  0
  -16.5350  -29.8340   23.7160 C   0  0  0  0  0  3  0  0  0  0  0  0
  -16.7380  -28.5750   23.1250 C   0  0  0  0  0  3  0  0  0  0  0  0
  -25.8920  -32.5090   23.8530 C   0  0  0  0  0  3  0  0  0  0  0  0
  -26.4100  -31.7380   25.1310 C   0  0  1  0  0  0  0  0  0  0  0  0
  -25.3180  -31.5050   26.2030 C   0  0  0  0  0  1  0  0  0  0  0  0
  -27.0000  -30.3630   24.7430 C   0  0  0  0  0  1  0  0  0  0  0  0
  -27.5620  -32.5360   25.7890 C   0  0  0  0  0  1  0  0  0  0  0  0
  -25.5930  -33.9070   24.1870 N   0  0  0  0  0  0  0  0  0  0  0  0
  -25.9200  -34.9590   23.4250 C   0  0  0  0  0  0  0  0  0  0  0  0
  -26.5790  -34.8560   22.3860 O   0  0  0  0  0  0  0  0  0  0  0  0
  -25.0200  -34.0680   25.0030 H   0  0  0  0  0  0  0  0  0  0  0  0
  -24.1850  -36.7450   23.0870 C   0  0  0  0  0  1  0  0  0  0  0  0
  -25.4330  -36.3450   23.8880 C   0  0  0  0  0  3  0  0  0  0  0  0
  -27.5720  -37.2270   24.7070 C   0  0  0  0  0  1  0  0  0  0  0  0
  -26.4610  -37.4000   23.7730 N   0  0  0  0  0  0  0  0  0  0  0  0
  -26.0560  -38.3170   23.9350 H   0  0  0  0  0  0  0  0  0  0  0  0
  1  4  2  0
  2  3  1  0
  3 10  1  0
  3  1  1  0
  6  9  1  0
  7  5  1  0
  8  6  2  0
  8 10  1  0
  9 11  1  0
  9  5  2  0
 10  7  2  0
 12 20  1  0
 13 18  1  0
 14 15  1  0
 14 13  1  0
 16 15  1  0
 16 25  1  0
 16 17  1  0
 18 12  1  0
 18 17  1  0
 19 12  2  0
 20 11  1  0
 20 21  1  0
 22 23  2  0
 23 42  1  0
 24 23  1  0
 24 27  1  0
 25 22  1  0
 25 26  1  0
 26 24  2  0
 27 28  1  0
 28 29  2  0
 30 33  1  0
 30 29  1  0
 31 30  2  0
 32 31  1  0
 32 27  2  0
 33 34  1  0
 34 35  1  0
 35 36  2  0
 37 36  1  0
 37 41  1  0
 38 37  2  0
 39 34  2  0
 39 38  1  0
 40 39  1  0
 42 43  1  0
 43 46  1  0
 43 45  1  0
 44 42  2  0
 47 48  1  0
 47 22  1  0
 49 47  1  0
 50  1  1  0
 50 51  1  0
 52 63  2  0
 53 51  1  0
 53 58  1  0
 54 62  1  0
 54 64  1  0
 55 61  1  0
 55 57  1  0
 56 62  1  0
 57 56  1  0
 58 57  2  0
 59 53  2  0
 60 59  1  0
 60 55  2  0
 61 54  1  0
 62 52  1  0
 64 66  2  0
 65 64  1  0
 67 65  1  0
 68 77  2  0
 68 73  1  0
 69 65  1  0
 69 73  1  0
 70 69  1  0
 71 72  1  0
 71 70  1  0
 72 68  1  0
 73 74  2  0
 74 75  1  0
 76 75  2  0
 77 76  1  0
 78 52  1  0
 78 83  1  0
 78 79  1  0
 79 82  1  1
 79 80  1  0
 81 79  1  0
 83 86  1  0
 84 88  1  0
 84 83  1  0
 85 84  2  0
 88 87  1  0
 90 88  1  0
 90 91  1  0
 90 89  1  0
M  ISO  4  12 100  20 100  50 101  51 101
M  END
>  <TORSDO>  (75) 
F 19

>  <SCORE>  (75) 
-14.338

>  <name>  (75) 
74

>  <ligand_id>  (75) 
74

>  <original_smiles>  (75) 
[H]c1c([H])c([H])c2c(c1[H])C([H])([H])C([H])([H])C([H])([H])C2([H])N([H])C(=O)C1([H])N(C(=O)C([H])(N([H])C(=O)C([H])(N([H])C([H])([H])[H])C([H])([H])[H])C(C([H])([H])[H])(C([H])([H])[H])C([H])([H])[H])C([H])([H])c2c([H])c(OC([H])([H])C(=O)N(c3c([H])c([H])c(C([H])([H])N([H])C(=O)N4C([H])([H])C([H])([H])C([H])([H])C([H])(n5nc(-c6c([H])c([H])c(Oc7c([H])c([H])c(F)c([H])c7F)c([H])c6[H])c(C(=O)N([H])[H])c5N([H])[H])C4([H])[H])c([H])c3[H])C([H])([H])[H])c([H])c([H])c2C1([H])[H]

>  <smiles>  (75) 
[H]c1c([H])c([H])c2c(c1[H])C([H])([H])C([H])([H])C([H])([H])C2([H])N([H])C(=O)C1([H])N(C(=O)C([H])(N([H])C(=O)C([H])(N([H])C([H])([H])[H])C([H])([H])[H])C(C([H])([H])[H])(C([H])([H])[H])C([H])([H])[H])C([H])([H])c2c([H])c(OC([H])([H])C(=O)N(c3c([H])c([H])c(C([H])([H])N([H])C(=O)N4C([H])([H])C([H])([H])C([H])([H])C([H])(n5nc(-c6c([H])c([H])c(Oc7c([H])c([H])c(F)c([H])c7F)c([H])c6[H])c(C(=O)N([H])[H])c5N([H])[H])C4([H])[H])c([H])c3[H])C([H])([H])[H])c([H])c([H])c2C1([H])[H]

> <Step>
8.0

> <Scaffold>
O=C(COc1ccc2c(c1)CNC(C(=O)NC1CCCc3ccccc31)C2)Nc1ccc(CNC(=O)N2CCCC(n3ccc(-c4ccc(Oc5ccccc5)cc4)n3)C2)cc1

> <SMILES>
CNC(C)C(=O)NC(C(=O)N1Cc2cc(OCC(=O)N(C)c3ccc(CNC(=O)N4CCCC(n5nc(-c6ccc(Oc7ccc(F)cc7F)cc6)c(C(N)=O)c5N)C4)cc3)ccc2CC1C(=O)NC1CCCc2ccccc21)C(C)(C)C

> <Tanimoto ROCS sim>
0.335966557264328

> <Custom alerts>
1.0

> <Linker Num Aromatic Rings>
1.0

> <Linker Effective Length>
1.0

> <ADV>
0.995333731174469

> <PostDock Tanimoto ROCS sim>
0.9890317320823669

> <raw_Linker Num Aromatic Rings>
1.0

> <raw_Linker Effective Length>
8.0

> <raw_ADV>
-14.315999984741211

> <total_score>
0.996091365814209

> <ID>
default_job_174

> <PostDock Tanimoto ROCS sim (re-score)>
0.98295015

> <raw_ADV (re-score)>
-14.338

$$$$
default_job_175
     RDKit          3D

 95104  0  0  1  0  0  0  0  0999 V2000
  -27.1200  -23.3200   21.6810 C   0  0  0  0  0  2  0  0  0  0  0  0
  -27.4240  -24.8270   21.6060 C   0  0  0  0  0  2  0  0  0  0  0  0
  -27.8450  -22.4830   20.6090 C   0  0  0  0  0  2  0  0  0  0  0  0
  -29.5200  -24.3350   20.2900 C   0  0  0  0  0  2  0  0  0  0  0  0
  -28.2270  -25.2150   20.3470 C   0  0  0  0  0  3  0  0  0  0  0  0
  -29.2840  -22.8500   20.5180 N   0  0  2  0  0  4  0  0  0  0  0  0
  -29.6330  -22.6690   21.4470 H   0  0  0  0  0  0  0  0  0  0  0  0
  -28.4320  -26.6650   20.3120 O   0  0  0  0  0  0  0  0  0  0  0  0
  -24.5930  -31.9480   23.2820 C   0  0  0  0  0  0  0  0  0  0  0  0
  -27.2890  -27.4620   20.2430 C   0  0  0  0  0  0  0  0  0  0  0  0
  -23.4230  -30.5370   21.6310 C   0  0  0  0  0  3  0  0  0  0  0  0
  -24.9040  -29.0140   20.2230 C   0  0  0  0  0  0  0  0  0  0  0  0
  -25.9580  -30.8850   21.4850 C   0  0  0  0  0  2  0  0  0  0  0  0
  -26.0580  -29.5170   20.8350 C   0  0  0  0  0  0  0  0  0  0  0  0
  -27.2540  -28.7520   20.8430 C   0  0  0  0  0  3  0  0  0  0  0  0
  -26.1130  -27.0050   19.5990 C   0  0  0  0  0  3  0  0  0  0  0  0
  -24.9300  -27.7600   19.6010 C   0  0  0  0  0  3  0  0  0  0  0  0
  -23.6610  -29.8740   20.2520 C   0  0  0  0  0  2  0  0  0  0  0  0
  -24.6770  -31.1340   22.1930 N   0  0  0  0  0  0  0  0  0  0  0  0
  -23.4970  -32.2420   23.7790 O   0  0  0  0  0  0  0  0  0  0  0  0
  -22.7580  -29.5070   22.5740 C   0  0  0  0  0  0  0  0  0  0  0  0
  -21.4360  -29.3170   22.4250 N   0  0  0  0  0  0  0  0  0  0  0  0
  -23.4300  -28.8840   23.4000 O   0  0  0  0  0  0  0  0  0  0  0  0
  -20.9550  -29.8700   21.7290 H   0  0  0  0  0  0  0  0  0  0  0  0
  -18.0590  -28.1100   22.8690 C   0  0  0  0  0  0  0  0  0  0  0  0
  -20.6130  -28.3710   23.1790 C   0  0  0  0  0  3  0  0  0  0  0  0
  -20.7290  -26.9440   22.5950 C   0  0  0  0  0  2  0  0  0  0  0  0
  -19.6390  -26.6170   21.5690 C   0  0  0  0  0  2  0  0  0  0  0  0
  -18.2480  -26.7630   22.1930 C   0  0  0  0  0  2  0  0  0  0  0  0
  -19.1690  -28.8700   23.3210 C   0  0  0  0  0  0  0  0  0  0  0  0
  -18.9390  -30.1260   23.9220 C   0  0  0  0  0  3  0  0  0  0  0  0
  -17.6310  -30.6260   24.0700 C   0  0  0  0  0  3  0  0  0  0  0  0
  -16.5350  -29.8640   23.6260 C   0  0  0  0  0  3  0  0  0  0  0  0
  -16.7490  -28.6090   23.0330 C   0  0  0  0  0  3  0  0  0  0  0  0
  -25.8650  -32.5780   23.9300 C   0  0  0  0  0  3  0  0  0  0  0  0
  -26.3460  -31.8230   25.2300 C   0  0  1  0  0  0  0  0  0  0  0  0
  -25.2250  -31.6020   26.2730 C   0  0  0  0  0  1  0  0  0  0  0  0
  -26.9380  -30.4400   24.8750 C   0  0  0  0  0  1  0  0  0  0  0  0
  -27.4820  -32.6230   25.9120 C   0  0  0  0  0  1  0  0  0  0  0  0
  -25.5560  -33.9810   24.2310 N   0  0  0  0  0  0  0  0  0  0  0  0
  -25.9020  -35.0180   23.4580 C   0  0  0  0  0  0  0  0  0  0  0  0
  -26.5920  -34.8950   22.4430 O   0  0  0  0  0  0  0  0  0  0  0  0
  -24.9500  -34.1510   25.0220 H   0  0  0  0  0  0  0  0  0  0  0  0
  -24.1890  -36.8070   23.0270 C   0  0  0  0  0  1  0  0  0  0  0  0
  -25.4070  -36.4140   23.8800 C   0  0  0  0  0  3  0  0  0  0  0  0
  -27.5200  -37.3090   24.7530 C   0  0  0  0  0  1  0  0  0  0  0  0
  -26.4450  -37.4630   23.7770 N   0  0  0  0  0  0  0  0  0  0  0  0
  -26.0390  -38.3870   23.8980 H   0  0  0  0  0  0  0  0  0  0  0  0
  -30.1110  -21.9440   19.6500 C   0  0  0  0  0  2  0  0  0  0  0  0
  -30.2490  -19.4770   20.5050 C   0  0  0  0  0  3  0  0  0  0  0  0
  -29.0830  -17.6850   19.3300 C   0  0  0  0  0  3  0  0  0  0  0  0
  -28.8840  -19.9940   18.5580 C   0  0  0  0  0  3  0  0  0  0  0  0
  -29.9360  -18.0900   20.3810 C   0  0  0  0  0  0  0  0  0  0  0  0
  -29.7300  -20.4430   19.5960 C   0  0  0  0  0  0  0  0  0  0  0  0
  -28.5600  -18.6290   18.4280 C   0  0  0  0  0  0  0  0  0  0  0  0
  -27.7460  -18.2240   17.4240 F   0  0  0  0  0  0  0  0  0  0  0  0
  -30.5300  -17.0570   21.3620 C   0  0  0  0  0  2  0  0  0  0  0  0
  -30.8170  -14.6280   20.7090 C   0  0  0  0  0  0  0  0  0  0  0  0
  -30.5760  -12.4620   19.5490 C   0  0  0  0  0  2  0  0  0  0  0  0
  -29.6810  -12.6510   18.3060 C   0  0  0  0  0  2  0  0  0  0  0  0
  -28.1920  -12.5100   18.6780 C   0  0  0  0  0  2  0  0  0  0  0  0
  -27.7990  -13.3480   19.9250 C   0  0  0  0  0  3  0  0  0  0  0  0
  -28.8110  -13.1350   21.0740 C   0  0  0  0  0  2  0  0  0  0  0  0
  -30.1540  -13.4480   20.5570 N   0  0  0  0  0  0  0  0  0  0  0  0
  -31.9650  -14.8030   20.2910 O   0  0  0  0  0  0  0  0  0  0  0  0
  -30.0930  -15.6490   21.2110 N   0  0  0  0  0  0  0  0  0  0  0  0
  -29.1610  -15.4270   21.5240 H   0  0  0  0  0  0  0  0  0  0  0  0
  -25.3690  -13.9480   20.5200 C   0  0  0  0  0  0  0  0  0  0  0  0
  -24.2900  -13.1720   20.8520 C   0  0  0  0  0  0  0  0  0  0  0  0
  -24.7610  -11.8240   20.8630 C   0  0  0  0  0  0  0  0  0  0  0  0
  -26.4290  -13.0710   20.3480 N   0  0  0  0  0  0  0  0  0  0  0  0
  -26.0640  -11.7910   20.6150 N   0  0  0  0  0  0  0  0  0  0  0  0
  -24.0360  -10.5590   21.0400 C   0  0  0  0  0  0  0  0  0  0  0  0
  -24.4430   -9.6040   21.9980 C   0  0  0  0  0  3  0  0  0  0  0  0
  -23.7200   -8.4020   22.1610 C   0  0  0  0  0  3  0  0  0  0  0  0
  -22.5780   -8.1470   21.3650 C   0  0  0  0  0  0  0  0  0  0  0  0
  -22.1900   -9.0930   20.4000 C   0  0  0  0  0  3  0  0  0  0  0  0
  -22.9130  -10.2850   20.2330 C   0  0  0  0  0  3  0  0  0  0  0  0
  -21.8270   -6.9990   21.4380 O   0  0  0  0  0  0  0  0  0  0  0  0
  -21.7490   -6.2620   22.5930 C   0  0  0  0  0  0  0  0  0  0  0  0
  -21.2800   -6.8200   23.8020 C   0  0  0  0  0  3  0  0  0  0  0  0
  -21.1500   -6.0080   24.9480 C   0  0  0  0  0  3  0  0  0  0  0  0
  -21.4780   -4.6410   24.8820 C   0  0  0  0  0  0  0  0  0  0  0  0
  -21.9420   -4.0820   23.6780 C   0  0  0  0  0  3  0  0  0  0  0  0
  -22.0740   -4.8920   22.5360 C   0  0  0  0  0  0  0  0  0  0  0  0
  -22.5000   -4.3460   21.3710 F   0  0  0  0  0  0  0  0  0  0  0  0
  -21.3460   -3.8580   25.9790 F   0  0  0  0  0  0  0  0  0  0  0  0
  -22.8790  -13.6430   21.0530 C   0  0  0  0  0  0  0  0  0  0  0  0
  -22.1160  -12.9540   21.8950 N   0  0  0  0  0  0  0  0  0  0  0  0
  -22.4580  -14.6570   20.4980 O   0  0  0  0  0  0  0  0  0  0  0  0
  -22.4660  -12.1340   22.3680 H   0  0  0  0  0  0  0  0  0  0  0  0
  -21.1680  -13.2570   22.0730 H   0  0  0  0  0  0  0  0  0  0  0  0
  -25.5330  -15.3180   20.3290 N   0  0  0  0  0  0  0  0  0  0  0  0
  -24.7570  -15.9670   20.3910 H   0  0  0  0  0  0  0  0  0  0  0  0
  -26.3870  -15.7560   20.0120 H   0  0  0  0  0  0  0  0  0  0  0  0
  2  1  1  0
  3  1  1  0
  4  5  1  0
  4  6  1  0
  5  8  1  0
  5  2  1  0
  6  3  1  0
  6  7  1  1
  9 20  2  0
 10  8  1  0
 10 15  1  0
 11 19  1  0
 11 21  1  0
 12 18  1  0
 12 14  1  0
 13 19  1  0
 14 15  2  0
 14 13  1  0
 16 17  1  0
 16 10  2  0
 17 12  2  0
 18 11  1  0
 19  9  1  0
 21 23  2  0
 22 21  1  0
 24 22  1  0
 25 34  2  0
 25 30  1  0
 26 22  1  0
 26 30  1  0
 27 26  1  0
 28 29  1  0
 28 27  1  0
 29 25  1  0
 30 31  2  0
 31 32  1  0
 33 32  2  0
 34 33  1  0
 35  9  1  0
 35 40  1  0
 35 36  1  0
 36 39  1  1
 36 37  1  0
 38 36  1  0
 40 43  1  0
 41 45  1  0
 41 40  1  0
 42 41  2  0
 45 44  1  0
 47 45  1  0
 47 48  1  0
 47 46  1  0
 49  6  1  0
 51 53  2  0
 52 54  1  0
 53 50  1  0
 53 57  1  0
 54 49  1  0
 54 50  2  0
 55 52  2  0
 55 51  1  0
 56 55  1  0
 58 66  1  0
 59 64  1  0
 60 61  1  0
 60 59  1  0
 62 61  1  0
 62 71  1  0
 62 63  1  0
 64 58  1  0
 64 63  1  0
 65 58  2  0
 66 57  1  0
 66 67  1  0
 68 69  2  0
 69 70  1  0
 69 88  1  0
 70 73  1  0
 71 68  1  0
 71 72  1  0
 72 70  2  0
 73 74  1  0
 74 75  2  0
 76 79  1  0
 76 75  1  0
 77 76  2  0
 78 77  1  0
 78 73  2  0
 79 80  1  0
 80 81  1  0
 81 82  2  0
 83 82  1  0
 83 87  1  0
 84 83  2  0
 85 80  2  0
 85 84  1  0
 86 85  1  0
 88 89  1  0
 89 92  1  0
 89 91  1  0
 90 88  2  0
 93 94  1  0
 93 68  1  0
 95 93  1  0
M  ISO  4   5 101   8 101  58 100  66 100
M  END
>  <TORSDO>  (76) 
F 19

>  <SCORE>  (76) 
-14.706

>  <name>  (76) 
75

>  <ligand_id>  (76) 
75

>  <original_smiles>  (76) 
[H]c1c([H])c([H])c2c(c1[H])C([H])([H])C([H])([H])C([H])([H])C2([H])N([H])C(=O)C1([H])N(C(=O)C([H])(N([H])C(=O)C([H])(N([H])C([H])([H])[H])C([H])([H])[H])C(C([H])([H])[H])(C([H])([H])[H])C([H])([H])[H])C([H])([H])c2c([H])c(OC3([H])C([H])([H])C([H])([H])C([H])([H])[N+]([H])(C([H])([H])c4c([H])c(F)c([H])c(C([H])([H])N([H])C(=O)N5C([H])([H])C([H])([H])C([H])([H])C([H])(n6nc(-c7c([H])c([H])c(Oc8c([H])c([H])c(F)c([H])c8F)c([H])c7[H])c(C(=O)N([H])[H])c6N([H])[H])C5([H])[H])c4[H])C3([H])[H])c([H])c([H])c2C1([H])[H]

>  <smiles>  (76) 
[H]c1c([H])c([H])c2c(c1[H])C([H])([H])C([H])([H])C([H])([H])C2([H])N([H])C(=O)C1([H])N(C(=O)C([H])(N([H])C(=O)C([H])(N([H])C([H])([H])[H])C([H])([H])[H])C(C([H])([H])[H])(C([H])([H])[H])C([H])([H])[H])C([H])([H])c2c([H])c(OC3([H])C([H])([H])C([H])([H])C([H])([H])[N+]([H])(C([H])([H])c4c([H])c(F)c([H])c(C([H])([H])N([H])C(=O)N5C([H])([H])C([H])([H])C([H])([H])C([H])(n6nc(-c7c([H])c([H])c(Oc8c([H])c([H])c(F)c([H])c8F)c([H])c7[H])c(C(=O)N([H])[H])c6N([H])[H])C5([H])[H])c4[H])C3([H])[H])c([H])c([H])c2C1([H])[H]

> <Step>
126.0

> <Scaffold>
O=C(NC1CCCc2ccccc21)C1Cc2ccc(OC3CCCN(Cc4cccc(CNC(=O)N5CCCC(n6ccc(-c7ccc(Oc8ccccc8)cc7)n6)C5)c4)C3)cc2CN1

> <SMILES>
CNC(C)C(=O)NC(C(=O)N1Cc2cc(OC3CCCN(Cc4cc(F)cc(CNC(=O)N5CCCC(n6nc(-c7ccc(Oc8ccc(F)cc8F)cc7)c(C(N)=O)c6N)C5)c4)C3)ccc2CC1C(=O)NC1CCCc2ccccc21)C(C)(C)C

> <Tanimoto ROCS sim>
0.20371194183826447

> <Custom alerts>
1.0

> <Linker Num Aromatic Rings>
1.0

> <Linker Effective Length>
1.0

> <ADV>
0.9961290955543518

> <PostDock Tanimoto ROCS sim>
0.9882346987724304

> <raw_Linker Num Aromatic Rings>
1.0

> <raw_Linker Effective Length>
8.0

> <raw_ADV>
-14.642000198364258

> <total_score>
0.9960909485816956

> <ID>
default_job_175

> <PostDock Tanimoto ROCS sim (re-score)>
0.97894984

> <raw_ADV (re-score)>
-14.706

$$$$
default_job_176
     RDKit          3D

 92101  0  0  1  0  0  0  0  0999 V2000
  -28.7850  -18.8980   20.7810 C   0  0  0  0  0  3  0  0  0  0  0  0
  -28.2550  -20.2200   20.8890 C   0  0  0  0  0  3  0  0  0  0  0  0
  -30.8340  -19.8420   19.9240 C   0  0  0  0  0  3  0  0  0  0  0  0
  -30.3090  -21.1660   20.0350 C   0  0  0  0  0  0  0  0  0  0  0  0
  -30.0950  -18.6750   20.2890 C   0  0  0  0  0  0  0  0  0  0  0  0
  -28.9990  -21.3740   20.5170 C   0  0  0  0  0  0  0  0  0  0  0  0
  -31.1550  -22.3830   19.6640 C   0  0  0  0  0  2  0  0  0  0  0  0
  -30.3110  -23.6380   19.3120 C   0  0  0  0  0  2  0  0  0  0  0  0
  -29.1920  -23.9420   20.3400 C   0  0  0  0  0  3  0  0  0  0  0  0
  -28.4400  -22.6820   20.6110 N   0  0  0  0  0  0  0  0  0  0  0  0
  -27.5400  -22.7810   21.0740 H   0  0  0  0  0  0  0  0  0  0  0  0
  -30.7890  -17.2710   20.1370 C   0  0  0  0  0  2  0  0  0  0  0  0
  -30.7930  -14.7620   20.0750 C   0  0  0  0  0  0  0  0  0  0  0  0
  -30.4010  -12.5800   18.9650 C   0  0  0  0  0  2  0  0  0  0  0  0
  -29.4080  -12.7830   17.8050 C   0  0  0  0  0  2  0  0  0  0  0  0
  -27.9620  -12.6190   18.3130 C   0  0  0  0  0  2  0  0  0  0  0  0
  -27.6870  -13.4370   19.6050 C   0  0  0  0  0  3  0  0  0  0  0  0
  -28.8110  -13.2740   20.6530 C   0  0  0  0  0  2  0  0  0  0  0  0
  -30.0830  -13.5920   19.9940 N   0  0  0  0  0  0  0  0  0  0  0  0
  -31.9510  -14.8150   19.6530 O   0  0  0  0  0  0  0  0  0  0  0  0
  -30.1480  -15.9310   20.3960 N   0  0  0  0  0  0  0  0  0  0  0  0
  -29.1830  -15.8950   20.6830 H   0  0  0  0  0  0  0  0  0  0  0  0
  -25.3510  -14.0080   20.4990 C   0  0  0  0  0  0  0  0  0  0  0  0
  -24.3050  -13.2250   20.9040 C   0  0  0  0  0  0  0  0  0  0  0  0
  -24.7580  -11.8740   20.7960 C   0  0  0  0  0  0  0  0  0  0  0  0
  -26.3730  -13.1360   20.1670 N   0  0  0  0  0  0  0  0  0  0  0  0
  -26.0260  -11.8440   20.4090 N   0  0  0  0  0  0  0  0  0  0  0  0
  -24.0370  -10.6080   20.9840 C   0  0  0  0  0  0  0  0  0  0  0  0
  -24.4910   -9.6280   21.8930 C   0  0  0  0  0  3  0  0  0  0  0  0
  -23.7690   -8.4280   22.0720 C   0  0  0  0  0  3  0  0  0  0  0  0
  -22.5780   -8.2010   21.3420 C   0  0  0  0  0  0  0  0  0  0  0  0
  -22.1440   -9.1680   20.4200 C   0  0  0  0  0  3  0  0  0  0  0  0
  -22.8670  -10.3590   20.2400 C   0  0  0  0  0  3  0  0  0  0  0  0
  -21.8250   -7.0550   21.4320 O   0  0  0  0  0  0  0  0  0  0  0  0
  -21.7730   -6.3150   22.5860 C   0  0  0  0  0  0  0  0  0  0  0  0
  -21.2630   -6.8470   23.7910 C   0  0  0  0  0  3  0  0  0  0  0  0
  -21.1650   -6.0310   24.9360 C   0  0  0  0  0  3  0  0  0  0  0  0
  -21.5630   -4.6820   24.8760 C   0  0  0  0  0  0  0  0  0  0  0  0
  -22.0640   -4.1490   23.6760 C   0  0  0  0  0  3  0  0  0  0  0  0
  -22.1660   -4.9640   22.5340 C   0  0  0  0  0  0  0  0  0  0  0  0
  -22.6300   -4.4370   21.3750 F   0  0  0  0  0  0  0  0  0  0  0  0
  -21.4600   -3.8950   25.9730 F   0  0  0  0  0  0  0  0  0  0  0  0
  -22.9300  -13.6970   21.2750 C   0  0  0  0  0  0  0  0  0  0  0  0
  -22.2520  -12.9720   22.1580 N   0  0  0  0  0  0  0  0  0  0  0  0
  -22.4690  -14.7410   20.8160 O   0  0  0  0  0  0  0  0  0  0  0  0
  -22.6400  -12.1270   22.5510 H   0  0  0  0  0  0  0  0  0  0  0  0
  -21.3290  -13.2670   22.4450 H   0  0  0  0  0  0  0  0  0  0  0  0
  -25.5100  -15.3840   20.3620 N   0  0  0  0  0  0  0  0  0  0  0  0
  -24.7470  -16.0320   20.5260 H   0  0  0  0  0  0  0  0  0  0  0  0
  -26.3260  -15.8330   19.9710 H   0  0  0  0  0  0  0  0  0  0  0  0
  -28.2180  -25.1340   19.8990 C   0  0  0  0  0  2  0  0  0  0  0  0
  -28.4550  -26.5730   20.1780 O   0  0  0  0  0  0  0  0  0  0  0  0
  -24.6000  -31.8830   23.2150 C   0  0  0  0  0  0  0  0  0  0  0  0
  -27.3340  -27.4240   20.1110 C   0  0  0  0  0  0  0  0  0  0  0  0
  -23.4460  -30.5000   21.5290 C   0  0  0  0  0  3  0  0  0  0  0  0
  -24.9450  -29.0050   20.0960 C   0  0  0  0  0  0  0  0  0  0  0  0
  -25.9870  -30.8500   21.4090 C   0  0  0  0  0  2  0  0  0  0  0  0
  -26.0970  -29.4910   20.7300 C   0  0  0  0  0  0  0  0  0  0  0  0
  -27.2930  -28.7120   20.7310 C   0  0  0  0  0  3  0  0  0  0  0  0
  -26.1580  -27.0050   19.4410 C   0  0  0  0  0  3  0  0  0  0  0  0
  -24.9780  -27.7680   19.4430 C   0  0  0  0  0  3  0  0  0  0  0  0
  -23.6950  -29.8590   20.1400 C   0  0  0  0  0  2  0  0  0  0  0  0
  -24.6960  -31.0890   22.1110 N   0  0  0  0  0  0  0  0  0  0  0  0
  -23.4980  -32.1640   23.7060 O   0  0  0  0  0  0  0  0  0  0  0  0
  -22.7750  -29.4550   22.4530 C   0  0  0  0  0  0  0  0  0  0  0  0
  -21.4480  -29.2880   22.3160 N   0  0  0  0  0  0  0  0  0  0  0  0
  -23.4460  -28.7990   23.2520 O   0  0  0  0  0  0  0  0  0  0  0  0
  -20.9660  -29.8720   21.6470 H   0  0  0  0  0  0  0  0  0  0  0  0
  -18.0520  -28.1420   22.8130 C   0  0  0  0  0  0  0  0  0  0  0  0
  -20.6200  -28.3300   23.0500 C   0  0  0  0  0  3  0  0  0  0  0  0
  -20.6780  -26.9290   22.3990 C   0  0  0  0  0  2  0  0  0  0  0  0
  -19.5520  -26.6840   21.3900 C   0  0  0  0  0  2  0  0  0  0  0  0
  -18.1860  -26.8270   22.0650 C   0  0  0  0  0  2  0  0  0  0  0  0
  -19.1950  -28.8550   23.2620 C   0  0  0  0  0  0  0  0  0  0  0  0
  -19.0160  -30.0880   23.9250 C   0  0  0  0  0  3  0  0  0  0  0  0
  -17.7260  -30.6090   24.1420 C   0  0  0  0  0  3  0  0  0  0  0  0
  -16.5970  -29.8920   23.7080 C   0  0  0  0  0  3  0  0  0  0  0  0
  -16.7610  -28.6600   23.0490 C   0  0  0  0  0  3  0  0  0  0  0  0
  -25.8640  -32.5020   23.8890 C   0  0  0  0  0  3  0  0  0  0  0  0
  -25.5580  -33.9080   24.1920 N   0  0  0  0  0  0  0  0  0  0  0  0
  -25.8840  -34.9430   23.4080 C   0  0  0  0  0  0  0  0  0  0  0  0
  -26.5460  -34.8180   22.3740 O   0  0  0  0  0  0  0  0  0  0  0  0
  -24.9700  -34.0790   24.9940 H   0  0  0  0  0  0  0  0  0  0  0  0
  -24.1360  -36.7150   23.0450 C   0  0  0  0  0  1  0  0  0  0  0  0
  -25.3980  -36.3420   23.8380 C   0  0  0  0  0  3  0  0  0  0  0  0
  -27.5330  -37.2770   24.6110 C   0  0  0  0  0  1  0  0  0  0  0  0
  -26.4210  -37.3970   23.6720 N   0  0  0  0  0  0  0  0  0  0  0  0
  -26.0080  -38.3180   23.7860 H   0  0  0  0  0  0  0  0  0  0  0  0
  -26.3180  -31.7410   25.1950 C   0  0  1  0  0  0  0  0  0  0  0  0
  -25.1750  -31.5140   26.2100 C   0  0  0  0  0  1  0  0  0  0  0  0
  -26.9160  -30.3590   24.8440 C   0  0  0  0  0  1  0  0  0  0  0  0
  -27.4370  -32.5400   25.9040 C   0  0  0  0  0  1  0  0  0  0  0  0
  1  2  1  0
  3  4  2  0
  3  5  1  0
  4  6  1  0
  5  1  2  0
  6 10  1  0
  6  2  2  0
  7  4  1  0
  8  7  1  0
  8  9  1  0
  9 51  1  0
  9 10  1  0
 10 11  1  0
 12  5  1  0
 12 21  1  0
 13 21  1  0
 14 19  1  0
 15 16  1  0
 15 14  1  0
 17 16  1  0
 17 26  1  0
 17 18  1  0
 19 13  1  0
 19 18  1  0
 20 13  2  0
 21 22  1  0
 23 24  2  0
 24 43  1  0
 25 24  1  0
 25 28  1  0
 26 27  1  0
 26 23  1  0
 27 25  2  0
 28 29  1  0
 29 30  2  0
 31 34  1  0
 31 30  1  0
 32 31  2  0
 33 32  1  0
 33 28  2  0
 34 35  1  0
 35 36  1  0
 36 37  2  0
 38 37  1  0
 38 42  1  0
 39 38  2  0
 40 35  2  0
 40 39  1  0
 41 40  1  0
 43 44  1  0
 44 47  1  0
 44 46  1  0
 45 43  2  0
 48 23  1  0
 48 49  1  0
 50 48  1  0
 51 52  1  0
 53 64  2  0
 54 52  1  0
 54 59  1  0
 55 63  1  0
 55 65  1  0
 56 62  1  0
 56 58  1  0
 57 63  1  0
 58 59  2  0
 58 57  1  0
 60 61  1  0
 60 54  2  0
 61 56  2  0
 62 55  1  0
 63 53  1  0
 65 67  2  0
 66 65  1  0
 68 66  1  0
 69 78  2  0
 69 74  1  0
 70 66  1  0
 70 74  1  0
 71 70  1  0
 72 73  1  0
 72 71  1  0
 73 69  1  0
 74 75  2  0
 75 76  1  0
 77 76  2  0
 78 77  1  0
 79 53  1  0
 79 80  1  0
 79 89  1  0
 80 83  1  0
 81 85  1  0
 81 80  1  0
 82 81  2  0
 85 84  1  0
 87 88  1  0
 87 85  1  0
 87 86  1  0
 89 92  1  1
 89 90  1  0
 91 89  1  0
M  ISO  4  13 100  21 100  51 101  52 101
M  END
>  <TORSDO>  (77) 
F 18

>  <SCORE>  (77) 
-14.199

>  <name>  (77) 
76

>  <ligand_id>  (77) 
76

>  <original_smiles>  (77) 
[H]c1c([H])c([H])c2c(c1[H])C([H])([H])C([H])([H])C([H])([H])C2([H])N([H])C(=O)C1([H])N(C(=O)C([H])(N([H])C(=O)C([H])(N([H])C([H])([H])[H])C([H])([H])[H])C(C([H])([H])[H])(C([H])([H])[H])C([H])([H])[H])C([H])([H])c2c([H])c(OC([H])([H])C3([H])N([H])c4c([H])c([H])c(C([H])([H])N([H])C(=O)N5C([H])([H])C([H])([H])C([H])([H])C([H])(n6nc(-c7c([H])c([H])c(Oc8c([H])c([H])c(F)c([H])c8F)c([H])c7[H])c(C(=O)N([H])[H])c6N([H])[H])C5([H])[H])c([H])c4C([H])([H])C3([H])[H])c([H])c([H])c2C1([H])[H]

>  <smiles>  (77) 
[H]c1c([H])c([H])c2c(c1[H])C([H])([H])C([H])([H])C([H])([H])C2([H])N([H])C(=O)C1([H])N(C(=O)C([H])(N([H])C(=O)C([H])(N([H])C([H])([H])[H])C([H])([H])[H])C(C([H])([H])[H])(C([H])([H])[H])C([H])([H])[H])C([H])([H])c2c([H])c(OC([H])([H])C3([H])N([H])c4c([H])c([H])c(C([H])([H])N([H])C(=O)N5C([H])([H])C([H])([H])C([H])([H])C([H])(n6nc(-c7c([H])c([H])c(Oc8c([H])c([H])c(F)c([H])c8F)c([H])c7[H])c(C(=O)N([H])[H])c6N([H])[H])C5([H])[H])c([H])c4C([H])([H])C3([H])[H])c([H])c([H])c2C1([H])[H]

> <Step>
112.0

> <Scaffold>
O=C(NC1CCCc2ccccc21)C1Cc2ccc(OCC3CCc4cc(CNC(=O)N5CCCC(n6ccc(-c7ccc(Oc8ccccc8)cc7)n6)C5)ccc4N3)cc2CN1

> <SMILES>
CNC(C)C(=O)NC(C(=O)N1Cc2cc(OCC3CCc4cc(CNC(=O)N5CCCC(n6nc(-c7ccc(Oc8ccc(F)cc8F)cc7)c(C(N)=O)c6N)C5)ccc4N3)ccc2CC1C(=O)NC1CCCc2ccccc21)C(C)(C)C

> <Tanimoto ROCS sim>
0.26659834384918213

> <Custom alerts>
1.0

> <Linker Num Aromatic Rings>
1.0

> <Linker Effective Length>
1.0

> <ADV>
0.9966615438461304

> <PostDock Tanimoto ROCS sim>
0.9876908659934998

> <raw_Linker Num Aromatic Rings>
1.0

> <raw_Linker Effective Length>
8.0

> <raw_ADV>
-14.899999618530273

> <total_score>
0.9960881471633911

> <ID>
default_job_176

> <PostDock Tanimoto ROCS sim (re-score)>
0.9617712

> <raw_ADV (re-score)>
-14.199

$$$$
default_job_177
     RDKit          3D

 94103  0  0  1  0  0  0  0  0999 V2000
  -32.2940  -21.3030   19.1040 C   0  0  0  0  0  3  0  0  0  0  0  0
  -31.3550  -22.2530   19.5240 C   0  0  0  0  0  3  0  0  0  0  0  0
  -29.9520  -20.4510   20.3670 C   0  0  0  0  0  3  0  0  0  0  0  0
  -30.9080  -19.4620   19.9550 C   0  0  0  0  0  0  0  0  0  0  0  0
  -32.0860  -19.9230   19.2940 C   0  0  0  0  0  0  0  0  0  0  0  0
  -30.1500  -21.8590   20.1480 C   0  0  0  0  0  0  0  0  0  0  0  0
  -31.6370  -17.4470   21.3050 C   0  0  0  0  0  2  0  0  0  0  0  0
  -30.7780  -17.9340   20.1510 C   0  0  0  0  0  3  0  0  0  0  0  0
  -30.2000  -17.0090   21.2520 C   0  0  0  0  0  3  0  0  0  0  0  0
  -30.6310  -14.5570   20.5060 C   0  0  0  0  0  0  0  0  0  0  0  0
  -30.3730  -12.3710   19.3660 C   0  0  0  0  0  2  0  0  0  0  0  0
  -29.4450  -12.5580   18.1470 C   0  0  0  0  0  2  0  0  0  0  0  0
  -27.9640  -12.4160   18.5570 C   0  0  0  0  0  2  0  0  0  0  0  0
  -27.6110  -13.2520   19.8150 C   0  0  0  0  0  3  0  0  0  0  0  0
  -28.6540  -13.0410   20.9360 C   0  0  0  0  0  2  0  0  0  0  0  0
  -29.9760  -13.3650   20.3800 N   0  0  0  0  0  0  0  0  0  0  0  0
  -31.7640  -14.7150   20.0460 O   0  0  0  0  0  0  0  0  0  0  0  0
  -29.9050  -15.5800   21.0380 N   0  0  0  0  0  0  0  0  0  0  0  0
  -28.9830  -15.2980   21.3360 H   0  0  0  0  0  0  0  0  0  0  0  0
  -25.2040  -13.8600   20.4890 C   0  0  0  0  0  0  0  0  0  0  0  0
  -24.1310  -13.0900   20.8530 C   0  0  0  0  0  0  0  0  0  0  0  0
  -24.5950  -11.7380   20.8400 C   0  0  0  0  0  0  0  0  0  0  0  0
  -26.2520  -12.9780   20.2780 N   0  0  0  0  0  0  0  0  0  0  0  0
  -25.8890  -11.6980   20.5480 N   0  0  0  0  0  0  0  0  0  0  0  0
  -23.8670  -10.4770   21.0320 C   0  0  0  0  0  0  0  0  0  0  0  0
  -24.2950   -9.5150   21.9730 C   0  0  0  0  0  3  0  0  0  0  0  0
  -23.5680   -8.3180   22.1530 C   0  0  0  0  0  3  0  0  0  0  0  0
  -22.4000   -8.0760   21.3920 C   0  0  0  0  0  0  0  0  0  0  0  0
  -21.9920   -9.0270   20.4400 C   0  0  0  0  0  3  0  0  0  0  0  0
  -22.7190  -10.2150   20.2580 C   0  0  0  0  0  3  0  0  0  0  0  0
  -21.6470   -6.9310   21.4800 O   0  0  0  0  0  0  0  0  0  0  0  0
  -21.5960   -6.1890   22.6330 C   0  0  0  0  0  0  0  0  0  0  0  0
  -21.1700   -6.7440   23.8590 C   0  0  0  0  0  3  0  0  0  0  0  0
  -21.0670   -5.9290   25.0030 C   0  0  0  0  0  3  0  0  0  0  0  0
  -21.3810   -4.5590   24.9230 C   0  0  0  0  0  0  0  0  0  0  0  0
  -21.8000   -4.0030   23.7030 C   0  0  0  0  0  3  0  0  0  0  0  0
  -21.9060   -4.8160   22.5600 C   0  0  0  0  0  0  0  0  0  0  0  0
  -22.2910   -4.2710   21.3810 F   0  0  0  0  0  0  0  0  0  0  0  0
  -21.2750   -3.7740   26.0210 F   0  0  0  0  0  0  0  0  0  0  0  0
  -22.7310  -13.5690   21.1030 C   0  0  0  0  0  0  0  0  0  0  0  0
  -21.9900  -12.8800   21.9640 N   0  0  0  0  0  0  0  0  0  0  0  0
  -22.2990  -14.5900   20.5690 O   0  0  0  0  0  0  0  0  0  0  0  0
  -22.3510  -12.0550   22.4180 H   0  0  0  0  0  0  0  0  0  0  0  0
  -21.0480  -13.1830   22.1710 H   0  0  0  0  0  0  0  0  0  0  0  0
  -25.3710  -15.2290   20.3010 N   0  0  0  0  0  0  0  0  0  0  0  0
  -24.6020  -15.8850   20.3940 H   0  0  0  0  0  0  0  0  0  0  0  0
  -26.2210  -15.6640   19.9650 H   0  0  0  0  0  0  0  0  0  0  0  0
  -34.5160  -19.1700   19.4520 C   0  0  0  0  0  1  0  0  0  0  0  0
  -33.2920  -19.0930   17.2210 C   0  0  0  0  0  1  0  0  0  0  0  0
  -33.1650  -18.9710   18.7470 C   0  0  0  0  0  3  0  0  0  0  0  0
  -29.1890  -22.8050   20.5290 O   0  0  0  0  0  0  0  0  0  0  0  0
  -29.4190  -24.2250   20.2580 C   0  0  0  0  0  2  0  0  0  0  0  0
  -28.1840  -25.1530   20.5080 C   0  0  0  0  0  2  0  0  0  0  0  0
  -28.3730  -26.5820   20.2340 O   0  0  0  0  0  0  0  0  0  0  0  0
  -24.6270  -31.9190   23.2580 C   0  0  0  0  0  0  0  0  0  0  0  0
  -27.2310  -27.3820   20.2120 C   0  0  0  0  0  0  0  0  0  0  0  0
  -23.4140  -30.5080   21.6360 C   0  0  0  0  0  3  0  0  0  0  0  0
  -24.8570  -28.9580   20.2120 C   0  0  0  0  0  0  0  0  0  0  0  0
  -25.9500  -30.8350   21.4390 C   0  0  0  0  0  2  0  0  0  0  0  0
  -26.0250  -29.4590   20.8000 C   0  0  0  0  0  0  0  0  0  0  0  0
  -27.2160  -28.6820   20.7920 C   0  0  0  0  0  3  0  0  0  0  0  0
  -26.0420  -26.9260   19.5980 C   0  0  0  0  0  3  0  0  0  0  0  0
  -24.8650  -27.6950   19.6050 C   0  0  0  0  0  3  0  0  0  0  0  0
  -23.6200  -29.8270   20.2580 C   0  0  0  0  0  2  0  0  0  0  0  0
  -24.6840  -31.1010   22.1700 N   0  0  0  0  0  0  0  0  0  0  0  0
  -23.5430  -32.2210   23.7760 O   0  0  0  0  0  0  0  0  0  0  0  0
  -22.7590  -29.4940   22.6020 C   0  0  0  0  0  0  0  0  0  0  0  0
  -21.4360  -29.3010   22.4680 N   0  0  0  0  0  0  0  0  0  0  0  0
  -23.4390  -28.8800   23.4300 O   0  0  0  0  0  0  0  0  0  0  0  0
  -20.9460  -29.8470   21.7720 H   0  0  0  0  0  0  0  0  0  0  0  0
  -18.0640  -28.0830   22.9500 C   0  0  0  0  0  0  0  0  0  0  0  0
  -20.6180  -28.3670   23.2410 C   0  0  0  0  0  3  0  0  0  0  0  0
  -20.7370  -26.9280   22.6860 C   0  0  0  0  0  2  0  0  0  0  0  0
  -19.6470  -26.5840   21.6660 C   0  0  0  0  0  2  0  0  0  0  0  0
  -18.2570  -26.7270   22.2940 C   0  0  0  0  0  2  0  0  0  0  0  0
  -19.1720  -28.8600   23.3810 C   0  0  0  0  0  0  0  0  0  0  0  0
  -18.9380  -30.1280   23.9530 C   0  0  0  0  0  3  0  0  0  0  0  0
  -17.6280  -30.6220   24.1000 C   0  0  0  0  0  3  0  0  0  0  0  0
  -16.5340  -29.8420   23.6860 C   0  0  0  0  0  3  0  0  0  0  0  0
  -16.7530  -28.5760   23.1170 C   0  0  0  0  0  3  0  0  0  0  0  0
  -25.9160  -32.5430   23.8810 C   0  0  0  0  0  3  0  0  0  0  0  0
  -25.6120  -33.9400   24.2150 N   0  0  0  0  0  0  0  0  0  0  0  0
  -25.9260  -34.9910   23.4460 C   0  0  0  0  0  0  0  0  0  0  0  0
  -26.5770  -34.8870   22.4040 O   0  0  0  0  0  0  0  0  0  0  0  0
  -25.0300  -34.0960   25.0260 H   0  0  0  0  0  0  0  0  0  0  0  0
  -24.1820  -36.7740   23.1240 C   0  0  0  0  0  1  0  0  0  0  0  0
  -25.4420  -36.3780   23.9100 C   0  0  0  0  0  3  0  0  0  0  0  0
  -27.5910  -37.2750   24.6880 C   0  0  0  0  0  1  0  0  0  0  0  0
  -26.4680  -37.4350   23.7690 N   0  0  0  0  0  0  0  0  0  0  0  0
  -26.0600  -38.3540   23.9220 H   0  0  0  0  0  0  0  0  0  0  0  0
  -26.4370  -31.7680   25.1530 C   0  0  1  0  0  0  0  0  0  0  0  0
  -25.3470  -31.5290   26.2240 C   0  0  0  0  0  1  0  0  0  0  0  0
  -27.0190  -30.3900   24.7580 C   0  0  0  0  0  1  0  0  0  0  0  0
  -27.5920  -32.5600   25.8120 C   0  0  0  0  0  1  0  0  0  0  0  0
  1  5  2  0
  1  2  1  0
  2  6  2  0
  4  3  2  0
  5  4  1  0
  6  3  1  0
  6 51  1  0
  8  4  1  0
  8  9  1  0
  8  7  1  0
  9 18  1  0
  9  7  1  0
 10 18  1  0
 11 16  1  0
 12 13  1  0
 12 11  1  0
 14 13  1  0
 14 23  1  0
 14 15  1  0
 16 10  1  0
 16 15  1  0
 17 10  2  0
 18 19  1  0
 20 21  2  0
 21 40  1  0
 22 21  1  0
 22 25  1  0
 23 20  1  0
 23 24  1  0
 24 22  2  0
 25 26  1  0
 26 27  2  0
 28 31  1  0
 28 27  1  0
 29 28  2  0
 30 29  1  0
 30 25  2  0
 31 32  1  0
 32 33  1  0
 33 34  2  0
 35 34  1  0
 35 39  1  0
 36 35  2  0
 37 32  2  0
 37 36  1  0
 38 37  1  0
 40 41  1  0
 41 44  1  0
 41 43  1  0
 42 40  2  0
 45 46  1  0
 45 20  1  0
 47 45  1  0
 49 50  1  0
 50  5  1  0
 50 48  1  0
 52 53  1  0
 52 51  1  0
 54 53  1  0
 55 66  2  0
 56 54  1  0
 56 61  1  0
 57 65  1  0
 57 67  1  0
 58 64  1  0
 58 60  1  0
 59 65  1  0
 60 59  1  0
 61 60  2  0
 62 63  1  0
 62 56  2  0
 63 58  2  0
 64 57  1  0
 65 55  1  0
 67 69  2  0
 68 67  1  0
 70 68  1  0
 71 80  2  0
 71 76  1  0
 72 68  1  0
 72 76  1  0
 73 72  1  0
 74 75  1  0
 74 73  1  0
 75 71  1  0
 76 77  2  0
 77 78  1  0
 79 78  2  0
 80 79  1  0
 81 55  1  0
 81 82  1  0
 81 91  1  0
 82 85  1  0
 83 87  1  0
 83 82  1  0
 84 83  2  0
 87 86  1  0
 89 87  1  0
 89 90  1  0
 89 88  1  0
 91 94  1  1
 91 92  1  0
 93 91  1  0
M  ISO  4  10 100  18 100  53 101  54 101
M  END
>  <TORSDO>  (78) 
F 21

>  <SCORE>  (78) 
-13.587

>  <name>  (78) 
77

>  <ligand_id>  (78) 
77

>  <original_smiles>  (78) 
[H]c1c([H])c([H])c2c(c1[H])C([H])([H])C([H])([H])C([H])([H])C2([H])N([H])C(=O)C1([H])N(C(=O)C([H])(N([H])C(=O)C([H])(N([H])C([H])([H])[H])C([H])([H])[H])C(C([H])([H])[H])(C([H])([H])[H])C([H])([H])[H])C([H])([H])c2c([H])c(OC([H])([H])C([H])([H])Oc3c([H])c([H])c(C([H])(C([H])([H])[H])C([H])([H])[H])c(C4([H])C([H])([H])C4([H])N([H])C(=O)N4C([H])([H])C([H])([H])C([H])([H])C([H])(n5nc(-c6c([H])c([H])c(Oc7c([H])c([H])c(F)c([H])c7F)c([H])c6[H])c(C(=O)N([H])[H])c5N([H])[H])C4([H])[H])c3[H])c([H])c([H])c2C1([H])[H]

>  <smiles>  (78) 
[H]c1c([H])c([H])c2c(c1[H])C([H])([H])C([H])([H])C([H])([H])C2([H])N([H])C(=O)C1([H])N(C(=O)C([H])(N([H])C(=O)C([H])(N([H])C([H])([H])[H])C([H])([H])[H])C(C([H])([H])[H])(C([H])([H])[H])C([H])([H])[H])C([H])([H])c2c([H])c(OC([H])([H])C([H])([H])Oc3c([H])c([H])c(C([H])(C([H])([H])[H])C([H])([H])[H])c(C4([H])C([H])([H])C4([H])N([H])C(=O)N4C([H])([H])C([H])([H])C([H])([H])C([H])(n5nc(-c6c([H])c([H])c(Oc7c([H])c([H])c(F)c([H])c7F)c([H])c6[H])c(C(=O)N([H])[H])c5N([H])[H])C4([H])[H])c3[H])c([H])c([H])c2C1([H])[H]

> <Step>
146.0

> <Scaffold>
O=C(NC1CCCc2ccccc21)C1Cc2ccc(OCCOc3cccc(C4CC4NC(=O)N4CCCC(n5ccc(-c6ccc(Oc7ccccc7)cc6)n5)C4)c3)cc2CN1

> <SMILES>
CNC(C)C(=O)NC(C(=O)N1Cc2cc(OCCOc3ccc(C(C)C)c(C4CC4NC(=O)N4CCCC(n5nc(-c6ccc(Oc7ccc(F)cc7F)cc6)c(C(N)=O)c5N)C4)c3)ccc2CC1C(=O)NC1CCCc2ccccc21)C(C)(C)C

> <Tanimoto ROCS sim>
0.20413967967033386

> <Custom alerts>
1.0

> <Linker Num Aromatic Rings>
1.0

> <Linker Effective Length>
1.0

> <ADV>
0.993050217628479

> <PostDock Tanimoto ROCS sim>
0.9912930130958557

> <raw_Linker Num Aromatic Rings>
1.0

> <raw_Linker Effective Length>
8.0

> <raw_ADV>
-13.619999885559082

> <total_score>
0.9960857629776001

> <ID>
default_job_177

> <PostDock Tanimoto ROCS sim (re-score)>
0.9821452

> <raw_ADV (re-score)>
-13.587

$$$$
default_job_178
     RDKit          3D

 92100  0  0  1  0  0  0  0  0999 V2000
  -28.4710  -21.9470   18.9780 C   0  0  0  0  0  3  0  0  0  0  0  0
  -30.4630  -22.5910   20.2090 C   0  0  0  0  0  3  0  0  0  0  0  0
  -28.1110  -23.3080   18.8470 C   0  0  0  0  0  3  0  0  0  0  0  0
  -30.0990  -23.9560   20.0780 C   0  0  0  0  0  3  0  0  0  0  0  0
  -29.6680  -21.5710   19.6290 C   0  0  0  0  0  0  0  0  0  0  0  0
  -28.9360  -24.3320   19.3650 C   0  0  0  0  0  0  0  0  0  0  0  0
  -30.1610  -20.1150   19.5360 C   0  0  0  0  0  2  0  0  0  0  0  0
  -29.7930  -19.2040   20.6500 N   0  0  0  0  0  4  0  0  0  0  0  0
  -28.8500  -19.4110   20.9360 H   0  0  0  0  0  0  0  0  0  0  0  0
  -30.3950  -19.4050   21.4300 H   0  0  0  0  0  0  0  0  0  0  0  0
  -29.8740  -17.7550   20.2890 C   0  0  0  0  0  2  0  0  0  0  0  0
  -30.0970  -16.7980   21.4920 C   0  0  0  0  0  2  0  0  0  0  0  0
  -30.6120  -14.4690   20.5390 C   0  0  0  0  0  0  0  0  0  0  0  0
  -30.3740  -12.3410   19.2910 C   0  0  0  0  0  2  0  0  0  0  0  0
  -29.4130  -12.5660   18.1030 C   0  0  0  0  0  2  0  0  0  0  0  0
  -27.9380  -12.4240   18.5330 C   0  0  0  0  0  2  0  0  0  0  0  0
  -27.6120  -13.2170   19.8270 C   0  0  0  0  0  3  0  0  0  0  0  0
  -28.6690  -12.9190   20.9130 C   0  0  0  0  0  2  0  0  0  0  0  0
  -29.9880  -13.2720   20.3600 N   0  0  0  0  0  0  0  0  0  0  0  0
  -31.7140  -14.7440   20.0530 O   0  0  0  0  0  0  0  0  0  0  0  0
  -29.8570  -15.3760   21.1890 N   0  0  0  0  0  0  0  0  0  0  0  0
  -28.9720  -15.0110   21.5090 H   0  0  0  0  0  0  0  0  0  0  0  0
  -25.2100  -13.8330   20.5230 C   0  0  0  0  0  0  0  0  0  0  0  0
  -24.1420  -13.0610   20.8980 C   0  0  0  0  0  0  0  0  0  0  0  0
  -24.6050  -11.7110   20.8740 C   0  0  0  0  0  0  0  0  0  0  0  0
  -26.2560  -12.9500   20.3000 N   0  0  0  0  0  0  0  0  0  0  0  0
  -25.8950  -11.6700   20.5670 N   0  0  0  0  0  0  0  0  0  0  0  0
  -23.8820  -10.4480   21.0730 C   0  0  0  0  0  0  0  0  0  0  0  0
  -24.3290   -9.4790   21.9960 C   0  0  0  0  0  3  0  0  0  0  0  0
  -23.6060   -8.2800   22.1820 C   0  0  0  0  0  3  0  0  0  0  0  0
  -22.4240   -8.0430   21.4420 C   0  0  0  0  0  0  0  0  0  0  0  0
  -21.9940   -9.0030   20.5080 C   0  0  0  0  0  3  0  0  0  0  0  0
  -22.7190  -10.1920   20.3200 C   0  0  0  0  0  3  0  0  0  0  0  0
  -21.6740   -6.8960   21.5350 O   0  0  0  0  0  0  0  0  0  0  0  0
  -21.6540   -6.1400   22.6790 C   0  0  0  0  0  0  0  0  0  0  0  0
  -21.2660   -6.6800   23.9240 C   0  0  0  0  0  3  0  0  0  0  0  0
  -21.1920   -5.8500   25.0600 C   0  0  0  0  0  3  0  0  0  0  0  0
  -21.5010   -4.4800   24.9510 C   0  0  0  0  0  0  0  0  0  0  0  0
  -21.8850   -3.9390   23.7120 C   0  0  0  0  0  3  0  0  0  0  0  0
  -21.9570   -4.7670   22.5780 C   0  0  0  0  0  0  0  0  0  0  0  0
  -22.3060   -4.2370   21.3800 F   0  0  0  0  0  0  0  0  0  0  0  0
  -21.4230   -3.6800   26.0410 F   0  0  0  0  0  0  0  0  0  0  0  0
  -22.7440  -13.5390   21.1690 C   0  0  0  0  0  0  0  0  0  0  0  0
  -22.0160  -12.8470   22.0410 N   0  0  0  0  0  0  0  0  0  0  0  0
  -22.3040  -14.5590   20.6430 O   0  0  0  0  0  0  0  0  0  0  0  0
  -22.3860  -12.0230   22.4920 H   0  0  0  0  0  0  0  0  0  0  0  0
  -21.0800  -13.1530   22.2670 H   0  0  0  0  0  0  0  0  0  0  0  0
  -25.3700  -15.2020   20.3390 N   0  0  0  0  0  0  0  0  0  0  0  0
  -24.5890  -15.8430   20.4310 H   0  0  0  0  0  0  0  0  0  0  0  0
  -26.2070  -15.6420   19.9760 H   0  0  0  0  0  0  0  0  0  0  0  0
  -28.6690  -25.8050   19.0170 C   0  0  0  0  0  2  0  0  0  0  0  0
  -28.3990  -26.6890   20.1240 O   0  0  0  0  0  0  0  0  0  0  0  0
  -24.5950  -31.8870   23.2470 C   0  0  0  0  0  0  0  0  0  0  0  0
  -27.2180  -27.4170   20.1320 C   0  0  0  0  0  0  0  0  0  0  0  0
  -23.3790  -30.4770   21.6240 C   0  0  0  0  0  3  0  0  0  0  0  0
  -24.8200  -28.9350   20.1890 C   0  0  0  0  0  0  0  0  0  0  0  0
  -25.9090  -30.8180   21.4190 C   0  0  0  0  0  2  0  0  0  0  0  0
  -25.9850  -29.4480   20.7720 C   0  0  0  0  0  0  0  0  0  0  0  0
  -27.1810  -28.6920   20.7510 C   0  0  0  0  0  3  0  0  0  0  0  0
  -26.0220  -26.9130   19.5700 C   0  0  0  0  0  3  0  0  0  0  0  0
  -24.8330  -27.6650   19.5900 C   0  0  0  0  0  3  0  0  0  0  0  0
  -23.5780  -29.7960   20.2450 C   0  0  0  0  0  2  0  0  0  0  0  0
  -24.6470  -31.0740   22.1560 N   0  0  0  0  0  0  0  0  0  0  0  0
  -23.5110  -32.1870   23.7670 O   0  0  0  0  0  0  0  0  0  0  0  0
  -22.7290  -29.4600   22.5900 C   0  0  0  0  0  0  0  0  0  0  0  0
  -21.4050  -29.2740   22.4630 N   0  0  0  0  0  0  0  0  0  0  0  0
  -23.4130  -28.8390   23.4080 O   0  0  0  0  0  0  0  0  0  0  0  0
  -20.9130  -29.8250   21.7740 H   0  0  0  0  0  0  0  0  0  0  0  0
  -18.0340  -28.0710   22.9600 C   0  0  0  0  0  0  0  0  0  0  0  0
  -20.5900  -28.3360   23.2360 C   0  0  0  0  0  3  0  0  0  0  0  0
  -20.6980  -26.9040   22.6640 C   0  0  0  0  0  2  0  0  0  0  0  0
  -19.5980  -26.5760   21.6480 C   0  0  0  0  0  2  0  0  0  0  0  0
  -18.2160  -26.7190   22.2910 C   0  0  0  0  0  2  0  0  0  0  0  0
  -19.1500  -28.8370   23.3900 C   0  0  0  0  0  0  0  0  0  0  0  0
  -18.9270  -30.1030   23.9740 C   0  0  0  0  0  3  0  0  0  0  0  0
  -17.6200  -30.6020   24.1340 C   0  0  0  0  0  3  0  0  0  0  0  0
  -16.5190  -29.8320   23.7220 C   0  0  0  0  0  3  0  0  0  0  0  0
  -16.7270  -28.5680   23.1420 C   0  0  0  0  0  3  0  0  0  0  0  0
  -25.8870  -32.5070   23.8680 C   0  0  0  0  0  3  0  0  0  0  0  0
  -25.5860  -33.9060   24.2000 N   0  0  0  0  0  0  0  0  0  0  0  0
  -25.9160  -34.9560   23.4380 C   0  0  0  0  0  0  0  0  0  0  0  0
  -26.5780  -34.8490   22.4020 O   0  0  0  0  0  0  0  0  0  0  0  0
  -24.9940  -34.0620   25.0030 H   0  0  0  0  0  0  0  0  0  0  0  0
  -24.1850  -36.7480   23.0920 C   0  0  0  0  0  1  0  0  0  0  0  0
  -25.4330  -36.3460   23.8950 C   0  0  0  0  0  3  0  0  0  0  0  0
  -27.5750  -37.2280   24.7060 C   0  0  0  0  0  1  0  0  0  0  0  0
  -26.4660  -37.3970   23.7700 N   0  0  0  0  0  0  0  0  0  0  0  0
  -26.0640  -38.3170   23.9190 H   0  0  0  0  0  0  0  0  0  0  0  0
  -26.4050  -31.7340   25.1430 C   0  0  1  0  0  0  0  0  0  0  0  0
  -25.3150  -31.5020   26.2140 C   0  0  0  0  0  1  0  0  0  0  0  0
  -26.9820  -30.3540   24.7510 C   0  0  0  0  0  1  0  0  0  0  0  0
  -27.5600  -32.5240   25.8010 C   0  0  0  0  0  1  0  0  0  0  0  0
  1  5  1  0
  3  1  2  0
  3  6  1  0
  4  2  1  0
  5  2  2  0
  6  4  2  0
  7  5  1  0
  7  8  1  0
  8  9  1  0
  8 10  1  0
 11  8  1  0
 11 12  1  0
 13 21  1  0
 14 19  1  0
 15 16  1  0
 15 14  1  0
 17 16  1  0
 17 26  1  0
 17 18  1  0
 19 13  1  0
 19 18  1  0
 20 13  2  0
 21 12  1  0
 21 22  1  0
 23 24  2  0
 24 43  1  0
 25 24  1  0
 25 28  1  0
 26 23  1  0
 26 27  1  0
 27 25  2  0
 28 29  1  0
 29 30  2  0
 31 34  1  0
 31 30  1  0
 32 31  2  0
 33 32  1  0
 33 28  2  0
 34 35  1  0
 35 36  1  0
 36 37  2  0
 38 37  1  0
 38 42  1  0
 39 38  2  0
 40 35  2  0
 40 39  1  0
 41 40  1  0
 43 44  1  0
 44 47  1  0
 44 46  1  0
 45 43  2  0
 48 49  1  0
 48 23  1  0
 50 48  1  0
 51  6  1  0
 51 52  1  0
 52 54  1  0
 53 64  2  0
 54 59  1  0
 55 63  1  0
 55 65  1  0
 56 62  1  0
 56 58  1  0
 57 63  1  0
 58 57  1  0
 59 58  2  0
 60 61  1  0
 60 54  2  0
 61 56  2  0
 62 55  1  0
 63 53  1  0
 65 67  2  0
 66 65  1  0
 68 66  1  0
 69 78  2  0
 69 74  1  0
 70 66  1  0
 70 74  1  0
 71 70  1  0
 72 73  1  0
 72 71  1  0
 73 69  1  0
 74 75  2  0
 75 76  1  0
 77 76  2  0
 78 77  1  0
 79 53  1  0
 79 80  1  0
 79 89  1  0
 80 83  1  0
 81 85  1  0
 81 80  1  0
 82 81  2  0
 85 84  1  0
 87 85  1  0
 87 88  1  0
 87 86  1  0
 89 92  1  1
 89 90  1  0
 91 89  1  0
M  ISO  4  13 100  21 100  51 101  52 101
M  END
>  <TORSDO>  (79) 
F 21

>  <SCORE>  (79) 
-13.482

>  <name>  (79) 
78

>  <ligand_id>  (79) 
78

>  <original_smiles>  (79) 
[H]c1c([H])c([H])c2c(c1[H])C([H])([H])C([H])([H])C([H])([H])C2([H])N([H])C(=O)C1([H])N(C(=O)C([H])(N([H])C(=O)C([H])(N([H])C([H])([H])[H])C([H])([H])[H])C(C([H])([H])[H])(C([H])([H])[H])C([H])([H])[H])C([H])([H])c2c([H])c(OC([H])([H])c3c([H])c([H])c(C([H])([H])[N+]([H])([H])C([H])([H])C([H])([H])N([H])C(=O)N4C([H])([H])C([H])([H])C([H])([H])C([H])(n5nc(-c6c([H])c([H])c(Oc7c([H])c([H])c(F)c([H])c7F)c([H])c6[H])c(C(=O)N([H])[H])c5N([H])[H])C4([H])[H])c([H])c3[H])c([H])c([H])c2C1([H])[H]

>  <smiles>  (79) 
[H]c1c([H])c([H])c2c(c1[H])C([H])([H])C([H])([H])C([H])([H])C2([H])N([H])C(=O)C1([H])N(C(=O)C([H])(N([H])C(=O)C([H])(N([H])C([H])([H])[H])C([H])([H])[H])C(C([H])([H])[H])(C([H])([H])[H])C([H])([H])[H])C([H])([H])c2c([H])c(OC([H])([H])c3c([H])c([H])c(C([H])([H])[N+]([H])([H])C([H])([H])C([H])([H])N([H])C(=O)N4C([H])([H])C([H])([H])C([H])([H])C([H])(n5nc(-c6c([H])c([H])c(Oc7c([H])c([H])c(F)c([H])c7F)c([H])c6[H])c(C(=O)N([H])[H])c5N([H])[H])C4([H])[H])c([H])c3[H])c([H])c([H])c2C1([H])[H]

> <Step>
121.0

> <Scaffold>
O=C(NC1CCCc2ccccc21)C1Cc2ccc(OCc3ccc(CNCCNC(=O)N4CCCC(n5ccc(-c6ccc(Oc7ccccc7)cc6)n5)C4)cc3)cc2CN1

> <SMILES>
CNC(C)C(=O)NC(C(=O)N1Cc2cc(OCc3ccc(CNCCNC(=O)N4CCCC(n5nc(-c6ccc(Oc7ccc(F)cc7F)cc6)c(C(N)=O)c5N)C4)cc3)ccc2CC1C(=O)NC1CCCc2ccccc21)C(C)(C)C

> <Tanimoto ROCS sim>
0.23800696432590485

> <Custom alerts>
1.0

> <Linker Num Aromatic Rings>
1.0

> <Linker Effective Length>
1.0

> <ADV>
0.9926245808601379

> <PostDock Tanimoto ROCS sim>
0.9917100667953491

> <raw_Linker Num Aromatic Rings>
1.0

> <raw_Linker Effective Length>
9.0

> <raw_ADV>
-13.515999794006348

> <total_score>
0.9960836172103882

> <ID>
default_job_178

> <PostDock Tanimoto ROCS sim (re-score)>
0.985481

> <raw_ADV (re-score)>
-13.482

$$$$
default_job_179
     RDKit          3D

 91 99  0  0  1  0  0  0  0  0999 V2000
  -30.2550  -23.4340   20.0310 C   0  0  0  0  0  2  0  0  0  0  0  0
  -27.8420  -22.8230   19.9440 C   0  0  0  0  0  2  0  0  0  0  0  0
  -30.5620  -22.0690   20.7170 C   0  0  0  0  0  2  0  0  0  0  0  0
  -28.1630  -21.4480   20.6300 C   0  0  0  0  0  2  0  0  0  0  0  0
  -28.8240  -23.9900   20.2810 C   0  0  0  0  0  3  0  0  0  0  0  0
  -29.5950  -20.9130   20.3290 C   0  0  0  0  0  3  0  0  0  0  0  0
  -29.9730  -19.6310   21.0420 N   0  0  0  0  0  4  0  0  0  0  0  0
  -29.7260  -19.7120   22.0160 H   0  0  0  0  0  0  0  0  0  0  0  0
  -30.9780  -19.5930   21.0070 H   0  0  0  0  0  0  0  0  0  0  0  0
  -29.5090  -18.2850   20.5390 C   0  0  0  0  0  2  0  0  0  0  0  0
  -30.3300  -17.0720   21.1500 C   0  0  0  0  0  2  0  0  0  0  0  0
  -30.6010  -14.6050   20.4660 C   0  0  0  0  0  0  0  0  0  0  0  0
  -30.3470  -12.4000   19.3580 C   0  0  0  0  0  2  0  0  0  0  0  0
  -29.4020  -12.5490   18.1480 C   0  0  0  0  0  2  0  0  0  0  0  0
  -27.9310  -12.3920   18.5810 C   0  0  0  0  0  2  0  0  0  0  0  0
  -27.5790  -13.2490   19.8270 C   0  0  0  0  0  3  0  0  0  0  0  0
  -28.6390  -13.0820   20.9380 C   0  0  0  0  0  2  0  0  0  0  0  0
  -29.9480  -13.4100   20.3550 N   0  0  0  0  0  0  0  0  0  0  0  0
  -31.7610  -14.7500   20.0760 O   0  0  0  0  0  0  0  0  0  0  0  0
  -29.8610  -15.6760   20.8720 N   0  0  0  0  0  0  0  0  0  0  0  0
  -28.9020  -15.4690   21.1150 H   0  0  0  0  0  0  0  0  0  0  0  0
  -25.1840  -13.8450   20.5430 C   0  0  0  0  0  0  0  0  0  0  0  0
  -24.1190  -13.0710   20.9140 C   0  0  0  0  0  0  0  0  0  0  0  0
  -24.5850  -11.7200   20.8870 C   0  0  0  0  0  0  0  0  0  0  0  0
  -26.2300  -12.9670   20.3110 N   0  0  0  0  0  0  0  0  0  0  0  0
  -25.8750  -11.6840   20.5790 N   0  0  0  0  0  0  0  0  0  0  0  0
  -23.8620  -10.4560   21.0780 C   0  0  0  0  0  0  0  0  0  0  0  0
  -24.3090   -9.4810   21.9970 C   0  0  0  0  0  3  0  0  0  0  0  0
  -23.5860   -8.2820   22.1760 C   0  0  0  0  0  3  0  0  0  0  0  0
  -22.4020   -8.0500   21.4360 C   0  0  0  0  0  0  0  0  0  0  0  0
  -21.9740   -9.0130   20.5070 C   0  0  0  0  0  3  0  0  0  0  0  0
  -22.6970  -10.2040   20.3260 C   0  0  0  0  0  3  0  0  0  0  0  0
  -21.6490   -6.9040   21.5270 O   0  0  0  0  0  0  0  0  0  0  0  0
  -21.6330   -6.1400   22.6670 C   0  0  0  0  0  0  0  0  0  0  0  0
  -21.2550   -6.6770   23.9170 C   0  0  0  0  0  3  0  0  0  0  0  0
  -21.1850   -5.8410   25.0490 C   0  0  0  0  0  3  0  0  0  0  0  0
  -21.4840   -4.4700   24.9330 C   0  0  0  0  0  0  0  0  0  0  0  0
  -21.8560   -3.9340   23.6880 C   0  0  0  0  0  3  0  0  0  0  0  0
  -21.9270   -4.7660   22.5570 C   0  0  0  0  0  0  0  0  0  0  0  0
  -22.2650   -4.2410   21.3550 F   0  0  0  0  0  0  0  0  0  0  0  0
  -21.4100   -3.6650   26.0190 F   0  0  0  0  0  0  0  0  0  0  0  0
  -22.7200  -13.5440   21.1850 C   0  0  0  0  0  0  0  0  0  0  0  0
  -21.9950  -12.8490   22.0520 N   0  0  0  0  0  0  0  0  0  0  0  0
  -22.2800  -14.5670   20.6610 O   0  0  0  0  0  0  0  0  0  0  0  0
  -22.3640  -12.0220   22.4970 H   0  0  0  0  0  0  0  0  0  0  0  0
  -21.0550  -13.1490   22.2770 H   0  0  0  0  0  0  0  0  0  0  0  0
  -25.3450  -15.2160   20.3600 N   0  0  0  0  0  0  0  0  0  0  0  0
  -24.5690  -15.8630   20.4550 H   0  0  0  0  0  0  0  0  0  0  0  0
  -26.1800  -15.6510   19.9920 H   0  0  0  0  0  0  0  0  0  0  0  0
  -28.5440  -25.3290   19.4650 C   0  0  0  0  0  2  0  0  0  0  0  0
  -28.4060  -26.5980   20.1870 O   0  0  0  0  0  0  0  0  0  0  0  0
  -24.6420  -31.8990   23.2450 C   0  0  0  0  0  0  0  0  0  0  0  0
  -27.2370  -27.3670   20.1520 C   0  0  0  0  0  0  0  0  0  0  0  0
  -23.4210  -30.4920   21.6250 C   0  0  0  0  0  3  0  0  0  0  0  0
  -24.8560  -28.9460   20.1870 C   0  0  0  0  0  0  0  0  0  0  0  0
  -25.9560  -30.8190   21.4140 C   0  0  0  0  0  2  0  0  0  0  0  0
  -26.0280  -29.4450   20.7660 C   0  0  0  0  0  0  0  0  0  0  0  0
  -27.2170  -28.6640   20.7420 C   0  0  0  0  0  3  0  0  0  0  0  0
  -26.0300  -26.8990   19.5800 C   0  0  0  0  0  3  0  0  0  0  0  0
  -24.8560  -27.6750   19.5920 C   0  0  0  0  0  3  0  0  0  0  0  0
  -23.6180  -29.8140   20.2450 C   0  0  0  0  0  2  0  0  0  0  0  0
  -24.6940  -31.0830   22.1540 N   0  0  0  0  0  0  0  0  0  0  0  0
  -23.5600  -32.2010   23.7660 O   0  0  0  0  0  0  0  0  0  0  0  0
  -22.7720  -29.4730   22.5930 C   0  0  0  0  0  0  0  0  0  0  0  0
  -21.4470  -29.2860   22.4700 N   0  0  0  0  0  0  0  0  0  0  0  0
  -23.4580  -28.8550   23.4100 O   0  0  0  0  0  0  0  0  0  0  0  0
  -20.9530  -29.8380   21.7820 H   0  0  0  0  0  0  0  0  0  0  0  0
  -18.0800  -28.0610   22.9660 C   0  0  0  0  0  0  0  0  0  0  0  0
  -20.6350  -28.3470   23.2450 C   0  0  0  0  0  3  0  0  0  0  0  0
  -20.7520  -26.9120   22.6820 C   0  0  0  0  0  2  0  0  0  0  0  0
  -19.6580  -26.5700   21.6660 C   0  0  0  0  0  2  0  0  0  0  0  0
  -18.2720  -26.7080   22.3030 C   0  0  0  0  0  2  0  0  0  0  0  0
  -19.1900  -28.8380   23.3940 C   0  0  0  0  0  0  0  0  0  0  0  0
  -18.9570  -30.1030   23.9740 C   0  0  0  0  0  3  0  0  0  0  0  0
  -17.6470  -30.5940   24.1300 C   0  0  0  0  0  3  0  0  0  0  0  0
  -16.5510  -29.8150   23.7190 C   0  0  0  0  0  3  0  0  0  0  0  0
  -16.7690  -28.5500   23.1420 C   0  0  0  0  0  3  0  0  0  0  0  0
  -25.9330  -32.5200   23.8660 C   0  0  0  0  0  3  0  0  0  0  0  0
  -26.4580  -31.7430   25.1360 C   0  0  1  0  0  0  0  0  0  0  0  0
  -25.3730  -31.5070   26.2100 C   0  0  0  0  0  1  0  0  0  0  0  0
  -27.0350  -30.3660   24.7350 C   0  0  0  0  0  1  0  0  0  0  0  0
  -27.6170  -32.5330   25.7890 C   0  0  0  0  0  1  0  0  0  0  0  0
  -25.6300  -33.9180   24.2040 N   0  0  0  0  0  0  0  0  0  0  0  0
  -25.9470  -34.9700   23.4410 C   0  0  0  0  0  0  0  0  0  0  0  0
  -26.5980  -34.8690   22.3980 O   0  0  0  0  0  0  0  0  0  0  0  0
  -25.0490  -34.0700   25.0170 H   0  0  0  0  0  0  0  0  0  0  0  0
  -24.2050  -36.7570   23.1250 C   0  0  0  0  0  1  0  0  0  0  0  0
  -25.4660  -36.3580   23.9090 C   0  0  0  0  0  3  0  0  0  0  0  0
  -27.6160  -37.2480   24.6890 C   0  0  0  0  0  1  0  0  0  0  0  0
  -26.4920  -37.4130   23.7720 N   0  0  0  0  0  0  0  0  0  0  0  0
  -26.0860  -38.3320   23.9310 H   0  0  0  0  0  0  0  0  0  0  0  0
  1  5  1  0
  1  3  1  0
  2  5  1  0
  2  4  1  0
  5 50  1  0
  6  4  1  0
  6  3  1  0
  6  7  1  0
  7  8  1  0
  9  7  1  0
 10  7  1  0
 10 11  1  0
 12 20  1  0
 13 18  1  0
 14 15  1  0
 14 13  1  0
 16 15  1  0
 16 25  1  0
 16 17  1  0
 18 12  1  0
 18 17  1  0
 19 12  2  0
 20 21  1  0
 20 11  1  0
 22 23  2  0
 23 42  1  0
 24 23  1  0
 24 27  1  0
 25 22  1  0
 25 26  1  0
 26 24  2  0
 27 28  1  0
 28 29  2  0
 30 33  1  0
 30 29  1  0
 31 30  2  0
 32 31  1  0
 32 27  2  0
 33 34  1  0
 34 35  1  0
 35 36  2  0
 37 36  1  0
 37 41  1  0
 38 37  2  0
 39 34  2  0
 39 38  1  0
 40 39  1  0
 42 43  1  0
 43 46  1  0
 43 45  1  0
 44 42  2  0
 47 48  1  0
 47 22  1  0
 49 47  1  0
 50 51  1  0
 52 63  2  0
 53 51  1  0
 53 58  1  0
 54 62  1  0
 54 64  1  0
 55 61  1  0
 55 57  1  0
 56 62  1  0
 57 56  1  0
 58 57  2  0
 59 60  1  0
 59 53  2  0
 60 55  2  0
 61 54  1  0
 62 52  1  0
 64 66  2  0
 65 64  1  0
 67 65  1  0
 68 77  2  0
 68 73  1  0
 69 65  1  0
 69 73  1  0
 70 69  1  0
 71 72  1  0
 71 70  1  0
 72 68  1  0
 73 74  2  0
 74 75  1  0
 76 75  2  0
 77 76  1  0
 78 52  1  0
 78 83  1  0
 78 79  1  0
 79 82  1  1
 79 80  1  0
 81 79  1  0
 83 86  1  0
 84 88  1  0
 84 83  1  0
 85 84  2  0
 88 87  1  0
 90 88  1  0
 90 91  1  0
 90 89  1  0
M  ISO  4  12 100  20 100  50 101  51 101
M  END
>  <TORSDO>  (80) 
F 20

>  <SCORE>  (80) 
-13.893

>  <name>  (80) 
79

>  <ligand_id>  (80) 
79

>  <original_smiles>  (80) 
[H]c1c([H])c([H])c2c(c1[H])C([H])([H])C([H])([H])C([H])([H])C2([H])N([H])C(=O)C1([H])N(C(=O)C([H])(N([H])C(=O)C([H])(N([H])C([H])([H])[H])C([H])([H])[H])C(C([H])([H])[H])(C([H])([H])[H])C([H])([H])[H])C([H])([H])c2c([H])c(OC([H])([H])C3([H])C([H])([H])C([H])([H])C([H])([N+]([H])([H])C([H])([H])C([H])([H])N([H])C(=O)N4C([H])([H])C([H])([H])C([H])([H])C([H])(n5nc(-c6c([H])c([H])c(Oc7c([H])c([H])c(F)c([H])c7F)c([H])c6[H])c(C(=O)N([H])[H])c5N([H])[H])C4([H])[H])C([H])([H])C3([H])[H])c([H])c([H])c2C1([H])[H]

>  <smiles>  (80) 
[H]c1c([H])c([H])c2c(c1[H])C([H])([H])C([H])([H])C([H])([H])C2([H])N([H])C(=O)C1([H])N(C(=O)C([H])(N([H])C(=O)C([H])(N([H])C([H])([H])[H])C([H])([H])[H])C(C([H])([H])[H])(C([H])([H])[H])C([H])([H])[H])C([H])([H])c2c([H])c(OC([H])([H])C3([H])C([H])([H])C([H])([H])C([H])([N+]([H])([H])C([H])([H])C([H])([H])N([H])C(=O)N4C([H])([H])C([H])([H])C([H])([H])C([H])(n5nc(-c6c([H])c([H])c(Oc7c([H])c([H])c(F)c([H])c7F)c([H])c6[H])c(C(=O)N([H])[H])c5N([H])[H])C4([H])[H])C([H])([H])C3([H])[H])c([H])c([H])c2C1([H])[H]

> <Step>
114.0

> <Scaffold>
O=C(NC1CCCc2ccccc21)C1Cc2ccc(OCC3CCC(NCCNC(=O)N4CCCC(n5ccc(-c6ccc(Oc7ccccc7)cc6)n5)C4)CC3)cc2CN1

> <SMILES>
CNC(C)C(=O)NC(C(=O)N1Cc2cc(OCC3CCC(NCCNC(=O)N4CCCC(n5nc(-c6ccc(Oc7ccc(F)cc7F)cc6)c(C(N)=O)c5N)C4)CC3)ccc2CC1C(=O)NC1CCCc2ccccc21)C(C)(C)C

> <Tanimoto ROCS sim>
0.2775278389453888

> <Custom alerts>
1.0

> <Linker Num Aromatic Rings>
1.0

> <Linker Effective Length>
1.0

> <ADV>
0.9940446615219116

> <PostDock Tanimoto ROCS sim>
0.9902761578559875

> <raw_Linker Num Aromatic Rings>
0.0

> <raw_Linker Effective Length>
8.0

> <raw_ADV>
-13.890000343322754

> <total_score>
0.996080219745636

> <ID>
default_job_179

> <PostDock Tanimoto ROCS sim (re-score)>
0.9837831

> <raw_ADV (re-score)>
-13.893

$$$$
default_job_180
     RDKit          3D

 90 98  0  0  1  0  0  0  0  0999 V2000
  -29.6560  -19.4180   20.3110 C   0  0  0  0  0  0  0  0  0  0  0  0
  -30.5050  -20.4990   20.2090 C   0  0  0  0  0  0  0  0  0  0  0  0
  -31.9860  -20.5770   19.9510 C   0  0  0  0  0  1  0  0  0  0  0  0
  -28.3860  -19.9210   20.5970 N   0  0  0  0  0  0  0  0  0  0  0  0
  -28.4020  -21.2230   20.5720 N   0  0  0  0  0  0  0  0  0  0  0  0
  -29.6680  -21.6220   20.3030 N   0  0  0  0  0  0  0  0  0  0  0  0
  -29.8460  -17.9220   20.0250 C   0  0  0  0  0  2  0  0  0  0  0  0
  -30.3020  -17.0040   21.2120 C   0  0  0  0  0  2  0  0  0  0  0  0
  -30.6650  -14.5590   20.4690 C   0  0  0  0  0  0  0  0  0  0  0  0
  -30.3720  -12.3660   19.3240 C   0  0  0  0  0  2  0  0  0  0  0  0
  -29.4110  -12.5290   18.1250 C   0  0  0  0  0  2  0  0  0  0  0  0
  -27.9480  -12.3740   18.5820 C   0  0  0  0  0  2  0  0  0  0  0  0
  -27.6130  -13.2460   19.8200 C   0  0  0  0  0  3  0  0  0  0  0  0
  -28.6790  -13.0590   20.9290 C   0  0  0  0  0  2  0  0  0  0  0  0
  -30.0040  -13.3620   20.3520 N   0  0  0  0  0  0  0  0  0  0  0  0
  -31.7850  -14.7590   19.9920 O   0  0  0  0  0  0  0  0  0  0  0  0
  -29.9550  -15.5670   21.0230 N   0  0  0  0  0  0  0  0  0  0  0  0
  -29.0430  -15.3040   21.3660 H   0  0  0  0  0  0  0  0  0  0  0  0
  -25.2190  -13.8520   20.5380 C   0  0  0  0  0  0  0  0  0  0  0  0
  -24.1510  -13.0760   20.9130 C   0  0  0  0  0  0  0  0  0  0  0  0
  -24.6130  -11.7260   20.8830 C   0  0  0  0  0  0  0  0  0  0  0  0
  -26.2630  -12.9690   20.3070 N   0  0  0  0  0  0  0  0  0  0  0  0
  -25.9040  -11.6860   20.5730 N   0  0  0  0  0  0  0  0  0  0  0  0
  -23.8870  -10.4640   21.0790 C   0  0  0  0  0  0  0  0  0  0  0  0
  -24.3330   -9.4890   22.0000 C   0  0  0  0  0  3  0  0  0  0  0  0
  -23.6080   -8.2910   22.1760 C   0  0  0  0  0  3  0  0  0  0  0  0
  -22.4260   -8.0640   21.4340 C   0  0  0  0  0  0  0  0  0  0  0  0
  -22.0010   -9.0270   20.5030 C   0  0  0  0  0  3  0  0  0  0  0  0
  -22.7250  -10.2180   20.3220 C   0  0  0  0  0  3  0  0  0  0  0  0
  -21.6670   -6.9220   21.5260 O   0  0  0  0  0  0  0  0  0  0  0  0
  -21.6480   -6.1590   22.6660 C   0  0  0  0  0  0  0  0  0  0  0  0
  -21.2590   -6.6990   23.9120 C   0  0  0  0  0  3  0  0  0  0  0  0
  -21.1790   -5.8670   25.0450 C   0  0  0  0  0  3  0  0  0  0  0  0
  -21.4790   -4.4960   24.9380 C   0  0  0  0  0  0  0  0  0  0  0  0
  -21.8610   -3.9560   23.6980 C   0  0  0  0  0  3  0  0  0  0  0  0
  -21.9430   -4.7850   22.5640 C   0  0  0  0  0  0  0  0  0  0  0  0
  -22.2910   -4.2540   21.3680 F   0  0  0  0  0  0  0  0  0  0  0  0
  -21.3990   -3.6960   26.0260 F   0  0  0  0  0  0  0  0  0  0  0  0
  -22.7540  -13.5550   21.1820 C   0  0  0  0  0  0  0  0  0  0  0  0
  -22.0270  -12.8650   22.0540 N   0  0  0  0  0  0  0  0  0  0  0  0
  -22.3120  -14.5750   20.6570 O   0  0  0  0  0  0  0  0  0  0  0  0
  -22.3980  -12.0410   22.4990 H   0  0  0  0  0  0  0  0  0  0  0  0
  -21.0950  -13.1790   22.2740 H   0  0  0  0  0  0  0  0  0  0  0  0
  -25.3820  -15.2200   20.3620 N   0  0  0  0  0  0  0  0  0  0  0  0
  -24.6260  -15.8870   20.4720 H   0  0  0  0  0  0  0  0  0  0  0  0
  -26.2220  -15.6510   19.9990 H   0  0  0  0  0  0  0  0  0  0  0  0
  -29.9360  -23.0290   19.9080 C   0  0  0  0  0  2  0  0  0  0  0  0
  -29.2130  -24.2200   20.6400 C   0  0  0  0  0  2  0  0  0  0  0  0
  -28.5850  -25.3020   19.6830 C   0  0  0  0  0  2  0  0  0  0  0  0
  -28.4260  -26.6380   20.2510 O   0  0  0  0  0  0  0  0  0  0  0  0
  -24.5970  -31.8930   23.2470 C   0  0  0  0  0  0  0  0  0  0  0  0
  -27.2410  -27.3770   20.1820 C   0  0  0  0  0  0  0  0  0  0  0  0
  -23.3910  -30.4830   21.6180 C   0  0  0  0  0  3  0  0  0  0  0  0
  -24.8440  -28.9360   20.1910 C   0  0  0  0  0  0  0  0  0  0  0  0
  -25.9240  -30.8160   21.4280 C   0  0  0  0  0  2  0  0  0  0  0  0
  -26.0050  -29.4430   20.7820 C   0  0  0  0  0  0  0  0  0  0  0  0
  -27.1990  -28.6710   20.7740 C   0  0  0  0  0  3  0  0  0  0  0  0
  -26.0510  -26.9050   19.5760 C   0  0  0  0  0  3  0  0  0  0  0  0
  -24.8660  -27.6690   19.5840 C   0  0  0  0  0  3  0  0  0  0  0  0
  -23.5990  -29.8000   20.2400 C   0  0  0  0  0  2  0  0  0  0  0  0
  -24.6580  -31.0750   22.1590 N   0  0  0  0  0  0  0  0  0  0  0  0
  -23.5120  -32.1950   23.7610 O   0  0  0  0  0  0  0  0  0  0  0  0
  -22.7360  -29.4650   22.5790 C   0  0  0  0  0  0  0  0  0  0  0  0
  -21.4150  -29.2770   22.4450 N   0  0  0  0  0  0  0  0  0  0  0  0
  -23.4180  -28.8450   23.4020 O   0  0  0  0  0  0  0  0  0  0  0  0
  -20.9270  -29.8280   21.7520 H   0  0  0  0  0  0  0  0  0  0  0  0
  -18.0420  -28.0690   22.9300 C   0  0  0  0  0  0  0  0  0  0  0  0
  -20.5980  -28.3410   23.2160 C   0  0  0  0  0  3  0  0  0  0  0  0
  -20.7100  -26.9080   22.6490 C   0  0  0  0  0  2  0  0  0  0  0  0
  -19.6160  -26.5730   21.6280 C   0  0  0  0  0  2  0  0  0  0  0  0
  -18.2300  -26.7170   22.2630 C   0  0  0  0  0  2  0  0  0  0  0  0
  -19.1560  -28.8390   23.3630 C   0  0  0  0  0  0  0  0  0  0  0  0
  -18.9290  -30.1030   23.9480 C   0  0  0  0  0  3  0  0  0  0  0  0
  -17.6220  -30.6010   24.1020 C   0  0  0  0  0  3  0  0  0  0  0  0
  -16.5220  -29.8290   23.6850 C   0  0  0  0  0  3  0  0  0  0  0  0
  -16.7340  -28.5640   23.1060 C   0  0  0  0  0  3  0  0  0  0  0  0
  -25.8830  -32.5160   23.8730 C   0  0  0  0  0  3  0  0  0  0  0  0
  -25.5790  -33.9160   24.2020 N   0  0  0  0  0  0  0  0  0  0  0  0
  -25.9060  -34.9660   23.4380 C   0  0  0  0  0  0  0  0  0  0  0  0
  -26.5720  -34.8570   22.4030 O   0  0  0  0  0  0  0  0  0  0  0  0
  -24.9850  -34.0720   25.0030 H   0  0  0  0  0  0  0  0  0  0  0  0
  -24.1700  -36.7510   23.0890 C   0  0  0  0  0  1  0  0  0  0  0  0
  -25.4190  -36.3540   23.8920 C   0  0  0  0  0  3  0  0  0  0  0  0
  -27.5610  -37.2430   24.7010 C   0  0  0  0  0  1  0  0  0  0  0  0
  -26.4480  -37.4090   23.7690 N   0  0  0  0  0  0  0  0  0  0  0  0
  -26.0420  -38.3280   23.9210 H   0  0  0  0  0  0  0  0  0  0  0  0
  -26.4000  -31.7460   25.1530 C   0  0  1  0  0  0  0  0  0  0  0  0
  -25.3060  -31.5150   26.2210 C   0  0  0  0  0  1  0  0  0  0  0  0
  -26.9790  -30.3660   24.7650 C   0  0  0  0  0  1  0  0  0  0  0  0
  -27.5520  -32.5400   25.8120 C   0  0  0  0  0  1  0  0  0  0  0  0
  1  4  1  0
  2  6  1  0
  2  1  2  0
  3  2  1  0
  5  4  2  0
  6  5  1  0
  7  1  1  0
  7  8  1  0
  9 17  1  0
 10 15  1  0
 11 12  1  0
 11 10  1  0
 13 12  1  0
 13 22  1  0
 13 14  1  0
 15  9  1  0
 15 14  1  0
 16  9  2  0
 17  8  1  0
 17 18  1  0
 19 20  2  0
 20 39  1  0
 21 20  1  0
 21 24  1  0
 22 19  1  0
 22 23  1  0
 23 21  2  0
 24 25  1  0
 25 26  2  0
 27 30  1  0
 27 26  1  0
 28 27  2  0
 29 28  1  0
 29 24  2  0
 30 31  1  0
 31 32  1  0
 32 33  2  0
 34 33  1  0
 34 38  1  0
 35 34  2  0
 36 31  2  0
 36 35  1  0
 37 36  1  0
 39 40  1  0
 40 43  1  0
 40 42  1  0
 41 39  2  0
 44 45  1  0
 44 19  1  0
 46 44  1  0
 47  6  1  0
 47 48  1  0
 49 50  1  0
 49 48  1  0
 51 62  2  0
 52 50  1  0
 52 57  1  0
 53 61  1  0
 53 63  1  0
 54 60  1  0
 54 56  1  0
 55 61  1  0
 56 55  1  0
 57 56  2  0
 58 59  1  0
 58 52  2  0
 59 54  2  0
 60 53  1  0
 61 51  1  0
 63 65  2  0
 64 63  1  0
 66 64  1  0
 67 76  2  0
 67 72  1  0
 68 64  1  0
 68 72  1  0
 69 68  1  0
 70 71  1  0
 70 69  1  0
 71 67  1  0
 72 73  2  0
 73 74  1  0
 75 74  2  0
 76 75  1  0
 77 51  1  0
 77 78  1  0
 77 87  1  0
 78 81  1  0
 79 83  1  0
 79 78  1  0
 80 79  2  0
 83 82  1  0
 85 83  1  0
 85 86  1  0
 85 84  1  0
 87 90  1  1
 87 88  1  0
 89 87  1  0
M  ISO  4   9 100  17 100  49 101  50 101
M  END
>  <TORSDO>  (81) 
F 21

>  <SCORE>  (81) 
-13.614

>  <name>  (81) 
80

>  <ligand_id>  (81) 
80

>  <original_smiles>  (81) 
[H]c1c([H])c([H])c2c(c1[H])C([H])([H])C([H])([H])C([H])([H])C2([H])N([H])C(=O)C1([H])N(C(=O)C([H])(N([H])C(=O)C([H])(N([H])C([H])([H])[H])C([H])([H])[H])C(C([H])([H])[H])(C([H])([H])[H])C([H])([H])[H])C([H])([H])c2c([H])c(OC([H])([H])C([H])([H])C([H])([H])n3nnc(C([H])([H])C([H])([H])N([H])C(=O)N4C([H])([H])C([H])([H])C([H])([H])C([H])(n5nc(-c6c([H])c([H])c(Oc7c([H])c([H])c(F)c([H])c7F)c([H])c6[H])c(C(=O)N([H])[H])c5N([H])[H])C4([H])[H])c3C([H])([H])[H])c([H])c([H])c2C1([H])[H]

>  <smiles>  (81) 
[H]c1c([H])c([H])c2c(c1[H])C([H])([H])C([H])([H])C([H])([H])C2([H])N([H])C(=O)C1([H])N(C(=O)C([H])(N([H])C(=O)C([H])(N([H])C([H])([H])[H])C([H])([H])[H])C(C([H])([H])[H])(C([H])([H])[H])C([H])([H])[H])C([H])([H])c2c([H])c(OC([H])([H])C([H])([H])C([H])([H])n3nnc(C([H])([H])C([H])([H])N([H])C(=O)N4C([H])([H])C([H])([H])C([H])([H])C([H])(n5nc(-c6c([H])c([H])c(Oc7c([H])c([H])c(F)c([H])c7F)c([H])c6[H])c(C(=O)N([H])[H])c5N([H])[H])C4([H])[H])c3C([H])([H])[H])c([H])c([H])c2C1([H])[H]

> <Step>
79.0

> <Scaffold>
O=C(NC1CCCc2ccccc21)C1Cc2ccc(OCCCn3cc(CCNC(=O)N4CCCC(n5ccc(-c6ccc(Oc7ccccc7)cc6)n5)C4)nn3)cc2CN1

> <SMILES>
CNC(C)C(=O)NC(C(=O)N1Cc2cc(OCCCn3nnc(CCNC(=O)N4CCCC(n5nc(-c6ccc(Oc7ccc(F)cc7F)cc6)c(C(N)=O)c5N)C4)c3C)ccc2CC1C(=O)NC1CCCc2ccccc21)C(C)(C)C

> <Tanimoto ROCS sim>
0.210826575756073

> <Custom alerts>
1.0

> <Linker Num Aromatic Rings>
1.0

> <Linker Effective Length>
1.0

> <ADV>
0.9931370615959167

> <PostDock Tanimoto ROCS sim>
0.9911773800849915

> <raw_Linker Num Aromatic Rings>
1.0

> <raw_Linker Effective Length>
8.0

> <raw_ADV>
-13.642000198364258

> <total_score>
0.996078610420227

> <ID>
default_job_180

> <PostDock Tanimoto ROCS sim (re-score)>
0.9847948

> <raw_ADV (re-score)>
-13.614

$$$$
default_job_181
     RDKit          3D

 90 98  0  0  1  0  0  0  0  0999 V2000
  -30.1160  -23.7290   21.2620 C   0  0  0  0  0  2  0  0  0  0  0  0
  -29.4040  -23.5230   18.9170 C   0  0  0  0  0  2  0  0  0  0  0  0
  -28.9410  -24.6640   21.6160 C   0  0  0  0  0  2  0  0  0  0  0  0
  -28.1490  -24.3880   19.1250 C   0  0  0  0  0  2  0  0  0  0  0  0
  -29.7190  -22.7070   20.1810 C   0  0  0  0  0  3  0  0  0  0  0  0
  -28.1200  -25.2330   20.4260 C   0  0  0  0  0  3  0  0  0  0  0  0
  -28.3470  -26.6430   20.1880 O   0  0  0  0  0  0  0  0  0  0  0  0
  -24.6100  -31.8940   23.2390 C   0  0  0  0  0  0  0  0  0  0  0  0
  -27.2030  -27.4260   20.1370 C   0  0  0  0  0  0  0  0  0  0  0  0
  -23.3840  -30.4900   21.6190 C   0  0  0  0  0  3  0  0  0  0  0  0
  -24.8170  -28.9560   20.1710 C   0  0  0  0  0  0  0  0  0  0  0  0
  -25.9120  -30.8350   21.3990 C   0  0  0  0  0  2  0  0  0  0  0  0
  -25.9860  -29.4670   20.7510 C   0  0  0  0  0  0  0  0  0  0  0  0
  -27.1830  -28.7120   20.7290 C   0  0  0  0  0  3  0  0  0  0  0  0
  -26.0180  -26.9510   19.5260 C   0  0  0  0  0  3  0  0  0  0  0  0
  -24.8300  -27.6970   19.5540 C   0  0  0  0  0  3  0  0  0  0  0  0
  -23.5760  -29.8150   20.2370 C   0  0  0  0  0  2  0  0  0  0  0  0
  -24.6550  -31.0830   22.1450 N   0  0  0  0  0  0  0  0  0  0  0  0
  -23.5310  -32.1940   23.7680 O   0  0  0  0  0  0  0  0  0  0  0  0
  -22.7400  -29.4680   22.5850 C   0  0  0  0  0  0  0  0  0  0  0  0
  -21.4140  -29.2810   22.4640 N   0  0  0  0  0  0  0  0  0  0  0  0
  -23.4280  -28.8470   23.3990 O   0  0  0  0  0  0  0  0  0  0  0  0
  -20.9190  -29.8340   21.7780 H   0  0  0  0  0  0  0  0  0  0  0  0
  -18.0500  -28.0600   22.9590 C   0  0  0  0  0  0  0  0  0  0  0  0
  -20.6040  -28.3430   23.2400 C   0  0  0  0  0  3  0  0  0  0  0  0
  -20.7230  -26.9070   22.6790 C   0  0  0  0  0  2  0  0  0  0  0  0
  -19.6290  -26.5640   21.6640 C   0  0  0  0  0  2  0  0  0  0  0  0
  -18.2420  -26.7050   22.2990 C   0  0  0  0  0  2  0  0  0  0  0  0
  -19.1600  -28.8360   23.3860 C   0  0  0  0  0  0  0  0  0  0  0  0
  -18.9280  -30.1030   23.9620 C   0  0  0  0  0  3  0  0  0  0  0  0
  -17.6190  -30.5970   24.1140 C   0  0  0  0  0  3  0  0  0  0  0  0
  -16.5230  -29.8190   23.7040 C   0  0  0  0  0  3  0  0  0  0  0  0
  -16.7390  -28.5520   23.1320 C   0  0  0  0  0  3  0  0  0  0  0  0
  -25.9060  -32.5110   23.8530 C   0  0  0  0  0  3  0  0  0  0  0  0
  -25.6070  -33.9060   24.2000 N   0  0  0  0  0  0  0  0  0  0  0  0
  -25.9210  -34.9620   23.4370 C   0  0  0  0  0  0  0  0  0  0  0  0
  -26.5680  -34.8640   22.3910 O   0  0  0  0  0  0  0  0  0  0  0  0
  -25.0300  -34.0560   25.0140 H   0  0  0  0  0  0  0  0  0  0  0  0
  -24.1750  -36.7450   23.1350 C   0  0  0  0  0  1  0  0  0  0  0  0
  -25.4400  -36.3460   23.9110 C   0  0  0  0  0  3  0  0  0  0  0  0
  -27.5940  -37.2350   24.6810 C   0  0  0  0  0  1  0  0  0  0  0  0
  -26.4640  -37.4040   23.7730 N   0  0  0  0  0  0  0  0  0  0  0  0
  -26.0580  -38.3210   23.9380 H   0  0  0  0  0  0  0  0  0  0  0  0
  -26.4410  -31.7260   25.1140 C   0  0  1  0  0  0  0  0  0  0  0  0
  -25.3630  -31.4820   26.1940 C   0  0  0  0  0  1  0  0  0  0  0  0
  -27.0150  -30.3510   24.7000 C   0  0  0  0  0  1  0  0  0  0  0  0
  -27.6040  -32.5100   25.7650 C   0  0  0  0  0  1  0  0  0  0  0  0
  -30.7870  -21.6070   19.9470 C   0  0  0  0  0  2  0  0  0  0  0  0
  -30.7420  -20.4140   20.9380 C   0  0  0  0  0  2  0  0  0  0  0  0
  -30.3640  -19.2210   20.2500 O   0  0  0  0  0  0  0  0  0  0  0  0
  -30.4140  -18.0220   21.0290 C   0  0  0  0  0  2  0  0  0  0  0  0
  -29.9960  -16.8540   20.1110 C   0  0  0  0  0  2  0  0  0  0  0  0
  -30.6550  -14.4830   20.4360 C   0  0  0  0  0  0  0  0  0  0  0  0
  -30.3460  -12.3130   19.3310 C   0  0  0  0  0  2  0  0  0  0  0  0
  -29.4010  -12.5360   18.1310 C   0  0  0  0  0  2  0  0  0  0  0  0
  -27.9270  -12.4090   18.5660 C   0  0  0  0  0  2  0  0  0  0  0  0
  -27.6020  -13.2450   19.8330 C   0  0  0  0  0  3  0  0  0  0  0  0
  -28.6640  -13.0180   20.9370 C   0  0  0  0  0  2  0  0  0  0  0  0
  -29.9910  -13.2990   20.3620 N   0  0  0  0  0  0  0  0  0  0  0  0
  -31.7930  -14.6520   19.9920 O   0  0  0  0  0  0  0  0  0  0  0  0
  -29.8870  -15.5360   20.7590 N   0  0  0  0  0  0  0  0  0  0  0  0
  -28.9840  -15.3070   21.1470 H   0  0  0  0  0  0  0  0  0  0  0  0
  -25.2080  -13.8660   20.5470 C   0  0  0  0  0  0  0  0  0  0  0  0
  -24.1390  -13.0990   20.9230 C   0  0  0  0  0  0  0  0  0  0  0  0
  -24.5940  -11.7460   20.8940 C   0  0  0  0  0  0  0  0  0  0  0  0
  -26.2490  -12.9800   20.3170 N   0  0  0  0  0  0  0  0  0  0  0  0
  -25.8830  -11.6990   20.5840 N   0  0  0  0  0  0  0  0  0  0  0  0
  -23.8630  -10.4870   21.0920 C   0  0  0  0  0  0  0  0  0  0  0  0
  -24.3150   -9.5060   22.0010 C   0  0  0  0  0  3  0  0  0  0  0  0
  -23.5870   -8.3110   22.1880 C   0  0  0  0  0  3  0  0  0  0  0  0
  -22.3910   -8.0900   21.4620 C   0  0  0  0  0  0  0  0  0  0  0  0
  -21.9570   -9.0600   20.5410 C   0  0  0  0  0  3  0  0  0  0  0  0
  -22.6870  -10.2460   20.3540 C   0  0  0  0  0  3  0  0  0  0  0  0
  -21.6320   -6.9500   21.5590 O   0  0  0  0  0  0  0  0  0  0  0  0
  -21.6330   -6.1760   22.6930 C   0  0  0  0  0  0  0  0  0  0  0  0
  -21.2980   -6.7090   23.9570 C   0  0  0  0  0  3  0  0  0  0  0  0
  -21.2450   -5.8640   25.0850 C   0  0  0  0  0  3  0  0  0  0  0  0
  -21.5170   -4.4900   24.9490 C   0  0  0  0  0  0  0  0  0  0  0  0
  -21.8450   -3.9580   23.6900 C   0  0  0  0  0  3  0  0  0  0  0  0
  -21.9000   -4.7990   22.5650 C   0  0  0  0  0  0  0  0  0  0  0  0
  -22.1970   -4.2770   21.3490 F   0  0  0  0  0  0  0  0  0  0  0  0
  -21.4580   -3.6770   26.0300 F   0  0  0  0  0  0  0  0  0  0  0  0
  -22.7440  -13.5830   21.1990 C   0  0  0  0  0  0  0  0  0  0  0  0
  -22.0180  -12.8940   22.0730 N   0  0  0  0  0  0  0  0  0  0  0  0
  -22.3060  -14.6070   20.6750 O   0  0  0  0  0  0  0  0  0  0  0  0
  -22.3860  -12.0650   22.5170 H   0  0  0  0  0  0  0  0  0  0  0  0
  -21.0830  -13.2000   22.3000 H   0  0  0  0  0  0  0  0  0  0  0  0
  -25.3790  -15.2360   20.3640 N   0  0  0  0  0  0  0  0  0  0  0  0
  -24.6140  -15.8940   20.4660 H   0  0  0  0  0  0  0  0  0  0  0  0
  -26.2270  -15.6680   20.0200 H   0  0  0  0  0  0  0  0  0  0  0  0
  1  3  1  0
  2  4  1  0
  2  5  1  0
  4  6  1  0
  5 48  1  0
  5  1  1  0
  6  7  1  0
  6  3  1  0
  8 19  2  0
  9  7  1  0
  9 14  1  0
 10 18  1  0
 10 20  1  0
 11 17  1  0
 11 13  1  0
 12 18  1  0
 13 12  1  0
 14 13  2  0
 15 16  1  0
 15  9  2  0
 16 11  2  0
 17 10  1  0
 18  8  1  0
 20 22  2  0
 21 20  1  0
 23 21  1  0
 24 33  2  0
 24 29  1  0
 25 21  1  0
 25 29  1  0
 26 25  1  0
 27 28  1  0
 27 26  1  0
 28 24  1  0
 29 30  2  0
 30 31  1  0
 32 31  2  0
 33 32  1  0
 34  8  1  0
 34 35  1  0
 34 44  1  0
 35 38  1  0
 36 40  1  0
 36 35  1  0
 37 36  2  0
 40 39  1  0
 42 40  1  0
 42 43  1  0
 42 41  1  0
 44 47  1  1
 44 45  1  0
 46 44  1  0
 48 49  1  0
 50 49  1  0
 50 51  1  0
 52 61  1  0
 52 51  1  0
 53 61  1  0
 54 59  1  0
 55 56  1  0
 55 54  1  0
 57 56  1  0
 57 66  1  0
 57 58  1  0
 59 53  1  0
 59 58  1  0
 60 53  2  0
 61 62  1  0
 63 64  2  0
 64 83  1  0
 65 64  1  0
 65 68  1  0
 66 63  1  0
 66 67  1  0
 67 65  2  0
 68 69  1  0
 69 70  2  0
 71 74  1  0
 71 70  1  0
 72 71  2  0
 73 72  1  0
 73 68  2  0
 74 75  1  0
 75 76  1  0
 76 77  2  0
 78 77  1  0
 78 82  1  0
 79 78  2  0
 80 75  2  0
 80 79  1  0
 81 80  1  0
 83 84  1  0
 84 87  1  0
 84 86  1  0
 85 83  2  0
 88 89  1  0
 88 63  1  0
 90 88  1  0
M  ISO  4   6 101   7 101  53 100  61 100
M  END
>  <TORSDO>  (82) 
F 21

>  <SCORE>  (82) 
-13.376

>  <name>  (82) 
81

>  <ligand_id>  (82) 
81

>  <original_smiles>  (82) 
[H]c1c([H])c([H])c2c(c1[H])C([H])([H])C([H])([H])C([H])([H])C2([H])N([H])C(=O)C1([H])N(C(=O)C([H])(N([H])C(=O)C([H])(N([H])C([H])([H])[H])C([H])([H])[H])C(C([H])([H])[H])(C([H])([H])[H])C([H])([H])[H])C([H])([H])c2c([H])c(OC3([H])C([H])([H])C([H])([H])C([H])(C([H])([H])C([H])([H])OC([H])([H])C([H])([H])N([H])C(=O)N4C([H])([H])C([H])([H])C([H])([H])C([H])(n5nc(-c6c([H])c([H])c(Oc7c([H])c([H])c(F)c([H])c7F)c([H])c6[H])c(C(=O)N([H])[H])c5N([H])[H])C4([H])[H])C([H])([H])C3([H])[H])c([H])c([H])c2C1([H])[H]

>  <smiles>  (82) 
[H]c1c([H])c([H])c2c(c1[H])C([H])([H])C([H])([H])C([H])([H])C2([H])N([H])C(=O)C1([H])N(C(=O)C([H])(N([H])C(=O)C([H])(N([H])C([H])([H])[H])C([H])([H])[H])C(C([H])([H])[H])(C([H])([H])[H])C([H])([H])[H])C([H])([H])c2c([H])c(OC3([H])C([H])([H])C([H])([H])C([H])(C([H])([H])C([H])([H])OC([H])([H])C([H])([H])N([H])C(=O)N4C([H])([H])C([H])([H])C([H])([H])C([H])(n5nc(-c6c([H])c([H])c(Oc7c([H])c([H])c(F)c([H])c7F)c([H])c6[H])c(C(=O)N([H])[H])c5N([H])[H])C4([H])[H])C([H])([H])C3([H])[H])c([H])c([H])c2C1([H])[H]

> <Step>
134.0

> <Scaffold>
O=C(NC1CCCc2ccccc21)C1Cc2ccc(OC3CCC(CCOCCNC(=O)N4CCCC(n5ccc(-c6ccc(Oc7ccccc7)cc6)n5)C4)CC3)cc2CN1

> <SMILES>
CNC(C)C(=O)NC(C(=O)N1Cc2cc(OC3CCC(CCOCCNC(=O)N4CCCC(n5nc(-c6ccc(Oc7ccc(F)cc7F)cc6)c(C(N)=O)c5N)C4)CC3)ccc2CC1C(=O)NC1CCCc2ccccc21)C(C)(C)C

> <Tanimoto ROCS sim>
0.2158067226409912

> <Custom alerts>
1.0

> <Linker Num Aromatic Rings>
1.0

> <Linker Effective Length>
1.0

> <ADV>
0.9920515418052673

> <PostDock Tanimoto ROCS sim>
0.9922510981559753

> <raw_Linker Num Aromatic Rings>
0.0

> <raw_Linker Effective Length>
9.0

> <raw_ADV>
-13.385000228881836

> <total_score>
0.9960756897926331

> <ID>
default_job_181

> <PostDock Tanimoto ROCS sim (re-score)>
0.9856326

> <raw_ADV (re-score)>
-13.376

$$$$
default_job_182
     RDKit          3D

 92100  0  0  1  0  0  0  0  0999 V2000
  -29.8160  -21.5780   19.5220 C   0  0  0  0  0  3  0  0  0  0  0  0
  -28.6240  -23.1000   21.4550 C   0  0  0  0  0  3  0  0  0  0  0  0
  -29.4510  -22.9270   19.2160 C   0  0  0  0  0  0  0  0  0  0  0  0
  -28.7870  -23.7290   20.1960 C   0  0  0  0  0  0  0  0  0  0  0  0
  -29.5640  -21.0330   20.7980 C   0  0  0  0  0  0  0  0  0  0  0  0
  -29.0110  -21.8190   21.7500 N   0  0  0  0  0  0  0  0  0  0  0  0
  -29.9520  -19.7210   21.2090 N   0  0  0  0  0  0  0  0  0  0  0  0
  -29.9180  -19.6240   22.2180 H   0  0  0  0  0  0  0  0  0  0  0  0
  -30.6990  -24.6600   17.8190 C   0  0  0  0  0  1  0  0  0  0  0  0
  -29.7450  -23.4570   17.8160 C   0  0  0  0  0  2  0  0  0  0  0  0
  -27.9520  -25.0160   19.8340 C   0  0  0  0  0  2  0  0  0  0  0  0
  -28.2680  -26.4120   20.2370 O   0  0  0  0  0  0  0  0  0  0  0  0
  -24.6070  -31.8960   23.2550 C   0  0  0  0  0  0  0  0  0  0  0  0
  -27.1850  -27.3220   20.1640 C   0  0  0  0  0  0  0  0  0  0  0  0
  -23.3970  -30.5110   21.6160 C   0  0  0  0  0  3  0  0  0  0  0  0
  -24.8360  -28.9740   20.1750 C   0  0  0  0  0  0  0  0  0  0  0  0
  -25.9440  -30.8030   21.4450 C   0  0  0  0  0  2  0  0  0  0  0  0
  -26.0120  -29.4310   20.7850 C   0  0  0  0  0  0  0  0  0  0  0  0
  -27.1870  -28.6170   20.7790 C   0  0  0  0  0  3  0  0  0  0  0  0
  -25.9850  -26.9470   19.5060 C   0  0  0  0  0  3  0  0  0  0  0  0
  -24.8250  -27.7360   19.5290 C   0  0  0  0  0  3  0  0  0  0  0  0
  -23.6070  -29.8540   20.2290 C   0  0  0  0  0  2  0  0  0  0  0  0
  -24.6690  -31.0840   22.1620 N   0  0  0  0  0  0  0  0  0  0  0  0
  -23.5190  -32.2040   23.7620 O   0  0  0  0  0  0  0  0  0  0  0  0
  -22.7270  -29.4870   22.5630 C   0  0  0  0  0  0  0  0  0  0  0  0
  -21.4020  -29.3130   22.4300 N   0  0  0  0  0  0  0  0  0  0  0  0
  -23.4010  -28.8530   23.3800 O   0  0  0  0  0  0  0  0  0  0  0  0
  -20.9160  -29.8790   21.7470 H   0  0  0  0  0  0  0  0  0  0  0  0
  -18.0150  -28.1350   22.9230 C   0  0  0  0  0  0  0  0  0  0  0  0
  -20.5760  -28.3740   23.1930 C   0  0  0  0  0  3  0  0  0  0  0  0
  -20.6670  -26.9460   22.6070 C   0  0  0  0  0  2  0  0  0  0  0  0
  -19.5620  -26.6390   21.5910 C   0  0  0  0  0  2  0  0  0  0  0  0
  -18.1800  -26.7890   22.2350 C   0  0  0  0  0  2  0  0  0  0  0  0
  -19.1390  -28.8860   23.3580 C   0  0  0  0  0  0  0  0  0  0  0  0
  -18.9290  -30.1460   23.9590 C   0  0  0  0  0  3  0  0  0  0  0  0
  -17.6260  -30.6540   24.1300 C   0  0  0  0  0  3  0  0  0  0  0  0
  -16.5180  -29.9000   23.7100 C   0  0  0  0  0  3  0  0  0  0  0  0
  -16.7120  -28.6420   23.1120 C   0  0  0  0  0  3  0  0  0  0  0  0
  -25.8930  -32.5080   23.8920 C   0  0  0  0  0  3  0  0  0  0  0  0
  -26.3920  -31.7280   25.1710 C   0  0  1  0  0  0  0  0  0  0  0  0
  -25.2880  -31.4990   26.2290 C   0  0  0  0  0  1  0  0  0  0  0  0
  -26.9680  -30.3470   24.7820 C   0  0  0  0  0  1  0  0  0  0  0  0
  -27.5460  -32.5110   25.8420 C   0  0  0  0  0  1  0  0  0  0  0  0
  -25.5970  -33.9090   24.2270 N   0  0  0  0  0  0  0  0  0  0  0  0
  -25.9170  -34.9580   23.4580 C   0  0  0  0  0  0  0  0  0  0  0  0
  -26.5670  -34.8480   22.4140 O   0  0  0  0  0  0  0  0  0  0  0  0
  -25.0240  -34.0690   25.0420 H   0  0  0  0  0  0  0  0  0  0  0  0
  -24.1800  -36.7460   23.1370 C   0  0  0  0  0  1  0  0  0  0  0  0
  -25.4430  -36.3490   23.9200 C   0  0  0  0  0  3  0  0  0  0  0  0
  -27.5970  -37.2350   24.6900 C   0  0  0  0  0  1  0  0  0  0  0  0
  -26.4730  -37.3990   23.7720 N   0  0  0  0  0  0  0  0  0  0  0  0
  -26.0720  -38.3210   23.9230 H   0  0  0  0  0  0  0  0  0  0  0  0
  -29.5760  -18.4460   20.5240 C   0  0  0  0  0  2  0  0  0  0  0  0
  -30.4760  -17.1850   20.9160 C   0  0  0  0  0  2  0  0  0  0  0  0
  -30.6140  -14.6600   20.4280 C   0  0  0  0  0  0  0  0  0  0  0  0
  -30.3350  -12.4370   19.3530 C   0  0  0  0  0  2  0  0  0  0  0  0
  -29.3910  -12.5570   18.1380 C   0  0  0  0  0  2  0  0  0  0  0  0
  -27.9240  -12.3940   18.5760 C   0  0  0  0  0  2  0  0  0  0  0  0
  -27.5670  -13.2640   19.8100 C   0  0  0  0  0  3  0  0  0  0  0  0
  -28.6320  -13.1460   20.9230 C   0  0  0  0  0  2  0  0  0  0  0  0
  -29.9350  -13.4720   20.3270 N   0  0  0  0  0  0  0  0  0  0  0  0
  -31.7870  -14.7500   20.0600 O   0  0  0  0  0  0  0  0  0  0  0  0
  -29.9150  -15.7900   20.7680 N   0  0  0  0  0  0  0  0  0  0  0  0
  -28.9420  -15.6620   21.0000 H   0  0  0  0  0  0  0  0  0  0  0  0
  -25.1740  -13.8500   20.5350 C   0  0  0  0  0  0  0  0  0  0  0  0
  -24.1120  -13.0710   20.9060 C   0  0  0  0  0  0  0  0  0  0  0  0
  -24.5800  -11.7210   20.8740 C   0  0  0  0  0  0  0  0  0  0  0  0
  -26.2220  -12.9740   20.3000 N   0  0  0  0  0  0  0  0  0  0  0  0
  -25.8720  -11.6890   20.5660 N   0  0  0  0  0  0  0  0  0  0  0  0
  -23.8600  -10.4550   21.0630 C   0  0  0  0  0  0  0  0  0  0  0  0
  -24.3000   -9.4860   21.9900 C   0  0  0  0  0  3  0  0  0  0  0  0
  -23.5780   -8.2850   22.1670 C   0  0  0  0  0  3  0  0  0  0  0  0
  -22.4020   -8.0460   21.4170 C   0  0  0  0  0  0  0  0  0  0  0  0
  -21.9810   -9.0050   20.4780 C   0  0  0  0  0  3  0  0  0  0  0  0
  -22.7030  -10.1970   20.2990 C   0  0  0  0  0  3  0  0  0  0  0  0
  -21.6520   -6.8980   21.5040 O   0  0  0  0  0  0  0  0  0  0  0  0
  -21.6160   -6.1470   22.6510 C   0  0  0  0  0  0  0  0  0  0  0  0
  -21.1910   -6.6890   23.8830 C   0  0  0  0  0  3  0  0  0  0  0  0
  -21.1030   -5.8640   25.0230 C   0  0  0  0  0  3  0  0  0  0  0  0
  -21.4310   -4.4980   24.9300 C   0  0  0  0  0  0  0  0  0  0  0  0
  -21.8500   -3.9560   23.7030 C   0  0  0  0  0  3  0  0  0  0  0  0
  -21.9390   -4.7780   22.5650 C   0  0  0  0  0  0  0  0  0  0  0  0
  -22.3230   -4.2450   21.3800 F   0  0  0  0  0  0  0  0  0  0  0  0
  -21.3400   -3.7030   26.0230 F   0  0  0  0  0  0  0  0  0  0  0  0
  -22.7130  -13.5420   21.1770 C   0  0  0  0  0  0  0  0  0  0  0  0
  -21.9890  -12.8410   22.0430 N   0  0  0  0  0  0  0  0  0  0  0  0
  -22.2710  -14.5660   20.6600 O   0  0  0  0  0  0  0  0  0  0  0  0
  -22.3590  -12.0110   22.4820 H   0  0  0  0  0  0  0  0  0  0  0  0
  -21.0490  -13.1370   22.2690 H   0  0  0  0  0  0  0  0  0  0  0  0
  -25.3330  -15.2210   20.3560 N   0  0  0  0  0  0  0  0  0  0  0  0
  -24.5610  -15.8720   20.4570 H   0  0  0  0  0  0  0  0  0  0  0  0
  -26.1750  -15.6580   20.0050 H   0  0  0  0  0  0  0  0  0  0  0  0
  1  5  1  0
  2  6  1  0
  3  1  2  0
  3  4  1  0
  4  2  2  0
  5  7  1  0
  5  6  2  0
  7  8  1  0
 10  9  1  0
 10  3  1  0
 11  4  1  0
 11 12  1  0
 13 24  2  0
 14 12  1  0
 14 19  1  0
 15 23  1  0
 15 25  1  0
 16 22  1  0
 16 18  1  0
 17 23  1  0
 18 17  1  0
 19 18  2  0
 20 21  1  0
 20 14  2  0
 21 16  2  0
 22 15  1  0
 23 13  1  0
 25 27  2  0
 26 25  1  0
 28 26  1  0
 29 38  2  0
 29 34  1  0
 30 26  1  0
 30 34  1  0
 31 30  1  0
 32 33  1  0
 32 31  1  0
 33 29  1  0
 34 35  2  0
 35 36  1  0
 37 36  2  0
 38 37  1  0
 39 13  1  0
 39 44  1  0
 39 40  1  0
 40 43  1  1
 40 41  1  0
 42 40  1  0
 44 47  1  0
 45 49  1  0
 45 44  1  0
 46 45  2  0
 49 48  1  0
 51 49  1  0
 51 52  1  0
 51 50  1  0
 53 54  1  0
 53  7  1  0
 55 63  1  0
 56 61  1  0
 57 58  1  0
 57 56  1  0
 59 58  1  0
 59 68  1  0
 59 60  1  0
 61 55  1  0
 61 60  1  0
 62 55  2  0
 63 54  1  0
 63 64  1  0
 65 66  2  0
 66 85  1  0
 67 66  1  0
 67 70  1  0
 68 65  1  0
 68 69  1  0
 69 67  2  0
 70 71  1  0
 71 72  2  0
 73 76  1  0
 73 72  1  0
 74 73  2  0
 75 74  1  0
 75 70  2  0
 76 77  1  0
 77 78  1  0
 78 79  2  0
 80 79  1  0
 80 84  1  0
 81 80  2  0
 82 77  2  0
 82 81  1  0
 83 82  1  0
 85 86  1  0
 86 89  1  0
 86 88  1  0
 87 85  2  0
 90 91  1  0
 90 65  1  0
 92 90  1  0
M  ISO  4  11 101  12 101  55 100  63 100
M  END
>  <TORSDO>  (83) 
F 20

>  <SCORE>  (83) 
-14.043

>  <name>  (83) 
82

>  <ligand_id>  (83) 
82

>  <original_smiles>  (83) 
[H]c1nc(N([H])C([H])([H])C([H])([H])N([H])C(=O)N2C([H])([H])C([H])([H])C([H])([H])C([H])(n3nc(-c4c([H])c([H])c(Oc5c([H])c([H])c(F)c([H])c5F)c([H])c4[H])c(C(=O)N([H])[H])c3N([H])[H])C2([H])[H])c([H])c(C([H])([H])C([H])([H])[H])c1C([H])([H])Oc1c([H])c([H])c2c(c1[H])C([H])([H])N(C(=O)C([H])(N([H])C(=O)C([H])(N([H])C([H])([H])[H])C([H])([H])[H])C(C([H])([H])[H])(C([H])([H])[H])C([H])([H])[H])C([H])(C(=O)N([H])C1([H])c3c([H])c([H])c([H])c([H])c3C([H])([H])C([H])([H])C1([H])[H])C2([H])[H]

>  <smiles>  (83) 
[H]c1nc(N([H])C([H])([H])C([H])([H])N([H])C(=O)N2C([H])([H])C([H])([H])C([H])([H])C([H])(n3nc(-c4c([H])c([H])c(Oc5c([H])c([H])c(F)c([H])c5F)c([H])c4[H])c(C(=O)N([H])[H])c3N([H])[H])C2([H])[H])c([H])c(C([H])([H])C([H])([H])[H])c1C([H])([H])Oc1c([H])c([H])c2c(c1[H])C([H])([H])N(C(=O)C([H])(N([H])C(=O)C([H])(N([H])C([H])([H])[H])C([H])([H])[H])C(C([H])([H])[H])(C([H])([H])[H])C([H])([H])[H])C([H])(C(=O)N([H])C1([H])c3c([H])c([H])c([H])c([H])c3C([H])([H])C([H])([H])C1([H])[H])C2([H])[H]

> <Step>
120.0

> <Scaffold>
O=C(NC1CCCc2ccccc21)C1Cc2ccc(OCc3ccc(NCCNC(=O)N4CCCC(n5ccc(-c6ccc(Oc7ccccc7)cc6)n5)C4)nc3)cc2CN1

> <SMILES>
CCc1cc(NCCNC(=O)N2CCCC(n3nc(-c4ccc(Oc5ccc(F)cc5F)cc4)c(C(N)=O)c3N)C2)ncc1COc1ccc2c(c1)CN(C(=O)C(NC(=O)C(C)NC)C(C)(C)C)C(C(=O)NC1CCCc3ccccc31)C2

> <Tanimoto ROCS sim>
0.3297939896583557

> <Custom alerts>
1.0

> <Linker Num Aromatic Rings>
1.0

> <Linker Effective Length>
1.0

> <ADV>
0.9945064187049866

> <PostDock Tanimoto ROCS sim>
0.9897937774658203

> <raw_Linker Num Aromatic Rings>
1.0

> <raw_Linker Effective Length>
8.0

> <raw_ADV>
-14.031000137329102

> <total_score>
0.9960750341415405

> <ID>
default_job_182

> <PostDock Tanimoto ROCS sim (re-score)>
0.9833346

> <raw_ADV (re-score)>
-14.043

$$$$
default_job_183
     RDKit          3D

 91100  0  0  1  0  0  0  0  0999 V2000
  -29.2370  -21.8600   19.8920 N   0  0  0  0  0  4  0  0  0  0  0  0
  -30.1810  -21.8480   19.5410 H   0  0  0  0  0  0  0  0  0  0  0  0
  -28.6380  -21.7470   19.0890 H   0  0  0  0  0  0  0  0  0  0  0  0
  -29.7030  -24.4280   19.7800 C   0  0  0  0  0  2  0  0  0  0  0  0
  -27.6880  -23.9820   20.3400 C   0  0  0  0  0  2  0  0  0  0  0  0
  -29.0430  -23.2340   20.5280 C   0  0  0  0  0  3  0  0  0  0  0  0
  -28.3610  -25.1910   19.6200 C   0  0  0  0  0  3  0  0  0  0  0  0
  -28.3410  -26.5390   20.2120 O   0  0  0  0  0  0  0  0  0  0  0  0
  -24.5960  -31.8810   23.2440 C   0  0  0  0  0  0  0  0  0  0  0  0
  -27.1930  -27.3370   20.1640 C   0  0  0  0  0  0  0  0  0  0  0  0
  -23.3800  -30.4790   21.6160 C   0  0  0  0  0  3  0  0  0  0  0  0
  -24.8190  -28.9270   20.1800 C   0  0  0  0  0  0  0  0  0  0  0  0
  -25.9160  -30.7970   21.4180 C   0  0  0  0  0  2  0  0  0  0  0  0
  -25.9890  -29.4210   20.7710 C   0  0  0  0  0  0  0  0  0  0  0  0
  -27.1750  -28.6350   20.7570 C   0  0  0  0  0  3  0  0  0  0  0  0
  -25.9990  -26.8840   19.5610 C   0  0  0  0  0  3  0  0  0  0  0  0
  -24.8250  -27.6620   19.5710 C   0  0  0  0  0  3  0  0  0  0  0  0
  -23.5830  -29.8010   20.2340 C   0  0  0  0  0  2  0  0  0  0  0  0
  -24.6510  -31.0660   22.1520 N   0  0  0  0  0  0  0  0  0  0  0  0
  -23.5120  -32.1830   23.7610 O   0  0  0  0  0  0  0  0  0  0  0  0
  -22.7210  -29.4650   22.5800 C   0  0  0  0  0  0  0  0  0  0  0  0
  -21.3950  -29.2810   22.4520 N   0  0  0  0  0  0  0  0  0  0  0  0
  -23.4020  -28.8430   23.3990 O   0  0  0  0  0  0  0  0  0  0  0  0
  -20.9050  -29.8370   21.7650 H   0  0  0  0  0  0  0  0  0  0  0  0
  -18.0250  -28.0680   22.9430 C   0  0  0  0  0  0  0  0  0  0  0  0
  -20.5790  -28.3430   23.2250 C   0  0  0  0  0  3  0  0  0  0  0  0
  -20.6920  -26.9090   22.6590 C   0  0  0  0  0  2  0  0  0  0  0  0
  -19.5980  -26.5730   21.6400 C   0  0  0  0  0  2  0  0  0  0  0  0
  -18.2120  -26.7160   22.2760 C   0  0  0  0  0  2  0  0  0  0  0  0
  -19.1370  -28.8390   23.3740 C   0  0  0  0  0  0  0  0  0  0  0  0
  -18.9070  -30.1040   23.9590 C   0  0  0  0  0  3  0  0  0  0  0  0
  -17.5990  -30.5980   24.1140 C   0  0  0  0  0  3  0  0  0  0  0  0
  -16.5010  -29.8260   23.6980 C   0  0  0  0  0  3  0  0  0  0  0  0
  -16.7150  -28.5620   23.1200 C   0  0  0  0  0  3  0  0  0  0  0  0
  -25.8850  -32.5010   23.8700 C   0  0  0  0  0  3  0  0  0  0  0  0
  -26.4010  -31.7240   25.1450 C   0  0  1  0  0  0  0  0  0  0  0  0
  -25.3110  -31.4920   26.2150 C   0  0  0  0  0  1  0  0  0  0  0  0
  -26.9760  -30.3430   24.7490 C   0  0  0  0  0  1  0  0  0  0  0  0
  -27.5590  -32.5100   25.8040 C   0  0  0  0  0  1  0  0  0  0  0  0
  -25.5850  -33.8990   24.2050 N   0  0  0  0  0  0  0  0  0  0  0  0
  -25.9100  -34.9500   23.4420 C   0  0  0  0  0  0  0  0  0  0  0  0
  -26.5650  -34.8450   22.4010 O   0  0  0  0  0  0  0  0  0  0  0  0
  -25.0010  -34.0540   25.0140 H   0  0  0  0  0  0  0  0  0  0  0  0
  -24.1760  -36.7440   23.1140 C   0  0  0  0  0  1  0  0  0  0  0  0
  -25.4310  -36.3400   23.9040 C   0  0  0  0  0  3  0  0  0  0  0  0
  -27.5830  -37.2240   24.6930 C   0  0  0  0  0  1  0  0  0  0  0  0
  -26.4630  -37.3920   23.7700 N   0  0  0  0  0  0  0  0  0  0  0  0
  -26.0610  -38.3120   23.9240 H   0  0  0  0  0  0  0  0  0  0  0  0
  -29.1360  -20.6260   20.7660 C   0  0  0  0  0  2  0  0  0  0  0  0
  -28.9460  -18.0420   19.7360 C   0  0  0  0  0  2  0  0  0  0  0  0
  -30.4460  -18.2270   21.1430 C   0  0  0  0  0  2  0  0  0  0  0  0
  -29.7780  -19.2850   20.1980 C   0  0  0  0  0  3  0  0  0  0  0  0
  -30.1570  -17.1270   20.0910 C   0  0  0  0  0  3  0  0  0  0  0  0
  -30.6160  -14.6260   20.3700 C   0  0  0  0  0  0  0  0  0  0  0  0
  -30.3610  -12.3880   19.3450 C   0  0  0  0  0  2  0  0  0  0  0  0
  -29.4250  -12.5270   18.1260 C   0  0  0  0  0  2  0  0  0  0  0  0
  -27.9520  -12.3820   18.5570 C   0  0  0  0  0  2  0  0  0  0  0  0
  -27.5990  -13.2530   19.7930 C   0  0  0  0  0  3  0  0  0  0  0  0
  -28.6590  -13.1150   20.9110 C   0  0  0  0  0  2  0  0  0  0  0  0
  -29.9690  -13.4220   20.3230 N   0  0  0  0  0  0  0  0  0  0  0  0
  -31.7900  -14.7390   20.0040 O   0  0  0  0  0  0  0  0  0  0  0  0
  -29.8450  -15.7370   20.5760 N   0  0  0  0  0  0  0  0  0  0  0  0
  -28.8980  -15.5600   20.8750 H   0  0  0  0  0  0  0  0  0  0  0  0
  -25.2090  -13.8580   20.5120 C   0  0  0  0  0  0  0  0  0  0  0  0
  -24.1410  -13.0880   20.8840 C   0  0  0  0  0  0  0  0  0  0  0  0
  -24.6010  -11.7360   20.8590 C   0  0  0  0  0  0  0  0  0  0  0  0
  -26.2510  -12.9760   20.2810 N   0  0  0  0  0  0  0  0  0  0  0  0
  -25.8910  -11.6940   20.5510 N   0  0  0  0  0  0  0  0  0  0  0  0
  -23.8730  -10.4750   21.0520 C   0  0  0  0  0  0  0  0  0  0  0  0
  -24.3140   -9.5020   21.9770 C   0  0  0  0  0  3  0  0  0  0  0  0
  -23.5850   -8.3060   22.1590 C   0  0  0  0  0  3  0  0  0  0  0  0
  -22.4030   -8.0750   21.4160 C   0  0  0  0  0  0  0  0  0  0  0  0
  -21.9830   -9.0360   20.4800 C   0  0  0  0  0  3  0  0  0  0  0  0
  -22.7100  -10.2220   20.2960 C   0  0  0  0  0  3  0  0  0  0  0  0
  -21.6470   -6.9310   21.5070 O   0  0  0  0  0  0  0  0  0  0  0  0
  -21.6200   -6.1760   22.6520 C   0  0  0  0  0  0  0  0  0  0  0  0
  -21.2270   -6.7190   23.8940 C   0  0  0  0  0  3  0  0  0  0  0  0
  -21.1460   -5.8900   25.0310 C   0  0  0  0  0  3  0  0  0  0  0  0
  -21.4490   -4.5200   24.9270 C   0  0  0  0  0  0  0  0  0  0  0  0
  -21.8360   -3.9760   23.6890 C   0  0  0  0  0  3  0  0  0  0  0  0
  -21.9180   -4.8020   22.5550 C   0  0  0  0  0  0  0  0  0  0  0  0
  -22.2710   -4.2690   21.3600 F   0  0  0  0  0  0  0  0  0  0  0  0
  -21.3650   -3.7210   26.0160 F   0  0  0  0  0  0  0  0  0  0  0  0
  -22.7450  -13.5680   21.1530 C   0  0  0  0  0  0  0  0  0  0  0  0
  -22.0140  -12.8760   22.0210 N   0  0  0  0  0  0  0  0  0  0  0  0
  -22.3090  -14.5920   20.6280 O   0  0  0  0  0  0  0  0  0  0  0  0
  -22.3780  -12.0490   22.4690 H   0  0  0  0  0  0  0  0  0  0  0  0
  -21.0770  -13.1830   22.2440 H   0  0  0  0  0  0  0  0  0  0  0  0
  -25.3730  -15.2270   20.3270 N   0  0  0  0  0  0  0  0  0  0  0  0
  -24.6020  -15.8780   20.4250 H   0  0  0  0  0  0  0  0  0  0  0  0
  -26.2090  -15.6590   19.9560 H   0  0  0  0  0  0  0  0  0  0  0  0
  1 49  1  0
  2  1  1  0
  3  1  1  0
  4  6  1  0
  5  6  1  0
  6  1  1  0
  7  4  1  0
  7  8  1  0
  7  5  1  0
  9 20  2  0
 10  8  1  0
 10 15  1  0
 11 19  1  0
 11 21  1  0
 12 18  1  0
 12 14  1  0
 13 19  1  0
 14 13  1  0
 15 14  2  0
 16 17  1  0
 16 10  2  0
 17 12  2  0
 18 11  1  0
 19  9  1  0
 21 23  2  0
 22 21  1  0
 24 22  1  0
 25 34  2  0
 25 30  1  0
 26 22  1  0
 26 30  1  0
 27 26  1  0
 28 29  1  0
 28 27  1  0
 29 25  1  0
 30 31  2  0
 31 32  1  0
 33 32  2  0
 34 33  1  0
 35  9  1  0
 35 40  1  0
 35 36  1  0
 36 39  1  1
 36 37  1  0
 38 36  1  0
 40 43  1  0
 41 45  1  0
 41 40  1  0
 42 41  2  0
 45 44  1  0
 47 45  1  0
 47 48  1  0
 47 46  1  0
 50 53  1  0
 50 52  1  0
 52 49  1  0
 52 51  1  0
 53 62  1  0
 53 51  1  0
 54 62  1  0
 55 60  1  0
 56 57  1  0
 56 55  1  0
 58 57  1  0
 58 67  1  0
 58 59  1  0
 60 54  1  0
 60 59  1  0
 61 54  2  0
 62 63  1  0
 64 65  2  0
 65 84  1  0
 66 65  1  0
 66 69  1  0
 67 64  1  0
 67 68  1  0
 68 66  2  0
 69 70  1  0
 70 71  2  0
 72 75  1  0
 72 71  1  0
 73 72  2  0
 74 73  1  0
 74 69  2  0
 75 76  1  0
 76 77  1  0
 77 78  2  0
 79 78  1  0
 79 83  1  0
 80 79  2  0
 81 76  2  0
 81 80  1  0
 82 81  1  0
 84 85  1  0
 85 88  1  0
 85 87  1  0
 86 84  2  0
 89 90  1  0
 89 64  1  0
 91 89  1  0
M  ISO  4   7 101   8 101  54 100  62 100
M  END
>  <TORSDO>  (84) 
F 19

>  <SCORE>  (84) 
-14.178

>  <name>  (84) 
83

>  <ligand_id>  (84) 
83

>  <original_smiles>  (84) 
[H]c1c([H])c([H])c2c(c1[H])C([H])([H])C([H])([H])C([H])([H])C2([H])N([H])C(=O)C1([H])N(C(=O)C([H])(N([H])C(=O)C([H])(N([H])C([H])([H])[H])C([H])([H])[H])C(C([H])([H])[H])(C([H])([H])[H])C([H])([H])[H])C([H])([H])c2c([H])c(OC3([H])C([H])([H])C([H])([N+]([H])([H])C([H])([H])C4([H])C([H])([H])C([H])(N([H])C(=O)N5C([H])([H])C([H])([H])C([H])([H])C([H])(n6nc(-c7c([H])c([H])c(Oc8c([H])c([H])c(F)c([H])c8F)c([H])c7[H])c(C(=O)N([H])[H])c6N([H])[H])C5([H])[H])C4([H])[H])C3([H])[H])c([H])c([H])c2C1([H])[H]

>  <smiles>  (84) 
[H]c1c([H])c([H])c2c(c1[H])C([H])([H])C([H])([H])C([H])([H])C2([H])N([H])C(=O)C1([H])N(C(=O)C([H])(N([H])C(=O)C([H])(N([H])C([H])([H])[H])C([H])([H])[H])C(C([H])([H])[H])(C([H])([H])[H])C([H])([H])[H])C([H])([H])c2c([H])c(OC3([H])C([H])([H])C([H])([N+]([H])([H])C([H])([H])C4([H])C([H])([H])C([H])(N([H])C(=O)N5C([H])([H])C([H])([H])C([H])([H])C([H])(n6nc(-c7c([H])c([H])c(Oc8c([H])c([H])c(F)c([H])c8F)c([H])c7[H])c(C(=O)N([H])[H])c6N([H])[H])C5([H])[H])C4([H])[H])C3([H])[H])c([H])c([H])c2C1([H])[H]

> <Step>
187.0

> <Scaffold>
O=C(NC1CCCc2ccccc21)C1Cc2ccc(OC3CC(NCC4CC(NC(=O)N5CCCC(n6ccc(-c7ccc(Oc8ccccc8)cc7)n6)C5)C4)C3)cc2CN1

> <SMILES>
CNC(C)C(=O)NC(C(=O)N1Cc2cc(OC3CC(NCC4CC(NC(=O)N5CCCC(n6nc(-c7ccc(Oc8ccc(F)cc8F)cc7)c(C(N)=O)c6N)C5)C4)C3)ccc2CC1C(=O)NC1CCCc2ccccc21)C(C)(C)C

> <Tanimoto ROCS sim>
0.24791684746742249

> <Custom alerts>
1.0

> <Linker Num Aromatic Rings>
1.0

> <Linker Effective Length>
1.0

> <ADV>
0.9949004650115967

> <PostDock Tanimoto ROCS sim>
0.9893924593925476

> <raw_Linker Num Aromatic Rings>
0.0

> <raw_Linker Effective Length>
8.0

> <raw_ADV>
-14.16100025177002

> <total_score>
0.9960732460021973

> <ID>
default_job_183

> <PostDock Tanimoto ROCS sim (re-score)>
0.9831035

> <raw_ADV (re-score)>
-14.178

$$$$
default_job_184
     RDKit          3D

 96106  0  0  1  0  0  0  0  0999 V2000
  -31.8840  -24.2380   20.5270 C   0  0  0  0  0  3  0  0  0  0  0  0
  -30.6660  -24.9480   20.5850 C   0  0  0  0  0  3  0  0  0  0  0  0
  -29.4940  -23.0430   19.5710 C   0  0  0  0  0  3  0  0  0  0  0  0
  -31.8890  -22.9580   19.9470 C   0  0  0  0  0  0  0  0  0  0  0  0
  -30.7190  -22.3330   19.5210 C   0  0  0  0  0  0  0  0  0  0  0  0
  -29.4790  -24.3820   20.0620 C   0  0  0  0  0  0  0  0  0  0  0  0
  -33.1060  -22.1940   19.5110 C   0  0  0  0  0  2  0  0  0  0  0  0
  -32.5370  -21.2720   18.4110 C   0  0  0  0  0  2  0  0  0  0  0  0
  -31.0320  -21.0520   18.7360 C   0  0  0  0  0  3  0  0  0  0  0  0
  -30.0320  -18.1020   21.1430 C   0  0  0  0  0  2  0  0  0  0  0  0
  -30.9410  -17.2250   18.9780 C   0  0  0  0  0  2  0  0  0  0  0  0
  -29.9230  -19.5280   20.5020 C   0  0  0  0  0  2  0  0  0  0  0  0
  -30.7690  -18.6320   18.3740 C   0  0  0  0  0  2  0  0  0  0  0  0
  -29.9060  -16.9690   20.0910 C   0  0  0  0  0  3  0  0  0  0  0  0
  -30.9060  -19.7090   19.3980 N   0  0  1  0  0  4  0  0  0  0  0  0
  -31.8040  -19.5770   19.8380 H   0  0  0  0  0  0  0  0  0  0  0  0
  -30.6520  -14.5190   20.4060 C   0  0  0  0  0  0  0  0  0  0  0  0
  -30.3740  -12.3330   19.3180 C   0  0  0  0  0  2  0  0  0  0  0  0
  -29.4360  -12.5360   18.1090 C   0  0  0  0  0  2  0  0  0  0  0  0
  -27.9610  -12.3950   18.5360 C   0  0  0  0  0  2  0  0  0  0  0  0
  -27.6160  -13.2370   19.7940 C   0  0  0  0  0  3  0  0  0  0  0  0
  -28.6730  -13.0370   20.9060 C   0  0  0  0  0  2  0  0  0  0  0  0
  -29.9990  -13.3280   20.3360 N   0  0  0  0  0  0  0  0  0  0  0  0
  -31.8160  -14.6580   20.0250 O   0  0  0  0  0  0  0  0  0  0  0  0
  -29.8520  -15.5850   20.6420 N   0  0  0  0  0  0  0  0  0  0  0  0
  -28.9460  -15.3170   21.0000 H   0  0  0  0  0  0  0  0  0  0  0  0
  -25.2170  -13.8400   20.5020 C   0  0  0  0  0  0  0  0  0  0  0  0
  -24.1490  -13.0680   20.8690 C   0  0  0  0  0  0  0  0  0  0  0  0
  -24.6110  -11.7160   20.8400 C   0  0  0  0  0  0  0  0  0  0  0  0
  -26.2640  -12.9600   20.2730 N   0  0  0  0  0  0  0  0  0  0  0  0
  -25.9030  -11.6770   20.5360 N   0  0  0  0  0  0  0  0  0  0  0  0
  -23.8860  -10.4530   21.0310 C   0  0  0  0  0  0  0  0  0  0  0  0
  -24.3130   -9.4910   21.9720 C   0  0  0  0  0  3  0  0  0  0  0  0
  -23.5900   -8.2920   22.1490 C   0  0  0  0  0  3  0  0  0  0  0  0
  -22.4250   -8.0470   21.3840 C   0  0  0  0  0  0  0  0  0  0  0  0
  -22.0170   -8.9980   20.4320 C   0  0  0  0  0  3  0  0  0  0  0  0
  -22.7410  -10.1890   20.2540 C   0  0  0  0  0  3  0  0  0  0  0  0
  -21.6730   -6.9020   21.4710 O   0  0  0  0  0  0  0  0  0  0  0  0
  -21.6090   -6.1680   22.6290 C   0  0  0  0  0  0  0  0  0  0  0  0
  -21.1550   -6.7290   23.8420 C   0  0  0  0  0  3  0  0  0  0  0  0
  -21.0380   -5.9220   24.9900 C   0  0  0  0  0  3  0  0  0  0  0  0
  -21.3650   -4.5530   24.9270 C   0  0  0  0  0  0  0  0  0  0  0  0
  -21.8120   -3.9920   23.7170 C   0  0  0  0  0  3  0  0  0  0  0  0
  -21.9300   -4.7970   22.5710 C   0  0  0  0  0  0  0  0  0  0  0  0
  -22.3410   -4.2460   21.4030 F   0  0  0  0  0  0  0  0  0  0  0  0
  -21.2460   -3.7760   26.0280 F   0  0  0  0  0  0  0  0  0  0  0  0
  -22.7510  -13.5450   21.1380 C   0  0  0  0  0  0  0  0  0  0  0  0
  -22.0170  -12.8480   22.0000 N   0  0  0  0  0  0  0  0  0  0  0  0
  -22.3160  -14.5730   20.6200 O   0  0  0  0  0  0  0  0  0  0  0  0
  -22.3780  -12.0160   22.4430 H   0  0  0  0  0  0  0  0  0  0  0  0
  -21.0800  -13.1560   22.2210 H   0  0  0  0  0  0  0  0  0  0  0  0
  -25.3810  -15.2100   20.3240 N   0  0  0  0  0  0  0  0  0  0  0  0
  -24.6090  -15.8600   20.4350 H   0  0  0  0  0  0  0  0  0  0  0  0
  -26.2260  -15.6550   19.9900 H   0  0  0  0  0  0  0  0  0  0  0  0
  -28.1980  -25.2170   19.9630 C   0  0  0  0  0  2  0  0  0  0  0  0
  -28.3510  -26.6470   20.1330 O   0  0  0  0  0  0  0  0  0  0  0  0
  -24.6250  -31.9340   23.1880 C   0  0  0  0  0  0  0  0  0  0  0  0
  -27.1900  -27.4090   20.1180 C   0  0  0  0  0  0  0  0  0  0  0  0
  -23.3890  -30.5180   21.5860 C   0  0  0  0  0  3  0  0  0  0  0  0
  -24.8090  -28.9610   20.1530 C   0  0  0  0  0  0  0  0  0  0  0  0
  -25.9200  -30.8480   21.3530 C   0  0  0  0  0  2  0  0  0  0  0  0
  -25.9840  -29.4710   20.7200 C   0  0  0  0  0  0  0  0  0  0  0  0
  -27.1770  -28.7050   20.6950 C   0  0  0  0  0  3  0  0  0  0  0  0
  -25.9880  -26.9270   19.5440 C   0  0  0  0  0  3  0  0  0  0  0  0
  -24.8090  -27.6900   19.5610 C   0  0  0  0  0  3  0  0  0  0  0  0
  -23.5730  -29.8300   20.2100 C   0  0  0  0  0  2  0  0  0  0  0  0
  -24.6650  -31.1120   22.1020 N   0  0  0  0  0  0  0  0  0  0  0  0
  -23.5470  -32.2440   23.7150 O   0  0  0  0  0  0  0  0  0  0  0  0
  -22.7440  -29.5080   22.5640 C   0  0  0  0  0  0  0  0  0  0  0  0
  -21.4180  -29.3240   22.4480 N   0  0  0  0  0  0  0  0  0  0  0  0
  -23.4320  -28.8930   23.3820 O   0  0  0  0  0  0  0  0  0  0  0  0
  -20.9240  -29.8720   21.7570 H   0  0  0  0  0  0  0  0  0  0  0  0
  -18.0460  -28.1350   22.9790 C   0  0  0  0  0  0  0  0  0  0  0  0
  -20.6050  -28.3950   23.2340 C   0  0  0  0  0  3  0  0  0  0  0  0
  -20.7050  -26.9580   22.6750 C   0  0  0  0  0  2  0  0  0  0  0  0
  -19.5970  -26.6220   21.6720 C   0  0  0  0  0  2  0  0  0  0  0  0
  -18.2190  -26.7760   22.3210 C   0  0  0  0  0  2  0  0  0  0  0  0
  -19.1670  -28.9010   23.3930 C   0  0  0  0  0  0  0  0  0  0  0  0
  -18.9510  -30.1730   23.9670 C   0  0  0  0  0  3  0  0  0  0  0  0
  -17.6470  -30.6770   24.1330 C   0  0  0  0  0  3  0  0  0  0  0  0
  -16.5400  -29.9070   23.7350 C   0  0  0  0  0  3  0  0  0  0  0  0
  -16.7410  -28.6370   23.1640 C   0  0  0  0  0  3  0  0  0  0  0  0
  -25.9240  -32.5530   23.7930 C   0  0  0  0  0  3  0  0  0  0  0  0
  -25.6330  -33.9570   24.1150 N   0  0  0  0  0  0  0  0  0  0  0  0
  -25.9380  -34.9950   23.3260 C   0  0  0  0  0  0  0  0  0  0  0  0
  -26.5700  -34.8730   22.2730 O   0  0  0  0  0  0  0  0  0  0  0  0
  -25.0690  -34.1270   24.9350 H   0  0  0  0  0  0  0  0  0  0  0  0
  -24.1910  -36.7760   23.0150 C   0  0  0  0  0  1  0  0  0  0  0  0
  -25.4680  -36.3910   23.7780 C   0  0  0  0  0  3  0  0  0  0  0  0
  -27.6360  -37.2940   24.4940 C   0  0  0  0  0  1  0  0  0  0  0  0
  -26.4930  -37.4420   23.5970 N   0  0  0  0  0  0  0  0  0  0  0  0
  -26.0930  -38.3660   23.7420 H   0  0  0  0  0  0  0  0  0  0  0  0
  -26.4500  -31.7870   25.0700 C   0  0  1  0  0  0  0  0  0  0  0  0
  -25.3660  -31.5670   26.1510 C   0  0  0  0  0  1  0  0  0  0  0  0
  -27.0170  -30.4030   24.6800 C   0  0  0  0  0  1  0  0  0  0  0  0
  -27.6140  -32.5780   25.7120 C   0  0  0  0  0  1  0  0  0  0  0  0
  1  2  1  0
  3  6  1  0
  4  1  2  0
  5  3  2  0
  5  4  1  0
  6  2  2  0
  7  4  1  0
  8  7  1  0
  9  8  1  0
  9 15  1  0
  9  5  1  0
 11 14  1  0
 12 10  1  0
 13 11  1  0
 13 15  1  0
 14 25  1  0
 14 10  1  0
 15 16  1  1
 15 12  1  0
 17 25  1  0
 18 23  1  0
 19 20  1  0
 19 18  1  0
 21 20  1  0
 21 30  1  0
 21 22  1  0
 23 17  1  0
 23 22  1  0
 24 17  2  0
 25 26  1  0
 27 28  2  0
 28 47  1  0
 29 28  1  0
 29 32  1  0
 30 27  1  0
 30 31  1  0
 31 29  2  0
 32 33  1  0
 33 34  2  0
 35 38  1  0
 35 34  1  0
 36 35  2  0
 37 36  1  0
 37 32  2  0
 38 39  1  0
 39 40  1  0
 40 41  2  0
 42 41  1  0
 42 46  1  0
 43 42  2  0
 44 39  2  0
 44 43  1  0
 45 44  1  0
 47 48  1  0
 48 51  1  0
 48 50  1  0
 49 47  2  0
 52 53  1  0
 52 27  1  0
 54 52  1  0
 55  6  1  0
 55 56  1  0
 57 68  2  0
 58 56  1  0
 58 63  1  0
 59 67  1  0
 59 69  1  0
 60 66  1  0
 60 62  1  0
 61 67  1  0
 62 61  1  0
 63 62  2  0
 64 65  1  0
 64 58  2  0
 65 60  2  0
 66 59  1  0
 67 57  1  0
 69 71  2  0
 70 69  1  0
 72 70  1  0
 73 82  2  0
 73 78  1  0
 74 70  1  0
 74 78  1  0
 75 74  1  0
 76 77  1  0
 76 75  1  0
 77 73  1  0
 78 79  2  0
 79 80  1  0
 81 80  2  0
 82 81  1  0
 83 57  1  0
 83 84  1  0
 83 93  1  0
 84 87  1  0
 85 89  1  0
 85 84  1  0
 86 85  2  0
 89 88  1  0
 91 92  1  0
 91 89  1  0
 91 90  1  0
 93 96  1  1
 93 94  1  0
 95 93  1  0
M  ISO  4  17 100  25 100  55 101  56 101
M  END
>  <TORSDO>  (85) 
F 18

>  <SCORE>  (85) 
-14.587

>  <name>  (85) 
84

>  <ligand_id>  (85) 
84

>  <original_smiles>  (85) 
[H]c1c([H])c([H])c2c(c1[H])C([H])([H])C([H])([H])C([H])([H])C2([H])N([H])C(=O)C1([H])N(C(=O)C([H])(N([H])C(=O)C([H])(N([H])C([H])([H])[H])C([H])([H])[H])C(C([H])([H])[H])(C([H])([H])[H])C([H])([H])[H])C([H])([H])c2c([H])c(OC([H])([H])c3c([H])c([H])c4c(c3[H])C([H])([N+]3([H])C([H])([H])C([H])([H])C([H])(N([H])C(=O)N5C([H])([H])C([H])([H])C([H])([H])C([H])(n6nc(-c7c([H])c([H])c(Oc8c([H])c([H])c(F)c([H])c8F)c([H])c7[H])c(C(=O)N([H])[H])c6N([H])[H])C5([H])[H])C([H])([H])C3([H])[H])C([H])([H])C4([H])[H])c([H])c([H])c2C1([H])[H]

>  <smiles>  (85) 
[H]c1c([H])c([H])c2c(c1[H])C([H])([H])C([H])([H])C([H])([H])C2([H])N([H])C(=O)C1([H])N(C(=O)C([H])(N([H])C(=O)C([H])(N([H])C([H])([H])[H])C([H])([H])[H])C(C([H])([H])[H])(C([H])([H])[H])C([H])([H])[H])C([H])([H])c2c([H])c(OC([H])([H])c3c([H])c([H])c4c(c3[H])C([H])([N+]3([H])C([H])([H])C([H])([H])C([H])(N([H])C(=O)N5C([H])([H])C([H])([H])C([H])([H])C([H])(n6nc(-c7c([H])c([H])c(Oc8c([H])c([H])c(F)c([H])c8F)c([H])c7[H])c(C(=O)N([H])[H])c6N([H])[H])C5([H])[H])C([H])([H])C3([H])[H])C([H])([H])C4([H])[H])c([H])c([H])c2C1([H])[H]

> <Step>
135.0

> <Scaffold>
O=C(NC1CCCc2ccccc21)C1Cc2ccc(OCc3ccc4c(c3)C(N3CCC(NC(=O)N5CCCC(n6ccc(-c7ccc(Oc8ccccc8)cc7)n6)C5)CC3)CC4)cc2CN1

> <SMILES>
CNC(C)C(=O)NC(C(=O)N1Cc2cc(OCc3ccc4c(c3)C(N3CCC(NC(=O)N5CCCC(n6nc(-c7ccc(Oc8ccc(F)cc8F)cc7)c(C(N)=O)c6N)C5)CC3)CC4)ccc2CC1C(=O)NC1CCCc2ccccc21)C(C)(C)C

> <Tanimoto ROCS sim>
0.27361372113227844

> <Custom alerts>
1.0

> <Linker Num Aromatic Rings>
1.0

> <Linker Effective Length>
1.0

> <ADV>
0.9961246252059937

> <PostDock Tanimoto ROCS sim>
0.9881633520126343

> <raw_Linker Num Aromatic Rings>
1.0

> <raw_Linker Effective Length>
9.0

> <raw_ADV>
-14.640000343322754

> <total_score>
0.9960720539093018

> <ID>
default_job_184

> <PostDock Tanimoto ROCS sim (re-score)>
0.9807696

> <raw_ADV (re-score)>
-14.587

$$$$
default_job_185
     RDKit          3D

 93102  0  0  1  0  0  0  0  0999 V2000
  -28.9900  -19.2630   20.1560 C   0  0  0  0  0  3  0  0  0  0  0  0
  -29.2750  -20.5810   20.5880 C   0  0  0  0  0  0  0  0  0  0  0  0
  -30.4290  -20.8240   21.3040 C   0  0  0  0  0  0  0  0  0  0  0  0
  -29.9170  -18.2310   20.4790 C   0  0  0  0  0  0  0  0  0  0  0  0
  -31.3050  -19.7580   21.6010 C   0  0  0  0  0  0  0  0  0  0  0  0
  -28.5310  -21.8850   20.3330 C   0  0  0  0  0  2  0  0  0  0  0  0
  -30.5530  -22.3040   21.6140 C   0  0  0  0  0  2  0  0  0  0  0  0
  -32.6300  -19.9740   22.3020 C   0  0  0  0  0  1  0  0  0  0  0  0
  -31.0410  -18.4850   21.1980 N   0  0  0  0  0  0  0  0  0  0  0  0
  -29.2610  -22.9130   21.1530 N   0  0  1  0  0  4  0  0  0  0  0  0
  -28.7160  -22.9970   21.9990 H   0  0  0  0  0  0  0  0  0  0  0  0
  -29.8020  -16.8320   19.8430 C   0  0  0  0  0  2  0  0  0  0  0  0
  -30.6340  -14.5600   20.4190 C   0  0  0  0  0  0  0  0  0  0  0  0
  -30.3620  -12.3690   19.3230 C   0  0  0  0  0  2  0  0  0  0  0  0
  -29.4280  -12.5810   18.1130 C   0  0  0  0  0  2  0  0  0  0  0  0
  -27.9510  -12.4500   18.5320 C   0  0  0  0  0  2  0  0  0  0  0  0
  -27.6110  -13.2790   19.8000 C   0  0  0  0  0  3  0  0  0  0  0  0
  -28.6630  -13.0630   20.9140 C   0  0  0  0  0  2  0  0  0  0  0  0
  -29.9900  -13.3610   20.3510 N   0  0  0  0  0  0  0  0  0  0  0  0
  -31.7790  -14.7150   19.9900 O   0  0  0  0  0  0  0  0  0  0  0  0
  -29.8500  -15.6230   20.6990 N   0  0  0  0  0  0  0  0  0  0  0  0
  -28.9820  -15.4100   21.1660 H   0  0  0  0  0  0  0  0  0  0  0  0
  -25.2100  -13.8940   20.4850 C   0  0  0  0  0  0  0  0  0  0  0  0
  -24.1380  -13.1250   20.8490 C   0  0  0  0  0  0  0  0  0  0  0  0
  -24.5950  -11.7720   20.8260 C   0  0  0  0  0  0  0  0  0  0  0  0
  -26.2540  -13.0080   20.2690 N   0  0  0  0  0  0  0  0  0  0  0  0
  -25.8870  -11.7270   20.5290 N   0  0  0  0  0  0  0  0  0  0  0  0
  -23.8630  -10.5130   21.0160 C   0  0  0  0  0  0  0  0  0  0  0  0
  -24.2810   -9.5520   21.9620 C   0  0  0  0  0  3  0  0  0  0  0  0
  -23.5520   -8.3570   22.1390 C   0  0  0  0  0  3  0  0  0  0  0  0
  -22.3890   -8.1130   21.3710 C   0  0  0  0  0  0  0  0  0  0  0  0
  -21.9880   -9.0640   20.4150 C   0  0  0  0  0  3  0  0  0  0  0  0
  -22.7180  -10.2510   20.2360 C   0  0  0  0  0  3  0  0  0  0  0  0
  -21.6340   -6.9700   21.4580 O   0  0  0  0  0  0  0  0  0  0  0  0
  -21.5660   -6.2380   22.6160 C   0  0  0  0  0  0  0  0  0  0  0  0
  -21.1090   -6.8010   23.8290 C   0  0  0  0  0  3  0  0  0  0  0  0
  -20.9900   -5.9950   24.9790 C   0  0  0  0  0  3  0  0  0  0  0  0
  -21.3160   -4.6270   24.9180 C   0  0  0  0  0  0  0  0  0  0  0  0
  -21.7640   -4.0630   23.7100 C   0  0  0  0  0  3  0  0  0  0  0  0
  -21.8850   -4.8660   22.5620 C   0  0  0  0  0  0  0  0  0  0  0  0
  -22.2980   -4.3150   21.3960 F   0  0  0  0  0  0  0  0  0  0  0  0
  -21.1920   -3.8500   26.0190 F   0  0  0  0  0  0  0  0  0  0  0  0
  -22.7390  -13.6060   21.1060 C   0  0  0  0  0  0  0  0  0  0  0  0
  -22.0020  -12.9110   21.9640 N   0  0  0  0  0  0  0  0  0  0  0  0
  -22.3100  -14.6310   20.5800 O   0  0  0  0  0  0  0  0  0  0  0  0
  -22.3620  -12.0800   22.4090 H   0  0  0  0  0  0  0  0  0  0  0  0
  -21.0600  -13.2140   22.1740 H   0  0  0  0  0  0  0  0  0  0  0  0
  -25.3800  -15.2630   20.3020 N   0  0  0  0  0  0  0  0  0  0  0  0
  -24.6130  -15.9190   20.4000 H   0  0  0  0  0  0  0  0  0  0  0  0
  -26.2250  -15.6990   19.9540 H   0  0  0  0  0  0  0  0  0  0  0  0
  -29.4020  -24.3000   20.5690 C   0  0  0  0  0  2  0  0  0  0  0  0
  -28.1550  -25.2230   20.7290 C   0  0  0  0  0  2  0  0  0  0  0  0
  -28.3580  -26.6070   20.3050 O   0  0  0  0  0  0  0  0  0  0  0  0
  -24.5710  -31.9230   23.2640 C   0  0  0  0  0  0  0  0  0  0  0  0
  -27.2190  -27.3990   20.2590 C   0  0  0  0  0  0  0  0  0  0  0  0
  -23.3780  -30.5000   21.6370 C   0  0  0  0  0  3  0  0  0  0  0  0
  -24.8390  -28.9520   20.2270 C   0  0  0  0  0  0  0  0  0  0  0  0
  -25.9110  -30.8410   21.4600 C   0  0  0  0  0  2  0  0  0  0  0  0
  -25.9980  -29.4650   20.8240 C   0  0  0  0  0  0  0  0  0  0  0  0
  -27.1930  -28.6990   20.8300 C   0  0  0  0  0  3  0  0  0  0  0  0
  -26.0430  -26.9240   19.6350 C   0  0  0  0  0  3  0  0  0  0  0  0
  -24.8600  -27.6860   19.6240 C   0  0  0  0  0  3  0  0  0  0  0  0
  -23.5940  -29.8120   20.2630 C   0  0  0  0  0  2  0  0  0  0  0  0
  -24.6390  -31.0990   22.1800 N   0  0  0  0  0  0  0  0  0  0  0  0
  -23.4800  -32.2290   23.7650 O   0  0  0  0  0  0  0  0  0  0  0  0
  -22.7190  -29.4840   22.5990 C   0  0  0  0  0  0  0  0  0  0  0  0
  -21.3950  -29.3010   22.4640 N   0  0  0  0  0  0  0  0  0  0  0  0
  -23.3960  -28.8650   23.4230 O   0  0  0  0  0  0  0  0  0  0  0  0
  -20.9100  -29.8510   21.7690 H   0  0  0  0  0  0  0  0  0  0  0  0
  -18.0130  -28.1230   22.9610 C   0  0  0  0  0  0  0  0  0  0  0  0
  -20.5720  -28.3670   23.2330 C   0  0  0  0  0  3  0  0  0  0  0  0
  -20.6660  -26.9350   22.6550 C   0  0  0  0  0  2  0  0  0  0  0  0
  -19.5620  -26.6190   21.6420 C   0  0  0  0  0  2  0  0  0  0  0  0
  -18.1810  -26.7730   22.2850 C   0  0  0  0  0  2  0  0  0  0  0  0
  -19.1350  -28.8790   23.3920 C   0  0  0  0  0  0  0  0  0  0  0  0
  -18.9230  -30.1450   23.9800 C   0  0  0  0  0  3  0  0  0  0  0  0
  -17.6200  -30.6520   24.1480 C   0  0  0  0  0  3  0  0  0  0  0  0
  -16.5130  -29.8930   23.7330 C   0  0  0  0  0  3  0  0  0  0  0  0
  -16.7100  -28.6310   23.1450 C   0  0  0  0  0  3  0  0  0  0  0  0
  -25.8520  -32.5480   23.9000 C   0  0  0  0  0  3  0  0  0  0  0  0
  -26.3480  -31.7890   25.1930 C   0  0  1  0  0  0  0  0  0  0  0  0
  -25.2350  -31.5650   26.2440 C   0  0  0  0  0  1  0  0  0  0  0  0
  -26.9380  -30.4080   24.8270 C   0  0  0  0  0  1  0  0  0  0  0  0
  -27.4920  -32.5900   25.8600 C   0  0  0  0  0  1  0  0  0  0  0  0
  -25.5500  -33.9510   24.2090 N   0  0  0  0  0  0  0  0  0  0  0  0
  -25.8940  -34.9880   23.4340 C   0  0  0  0  0  0  0  0  0  0  0  0
  -26.5720  -34.8640   22.4110 O   0  0  0  0  0  0  0  0  0  0  0  0
  -24.9480  -34.1220   25.0010 H   0  0  0  0  0  0  0  0  0  0  0  0
  -24.1790  -36.7810   23.0270 C   0  0  0  0  0  1  0  0  0  0  0  0
  -25.4070  -36.3860   23.8640 C   0  0  0  0  0  3  0  0  0  0  0  0
  -27.5360  -37.2670   24.7100 C   0  0  0  0  0  1  0  0  0  0  0  0
  -26.4470  -37.4310   23.7500 N   0  0  0  0  0  0  0  0  0  0  0  0
  -26.0440  -38.3550   23.8840 H   0  0  0  0  0  0  0  0  0  0  0  0
  1  4  2  0
  1  2  1  0
  2  3  2  0
  3  5  1  0
  3  7  1  0
  4  9  1  0
  5  8  1  0
  6  2  1  0
  6 10  1  0
  9  5  2  0
 10  7  1  0
 10 11  1  1
 12  4  1  0
 12 21  1  0
 13 21  1  0
 14 19  1  0
 15 16  1  0
 15 14  1  0
 17 16  1  0
 17 26  1  0
 17 18  1  0
 19 13  1  0
 19 18  1  0
 20 13  2  0
 21 22  1  0
 23 24  2  0
 24 43  1  0
 25 24  1  0
 25 28  1  0
 26 23  1  0
 26 27  1  0
 27 25  2  0
 28 29  1  0
 29 30  2  0
 31 34  1  0
 31 30  1  0
 32 31  2  0
 33 32  1  0
 33 28  2  0
 34 35  1  0
 35 36  1  0
 36 37  2  0
 38 37  1  0
 38 42  1  0
 39 38  2  0
 40 35  2  0
 40 39  1  0
 41 40  1  0
 43 44  1  0
 44 47  1  0
 44 46  1  0
 45 43  2  0
 48 49  1  0
 48 23  1  0
 50 48  1  0
 51 52  1  0
 51 10  1  0
 53 52  1  0
 54 65  2  0
 55 53  1  0
 55 60  1  0
 56 64  1  0
 56 66  1  0
 57 63  1  0
 57 59  1  0
 58 64  1  0
 59 60  2  0
 59 58  1  0
 61 55  2  0
 62 61  1  0
 62 57  2  0
 63 56  1  0
 64 54  1  0
 66 68  2  0
 67 66  1  0
 69 67  1  0
 70 79  2  0
 70 75  1  0
 71 67  1  0
 71 75  1  0
 72 71  1  0
 73 74  1  0
 73 72  1  0
 74 70  1  0
 75 76  2  0
 76 77  1  0
 78 77  2  0
 79 78  1  0
 80 54  1  0
 80 85  1  0
 80 81  1  0
 81 84  1  1
 81 82  1  0
 83 81  1  0
 85 88  1  0
 86 90  1  0
 86 85  1  0
 87 86  2  0
 90 89  1  0
 92 90  1  0
 92 93  1  0
 92 91  1  0
M  ISO  4  13 100  21 100  52 101  53 101
M  END
>  <TORSDO>  (86) 
F 19

>  <SCORE>  (86) 
-14.645

>  <name>  (86) 
85

>  <ligand_id>  (86) 
85

>  <original_smiles>  (86) 
[H]c1c([H])c([H])c2c(c1[H])C([H])([H])C([H])([H])C([H])([H])C2([H])N([H])C(=O)C1([H])N(C(=O)C([H])(N([H])C(=O)C([H])(N([H])C([H])([H])[H])C([H])([H])[H])C(C([H])([H])[H])(C([H])([H])[H])C([H])([H])[H])C([H])([H])c2c([H])c(OC([H])([H])C([H])([H])[N+]3([H])C([H])([H])c4c(C([H])([H])[H])nc(C([H])([H])N([H])C(=O)N5C([H])([H])C([H])([H])C([H])([H])C([H])(n6nc(-c7c([H])c([H])c(Oc8c([H])c([H])c(F)c([H])c8F)c([H])c7[H])c(C(=O)N([H])[H])c6N([H])[H])C5([H])[H])c([H])c4C3([H])[H])c([H])c([H])c2C1([H])[H]

>  <smiles>  (86) 
[H]c1c([H])c([H])c2c(c1[H])C([H])([H])C([H])([H])C([H])([H])C2([H])N([H])C(=O)C1([H])N(C(=O)C([H])(N([H])C(=O)C([H])(N([H])C([H])([H])[H])C([H])([H])[H])C(C([H])([H])[H])(C([H])([H])[H])C([H])([H])[H])C([H])([H])c2c([H])c(OC([H])([H])C([H])([H])[N+]3([H])C([H])([H])c4c(C([H])([H])[H])nc(C([H])([H])N([H])C(=O)N5C([H])([H])C([H])([H])C([H])([H])C([H])(n6nc(-c7c([H])c([H])c(Oc8c([H])c([H])c(F)c([H])c8F)c([H])c7[H])c(C(=O)N([H])[H])c6N([H])[H])C5([H])[H])c([H])c4C3([H])[H])c([H])c([H])c2C1([H])[H]

> <Step>
186.0

> <Scaffold>
O=C(NC1CCCc2ccccc21)C1Cc2ccc(OCCN3Cc4cnc(CNC(=O)N5CCCC(n6ccc(-c7ccc(Oc8ccccc8)cc7)n6)C5)cc4C3)cc2CN1

> <SMILES>
CNC(C)C(=O)NC(C(=O)N1Cc2cc(OCCN3Cc4cc(CNC(=O)N5CCCC(n6nc(-c7ccc(Oc8ccc(F)cc8F)cc7)c(C(N)=O)c6N)C5)nc(C)c4C3)ccc2CC1C(=O)NC1CCCc2ccccc21)C(C)(C)C

> <Tanimoto ROCS sim>
0.21417827904224396

> <Custom alerts>
1.0

> <Linker Num Aromatic Rings>
1.0

> <Linker Effective Length>
1.0

> <ADV>
0.9961246252059937

> <PostDock Tanimoto ROCS sim>
0.9881433844566345

> <raw_Linker Num Aromatic Rings>
1.0

> <raw_Linker Effective Length>
8.0

> <raw_ADV>
-14.640000343322754

> <total_score>
0.9960670471191406

> <ID>
default_job_185

> <PostDock Tanimoto ROCS sim (re-score)>
0.97789603

> <raw_ADV (re-score)>
-14.645

$$$$
default_job_186
     RDKit          3D

 91 99  0  0  1  0  0  0  0  0999 V2000
  -28.2150  -23.0590   20.1220 C   0  0  0  0  0  2  0  0  0  0  0  0
  -30.4370  -23.6550   19.5990 C   0  0  0  0  0  2  0  0  0  0  0  0
  -29.1240  -24.2940   20.0900 C   0  0  0  0  0  3  0  0  0  0  0  0
  -29.1720  -21.9360   20.5780 C   0  0  0  0  0  3  0  0  0  0  0  0
  -30.3510  -22.2420   19.8350 O   0  0  0  0  0  0  0  0  0  0  0  0
  -28.6240  -25.5290   19.2730 C   0  0  0  0  0  2  0  0  0  0  0  0
  -28.4180  -26.6950   20.1090 O   0  0  0  0  0  0  0  0  0  0  0  0
  -24.6000  -31.8840   23.2330 C   0  0  0  0  0  0  0  0  0  0  0  0
  -27.2230  -27.4020   20.1100 C   0  0  0  0  0  0  0  0  0  0  0  0
  -23.3930  -30.4750   21.6090 C   0  0  0  0  0  3  0  0  0  0  0  0
  -24.8320  -28.9340   20.1760 C   0  0  0  0  0  0  0  0  0  0  0  0
  -25.9300  -30.8090   21.4110 C   0  0  0  0  0  2  0  0  0  0  0  0
  -26.0000  -29.4440   20.7530 C   0  0  0  0  0  0  0  0  0  0  0  0
  -27.1970  -28.6860   20.7140 C   0  0  0  0  0  3  0  0  0  0  0  0
  -26.0180  -26.9000   19.5650 C   0  0  0  0  0  3  0  0  0  0  0  0
  -24.8350  -27.6610   19.5860 C   0  0  0  0  0  3  0  0  0  0  0  0
  -23.5960  -29.8020   20.2280 C   0  0  0  0  0  2  0  0  0  0  0  0
  -24.6610  -31.0690   22.1430 N   0  0  0  0  0  0  0  0  0  0  0  0
  -23.5140  -32.1900   23.7460 O   0  0  0  0  0  0  0  0  0  0  0  0
  -22.7440  -29.4530   22.5710 C   0  0  0  0  0  0  0  0  0  0  0  0
  -21.4190  -29.2730   22.4470 N   0  0  0  0  0  0  0  0  0  0  0  0
  -23.4310  -28.8260   23.3820 O   0  0  0  0  0  0  0  0  0  0  0  0
  -20.9310  -29.8290   21.7580 H   0  0  0  0  0  0  0  0  0  0  0  0
  -18.0430  -28.0810   22.9550 C   0  0  0  0  0  0  0  0  0  0  0  0
  -20.6030  -28.3350   23.2170 C   0  0  0  0  0  3  0  0  0  0  0  0
  -20.7010  -26.9070   22.6350 C   0  0  0  0  0  2  0  0  0  0  0  0
  -19.5930  -26.5880   21.6250 C   0  0  0  0  0  2  0  0  0  0  0  0
  -18.2150  -26.7350   22.2740 C   0  0  0  0  0  2  0  0  0  0  0  0
  -19.1650  -28.8400   23.3840 C   0  0  0  0  0  0  0  0  0  0  0  0
  -18.9520  -30.1030   23.9790 C   0  0  0  0  0  3  0  0  0  0  0  0
  -17.6490  -30.6070   24.1510 C   0  0  0  0  0  3  0  0  0  0  0  0
  -16.5410  -29.8460   23.7390 C   0  0  0  0  0  3  0  0  0  0  0  0
  -16.7400  -28.5850   23.1480 C   0  0  0  0  0  3  0  0  0  0  0  0
  -25.8850  -32.5040   23.8600 C   0  0  0  0  0  3  0  0  0  0  0  0
  -25.5820  -33.9040   24.1890 N   0  0  0  0  0  0  0  0  0  0  0  0
  -25.9120  -34.9540   23.4270 C   0  0  0  0  0  0  0  0  0  0  0  0
  -26.5800  -34.8460   22.3950 O   0  0  0  0  0  0  0  0  0  0  0  0
  -24.9860  -34.0580   24.9890 H   0  0  0  0  0  0  0  0  0  0  0  0
  -24.1830  -36.7460   23.0710 C   0  0  0  0  0  1  0  0  0  0  0  0
  -25.4240  -36.3430   23.8820 C   0  0  0  0  0  3  0  0  0  0  0  0
  -27.5660  -37.2270   24.7010 C   0  0  0  0  0  1  0  0  0  0  0  0
  -26.4570  -37.3970   23.7660 N   0  0  0  0  0  0  0  0  0  0  0  0
  -26.0500  -38.3170   23.9200 H   0  0  0  0  0  0  0  0  0  0  0  0
  -26.4020  -31.7340   25.1380 C   0  0  1  0  0  0  0  0  0  0  0  0
  -25.3080  -31.4930   26.2050 C   0  0  0  0  0  1  0  0  0  0  0  0
  -26.9890  -30.3580   24.7490 C   0  0  0  0  0  1  0  0  0  0  0  0
  -27.5560  -32.5310   25.7930 C   0  0  0  0  0  1  0  0  0  0  0  0
  -28.7320  -20.4670   20.2890 C   0  0  0  0  0  2  0  0  0  0  0  0
  -29.6130  -19.4300   20.9200 N   0  0  0  0  0  4  0  0  0  0  0  0
  -29.5000  -19.4990   21.9200 H   0  0  0  0  0  0  0  0  0  0  0  0
  -30.5730  -19.6630   20.7170 H   0  0  0  0  0  0  0  0  0  0  0  0
  -29.3460  -18.0120   20.5140 C   0  0  0  0  0  2  0  0  0  0  0  0
  -30.3050  -16.9540   21.1590 C   0  0  0  0  0  2  0  0  0  0  0  0
  -30.6280  -14.5110   20.4890 C   0  0  0  0  0  0  0  0  0  0  0  0
  -30.3470  -12.3330   19.3500 C   0  0  0  0  0  2  0  0  0  0  0  0
  -29.4050  -12.5210   18.1410 C   0  0  0  0  0  2  0  0  0  0  0  0
  -27.9350  -12.3650   18.5790 C   0  0  0  0  0  2  0  0  0  0  0  0
  -27.5920  -13.2220   19.8260 C   0  0  0  0  0  3  0  0  0  0  0  0
  -28.6450  -13.0140   20.9370 C   0  0  0  0  0  2  0  0  0  0  0  0
  -29.9650  -13.3250   20.3670 N   0  0  0  0  0  0  0  0  0  0  0  0
  -31.7690  -14.6880   20.0570 O   0  0  0  0  0  0  0  0  0  0  0  0
  -29.8910  -15.5400   20.9650 N   0  0  0  0  0  0  0  0  0  0  0  0
  -28.9530  -15.3010   21.2490 H   0  0  0  0  0  0  0  0  0  0  0  0
  -25.1930  -13.8340   20.5240 C   0  0  0  0  0  0  0  0  0  0  0  0
  -24.1250  -13.0650   20.8970 C   0  0  0  0  0  0  0  0  0  0  0  0
  -24.5870  -11.7130   20.8770 C   0  0  0  0  0  0  0  0  0  0  0  0
  -26.2380  -12.9520   20.3040 N   0  0  0  0  0  0  0  0  0  0  0  0
  -25.8760  -11.6720   20.5740 N   0  0  0  0  0  0  0  0  0  0  0  0
  -23.8620  -10.4510   21.0700 C   0  0  0  0  0  0  0  0  0  0  0  0
  -24.3030   -9.4850   22.0010 C   0  0  0  0  0  3  0  0  0  0  0  0
  -23.5820   -8.2860   22.1820 C   0  0  0  0  0  3  0  0  0  0  0  0
  -22.4030   -8.0450   21.4340 C   0  0  0  0  0  0  0  0  0  0  0  0
  -21.9830   -9.0010   20.4940 C   0  0  0  0  0  3  0  0  0  0  0  0
  -22.7040  -10.1910   20.3100 C   0  0  0  0  0  3  0  0  0  0  0  0
  -21.6520   -6.8990   21.5270 O   0  0  0  0  0  0  0  0  0  0  0  0
  -21.6220   -6.1500   22.6750 C   0  0  0  0  0  0  0  0  0  0  0  0
  -21.2200   -6.6960   23.9140 C   0  0  0  0  0  3  0  0  0  0  0  0
  -21.1390   -5.8730   25.0550 C   0  0  0  0  0  3  0  0  0  0  0  0
  -21.4450   -4.5020   24.9570 C   0  0  0  0  0  0  0  0  0  0  0  0
  -21.8400   -3.9540   23.7240 C   0  0  0  0  0  3  0  0  0  0  0  0
  -21.9250   -4.7760   22.5850 C   0  0  0  0  0  0  0  0  0  0  0  0
  -22.2850   -4.2390   21.3950 F   0  0  0  0  0  0  0  0  0  0  0  0
  -21.3600   -3.7100   26.0500 F   0  0  0  0  0  0  0  0  0  0  0  0
  -22.7250  -13.5400   21.1640 C   0  0  0  0  0  0  0  0  0  0  0  0
  -21.9980  -12.8470   22.0310 N   0  0  0  0  0  0  0  0  0  0  0  0
  -22.2890  -14.5640   20.6390 O   0  0  0  0  0  0  0  0  0  0  0  0
  -22.3660  -12.0170   22.4720 H   0  0  0  0  0  0  0  0  0  0  0  0
  -21.0590  -13.1460   22.2540 H   0  0  0  0  0  0  0  0  0  0  0  0
  -25.3600  -15.2030   20.3310 N   0  0  0  0  0  0  0  0  0  0  0  0
  -24.5890  -15.8570   20.3950 H   0  0  0  0  0  0  0  0  0  0  0  0
  -26.2010  -15.6200   19.9510 H   0  0  0  0  0  0  0  0  0  0  0  0
  1  4  1  0
  2  5  1  0
  2  3  1  0
  3  6  1  0
  3  1  1  0
  4 48  1  0
  5  4  1  0
  6  7  1  0
  7  9  1  0
  8 19  2  0
  9 14  1  0
 10 18  1  0
 10 20  1  0
 11 17  1  0
 11 13  1  0
 12 18  1  0
 13 12  1  0
 14 13  2  0
 15 16  1  0
 15  9  2  0
 16 11  2  0
 17 10  1  0
 18  8  1  0
 20 22  2  0
 21 20  1  0
 23 21  1  0
 24 33  2  0
 24 29  1  0
 25 21  1  0
 25 29  1  0
 26 25  1  0
 27 28  1  0
 27 26  1  0
 28 24  1  0
 29 30  2  0
 30 31  1  0
 32 31  2  0
 33 32  1  0
 34  8  1  0
 34 35  1  0
 34 44  1  0
 35 38  1  0
 36 40  1  0
 36 35  1  0
 37 36  2  0
 40 39  1  0
 42 40  1  0
 42 43  1  0
 42 41  1  0
 44 47  1  1
 44 45  1  0
 46 44  1  0
 48 49  1  0
 49 50  1  0
 51 49  1  0
 52 49  1  0
 52 53  1  0
 54 62  1  0
 55 60  1  0
 56 57  1  0
 56 55  1  0
 58 57  1  0
 58 67  1  0
 58 59  1  0
 60 54  1  0
 60 59  1  0
 61 54  2  0
 62 53  1  0
 62 63  1  0
 64 65  2  0
 65 84  1  0
 66 65  1  0
 66 69  1  0
 67 64  1  0
 67 68  1  0
 68 66  2  0
 69 70  1  0
 70 71  2  0
 72 75  1  0
 72 71  1  0
 73 72  2  0
 74 73  1  0
 74 69  2  0
 75 76  1  0
 76 77  1  0
 77 78  2  0
 79 78  1  0
 79 83  1  0
 80 79  2  0
 81 76  2  0
 81 80  1  0
 82 81  1  0
 84 85  1  0
 85 88  1  0
 85 87  1  0
 86 84  2  0
 89 90  1  0
 89 64  1  0
 91 89  1  0
M  ISO  4   6 101   7 101  54 100  62 100
M  END
>  <TORSDO>  (87) 
F 21

>  <SCORE>  (87) 
-13.535

>  <name>  (87) 
86

>  <ligand_id>  (87) 
86

>  <original_smiles>  (87) 
[H]c1c([H])c([H])c2c(c1[H])C([H])([H])C([H])([H])C([H])([H])C2([H])N([H])C(=O)C1([H])N(C(=O)C([H])(N([H])C(=O)C([H])(N([H])C([H])([H])[H])C([H])([H])[H])C(C([H])([H])[H])(C([H])([H])[H])C([H])([H])[H])C([H])([H])c2c([H])c(OC([H])([H])C3([H])C([H])([H])OC([H])(C([H])([H])[N+]([H])([H])C([H])([H])C([H])([H])N([H])C(=O)N4C([H])([H])C([H])([H])C([H])([H])C([H])(n5nc(-c6c([H])c([H])c(Oc7c([H])c([H])c(F)c([H])c7F)c([H])c6[H])c(C(=O)N([H])[H])c5N([H])[H])C4([H])[H])C3([H])[H])c([H])c([H])c2C1([H])[H]

>  <smiles>  (87) 
[H]c1c([H])c([H])c2c(c1[H])C([H])([H])C([H])([H])C([H])([H])C2([H])N([H])C(=O)C1([H])N(C(=O)C([H])(N([H])C(=O)C([H])(N([H])C([H])([H])[H])C([H])([H])[H])C(C([H])([H])[H])(C([H])([H])[H])C([H])([H])[H])C([H])([H])c2c([H])c(OC([H])([H])C3([H])C([H])([H])OC([H])(C([H])([H])[N+]([H])([H])C([H])([H])C([H])([H])N([H])C(=O)N4C([H])([H])C([H])([H])C([H])([H])C([H])(n5nc(-c6c([H])c([H])c(Oc7c([H])c([H])c(F)c([H])c7F)c([H])c6[H])c(C(=O)N([H])[H])c5N([H])[H])C4([H])[H])C3([H])[H])c([H])c([H])c2C1([H])[H]

> <Step>
115.0

> <Scaffold>
O=C(NC1CCCc2ccccc21)C1Cc2ccc(OCC3COC(CNCCNC(=O)N4CCCC(n5ccc(-c6ccc(Oc7ccccc7)cc6)n5)C4)C3)cc2CN1

> <SMILES>
CNC(C)C(=O)NC(C(=O)N1Cc2cc(OCC3COC(CNCCNC(=O)N4CCCC(n5nc(-c6ccc(Oc7ccc(F)cc7F)cc6)c(C(N)=O)c5N)C4)C3)ccc2CC1C(=O)NC1CCCc2ccccc21)C(C)(C)C

> <Tanimoto ROCS sim>
0.3201180696487427

> <Custom alerts>
1.0

> <Linker Num Aromatic Rings>
1.0

> <Linker Effective Length>
1.0

> <ADV>
0.9927747845649719

> <PostDock Tanimoto ROCS sim>
0.9914901256561279

> <raw_Linker Num Aromatic Rings>
0.0

> <raw_Linker Effective Length>
8.0

> <raw_ADV>
-13.552000045776367

> <total_score>
0.9960662126541138

> <ID>
default_job_186

> <PostDock Tanimoto ROCS sim (re-score)>
0.9847845

> <raw_ADV (re-score)>
-13.535

$$$$
default_job_187
     RDKit          3D

 91 99  0  0  1  0  0  0  0  0999 V2000
  -29.3470  -20.5200   20.2480 C   0  0  0  0  0  3  0  0  0  0  0  0
  -29.8950  -21.8080   19.9890 C   0  0  0  0  0  0  0  0  0  0  0  0
  -30.1930  -19.3800   20.1760 C   0  0  0  0  0  0  0  0  0  0  0  0
  -31.2860  -21.8370   19.7030 C   0  0  0  0  0  0  0  0  0  0  0  0
  -32.0320  -23.1070   19.3470 C   0  0  0  0  0  1  0  0  0  0  0  0
  -31.5110  -19.5100   19.8940 N   0  0  0  0  0  0  0  0  0  0  0  0
  -32.0480  -20.7140   19.6870 N   0  0  0  0  0  0  0  0  0  0  0  0
  -28.9760  -23.0490   19.9030 C   0  0  0  0  0  2  0  0  0  0  0  0
  -29.3510  -24.3200   20.7300 C   0  0  0  0  0  2  0  0  0  0  0  0
  -28.1940  -25.3520   20.8970 C   0  0  0  0  0  2  0  0  0  0  0  0
  -28.3780  -26.6240   20.2330 O   0  0  0  0  0  0  0  0  0  0  0  0
  -24.5950  -31.8900   23.2470 C   0  0  0  0  0  0  0  0  0  0  0  0
  -27.2380  -27.4080   20.2030 C   0  0  0  0  0  0  0  0  0  0  0  0
  -23.3930  -30.4760   21.6160 C   0  0  0  0  0  3  0  0  0  0  0  0
  -24.8500  -28.9350   20.1940 C   0  0  0  0  0  0  0  0  0  0  0  0
  -25.9230  -30.8250   21.4250 C   0  0  0  0  0  2  0  0  0  0  0  0
  -26.0100  -29.4530   20.7860 C   0  0  0  0  0  0  0  0  0  0  0  0
  -27.2090  -28.6990   20.7840 C   0  0  0  0  0  3  0  0  0  0  0  0
  -26.0650  -26.9170   19.5890 C   0  0  0  0  0  3  0  0  0  0  0  0
  -24.8740  -27.6670   19.5890 C   0  0  0  0  0  3  0  0  0  0  0  0
  -23.6060  -29.7940   20.2380 C   0  0  0  0  0  2  0  0  0  0  0  0
  -24.6560  -31.0760   22.1570 N   0  0  0  0  0  0  0  0  0  0  0  0
  -23.5080  -32.1890   23.7610 O   0  0  0  0  0  0  0  0  0  0  0  0
  -22.7380  -29.4570   22.5780 C   0  0  0  0  0  0  0  0  0  0  0  0
  -21.4150  -29.2700   22.4460 N   0  0  0  0  0  0  0  0  0  0  0  0
  -23.4200  -28.8370   23.3990 O   0  0  0  0  0  0  0  0  0  0  0  0
  -20.9270  -29.8210   21.7540 H   0  0  0  0  0  0  0  0  0  0  0  0
  -18.0430  -28.0630   22.9300 C   0  0  0  0  0  0  0  0  0  0  0  0
  -20.5970  -28.3330   23.2170 C   0  0  0  0  0  3  0  0  0  0  0  0
  -20.7090  -26.8990   22.6480 C   0  0  0  0  0  2  0  0  0  0  0  0
  -19.6150  -26.5680   21.6290 C   0  0  0  0  0  2  0  0  0  0  0  0
  -18.2290  -26.7110   22.2620 C   0  0  0  0  0  2  0  0  0  0  0  0
  -19.1560  -28.8310   23.3630 C   0  0  0  0  0  0  0  0  0  0  0  0
  -18.9280  -30.0970   23.9470 C   0  0  0  0  0  3  0  0  0  0  0  0
  -17.6210  -30.5950   24.1000 C   0  0  0  0  0  3  0  0  0  0  0  0
  -16.5220  -29.8240   23.6830 C   0  0  0  0  0  3  0  0  0  0  0  0
  -16.7330  -28.5610   23.1030 C   0  0  0  0  0  3  0  0  0  0  0  0
  -25.8810  -32.5130   23.8770 C   0  0  0  0  0  3  0  0  0  0  0  0
  -25.5760  -33.9100   24.2110 N   0  0  0  0  0  0  0  0  0  0  0  0
  -25.9060  -34.9600   23.4480 C   0  0  0  0  0  0  0  0  0  0  0  0
  -26.5730  -34.8550   22.4150 O   0  0  0  0  0  0  0  0  0  0  0  0
  -24.9850  -34.0660   25.0140 H   0  0  0  0  0  0  0  0  0  0  0  0
  -24.1750  -36.7480   23.0940 C   0  0  0  0  0  1  0  0  0  0  0  0
  -25.4180  -36.3480   23.9040 C   0  0  0  0  0  3  0  0  0  0  0  0
  -27.5530  -37.2340   24.7280 C   0  0  0  0  0  1  0  0  0  0  0  0
  -26.4490  -37.4010   23.7880 N   0  0  0  0  0  0  0  0  0  0  0  0
  -26.0430  -38.3220   23.9350 H   0  0  0  0  0  0  0  0  0  0  0  0
  -26.3970  -31.7370   25.1510 C   0  0  1  0  0  0  0  0  0  0  0  0
  -25.3030  -31.4970   26.2170 C   0  0  0  0  0  1  0  0  0  0  0  0
  -26.9800  -30.3610   24.7550 C   0  0  0  0  0  1  0  0  0  0  0  0
  -27.5500  -32.5270   25.8160 C   0  0  0  0  0  1  0  0  0  0  0  0
  -29.6530  -17.9360   20.2210 C   0  0  0  0  0  2  0  0  0  0  0  0
  -30.4150  -16.9470   21.1550 C   0  0  0  0  0  2  0  0  0  0  0  0
  -30.6600  -14.5080   20.5110 C   0  0  0  0  0  0  0  0  0  0  0  0
  -30.3610  -12.3460   19.3520 C   0  0  0  0  0  2  0  0  0  0  0  0
  -29.4160  -12.5490   18.1500 C   0  0  0  0  0  2  0  0  0  0  0  0
  -27.9430  -12.4100   18.5820 C   0  0  0  0  0  2  0  0  0  0  0  0
  -27.6070  -13.2410   19.8490 C   0  0  0  0  0  3  0  0  0  0  0  0
  -28.6650  -13.0220   20.9540 C   0  0  0  0  0  2  0  0  0  0  0  0
  -29.9850  -13.3310   20.3820 N   0  0  0  0  0  0  0  0  0  0  0  0
  -31.7880  -14.6790   20.0440 O   0  0  0  0  0  0  0  0  0  0  0  0
  -29.9650  -15.5370   21.0430 N   0  0  0  0  0  0  0  0  0  0  0  0
  -29.0360  -15.3220   21.3740 H   0  0  0  0  0  0  0  0  0  0  0  0
  -25.2080  -13.8440   20.5580 C   0  0  0  0  0  0  0  0  0  0  0  0
  -24.1400  -13.0700   20.9260 C   0  0  0  0  0  0  0  0  0  0  0  0
  -24.6030  -11.7200   20.8950 C   0  0  0  0  0  0  0  0  0  0  0  0
  -26.2540  -12.9640   20.3280 N   0  0  0  0  0  0  0  0  0  0  0  0
  -25.8940  -11.6810   20.5880 N   0  0  0  0  0  0  0  0  0  0  0  0
  -23.8760  -10.4560   21.0830 C   0  0  0  0  0  0  0  0  0  0  0  0
  -24.3190   -9.4800   22.0040 C   0  0  0  0  0  3  0  0  0  0  0  0
  -23.5930   -8.2830   22.1810 C   0  0  0  0  0  3  0  0  0  0  0  0
  -22.4110   -8.0520   21.4370 C   0  0  0  0  0  0  0  0  0  0  0  0
  -21.9890   -9.0160   20.5060 C   0  0  0  0  0  3  0  0  0  0  0  0
  -22.7150  -10.2060   20.3260 C   0  0  0  0  0  3  0  0  0  0  0  0
  -21.6560   -6.9080   21.5240 O   0  0  0  0  0  0  0  0  0  0  0  0
  -21.6300   -6.1470   22.6660 C   0  0  0  0  0  0  0  0  0  0  0  0
  -21.2390   -6.6880   23.9110 C   0  0  0  0  0  3  0  0  0  0  0  0
  -21.1590   -5.8550   25.0450 C   0  0  0  0  0  3  0  0  0  0  0  0
  -21.4600   -4.4830   24.9350 C   0  0  0  0  0  0  0  0  0  0  0  0
  -21.8440   -3.9430   23.6950 C   0  0  0  0  0  3  0  0  0  0  0  0
  -21.9260   -4.7730   22.5630 C   0  0  0  0  0  0  0  0  0  0  0  0
  -22.2760   -4.2440   21.3670 F   0  0  0  0  0  0  0  0  0  0  0  0
  -21.3760   -3.6820   26.0220 F   0  0  0  0  0  0  0  0  0  0  0  0
  -22.7420  -13.5460   21.1990 C   0  0  0  0  0  0  0  0  0  0  0  0
  -22.0150  -12.8470   22.0640 N   0  0  0  0  0  0  0  0  0  0  0  0
  -22.3040  -14.5740   20.6830 O   0  0  0  0  0  0  0  0  0  0  0  0
  -22.3820  -12.0170   22.5040 H   0  0  0  0  0  0  0  0  0  0  0  0
  -21.0780  -13.1490   22.2920 H   0  0  0  0  0  0  0  0  0  0  0  0
  -25.3700  -15.2140   20.3810 N   0  0  0  0  0  0  0  0  0  0  0  0
  -24.5990  -15.8650   20.4870 H   0  0  0  0  0  0  0  0  0  0  0  0
  -26.2160  -15.6550   20.0440 H   0  0  0  0  0  0  0  0  0  0  0  0
  2  1  2  0
  3 52  1  0
  3  1  1  0
  4  2  1  0
  5  4  1  0
  6  3  2  0
  7  4  2  0
  7  6  1  0
  8  2  1  0
  8  9  1  0
  9 10  1  0
 11 10  1  0
 12 23  2  0
 13 11  1  0
 13 18  1  0
 14 22  1  0
 14 24  1  0
 15 21  1  0
 15 17  1  0
 16 22  1  0
 17 16  1  0
 18 17  2  0
 19 13  2  0
 20 19  1  0
 20 15  2  0
 21 14  1  0
 22 12  1  0
 24 26  2  0
 25 24  1  0
 27 25  1  0
 28 37  2  0
 28 33  1  0
 29 25  1  0
 29 33  1  0
 30 29  1  0
 31 32  1  0
 31 30  1  0
 32 28  1  0
 33 34  2  0
 34 35  1  0
 36 35  2  0
 37 36  1  0
 38 12  1  0
 38 39  1  0
 38 48  1  0
 39 42  1  0
 40 44  1  0
 40 39  1  0
 41 40  2  0
 44 43  1  0
 46 44  1  0
 46 47  1  0
 46 45  1  0
 48 51  1  1
 48 49  1  0
 50 48  1  0
 52 53  1  0
 54 62  1  0
 55 60  1  0
 56 57  1  0
 56 55  1  0
 58 57  1  0
 58 67  1  0
 58 59  1  0
 60 54  1  0
 60 59  1  0
 61 54  2  0
 62 53  1  0
 62 63  1  0
 64 65  2  0
 65 84  1  0
 66 65  1  0
 66 69  1  0
 67 64  1  0
 67 68  1  0
 68 66  2  0
 69 70  1  0
 70 71  2  0
 72 75  1  0
 72 71  1  0
 73 72  2  0
 74 73  1  0
 74 69  2  0
 75 76  1  0
 76 77  1  0
 77 78  2  0
 79 78  1  0
 79 83  1  0
 80 79  2  0
 81 76  2  0
 81 80  1  0
 82 81  1  0
 84 85  1  0
 85 88  1  0
 85 87  1  0
 86 84  2  0
 89 90  1  0
 89 64  1  0
 91 89  1  0
M  ISO  4  10 101  11 101  54 100  62 100
M  END
>  <TORSDO>  (88) 
F 21

>  <SCORE>  (88) 
-13.545

>  <name>  (88) 
87

>  <ligand_id>  (88) 
87

>  <original_smiles>  (88) 
[H]c1c([H])c([H])c2c(c1[H])C([H])([H])C([H])([H])C([H])([H])C2([H])N([H])C(=O)C1([H])N(C(=O)C([H])(N([H])C(=O)C([H])(N([H])C([H])([H])[H])C([H])([H])[H])C(C([H])([H])[H])(C([H])([H])[H])C([H])([H])[H])C([H])([H])c2c([H])c(OC([H])([H])C([H])([H])C([H])([H])c3c(C([H])([H])[H])nnc(C([H])([H])C([H])([H])N([H])C(=O)N4C([H])([H])C([H])([H])C([H])([H])C([H])(n5nc(-c6c([H])c([H])c(Oc7c([H])c([H])c(F)c([H])c7F)c([H])c6[H])c(C(=O)N([H])[H])c5N([H])[H])C4([H])[H])c3[H])c([H])c([H])c2C1([H])[H]

>  <smiles>  (88) 
[H]c1c([H])c([H])c2c(c1[H])C([H])([H])C([H])([H])C([H])([H])C2([H])N([H])C(=O)C1([H])N(C(=O)C([H])(N([H])C(=O)C([H])(N([H])C([H])([H])[H])C([H])([H])[H])C(C([H])([H])[H])(C([H])([H])[H])C([H])([H])[H])C([H])([H])c2c([H])c(OC([H])([H])C([H])([H])C([H])([H])c3c(C([H])([H])[H])nnc(C([H])([H])C([H])([H])N([H])C(=O)N4C([H])([H])C([H])([H])C([H])([H])C([H])(n5nc(-c6c([H])c([H])c(Oc7c([H])c([H])c(F)c([H])c7F)c([H])c6[H])c(C(=O)N([H])[H])c5N([H])[H])C4([H])[H])c3[H])c([H])c([H])c2C1([H])[H]

> <Step>
86.0

> <Scaffold>
O=C(NC1CCCc2ccccc21)C1Cc2ccc(OCCCc3cnnc(CCNC(=O)N4CCCC(n5ccc(-c6ccc(Oc7ccccc7)cc6)n5)C4)c3)cc2CN1

> <SMILES>
CNC(C)C(=O)NC(C(=O)N1Cc2cc(OCCCc3cc(CCNC(=O)N4CCCC(n5nc(-c6ccc(Oc7ccc(F)cc7F)cc6)c(C(N)=O)c5N)C4)nnc3C)ccc2CC1C(=O)NC1CCCc2ccccc21)C(C)(C)C

> <Tanimoto ROCS sim>
0.22021576762199402

> <Custom alerts>
1.0

> <Linker Num Aromatic Rings>
1.0

> <Linker Effective Length>
1.0

> <ADV>
0.9928159713745117

> <PostDock Tanimoto ROCS sim>
0.9914394617080688

> <raw_Linker Num Aromatic Rings>
1.0

> <raw_Linker Effective Length>
8.0

> <raw_ADV>
-13.562000274658203

> <total_score>
0.9960638284683228

> <ID>
default_job_187

> <PostDock Tanimoto ROCS sim (re-score)>
0.9857341

> <raw_ADV (re-score)>
-13.545

$$$$
default_job_188
     RDKit          3D

 92100  0  0  1  0  0  0  0  0999 V2000
  -31.0200  -17.9060   20.7880 C   0  0  0  0  0  3  0  0  0  0  0  0
  -30.9940  -19.3220   20.5910 C   0  0  0  0  0  0  0  0  0  0  0  0
  -29.8060  -19.9960   20.1660 C   0  0  0  0  0  0  0  0  0  0  0  0
  -29.8680  -17.1040   20.5880 C   0  0  0  0  0  0  0  0  0  0  0  0
  -28.6550  -19.1880   19.9880 C   0  0  0  0  0  0  0  0  0  0  0  0
  -28.6850  -17.7830   20.2050 C   0  0  0  0  0  0  0  0  0  0  0  0
  -32.2770  -20.1010   20.8250 C   0  0  0  0  0  1  0  0  0  0  0  0
  -27.5010  -19.7630   19.5690 F   0  0  0  0  0  0  0  0  0  0  0  0
  -27.5540  -17.0630   20.0130 F   0  0  0  0  0  0  0  0  0  0  0  0
  -30.6020  -14.6400   20.4470 C   0  0  0  0  0  0  0  0  0  0  0  0
  -30.3690  -12.4320   19.3380 C   0  0  0  0  0  2  0  0  0  0  0  0
  -29.4130  -12.6030   18.1360 C   0  0  0  0  0  2  0  0  0  0  0  0
  -27.9420  -12.4510   18.5730 C   0  0  0  0  0  2  0  0  0  0  0  0
  -27.6020  -13.2900   19.8330 C   0  0  0  0  0  3  0  0  0  0  0  0
  -28.6680  -13.0870   20.9350 C   0  0  0  0  0  2  0  0  0  0  0  0
  -29.9800  -13.4240   20.3580 N   0  0  0  0  0  0  0  0  0  0  0  0
  -31.7600  -14.8120   20.0550 O   0  0  0  0  0  0  0  0  0  0  0  0
  -29.7940  -15.6700   20.8280 N   0  0  0  0  0  0  0  0  0  0  0  0
  -28.8680  -15.3500   21.0690 H   0  0  0  0  0  0  0  0  0  0  0  0
  -25.2110  -13.8990   20.5610 C   0  0  0  0  0  0  0  0  0  0  0  0
  -24.1410  -13.1300   20.9300 C   0  0  0  0  0  0  0  0  0  0  0  0
  -24.5970  -11.7770   20.8890 C   0  0  0  0  0  0  0  0  0  0  0  0
  -26.2520  -13.0160   20.3190 N   0  0  0  0  0  0  0  0  0  0  0  0
  -25.8870  -11.7340   20.5770 N   0  0  0  0  0  0  0  0  0  0  0  0
  -23.8650  -10.5190   21.0750 C   0  0  0  0  0  0  0  0  0  0  0  0
  -24.2940   -9.5450   22.0030 C   0  0  0  0  0  3  0  0  0  0  0  0
  -23.5630   -8.3500   22.1770 C   0  0  0  0  0  3  0  0  0  0  0  0
  -22.3880   -8.1220   21.4220 C   0  0  0  0  0  0  0  0  0  0  0  0
  -21.9770   -9.0850   20.4830 C   0  0  0  0  0  3  0  0  0  0  0  0
  -22.7090  -10.2710   20.3080 C   0  0  0  0  0  3  0  0  0  0  0  0
  -21.6270   -6.9810   21.5060 O   0  0  0  0  0  0  0  0  0  0  0  0
  -21.5770   -6.2330   22.6550 C   0  0  0  0  0  0  0  0  0  0  0  0
  -21.1440   -6.7800   23.8820 C   0  0  0  0  0  3  0  0  0  0  0  0
  -21.0400   -5.9580   25.0220 C   0  0  0  0  0  3  0  0  0  0  0  0
  -21.3600   -4.5900   24.9360 C   0  0  0  0  0  0  0  0  0  0  0  0
  -21.7860   -4.0420   23.7130 C   0  0  0  0  0  3  0  0  0  0  0  0
  -21.8910   -4.8610   22.5750 C   0  0  0  0  0  0  0  0  0  0  0  0
  -22.2820   -4.3240   21.3940 F   0  0  0  0  0  0  0  0  0  0  0  0
  -21.2530   -3.7990   26.0280 F   0  0  0  0  0  0  0  0  0  0  0  0
  -22.7480  -13.6150   21.2090 C   0  0  0  0  0  0  0  0  0  0  0  0
  -22.0150  -12.9110   22.0650 N   0  0  0  0  0  0  0  0  0  0  0  0
  -22.3170  -14.6500   20.7030 O   0  0  0  0  0  0  0  0  0  0  0  0
  -22.3760  -12.0730   22.4950 H   0  0  0  0  0  0  0  0  0  0  0  0
  -21.0800  -13.2160   22.2940 H   0  0  0  0  0  0  0  0  0  0  0  0
  -25.3730  -15.2700   20.3940 N   0  0  0  0  0  0  0  0  0  0  0  0
  -24.6030  -15.9170   20.5210 H   0  0  0  0  0  0  0  0  0  0  0  0
  -26.2220  -15.7310   20.0850 H   0  0  0  0  0  0  0  0  0  0  0  0
  -29.7850  -21.5090   19.7400 C   0  0  0  0  0  3  0  0  0  0  0  0
  -29.0200  -22.5920   20.5970 C   0  0  0  0  0  3  0  0  0  0  0  0
  -29.0970  -24.0820   20.0430 C   0  0  0  0  0  3  0  0  0  0  0  0
  -28.2790  -25.2000   20.8010 C   0  0  0  0  0  3  0  0  0  0  0  0
  -28.4320  -26.5870   20.3330 O   0  0  0  0  0  0  0  0  0  0  0  0
  -24.5970  -31.9260   23.2770 C   0  0  0  0  0  0  0  0  0  0  0  0
  -27.2900  -27.3880   20.3050 C   0  0  0  0  0  0  0  0  0  0  0  0
  -23.4250  -30.5010   21.6380 C   0  0  0  0  0  3  0  0  0  0  0  0
  -24.9060  -28.9480   20.2490 C   0  0  0  0  0  0  0  0  0  0  0  0
  -25.9620  -30.8420   21.4880 C   0  0  0  0  0  2  0  0  0  0  0  0
  -26.0600  -29.4630   20.8550 C   0  0  0  0  0  0  0  0  0  0  0  0
  -27.2570  -28.6940   20.8710 C   0  0  0  0  0  3  0  0  0  0  0  0
  -26.1190  -26.9130   19.6770 C   0  0  0  0  0  3  0  0  0  0  0  0
  -24.9350  -27.6770   19.6520 C   0  0  0  0  0  3  0  0  0  0  0  0
  -23.6610  -29.8100   20.2680 C   0  0  0  0  0  2  0  0  0  0  0  0
  -24.6800  -31.1030   22.1940 N   0  0  0  0  0  0  0  0  0  0  0  0
  -23.5000  -32.2270   23.7690 O   0  0  0  0  0  0  0  0  0  0  0  0
  -22.7550  -29.4870   22.5970 C   0  0  0  0  0  0  0  0  0  0  0  0
  -21.4330  -29.3020   22.4520 N   0  0  0  0  0  0  0  0  0  0  0  0
  -23.4250  -28.8710   23.4290 O   0  0  0  0  0  0  0  0  0  0  0  0
  -20.9520  -29.8520   21.7520 H   0  0  0  0  0  0  0  0  0  0  0  0
  -18.0500  -28.1150   22.9210 C   0  0  0  0  0  0  0  0  0  0  0  0
  -20.6050  -28.3670   23.2150 C   0  0  0  0  0  3  0  0  0  0  0  0
  -20.7080  -26.9340   22.6400 C   0  0  0  0  0  2  0  0  0  0  0  0
  -19.6150  -26.6150   21.6160 C   0  0  0  0  0  2  0  0  0  0  0  0
  -18.2280  -26.7640   22.2470 C   0  0  0  0  0  2  0  0  0  0  0  0
  -19.1660  -28.8730   23.3620 C   0  0  0  0  0  0  0  0  0  0  0  0
  -18.9450  -30.1380   23.9500 C   0  0  0  0  0  3  0  0  0  0  0  0
  -17.6400  -30.6420   24.1050 C   0  0  0  0  0  3  0  0  0  0  0  0
  -16.5380  -29.8800   23.6810 C   0  0  0  0  0  3  0  0  0  0  0  0
  -16.7430  -28.6170   23.0950 C   0  0  0  0  0  3  0  0  0  0  0  0
  -25.8690  -32.5580   23.9250 C   0  0  0  0  0  3  0  0  0  0  0  0
  -26.3540  -31.8060   25.2260 C   0  0  1  0  0  0  0  0  0  0  0  0
  -25.2340  -31.5840   26.2690 C   0  0  0  0  0  1  0  0  0  0  0  0
  -26.9470  -30.4230   24.8700 C   0  0  0  0  0  1  0  0  0  0  0  0
  -27.4880  -32.6110   25.9050 C   0  0  0  0  0  1  0  0  0  0  0  0
  -25.5590  -33.9630   24.2280 N   0  0  0  0  0  0  0  0  0  0  0  0
  -25.9050  -35.0010   23.4560 C   0  0  0  0  0  0  0  0  0  0  0  0
  -26.5910  -34.8770   22.4370 O   0  0  0  0  0  0  0  0  0  0  0  0
  -24.9520  -34.1330   25.0170 H   0  0  0  0  0  0  0  0  0  0  0  0
  -24.1870  -36.7900   23.0370 C   0  0  0  0  0  1  0  0  0  0  0  0
  -25.4110  -36.3970   23.8800 C   0  0  0  0  0  3  0  0  0  0  0  0
  -27.5280  -37.2940   24.7410 C   0  0  0  0  0  1  0  0  0  0  0  0
  -26.4490  -37.4460   23.7690 N   0  0  0  0  0  0  0  0  0  0  0  0
  -26.0420  -38.3700   23.8880 H   0  0  0  0  0  0  0  0  0  0  0  0
  2  1  1  0
  2  7  1  0
  3  2  2  0
  4  1  2  0
  4 18  1  0
  5  3  1  0
  5  6  2  0
  6  4  1  0
  8  5  1  0
  9  6  1  0
 10 18  1  0
 11 16  1  0
 12 13  1  0
 12 11  1  0
 14 13  1  0
 14 23  1  0
 14 15  1  0
 16 10  1  0
 16 15  1  0
 17 10  2  0
 18 19  1  0
 20 21  2  0
 21 40  1  0
 22 21  1  0
 22 25  1  0
 23 20  1  0
 23 24  1  0
 24 22  2  0
 25 26  1  0
 26 27  2  0
 28 31  1  0
 28 27  1  0
 29 28  2  0
 30 29  1  0
 30 25  2  0
 31 32  1  0
 32 33  1  0
 33 34  2  0
 35 34  1  0
 35 39  1  0
 36 35  2  0
 37 32  2  0
 37 36  1  0
 38 37  1  0
 40 41  1  0
 41 44  1  0
 41 43  1  0
 42 40  2  0
 45 46  1  0
 45 20  1  0
 47 45  1  0
 48  3  1  0
 48 49  2  0
 50 49  1  0
 50 51  2  0
 52 51  1  0
 53 64  2  0
 54 52  1  0
 54 59  1  0
 55 63  1  0
 55 65  1  0
 56 62  1  0
 56 58  1  0
 57 63  1  0
 58 59  2  0
 58 57  1  0
 60 54  2  0
 61 60  1  0
 61 56  2  0
 62 55  1  0
 63 53  1  0
 65 67  2  0
 66 65  1  0
 68 66  1  0
 69 78  2  0
 69 74  1  0
 70 66  1  0
 70 74  1  0
 71 70  1  0
 72 73  1  0
 72 71  1  0
 73 69  1  0
 74 75  2  0
 75 76  1  0
 77 76  2  0
 78 77  1  0
 79 53  1  0
 79 84  1  0
 79 80  1  0
 80 83  1  1
 80 81  1  0
 82 80  1  0
 84 87  1  0
 85 89  1  0
 85 84  1  0
 86 85  2  0
 89 88  1  0
 91 89  1  0
 91 92  1  0
 91 90  1  0
M  ISO  4  10 100  18 100  51 101  52 101
M  END
>  <TORSDO>  (89) 
F 20

>  <SCORE>  (89) 
-14.295

>  <name>  (89) 
88

>  <ligand_id>  (89) 
88

>  <original_smiles>  (89) 
[H]c1c([H])c([H])c2c(c1[H])C([H])([H])C([H])([H])C([H])([H])C2([H])N([H])C(=O)C1([H])N(C(=O)C([H])(N([H])C(=O)C([H])(N([H])C([H])([H])[H])C([H])([H])[H])C(C([H])([H])[H])(C([H])([H])[H])C([H])([H])[H])C([H])([H])c2c([H])c(OC([H])([H])C([H])([H])C([H])([H])C([H])([H])c3c(F)c(F)c(N([H])C(=O)N4C([H])([H])C([H])([H])C([H])([H])C([H])(n5nc(-c6c([H])c([H])c(Oc7c([H])c([H])c(F)c([H])c7F)c([H])c6[H])c(C(=O)N([H])[H])c5N([H])[H])C4([H])[H])c([H])c3C([H])([H])[H])c([H])c([H])c2C1([H])[H]

>  <smiles>  (89) 
[H]c1c([H])c([H])c2c(c1[H])C([H])([H])C([H])([H])C([H])([H])C2([H])N([H])C(=O)C1([H])N(C(=O)C([H])(N([H])C(=O)C([H])(N([H])C([H])([H])[H])C([H])([H])[H])C(C([H])([H])[H])(C([H])([H])[H])C([H])([H])[H])C([H])([H])c2c([H])c(OC([H])([H])C([H])([H])C([H])([H])C([H])([H])c3c(F)c(F)c(N([H])C(=O)N4C([H])([H])C([H])([H])C([H])([H])C([H])(n5nc(-c6c([H])c([H])c(Oc7c([H])c([H])c(F)c([H])c7F)c([H])c6[H])c(C(=O)N([H])[H])c5N([H])[H])C4([H])[H])c([H])c3C([H])([H])[H])c([H])c([H])c2C1([H])[H]

> <Step>
28.0

> <Scaffold>
O=C(NC1CCCc2ccccc21)C1Cc2ccc(OCCCCc3ccc(NC(=O)N4CCCC(n5ccc(-c6ccc(Oc7ccccc7)cc6)n5)C4)cc3)cc2CN1

> <SMILES>
CNC(C)C(=O)NC(C(=O)N1Cc2cc(OCCCCc3c(C)cc(NC(=O)N4CCCC(n5nc(-c6ccc(Oc7ccc(F)cc7F)cc6)c(C(N)=O)c5N)C4)c(F)c3F)ccc2CC1C(=O)NC1CCCc2ccccc21)C(C)(C)C

> <Tanimoto ROCS sim>
0.26312050223350525

> <Custom alerts>
1.0

> <Linker Num Aromatic Rings>
1.0

> <Linker Effective Length>
1.0

> <ADV>
0.9952008724212646

> <PostDock Tanimoto ROCS sim>
0.9890443682670593

> <raw_Linker Num Aromatic Rings>
1.0

> <raw_Linker Effective Length>
8.0

> <raw_ADV>
-14.267000198364258

> <total_score>
0.9960613250732422

> <ID>
default_job_188

> <PostDock Tanimoto ROCS sim (re-score)>
0.9774815

> <raw_ADV (re-score)>
-14.295

$$$$
default_job_189
     RDKit          3D

 92100  0  0  1  0  0  0  0  0999 V2000
  -28.2210  -21.1250   19.3340 C   0  0  0  0  0  3  0  0  0  0  0  0
  -29.8410  -20.4410   20.6990 C   0  0  0  0  0  3  0  0  0  0  0  0
  -28.5380  -19.8360   18.9890 C   0  0  0  0  0  0  0  0  0  0  0  0
  -29.5690  -19.3710   19.8690 C   0  0  0  0  0  0  0  0  0  0  0  0
  -27.9100  -19.0630   17.8570 C   0  0  0  0  0  1  0  0  0  0  0  0
  -29.0300  -21.5330   20.3710 N   0  0  0  0  0  0  0  0  0  0  0  0
  -31.6980  -18.1670   19.2860 C   0  0  0  0  0  1  0  0  0  0  0  0
  -30.2530  -17.9770   19.7800 C   0  0  0  0  0  3  0  0  0  0  0  0
  -30.2080  -17.0760   21.0660 C   0  0  0  0  0  2  0  0  0  0  0  0
  -30.6560  -14.5860   20.4800 C   0  0  0  0  0  0  0  0  0  0  0  0
  -30.4010  -12.3910   19.3640 C   0  0  0  0  0  2  0  0  0  0  0  0
  -29.4570  -12.5510   18.1520 C   0  0  0  0  0  2  0  0  0  0  0  0
  -27.9840  -12.3960   18.5810 C   0  0  0  0  0  2  0  0  0  0  0  0
  -27.6290  -13.2550   19.8240 C   0  0  0  0  0  3  0  0  0  0  0  0
  -28.6850  -13.0710   20.9390 C   0  0  0  0  0  2  0  0  0  0  0  0
  -30.0030  -13.3920   20.3670 N   0  0  0  0  0  0  0  0  0  0  0  0
  -31.8180  -14.7430   20.1030 O   0  0  0  0  0  0  0  0  0  0  0  0
  -29.8860  -15.6330   20.8660 N   0  0  0  0  0  0  0  0  0  0  0  0
  -28.9380  -15.3770   21.0990 H   0  0  0  0  0  0  0  0  0  0  0  0
  -25.2260  -13.8580   20.5170 C   0  0  0  0  0  0  0  0  0  0  0  0
  -24.1570  -13.0850   20.8820 C   0  0  0  0  0  0  0  0  0  0  0  0
  -24.6220  -11.7340   20.8640 C   0  0  0  0  0  0  0  0  0  0  0  0
  -26.2760  -12.9780   20.3000 N   0  0  0  0  0  0  0  0  0  0  0  0
  -25.9140  -11.6970   20.5690 N   0  0  0  0  0  0  0  0  0  0  0  0
  -23.8970  -10.4710   21.0540 C   0  0  0  0  0  0  0  0  0  0  0  0
  -24.3290   -9.5030   21.9870 C   0  0  0  0  0  3  0  0  0  0  0  0
  -23.6030   -8.3050   22.1640 C   0  0  0  0  0  3  0  0  0  0  0  0
  -22.4300   -8.0680   21.4090 C   0  0  0  0  0  0  0  0  0  0  0  0
  -22.0170   -9.0240   20.4660 C   0  0  0  0  0  3  0  0  0  0  0  0
  -22.7430  -10.2140   20.2850 C   0  0  0  0  0  3  0  0  0  0  0  0
  -21.6760   -6.9230   21.4960 O   0  0  0  0  0  0  0  0  0  0  0  0
  -21.6360   -6.1720   22.6440 C   0  0  0  0  0  0  0  0  0  0  0  0
  -21.2250   -6.7210   23.8780 C   0  0  0  0  0  3  0  0  0  0  0  0
  -21.1330   -5.8970   25.0190 C   0  0  0  0  0  3  0  0  0  0  0  0
  -21.4420   -4.5280   24.9250 C   0  0  0  0  0  0  0  0  0  0  0  0
  -21.8460   -3.9780   23.6960 C   0  0  0  0  0  3  0  0  0  0  0  0
  -21.9400   -4.7980   22.5580 C   0  0  0  0  0  0  0  0  0  0  0  0
  -22.3100   -4.2610   21.3700 F   0  0  0  0  0  0  0  0  0  0  0  0
  -21.3450   -3.7340   26.0180 F   0  0  0  0  0  0  0  0  0  0  0  0
  -22.7560  -13.5600   21.1390 C   0  0  0  0  0  0  0  0  0  0  0  0
  -22.0220  -12.8630   22.0010 N   0  0  0  0  0  0  0  0  0  0  0  0
  -22.3190  -14.5820   20.6130 O   0  0  0  0  0  0  0  0  0  0  0  0
  -22.3890  -12.0350   22.4450 H   0  0  0  0  0  0  0  0  0  0  0  0
  -21.0830  -13.1630   22.2200 H   0  0  0  0  0  0  0  0  0  0  0  0
  -25.3860  -15.2280   20.3310 N   0  0  0  0  0  0  0  0  0  0  0  0
  -24.6110  -15.8760   20.4230 H   0  0  0  0  0  0  0  0  0  0  0  0
  -26.2300  -15.6680   19.9870 H   0  0  0  0  0  0  0  0  0  0  0  0
  -29.0020  -22.8520   21.0530 C   0  0  0  0  0  2  0  0  0  0  0  0
  -28.3910  -24.0800   20.2700 C   0  0  0  0  0  2  0  0  0  0  0  0
  -27.8630  -25.5850   22.3420 C   0  0  0  0  0  1  0  0  0  0  0  0
  -28.5760  -25.4730   20.9790 C   0  0  0  0  0  3  0  0  0  0  0  0
  -28.3880  -26.6630   20.1610 O   0  0  0  0  0  0  0  0  0  0  0  0
  -24.5790  -31.9070   23.2500 C   0  0  0  0  0  0  0  0  0  0  0  0
  -27.2100  -27.3960   20.2140 C   0  0  0  0  0  0  0  0  0  0  0  0
  -23.3670  -30.4840   21.6340 C   0  0  0  0  0  3  0  0  0  0  0  0
  -24.8160  -28.9200   20.2220 C   0  0  0  0  0  0  0  0  0  0  0  0
  -25.8960  -30.8290   21.4240 C   0  0  0  0  0  2  0  0  0  0  0  0
  -25.9790  -29.4480   20.7980 C   0  0  0  0  0  0  0  0  0  0  0  0
  -27.1810  -28.6950   20.7850 C   0  0  0  0  0  3  0  0  0  0  0  0
  -26.0310  -26.8900   19.6300 C   0  0  0  0  0  3  0  0  0  0  0  0
  -24.8370  -27.6420   19.6350 C   0  0  0  0  0  3  0  0  0  0  0  0
  -23.5720  -29.7840   20.2630 C   0  0  0  0  0  2  0  0  0  0  0  0
  -24.6330  -31.0850   22.1630 N   0  0  0  0  0  0  0  0  0  0  0  0
  -23.4940  -32.2170   23.7650 O   0  0  0  0  0  0  0  0  0  0  0  0
  -22.7120  -29.4760   22.6070 C   0  0  0  0  0  0  0  0  0  0  0  0
  -21.3890  -29.2920   22.4800 N   0  0  0  0  0  0  0  0  0  0  0  0
  -23.3930  -28.8590   23.4300 O   0  0  0  0  0  0  0  0  0  0  0  0
  -20.9010  -29.8480   21.7910 H   0  0  0  0  0  0  0  0  0  0  0  0
  -18.0140  -28.0880   22.9690 C   0  0  0  0  0  0  0  0  0  0  0  0
  -20.5700  -28.3580   23.2540 C   0  0  0  0  0  3  0  0  0  0  0  0
  -20.6800  -26.9220   22.6910 C   0  0  0  0  0  2  0  0  0  0  0  0
  -19.5850  -26.5870   21.6740 C   0  0  0  0  0  2  0  0  0  0  0  0
  -18.1990  -26.7320   22.3080 C   0  0  0  0  0  2  0  0  0  0  0  0
  -19.1270  -28.8580   23.3980 C   0  0  0  0  0  0  0  0  0  0  0  0
  -18.9010  -30.1270   23.9740 C   0  0  0  0  0  3  0  0  0  0  0  0
  -17.5940  -30.6270   24.1270 C   0  0  0  0  0  3  0  0  0  0  0  0
  -16.4940  -29.8530   23.7170 C   0  0  0  0  0  3  0  0  0  0  0  0
  -16.7060  -28.5860   23.1430 C   0  0  0  0  0  3  0  0  0  0  0  0
  -25.8690  -32.5270   23.8750 C   0  0  0  0  0  3  0  0  0  0  0  0
  -25.5740  -33.9270   24.2040 N   0  0  0  0  0  0  0  0  0  0  0  0
  -25.9070  -34.9740   23.4390 C   0  0  0  0  0  0  0  0  0  0  0  0
  -26.5720  -34.8610   22.4050 O   0  0  0  0  0  0  0  0  0  0  0  0
  -24.9860  -34.0880   25.0100 H   0  0  0  0  0  0  0  0  0  0  0  0
  -24.1850  -36.7690   23.0800 C   0  0  0  0  0  1  0  0  0  0  0  0
  -25.4260  -36.3650   23.8910 C   0  0  0  0  0  3  0  0  0  0  0  0
  -27.5650  -37.2410   24.7130 C   0  0  0  0  0  1  0  0  0  0  0  0
  -26.4630  -37.4130   23.7720 N   0  0  0  0  0  0  0  0  0  0  0  0
  -26.0610  -38.3350   23.9200 H   0  0  0  0  0  0  0  0  0  0  0  0
  -26.3880  -31.7550   25.1500 C   0  0  1  0  0  0  0  0  0  0  0  0
  -25.2930  -31.5260   26.2200 C   0  0  0  0  0  1  0  0  0  0  0  0
  -26.9640  -30.3770   24.7550 C   0  0  0  0  0  1  0  0  0  0  0  0
  -27.5470  -32.5430   25.8040 C   0  0  0  0  0  1  0  0  0  0  0  0
  1  6  1  0
  3  1  2  0
  3  4  1  0
  4  2  2  0
  5  3  1  0
  6  2  1  0
  6 48  1  0
  8  7  1  0
  8  4  1  0
  8  9  1  0
 10 18  1  0
 11 16  1  0
 12 13  1  0
 12 11  1  0
 14 13  1  0
 14 23  1  0
 14 15  1  0
 16 10  1  0
 16 15  1  0
 17 10  2  0
 18  9  1  0
 18 19  1  0
 20 21  2  0
 21 40  1  0
 22 21  1  0
 22 25  1  0
 23 20  1  0
 23 24  1  0
 24 22  2  0
 25 26  1  0
 26 27  2  0
 28 31  1  0
 28 27  1  0
 29 28  2  0
 30 29  1  0
 30 25  2  0
 31 32  1  0
 32 33  1  0
 33 34  2  0
 35 34  1  0
 35 39  1  0
 36 35  2  0
 37 32  2  0
 37 36  1  0
 38 37  1  0
 40 41  1  0
 41 44  1  0
 41 43  1  0
 42 40  2  0
 45 46  1  0
 45 20  1  0
 47 45  1  0
 49 51  1  0
 49 48  1  0
 51 50  1  0
 52 54  1  0
 52 51  1  0
 53 64  2  0
 54 59  1  0
 55 63  1  0
 55 65  1  0
 56 62  1  0
 56 58  1  0
 57 63  1  0
 58 57  1  0
 59 58  2  0
 60 61  1  0
 60 54  2  0
 61 56  2  0
 62 55  1  0
 63 53  1  0
 65 67  2  0
 66 65  1  0
 68 66  1  0
 69 78  2  0
 69 74  1  0
 70 66  1  0
 70 74  1  0
 71 70  1  0
 72 73  1  0
 72 71  1  0
 73 69  1  0
 74 75  2  0
 75 76  1  0
 77 76  2  0
 78 77  1  0
 79 53  1  0
 79 80  1  0
 79 89  1  0
 80 83  1  0
 81 85  1  0
 81 80  1  0
 82 81  2  0
 85 84  1  0
 87 85  1  0
 87 88  1  0
 87 86  1  0
 89 92  1  1
 89 90  1  0
 91 89  1  0
M  ISO  4  10 100  18 100  51 101  52 101
M  END
>  <TORSDO>  (90) 
F 21

>  <SCORE>  (90) 
-13.73

>  <name>  (90) 
89

>  <ligand_id>  (90) 
89

>  <original_smiles>  (90) 
[H]c1c([H])c([H])c2c(c1[H])C([H])([H])C([H])([H])C([H])([H])C2([H])N([H])C(=O)C1([H])N(C(=O)C([H])(N([H])C(=O)C([H])(N([H])C([H])([H])[H])C([H])([H])[H])C(C([H])([H])[H])(C([H])([H])[H])C([H])([H])[H])C([H])([H])c2c([H])c(OC([H])(C([H])([H])[H])C([H])([H])C([H])([H])n3c([H])c(C([H])([H])[H])c(C([H])(C([H])([H])[H])C([H])([H])N([H])C(=O)N4C([H])([H])C([H])([H])C([H])([H])C([H])(n5nc(-c6c([H])c([H])c(Oc7c([H])c([H])c(F)c([H])c7F)c([H])c6[H])c(C(=O)N([H])[H])c5N([H])[H])C4([H])[H])c3[H])c([H])c([H])c2C1([H])[H]

>  <smiles>  (90) 
[H]c1c([H])c([H])c2c(c1[H])C([H])([H])C([H])([H])C([H])([H])C2([H])N([H])C(=O)C1([H])N(C(=O)C([H])(N([H])C(=O)C([H])(N([H])C([H])([H])[H])C([H])([H])[H])C(C([H])([H])[H])(C([H])([H])[H])C([H])([H])[H])C([H])([H])c2c([H])c(OC([H])(C([H])([H])[H])C([H])([H])C([H])([H])n3c([H])c(C([H])([H])[H])c(C([H])(C([H])([H])[H])C([H])([H])N([H])C(=O)N4C([H])([H])C([H])([H])C([H])([H])C([H])(n5nc(-c6c([H])c([H])c(Oc7c([H])c([H])c(F)c([H])c7F)c([H])c6[H])c(C(=O)N([H])[H])c5N([H])[H])C4([H])[H])c3[H])c([H])c([H])c2C1([H])[H]

> <Step>
81.0

> <Scaffold>
O=C(NC1CCCc2ccccc21)C1Cc2ccc(OCCCn3ccc(CCNC(=O)N4CCCC(n5ccc(-c6ccc(Oc7ccccc7)cc6)n5)C4)c3)cc2CN1

> <SMILES>
CNC(C)C(=O)NC(C(=O)N1Cc2cc(OC(C)CCn3cc(C)c(C(C)CNC(=O)N4CCCC(n5nc(-c6ccc(Oc7ccc(F)cc7F)cc6)c(C(N)=O)c5N)C4)c3)ccc2CC1C(=O)NC1CCCc2ccccc21)C(C)(C)C

> <Tanimoto ROCS sim>
0.20863759517669678

> <Custom alerts>
1.0

> <Linker Num Aromatic Rings>
1.0

> <Linker Effective Length>
1.0

> <ADV>
0.9935738444328308

> <PostDock Tanimoto ROCS sim>
0.9906690120697021

> <raw_Linker Num Aromatic Rings>
1.0

> <raw_Linker Effective Length>
8.0

> <raw_ADV>
-13.756999969482422

> <total_score>
0.9960607290267944

> <ID>
default_job_189

> <PostDock Tanimoto ROCS sim (re-score)>
0.9834079

> <raw_ADV (re-score)>
-13.73

$$$$
default_job_190
     RDKit          3D

 93102  0  0  1  0  0  0  0  0999 V2000
  -28.7060  -20.3320   18.7810 C   0  0  0  0  0  3  0  0  0  0  0  0
  -28.2420  -21.5320   18.1230 C   0  0  0  0  0  3  0  0  0  0  0  0
  -29.4400  -20.4240   19.9180 C   0  0  0  0  0  0  0  0  0  0  0  0
  -29.7170  -21.7820   20.4950 C   0  0  0  0  0  0  0  0  0  0  0  0
  -28.4760  -22.7040   18.6050 N   0  0  0  0  0  0  0  0  0  0  0  0
  -29.1800  -22.8450   19.7930 N   0  0  0  0  0  0  0  0  0  0  0  0
  -30.3700  -21.9640   21.5240 O   0  0  0  0  0  0  0  0  0  0  0  0
  -31.4640  -17.5690   21.3520 C   0  0  0  0  0  2  0  0  0  0  0  0
  -31.1570  -19.0790   21.2960 C   0  0  0  0  0  2  0  0  0  0  0  0
  -29.3420  -17.8920   20.3650 C   0  0  0  0  0  2  0  0  0  0  0  0
  -30.0660  -16.9540   21.3530 C   0  0  0  0  0  3  0  0  0  0  0  0
  -29.9100  -19.2420   20.5440 N   0  0  0  0  0  0  0  0  0  0  0  0
  -30.6520  -14.5440   20.5060 C   0  0  0  0  0  0  0  0  0  0  0  0
  -30.4130  -12.3790   19.3240 C   0  0  0  0  0  2  0  0  0  0  0  0
  -29.4670  -12.5780   18.1200 C   0  0  0  0  0  2  0  0  0  0  0  0
  -27.9910  -12.4160   18.5430 C   0  0  0  0  0  2  0  0  0  0  0  0
  -27.6430  -13.2370   19.8130 C   0  0  0  0  0  3  0  0  0  0  0  0
  -28.6970  -13.0020   20.9190 C   0  0  0  0  0  2  0  0  0  0  0  0
  -30.0180  -13.3440   20.3630 N   0  0  0  0  0  0  0  0  0  0  0  0
  -31.7670  -14.7670   20.0290 O   0  0  0  0  0  0  0  0  0  0  0  0
  -29.9000  -15.5000   21.0950 N   0  0  0  0  0  0  0  0  0  0  0  0
  -29.0110  -15.1400   21.4110 H   0  0  0  0  0  0  0  0  0  0  0  0
  -25.2390  -13.8380   20.5100 C   0  0  0  0  0  0  0  0  0  0  0  0
  -24.1710  -13.0630   20.8760 C   0  0  0  0  0  0  0  0  0  0  0  0
  -24.6370  -11.7130   20.8470 C   0  0  0  0  0  0  0  0  0  0  0  0
  -26.2880  -12.9590   20.2830 N   0  0  0  0  0  0  0  0  0  0  0  0
  -25.9270  -11.6750   20.5420 N   0  0  0  0  0  0  0  0  0  0  0  0
  -23.9140  -10.4490   21.0360 C   0  0  0  0  0  0  0  0  0  0  0  0
  -24.3410   -9.4880   21.9780 C   0  0  0  0  0  3  0  0  0  0  0  0
  -23.6220   -8.2870   22.1530 C   0  0  0  0  0  3  0  0  0  0  0  0
  -22.4590   -8.0380   21.3850 C   0  0  0  0  0  0  0  0  0  0  0  0
  -22.0510   -8.9880   20.4320 C   0  0  0  0  0  3  0  0  0  0  0  0
  -22.7710  -10.1810   20.2550 C   0  0  0  0  0  3  0  0  0  0  0  0
  -21.7090   -6.8900   21.4690 O   0  0  0  0  0  0  0  0  0  0  0  0
  -21.6450   -6.1550   22.6270 C   0  0  0  0  0  0  0  0  0  0  0  0
  -21.1640   -6.7080   23.8330 C   0  0  0  0  0  3  0  0  0  0  0  0
  -21.0490   -5.8990   24.9810 C   0  0  0  0  0  3  0  0  0  0  0  0
  -21.4040   -4.5370   24.9220 C   0  0  0  0  0  0  0  0  0  0  0  0
  -21.8770   -3.9840   23.7200 C   0  0  0  0  0  3  0  0  0  0  0  0
  -21.9940   -4.7910   22.5740 C   0  0  0  0  0  0  0  0  0  0  0  0
  -22.4310   -4.2470   21.4130 F   0  0  0  0  0  0  0  0  0  0  0  0
  -21.2860   -3.7580   26.0220 F   0  0  0  0  0  0  0  0  0  0  0  0
  -22.7720  -13.5350   21.1450 C   0  0  0  0  0  0  0  0  0  0  0  0
  -22.0400  -12.8340   22.0050 N   0  0  0  0  0  0  0  0  0  0  0  0
  -22.3330  -14.5620   20.6270 O   0  0  0  0  0  0  0  0  0  0  0  0
  -22.4070  -12.0060   22.4480 H   0  0  0  0  0  0  0  0  0  0  0  0
  -21.0980  -13.1310   22.2220 H   0  0  0  0  0  0  0  0  0  0  0  0
  -25.4000  -15.2080   20.3310 N   0  0  0  0  0  0  0  0  0  0  0  0
  -24.6290  -15.8610   20.4320 H   0  0  0  0  0  0  0  0  0  0  0  0
  -26.2440  -15.6450   19.9820 H   0  0  0  0  0  0  0  0  0  0  0  0
  -29.3680  -24.2670   20.2260 C   0  0  0  0  0  3  0  0  0  0  0  0
  -28.2150  -25.2430   19.8130 C   0  0  0  0  0  3  0  0  0  0  0  0
  -28.3350  -26.6330   20.2200 O   0  0  0  0  0  0  0  0  0  0  0  0
  -24.5700  -31.9250   23.2490 C   0  0  0  0  0  0  0  0  0  0  0  0
  -27.1810  -27.4120   20.1810 C   0  0  0  0  0  0  0  0  0  0  0  0
  -23.3580  -30.5220   21.6180 C   0  0  0  0  0  3  0  0  0  0  0  0
  -24.8010  -28.9750   20.1960 C   0  0  0  0  0  0  0  0  0  0  0  0
  -25.8940  -30.8470   21.4300 C   0  0  0  0  0  2  0  0  0  0  0  0
  -25.9670  -29.4730   20.7870 C   0  0  0  0  0  0  0  0  0  0  0  0
  -27.1580  -28.7010   20.7770 C   0  0  0  0  0  3  0  0  0  0  0  0
  -25.9870  -26.9500   19.5690 C   0  0  0  0  0  3  0  0  0  0  0  0
  -24.8080  -27.7120   19.5850 C   0  0  0  0  0  3  0  0  0  0  0  0
  -23.5660  -29.8440   20.2400 C   0  0  0  0  0  2  0  0  0  0  0  0
  -24.6270  -31.1090   22.1590 N   0  0  0  0  0  0  0  0  0  0  0  0
  -23.4850  -32.2310   23.7620 O   0  0  0  0  0  0  0  0  0  0  0  0
  -22.6980  -29.5040   22.5790 C   0  0  0  0  0  0  0  0  0  0  0  0
  -21.3730  -29.3220   22.4450 N   0  0  0  0  0  0  0  0  0  0  0  0
  -23.3750  -28.8810   23.4000 O   0  0  0  0  0  0  0  0  0  0  0  0
  -20.8870  -29.8770   21.7550 H   0  0  0  0  0  0  0  0  0  0  0  0
  -17.9920  -28.1470   22.9460 C   0  0  0  0  0  0  0  0  0  0  0  0
  -20.5520  -28.3900   23.2160 C   0  0  0  0  0  3  0  0  0  0  0  0
  -20.6440  -26.9570   22.6390 C   0  0  0  0  0  2  0  0  0  0  0  0
  -19.5400  -26.6430   21.6250 C   0  0  0  0  0  2  0  0  0  0  0  0
  -18.1590  -26.7970   22.2700 C   0  0  0  0  0  2  0  0  0  0  0  0
  -19.1150  -28.9020   23.3760 C   0  0  0  0  0  0  0  0  0  0  0  0
  -18.9040  -30.1660   23.9690 C   0  0  0  0  0  3  0  0  0  0  0  0
  -17.6040  -30.6760   24.1340 C   0  0  0  0  0  3  0  0  0  0  0  0
  -16.4940  -29.9190   23.7200 C   0  0  0  0  0  3  0  0  0  0  0  0
  -16.6890  -28.6560   23.1320 C   0  0  0  0  0  3  0  0  0  0  0  0
  -25.8600  -32.5410   23.8780 C   0  0  0  0  0  3  0  0  0  0  0  0
  -26.3680  -31.7670   25.1560 C   0  0  1  0  0  0  0  0  0  0  0  0
  -25.2670  -31.5330   26.2170 C   0  0  0  0  0  1  0  0  0  0  0  0
  -26.9500  -30.3880   24.7660 C   0  0  0  0  0  1  0  0  0  0  0  0
  -27.5180  -32.5560   25.8250 C   0  0  0  0  0  1  0  0  0  0  0  0
  -25.5640  -33.9420   24.2050 N   0  0  0  0  0  0  0  0  0  0  0  0
  -25.8970  -34.9880   23.4380 C   0  0  0  0  0  0  0  0  0  0  0  0
  -26.5600  -34.8750   22.4040 O   0  0  0  0  0  0  0  0  0  0  0  0
  -24.9750  -34.1040   25.0100 H   0  0  0  0  0  0  0  0  0  0  0  0
  -24.1840  -36.7910   23.0710 C   0  0  0  0  0  1  0  0  0  0  0  0
  -25.4180  -36.3800   23.8900 C   0  0  0  0  0  3  0  0  0  0  0  0
  -27.5530  -37.2540   24.7320 C   0  0  0  0  0  1  0  0  0  0  0  0
  -26.4600  -37.4250   23.7790 N   0  0  0  0  0  0  0  0  0  0  0  0
  -26.0590  -38.3480   23.9190 H   0  0  0  0  0  0  0  0  0  0  0  0
  1  3  2  0
  2  5  2  0
  2  1  1  0
  3  4  1  0
  3 12  1  0
  4  7  2  0
  5  6  1  0
  6 51  1  0
  6  4  1  0
  8 11  1  0
  9  8  1  0
 10 12  1  0
 10 11  1  0
 11 21  1  0
 12  9  1  0
 13 21  1  0
 14 19  1  0
 15 16  1  0
 15 14  1  0
 17 16  1  0
 17 26  1  0
 17 18  1  0
 19 13  1  0
 19 18  1  0
 20 13  2  0
 21 22  1  0
 23 24  2  0
 24 43  1  0
 25 24  1  0
 25 28  1  0
 26 23  1  0
 26 27  1  0
 27 25  2  0
 28 29  1  0
 29 30  2  0
 31 34  1  0
 31 30  1  0
 32 31  2  0
 33 32  1  0
 33 28  2  0
 34 35  1  0
 35 36  1  0
 36 37  2  0
 38 37  1  0
 38 42  1  0
 39 38  2  0
 40 35  2  0
 40 39  1  0
 41 40  1  0
 43 44  1  0
 44 47  1  0
 44 46  1  0
 45 43  2  0
 48 49  1  0
 48 23  1  0
 50 48  1  0
 52 53  1  0
 52 51  2  0
 54 65  2  0
 55 53  1  0
 55 60  1  0
 56 64  1  0
 56 66  1  0
 57 63  1  0
 57 59  1  0
 58 64  1  0
 59 58  1  0
 60 59  2  0
 61 62  1  0
 61 55  2  0
 62 57  2  0
 63 56  1  0
 64 54  1  0
 66 68  2  0
 67 66  1  0
 69 67  1  0
 70 79  2  0
 70 75  1  0
 71 67  1  0
 71 75  1  0
 72 71  1  0
 73 74  1  0
 73 72  1  0
 74 70  1  0
 75 76  2  0
 76 77  1  0
 78 77  2  0
 79 78  1  0
 80 54  1  0
 80 85  1  0
 80 81  1  0
 81 84  1  1
 81 82  1  0
 83 81  1  0
 85 88  1  0
 86 90  1  0
 86 85  1  0
 87 86  2  0
 90 89  1  0
 92 90  1  0
 92 93  1  0
 92 91  1  0
M  ISO  4  13 100  21 100  52 101  53 101
M  END
>  <TORSDO>  (91) 
F 19

>  <SCORE>  (91) 
-14.686

>  <name>  (91) 
90

>  <ligand_id>  (91) 
90

>  <original_smiles>  (91) 
[H]c1nn(C([H])([H])C([H])([H])Oc2c([H])c([H])c3c(c2[H])C([H])([H])N(C(=O)C([H])(N([H])C(=O)C([H])(N([H])C([H])([H])[H])C([H])([H])[H])C(C([H])([H])[H])(C([H])([H])[H])C([H])([H])[H])C([H])(C(=O)N([H])C2([H])c4c([H])c([H])c([H])c([H])c4C([H])([H])C([H])([H])C2([H])[H])C3([H])[H])c(=O)c(N2C([H])([H])C([H])([H])C([H])(N([H])C(=O)N3C([H])([H])C([H])([H])C([H])([H])C([H])(n4nc(-c5c([H])c([H])c(Oc6c([H])c([H])c(F)c([H])c6F)c([H])c5[H])c(C(=O)N([H])[H])c4N([H])[H])C3([H])[H])C2([H])[H])c1[H]

>  <smiles>  (91) 
[H]c1nn(C([H])([H])C([H])([H])Oc2c([H])c([H])c3c(c2[H])C([H])([H])N(C(=O)C([H])(N([H])C(=O)C([H])(N([H])C([H])([H])[H])C([H])([H])[H])C(C([H])([H])[H])(C([H])([H])[H])C([H])([H])[H])C([H])(C(=O)N([H])C2([H])c4c([H])c([H])c([H])c([H])c4C([H])([H])C([H])([H])C2([H])[H])C3([H])[H])c(=O)c(N2C([H])([H])C([H])([H])C([H])(N([H])C(=O)N3C([H])([H])C([H])([H])C([H])([H])C([H])(n4nc(-c5c([H])c([H])c(Oc6c([H])c([H])c(F)c([H])c6F)c([H])c5[H])c(C(=O)N([H])[H])c4N([H])[H])C3([H])[H])C2([H])[H])c1[H]

> <Step>
196.0

> <Scaffold>
O=C(NC1CCCc2ccccc21)C1Cc2ccc(OCCn3nccc(N4CCC(NC(=O)N5CCCC(n6ccc(-c7ccc(Oc8ccccc8)cc7)n6)C5)C4)c3=O)cc2CN1

> <SMILES>
CNC(C)C(=O)NC(C(=O)N1Cc2cc(OCCn3nccc(N4CCC(NC(=O)N5CCCC(n6nc(-c7ccc(Oc8ccc(F)cc8F)cc7)c(C(N)=O)c6N)C5)C4)c3=O)ccc2CC1C(=O)NC1CCCc2ccccc21)C(C)(C)C

> <Tanimoto ROCS sim>
0.25182515382766724

> <Custom alerts>
1.0

> <Linker Num Aromatic Rings>
1.0

> <Linker Effective Length>
1.0

> <ADV>
0.9961423873901367

> <PostDock Tanimoto ROCS sim>
0.9880859851837158

> <raw_Linker Num Aromatic Rings>
1.0

> <raw_Linker Effective Length>
8.0

> <raw_ADV>
-14.64799976348877

> <total_score>
0.9960570931434631

> <ID>
default_job_190

> <PostDock Tanimoto ROCS sim (re-score)>
0.9839215

> <raw_ADV (re-score)>
-14.686

$$$$
default_job_191
     RDKit          3D

 90 98  0  0  1  0  0  0  0  0999 V2000
  -29.2990  -23.5510   21.2220 C   0  0  0  0  0  3  0  0  0  0  0  0
  -29.6220  -22.2060   21.5790 C   0  0  0  0  0  3  0  0  0  0  0  0
  -28.4670  -22.6740   19.1690 C   0  0  0  0  0  3  0  0  0  0  0  0
  -28.7160  -23.8300   19.9660 C   0  0  0  0  0  0  0  0  0  0  0  0
  -29.3640  -21.1230   20.7020 C   0  0  0  0  0  0  0  0  0  0  0  0
  -28.7670  -21.3780   19.5150 N   0  0  0  0  0  0  0  0  0  0  0  0
  -29.7770  -19.7950   21.0570 N   0  0  0  0  0  0  0  0  0  0  0  0
  -30.2780  -19.7240   21.9380 H   0  0  0  0  0  0  0  0  0  0  0  0
  -28.4870  -25.2760   19.3680 C   0  0  0  0  0  2  0  0  0  0  0  0
  -28.3420  -26.4840   20.2160 O   0  0  0  0  0  0  0  0  0  0  0  0
  -24.6090  -31.8850   23.2290 C   0  0  0  0  0  0  0  0  0  0  0  0
  -27.2080  -27.3170   20.1530 C   0  0  0  0  0  0  0  0  0  0  0  0
  -23.3960  -30.4800   21.6050 C   0  0  0  0  0  3  0  0  0  0  0  0
  -24.8380  -28.9330   20.1710 C   0  0  0  0  0  0  0  0  0  0  0  0
  -25.9370  -30.7990   21.4060 C   0  0  0  0  0  2  0  0  0  0  0  0
  -26.0130  -29.4210   20.7570 C   0  0  0  0  0  0  0  0  0  0  0  0
  -27.1960  -28.6230   20.7410 C   0  0  0  0  0  3  0  0  0  0  0  0
  -25.9960  -26.8750   19.5740 C   0  0  0  0  0  3  0  0  0  0  0  0
  -24.8320  -27.6640   19.5750 C   0  0  0  0  0  3  0  0  0  0  0  0
  -23.6040  -29.8080   20.2230 C   0  0  0  0  0  2  0  0  0  0  0  0
  -24.6680  -31.0700   22.1370 N   0  0  0  0  0  0  0  0  0  0  0  0
  -23.5230  -32.1820   23.7470 O   0  0  0  0  0  0  0  0  0  0  0  0
  -22.7410  -29.4610   22.5680 C   0  0  0  0  0  0  0  0  0  0  0  0
  -21.4140  -29.2800   22.4470 N   0  0  0  0  0  0  0  0  0  0  0  0
  -23.4240  -28.8370   23.3850 O   0  0  0  0  0  0  0  0  0  0  0  0
  -20.9230  -29.8370   21.7640 H   0  0  0  0  0  0  0  0  0  0  0  0
  -18.0410  -28.0700   22.9510 C   0  0  0  0  0  0  0  0  0  0  0  0
  -20.6000  -28.3410   23.2200 C   0  0  0  0  0  3  0  0  0  0  0  0
  -20.7060  -26.9070   22.6470 C   0  0  0  0  0  2  0  0  0  0  0  0
  -19.6050  -26.5790   21.6340 C   0  0  0  0  0  2  0  0  0  0  0  0
  -18.2220  -26.7210   22.2770 C   0  0  0  0  0  2  0  0  0  0  0  0
  -19.1570  -28.8380   23.3790 C   0  0  0  0  0  0  0  0  0  0  0  0
  -18.9340  -30.1020   23.9680 C   0  0  0  0  0  3  0  0  0  0  0  0
  -17.6270  -30.5970   24.1370 C   0  0  0  0  0  3  0  0  0  0  0  0
  -16.5260  -29.8270   23.7260 C   0  0  0  0  0  3  0  0  0  0  0  0
  -16.7340  -28.5660   23.1390 C   0  0  0  0  0  3  0  0  0  0  0  0
  -25.8940  -32.5110   23.8570 C   0  0  0  0  0  3  0  0  0  0  0  0
  -26.4150  -31.7370   25.1310 C   0  0  1  0  0  0  0  0  0  0  0  0
  -25.3260  -31.4990   26.2020 C   0  0  0  0  0  1  0  0  0  0  0  0
  -26.9990  -30.3620   24.7330 C   0  0  0  0  0  1  0  0  0  0  0  0
  -27.5690  -32.5320   25.7880 C   0  0  0  0  0  1  0  0  0  0  0  0
  -25.5870  -33.9080   24.1950 N   0  0  0  0  0  0  0  0  0  0  0  0
  -25.9000  -34.9640   23.4320 C   0  0  0  0  0  0  0  0  0  0  0  0
  -26.5520  -34.8630   22.3900 O   0  0  0  0  0  0  0  0  0  0  0  0
  -25.0160  -34.0610   25.0140 H   0  0  0  0  0  0  0  0  0  0  0  0
  -24.1560  -36.7470   23.1090 C   0  0  0  0  0  1  0  0  0  0  0  0
  -25.4140  -36.3490   23.8990 C   0  0  0  0  0  3  0  0  0  0  0  0
  -27.5610  -37.2390   24.6900 C   0  0  0  0  0  1  0  0  0  0  0  0
  -26.4370  -37.4090   23.7720 N   0  0  0  0  0  0  0  0  0  0  0  0
  -26.0280  -38.3250   23.9390 H   0  0  0  0  0  0  0  0  0  0  0  0
  -29.4430  -18.4790   20.4220 C   0  0  0  0  0  2  0  0  0  0  0  0
  -30.3380  -17.2400   20.9170 C   0  0  0  0  0  2  0  0  0  0  0  0
  -30.6070  -14.7020   20.4130 C   0  0  0  0  0  0  0  0  0  0  0  0
  -30.3820  -12.4540   19.3620 C   0  0  0  0  0  2  0  0  0  0  0  0
  -29.4350  -12.5440   18.1460 C   0  0  0  0  0  2  0  0  0  0  0  0
  -27.9690  -12.3720   18.5840 C   0  0  0  0  0  2  0  0  0  0  0  0
  -27.6020  -13.2560   19.8070 C   0  0  0  0  0  3  0  0  0  0  0  0
  -28.6640  -13.1530   20.9230 C   0  0  0  0  0  2  0  0  0  0  0  0
  -29.9620  -13.4950   20.3250 N   0  0  0  0  0  0  0  0  0  0  0  0
  -31.7860  -14.8130   20.0690 O   0  0  0  0  0  0  0  0  0  0  0  0
  -29.8600  -15.8170   20.7170 N   0  0  0  0  0  0  0  0  0  0  0  0
  -28.8850  -15.6460   20.9150 H   0  0  0  0  0  0  0  0  0  0  0  0
  -25.2120  -13.8410   20.5350 C   0  0  0  0  0  0  0  0  0  0  0  0
  -24.1490  -13.0620   20.9050 C   0  0  0  0  0  0  0  0  0  0  0  0
  -24.6190  -11.7130   20.8770 C   0  0  0  0  0  0  0  0  0  0  0  0
  -26.2590  -12.9660   20.2990 N   0  0  0  0  0  0  0  0  0  0  0  0
  -25.9090  -11.6820   20.5670 N   0  0  0  0  0  0  0  0  0  0  0  0
  -23.8990  -10.4470   21.0670 C   0  0  0  0  0  0  0  0  0  0  0  0
  -24.3450   -9.4760   21.9890 C   0  0  0  0  0  3  0  0  0  0  0  0
  -23.6250   -8.2740   22.1670 C   0  0  0  0  0  3  0  0  0  0  0  0
  -22.4460   -8.0370   21.4220 C   0  0  0  0  0  0  0  0  0  0  0  0
  -22.0190   -8.9970   20.4890 C   0  0  0  0  0  3  0  0  0  0  0  0
  -22.7400  -10.1890   20.3090 C   0  0  0  0  0  3  0  0  0  0  0  0
  -21.6960   -6.8890   21.5120 O   0  0  0  0  0  0  0  0  0  0  0  0
  -21.6710   -6.1310   22.6550 C   0  0  0  0  0  0  0  0  0  0  0  0
  -21.2710   -6.6720   23.8970 C   0  0  0  0  0  3  0  0  0  0  0  0
  -21.1940   -5.8420   25.0330 C   0  0  0  0  0  3  0  0  0  0  0  0
  -21.5060   -4.4740   24.9290 C   0  0  0  0  0  0  0  0  0  0  0  0
  -21.8990   -3.9330   23.6930 C   0  0  0  0  0  3  0  0  0  0  0  0
  -21.9780   -4.7610   22.5580 C   0  0  0  0  0  0  0  0  0  0  0  0
  -22.3370   -4.2300   21.3640 F   0  0  0  0  0  0  0  0  0  0  0  0
  -21.4230   -3.6740   26.0190 F   0  0  0  0  0  0  0  0  0  0  0  0
  -22.7500  -13.5320   21.1780 C   0  0  0  0  0  0  0  0  0  0  0  0
  -22.0270  -12.8310   22.0430 N   0  0  0  0  0  0  0  0  0  0  0  0
  -22.3060  -14.5550   20.6590 O   0  0  0  0  0  0  0  0  0  0  0  0
  -22.3970  -11.9990   22.4810 H   0  0  0  0  0  0  0  0  0  0  0  0
  -21.0890  -13.1290   22.2740 H   0  0  0  0  0  0  0  0  0  0  0  0
  -25.3690  -15.2130   20.3560 N   0  0  0  0  0  0  0  0  0  0  0  0
  -24.6010  -15.8650   20.4670 H   0  0  0  0  0  0  0  0  0  0  0  0
  -26.2100  -15.6520   20.0010 H   0  0  0  0  0  0  0  0  0  0  0  0
  1  2  1  0
  3  6  2  0
  3  4  1  0
  4  1  2  0
  5  7  1  0
  5  2  2  0
  6  5  1  0
  7  8  1  0
  9  4  1  0
  9 10  1  0
 11 22  2  0
 12 10  1  0
 12 17  1  0
 13 21  1  0
 13 23  1  0
 14 20  1  0
 14 16  1  0
 15 21  1  0
 16 15  1  0
 17 16  2  0
 18 19  1  0
 18 12  2  0
 19 14  2  0
 20 13  1  0
 21 11  1  0
 23 25  2  0
 24 23  1  0
 26 24  1  0
 27 36  2  0
 27 32  1  0
 28 24  1  0
 28 32  1  0
 29 28  1  0
 30 31  1  0
 30 29  1  0
 31 27  1  0
 32 33  2  0
 33 34  1  0
 35 34  2  0
 36 35  1  0
 37 11  1  0
 37 42  1  0
 37 38  1  0
 38 41  1  1
 38 39  1  0
 40 38  1  0
 42 45  1  0
 43 47  1  0
 43 42  1  0
 44 43  2  0
 47 46  1  0
 49 47  1  0
 49 50  1  0
 49 48  1  0
 51 52  1  0
 51  7  1  0
 53 61  1  0
 54 59  1  0
 55 56  1  0
 55 54  1  0
 57 56  1  0
 57 66  1  0
 57 58  1  0
 59 53  1  0
 59 58  1  0
 60 53  2  0
 61 62  1  0
 61 52  1  0
 63 64  2  0
 64 83  1  0
 65 64  1  0
 65 68  1  0
 66 63  1  0
 66 67  1  0
 67 65  2  0
 68 69  1  0
 69 70  2  0
 71 74  1  0
 71 70  1  0
 72 71  2  0
 73 72  1  0
 73 68  2  0
 74 75  1  0
 75 76  1  0
 76 77  2  0
 78 77  1  0
 78 82  1  0
 79 78  2  0
 80 75  2  0
 80 79  1  0
 81 80  1  0
 83 84  1  0
 84 87  1  0
 84 86  1  0
 85 83  2  0
 88 89  1  0
 88 63  1  0
 90 88  1  0
M  ISO  4   9 101  10 101  53 100  61 100
M  END
>  <TORSDO>  (92) 
F 19

>  <SCORE>  (92) 
-14.291

>  <name>  (92) 
91

>  <ligand_id>  (92) 
91

>  <original_smiles>  (92) 
[H]c1nc(N([H])C([H])([H])C([H])([H])N([H])C(=O)N2C([H])([H])C([H])([H])C([H])([H])C([H])(n3nc(-c4c([H])c([H])c(Oc5c([H])c([H])c(F)c([H])c5F)c([H])c4[H])c(C(=O)N([H])[H])c3N([H])[H])C2([H])[H])c([H])c([H])c1C([H])([H])Oc1c([H])c([H])c2c(c1[H])C([H])([H])N(C(=O)C([H])(N([H])C(=O)C([H])(N([H])C([H])([H])[H])C([H])([H])[H])C(C([H])([H])[H])(C([H])([H])[H])C([H])([H])[H])C([H])(C(=O)N([H])C1([H])c3c([H])c([H])c([H])c([H])c3C([H])([H])C([H])([H])C1([H])[H])C2([H])[H]

>  <smiles>  (92) 
[H]c1nc(N([H])C([H])([H])C([H])([H])N([H])C(=O)N2C([H])([H])C([H])([H])C([H])([H])C([H])(n3nc(-c4c([H])c([H])c(Oc5c([H])c([H])c(F)c([H])c5F)c([H])c4[H])c(C(=O)N([H])[H])c3N([H])[H])C2([H])[H])c([H])c([H])c1C([H])([H])Oc1c([H])c([H])c2c(c1[H])C([H])([H])N(C(=O)C([H])(N([H])C(=O)C([H])(N([H])C([H])([H])[H])C([H])([H])[H])C(C([H])([H])[H])(C([H])([H])[H])C([H])([H])[H])C([H])(C(=O)N([H])C1([H])c3c([H])c([H])c([H])c([H])c3C([H])([H])C([H])([H])C1([H])[H])C2([H])[H]

> <Step>
128.0

> <Scaffold>
O=C(NC1CCCc2ccccc21)C1Cc2ccc(OCc3ccc(NCCNC(=O)N4CCCC(n5ccc(-c6ccc(Oc7ccccc7)cc6)n5)C4)nc3)cc2CN1

> <SMILES>
CNC(C)C(=O)NC(C(=O)N1Cc2cc(OCc3ccc(NCCNC(=O)N4CCCC(n5nc(-c6ccc(Oc7ccc(F)cc7F)cc6)c(C(N)=O)c5N)C4)nc3)ccc2CC1C(=O)NC1CCCc2ccccc21)C(C)(C)C

> <Tanimoto ROCS sim>
0.3372640013694763

> <Custom alerts>
1.0

> <Linker Num Aromatic Rings>
1.0

> <Linker Effective Length>
1.0

> <ADV>
0.995198130607605

> <PostDock Tanimoto ROCS sim>
0.9890170693397522

> <raw_Linker Num Aromatic Rings>
1.0

> <raw_Linker Effective Length>
8.0

> <raw_ADV>
-14.265999794006348

> <total_score>
0.9960538148880005

> <ID>
default_job_191

> <PostDock Tanimoto ROCS sim (re-score)>
0.983324

> <raw_ADV (re-score)>
-14.291

$$$$
default_job_192
     RDKit          3D

 92101  0  0  1  0  0  0  0  0999 V2000
  -29.0450  -21.8700   19.9290 C   0  0  0  0  0  0  0  0  0  0  0  0
  -27.7750  -23.3560   20.7420 C   0  0  0  0  0  3  0  0  0  0  0  0
  -26.6700  -24.0270   21.4860 C   0  0  0  0  0  1  0  0  0  0  0  0
  -28.0690  -22.0480   20.8770 N   0  0  0  0  0  0  0  0  0  0  0  0
  -29.3420  -23.0190   19.2800 N   0  0  0  0  0  2  0  0  0  0  0  0
  -28.5230  -23.9940   19.8240 N   0  0  0  0  0  0  0  0  0  0  0  0
  -29.6760  -20.5050   19.4980 C   0  0  0  0  0  2  0  0  0  0  0  0
  -28.7810  -18.2800   20.5420 C   0  0  0  0  0  2  0  0  0  0  0  0
  -30.7390  -18.2130   20.0230 C   0  0  0  0  0  2  0  0  0  0  0  0
  -29.9060  -17.2560   20.9050 C   0  0  0  0  0  3  0  0  0  0  0  0
  -29.8330  -19.3330   20.4590 N   0  0  1  0  0  4  0  0  0  0  0  0
  -30.0850  -19.6630   21.3790 H   0  0  0  0  0  0  0  0  0  0  0  0
  -30.5420  -14.7090   20.3930 C   0  0  0  0  0  0  0  0  0  0  0  0
  -30.3720  -12.4450   19.3420 C   0  0  0  0  0  2  0  0  0  0  0  0
  -29.4300  -12.5470   18.1190 C   0  0  0  0  0  2  0  0  0  0  0  0
  -27.9580  -12.3890   18.5480 C   0  0  0  0  0  2  0  0  0  0  0  0
  -27.5920  -13.2530   19.7820 C   0  0  0  0  0  3  0  0  0  0  0  0
  -28.6490  -13.1100   20.8940 C   0  0  0  0  0  2  0  0  0  0  0  0
  -29.9420  -13.4790   20.3050 N   0  0  0  0  0  0  0  0  0  0  0  0
  -31.7410  -14.8520   20.1410 O   0  0  0  0  0  0  0  0  0  0  0  0
  -29.6970  -15.7880   20.5520 N   0  0  0  0  0  0  0  0  0  0  0  0
  -28.7250  -15.5230   20.5480 H   0  0  0  0  0  0  0  0  0  0  0  0
  -25.2020  -13.8550   20.5020 C   0  0  0  0  0  0  0  0  0  0  0  0
  -24.1300  -13.0840   20.8630 C   0  0  0  0  0  0  0  0  0  0  0  0
  -24.5920  -11.7340   20.8420 C   0  0  0  0  0  0  0  0  0  0  0  0
  -26.2450  -12.9720   20.2680 N   0  0  0  0  0  0  0  0  0  0  0  0
  -25.8830  -11.6900   20.5350 N   0  0  0  0  0  0  0  0  0  0  0  0
  -23.8630  -10.4740   21.0350 C   0  0  0  0  0  0  0  0  0  0  0  0
  -24.2950   -9.5040   21.9680 C   0  0  0  0  0  3  0  0  0  0  0  0
  -23.5640   -8.3090   22.1490 C   0  0  0  0  0  3  0  0  0  0  0  0
  -22.3890   -8.0760   21.3950 C   0  0  0  0  0  0  0  0  0  0  0  0
  -21.9730   -9.0380   20.4560 C   0  0  0  0  0  3  0  0  0  0  0  0
  -22.7030  -10.2200   20.2740 C   0  0  0  0  0  3  0  0  0  0  0  0
  -21.6290   -6.9340   21.4860 O   0  0  0  0  0  0  0  0  0  0  0  0
  -21.5950   -6.1820   22.6350 C   0  0  0  0  0  0  0  0  0  0  0  0
  -21.1990   -6.7330   23.8710 C   0  0  0  0  0  3  0  0  0  0  0  0
  -21.1070   -5.9070   25.0100 C   0  0  0  0  0  3  0  0  0  0  0  0
  -21.4080   -4.5350   24.9120 C   0  0  0  0  0  0  0  0  0  0  0  0
  -21.8000   -3.9860   23.6800 C   0  0  0  0  0  3  0  0  0  0  0  0
  -21.8900   -4.8080   22.5430 C   0  0  0  0  0  0  0  0  0  0  0  0
  -22.2490   -4.2700   21.3530 F   0  0  0  0  0  0  0  0  0  0  0  0
  -21.3120   -3.7410   26.0050 F   0  0  0  0  0  0  0  0  0  0  0  0
  -22.7330  -13.5710   21.1220 C   0  0  0  0  0  0  0  0  0  0  0  0
  -21.9990  -12.8790   21.9910 N   0  0  0  0  0  0  0  0  0  0  0  0
  -22.3020  -14.5940   20.5890 O   0  0  0  0  0  0  0  0  0  0  0  0
  -22.3650  -12.0520   22.4380 H   0  0  0  0  0  0  0  0  0  0  0  0
  -21.0610  -13.1850   22.2060 H   0  0  0  0  0  0  0  0  0  0  0  0
  -25.3600  -15.2260   20.3300 N   0  0  0  0  0  0  0  0  0  0  0  0
  -24.5750  -15.8590   20.4540 H   0  0  0  0  0  0  0  0  0  0  0  0
  -26.1830  -15.6800   19.9560 H   0  0  0  0  0  0  0  0  0  0  0  0
  -28.4760  -25.3810   19.2180 C   0  0  0  0  0  2  0  0  0  0  0  0
  -28.3200  -26.4900   20.1380 O   0  0  0  0  0  0  0  0  0  0  0  0
  -24.6210  -31.8830   23.2420 C   0  0  0  0  0  0  0  0  0  0  0  0
  -27.1780  -27.3110   20.1030 C   0  0  0  0  0  0  0  0  0  0  0  0
  -23.3960  -30.4860   21.6250 C   0  0  0  0  0  3  0  0  0  0  0  0
  -24.8120  -28.9320   20.1710 C   0  0  0  0  0  0  0  0  0  0  0  0
  -25.9390  -30.7770   21.4230 C   0  0  0  0  0  2  0  0  0  0  0  0
  -25.9950  -29.4090   20.7490 C   0  0  0  0  0  0  0  0  0  0  0  0
  -27.1760  -28.6100   20.7040 C   0  0  0  0  0  3  0  0  0  0  0  0
  -25.9550  -26.8710   19.5440 C   0  0  0  0  0  3  0  0  0  0  0  0
  -24.7920  -27.6630   19.5720 C   0  0  0  0  0  3  0  0  0  0  0  0
  -23.5850  -29.8220   20.2410 C   0  0  0  0  0  2  0  0  0  0  0  0
  -24.6750  -31.0580   22.1590 N   0  0  0  0  0  0  0  0  0  0  0  0
  -23.5370  -32.1920   23.7570 O   0  0  0  0  0  0  0  0  0  0  0  0
  -22.7370  -29.4690   22.5860 C   0  0  0  0  0  0  0  0  0  0  0  0
  -21.4100  -29.2880   22.4590 N   0  0  0  0  0  0  0  0  0  0  0  0
  -23.4160  -28.8410   23.4030 O   0  0  0  0  0  0  0  0  0  0  0  0
  -20.9160  -29.8450   21.7760 H   0  0  0  0  0  0  0  0  0  0  0  0
  -18.0400  -28.0750   22.9700 C   0  0  0  0  0  0  0  0  0  0  0  0
  -20.5990  -28.3490   23.2340 C   0  0  0  0  0  3  0  0  0  0  0  0
  -20.7030  -26.9140   22.6660 C   0  0  0  0  0  2  0  0  0  0  0  0
  -19.6020  -26.5820   21.6530 C   0  0  0  0  0  2  0  0  0  0  0  0
  -18.2210  -26.7250   22.2980 C   0  0  0  0  0  2  0  0  0  0  0  0
  -19.1580  -28.8450   23.3940 C   0  0  0  0  0  0  0  0  0  0  0  0
  -18.9330  -30.1080   23.9810 C   0  0  0  0  0  3  0  0  0  0  0  0
  -17.6250  -30.6070   24.1460 C   0  0  0  0  0  3  0  0  0  0  0  0
  -16.5240  -29.8360   23.7340 C   0  0  0  0  0  3  0  0  0  0  0  0
  -16.7330  -28.5710   23.1540 C   0  0  0  0  0  3  0  0  0  0  0  0
  -25.9090  -32.5040   23.8670 C   0  0  0  0  0  3  0  0  0  0  0  0
  -26.4240  -31.7300   25.1420 C   0  0  1  0  0  0  0  0  0  0  0  0
  -25.3310  -31.4970   26.2130 C   0  0  0  0  0  1  0  0  0  0  0  0
  -26.9980  -30.3510   24.7480 C   0  0  0  0  0  1  0  0  0  0  0  0
  -27.5850  -32.5160   25.7960 C   0  0  0  0  0  1  0  0  0  0  0  0
  -25.6060  -33.9040   24.2020 N   0  0  0  0  0  0  0  0  0  0  0  0
  -25.9250  -34.9580   23.4400 C   0  0  0  0  0  0  0  0  0  0  0  0
  -26.5730  -34.8530   22.3950 O   0  0  0  0  0  0  0  0  0  0  0  0
  -25.0380  -34.0550   25.0230 H   0  0  0  0  0  0  0  0  0  0  0  0
  -24.1890  -36.7460   23.1100 C   0  0  0  0  0  1  0  0  0  0  0  0
  -25.4450  -36.3480   23.9040 C   0  0  0  0  0  3  0  0  0  0  0  0
  -27.5990  -37.2270   24.6900 C   0  0  0  0  0  1  0  0  0  0  0  0
  -26.4760  -37.4010   23.7700 N   0  0  0  0  0  0  0  0  0  0  0  0
  -26.0770  -38.3230   23.9260 H   0  0  0  0  0  0  0  0  0  0  0  0
  1  4  2  0
  2  4  1  0
  2  3  1  0
  5  6  1  0
  5  1  1  0
  6  2  1  0
  7  1  1  0
  7 11  1  0
  8 10  1  0
  9 11  1  0
  9 10  1  0
 10 21  1  0
 11  8  1  0
 11 12  1  1
 13 21  1  0
 14 19  1  0
 15 16  1  0
 15 14  1  0
 17 16  1  0
 17 26  1  0
 17 18  1  0
 19 13  1  0
 19 18  1  0
 20 13  2  0
 22 21  1  0
 23 24  2  0
 24 43  1  0
 25 24  1  0
 25 28  1  0
 26 23  1  0
 26 27  1  0
 27 25  2  0
 28 29  1  0
 29 30  2  0
 31 34  1  0
 31 30  1  0
 32 31  2  0
 33 32  1  0
 33 28  2  0
 34 35  1  0
 35 36  1  0
 36 37  2  0
 38 37  1  0
 38 42  1  0
 39 38  2  0
 40 35  2  0
 40 39  1  0
 41 40  1  0
 43 44  1  0
 44 47  1  0
 44 46  1  0
 45 43  2  0
 48 49  1  0
 48 23  1  0
 50 48  1  0
 51  6  1  0
 51 52  1  0
 53 64  2  0
 54 52  1  0
 54 59  1  0
 55 63  1  0
 55 65  1  0
 56 62  1  0
 56 58  1  0
 57 63  1  0
 58 57  1  0
 59 58  2  0
 60 61  1  0
 60 54  2  0
 61 56  2  0
 62 55  1  0
 63 53  1  0
 65 67  2  0
 66 65  1  0
 68 66  1  0
 69 78  2  0
 69 74  1  0
 70 66  1  0
 70 74  1  0
 71 70  1  0
 72 73  1  0
 72 71  1  0
 73 69  1  0
 74 75  2  0
 75 76  1  0
 77 76  2  0
 78 77  1  0
 79 53  1  0
 79 84  1  0
 79 80  1  0
 80 83  1  1
 80 81  1  0
 82 80  1  0
 84 87  1  0
 85 89  1  0
 85 84  1  0
 86 85  2  0
 89 88  1  0
 91 89  1  0
 91 92  1  0
 91 90  1  0
M  ISO  4  13 100  21 100  51 101  52 101
M  END
>  <TORSDO>  (93) 
F 19

>  <SCORE>  (93) 
-14.317

>  <name>  (93) 
92

>  <ligand_id>  (93) 
92

>  <original_smiles>  (93) 
[H]c1c([H])c([H])c2c(c1[H])C([H])([H])C([H])([H])C([H])([H])C2([H])N([H])C(=O)C1([H])N(C(=O)C([H])(N([H])C(=O)C([H])(N([H])C([H])([H])[H])C([H])([H])[H])C(C([H])([H])[H])(C([H])([H])[H])C([H])([H])[H])C([H])([H])c2c([H])c(OC([H])([H])n3nc(C([H])([H])[N+]4([H])C([H])([H])C([H])(N([H])C(=O)N5C([H])([H])C([H])([H])C([H])([H])C([H])(n6nc(-c7c([H])c([H])c(Oc8c([H])c([H])c(F)c([H])c8F)c([H])c7[H])c(C(=O)N([H])[H])c6N([H])[H])C5([H])[H])C4([H])[H])nc3C([H])([H])[H])c([H])c([H])c2C1([H])[H]

>  <smiles>  (93) 
[H]c1c([H])c([H])c2c(c1[H])C([H])([H])C([H])([H])C([H])([H])C2([H])N([H])C(=O)C1([H])N(C(=O)C([H])(N([H])C(=O)C([H])(N([H])C([H])([H])[H])C([H])([H])[H])C(C([H])([H])[H])(C([H])([H])[H])C([H])([H])[H])C([H])([H])c2c([H])c(OC([H])([H])n3nc(C([H])([H])[N+]4([H])C([H])([H])C([H])(N([H])C(=O)N5C([H])([H])C([H])([H])C([H])([H])C([H])(n6nc(-c7c([H])c([H])c(Oc8c([H])c([H])c(F)c([H])c8F)c([H])c7[H])c(C(=O)N([H])[H])c6N([H])[H])C5([H])[H])C4([H])[H])nc3C([H])([H])[H])c([H])c([H])c2C1([H])[H]

> <Step>
189.0

> <Scaffold>
O=C(NC1CCCc2ccccc21)C1Cc2ccc(OCn3cnc(CN4CC(NC(=O)N5CCCC(n6ccc(-c7ccc(Oc8ccccc8)cc7)n6)C5)C4)n3)cc2CN1

> <SMILES>
CNC(C)C(=O)NC(C(=O)N1Cc2cc(OCn3nc(CN4CC(NC(=O)N5CCCC(n6nc(-c7ccc(Oc8ccc(F)cc8F)cc7)c(C(N)=O)c6N)C5)C4)nc3C)ccc2CC1C(=O)NC1CCCc2ccccc21)C(C)(C)C

> <Tanimoto ROCS sim>
0.24199578166007996

> <Custom alerts>
1.0

> <Linker Num Aromatic Rings>
1.0

> <Linker Effective Length>
1.0

> <ADV>
0.9953974485397339

> <PostDock Tanimoto ROCS sim>
0.9888109564781189

> <raw_Linker Num Aromatic Rings>
1.0

> <raw_Linker Effective Length>
8.0

> <raw_ADV>
-14.34000015258789

> <total_score>
0.9960521459579468

> <ID>
default_job_192

> <PostDock Tanimoto ROCS sim (re-score)>
0.9808217

> <raw_ADV (re-score)>
-14.317

$$$$
default_job_193
     RDKit          3D

 94103  0  0  1  0  0  0  0  0999 V2000
  -29.2030  -21.7400   21.2270 C   0  0  0  0  0  2  0  0  0  0  0  0
  -28.4070  -21.3850   18.9260 C   0  0  0  0  0  2  0  0  0  0  0  0
  -29.2590  -23.3040   20.9900 C   0  0  0  0  0  2  0  0  0  0  0  0
  -28.4360  -22.9210   18.6470 C   0  0  0  0  0  2  0  0  0  0  0  0
  -29.4950  -20.9360   19.9300 C   0  0  0  0  0  3  0  0  0  0  0  0
  -28.3070  -23.8700   19.8830 C   0  0  0  0  0  3  0  0  0  0  0  0
  -30.6400  -14.6630   20.3830 C   0  0  0  0  0  0  0  0  0  0  0  0
  -30.4020  -12.4170   19.3590 C   0  0  0  0  0  2  0  0  0  0  0  0
  -29.4630  -12.5490   18.1400 C   0  0  0  0  0  2  0  0  0  0  0  0
  -27.9920  -12.3920   18.5730 C   0  0  0  0  0  2  0  0  0  0  0  0
  -27.6340  -13.2590   19.8080 C   0  0  0  0  0  3  0  0  0  0  0  0
  -28.6950  -13.1250   20.9250 C   0  0  0  0  0  2  0  0  0  0  0  0
  -30.0020  -13.4500   20.3380 N   0  0  0  0  0  0  0  0  0  0  0  0
  -31.8160  -14.7560   20.0180 O   0  0  0  0  0  0  0  0  0  0  0  0
  -29.3400  -18.3150   20.7420 C   0  0  0  0  0  3  0  0  0  0  0  0
  -29.7760  -19.3970   19.9800 C   0  0  0  0  0  0  0  0  0  0  0  0
  -30.0450  -17.1480   20.2490 C   0  0  0  0  0  0  0  0  0  0  0  0
  -30.8410  -17.4920   19.2560 N   0  0  0  0  0  0  0  0  0  0  0  0
  -30.6610  -18.8240   19.0620 N   0  0  0  0  0  0  0  0  0  0  0  0
  -29.8850  -15.7670   20.7030 N   0  0  0  0  0  0  0  0  0  0  0  0
  -29.0100  -15.5650   21.1600 H   0  0  0  0  0  0  0  0  0  0  0  0
  -25.2450  -13.8480   20.5420 C   0  0  0  0  0  0  0  0  0  0  0  0
  -24.1820  -13.0710   20.9140 C   0  0  0  0  0  0  0  0  0  0  0  0
  -24.6470  -11.7210   20.8760 C   0  0  0  0  0  0  0  0  0  0  0  0
  -26.2900  -12.9710   20.2990 N   0  0  0  0  0  0  0  0  0  0  0  0
  -25.9370  -11.6870   20.5620 N   0  0  0  0  0  0  0  0  0  0  0  0
  -23.9240  -10.4560   21.0650 C   0  0  0  0  0  0  0  0  0  0  0  0
  -24.3660   -9.4830   21.9870 C   0  0  0  0  0  3  0  0  0  0  0  0
  -23.6430   -8.2840   22.1630 C   0  0  0  0  0  3  0  0  0  0  0  0
  -22.4630   -8.0490   21.4170 C   0  0  0  0  0  0  0  0  0  0  0  0
  -22.0410   -9.0120   20.4840 C   0  0  0  0  0  3  0  0  0  0  0  0
  -22.7650  -10.2020   20.3040 C   0  0  0  0  0  3  0  0  0  0  0  0
  -21.7100   -6.9030   21.5040 O   0  0  0  0  0  0  0  0  0  0  0  0
  -21.6780   -6.1490   22.6500 C   0  0  0  0  0  0  0  0  0  0  0  0
  -21.2660   -6.6920   23.8860 C   0  0  0  0  0  3  0  0  0  0  0  0
  -21.1780   -5.8640   25.0240 C   0  0  0  0  0  3  0  0  0  0  0  0
  -21.4930   -4.4950   24.9260 C   0  0  0  0  0  0  0  0  0  0  0  0
  -21.8980   -3.9530   23.6930 C   0  0  0  0  0  3  0  0  0  0  0  0
  -21.9870   -4.7770   22.5590 C   0  0  0  0  0  0  0  0  0  0  0  0
  -22.3570   -4.2440   21.3690 F   0  0  0  0  0  0  0  0  0  0  0  0
  -21.4010   -3.6990   26.0170 F   0  0  0  0  0  0  0  0  0  0  0  0
  -22.7850  -13.5440   21.1930 C   0  0  0  0  0  0  0  0  0  0  0  0
  -22.0610  -12.8430   22.0570 N   0  0  0  0  0  0  0  0  0  0  0  0
  -22.3440  -14.5720   20.6790 O   0  0  0  0  0  0  0  0  0  0  0  0
  -22.4300  -12.0110   22.4950 H   0  0  0  0  0  0  0  0  0  0  0  0
  -21.1230  -13.1420   22.2860 H   0  0  0  0  0  0  0  0  0  0  0  0
  -25.4050  -15.2210   20.3690 N   0  0  0  0  0  0  0  0  0  0  0  0
  -24.6330  -15.8680   20.4790 H   0  0  0  0  0  0  0  0  0  0  0  0
  -26.2420  -15.6630   20.0120 H   0  0  0  0  0  0  0  0  0  0  0  0
  -31.6110  -18.6010   16.7570 C   0  0  0  0  0  1  0  0  0  0  0  0
  -32.8250  -19.8970   18.5740 C   0  0  0  0  0  1  0  0  0  0  0  0
  -31.4570  -19.4750   18.0170 C   0  0  0  0  0  3  0  0  0  0  0  0
  -28.5670  -25.3780   19.4120 C   0  0  0  0  0  2  0  0  0  0  0  0
  -28.3620  -26.5620   20.2540 O   0  0  0  0  0  0  0  0  0  0  0  0
  -24.5990  -31.9040   23.2400 C   0  0  0  0  0  0  0  0  0  0  0  0
  -27.2140  -27.3570   20.1790 C   0  0  0  0  0  0  0  0  0  0  0  0
  -23.3910  -30.4930   21.6120 C   0  0  0  0  0  3  0  0  0  0  0  0
  -24.8370  -28.9410   20.1820 C   0  0  0  0  0  0  0  0  0  0  0  0
  -25.9260  -30.8160   21.4220 C   0  0  0  0  0  2  0  0  0  0  0  0
  -26.0030  -29.4390   20.7760 C   0  0  0  0  0  0  0  0  0  0  0  0
  -27.1890  -28.6550   20.7720 C   0  0  0  0  0  3  0  0  0  0  0  0
  -26.0230  -26.8940   19.5760 C   0  0  0  0  0  3  0  0  0  0  0  0
  -24.8470  -27.6720   19.5780 C   0  0  0  0  0  3  0  0  0  0  0  0
  -23.5990  -29.8130   20.2320 C   0  0  0  0  0  2  0  0  0  0  0  0
  -24.6590  -31.0840   22.1500 N   0  0  0  0  0  0  0  0  0  0  0  0
  -23.5120  -32.2070   23.7520 O   0  0  0  0  0  0  0  0  0  0  0  0
  -22.7330  -29.4780   22.5770 C   0  0  0  0  0  0  0  0  0  0  0  0
  -21.4070  -29.2970   22.4520 N   0  0  0  0  0  0  0  0  0  0  0  0
  -23.4140  -28.8550   23.3960 O   0  0  0  0  0  0  0  0  0  0  0  0
  -20.9170  -29.8520   21.7640 H   0  0  0  0  0  0  0  0  0  0  0  0
  -18.0310  -28.1040   22.9560 C   0  0  0  0  0  0  0  0  0  0  0  0
  -20.5900  -28.3610   23.2250 C   0  0  0  0  0  3  0  0  0  0  0  0
  -20.6910  -26.9300   22.6500 C   0  0  0  0  0  2  0  0  0  0  0  0
  -19.5880  -26.6070   21.6370 C   0  0  0  0  0  2  0  0  0  0  0  0
  -18.2070  -26.7550   22.2820 C   0  0  0  0  0  2  0  0  0  0  0  0
  -19.1510  -28.8660   23.3850 C   0  0  0  0  0  0  0  0  0  0  0  0
  -18.9330  -30.1290   23.9770 C   0  0  0  0  0  3  0  0  0  0  0  0
  -17.6290  -30.6310   24.1440 C   0  0  0  0  0  3  0  0  0  0  0  0
  -16.5230  -29.8660   23.7310 C   0  0  0  0  0  3  0  0  0  0  0  0
  -16.7250  -28.6050   23.1440 C   0  0  0  0  0  3  0  0  0  0  0  0
  -25.8850  -32.5250   23.8690 C   0  0  0  0  0  3  0  0  0  0  0  0
  -25.5840  -33.9250   24.2000 N   0  0  0  0  0  0  0  0  0  0  0  0
  -25.9120  -34.9750   23.4360 C   0  0  0  0  0  0  0  0  0  0  0  0
  -26.5750  -34.8680   22.4020 O   0  0  0  0  0  0  0  0  0  0  0  0
  -24.9930  -34.0810   25.0040 H   0  0  0  0  0  0  0  0  0  0  0  0
  -24.1830  -36.7680   23.0910 C   0  0  0  0  0  1  0  0  0  0  0  0
  -25.4290  -36.3640   23.8950 C   0  0  0  0  0  3  0  0  0  0  0  0
  -27.5700  -37.2480   24.7080 C   0  0  0  0  0  1  0  0  0  0  0  0
  -26.4620  -37.4160   23.7730 N   0  0  0  0  0  0  0  0  0  0  0  0
  -26.0570  -38.3370   23.9220 H   0  0  0  0  0  0  0  0  0  0  0  0
  -26.3990  -31.7530   25.1470 C   0  0  1  0  0  0  0  0  0  0  0  0
  -25.3030  -31.5220   26.2130 C   0  0  0  0  0  1  0  0  0  0  0  0
  -26.9770  -30.3730   24.7590 C   0  0  0  0  0  1  0  0  0  0  0  0
  -27.5510  -32.5440   25.8100 C   0  0  0  0  0  1  0  0  0  0  0  0
  2  5  1  0
  3  1  1  0
  4  2  1  0
  4  6  1  0
  5 16  1  0
  5  1  1  0
  6 53  1  0
  6  3  1  0
  7 20  1  0
  8 13  1  0
  9 10  1  0
  9  8  1  0
 11 10  1  0
 11 25  1  0
 11 12  1  0
 13  7  1  0
 13 12  1  0
 14  7  2  0
 16 15  2  0
 17 20  1  0
 17 15  1  0
 18 17  2  0
 19 18  1  0
 19 16  1  0
 20 21  1  0
 22 23  2  0
 23 42  1  0
 24 23  1  0
 24 27  1  0
 25 22  1  0
 25 26  1  0
 26 24  2  0
 27 28  1  0
 28 29  2  0
 30 33  1  0
 30 29  1  0
 31 30  2  0
 32 31  1  0
 32 27  2  0
 33 34  1  0
 34 35  1  0
 35 36  2  0
 37 36  1  0
 37 41  1  0
 38 37  2  0
 39 34  2  0
 39 38  1  0
 40 39  1  0
 42 43  1  0
 43 46  1  0
 43 45  1  0
 44 42  2  0
 47 48  1  0
 47 22  1  0
 49 47  1  0
 50 52  1  0
 52 51  1  0
 52 19  1  0
 53 54  1  0
 55 66  2  0
 56 54  1  0
 56 61  1  0
 57 65  1  0
 57 67  1  0
 58 64  1  0
 58 60  1  0
 59 65  1  0
 60 59  1  0
 61 60  2  0
 62 63  1  0
 62 56  2  0
 63 58  2  0
 64 57  1  0
 65 55  1  0
 67 69  2  0
 68 67  1  0
 70 68  1  0
 71 80  2  0
 71 76  1  0
 72 68  1  0
 72 76  1  0
 73 72  1  0
 74 75  1  0
 74 73  1  0
 75 71  1  0
 76 77  2  0
 77 78  1  0
 79 78  2  0
 80 79  1  0
 81 55  1  0
 81 82  1  0
 81 91  1  0
 82 85  1  0
 83 87  1  0
 83 82  1  0
 84 83  2  0
 87 86  1  0
 89 87  1  0
 89 90  1  0
 89 88  1  0
 91 94  1  1
 91 92  1  0
 93 91  1  0
M  ISO  4   7 100  20 100  53 101  54 101
M  END
>  <TORSDO>  (94) 
F 18

>  <SCORE>  (94) 
-14.867

>  <name>  (94) 
93

>  <ligand_id>  (94) 
93

>  <original_smiles>  (94) 
[H]c1c([H])c([H])c2c(c1[H])C([H])([H])C([H])([H])C([H])([H])C2([H])N([H])C(=O)C1([H])N(C(=O)C([H])(N([H])C(=O)C([H])(N([H])C([H])([H])[H])C([H])([H])[H])C(C([H])([H])[H])(C([H])([H])[H])C([H])([H])[H])C([H])([H])c2c([H])c(OC([H])([H])C3([H])C([H])([H])C([H])([H])C([H])(c4c([H])c(N([H])C(=O)N5C([H])([H])C([H])([H])C([H])([H])C([H])(n6nc(-c7c([H])c([H])c(Oc8c([H])c([H])c(F)c([H])c8F)c([H])c7[H])c(C(=O)N([H])[H])c6N([H])[H])C5([H])[H])nn4C([H])(C([H])([H])[H])C([H])([H])[H])C([H])([H])C3([H])[H])c([H])c([H])c2C1([H])[H]

>  <smiles>  (94) 
[H]c1c([H])c([H])c2c(c1[H])C([H])([H])C([H])([H])C([H])([H])C2([H])N([H])C(=O)C1([H])N(C(=O)C([H])(N([H])C(=O)C([H])(N([H])C([H])([H])[H])C([H])([H])[H])C(C([H])([H])[H])(C([H])([H])[H])C([H])([H])[H])C([H])([H])c2c([H])c(OC([H])([H])C3([H])C([H])([H])C([H])([H])C([H])(c4c([H])c(N([H])C(=O)N5C([H])([H])C([H])([H])C([H])([H])C([H])(n6nc(-c7c([H])c([H])c(Oc8c([H])c([H])c(F)c([H])c8F)c([H])c7[H])c(C(=O)N([H])[H])c6N([H])[H])C5([H])[H])nn4C([H])(C([H])([H])[H])C([H])([H])[H])C([H])([H])C3([H])[H])c([H])c([H])c2C1([H])[H]

> <Step>
117.0

> <Scaffold>
O=C(NC1CCCc2ccccc21)C1Cc2ccc(OCC3CCC(c4cc(NC(=O)N5CCCC(n6ccc(-c7ccc(Oc8ccccc8)cc7)n6)C5)n[nH]4)CC3)cc2CN1

> <SMILES>
CNC(C)C(=O)NC(C(=O)N1Cc2cc(OCC3CCC(c4cc(NC(=O)N5CCCC(n6nc(-c7ccc(Oc8ccc(F)cc8F)cc7)c(C(N)=O)c6N)C5)nn4C(C)C)CC3)ccc2CC1C(=O)NC1CCCc2ccccc21)C(C)(C)C

> <Tanimoto ROCS sim>
0.28278306126594543

> <Custom alerts>
1.0

> <Linker Num Aromatic Rings>
1.0

> <Linker Effective Length>
1.0

> <ADV>
0.9966191053390503

> <PostDock Tanimoto ROCS sim>
0.9875816106796265

> <raw_Linker Num Aromatic Rings>
1.0

> <raw_Linker Effective Length>
8.0

> <raw_ADV>
-14.878000259399414

> <total_score>
0.996050238609314

> <ID>
default_job_193

> <PostDock Tanimoto ROCS sim (re-score)>
0.983851

> <raw_ADV (re-score)>
-14.867

$$$$
default_job_194
     RDKit          3D

 90 98  0  0  1  0  0  0  0  0999 V2000
  -31.1540  -21.8110   20.3510 C   0  0  0  0  0  3  0  0  0  0  0  0
  -29.3130  -20.3240   20.8110 C   0  0  0  0  0  3  0  0  0  0  0  0
  -31.9250  -20.6720   20.0600 C   0  0  0  0  0  3  0  0  0  0  0  0
  -29.8070  -21.6500   20.7220 C   0  0  0  0  0  0  0  0  0  0  0  0
  -30.1610  -19.2320   20.5100 C   0  0  0  0  0  0  0  0  0  0  0  0
  -31.4420  -19.4130   20.1260 N   0  0  0  0  0  0  0  0  0  0  0  0
  -28.8920  -22.8430   21.0300 C   0  0  0  0  0  2  0  0  0  0  0  0
  -29.2970  -24.2470   20.4770 C   0  0  0  0  0  2  0  0  0  0  0  0
  -28.1270  -25.2570   20.6200 C   0  0  0  0  0  2  0  0  0  0  0  0
  -28.3720  -26.6380   20.2460 O   0  0  0  0  0  0  0  0  0  0  0  0
  -24.5880  -31.9190   23.2720 C   0  0  0  0  0  0  0  0  0  0  0  0
  -27.2330  -27.4330   20.2130 C   0  0  0  0  0  0  0  0  0  0  0  0
  -23.3930  -30.5130   21.6320 C   0  0  0  0  0  3  0  0  0  0  0  0
  -24.8520  -28.9790   20.2130 C   0  0  0  0  0  0  0  0  0  0  0  0
  -25.9290  -30.8510   21.4640 C   0  0  0  0  0  2  0  0  0  0  0  0
  -26.0140  -29.4840   20.8130 C   0  0  0  0  0  0  0  0  0  0  0  0
  -27.2080  -28.7190   20.8090 C   0  0  0  0  0  3  0  0  0  0  0  0
  -26.0540  -26.9680   19.5850 C   0  0  0  0  0  3  0  0  0  0  0  0
  -24.8690  -27.7200   19.5970 C   0  0  0  0  0  3  0  0  0  0  0  0
  -23.6120  -29.8400   20.2540 C   0  0  0  0  0  2  0  0  0  0  0  0
  -24.6540  -31.1060   22.1810 N   0  0  0  0  0  0  0  0  0  0  0  0
  -23.4980  -32.2180   23.7790 O   0  0  0  0  0  0  0  0  0  0  0  0
  -22.7320  -29.4900   22.5870 C   0  0  0  0  0  0  0  0  0  0  0  0
  -21.4110  -29.2990   22.4430 N   0  0  0  0  0  0  0  0  0  0  0  0
  -23.4070  -28.8700   23.4130 O   0  0  0  0  0  0  0  0  0  0  0  0
  -20.9250  -29.8470   21.7470 H   0  0  0  0  0  0  0  0  0  0  0  0
  -18.0340  -28.0940   22.9130 C   0  0  0  0  0  0  0  0  0  0  0  0
  -20.5880  -28.3600   23.2090 C   0  0  0  0  0  3  0  0  0  0  0  0
  -20.7010  -26.9280   22.6380 C   0  0  0  0  0  2  0  0  0  0  0  0
  -19.6100  -26.6000   21.6130 C   0  0  0  0  0  2  0  0  0  0  0  0
  -18.2200  -26.7440   22.2430 C   0  0  0  0  0  2  0  0  0  0  0  0
  -19.1450  -28.8610   23.3520 C   0  0  0  0  0  0  0  0  0  0  0  0
  -18.9180  -30.1250   23.9370 C   0  0  0  0  0  3  0  0  0  0  0  0
  -17.6100  -30.6230   24.0860 C   0  0  0  0  0  3  0  0  0  0  0  0
  -16.5120  -29.8540   23.6640 C   0  0  0  0  0  3  0  0  0  0  0  0
  -16.7250  -28.5920   23.0830 C   0  0  0  0  0  3  0  0  0  0  0  0
  -25.8710  -32.5430   23.9070 C   0  0  0  0  0  3  0  0  0  0  0  0
  -25.5690  -33.9460   24.2210 N   0  0  0  0  0  0  0  0  0  0  0  0
  -25.9080  -34.9860   23.4480 C   0  0  0  0  0  0  0  0  0  0  0  0
  -26.5840  -34.8660   22.4230 O   0  0  0  0  0  0  0  0  0  0  0  0
  -24.9720  -34.1130   25.0170 H   0  0  0  0  0  0  0  0  0  0  0  0
  -24.1950  -36.7830   23.0510 C   0  0  0  0  0  1  0  0  0  0  0  0
  -25.4230  -36.3810   23.8850 C   0  0  0  0  0  3  0  0  0  0  0  0
  -27.5480  -37.2610   24.7390 C   0  0  0  0  0  1  0  0  0  0  0  0
  -26.4630  -37.4260   23.7770 N   0  0  0  0  0  0  0  0  0  0  0  0
  -26.0600  -38.3510   23.9090 H   0  0  0  0  0  0  0  0  0  0  0  0
  -26.3690  -31.7790   25.1950 C   0  0  1  0  0  0  0  0  0  0  0  0
  -25.2610  -31.5530   26.2500 C   0  0  0  0  0  1  0  0  0  0  0  0
  -26.9530  -30.3960   24.8250 C   0  0  0  0  0  1  0  0  0  0  0  0
  -27.5130  -32.5750   25.8650 C   0  0  0  0  0  1  0  0  0  0  0  0
  -29.6640  -17.7790   20.4890 C   0  0  0  0  0  2  0  0  0  0  0  0
  -30.3980  -16.8160   21.4630 C   0  0  0  0  0  2  0  0  0  0  0  0
  -30.6660  -14.4840   20.5360 C   0  0  0  0  0  0  0  0  0  0  0  0
  -30.3800  -12.3710   19.2860 C   0  0  0  0  0  2  0  0  0  0  0  0
  -29.4250  -12.5920   18.0960 C   0  0  0  0  0  2  0  0  0  0  0  0
  -27.9550  -12.4370   18.5350 C   0  0  0  0  0  2  0  0  0  0  0  0
  -27.6240  -13.2470   19.8150 C   0  0  0  0  0  3  0  0  0  0  0  0
  -28.6780  -12.9820   20.9110 C   0  0  0  0  0  2  0  0  0  0  0  0
  -30.0030  -13.3100   20.3550 N   0  0  0  0  0  0  0  0  0  0  0  0
  -31.7460  -14.7360   19.9900 O   0  0  0  0  0  0  0  0  0  0  0  0
  -30.0170  -15.4040   21.2730 N   0  0  0  0  0  0  0  0  0  0  0  0
  -29.1550  -15.1030   21.7070 H   0  0  0  0  0  0  0  0  0  0  0  0
  -25.2200  -13.8470   20.5200 C   0  0  0  0  0  0  0  0  0  0  0  0
  -24.1550  -13.0710   20.8900 C   0  0  0  0  0  0  0  0  0  0  0  0
  -24.6210  -11.7200   20.8590 C   0  0  0  0  0  0  0  0  0  0  0  0
  -26.2690  -12.9700   20.2900 N   0  0  0  0  0  0  0  0  0  0  0  0
  -25.9110  -11.6860   20.5490 N   0  0  0  0  0  0  0  0  0  0  0  0
  -23.9030  -10.4560   21.0510 C   0  0  0  0  0  0  0  0  0  0  0  0
  -24.3410   -9.4940   21.9880 C   0  0  0  0  0  3  0  0  0  0  0  0
  -23.6250   -8.2910   22.1650 C   0  0  0  0  0  3  0  0  0  0  0  0
  -22.4560   -8.0420   21.4090 C   0  0  0  0  0  0  0  0  0  0  0  0
  -22.0370   -8.9940   20.4610 C   0  0  0  0  0  3  0  0  0  0  0  0
  -22.7540  -10.1880   20.2820 C   0  0  0  0  0  3  0  0  0  0  0  0
  -21.7090   -6.8920   21.4970 O   0  0  0  0  0  0  0  0  0  0  0  0
  -21.6610   -6.1530   22.6500 C   0  0  0  0  0  0  0  0  0  0  0  0
  -21.2070   -6.7000   23.8690 C   0  0  0  0  0  3  0  0  0  0  0  0
  -21.1070   -5.8830   25.0140 C   0  0  0  0  0  3  0  0  0  0  0  0
  -21.4550   -4.5200   24.9400 C   0  0  0  0  0  0  0  0  0  0  0  0
  -21.9060   -3.9740   23.7260 C   0  0  0  0  0  3  0  0  0  0  0  0
  -22.0050   -4.7880   22.5840 C   0  0  0  0  0  0  0  0  0  0  0  0
  -22.4190   -4.2490   21.4120 F   0  0  0  0  0  0  0  0  0  0  0  0
  -21.3520   -3.7350   26.0380 F   0  0  0  0  0  0  0  0  0  0  0  0
  -22.7560  -13.5420   21.1650 C   0  0  0  0  0  0  0  0  0  0  0  0
  -22.0300  -12.8400   22.0290 N   0  0  0  0  0  0  0  0  0  0  0  0
  -22.3140  -14.5670   20.6510 O   0  0  0  0  0  0  0  0  0  0  0  0
  -22.3980  -12.0120   22.4750 H   0  0  0  0  0  0  0  0  0  0  0  0
  -21.0900  -13.1360   22.2510 H   0  0  0  0  0  0  0  0  0  0  0  0
  -25.3800  -15.2180   20.3400 N   0  0  0  0  0  0  0  0  0  0  0  0
  -24.6110  -15.8720   20.4480 H   0  0  0  0  0  0  0  0  0  0  0  0
  -26.2260  -15.6550   19.9970 H   0  0  0  0  0  0  0  0  0  0  0  0
  1  4  1  0
  3  6  1  0
  3  1  2  0
  4  2  2  0
  4  7  1  0
  5  2  1  0
  6  5  2  0
  8  9  1  0
  8  7  1  0
 10  9  1  0
 11 22  2  0
 12 10  1  0
 12 17  1  0
 13 21  1  0
 13 23  1  0
 14 20  1  0
 14 16  1  0
 15 21  1  0
 16 15  1  0
 17 16  2  0
 18 19  1  0
 18 12  2  0
 19 14  2  0
 20 13  1  0
 21 11  1  0
 23 25  2  0
 24 23  1  0
 26 24  1  0
 27 36  2  0
 27 32  1  0
 28 24  1  0
 28 32  1  0
 29 28  1  0
 30 31  1  0
 30 29  1  0
 31 27  1  0
 32 33  2  0
 33 34  1  0
 35 34  2  0
 36 35  1  0
 37 11  1  0
 37 38  1  0
 37 47  1  0
 38 41  1  0
 39 43  1  0
 39 38  1  0
 40 39  2  0
 43 42  1  0
 45 43  1  0
 45 46  1  0
 45 44  1  0
 47 50  1  1
 47 48  1  0
 49 47  1  0
 51  5  1  0
 51 52  1  0
 53 61  1  0
 54 59  1  0
 55 56  1  0
 55 54  1  0
 57 56  1  0
 57 66  1  0
 57 58  1  0
 59 53  1  0
 59 58  1  0
 60 53  2  0
 61 52  1  0
 61 62  1  0
 63 64  2  0
 64 83  1  0
 65 64  1  0
 65 68  1  0
 66 63  1  0
 66 67  1  0
 67 65  2  0
 68 69  1  0
 69 70  2  0
 71 74  1  0
 71 70  1  0
 72 71  2  0
 73 72  1  0
 73 68  2  0
 74 75  1  0
 75 76  1  0
 76 77  2  0
 78 77  1  0
 78 82  1  0
 79 78  2  0
 80 75  2  0
 80 79  1  0
 81 80  1  0
 83 84  1  0
 84 87  1  0
 84 86  1  0
 85 83  2  0
 88 89  1  0
 88 63  1  0
 90 88  1  0
M  ISO  4   9 101  10 101  53 100  61 100
M  END
>  <TORSDO>  (95) 
F 21

>  <SCORE>  (95) 
-13.689

>  <name>  (95) 
94

>  <ligand_id>  (95) 
94

>  <original_smiles>  (95) 
[H]c1nc(C([H])([H])C([H])([H])N([H])C(=O)N2C([H])([H])C([H])([H])C([H])([H])C([H])(n3nc(-c4c([H])c([H])c(Oc5c([H])c([H])c(F)c([H])c5F)c([H])c4[H])c(C(=O)N([H])[H])c3N([H])[H])C2([H])[H])c([H])c(C([H])([H])C([H])([H])C([H])([H])Oc2c([H])c([H])c3c(c2[H])C([H])([H])N(C(=O)C([H])(N([H])C(=O)C([H])(N([H])C([H])([H])[H])C([H])([H])[H])C(C([H])([H])[H])(C([H])([H])[H])C([H])([H])[H])C([H])(C(=O)N([H])C2([H])c4c([H])c([H])c([H])c([H])c4C([H])([H])C([H])([H])C2([H])[H])C3([H])[H])c1[H]

>  <smiles>  (95) 
[H]c1nc(C([H])([H])C([H])([H])N([H])C(=O)N2C([H])([H])C([H])([H])C([H])([H])C([H])(n3nc(-c4c([H])c([H])c(Oc5c([H])c([H])c(F)c([H])c5F)c([H])c4[H])c(C(=O)N([H])[H])c3N([H])[H])C2([H])[H])c([H])c(C([H])([H])C([H])([H])C([H])([H])Oc2c([H])c([H])c3c(c2[H])C([H])([H])N(C(=O)C([H])(N([H])C(=O)C([H])(N([H])C([H])([H])[H])C([H])([H])[H])C(C([H])([H])[H])(C([H])([H])[H])C([H])([H])[H])C([H])(C(=O)N([H])C2([H])c4c([H])c([H])c([H])c([H])c4C([H])([H])C([H])([H])C2([H])[H])C3([H])[H])c1[H]

> <Step>
94.0

> <Scaffold>
O=C(NC1CCCc2ccccc21)C1Cc2ccc(OCCCc3ccnc(CCNC(=O)N4CCCC(n5ccc(-c6ccc(Oc7ccccc7)cc6)n5)C4)c3)cc2CN1

> <SMILES>
CNC(C)C(=O)NC(C(=O)N1Cc2cc(OCCCc3ccnc(CCNC(=O)N4CCCC(n5nc(-c6ccc(Oc7ccc(F)cc7F)cc6)c(C(N)=O)c5N)C4)c3)ccc2CC1C(=O)NC1CCCc2ccccc21)C(C)(C)C

> <Tanimoto ROCS sim>
0.2167556881904602

> <Custom alerts>
1.0

> <Linker Num Aromatic Rings>
1.0

> <Linker Effective Length>
1.0

> <ADV>
0.9932228326797485

> <PostDock Tanimoto ROCS sim>
0.9909767508506775

> <raw_Linker Num Aromatic Rings>
1.0

> <raw_Linker Effective Length>
8.0

> <raw_ADV>
-13.663999557495117

> <total_score>
0.9960498809814453

> <ID>
default_job_194

> <PostDock Tanimoto ROCS sim (re-score)>
0.9840752

> <raw_ADV (re-score)>
-13.689

$$$$
default_job_195
     RDKit          3D

 96105  0  0  1  0  0  0  0  0999 V2000
  -31.7640  -24.0220   19.6520 C   0  0  0  0  0  3  0  0  0  0  0  0
  -30.6180  -24.8150   19.7730 C   0  0  0  0  0  3  0  0  0  0  0  0
  -29.3900  -22.8580   20.5720 C   0  0  0  0  0  3  0  0  0  0  0  0
  -31.7410  -22.6540   19.9890 C   0  0  0  0  0  0  0  0  0  0  0  0
  -30.5440  -22.0190   20.4440 C   0  0  0  0  0  0  0  0  0  0  0  0
  -29.4170  -24.2520   20.2400 C   0  0  0  0  0  0  0  0  0  0  0  0
  -33.0630  -21.9160   19.8840 C   0  0  0  0  0  2  0  0  0  0  0  0
  -33.1460  -20.7470   20.8570 C   0  0  0  0  0  2  0  0  0  0  0  0
  -31.9510  -19.8430   20.6000 C   0  0  0  0  0  2  0  0  0  0  0  0
  -30.5750  -20.5050   20.8860 C   0  0  0  0  0  3  0  0  0  0  0  0
  -28.9200  -19.8290   19.0810 C   0  0  0  0  0  1  0  0  0  0  0  0
  -29.4520  -19.5920   20.4460 N   0  0  1  0  0  4  0  0  0  0  0  0
  -28.6940  -19.9380   21.0180 H   0  0  0  0  0  0  0  0  0  0  0  0
  -29.5280  -18.1430   20.9160 C   0  0  0  0  0  2  0  0  0  0  0  0
  -31.0180  -17.1670   18.9570 C   0  0  0  0  0  1  0  0  0  0  0  0
  -29.7990  -16.9680   19.8860 C   0  0  0  0  0  3  0  0  0  0  0  0
  -30.5880  -14.5310   20.4060 C   0  0  0  0  0  0  0  0  0  0  0  0
  -30.3370  -12.3150   19.3630 C   0  0  0  0  0  2  0  0  0  0  0  0
  -29.4060  -12.4970   18.1450 C   0  0  0  0  0  2  0  0  0  0  0  0
  -27.9260  -12.3700   18.5640 C   0  0  0  0  0  2  0  0  0  0  0  0
  -27.5810  -13.2240   19.8130 C   0  0  0  0  0  3  0  0  0  0  0  0
  -28.6320  -13.0360   20.9340 C   0  0  0  0  0  2  0  0  0  0  0  0
  -29.9520  -13.3270   20.3620 N   0  0  0  0  0  0  0  0  0  0  0  0
  -31.7740  -14.6500   20.0930 O   0  0  0  0  0  0  0  0  0  0  0  0
  -29.7530  -15.6030   20.5180 N   0  0  0  0  0  0  0  0  0  0  0  0
  -28.8430  -15.3430   20.8700 H   0  0  0  0  0  0  0  0  0  0  0  0
  -25.1930  -13.8580   20.5070 C   0  0  0  0  0  0  0  0  0  0  0  0
  -24.1180  -13.0970   20.8770 C   0  0  0  0  0  0  0  0  0  0  0  0
  -24.5690  -11.7390   20.8620 C   0  0  0  0  0  0  0  0  0  0  0  0
  -26.2290  -12.9650   20.2890 N   0  0  0  0  0  0  0  0  0  0  0  0
  -25.8600  -11.6880   20.5630 N   0  0  0  0  0  0  0  0  0  0  0  0
  -23.8310  -10.4850   21.0560 C   0  0  0  0  0  0  0  0  0  0  0  0
  -24.2640   -9.5150   21.9870 C   0  0  0  0  0  3  0  0  0  0  0  0
  -23.5310   -8.3230   22.1730 C   0  0  0  0  0  3  0  0  0  0  0  0
  -22.3520   -8.0940   21.4220 C   0  0  0  0  0  0  0  0  0  0  0  0
  -21.9360   -9.0520   20.4800 C   0  0  0  0  0  3  0  0  0  0  0  0
  -22.6710  -10.2360   20.2960 C   0  0  0  0  0  3  0  0  0  0  0  0
  -21.5940   -6.9530   21.5080 O   0  0  0  0  0  0  0  0  0  0  0  0
  -21.5560   -6.1990   22.6540 C   0  0  0  0  0  0  0  0  0  0  0  0
  -21.1640   -6.7480   23.8920 C   0  0  0  0  0  3  0  0  0  0  0  0
  -21.0770   -5.9250   25.0320 C   0  0  0  0  0  3  0  0  0  0  0  0
  -21.3660   -4.5510   24.9320 C   0  0  0  0  0  0  0  0  0  0  0  0
  -21.7490   -3.9990   23.6980 C   0  0  0  0  0  3  0  0  0  0  0  0
  -21.8410   -4.8210   22.5600 C   0  0  0  0  0  0  0  0  0  0  0  0
  -22.1900   -4.2820   21.3680 F   0  0  0  0  0  0  0  0  0  0  0  0
  -21.2720   -3.7570   26.0250 F   0  0  0  0  0  0  0  0  0  0  0  0
  -22.7230  -13.5830   21.1360 C   0  0  0  0  0  0  0  0  0  0  0  0
  -21.9890  -12.9010   22.0060 N   0  0  0  0  0  0  0  0  0  0  0  0
  -22.2930  -14.6060   20.6000 O   0  0  0  0  0  0  0  0  0  0  0  0
  -22.3510  -12.0710   22.4510 H   0  0  0  0  0  0  0  0  0  0  0  0
  -21.0480  -13.2040   22.2190 H   0  0  0  0  0  0  0  0  0  0  0  0
  -25.3740  -15.2270   20.3150 N   0  0  0  0  0  0  0  0  0  0  0  0
  -24.6040  -15.8830   20.3860 H   0  0  0  0  0  0  0  0  0  0  0  0
  -26.2160  -15.6430   19.9380 H   0  0  0  0  0  0  0  0  0  0  0  0
  -28.1560  -25.1310   20.2930 C   0  0  0  0  0  2  0  0  0  0  0  0
  -28.3590  -26.5740   20.1900 O   0  0  0  0  0  0  0  0  0  0  0  0
  -24.6140  -31.8850   23.2200 C   0  0  0  0  0  0  0  0  0  0  0  0
  -27.2150  -27.3660   20.1600 C   0  0  0  0  0  0  0  0  0  0  0  0
  -23.4010  -30.4830   21.5890 C   0  0  0  0  0  3  0  0  0  0  0  0
  -24.8440  -28.9390   20.1610 C   0  0  0  0  0  0  0  0  0  0  0  0
  -25.9370  -30.8100   21.3980 C   0  0  0  0  0  2  0  0  0  0  0  0
  -26.0120  -29.4380   20.7510 C   0  0  0  0  0  0  0  0  0  0  0  0
  -27.2010  -28.6610   20.7420 C   0  0  0  0  0  3  0  0  0  0  0  0
  -26.0230  -26.9050   19.5490 C   0  0  0  0  0  3  0  0  0  0  0  0
  -24.8490  -27.6760   19.5530 C   0  0  0  0  0  3  0  0  0  0  0  0
  -23.6070  -29.8080   20.2100 C   0  0  0  0  0  2  0  0  0  0  0  0
  -24.6710  -31.0710   22.1290 N   0  0  0  0  0  0  0  0  0  0  0  0
  -23.5280  -32.1890   23.7330 O   0  0  0  0  0  0  0  0  0  0  0  0
  -22.7410  -29.4650   22.5500 C   0  0  0  0  0  0  0  0  0  0  0  0
  -21.4150  -29.2890   22.4210 N   0  0  0  0  0  0  0  0  0  0  0  0
  -23.4200  -28.8380   23.3680 O   0  0  0  0  0  0  0  0  0  0  0  0
  -20.9270  -29.8470   21.7350 H   0  0  0  0  0  0  0  0  0  0  0  0
  -18.0350  -28.0990   22.9120 C   0  0  0  0  0  0  0  0  0  0  0  0
  -20.5930  -28.3530   23.1910 C   0  0  0  0  0  3  0  0  0  0  0  0
  -20.6950  -26.9200   22.6200 C   0  0  0  0  0  2  0  0  0  0  0  0
  -19.5950  -26.5970   21.6020 C   0  0  0  0  0  2  0  0  0  0  0  0
  -18.2120  -26.7470   22.2410 C   0  0  0  0  0  2  0  0  0  0  0  0
  -19.1540  -28.8600   23.3440 C   0  0  0  0  0  0  0  0  0  0  0  0
  -18.9350  -30.1240   23.9320 C   0  0  0  0  0  3  0  0  0  0  0  0
  -17.6310  -30.6300   24.0910 C   0  0  0  0  0  3  0  0  0  0  0  0
  -16.5270  -29.8660   23.6740 C   0  0  0  0  0  3  0  0  0  0  0  0
  -16.7300  -28.6030   23.0900 C   0  0  0  0  0  3  0  0  0  0  0  0
  -25.9020  -32.5020   23.8510 C   0  0  0  0  0  3  0  0  0  0  0  0
  -26.4190  -31.7150   25.1170 C   0  0  1  0  0  0  0  0  0  0  0  0
  -25.3270  -31.4720   26.1840 C   0  0  0  0  0  1  0  0  0  0  0  0
  -26.9970  -30.3380   24.7120 C   0  0  0  0  0  1  0  0  0  0  0  0
  -27.5740  -32.4990   25.7830 C   0  0  0  0  0  1  0  0  0  0  0  0
  -25.5990  -33.8970   24.1950 N   0  0  0  0  0  0  0  0  0  0  0  0
  -25.9150  -34.9540   23.4340 C   0  0  0  0  0  0  0  0  0  0  0  0
  -26.5680  -34.8550   22.3920 O   0  0  0  0  0  0  0  0  0  0  0  0
  -25.0200  -34.0470   25.0080 H   0  0  0  0  0  0  0  0  0  0  0  0
  -24.1710  -36.7380   23.1230 C   0  0  0  0  0  1  0  0  0  0  0  0
  -25.4330  -36.3390   23.9050 C   0  0  0  0  0  3  0  0  0  0  0  0
  -27.5830  -37.2280   24.6870 C   0  0  0  0  0  1  0  0  0  0  0  0
  -26.4590  -37.3950   23.7700 N   0  0  0  0  0  0  0  0  0  0  0  0
  -26.0530  -38.3150   23.9290 H   0  0  0  0  0  0  0  0  0  0  0  0
  1  2  2  0
  1  4  1  0
  2  6  1  0
  4  5  2  0
  5  3  1  0
  5 10  1  0
  6 55  1  0
  6  3  2  0
  7  4  1  0
  7  8  1  0
  9  8  1  0
  9 10  1  0
 10 12  1  0
 11 12  1  0
 12 14  1  0
 12 13  1  1
 16 15  1  0
 16 25  1  0
 16 14  1  0
 17 25  1  0
 18 23  1  0
 19 20  1  0
 19 18  1  0
 21 20  1  0
 21 30  1  0
 21 22  1  0
 23 17  1  0
 23 22  1  0
 24 17  2  0
 25 26  1  0
 27 28  2  0
 28 47  1  0
 29 28  1  0
 29 32  1  0
 30 27  1  0
 30 31  1  0
 31 29  2  0
 32 33  1  0
 33 34  2  0
 35 38  1  0
 35 34  1  0
 36 35  2  0
 37 36  1  0
 37 32  2  0
 38 39  1  0
 39 40  1  0
 40 41  2  0
 42 41  1  0
 42 46  1  0
 43 42  2  0
 44 39  2  0
 44 43  1  0
 45 44  1  0
 47 48  1  0
 48 51  1  0
 48 50  1  0
 49 47  2  0
 52 53  1  0
 52 27  1  0
 54 52  1  0
 56 55  1  0
 57 68  2  0
 58 56  1  0
 58 63  1  0
 59 67  1  0
 59 69  1  0
 60 66  1  0
 60 62  1  0
 61 67  1  0
 62 61  1  0
 63 62  2  0
 64 65  1  0
 64 58  2  0
 65 60  2  0
 66 59  1  0
 67 57  1  0
 69 71  2  0
 70 69  1  0
 72 70  1  0
 73 82  2  0
 73 78  1  0
 74 70  1  0
 74 78  1  0
 75 74  1  0
 76 77  1  0
 76 75  1  0
 77 73  1  0
 78 79  2  0
 79 80  1  0
 81 80  2  0
 82 81  1  0
 83 57  1  0
 83 88  1  0
 83 84  1  0
 84 87  1  1
 84 85  1  0
 86 84  1  0
 88 91  1  0
 89 93  1  0
 89 88  1  0
 90 89  2  0
 93 92  1  0
 95 93  1  0
 95 96  1  0
 95 94  1  0
M  ISO  4  17 100  25 100  55 101  56 101
M  END
>  <TORSDO>  (96) 
F 20

>  <SCORE>  (96) 
-14.06

>  <name>  (96) 
95

>  <ligand_id>  (96) 
95

>  <original_smiles>  (96) 
[H]c1c([H])c([H])c2c(c1[H])C([H])([H])C([H])([H])C([H])([H])C2([H])N([H])C(=O)C1([H])N(C(=O)C([H])(N([H])C(=O)C([H])(N([H])C([H])([H])[H])C([H])([H])[H])C(C([H])([H])[H])(C([H])([H])[H])C([H])([H])[H])C([H])([H])c2c([H])c(OC([H])([H])c3c([H])c([H])c4c(c3[H])C([H])([N+]([H])(C([H])([H])[H])C([H])([H])C([H])(N([H])C(=O)N3C([H])([H])C([H])([H])C([H])([H])C([H])(n5nc(-c6c([H])c([H])c(Oc7c([H])c([H])c(F)c([H])c7F)c([H])c6[H])c(C(=O)N([H])[H])c5N([H])[H])C3([H])[H])C([H])([H])[H])C([H])([H])C([H])([H])C4([H])[H])c([H])c([H])c2C1([H])[H]

>  <smiles>  (96) 
[H]c1c([H])c([H])c2c(c1[H])C([H])([H])C([H])([H])C([H])([H])C2([H])N([H])C(=O)C1([H])N(C(=O)C([H])(N([H])C(=O)C([H])(N([H])C([H])([H])[H])C([H])([H])[H])C(C([H])([H])[H])(C([H])([H])[H])C([H])([H])[H])C([H])([H])c2c([H])c(OC([H])([H])c3c([H])c([H])c4c(c3[H])C([H])([N+]([H])(C([H])([H])[H])C([H])([H])C([H])(N([H])C(=O)N3C([H])([H])C([H])([H])C([H])([H])C([H])(n5nc(-c6c([H])c([H])c(Oc7c([H])c([H])c(F)c([H])c7F)c([H])c6[H])c(C(=O)N([H])[H])c5N([H])[H])C3([H])[H])C([H])([H])[H])C([H])([H])C([H])([H])C4([H])[H])c([H])c([H])c2C1([H])[H]

> <Step>
129.0

> <Scaffold>
O=C(NC1CCCc2ccccc21)C1Cc2ccc(OCc3ccc4c(c3)C(NCCNC(=O)N3CCCC(n5ccc(-c6ccc(Oc7ccccc7)cc6)n5)C3)CCC4)cc2CN1

> <SMILES>
CNC(C)C(=O)NC(C(=O)N1Cc2cc(OCc3ccc4c(c3)C(N(C)CC(C)NC(=O)N3CCCC(n5nc(-c6ccc(Oc7ccc(F)cc7F)cc6)c(C(N)=O)c5N)C3)CCC4)ccc2CC1C(=O)NC1CCCc2ccccc21)C(C)(C)C

> <Tanimoto ROCS sim>
0.1908663511276245

> <Custom alerts>
1.0

> <Linker Num Aromatic Rings>
1.0

> <Linker Effective Length>
1.0

> <ADV>
0.9945283532142639

> <PostDock Tanimoto ROCS sim>
0.9896573424339294

> <raw_Linker Num Aromatic Rings>
1.0

> <raw_Linker Effective Length>
8.0

> <raw_ADV>
-14.038000106811523

> <total_score>
0.9960464239120483

> <ID>
default_job_195

> <PostDock Tanimoto ROCS sim (re-score)>
0.9833249

> <raw_ADV (re-score)>
-14.06

$$$$
default_job_196
     RDKit          3D

 92100  0  0  1  0  0  0  0  0999 V2000
  -30.2830  -20.7940   19.9240 C   0  0  0  0  0  0  0  0  0  0  0  0
  -30.3010  -22.0550   20.6010 C   0  0  0  0  0  0  0  0  0  0  0  0
  -29.7890  -21.0900   18.6690 C   0  0  0  0  0  0  0  0  0  0  0  0
  -29.8480  -23.0760   19.8100 C   0  0  0  0  0  0  0  0  0  0  0  0
  -29.5450  -20.2150   17.4670 C   0  0  0  0  0  1  0  0  0  0  0  0
  -29.1130  -23.1900   17.3960 C   0  0  0  0  0  1  0  0  0  0  0  0
  -29.5580  -22.4740   18.5860 N   0  0  0  0  0  0  0  0  0  0  0  0
  -30.9070  -22.2910   22.1990 Cl  0  0  0  0  0  0  0  0  0  0  0  0
  -30.8210  -19.4700   20.5020 C   0  0  0  0  0  2  0  0  0  0  0  0
  -30.0010  -18.1630   20.3140 C   0  0  0  0  0  2  0  0  0  0  0  0
  -30.7340  -16.9390   20.9360 C   0  0  0  0  0  2  0  0  0  0  0  0
  -30.7220  -14.4930   20.4670 C   0  0  0  0  0  0  0  0  0  0  0  0
  -30.3580  -12.3350   19.3500 C   0  0  0  0  0  2  0  0  0  0  0  0
  -29.4420  -12.5630   18.1340 C   0  0  0  0  0  2  0  0  0  0  0  0
  -27.9560  -12.4670   18.5390 C   0  0  0  0  0  2  0  0  0  0  0  0
  -27.6190  -13.2720   19.8260 C   0  0  0  0  0  3  0  0  0  0  0  0
  -28.6770  -13.0660   20.9320 C   0  0  0  0  0  2  0  0  0  0  0  0
  -29.9940  -13.3500   20.3470 N   0  0  0  0  0  0  0  0  0  0  0  0
  -31.9030  -14.5540   20.1310 O   0  0  0  0  0  0  0  0  0  0  0  0
  -30.0580  -15.6300   20.7750 N   0  0  0  0  0  0  0  0  0  0  0  0
  -29.0590  -15.5810   20.9040 H   0  0  0  0  0  0  0  0  0  0  0  0
  -25.2190  -13.8550   20.5350 C   0  0  0  0  0  0  0  0  0  0  0  0
  -24.1520  -13.0770   20.8980 C   0  0  0  0  0  0  0  0  0  0  0  0
  -24.6190  -11.7260   20.8610 C   0  0  0  0  0  0  0  0  0  0  0  0
  -26.2690  -12.9800   20.3050 N   0  0  0  0  0  0  0  0  0  0  0  0
  -25.9120  -11.6950   20.5640 N   0  0  0  0  0  0  0  0  0  0  0  0
  -23.8930  -10.4600   21.0430 C   0  0  0  0  0  0  0  0  0  0  0  0
  -24.3130   -9.4980   21.9870 C   0  0  0  0  0  3  0  0  0  0  0  0
  -23.5890   -8.2990   22.1610 C   0  0  0  0  0  3  0  0  0  0  0  0
  -22.4260   -8.0560   21.3930 C   0  0  0  0  0  0  0  0  0  0  0  0
  -22.0250   -9.0070   20.4370 C   0  0  0  0  0  3  0  0  0  0  0  0
  -22.7510  -10.1980   20.2610 C   0  0  0  0  0  3  0  0  0  0  0  0
  -21.6740   -6.9080   21.4740 O   0  0  0  0  0  0  0  0  0  0  0  0
  -21.6080   -6.1700   22.6270 C   0  0  0  0  0  0  0  0  0  0  0  0
  -21.1380   -6.7220   23.8400 C   0  0  0  0  0  3  0  0  0  0  0  0
  -21.0200   -5.9090   24.9850 C   0  0  0  0  0  3  0  0  0  0  0  0
  -21.3610   -4.5430   24.9180 C   0  0  0  0  0  0  0  0  0  0  0  0
  -21.8220   -3.9920   23.7100 C   0  0  0  0  0  3  0  0  0  0  0  0
  -21.9410   -4.8000   22.5680 C   0  0  0  0  0  0  0  0  0  0  0  0
  -22.3660   -4.2570   21.4000 F   0  0  0  0  0  0  0  0  0  0  0  0
  -21.2410   -3.7600   26.0150 F   0  0  0  0  0  0  0  0  0  0  0  0
  -22.7510  -13.5460   21.1630 C   0  0  0  0  0  0  0  0  0  0  0  0
  -22.0150  -12.8400   22.0130 N   0  0  0  0  0  0  0  0  0  0  0  0
  -22.3150  -14.5760   20.6490 O   0  0  0  0  0  0  0  0  0  0  0  0
  -22.3840  -12.0140   22.4620 H   0  0  0  0  0  0  0  0  0  0  0  0
  -21.0680  -13.1260   22.2180 H   0  0  0  0  0  0  0  0  0  0  0  0
  -25.3790  -15.2270   20.3630 N   0  0  0  0  0  0  0  0  0  0  0  0
  -24.6090  -15.8770   20.4690 H   0  0  0  0  0  0  0  0  0  0  0  0
  -26.2380  -15.6730   20.0560 H   0  0  0  0  0  0  0  0  0  0  0  0
  -29.7710  -24.5810   20.0760 C   0  0  0  0  0  2  0  0  0  0  0  0
  -28.3760  -25.2690   20.0030 C   0  0  0  0  0  2  0  0  0  0  0  0
  -28.4180  -26.6890   20.2780 O   0  0  0  0  0  0  0  0  0  0  0  0
  -24.6040  -31.9370   23.2720 C   0  0  0  0  0  0  0  0  0  0  0  0
  -27.2330  -27.4190   20.2520 C   0  0  0  0  0  0  0  0  0  0  0  0
  -23.3910  -30.5250   21.6470 C   0  0  0  0  0  3  0  0  0  0  0  0
  -24.8350  -28.9550   20.2520 C   0  0  0  0  0  0  0  0  0  0  0  0
  -25.9300  -30.8510   21.4610 C   0  0  0  0  0  2  0  0  0  0  0  0
  -26.0040  -29.4790   20.8160 C   0  0  0  0  0  0  0  0  0  0  0  0
  -27.2060  -28.7320   20.7900 C   0  0  0  0  0  3  0  0  0  0  0  0
  -26.0310  -26.9010   19.7100 C   0  0  0  0  0  3  0  0  0  0  0  0
  -24.8470  -27.6650   19.6950 C   0  0  0  0  0  3  0  0  0  0  0  0
  -23.6060  -29.8360   20.2760 C   0  0  0  0  0  2  0  0  0  0  0  0
  -24.6590  -31.1180   22.1840 N   0  0  0  0  0  0  0  0  0  0  0  0
  -23.5190  -32.2400   23.7890 O   0  0  0  0  0  0  0  0  0  0  0  0
  -22.7270  -29.5180   22.6170 C   0  0  0  0  0  0  0  0  0  0  0  0
  -21.4000  -29.3400   22.4850 N   0  0  0  0  0  0  0  0  0  0  0  0
  -23.4010  -28.9030   23.4450 O   0  0  0  0  0  0  0  0  0  0  0  0
  -20.9170  -29.8950   21.7940 H   0  0  0  0  0  0  0  0  0  0  0  0
  -18.0200  -28.1480   22.9780 C   0  0  0  0  0  0  0  0  0  0  0  0
  -20.5750  -28.4130   23.2630 C   0  0  0  0  0  3  0  0  0  0  0  0
  -20.6780  -26.9700   22.7180 C   0  0  0  0  0  2  0  0  0  0  0  0
  -19.5870  -26.6280   21.6970 C   0  0  0  0  0  2  0  0  0  0  0  0
  -18.2000  -26.7860   22.3250 C   0  0  0  0  0  2  0  0  0  0  0  0
  -19.1350  -28.9150   23.4050 C   0  0  0  0  0  0  0  0  0  0  0  0
  -18.9130  -30.1860   23.9780 C   0  0  0  0  0  3  0  0  0  0  0  0
  -17.6080  -30.6900   24.1250 C   0  0  0  0  0  3  0  0  0  0  0  0
  -16.5070  -29.9230   23.7100 C   0  0  0  0  0  3  0  0  0  0  0  0
  -16.7140  -28.6530   23.1420 C   0  0  0  0  0  3  0  0  0  0  0  0
  -25.8920  -32.5590   23.8940 C   0  0  0  0  0  3  0  0  0  0  0  0
  -25.5970  -33.9640   24.2090 N   0  0  0  0  0  0  0  0  0  0  0  0
  -25.9360  -35.0060   23.4380 C   0  0  0  0  0  0  0  0  0  0  0  0
  -26.6060  -34.8850   22.4080 O   0  0  0  0  0  0  0  0  0  0  0  0
  -25.0100  -34.1300   25.0120 H   0  0  0  0  0  0  0  0  0  0  0  0
  -24.2290  -36.8120   23.0460 C   0  0  0  0  0  1  0  0  0  0  0  0
  -25.4570  -36.4040   23.8770 C   0  0  0  0  0  3  0  0  0  0  0  0
  -27.5880  -37.2790   24.7260 C   0  0  0  0  0  1  0  0  0  0  0  0
  -26.5010  -37.4460   23.7660 N   0  0  0  0  0  0  0  0  0  0  0  0
  -26.1030  -38.3730   23.8930 H   0  0  0  0  0  0  0  0  0  0  0  0
  -26.3960  -31.8020   25.1860 C   0  0  1  0  0  0  0  0  0  0  0  0
  -25.2930  -31.5850   26.2500 C   0  0  0  0  0  1  0  0  0  0  0  0
  -26.9740  -30.4150   24.8210 C   0  0  0  0  0  1  0  0  0  0  0  0
  -27.5410  -32.6050   25.8490 C   0  0  0  0  0  1  0  0  0  0  0  0
  1  9  1  0
  1  2  1  0
  2  8  1  0
  3  1  2  0
  4 50  1  0
  4  2  2  0
  5  3  1  0
  6  7  1  0
  7  3  1  0
  7  4  1  0
 10  9  1  0
 10 11  1  0
 12 20  1  0
 13 18  1  0
 14 15  1  0
 14 13  1  0
 16 15  1  0
 16 25  1  0
 16 17  1  0
 18 12  1  0
 18 17  1  0
 19 12  2  0
 20 21  1  0
 20 11  1  0
 22 23  2  0
 23 42  1  0
 24 23  1  0
 24 27  1  0
 25 22  1  0
 25 26  1  0
 26 24  2  0
 27 28  1  0
 28 29  2  0
 30 33  1  0
 30 29  1  0
 31 30  2  0
 32 31  1  0
 32 27  2  0
 33 34  1  0
 34 35  1  0
 35 36  2  0
 37 36  1  0
 37 41  1  0
 38 37  2  0
 39 34  2  0
 39 38  1  0
 40 39  1  0
 42 43  1  0
 43 46  1  0
 43 45  1  0
 44 42  2  0
 47 48  1  0
 47 22  1  0
 49 47  1  0
 51 50  1  0
 51 52  1  0
 53 64  2  0
 54 52  1  0
 54 59  1  0
 55 63  1  0
 55 65  1  0
 56 62  1  0
 56 58  1  0
 57 63  1  0
 58 57  1  0
 59 58  2  0
 60 54  2  0
 61 60  1  0
 61 56  2  0
 62 55  1  0
 63 53  1  0
 65 67  2  0
 66 65  1  0
 68 66  1  0
 69 78  2  0
 69 74  1  0
 70 66  1  0
 70 74  1  0
 71 70  1  0
 72 73  1  0
 72 71  1  0
 73 69  1  0
 74 75  2  0
 75 76  1  0
 77 76  2  0
 78 77  1  0
 79 53  1  0
 79 80  1  0
 79 89  1  0
 80 83  1  0
 81 85  1  0
 81 80  1  0
 82 81  2  0
 85 84  1  0
 87 85  1  0
 87 88  1  0
 87 86  1  0
 89 92  1  1
 89 90  1  0
 91 89  1  0
M  ISO  4  12 100  20 100  51 101  52 101
M  END
>  <TORSDO>  (97) 
F 21

>  <SCORE>  (97) 
-13.503

>  <name>  (97) 
96

>  <ligand_id>  (97) 
96

>  <original_smiles>  (97) 
[H]c1c([H])c([H])c2c(c1[H])C([H])([H])C([H])([H])C([H])([H])C2([H])N([H])C(=O)C1([H])N(C(=O)C([H])(N([H])C(=O)C([H])(N([H])C([H])([H])[H])C([H])([H])[H])C(C([H])([H])[H])(C([H])([H])[H])C([H])([H])[H])C([H])([H])c2c([H])c(OC([H])([H])C([H])([H])c3c(Cl)c(C([H])([H])C([H])([H])C([H])([H])N([H])C(=O)N4C([H])([H])C([H])([H])C([H])([H])C([H])(n5nc(-c6c([H])c([H])c(Oc7c([H])c([H])c(F)c([H])c7F)c([H])c6[H])c(C(=O)N([H])[H])c5N([H])[H])C4([H])[H])c(C([H])([H])[H])n3C([H])([H])[H])c([H])c([H])c2C1([H])[H]

>  <smiles>  (97) 
[H]c1c([H])c([H])c2c(c1[H])C([H])([H])C([H])([H])C([H])([H])C2([H])N([H])C(=O)C1([H])N(C(=O)C([H])(N([H])C(=O)C([H])(N([H])C([H])([H])[H])C([H])([H])[H])C(C([H])([H])[H])(C([H])([H])[H])C([H])([H])[H])C([H])([H])c2c([H])c(OC([H])([H])C([H])([H])c3c(Cl)c(C([H])([H])C([H])([H])C([H])([H])N([H])C(=O)N4C([H])([H])C([H])([H])C([H])([H])C([H])(n5nc(-c6c([H])c([H])c(Oc7c([H])c([H])c(F)c([H])c7F)c([H])c6[H])c(C(=O)N([H])[H])c5N([H])[H])C4([H])[H])c(C([H])([H])[H])n3C([H])([H])[H])c([H])c([H])c2C1([H])[H]

> <Step>
32.0

> <Scaffold>
O=C(NC1CCCc2ccccc21)C1Cc2ccc(OCCc3cc(CCCNC(=O)N4CCCC(n5ccc(-c6ccc(Oc7ccccc7)cc6)n5)C4)c[nH]3)cc2CN1

> <SMILES>
CNC(C)C(=O)NC(C(=O)N1Cc2cc(OCCc3c(Cl)c(CCCNC(=O)N4CCCC(n5nc(-c6ccc(Oc7ccc(F)cc7F)cc6)c(C(N)=O)c5N)C4)c(C)n3C)ccc2CC1C(=O)NC1CCCc2ccccc21)C(C)(C)C

> <Tanimoto ROCS sim>
0.21749109029769897

> <Custom alerts>
1.0

> <Linker Num Aromatic Rings>
1.0

> <Linker Effective Length>
1.0

> <ADV>
0.9927871823310852

> <PostDock Tanimoto ROCS sim>
0.9913927316665649

> <raw_Linker Num Aromatic Rings>
1.0

> <raw_Linker Effective Length>
8.0

> <raw_ADV>
-13.555000305175781

> <total_score>
0.9960449934005737

> <ID>
default_job_196

> <PostDock Tanimoto ROCS sim (re-score)>
0.9809012

> <raw_ADV (re-score)>
-13.503

$$$$
default_job_197
     RDKit          3D

 93101  0  0  1  0  0  0  0  0999 V2000
  -27.8660  -21.9820   21.1850 C   0  0  0  0  0  3  0  0  0  0  0  0
  -29.4940  -22.5000   19.4550 C   0  0  0  0  0  3  0  0  0  0  0  0
  -27.7940  -23.3510   21.5220 C   0  0  0  0  0  3  0  0  0  0  0  0
  -29.4130  -23.8730   19.7880 C   0  0  0  0  0  3  0  0  0  0  0  0
  -28.7190  -21.5410   20.1490 C   0  0  0  0  0  0  0  0  0  0  0  0
  -28.5610  -24.3120   20.8260 C   0  0  0  0  0  0  0  0  0  0  0  0
  -29.7550  -26.1470   22.0890 C   0  0  0  0  0  1  0  0  0  0  0  0
  -28.5180  -25.7800   21.2630 C   0  0  0  0  0  3  0  0  0  0  0  0
  -28.4360  -26.7160   20.1780 O   0  0  0  0  0  0  0  0  0  0  0  0
  -24.5980  -31.8980   23.2430 C   0  0  0  0  0  0  0  0  0  0  0  0
  -27.2870  -27.4720   20.1790 C   0  0  0  0  0  0  0  0  0  0  0  0
  -23.4140  -30.4880   21.5930 C   0  0  0  0  0  3  0  0  0  0  0  0
  -24.8880  -28.9590   20.1760 C   0  0  0  0  0  0  0  0  0  0  0  0
  -25.9410  -30.8570   21.4220 C   0  0  0  0  0  2  0  0  0  0  0  0
  -26.0380  -29.4890   20.7770 C   0  0  0  0  0  0  0  0  0  0  0  0
  -27.2440  -28.7530   20.7760 C   0  0  0  0  0  3  0  0  0  0  0  0
  -26.1260  -26.9510   19.5770 C   0  0  0  0  0  3  0  0  0  0  0  0
  -24.9270  -27.6890   19.5730 C   0  0  0  0  0  3  0  0  0  0  0  0
  -23.6390  -29.8110   20.2140 C   0  0  0  0  0  2  0  0  0  0  0  0
  -24.6690  -31.0920   22.1460 N   0  0  0  0  0  0  0  0  0  0  0  0
  -23.5070  -32.1860   23.7540 O   0  0  0  0  0  0  0  0  0  0  0  0
  -22.7570  -29.4630   22.5450 C   0  0  0  0  0  0  0  0  0  0  0  0
  -21.4350  -29.2740   22.4020 N   0  0  0  0  0  0  0  0  0  0  0  0
  -23.4350  -28.8390   23.3670 O   0  0  0  0  0  0  0  0  0  0  0  0
  -20.9510  -29.8300   21.7120 H   0  0  0  0  0  0  0  0  0  0  0  0
  -18.0570  -28.0800   22.8700 C   0  0  0  0  0  0  0  0  0  0  0  0
  -20.6130  -28.3300   23.1600 C   0  0  0  0  0  3  0  0  0  0  0  0
  -20.7170  -26.9040   22.5700 C   0  0  0  0  0  2  0  0  0  0  0  0
  -19.6190  -26.5930   21.5480 C   0  0  0  0  0  2  0  0  0  0  0  0
  -18.2350  -26.7350   22.1860 C   0  0  0  0  0  2  0  0  0  0  0  0
  -19.1740  -28.8360   23.3140 C   0  0  0  0  0  0  0  0  0  0  0  0
  -18.9550  -30.0960   23.9130 C   0  0  0  0  0  3  0  0  0  0  0  0
  -17.6500  -30.5990   24.0740 C   0  0  0  0  0  3  0  0  0  0  0  0
  -16.5470  -29.8390   23.6490 C   0  0  0  0  0  3  0  0  0  0  0  0
  -16.7510  -28.5810   23.0520 C   0  0  0  0  0  3  0  0  0  0  0  0
  -25.8780  -32.5220   23.8850 C   0  0  0  0  0  3  0  0  0  0  0  0
  -25.5700  -33.9220   24.2050 N   0  0  0  0  0  0  0  0  0  0  0  0
  -25.9150  -34.9680   23.4430 C   0  0  0  0  0  0  0  0  0  0  0  0
  -26.5970  -34.8560   22.4210 O   0  0  0  0  0  0  0  0  0  0  0  0
  -24.9660  -34.0840   24.9970 H   0  0  0  0  0  0  0  0  0  0  0  0
  -24.1970  -36.7620   23.0470 C   0  0  0  0  0  1  0  0  0  0  0  0
  -25.4230  -36.3600   23.8830 C   0  0  0  0  0  3  0  0  0  0  0  0
  -27.5430  -37.2440   24.7490 C   0  0  0  0  0  1  0  0  0  0  0  0
  -26.4600  -37.4090   23.7820 N   0  0  0  0  0  0  0  0  0  0  0  0
  -26.0530  -38.3310   23.9160 H   0  0  0  0  0  0  0  0  0  0  0  0
  -26.3750  -31.7540   25.1710 C   0  0  1  0  0  0  0  0  0  0  0  0
  -25.2660  -31.5180   26.2220 C   0  0  0  0  0  1  0  0  0  0  0  0
  -26.9670  -30.3750   24.7900 C   0  0  0  0  0  1  0  0  0  0  0  0
  -27.5150  -32.5510   25.8500 C   0  0  0  0  0  1  0  0  0  0  0  0
  -28.7410  -20.0610   19.7510 C   0  0  0  0  0  2  0  0  0  0  0  0
  -29.5910  -19.2160   20.6230 N   0  0  0  0  0  4  0  0  0  0  0  0
  -29.3710  -19.4410   21.5790 H   0  0  0  0  0  0  0  0  0  0  0  0
  -30.5520  -19.4620   20.4630 H   0  0  0  0  0  0  0  0  0  0  0  0
  -29.4010  -17.7530   20.4190 C   0  0  0  0  0  2  0  0  0  0  0  0
  -30.2960  -16.8630   21.3240 C   0  0  0  0  0  2  0  0  0  0  0  0
  -30.6640  -14.4790   20.5590 C   0  0  0  0  0  0  0  0  0  0  0  0
  -30.3770  -12.3450   19.3490 C   0  0  0  0  0  2  0  0  0  0  0  0
  -29.4380  -12.5740   18.1460 C   0  0  0  0  0  2  0  0  0  0  0  0
  -27.9600  -12.4400   18.5630 C   0  0  0  0  0  2  0  0  0  0  0  0
  -27.6240  -13.2560   19.8420 C   0  0  0  0  0  3  0  0  0  0  0  0
  -28.6690  -12.9890   20.9490 C   0  0  0  0  0  2  0  0  0  0  0  0
  -30.0000  -13.3030   20.3990 N   0  0  0  0  0  0  0  0  0  0  0  0
  -31.7680  -14.7080   20.0550 O   0  0  0  0  0  0  0  0  0  0  0  0
  -29.9670  -15.4350   21.1940 N   0  0  0  0  0  0  0  0  0  0  0  0
  -29.0790  -15.1390   21.5730 H   0  0  0  0  0  0  0  0  0  0  0  0
  -25.2180  -13.8740   20.5190 C   0  0  0  0  0  0  0  0  0  0  0  0
  -24.1440  -13.1060   20.8800 C   0  0  0  0  0  0  0  0  0  0  0  0
  -24.6010  -11.7530   20.8570 C   0  0  0  0  0  0  0  0  0  0  0  0
  -26.2640  -12.9890   20.3050 N   0  0  0  0  0  0  0  0  0  0  0  0
  -25.8940  -11.7080   20.5640 N   0  0  0  0  0  0  0  0  0  0  0  0
  -23.8690  -10.4940   21.0440 C   0  0  0  0  0  0  0  0  0  0  0  0
  -24.2870   -9.5310   21.9890 C   0  0  0  0  0  3  0  0  0  0  0  0
  -23.5580   -8.3350   22.1620 C   0  0  0  0  0  3  0  0  0  0  0  0
  -22.3970   -8.0930   21.3900 C   0  0  0  0  0  0  0  0  0  0  0  0
  -21.9980   -9.0440   20.4360 C   0  0  0  0  0  3  0  0  0  0  0  0
  -22.7270  -10.2330   20.2590 C   0  0  0  0  0  3  0  0  0  0  0  0
  -21.6410   -6.9490   21.4720 O   0  0  0  0  0  0  0  0  0  0  0  0
  -21.5700   -6.2150   22.6290 C   0  0  0  0  0  0  0  0  0  0  0  0
  -21.1060   -6.7750   23.8400 C   0  0  0  0  0  3  0  0  0  0  0  0
  -20.9830   -5.9660   24.9870 C   0  0  0  0  0  3  0  0  0  0  0  0
  -21.3120   -4.6000   24.9260 C   0  0  0  0  0  0  0  0  0  0  0  0
  -21.7680   -4.0390   23.7200 C   0  0  0  0  0  3  0  0  0  0  0  0
  -21.8930   -4.8450   22.5750 C   0  0  0  0  0  0  0  0  0  0  0  0
  -22.3130   -4.2940   21.4100 F   0  0  0  0  0  0  0  0  0  0  0  0
  -21.1860   -3.8210   26.0260 F   0  0  0  0  0  0  0  0  0  0  0  0
  -22.7440  -13.5880   21.1360 C   0  0  0  0  0  0  0  0  0  0  0  0
  -22.0040  -12.8930   21.9920 N   0  0  0  0  0  0  0  0  0  0  0  0
  -22.3160  -14.6170   20.6140 O   0  0  0  0  0  0  0  0  0  0  0  0
  -22.3620  -12.0600   22.4370 H   0  0  0  0  0  0  0  0  0  0  0  0
  -21.0660  -13.2000   22.2080 H   0  0  0  0  0  0  0  0  0  0  0  0
  -25.3910  -15.2440   20.3370 N   0  0  0  0  0  0  0  0  0  0  0  0
  -24.6230  -15.9000   20.4180 H   0  0  0  0  0  0  0  0  0  0  0  0
  -26.2370  -15.6660   19.9750 H   0  0  0  0  0  0  0  0  0  0  0  0
  1  3  1  0
  2  4  2  0
  2  5  1  0
  4  6  1  0
  5  1  2  0
  6  8  1  0
  6  3  2  0
  8  7  1  0
  9 11  1  0
  9  8  1  0
 10 21  2  0
 11 16  1  0
 12 20  1  0
 12 22  1  0
 13 19  1  0
 13 15  1  0
 14 20  1  0
 15 14  1  0
 16 15  2  0
 17 11  2  0
 18 17  1  0
 18 13  2  0
 19 12  1  0
 20 10  1  0
 22 24  2  0
 23 22  1  0
 25 23  1  0
 26 35  2  0
 26 31  1  0
 27 23  1  0
 27 31  1  0
 28 27  1  0
 29 30  1  0
 29 28  1  0
 30 26  1  0
 31 32  2  0
 32 33  1  0
 34 33  2  0
 35 34  1  0
 36 10  1  0
 36 37  1  0
 36 46  1  0
 37 40  1  0
 38 42  1  0
 38 37  1  0
 39 38  2  0
 42 41  1  0
 44 42  1  0
 44 45  1  0
 44 43  1  0
 46 49  1  1
 46 47  1  0
 48 46  1  0
 50  5  1  0
 50 51  1  0
 51 52  1  0
 53 51  1  0
 54 51  1  0
 54 55  1  0
 56 64  1  0
 57 62  1  0
 58 59  1  0
 58 57  1  0
 60 59  1  0
 60 69  1  0
 60 61  1  0
 62 56  1  0
 62 61  1  0
 63 56  2  0
 64 55  1  0
 64 65  1  0
 66 67  2  0
 67 86  1  0
 68 67  1  0
 68 71  1  0
 69 66  1  0
 69 70  1  0
 70 68  2  0
 71 72  1  0
 72 73  2  0
 74 77  1  0
 74 73  1  0
 75 74  2  0
 76 75  1  0
 76 71  2  0
 77 78  1  0
 78 79  1  0
 79 80  2  0
 81 80  1  0
 81 85  1  0
 82 81  2  0
 83 78  2  0
 83 82  1  0
 84 83  1  0
 86 87  1  0
 87 90  1  0
 87 89  1  0
 88 86  2  0
 91 92  1  0
 91 66  1  0
 93 91  1  0
M  ISO  4   8 101   9 101  56 100  64 100
M  END
>  <TORSDO>  (98) 
F 21

>  <SCORE>  (98) 
-13.751

>  <name>  (98) 
97

>  <ligand_id>  (98) 
97

>  <original_smiles>  (98) 
[H]c1c([H])c([H])c2c(c1[H])C([H])([H])C([H])([H])C([H])([H])C2([H])N([H])C(=O)C1([H])N(C(=O)C([H])(N([H])C(=O)C([H])(N([H])C([H])([H])[H])C([H])([H])[H])C(C([H])([H])[H])(C([H])([H])[H])C([H])([H])[H])C([H])([H])c2c([H])c(OC([H])(c3c([H])c([H])c(C([H])([H])[N+]([H])([H])C([H])([H])C([H])([H])N([H])C(=O)N4C([H])([H])C([H])([H])C([H])([H])C([H])(n5nc(-c6c([H])c([H])c(Oc7c([H])c([H])c(F)c([H])c7F)c([H])c6[H])c(C(=O)N([H])[H])c5N([H])[H])C4([H])[H])c([H])c3[H])C([H])([H])[H])c([H])c([H])c2C1([H])[H]

>  <smiles>  (98) 
[H]c1c([H])c([H])c2c(c1[H])C([H])([H])C([H])([H])C([H])([H])C2([H])N([H])C(=O)C1([H])N(C(=O)C([H])(N([H])C(=O)C([H])(N([H])C([H])([H])[H])C([H])([H])[H])C(C([H])([H])[H])(C([H])([H])[H])C([H])([H])[H])C([H])([H])c2c([H])c(OC([H])(c3c([H])c([H])c(C([H])([H])[N+]([H])([H])C([H])([H])C([H])([H])N([H])C(=O)N4C([H])([H])C([H])([H])C([H])([H])C([H])(n5nc(-c6c([H])c([H])c(Oc7c([H])c([H])c(F)c([H])c7F)c([H])c6[H])c(C(=O)N([H])[H])c5N([H])[H])C4([H])[H])c([H])c3[H])C([H])([H])[H])c([H])c([H])c2C1([H])[H]

> <Step>
127.0

> <Scaffold>
O=C(NC1CCCc2ccccc21)C1Cc2ccc(OCc3ccc(CNCCNC(=O)N4CCCC(n5ccc(-c6ccc(Oc7ccccc7)cc6)n5)C4)cc3)cc2CN1

> <SMILES>
CNC(C)C(=O)NC(C(=O)N1Cc2cc(OC(C)c3ccc(CNCCNC(=O)N4CCCC(n5nc(-c6ccc(Oc7ccc(F)cc7F)cc6)c(C(N)=O)c5N)C4)cc3)ccc2CC1C(=O)NC1CCCc2ccccc21)C(C)(C)C

> <Tanimoto ROCS sim>
0.21572397649288177

> <Custom alerts>
1.0

> <Linker Num Aromatic Rings>
1.0

> <Linker Effective Length>
1.0

> <ADV>
0.9935775399208069

> <PostDock Tanimoto ROCS sim>
0.9905882477760315

> <raw_Linker Num Aromatic Rings>
1.0

> <raw_Linker Effective Length>
9.0

> <raw_ADV>
-13.758000373840332

> <total_score>
0.9960414171218872

> <ID>
default_job_197

> <PostDock Tanimoto ROCS sim (re-score)>
0.98248476

> <raw_ADV (re-score)>
-13.751

$$$$
default_job_198
     RDKit          3D

 91100  0  0  1  0  0  0  0  0999 V2000
  -29.3390  -22.5790   19.2320 C   0  0  0  0  0  3  0  0  0  0  0  0
  -28.7510  -23.5000   20.1750 C   0  0  0  0  0  0  0  0  0  0  0  0
  -29.2490  -20.7960   20.7410 C   0  0  0  0  0  0  0  0  0  0  0  0
  -29.7090  -22.9810   17.8130 C   0  0  0  0  0  1  0  0  0  0  0  0
  -29.5830  -21.2480   19.5240 N   0  0  0  0  0  0  0  0  0  0  0  0
  -28.4670  -22.9420   21.3960 N   0  0  0  0  0  0  0  0  0  0  0  0
  -28.7250  -21.6280   21.6760 N   0  0  0  0  0  2  0  0  0  0  0  0
  -29.4230  -19.4170   21.1230 N   0  0  0  0  0  0  0  0  0  0  0  0
  -29.1930  -19.2840   22.0990 H   0  0  0  0  0  0  0  0  0  0  0  0
  -30.6970  -14.7990   20.3960 C   0  0  0  0  0  0  0  0  0  0  0  0
  -30.3930  -12.5300   19.3820 C   0  0  0  0  0  2  0  0  0  0  0  0
  -29.4810  -12.5970   18.1410 C   0  0  0  0  0  2  0  0  0  0  0  0
  -28.0120  -12.4200   18.5590 C   0  0  0  0  0  2  0  0  0  0  0  0
  -27.6270  -13.3240   19.7600 C   0  0  0  0  0  3  0  0  0  0  0  0
  -28.6750  -13.2900   20.8960 C   0  0  0  0  0  2  0  0  0  0  0  0
  -29.9810  -13.6180   20.3080 N   0  0  0  0  0  0  0  0  0  0  0  0
  -31.8750  -14.7930   20.0310 O   0  0  0  0  0  0  0  0  0  0  0  0
  -28.9970  -16.8580   20.4780 C   0  0  0  0  0  2  0  0  0  0  0  0
  -30.9250  -17.2500   21.1970 C   0  0  0  0  0  2  0  0  0  0  0  0
  -29.9020  -18.1440   20.4310 C   0  0  0  0  0  3  0  0  0  0  0  0
  -30.1610  -16.0040   20.8660 N   0  0  0  0  0  0  0  0  0  0  0  0
  -25.2310  -13.9110   20.4500 C   0  0  0  0  0  0  0  0  0  0  0  0
  -24.1630  -13.1400   20.8120 C   0  0  0  0  0  0  0  0  0  0  0  0
  -24.6280  -11.7890   20.8060 C   0  0  0  0  0  0  0  0  0  0  0  0
  -26.2810  -13.0320   20.2420 N   0  0  0  0  0  0  0  0  0  0  0  0
  -25.9230  -11.7510   20.5190 N   0  0  0  0  0  0  0  0  0  0  0  0
  -23.9000  -10.5290   21.0010 C   0  0  0  0  0  0  0  0  0  0  0  0
  -24.3220   -9.5680   21.9470 C   0  0  0  0  0  3  0  0  0  0  0  0
  -23.5910   -8.3750   22.1320 C   0  0  0  0  0  3  0  0  0  0  0  0
  -22.4230   -8.1320   21.3690 C   0  0  0  0  0  0  0  0  0  0  0  0
  -22.0200   -9.0800   20.4120 C   0  0  0  0  0  3  0  0  0  0  0  0
  -22.7510  -10.2650   20.2270 C   0  0  0  0  0  3  0  0  0  0  0  0
  -21.6650   -6.9890   21.4610 O   0  0  0  0  0  0  0  0  0  0  0  0
  -21.6120   -6.2520   22.6170 C   0  0  0  0  0  0  0  0  0  0  0  0
  -21.1880   -6.8140   23.8400 C   0  0  0  0  0  3  0  0  0  0  0  0
  -21.0810   -6.0030   24.9880 C   0  0  0  0  0  3  0  0  0  0  0  0
  -21.3900   -4.6310   24.9130 C   0  0  0  0  0  0  0  0  0  0  0  0
  -21.8070   -4.0690   23.6940 C   0  0  0  0  0  3  0  0  0  0  0  0
  -21.9140   -4.8770   22.5490 C   0  0  0  0  0  0  0  0  0  0  0  0
  -22.2970   -4.3250   21.3720 F   0  0  0  0  0  0  0  0  0  0  0  0
  -21.2800   -3.8510   26.0140 F   0  0  0  0  0  0  0  0  0  0  0  0
  -22.7610  -13.6200   21.0560 C   0  0  0  0  0  0  0  0  0  0  0  0
  -22.0250  -12.9360   21.9240 N   0  0  0  0  0  0  0  0  0  0  0  0
  -22.3300  -14.6360   20.5130 O   0  0  0  0  0  0  0  0  0  0  0  0
  -22.3900  -12.1150   22.3820 H   0  0  0  0  0  0  0  0  0  0  0  0
  -21.0830  -13.2370   22.1340 H   0  0  0  0  0  0  0  0  0  0  0  0
  -25.3960  -15.2810   20.2570 N   0  0  0  0  0  0  0  0  0  0  0  0
  -24.6260  -15.9360   20.3490 H   0  0  0  0  0  0  0  0  0  0  0  0
  -26.2550  -15.7170   19.9480 H   0  0  0  0  0  0  0  0  0  0  0  0
  -28.0110  -24.8830   19.7720 C   0  0  0  0  0  2  0  0  0  0  0  0
  -28.2830  -26.3040   20.2510 O   0  0  0  0  0  0  0  0  0  0  0  0
  -24.6280  -31.8890   23.2430 C   0  0  0  0  0  0  0  0  0  0  0  0
  -27.2160  -27.2570   20.1700 C   0  0  0  0  0  0  0  0  0  0  0  0
  -23.4190  -30.4860   21.6180 C   0  0  0  0  0  3  0  0  0  0  0  0
  -24.8650  -28.9420   20.1800 C   0  0  0  0  0  0  0  0  0  0  0  0
  -25.9700  -30.7800   21.4350 C   0  0  0  0  0  2  0  0  0  0  0  0
  -26.0450  -29.4010   20.7770 C   0  0  0  0  0  0  0  0  0  0  0  0
  -27.2210  -28.5720   20.7670 C   0  0  0  0  0  3  0  0  0  0  0  0
  -26.0090  -26.9000   19.5180 C   0  0  0  0  0  3  0  0  0  0  0  0
  -24.8530  -27.6970   19.5450 C   0  0  0  0  0  3  0  0  0  0  0  0
  -23.6300  -29.8190   20.2360 C   0  0  0  0  0  2  0  0  0  0  0  0
  -24.6930  -31.0670   22.1550 N   0  0  0  0  0  0  0  0  0  0  0  0
  -23.5430  -32.1950   23.7520 O   0  0  0  0  0  0  0  0  0  0  0  0
  -22.7530  -29.4690   22.5770 C   0  0  0  0  0  0  0  0  0  0  0  0
  -21.4270  -29.2900   22.4500 N   0  0  0  0  0  0  0  0  0  0  0  0
  -23.4310  -28.8430   23.3960 O   0  0  0  0  0  0  0  0  0  0  0  0
  -20.9400  -29.8460   21.7610 H   0  0  0  0  0  0  0  0  0  0  0  0
  -18.0500  -28.0770   22.9470 C   0  0  0  0  0  0  0  0  0  0  0  0
  -20.6080  -28.3510   23.2210 C   0  0  0  0  0  3  0  0  0  0  0  0
  -20.7180  -26.9190   22.6470 C   0  0  0  0  0  2  0  0  0  0  0  0
  -19.6200  -26.5890   21.6320 C   0  0  0  0  0  2  0  0  0  0  0  0
  -18.2350  -26.7280   22.2720 C   0  0  0  0  0  2  0  0  0  0  0  0
  -19.1640  -28.8450   23.3770 C   0  0  0  0  0  0  0  0  0  0  0  0
  -18.9370  -30.1070   23.9690 C   0  0  0  0  0  3  0  0  0  0  0  0
  -17.6300  -30.6010   24.1330 C   0  0  0  0  0  3  0  0  0  0  0  0
  -16.5310  -29.8310   23.7200 C   0  0  0  0  0  3  0  0  0  0  0  0
  -16.7410  -28.5710   23.1340 C   0  0  0  0  0  3  0  0  0  0  0  0
  -25.9130  -32.5080   23.8740 C   0  0  0  0  0  3  0  0  0  0  0  0
  -25.6120  -33.9080   24.2050 N   0  0  0  0  0  0  0  0  0  0  0  0
  -25.9290  -34.9570   23.4370 C   0  0  0  0  0  0  0  0  0  0  0  0
  -26.5800  -34.8500   22.3940 O   0  0  0  0  0  0  0  0  0  0  0  0
  -25.0320  -34.0660   25.0160 H   0  0  0  0  0  0  0  0  0  0  0  0
  -24.1850  -36.7410   23.1100 C   0  0  0  0  0  1  0  0  0  0  0  0
  -25.4440  -36.3450   23.8970 C   0  0  0  0  0  3  0  0  0  0  0  0
  -27.6100  -37.2220   24.6560 C   0  0  0  0  0  1  0  0  0  0  0  0
  -26.4640  -37.4110   23.7700 N   0  0  0  0  0  0  0  0  0  0  0  0
  -26.0550  -38.3170   23.9800 H   0  0  0  0  0  0  0  0  0  0  0  0
  -26.4190  -31.7390   25.1570 C   0  0  1  0  0  0  0  0  0  0  0  0
  -25.3180  -31.5130   26.2190 C   0  0  0  0  0  1  0  0  0  0  0  0
  -26.9960  -30.3570   24.7780 C   0  0  0  0  0  1  0  0  0  0  0  0
  -27.5710  -32.5310   25.8180 C   0  0  0  0  0  1  0  0  0  0  0  0
  1  4  1  0
  1  5  1  0
  1  2  1  0
  2  6  2  0
  3  8  1  0
  3  7  1  0
  5  3  2  0
  6  7  1  0
  8  9  1  0
 10 21  1  0
 11 16  1  0
 12 13  1  0
 12 11  1  0
 14 13  1  0
 14 25  1  0
 14 15  1  0
 16 10  1  0
 16 15  1  0
 17 10  2  0
 18 21  1  0
 20 18  1  0
 20  8  1  0
 20 19  1  0
 21 19  1  0
 22 23  2  0
 23 42  1  0
 24 23  1  0
 24 27  1  0
 25 22  1  0
 25 26  1  0
 26 24  2  0
 27 28  1  0
 28 29  2  0
 30 33  1  0
 30 29  1  0
 31 30  2  0
 32 31  1  0
 32 27  2  0
 33 34  1  0
 34 35  1  0
 35 36  2  0
 37 36  1  0
 37 41  1  0
 38 37  2  0
 39 34  2  0
 39 38  1  0
 40 39  1  0
 42 43  1  0
 43 46  1  0
 43 45  1  0
 44 42  2  0
 47 48  1  0
 47 22  1  0
 49 47  1  0
 50  2  1  0
 50 51  1  0
 52 63  2  0
 53 51  1  0
 53 58  1  0
 54 62  1  0
 54 64  1  0
 55 61  1  0
 55 57  1  0
 56 62  1  0
 57 56  1  0
 58 57  2  0
 59 60  1  0
 59 53  2  0
 60 55  2  0
 61 54  1  0
 62 52  1  0
 64 66  2  0
 65 64  1  0
 67 65  1  0
 68 77  2  0
 68 73  1  0
 69 65  1  0
 69 73  1  0
 70 69  1  0
 71 72  1  0
 71 70  1  0
 72 68  1  0
 73 74  2  0
 74 75  1  0
 76 75  2  0
 77 76  1  0
 78 52  1  0
 78 79  1  0
 78 88  1  0
 79 82  1  0
 80 84  1  0
 80 79  1  0
 81 80  2  0
 84 83  1  0
 86 84  1  0
 86 87  1  0
 86 85  1  0
 88 91  1  1
 88 89  1  0
 90 88  1  0
M  ISO  4  10 100  21 100  50 101  51 101
M  END
>  <TORSDO>  (99) 
F 17

>  <SCORE>  (99) 
-15.435

>  <name>  (99) 
98

>  <ligand_id>  (99) 
98

>  <original_smiles>  (99) 
[H]c1c([H])c([H])c2c(c1[H])C([H])([H])C([H])([H])C([H])([H])C2([H])N([H])C(=O)C1([H])N(C(=O)C([H])(N([H])C(=O)C([H])(N([H])C([H])([H])[H])C([H])([H])[H])C(C([H])([H])[H])(C([H])([H])[H])C([H])([H])[H])C([H])([H])c2c([H])c(OC([H])([H])c3nnc(N([H])C4([H])C([H])([H])N(C(=O)N5C([H])([H])C([H])([H])C([H])([H])C([H])(n6nc(-c7c([H])c([H])c(Oc8c([H])c([H])c(F)c([H])c8F)c([H])c7[H])c(C(=O)N([H])[H])c6N([H])[H])C5([H])[H])C4([H])[H])nc3C([H])([H])[H])c([H])c([H])c2C1([H])[H]

>  <smiles>  (99) 
[H]c1c([H])c([H])c2c(c1[H])C([H])([H])C([H])([H])C([H])([H])C2([H])N([H])C(=O)C1([H])N(C(=O)C([H])(N([H])C(=O)C([H])(N([H])C([H])([H])[H])C([H])([H])[H])C(C([H])([H])[H])(C([H])([H])[H])C([H])([H])[H])C([H])([H])c2c([H])c(OC([H])([H])c3nnc(N([H])C4([H])C([H])([H])N(C(=O)N5C([H])([H])C([H])([H])C([H])([H])C([H])(n6nc(-c7c([H])c([H])c(Oc8c([H])c([H])c(F)c([H])c8F)c([H])c7[H])c(C(=O)N([H])[H])c6N([H])[H])C5([H])[H])C4([H])[H])nc3C([H])([H])[H])c([H])c([H])c2C1([H])[H]

> <Step>
188.0

> <Scaffold>
O=C(NC1CCCc2ccccc21)C1Cc2ccc(OCc3cnc(NC4CN(C(=O)N5CCCC(n6ccc(-c7ccc(Oc8ccccc8)cc7)n6)C5)C4)nn3)cc2CN1

> <SMILES>
CNC(C)C(=O)NC(C(=O)N1Cc2cc(OCc3nnc(NC4CN(C(=O)N5CCCC(n6nc(-c7ccc(Oc8ccc(F)cc8F)cc7)c(C(N)=O)c6N)C5)C4)nc3C)ccc2CC1C(=O)NC1CCCc2ccccc21)C(C)(C)C

> <Tanimoto ROCS sim>
0.28100109100341797

> <Custom alerts>
1.0

> <Linker Num Aromatic Rings>
1.0

> <Linker Effective Length>
1.0

> <ADV>
0.9972753524780273

> <PostDock Tanimoto ROCS sim>
0.986879289150238

> <raw_Linker Num Aromatic Rings>
1.0

> <raw_Linker Effective Length>
8.0

> <raw_ADV>
-15.253999710083008

> <total_score>
0.9960386753082275

> <ID>
default_job_198

> <PostDock Tanimoto ROCS sim (re-score)>
0.9765239

> <raw_ADV (re-score)>
-15.435

$$$$
default_job_199
     RDKit          3D

 90 99  0  0  1  0  0  0  0  0999 V2000
  -30.0720  -20.6140   19.3000 C   0  0  0  0  0  2  0  0  0  0  0  0
  -29.5790  -22.0550   18.9930 C   0  0  0  0  0  2  0  0  0  0  0  0
  -28.9610  -21.4480   21.1990 C   0  0  0  0  0  2  0  0  0  0  0  0
  -29.1720  -20.1040   20.4260 C   0  0  0  0  0  3  0  0  0  0  0  0
  -28.8160  -22.5390   20.1750 N   0  0  1  0  0  4  0  0  0  0  0  0
  -27.8440  -22.4990   19.8990 H   0  0  0  0  0  0  0  0  0  0  0  0
  -29.0780  -23.9800   20.6040 C   0  0  0  0  0  2  0  0  0  0  0  0
  -28.1280  -25.0580   19.9410 C   0  0  0  0  0  2  0  0  0  0  0  0
  -28.3160  -26.4920   20.2450 O   0  0  0  0  0  0  0  0  0  0  0  0
  -24.6090  -31.8880   23.2470 C   0  0  0  0  0  0  0  0  0  0  0  0
  -27.1980  -27.3370   20.1740 C   0  0  0  0  0  0  0  0  0  0  0  0
  -23.3950  -30.4860   21.6190 C   0  0  0  0  0  3  0  0  0  0  0  0
  -24.8360  -28.9450   20.1800 C   0  0  0  0  0  0  0  0  0  0  0  0
  -25.9360  -30.8010   21.4300 C   0  0  0  0  0  2  0  0  0  0  0  0
  -26.0070  -29.4270   20.7780 C   0  0  0  0  0  0  0  0  0  0  0  0
  -27.1890  -28.6330   20.7720 C   0  0  0  0  0  3  0  0  0  0  0  0
  -26.0080  -26.9170   19.5300 C   0  0  0  0  0  3  0  0  0  0  0  0
  -24.8370  -27.6940   19.5480 C   0  0  0  0  0  3  0  0  0  0  0  0
  -23.6000  -29.8160   20.2370 C   0  0  0  0  0  2  0  0  0  0  0  0
  -24.6660  -31.0710   22.1570 N   0  0  0  0  0  0  0  0  0  0  0  0
  -23.5240  -32.1920   23.7610 O   0  0  0  0  0  0  0  0  0  0  0  0
  -22.7370  -29.4670   22.5800 C   0  0  0  0  0  0  0  0  0  0  0  0
  -21.4120  -29.2840   22.4510 N   0  0  0  0  0  0  0  0  0  0  0  0
  -23.4160  -28.8440   23.3990 O   0  0  0  0  0  0  0  0  0  0  0  0
  -20.9250  -29.8430   21.7640 H   0  0  0  0  0  0  0  0  0  0  0  0
  -18.0370  -28.0730   22.9290 C   0  0  0  0  0  0  0  0  0  0  0  0
  -20.5920  -28.3460   23.2180 C   0  0  0  0  0  3  0  0  0  0  0  0
  -20.7050  -26.9130   22.6490 C   0  0  0  0  0  2  0  0  0  0  0  0
  -19.6120  -26.5790   21.6300 C   0  0  0  0  0  2  0  0  0  0  0  0
  -18.2240  -26.7210   22.2620 C   0  0  0  0  0  2  0  0  0  0  0  0
  -19.1490  -28.8430   23.3630 C   0  0  0  0  0  0  0  0  0  0  0  0
  -18.9200  -30.1080   23.9460 C   0  0  0  0  0  3  0  0  0  0  0  0
  -17.6120  -30.6050   24.1000 C   0  0  0  0  0  3  0  0  0  0  0  0
  -16.5140  -29.8320   23.6820 C   0  0  0  0  0  3  0  0  0  0  0  0
  -16.7270  -28.5690   23.1020 C   0  0  0  0  0  3  0  0  0  0  0  0
  -25.8970  -32.5050   23.8760 C   0  0  0  0  0  3  0  0  0  0  0  0
  -26.4080  -31.7290   25.1520 C   0  0  1  0  0  0  0  0  0  0  0  0
  -25.3110  -31.4990   26.2180 C   0  0  0  0  0  1  0  0  0  0  0  0
  -26.9840  -30.3490   24.7610 C   0  0  0  0  0  1  0  0  0  0  0  0
  -27.5630  -32.5170   25.8160 C   0  0  0  0  0  1  0  0  0  0  0  0
  -25.5980  -33.9030   24.2100 N   0  0  0  0  0  0  0  0  0  0  0  0
  -25.9200  -34.9530   23.4430 C   0  0  0  0  0  0  0  0  0  0  0  0
  -26.5740  -34.8460   22.4030 O   0  0  0  0  0  0  0  0  0  0  0  0
  -25.0150  -34.0620   25.0190 H   0  0  0  0  0  0  0  0  0  0  0  0
  -24.1820  -36.7420   23.1190 C   0  0  0  0  0  1  0  0  0  0  0  0
  -25.4400  -36.3430   23.9050 C   0  0  0  0  0  3  0  0  0  0  0  0
  -27.5910  -37.2310   24.6890 C   0  0  0  0  0  1  0  0  0  0  0  0
  -26.4690  -37.3970   23.7680 N   0  0  0  0  0  0  0  0  0  0  0  0
  -26.0650  -38.3170   23.9220 H   0  0  0  0  0  0  0  0  0  0  0  0
  -29.7080  -19.0110   21.2350 O   0  0  0  0  0  0  0  0  0  0  0  0
  -30.6440  -14.5870   20.4610 C   0  0  0  0  0  0  0  0  0  0  0  0
  -30.3510  -12.3820   19.3560 C   0  0  0  0  0  2  0  0  0  0  0  0
  -29.4190  -12.5400   18.1370 C   0  0  0  0  0  2  0  0  0  0  0  0
  -27.9460  -12.3970   18.5610 C   0  0  0  0  0  2  0  0  0  0  0  0
  -27.5960  -13.2580   19.8040 C   0  0  0  0  0  3  0  0  0  0  0  0
  -28.6470  -13.0930   20.9250 C   0  0  0  0  0  2  0  0  0  0  0  0
  -29.9640  -13.4030   20.3510 N   0  0  0  0  0  0  0  0  0  0  0  0
  -31.7860  -14.7100   20.0090 O   0  0  0  0  0  0  0  0  0  0  0  0
  -30.7400  -16.7960   21.6650 C   0  0  0  0  0  2  0  0  0  0  0  0
  -29.0790  -16.6090   20.4290 C   0  0  0  0  0  2  0  0  0  0  0  0
  -30.1070  -17.7420   20.6280 C   0  0  0  0  0  3  0  0  0  0  0  0
  -30.0200  -15.6470   21.0650 N   0  0  0  0  0  0  0  0  0  0  0  0
  -25.2020  -13.8750   20.4990 C   0  0  0  0  0  0  0  0  0  0  0  0
  -24.1290  -13.1100   20.8670 C   0  0  0  0  0  0  0  0  0  0  0  0
  -24.5840  -11.7570   20.8520 C   0  0  0  0  0  0  0  0  0  0  0  0
  -26.2430  -12.9880   20.2820 N   0  0  0  0  0  0  0  0  0  0  0  0
  -25.8770  -11.7090   20.5540 N   0  0  0  0  0  0  0  0  0  0  0  0
  -23.8510  -10.5000   21.0470 C   0  0  0  0  0  0  0  0  0  0  0  0
  -24.2820   -9.5290   21.9780 C   0  0  0  0  0  3  0  0  0  0  0  0
  -23.5490   -8.3380   22.1620 C   0  0  0  0  0  3  0  0  0  0  0  0
  -22.3700   -8.1060   21.4130 C   0  0  0  0  0  0  0  0  0  0  0  0
  -21.9590   -9.0650   20.4720 C   0  0  0  0  0  3  0  0  0  0  0  0
  -22.6920  -10.2490   20.2860 C   0  0  0  0  0  3  0  0  0  0  0  0
  -21.6080   -6.9670   21.5070 O   0  0  0  0  0  0  0  0  0  0  0  0
  -21.5730   -6.2170   22.6550 C   0  0  0  0  0  0  0  0  0  0  0  0
  -21.1790   -6.7700   23.8930 C   0  0  0  0  0  3  0  0  0  0  0  0
  -21.0900   -5.9460   25.0340 C   0  0  0  0  0  3  0  0  0  0  0  0
  -21.3830   -4.5740   24.9370 C   0  0  0  0  0  0  0  0  0  0  0  0
  -21.7700   -4.0210   23.7040 C   0  0  0  0  0  3  0  0  0  0  0  0
  -21.8610   -4.8410   22.5650 C   0  0  0  0  0  0  0  0  0  0  0  0
  -22.2130   -4.3000   21.3740 F   0  0  0  0  0  0  0  0  0  0  0  0
  -21.2900   -3.7810   26.0310 F   0  0  0  0  0  0  0  0  0  0  0  0
  -22.7330  -13.5960   21.1260 C   0  0  0  0  0  0  0  0  0  0  0  0
  -21.9970  -12.9140   21.9950 N   0  0  0  0  0  0  0  0  0  0  0  0
  -22.3020  -14.6190   20.5920 O   0  0  0  0  0  0  0  0  0  0  0  0
  -22.3580  -12.0860   22.4470 H   0  0  0  0  0  0  0  0  0  0  0  0
  -21.0600  -13.2210   22.2130 H   0  0  0  0  0  0  0  0  0  0  0  0
  -25.3740  -15.2430   20.3090 N   0  0  0  0  0  0  0  0  0  0  0  0
  -24.6090  -15.9020   20.4050 H   0  0  0  0  0  0  0  0  0  0  0  0
  -26.2290  -15.6720   19.9810 H   0  0  0  0  0  0  0  0  0  0  0  0
  1  4  1  0
  2  1  1  0
  2  5  1  0
  4  3  1  0
  4 50  1  0
  5  7  1  0
  5  3  1  0
  5  6  1  6
  8  9  1  0
  8  7  1  0
 10 21  2  0
 11  9  1  0
 11 16  1  0
 12 20  1  0
 12 22  1  0
 13 19  1  0
 13 15  1  0
 14 20  1  0
 15 14  1  0
 16 15  2  0
 17 18  1  0
 17 11  2  0
 18 13  2  0
 19 12  1  0
 20 10  1  0
 22 24  2  0
 23 22  1  0
 25 23  1  0
 26 35  2  0
 26 31  1  0
 27 23  1  0
 27 31  1  0
 28 27  1  0
 29 30  1  0
 29 28  1  0
 30 26  1  0
 31 32  2  0
 32 33  1  0
 34 33  2  0
 35 34  1  0
 36 10  1  0
 36 41  1  0
 36 37  1  0
 37 40  1  1
 37 38  1  0
 39 37  1  0
 41 44  1  0
 42 46  1  0
 42 41  1  0
 43 42  2  0
 46 45  1  0
 48 46  1  0
 48 49  1  0
 48 47  1  0
 51 62  1  0
 52 57  1  0
 53 54  1  0
 53 52  1  0
 55 54  1  0
 55 66  1  0
 55 56  1  0
 57 51  1  0
 57 56  1  0
 58 51  2  0
 60 61  1  0
 60 62  1  0
 61 50  1  0
 61 59  1  0
 62 59  1  0
 63 64  2  0
 64 83  1  0
 65 64  1  0
 65 68  1  0
 66 63  1  0
 66 67  1  0
 67 65  2  0
 68 69  1  0
 69 70  2  0
 71 74  1  0
 71 70  1  0
 72 71  2  0
 73 72  1  0
 73 68  2  0
 74 75  1  0
 75 76  1  0
 76 77  2  0
 78 77  1  0
 78 82  1  0
 79 78  2  0
 80 75  2  0
 80 79  1  0
 81 80  1  0
 83 84  1  0
 84 87  1  0
 84 86  1  0
 85 83  2  0
 88 89  1  0
 88 63  1  0
 90 88  1  0
M  ISO  4   8 101   9 101  51 100  62 100
M  END
>  <TORSDO>  (100) 
F 19

>  <SCORE>  (100) 
-14.356

>  <name>  (100) 
99

>  <ligand_id>  (100) 
99

>  <original_smiles>  (100) 
[H]c1c([H])c([H])c2c(c1[H])C([H])([H])C([H])([H])C([H])([H])C2([H])N([H])C(=O)C1([H])N(C(=O)C([H])(N([H])C(=O)C([H])(N([H])C([H])([H])[H])C([H])([H])[H])C(C([H])([H])[H])(C([H])([H])[H])C([H])([H])[H])C([H])([H])c2c([H])c(OC([H])([H])C([H])([H])[N+]3([H])C([H])([H])C([H])([H])C([H])(OC4([H])C([H])([H])N(C(=O)N5C([H])([H])C([H])([H])C([H])([H])C([H])(n6nc(-c7c([H])c([H])c(Oc8c([H])c([H])c(F)c([H])c8F)c([H])c7[H])c(C(=O)N([H])[H])c6N([H])[H])C5([H])[H])C4([H])[H])C3([H])[H])c([H])c([H])c2C1([H])[H]

>  <smiles>  (100) 
[H]c1c([H])c([H])c2c(c1[H])C([H])([H])C([H])([H])C([H])([H])C2([H])N([H])C(=O)C1([H])N(C(=O)C([H])(N([H])C(=O)C([H])(N([H])C([H])([H])[H])C([H])([H])[H])C(C([H])([H])[H])(C([H])([H])[H])C([H])([H])[H])C([H])([H])c2c([H])c(OC([H])([H])C([H])([H])[N+]3([H])C([H])([H])C([H])([H])C([H])(OC4([H])C([H])([H])N(C(=O)N5C([H])([H])C([H])([H])C([H])([H])C([H])(n6nc(-c7c([H])c([H])c(Oc8c([H])c([H])c(F)c([H])c8F)c([H])c7[H])c(C(=O)N([H])[H])c6N([H])[H])C5([H])[H])C4([H])[H])C3([H])[H])c([H])c([H])c2C1([H])[H]

> <Step>
197.0

> <Scaffold>
O=C(NC1CCCc2ccccc21)C1Cc2ccc(OCCN3CCC(OC4CN(C(=O)N5CCCC(n6ccc(-c7ccc(Oc8ccccc8)cc7)n6)C5)C4)C3)cc2CN1

> <SMILES>
CNC(C)C(=O)NC(C(=O)N1Cc2cc(OCCN3CCC(OC4CN(C(=O)N5CCCC(n6nc(-c7ccc(Oc8ccc(F)cc8F)cc7)c(C(N)=O)c6N)C5)C4)C3)ccc2CC1C(=O)NC1CCCc2ccccc21)C(C)(C)C

> <Tanimoto ROCS sim>
0.24974338710308075

> <Custom alerts>
1.0

> <Linker Num Aromatic Rings>
1.0

> <Linker Effective Length>
1.0

> <ADV>
0.9954079985618591

> <PostDock Tanimoto ROCS sim>
0.9887140989303589

> <raw_Linker Num Aromatic Rings>
0.0

> <raw_Linker Effective Length>
8.0

> <raw_ADV>
-14.343999862670898

> <total_score>
0.9960305690765381

> <ID>
default_job_199

> <PostDock Tanimoto ROCS sim (re-score)>
0.98182803

> <raw_ADV (re-score)>
-14.356

$$$$
