default_job_0
     RDKit          3D

 95104  0  0  1  0  0  0  0  0999 V2000
  -30.6030  -14.7870   20.4560 C   0  0  0  0  0  0  0  0  0  0  0  0
  -30.3810  -12.5320   19.3990 C   0  0  0  0  0  2  0  0  0  0  0  0
  -29.4520  -12.6280   18.1710 C   0  0  0  0  0  2  0  0  0  0  0  0
  -27.9790  -12.4600   18.5910 C   0  0  0  0  0  2  0  0  0  0  0  0
  -27.6040  -13.3300   19.8200 C   0  0  0  0  0  3  0  0  0  0  0  0
  -28.6550  -13.2220   20.9450 C   0  0  0  0  0  2  0  0  0  0  0  0
  -29.9550  -13.5760   20.3610 N   0  0  0  0  0  0  0  0  0  0  0  0
  -31.8000  -14.8400   20.1480 O   0  0  0  0  0  0  0  0  0  0  0  0
  -29.2350  -18.4470   20.5830 C   0  0  0  0  0  3  0  0  0  0  0  0
  -29.5950  -19.8590   20.6210 C   0  0  0  0  0  0  0  0  0  0  0  0
  -30.9600  -20.1280   20.8210 C   0  0  0  0  0  0  0  0  0  0  0  0
  -31.8680  -19.0460   20.9260 C   0  0  0  0  0  0  0  0  0  0  0  0
  -30.2050  -17.3750   20.7040 C   0  0  0  0  0  0  0  0  0  0  0  0
  -31.4210  -21.5810   20.8840 C   0  0  0  0  0  2  0  0  0  0  0  0
  -30.3360  -22.5540   21.3900 C   0  0  0  0  0  2  0  0  0  0  0  0
  -28.6050  -21.0840   20.3500 C   0  0  0  0  0  3  0  0  0  0  0  0
  -33.3620  -19.2680   21.0810 C   0  0  0  0  0  1  0  0  0  0  0  0
  -28.1070  -20.8960   18.9010 C   0  0  0  0  0  1  0  0  0  0  0  0
  -31.4950  -17.7460   20.8780 N   0  0  0  0  0  0  0  0  0  0  0  0
  -29.8380  -15.9350   20.6600 N   0  0  0  0  0  0  0  0  0  0  0  0
  -29.1120  -22.5440   20.5430 N   0  0  1  0  0  4  0  0  0  0  0  0
  -28.8550  -15.7530   20.7650 H   0  0  0  0  0  0  0  0  0  0  0  0
  -29.4570  -22.8000   19.6320 H   0  0  0  0  0  0  0  0  0  0  0  0
  -25.2100  -13.9200   20.5240 C   0  0  0  0  0  0  0  0  0  0  0  0
  -24.1410  -13.1450   20.8850 C   0  0  0  0  0  0  0  0  0  0  0  0
  -24.6050  -11.7950   20.8620 C   0  0  0  0  0  0  0  0  0  0  0  0
  -26.2560  -13.0400   20.2990 N   0  0  0  0  0  0  0  0  0  0  0  0
  -25.8990  -11.7580   20.5660 N   0  0  0  0  0  0  0  0  0  0  0  0
  -23.8780  -10.5320   21.0450 C   0  0  0  0  0  0  0  0  0  0  0  0
  -24.3010   -9.5650   21.9830 C   0  0  0  0  0  3  0  0  0  0  0  0
  -23.5720   -8.3680   22.1550 C   0  0  0  0  0  3  0  0  0  0  0  0
  -22.4070   -8.1290   21.3870 C   0  0  0  0  0  0  0  0  0  0  0  0
  -22.0050   -9.0850   20.4370 C   0  0  0  0  0  3  0  0  0  0  0  0
  -22.7340  -10.2740   20.2650 C   0  0  0  0  0  3  0  0  0  0  0  0
  -21.6510   -6.9860   21.4680 O   0  0  0  0  0  0  0  0  0  0  0  0
  -21.5800   -6.2490   22.6230 C   0  0  0  0  0  0  0  0  0  0  0  0
  -21.1180   -6.8080   23.8360 C   0  0  0  0  0  3  0  0  0  0  0  0
  -20.9960   -5.9980   24.9820 C   0  0  0  0  0  3  0  0  0  0  0  0
  -21.3250   -4.6300   24.9180 C   0  0  0  0  0  0  0  0  0  0  0  0
  -21.7810   -4.0720   23.7100 C   0  0  0  0  0  3  0  0  0  0  0  0
  -21.9050   -4.8790   22.5650 C   0  0  0  0  0  0  0  0  0  0  0  0
  -22.3240   -4.3310   21.3990 F   0  0  0  0  0  0  0  0  0  0  0  0
  -21.2000   -3.8490   26.0160 F   0  0  0  0  0  0  0  0  0  0  0  0
  -22.7400  -13.6230   21.1370 C   0  0  0  0  0  0  0  0  0  0  0  0
  -22.0000  -12.9260   21.9920 N   0  0  0  0  0  0  0  0  0  0  0  0
  -22.3110  -14.6500   20.6130 O   0  0  0  0  0  0  0  0  0  0  0  0
  -22.3590  -12.0940   22.4380 H   0  0  0  0  0  0  0  0  0  0  0  0
  -21.0600  -13.2280   22.2040 H   0  0  0  0  0  0  0  0  0  0  0  0
  -25.3730  -15.2900   20.3430 N   0  0  0  0  0  0  0  0  0  0  0  0
  -24.5970  -15.9360   20.4370 H   0  0  0  0  0  0  0  0  0  0  0  0
  -26.2030  -15.7250   19.9630 H   0  0  0  0  0  0  0  0  0  0  0  0
  -26.7450  -23.5860   20.1810 C   0  0  0  0  0  1  0  0  0  0  0  0
  -28.0830  -23.6570   20.9400 C   0  0  0  0  0  3  0  0  0  0  0  0
  -28.4940  -25.2210   21.2570 C   0  0  0  0  0  2  0  0  0  0  0  0
  -28.4400  -26.4300   20.3660 O   0  0  0  0  0  0  0  0  0  0  0  0
  -24.6310  -31.9310   23.2830 C   0  0  0  0  0  0  0  0  0  0  0  0
  -27.3320  -27.3020   20.3790 C   0  0  0  0  0  0  0  0  0  0  0  0
  -23.4810  -30.5020   21.6360 C   0  0  0  0  0  3  0  0  0  0  0  0
  -24.9770  -28.9370   20.2720 C   0  0  0  0  0  0  0  0  0  0  0  0
  -26.0280  -30.8140   21.5290 C   0  0  0  0  0  2  0  0  0  0  0  0
  -26.1270  -29.4230   20.9080 C   0  0  0  0  0  0  0  0  0  0  0  0
  -27.3090  -28.6160   20.9550 C   0  0  0  0  0  3  0  0  0  0  0  0
  -26.1720  -26.8920   19.6950 C   0  0  0  0  0  3  0  0  0  0  0  0
  -25.0030  -27.6770   19.6560 C   0  0  0  0  0  3  0  0  0  0  0  0
  -23.7380  -29.8120   20.2710 C   0  0  0  0  0  2  0  0  0  0  0  0
  -24.7320  -31.0990   22.2080 N   0  0  0  0  0  0  0  0  0  0  0  0
  -23.5260  -32.2370   23.7530 O   0  0  0  0  0  0  0  0  0  0  0  0
  -22.7950  -29.4930   22.5890 C   0  0  0  0  0  0  0  0  0  0  0  0
  -21.4680  -29.3250   22.4440 N   0  0  0  0  0  0  0  0  0  0  0  0
  -23.4560  -28.8630   23.4180 O   0  0  0  0  0  0  0  0  0  0  0  0
  -20.9950  -29.8840   21.7480 H   0  0  0  0  0  0  0  0  0  0  0  0
  -18.0680  -28.1850   22.9300 C   0  0  0  0  0  0  0  0  0  0  0  0
  -20.6310  -28.3940   23.2040 C   0  0  0  0  0  3  0  0  0  0  0  0
  -20.7080  -26.9670   22.6120 C   0  0  0  0  0  2  0  0  0  0  0  0
  -19.6000  -26.6770   21.5940 C   0  0  0  0  0  2  0  0  0  0  0  0
  -18.2210  -26.8410   22.2380 C   0  0  0  0  0  2  0  0  0  0  0  0
  -19.2010  -28.9220   23.3700 C   0  0  0  0  0  0  0  0  0  0  0  0
  -19.0040  -30.1810   23.9760 C   0  0  0  0  0  3  0  0  0  0  0  0
  -17.7090  -30.7030   24.1490 C   0  0  0  0  0  3  0  0  0  0  0  0
  -16.5910  -29.9640   23.7250 C   0  0  0  0  0  3  0  0  0  0  0  0
  -16.7710  -28.7070   23.1200 C   0  0  0  0  0  3  0  0  0  0  0  0
  -25.8920  -32.5660   23.9490 C   0  0  0  0  0  3  0  0  0  0  0  0
  -25.5740  -33.9710   24.2460 N   0  0  0  0  0  0  0  0  0  0  0  0
  -25.9140  -35.0090   23.4720 C   0  0  0  0  0  0  0  0  0  0  0  0
  -26.6000  -34.8860   22.4540 O   0  0  0  0  0  0  0  0  0  0  0  0
  -24.9670  -34.1390   25.0340 H   0  0  0  0  0  0  0  0  0  0  0  0
  -24.1830  -36.7880   23.0600 C   0  0  0  0  0  1  0  0  0  0  0  0
  -25.4170  -36.4060   23.8940 C   0  0  0  0  0  3  0  0  0  0  0  0
  -27.5340  -37.3200   24.7350 C   0  0  0  0  0  1  0  0  0  0  0  0
  -26.4480  -37.4590   23.7700 N   0  0  0  0  0  0  0  0  0  0  0  0
  -26.0360  -38.3820   23.8880 H   0  0  0  0  0  0  0  0  0  0  0  0
  -26.3600  -31.8160   25.2580 C   0  0  1  0  0  0  0  0  0  0  0  0
  -25.2260  -31.5980   26.2850 C   0  0  0  0  0  1  0  0  0  0  0  0
  -26.9590  -30.4330   24.9140 C   0  0  0  0  0  1  0  0  0  0  0  0
  -27.4830  -32.6240   25.9500 C   0  0  0  0  0  1  0  0  0  0  0  0
  1 20  1  0
  2  7  1  0
  3  4  1  0
  3  2  1  0
  5  4  1  0
  5 27  1  0
  5  6  1  0
  7  1  1  0
  7  6  1  0
  8  1  2  0
  9 10  2  0
  9 13  1  0
 10 11  1  0
 11 14  1  0
 11 12  2  0
 12 17  1  0
 13 19  2  0
 14 15  1  0
 16 18  1  0
 16 21  1  0
 16 10  1  0
 19 12  1  0
 20 13  1  0
 20 22  1  0
 21 53  1  0
 21 15  1  0
 21 23  1  6
 24 25  2  0
 25 44  1  0
 26 25  1  0
 26 29  1  0
 27 24  1  0
 27 28  1  0
 28 26  2  0
 29 30  1  0
 30 31  2  0
 32 35  1  0
 32 31  1  0
 33 32  2  0
 34 33  1  0
 34 29  2  0
 35 36  1  0
 36 37  1  0
 37 38  2  0
 39 38  1  0
 39 43  1  0
 40 39  2  0
 41 36  2  0
 41 40  1  0
 42 41  1  0
 44 45  1  0
 45 48  1  0
 45 47  1  0
 46 44  2  0
 49 50  1  0
 49 24  1  0
 51 49  1  0
 53 52  1  0
 53 54  1  0
 55 57  1  0
 55 54  1  0
 56 67  2  0
 57 62  1  0
 58 66  1  0
 58 68  1  0
 59 61  1  0
 60 66  1  0
 61 62  2  0
 61 60  1  0
 63 57  2  0
 64 63  1  0
 64 59  2  0
 65 59  1  0
 65 58  1  0
 66 56  1  0
 68 70  2  0
 69 68  1  0
 71 69  1  0
 72 81  2  0
 72 77  1  0
 73 69  1  0
 73 77  1  0
 74 73  1  0
 75 76  1  0
 75 74  1  0
 76 72  1  0
 77 78  2  0
 78 79  1  0
 80 79  2  0
 81 80  1  0
 82 56  1  0
 82 83  1  0
 82 92  1  0
 83 86  1  0
 84 88  1  0
 84 83  1  0
 85 84  2  0
 88 87  1  0
 90 91  1  0
 90 88  1  0
 90 89  1  0
 92 95  1  1
 92 93  1  0
 94 92  1  0
M  ISO  4   1 100  20 100  54 101  55 101
M  END
>  <TORSDO>  (1) 
F 17

>  <SCORE>  (1) 
-15.676

>  <name>  (1) 
0

>  <ligand_id>  (1) 
0

>  <original_smiles>  (1) 
[H]c1c([H])c([H])c2c(c1[H])C([H])([H])C([H])([H])C([H])([H])C2([H])N([H])C(=O)C1([H])N(C(=O)C([H])(N([H])C(=O)C([H])(N([H])C([H])([H])[H])C([H])([H])[H])C(C([H])([H])[H])(C([H])([H])[H])C([H])([H])[H])C([H])([H])c2c([H])c(OC([H])([H])C([H])(C([H])([H])[H])[N+]3([H])C([H])([H])C([H])([H])c4c(C([H])([H])[H])nc(N([H])C(=O)N5C([H])([H])C([H])([H])C([H])([H])C([H])(n6nc(-c7c([H])c([H])c(Oc8c([H])c([H])c(F)c([H])c8F)c([H])c7[H])c(C(=O)N([H])[H])c6N([H])[H])C5([H])[H])c([H])c4C3([H])C([H])([H])[H])c([H])c([H])c2C1([H])[H]

>  <smiles>  (1) 
[H]c1c([H])c([H])c2c(c1[H])C([H])([H])C([H])([H])C([H])([H])C2([H])N([H])C(=O)C1([H])N(C(=O)C([H])(N([H])C(=O)C([H])(N([H])C([H])([H])[H])C([H])([H])[H])C(C([H])([H])[H])(C([H])([H])[H])C([H])([H])[H])C([H])([H])c2c([H])c(OC([H])([H])C([H])(C([H])([H])[H])[N+]3([H])C([H])([H])C([H])([H])c4c(C([H])([H])[H])nc(N([H])C(=O)N5C([H])([H])C([H])([H])C([H])([H])C([H])(n6nc(-c7c([H])c([H])c(Oc8c([H])c([H])c(F)c([H])c8F)c([H])c7[H])c(C(=O)N([H])[H])c6N([H])[H])C5([H])[H])c([H])c4C3([H])C([H])([H])[H])c([H])c([H])c2C1([H])[H]

> <Step>
172.0

> <Scaffold>
O=C(NC1CCCc2ccccc21)C1Cc2ccc(OCCN3CCc4cnc(NC(=O)N5CCCC(n6ccc(-c7ccc(Oc8ccccc8)cc7)n6)C5)cc4C3)cc2CN1

> <SMILES>
CNC(C)C(=O)NC(C(=O)N1Cc2cc(OCC(C)N3CCc4c(cc(NC(=O)N5CCCC(n6nc(-c7ccc(Oc8ccc(F)cc8F)cc7)c(C(N)=O)c6N)C5)nc4C)C3C)ccc2CC1C(=O)NC1CCCc2ccccc21)C(C)(C)C

> <Tanimoto ROCS sim>
0.14890676736831665

> <Custom alerts>
1.0

> <Linker Num Aromatic Rings>
1.0

> <Linker Effective Length>
1.0

> <ADV>
0.9975889921188354

> <PostDock Tanimoto ROCS sim>
0.9956076145172119

> <raw_Linker Num Aromatic Rings>
1.0

> <raw_Linker Effective Length>
7.0

> <raw_ADV>
-15.467000007629395

> <total_score>
0.9982991814613342

> <ID>
default_job_0

> <PostDock Tanimoto ROCS sim (re-score)>
0.9718906

> <raw_ADV (re-score)>
-15.676

> <Final Intermolecular Energy>
-30.798

> <Final Total Internal Energy>
-2.474

> <Torsional Free Energy>
15.121

> <Unbound System's Energy>
-2.474

$$$$
default_job_1
     RDKit          3D

 93102  0  0  1  0  0  0  0  0999 V2000
  -30.1510  -19.7740   21.9930 C   0  0  0  0  0  3  0  0  0  0  0  0
  -30.2090  -18.4200   21.5960 C   0  0  0  0  0  3  0  0  0  0  0  0
  -29.8000  -20.7540   21.0380 C   0  0  0  0  0  0  0  0  0  0  0  0
  -29.5090  -20.3210   19.7290 C   0  0  0  0  0  0  0  0  0  0  0  0
  -29.9020  -18.0950   20.2590 C   0  0  0  0  0  0  0  0  0  0  0  0
  -29.7880  -22.2460   21.4040 C   0  0  0  0  0  2  0  0  0  0  0  0
  -29.1480  -21.3190   18.6490 C   0  0  0  0  0  2  0  0  0  0  0  0
  -29.7280  -22.6940   18.9760 C   0  0  0  0  0  2  0  0  0  0  0  0
  -29.5450  -19.0300   19.3570 N   0  0  0  0  0  0  0  0  0  0  0  0
  -29.2640  -23.1230   20.3180 N   0  0  2  0  0  4  0  0  0  0  0  0
  -28.2650  -22.9770   20.3320 H   0  0  0  0  0  0  0  0  0  0  0  0
  -29.9890  -16.6950   19.6790 C   0  0  0  0  0  2  0  0  0  0  0  0
  -30.7540  -14.4970   20.3600 C   0  0  0  0  0  0  0  0  0  0  0  0
  -30.4380  -12.3410   19.2420 C   0  0  0  0  0  2  0  0  0  0  0  0
  -29.5080  -12.5930   18.0360 C   0  0  0  0  0  2  0  0  0  0  0  0
  -28.0290  -12.4750   18.4520 C   0  0  0  0  0  2  0  0  0  0  0  0
  -27.6950  -13.2870   19.7320 C   0  0  0  0  0  3  0  0  0  0  0  0
  -28.7490  -13.0520   20.8420 C   0  0  0  0  0  2  0  0  0  0  0  0
  -30.0840  -13.3190   20.2810 N   0  0  0  0  0  0  0  0  0  0  0  0
  -31.9050  -14.6500   19.9430 O   0  0  0  0  0  0  0  0  0  0  0  0
  -29.9710  -15.5560   20.6010 N   0  0  0  0  0  0  0  0  0  0  0  0
  -29.0740  -15.3590   21.0120 H   0  0  0  0  0  0  0  0  0  0  0  0
  -25.2940  -13.9020   20.4190 C   0  0  0  0  0  0  0  0  0  0  0  0
  -24.2240  -13.1340   20.7930 C   0  0  0  0  0  0  0  0  0  0  0  0
  -24.6850  -11.7810   20.7760 C   0  0  0  0  0  0  0  0  0  0  0  0
  -26.3400  -13.0170   20.2040 N   0  0  0  0  0  0  0  0  0  0  0  0
  -25.9770  -11.7390   20.4770 N   0  0  0  0  0  0  0  0  0  0  0  0
  -23.9590  -10.5210   20.9750 C   0  0  0  0  0  0  0  0  0  0  0  0
  -24.3890   -9.5620   21.9190 C   0  0  0  0  0  3  0  0  0  0  0  0
  -23.6620   -8.3670   22.1070 C   0  0  0  0  0  3  0  0  0  0  0  0
  -22.4930   -8.1200   21.3510 C   0  0  0  0  0  0  0  0  0  0  0  0
  -22.0830   -9.0680   20.3960 C   0  0  0  0  0  3  0  0  0  0  0  0
  -22.8100  -10.2540   20.2060 C   0  0  0  0  0  3  0  0  0  0  0  0
  -21.7400   -6.9750   21.4460 O   0  0  0  0  0  0  0  0  0  0  0  0
  -21.6840   -6.2450   22.6050 C   0  0  0  0  0  0  0  0  0  0  0  0
  -21.2500   -6.8100   23.8240 C   0  0  0  0  0  3  0  0  0  0  0  0
  -21.1450   -6.0050   24.9760 C   0  0  0  0  0  3  0  0  0  0  0  0
  -21.4610   -4.6340   24.9090 C   0  0  0  0  0  0  0  0  0  0  0  0
  -21.8870   -4.0690   23.6940 C   0  0  0  0  0  3  0  0  0  0  0  0
  -21.9960   -4.8720   22.5460 C   0  0  0  0  0  0  0  0  0  0  0  0
  -22.3860   -4.3160   21.3730 F   0  0  0  0  0  0  0  0  0  0  0  0
  -21.3510   -3.8580   26.0130 F   0  0  0  0  0  0  0  0  0  0  0  0
  -22.8250  -13.6130   21.0500 C   0  0  0  0  0  0  0  0  0  0  0  0
  -22.0920  -12.9260   21.9200 N   0  0  0  0  0  0  0  0  0  0  0  0
  -22.3900  -14.6320   20.5170 O   0  0  0  0  0  0  0  0  0  0  0  0
  -22.4540  -12.1020   22.3790 H   0  0  0  0  0  0  0  0  0  0  0  0
  -21.1530  -13.2300   22.1300 H   0  0  0  0  0  0  0  0  0  0  0  0
  -25.4570  -15.2700   20.2240 N   0  0  0  0  0  0  0  0  0  0  0  0
  -24.6860  -15.9220   20.3150 H   0  0  0  0  0  0  0  0  0  0  0  0
  -26.2990  -15.7080   19.8740 H   0  0  0  0  0  0  0  0  0  0  0  0
  -29.4500  -24.5790   20.5600 C   0  0  0  0  0  2  0  0  0  0  0  0
  -28.3190  -25.3840   19.9020 C   0  0  0  0  0  2  0  0  0  0  0  0
  -28.4040  -26.7750   20.2100 O   0  0  0  0  0  0  0  0  0  0  0  0
  -24.5870  -31.9240   23.2610 C   0  0  0  0  0  0  0  0  0  0  0  0
  -27.2250  -27.4910   20.1710 C   0  0  0  0  0  0  0  0  0  0  0  0
  -23.3800  -30.5210   21.6230 C   0  0  0  0  0  3  0  0  0  0  0  0
  -24.8290  -28.9940   20.1950 C   0  0  0  0  0  0  0  0  0  0  0  0
  -25.9070  -30.8800   21.4270 C   0  0  0  0  0  2  0  0  0  0  0  0
  -25.9890  -29.5140   20.7810 C   0  0  0  0  0  0  0  0  0  0  0  0
  -27.1880  -28.7710   20.7680 C   0  0  0  0  0  3  0  0  0  0  0  0
  -26.0440  -26.9920   19.5680 C   0  0  0  0  0  3  0  0  0  0  0  0
  -24.8500  -27.7290   19.5900 C   0  0  0  0  0  3  0  0  0  0  0  0
  -23.5890  -29.8540   20.2400 C   0  0  0  0  0  2  0  0  0  0  0  0
  -24.6440  -31.1190   22.1640 N   0  0  0  0  0  0  0  0  0  0  0  0
  -23.5030  -32.2170   23.7830 O   0  0  0  0  0  0  0  0  0  0  0  0
  -22.7310  -29.4930   22.5780 C   0  0  0  0  0  0  0  0  0  0  0  0
  -21.4080  -29.3060   22.4440 N   0  0  0  0  0  0  0  0  0  0  0  0
  -23.4150  -28.8690   23.3930 O   0  0  0  0  0  0  0  0  0  0  0  0
  -20.9180  -29.8650   21.7590 H   0  0  0  0  0  0  0  0  0  0  0  0
  -18.0320  -28.1140   22.9260 C   0  0  0  0  0  0  0  0  0  0  0  0
  -20.5890  -28.3690   23.2120 C   0  0  0  0  0  3  0  0  0  0  0  0
  -20.6930  -26.9380   22.6350 C   0  0  0  0  0  2  0  0  0  0  0  0
  -19.5960  -26.6160   21.6160 C   0  0  0  0  0  2  0  0  0  0  0  0
  -18.2110  -26.7640   22.2530 C   0  0  0  0  0  2  0  0  0  0  0  0
  -19.1500  -28.8750   23.3630 C   0  0  0  0  0  0  0  0  0  0  0  0
  -18.9300  -30.1380   23.9520 C   0  0  0  0  0  3  0  0  0  0  0  0
  -17.6260  -30.6430   24.1090 C   0  0  0  0  0  3  0  0  0  0  0  0
  -16.5220  -29.8790   23.6880 C   0  0  0  0  0  3  0  0  0  0  0  0
  -16.7270  -28.6170   23.1020 C   0  0  0  0  0  3  0  0  0  0  0  0
  -25.8770  -32.5430   23.8860 C   0  0  0  0  0  3  0  0  0  0  0  0
  -26.3850  -31.7720   25.1660 C   0  0  1  0  0  0  0  0  0  0  0  0
  -25.2830  -31.5470   26.2270 C   0  0  0  0  0  1  0  0  0  0  0  0
  -26.9630  -30.3900   24.7800 C   0  0  0  0  0  1  0  0  0  0  0  0
  -27.5360  -32.5630   25.8310 C   0  0  0  0  0  1  0  0  0  0  0  0
  -25.5760  -33.9430   24.2080 N   0  0  0  0  0  0  0  0  0  0  0  0
  -25.9160  -34.9870   23.4410 C   0  0  0  0  0  0  0  0  0  0  0  0
  -26.5890  -34.8730   22.4130 O   0  0  0  0  0  0  0  0  0  0  0  0
  -24.9700  -34.1050   24.9990 H   0  0  0  0  0  0  0  0  0  0  0  0
  -24.1960  -36.7850   23.0660 C   0  0  0  0  0  1  0  0  0  0  0  0
  -25.4330  -36.3810   23.8850 C   0  0  0  0  0  3  0  0  0  0  0  0
  -27.5730  -37.2590   24.7140 C   0  0  0  0  0  1  0  0  0  0  0  0
  -26.4710  -37.4300   23.7710 N   0  0  0  0  0  0  0  0  0  0  0  0
  -26.0670  -38.3500   23.9180 H   0  0  0  0  0  0  0  0  0  0  0  0
  2  1  1  0
  3  6  1  0
  3  1  2  0
  4  3  1  0
  5  2  2  0
  7  8  1  0
  7  4  1  0
  8 10  1  0
  9  4  2  0
  9  5  1  0
 10 11  1  6
 10 51  1  0
 10  6  1  0
 12  5  1  0
 12 21  1  0
 13 21  1  0
 14 19  1  0
 15 16  1  0
 15 14  1  0
 17 16  1  0
 17 26  1  0
 17 18  1  0
 19 13  1  0
 19 18  1  0
 20 13  2  0
 21 22  1  0
 23 24  2  0
 24 43  1  0
 25 24  1  0
 25 28  1  0
 26 23  1  0
 26 27  1  0
 27 25  2  0
 28 29  1  0
 29 30  2  0
 31 34  1  0
 31 30  1  0
 32 31  2  0
 33 32  1  0
 33 28  2  0
 34 35  1  0
 35 36  1  0
 36 37  2  0
 38 37  1  0
 38 42  1  0
 39 38  2  0
 40 35  2  0
 40 39  1  0
 41 40  1  0
 43 44  1  0
 44 47  1  0
 44 46  1  0
 45 43  2  0
 48 49  1  0
 48 23  1  0
 50 48  1  0
 52 53  1  0
 52 51  1  0
 54 65  2  0
 55 53  1  0
 55 60  1  0
 56 64  1  0
 56 66  1  0
 57 63  1  0
 57 59  1  0
 58 64  1  0
 59 58  1  0
 60 59  2  0
 61 62  1  0
 61 55  2  0
 62 57  2  0
 63 56  1  0
 64 54  1  0
 66 68  2  0
 67 66  1  0
 69 67  1  0
 70 79  2  0
 70 75  1  0
 71 67  1  0
 71 75  1  0
 72 71  1  0
 73 74  1  0
 73 72  1  0
 74 70  1  0
 75 76  2  0
 76 77  1  0
 78 77  2  0
 79 78  1  0
 80 54  1  0
 80 85  1  0
 80 81  1  0
 81 84  1  1
 81 82  1  0
 83 81  1  0
 85 88  1  0
 86 90  1  0
 86 85  1  0
 87 86  2  0
 90 89  1  0
 92 90  1  0
 92 93  1  0
 92 91  1  0
M  ISO  4  13 100  21 100  52 101  53 101
M  END
>  <TORSDO>  (2) 
F 19

>  <SCORE>  (2) 
-13.971

>  <name>  (2) 
1

>  <ligand_id>  (2) 
1

>  <original_smiles>  (2) 
[H]c1c(C([H])([H])N([H])C(=O)N2C([H])([H])C([H])([H])C([H])([H])C([H])(n3nc(-c4c([H])c([H])c(Oc5c([H])c([H])c(F)c([H])c5F)c([H])c4[H])c(C(=O)N([H])[H])c3N([H])[H])C2([H])[H])nc2c(c1[H])C([H])([H])[N+]([H])(C([H])([H])C([H])([H])Oc1c([H])c([H])c3c(c1[H])C([H])([H])N(C(=O)C([H])(N([H])C(=O)C([H])(N([H])C([H])([H])[H])C([H])([H])[H])C(C([H])([H])[H])(C([H])([H])[H])C([H])([H])[H])C([H])(C(=O)N([H])C1([H])c4c([H])c([H])c([H])c([H])c4C([H])([H])C([H])([H])C1([H])[H])C3([H])[H])C([H])([H])C2([H])[H]

>  <smiles>  (2) 
[H]c1c(C([H])([H])N([H])C(=O)N2C([H])([H])C([H])([H])C([H])([H])C([H])(n3nc(-c4c([H])c([H])c(Oc5c([H])c([H])c(F)c([H])c5F)c([H])c4[H])c(C(=O)N([H])[H])c3N([H])[H])C2([H])[H])nc2c(c1[H])C([H])([H])[N+]([H])(C([H])([H])C([H])([H])Oc1c([H])c([H])c3c(c1[H])C([H])([H])N(C(=O)C([H])(N([H])C(=O)C([H])(N([H])C([H])([H])[H])C([H])([H])[H])C(C([H])([H])[H])(C([H])([H])[H])C([H])([H])[H])C([H])(C(=O)N([H])C1([H])c4c([H])c([H])c([H])c([H])c4C([H])([H])C([H])([H])C1([H])[H])C3([H])[H])C([H])([H])C2([H])[H]

> <Step>
128.0

> <Scaffold>
O=C(NC1CCCc2ccccc21)C1Cc2ccc(OCCN3CCc4nc(CNC(=O)N5CCCC(n6ccc(-c7ccc(Oc8ccccc8)cc7)n6)C5)ccc4C3)cc2CN1

> <SMILES>
CNC(C)C(=O)NC(C(=O)N1Cc2cc(OCCN3CCc4nc(CNC(=O)N5CCCC(n6nc(-c7ccc(Oc8ccc(F)cc8F)cc7)c(C(N)=O)c6N)C5)ccc4C3)ccc2CC1C(=O)NC1CCCc2ccccc21)C(C)(C)C

> <Tanimoto ROCS sim>
0.23090004920959473

> <Custom alerts>
1.0

> <Linker Num Aromatic Rings>
1.0

> <Linker Effective Length>
1.0

> <ADV>
0.9932305812835693

> <PostDock Tanimoto ROCS sim>
0.9994369149208069

> <raw_Linker Num Aromatic Rings>
1.0

> <raw_Linker Effective Length>
9.0

> <raw_ADV>
-13.666000366210938

> <total_score>
0.9981668591499329

> <ID>
default_job_1

> <PostDock Tanimoto ROCS sim (re-score)>
0.9817588

> <raw_ADV (re-score)>
-13.971

> <Final Intermolecular Energy>
-29.081

> <Final Total Internal Energy>
-2.848

> <Torsional Free Energy>
15.11

> <Unbound System's Energy>
-2.848

$$$$
default_job_2
     RDKit          3D

 93101  0  0  1  0  0  0  0  0999 V2000
  -27.7200  -20.1450   19.0530 C   0  0  0  0  0  1  0  0  0  0  0  0
  -29.1920  -20.4110   19.4220 C   0  0  0  0  0  3  0  0  0  0  0  0
  -31.3910  -19.4770   20.1100 C   0  0  0  0  0  3  0  0  0  0  0  0
  -30.0110  -19.2240   19.9890 C   0  0  0  0  0  0  0  0  0  0  0  0
  -29.5620  -17.9000   20.3250 C   0  0  0  0  0  0  0  0  0  0  0  0
  -32.2470  -18.4940   20.6110 C   0  0  0  0  0  0  0  0  0  0  0  0
  -30.5210  -16.9320   20.7450 C   0  0  0  0  0  0  0  0  0  0  0  0
  -33.7300  -18.7580   20.7330 C   0  0  0  0  0  1  0  0  0  0  0  0
  -31.8190  -17.2690   20.9470 N   0  0  0  0  0  0  0  0  0  0  0  0
  -27.9140  -17.3740   20.1980 Cl  0  0  0  0  0  0  0  0  0  0  0  0
  -30.7380  -14.4930   20.4460 C   0  0  0  0  0  0  0  0  0  0  0  0
  -30.3670  -12.3370   19.3250 C   0  0  0  0  0  2  0  0  0  0  0  0
  -29.4370  -12.5710   18.1190 C   0  0  0  0  0  2  0  0  0  0  0  0
  -27.9650  -12.4360   18.5530 C   0  0  0  0  0  2  0  0  0  0  0  0
  -27.6320  -13.2660   19.8230 C   0  0  0  0  0  3  0  0  0  0  0  0
  -28.6980  -13.0710   20.9290 C   0  0  0  0  0  2  0  0  0  0  0  0
  -30.0180  -13.3420   20.3430 N   0  0  0  0  0  0  0  0  0  0  0  0
  -31.8800  -14.5690   19.9850 O   0  0  0  0  0  0  0  0  0  0  0  0
  -30.0840  -15.5800   20.9030 N   0  0  0  0  0  0  0  0  0  0  0  0
  -29.1070  -15.4580   21.1150 H   0  0  0  0  0  0  0  0  0  0  0  0
  -25.2310  -13.8500   20.5350 C   0  0  0  0  0  0  0  0  0  0  0  0
  -24.1700  -13.0730   20.9050 C   0  0  0  0  0  0  0  0  0  0  0  0
  -24.6410  -11.7250   20.8790 C   0  0  0  0  0  0  0  0  0  0  0  0
  -26.2830  -12.9790   20.3070 N   0  0  0  0  0  0  0  0  0  0  0  0
  -25.9320  -11.6940   20.5720 N   0  0  0  0  0  0  0  0  0  0  0  0
  -23.9220  -10.4580   21.0710 C   0  0  0  0  0  0  0  0  0  0  0  0
  -24.3740   -9.4840   21.9880 C   0  0  0  0  0  3  0  0  0  0  0  0
  -23.6540   -8.2830   22.1700 C   0  0  0  0  0  3  0  0  0  0  0  0
  -22.4680   -8.0490   21.4350 C   0  0  0  0  0  0  0  0  0  0  0  0
  -22.0350   -9.0130   20.5060 C   0  0  0  0  0  3  0  0  0  0  0  0
  -22.7570  -10.2040   20.3210 C   0  0  0  0  0  3  0  0  0  0  0  0
  -21.7180   -6.9010   21.5260 O   0  0  0  0  0  0  0  0  0  0  0  0
  -21.7050   -6.1390   22.6680 C   0  0  0  0  0  0  0  0  0  0  0  0
  -21.3250   -6.6750   23.9170 C   0  0  0  0  0  3  0  0  0  0  0  0
  -21.2570   -5.8410   25.0510 C   0  0  0  0  0  3  0  0  0  0  0  0
  -21.5620   -4.4710   24.9370 C   0  0  0  0  0  0  0  0  0  0  0  0
  -21.9360   -3.9330   23.6920 C   0  0  0  0  0  3  0  0  0  0  0  0
  -22.0060   -4.7650   22.5610 C   0  0  0  0  0  0  0  0  0  0  0  0
  -22.3450   -4.2390   21.3590 F   0  0  0  0  0  0  0  0  0  0  0  0
  -21.4910   -3.6680   26.0220 F   0  0  0  0  0  0  0  0  0  0  0  0
  -22.7700  -13.5430   21.1750 C   0  0  0  0  0  0  0  0  0  0  0  0
  -22.0450  -12.8500   22.0440 N   0  0  0  0  0  0  0  0  0  0  0  0
  -22.3250  -14.5620   20.6470 O   0  0  0  0  0  0  0  0  0  0  0  0
  -22.4130  -12.0250   22.4960 H   0  0  0  0  0  0  0  0  0  0  0  0
  -21.1060  -13.1520   22.2630 H   0  0  0  0  0  0  0  0  0  0  0  0
  -25.3790  -15.2230   20.3550 N   0  0  0  0  0  0  0  0  0  0  0  0
  -24.6080  -15.8660   20.4910 H   0  0  0  0  0  0  0  0  0  0  0  0
  -26.2300  -15.6910   20.0640 H   0  0  0  0  0  0  0  0  0  0  0  0
  -29.3490  -21.7220   20.2640 C   0  0  0  0  0  2  0  0  0  0  0  0
  -29.0830  -23.0090   19.4510 C   0  0  0  0  0  2  0  0  0  0  0  0
  -29.3010  -24.3580   20.1890 C   0  0  0  0  0  2  0  0  0  0  0  0
  -28.2570  -25.3710   19.6930 C   0  0  0  0  0  2  0  0  0  0  0  0
  -28.3520  -26.7110   20.1970 O   0  0  0  0  0  0  0  0  0  0  0  0
  -24.5840  -31.9300   23.2520 C   0  0  0  0  0  0  0  0  0  0  0  0
  -27.1860  -27.4620   20.1570 C   0  0  0  0  0  0  0  0  0  0  0  0
  -23.3630  -30.5260   21.6260 C   0  0  0  0  0  3  0  0  0  0  0  0
  -24.8000  -28.9940   20.1870 C   0  0  0  0  0  0  0  0  0  0  0  0
  -25.8940  -30.8670   21.4210 C   0  0  0  0  0  2  0  0  0  0  0  0
  -25.9650  -29.4990   20.7770 C   0  0  0  0  0  0  0  0  0  0  0  0
  -27.1580  -28.7390   20.7650 C   0  0  0  0  0  3  0  0  0  0  0  0
  -26.0000  -26.9960   19.5340 C   0  0  0  0  0  3  0  0  0  0  0  0
  -24.8120  -27.7410   19.5640 C   0  0  0  0  0  3  0  0  0  0  0  0
  -23.5610  -29.8550   20.2440 C   0  0  0  0  0  2  0  0  0  0  0  0
  -24.6320  -31.1190   22.1600 N   0  0  0  0  0  0  0  0  0  0  0  0
  -23.5030  -32.2340   23.7720 O   0  0  0  0  0  0  0  0  0  0  0  0
  -22.7140  -29.5030   22.5860 C   0  0  0  0  0  0  0  0  0  0  0  0
  -21.3910  -29.3150   22.4550 N   0  0  0  0  0  0  0  0  0  0  0  0
  -23.3980  -28.8820   23.4050 O   0  0  0  0  0  0  0  0  0  0  0  0
  -20.9000  -29.8630   21.7610 H   0  0  0  0  0  0  0  0  0  0  0  0
  -18.0210  -28.1080   22.9320 C   0  0  0  0  0  0  0  0  0  0  0  0
  -20.5740  -28.3800   23.2270 C   0  0  0  0  0  3  0  0  0  0  0  0
  -20.6920  -26.9450   22.6620 C   0  0  0  0  0  2  0  0  0  0  0  0
  -19.6010  -26.6110   21.6410 C   0  0  0  0  0  2  0  0  0  0  0  0
  -18.2120  -26.7540   22.2700 C   0  0  0  0  0  2  0  0  0  0  0  0
  -19.1320  -28.8780   23.3670 C   0  0  0  0  0  0  0  0  0  0  0  0
  -18.9020  -30.1470   23.9440 C   0  0  0  0  0  3  0  0  0  0  0  0
  -17.5930  -30.6440   24.0920 C   0  0  0  0  0  3  0  0  0  0  0  0
  -16.4960  -29.8700   23.6770 C   0  0  0  0  0  3  0  0  0  0  0  0
  -16.7110  -28.6040   23.1000 C   0  0  0  0  0  3  0  0  0  0  0  0
  -25.8800  -32.5430   23.8740 C   0  0  0  0  0  3  0  0  0  0  0  0
  -25.5870  -33.9420   24.2070 N   0  0  0  0  0  0  0  0  0  0  0  0
  -25.9140  -34.9900   23.4400 C   0  0  0  0  0  0  0  0  0  0  0  0
  -26.5730  -34.8810   22.4020 O   0  0  0  0  0  0  0  0  0  0  0  0
  -25.0030  -34.1050   25.0140 H   0  0  0  0  0  0  0  0  0  0  0  0
  -24.1810  -36.7790   23.1060 C   0  0  0  0  0  1  0  0  0  0  0  0
  -25.4350  -36.3790   23.8990 C   0  0  0  0  0  3  0  0  0  0  0  0
  -27.5840  -37.2580   24.6960 C   0  0  0  0  0  1  0  0  0  0  0  0
  -26.4680  -37.4300   23.7690 N   0  0  0  0  0  0  0  0  0  0  0  0
  -26.0650  -38.3500   23.9240 H   0  0  0  0  0  0  0  0  0  0  0  0
  -26.3980  -31.7630   25.1440 C   0  0  1  0  0  0  0  0  0  0  0  0
  -25.3080  -31.5310   26.2160 C   0  0  0  0  0  1  0  0  0  0  0  0
  -26.9660  -30.3820   24.7440 C   0  0  0  0  0  1  0  0  0  0  0  0
  -27.5570  -32.5450   25.8060 C   0  0  0  0  0  1  0  0  0  0  0  0
  2  1  1  0
  2  4  1  0
  2 49  1  0
  3  6  1  0
  4  3  2  0
  4  5  1  0
  5  7  2  0
  6  8  1  0
  6  9  2  0
  7 19  1  0
  7  9  1  0
 10  5  1  0
 11 19  1  0
 12 17  1  0
 13 14  1  0
 13 12  1  0
 15 14  1  0
 15 24  1  0
 15 16  1  0
 17 11  1  0
 17 16  1  0
 18 11  2  0
 19 20  1  0
 21 22  2  0
 22 41  1  0
 23 22  1  0
 23 26  1  0
 24 21  1  0
 24 25  1  0
 25 23  2  0
 26 27  1  0
 27 28  2  0
 29 32  1  0
 29 28  1  0
 30 29  2  0
 31 30  1  0
 31 26  2  0
 32 33  1  0
 33 34  1  0
 34 35  2  0
 36 35  1  0
 36 40  1  0
 37 36  2  0
 38 33  2  0
 38 37  1  0
 39 38  1  0
 41 42  1  0
 42 45  1  0
 42 44  1  0
 43 41  2  0
 46 47  1  0
 46 21  1  0
 48 46  1  0
 50 51  1  0
 50 49  1  0
 52 51  1  0
 52 53  1  0
 54 65  2  0
 55 53  1  0
 55 60  1  0
 56 64  1  0
 56 66  1  0
 57 63  1  0
 57 59  1  0
 58 64  1  0
 59 58  1  0
 60 59  2  0
 61 62  1  0
 61 55  2  0
 62 57  2  0
 63 56  1  0
 64 54  1  0
 66 68  2  0
 67 66  1  0
 69 67  1  0
 70 79  2  0
 70 75  1  0
 71 67  1  0
 71 75  1  0
 72 71  1  0
 73 74  1  0
 73 72  1  0
 74 70  1  0
 75 76  2  0
 76 77  1  0
 78 77  2  0
 79 78  1  0
 80 54  1  0
 80 81  1  0
 80 90  1  0
 81 84  1  0
 82 86  1  0
 82 81  1  0
 83 82  2  0
 86 85  1  0
 88 86  1  0
 88 89  1  0
 88 87  1  0
 90 93  1  1
 90 91  1  0
 92 90  1  0
M  ISO  4  11 100  19 100  52 101  53 101
M  END
>  <TORSDO>  (3) 
F 21

>  <SCORE>  (3) 
-13.83

>  <name>  (3) 
2

>  <ligand_id>  (3) 
2

>  <original_smiles>  (3) 
[H]c1c([H])c([H])c2c(c1[H])C([H])([H])C([H])([H])C([H])([H])C2([H])N([H])C(=O)C1([H])N(C(=O)C([H])(N([H])C(=O)C([H])(N([H])C([H])([H])[H])C([H])([H])[H])C(C([H])([H])[H])(C([H])([H])[H])C([H])([H])[H])C([H])([H])c2c([H])c(OC([H])([H])C([H])([H])C([H])([H])C([H])([H])C([H])(c3c([H])c(C([H])([H])[H])nc(N([H])C(=O)N4C([H])([H])C([H])([H])C([H])([H])C([H])(n5nc(-c6c([H])c([H])c(Oc7c([H])c([H])c(F)c([H])c7F)c([H])c6[H])c(C(=O)N([H])[H])c5N([H])[H])C4([H])[H])c3Cl)C([H])([H])[H])c([H])c([H])c2C1([H])[H]

>  <smiles>  (3) 
[H]c1c([H])c([H])c2c(c1[H])C([H])([H])C([H])([H])C([H])([H])C2([H])N([H])C(=O)C1([H])N(C(=O)C([H])(N([H])C(=O)C([H])(N([H])C([H])([H])[H])C([H])([H])[H])C(C([H])([H])[H])(C([H])([H])[H])C([H])([H])[H])C([H])([H])c2c([H])c(OC([H])([H])C([H])([H])C([H])([H])C([H])([H])C([H])(c3c([H])c(C([H])([H])[H])nc(N([H])C(=O)N4C([H])([H])C([H])([H])C([H])([H])C([H])(n5nc(-c6c([H])c([H])c(Oc7c([H])c([H])c(F)c([H])c7F)c([H])c6[H])c(C(=O)N([H])[H])c5N([H])[H])C4([H])[H])c3Cl)C([H])([H])[H])c([H])c([H])c2C1([H])[H]

> <Step>
24.0

> <Scaffold>
O=C(NC1CCCc2ccccc21)C1Cc2ccc(OCCCCCc3ccnc(NC(=O)N4CCCC(n5ccc(-c6ccc(Oc7ccccc7)cc6)n5)C4)c3)cc2CN1

> <SMILES>
CNC(C)C(=O)NC(C(=O)N1Cc2cc(OCCCCC(C)c3cc(C)nc(NC(=O)N4CCCC(n5nc(-c6ccc(Oc7ccc(F)cc7F)cc6)c(C(N)=O)c5N)C4)c3Cl)ccc2CC1C(=O)NC1CCCc2ccccc21)C(C)(C)C

> <Tanimoto ROCS sim>
0.20045731961727142

> <Custom alerts>
1.0

> <Linker Num Aromatic Rings>
1.0

> <Linker Effective Length>
1.0

> <ADV>
0.9931995868682861

> <PostDock Tanimoto ROCS sim>
0.9992756843566895

> <raw_Linker Num Aromatic Rings>
1.0

> <raw_Linker Effective Length>
8.0

> <raw_ADV>
-13.657999992370605

> <total_score>
0.9981188178062439

> <ID>
default_job_2

> <PostDock Tanimoto ROCS sim (re-score)>
0.9869279

> <raw_ADV (re-score)>
-13.83

> <Final Intermolecular Energy>
-30.404

> <Final Total Internal Energy>
-2.422

> <Torsional Free Energy>
16.574

> <Unbound System's Energy>
-2.422

$$$$
default_job_3
     RDKit          3D

 94103  0  0  1  0  0  0  0  0999 V2000
  -30.6560  -14.7730   20.4670 C   0  0  0  0  0  0  0  0  0  0  0  0
  -30.3810  -12.5120   19.4310 C   0  0  0  0  0  2  0  0  0  0  0  0
  -29.4670  -12.5640   18.1880 C   0  0  0  0  0  2  0  0  0  0  0  0
  -27.9980  -12.3750   18.6030 C   0  0  0  0  0  2  0  0  0  0  0  0
  -27.6000  -13.2910   19.7870 C   0  0  0  0  0  3  0  0  0  0  0  0
  -28.6430  -13.2570   20.9310 C   0  0  0  0  0  2  0  0  0  0  0  0
  -29.9490  -13.5920   20.3520 N   0  0  0  0  0  0  0  0  0  0  0  0
  -31.8510  -14.7740   20.1580 O   0  0  0  0  0  0  0  0  0  0  0  0
  -29.3990  -22.0960   18.1960 C   0  0  0  0  0  3  0  0  0  0  0  0
  -29.3380  -21.5170   19.4880 C   0  0  0  0  0  0  0  0  0  0  0  0
  -29.5660  -20.0650   19.4880 C   0  0  0  0  0  0  0  0  0  0  0  0
  -29.8140  -20.1140   17.1940 C   0  0  0  0  0  0  0  0  0  0  0  0
  -30.9040  -18.4150   20.7480 C   0  0  0  0  0  2  0  0  0  0  0  0
  -28.5120  -18.1120   20.5780 C   0  0  0  0  0  2  0  0  0  0  0  0
  -30.8300  -17.0550   21.5440 C   0  0  0  0  0  2  0  0  0  0  0  0
  -28.8680  -16.5990   20.2170 C   0  0  0  0  0  2  0  0  0  0  0  0
  -30.0840  -19.3250   15.9320 C   0  0  0  0  0  1  0  0  0  0  0  0
  -29.6370  -21.4140   17.0670 N   0  0  0  0  0  0  0  0  0  0  0  0
  -29.7820  -19.4290   18.3230 N   0  0  0  0  0  0  0  0  0  0  0  0
  -29.6060  -19.1170   20.5770 N   0  0  0  0  0  0  0  0  0  0  0  0
  -30.0580  -15.9730   20.8660 N   0  0  0  0  0  0  0  0  0  0  0  0
  -25.2070  -13.9040   20.4790 C   0  0  0  0  0  0  0  0  0  0  0  0
  -24.1350  -13.1380   20.8430 C   0  0  0  0  0  0  0  0  0  0  0  0
  -24.5950  -11.7860   20.8370 C   0  0  0  0  0  0  0  0  0  0  0  0
  -26.2510  -13.0180   20.2680 N   0  0  0  0  0  0  0  0  0  0  0  0
  -25.8910  -11.7400   20.5510 N   0  0  0  0  0  0  0  0  0  0  0  0
  -23.8630  -10.5280   21.0260 C   0  0  0  0  0  0  0  0  0  0  0  0
  -24.2800   -9.5650   21.9710 C   0  0  0  0  0  3  0  0  0  0  0  0
  -23.5480   -8.3720   22.1470 C   0  0  0  0  0  3  0  0  0  0  0  0
  -22.3830   -8.1330   21.3780 C   0  0  0  0  0  0  0  0  0  0  0  0
  -21.9860   -9.0860   20.4230 C   0  0  0  0  0  3  0  0  0  0  0  0
  -22.7190  -10.2710   20.2450 C   0  0  0  0  0  3  0  0  0  0  0  0
  -21.6240   -6.9920   21.4640 O   0  0  0  0  0  0  0  0  0  0  0  0
  -21.5590   -6.2560   22.6200 C   0  0  0  0  0  0  0  0  0  0  0  0
  -21.1270   -6.8220   23.8400 C   0  0  0  0  0  3  0  0  0  0  0  0
  -21.0090   -6.0120   24.9870 C   0  0  0  0  0  3  0  0  0  0  0  0
  -21.3130   -4.6390   24.9160 C   0  0  0  0  0  0  0  0  0  0  0  0
  -21.7370   -4.0740   23.7010 C   0  0  0  0  0  3  0  0  0  0  0  0
  -21.8570   -4.8800   22.5560 C   0  0  0  0  0  0  0  0  0  0  0  0
  -22.2470   -4.3260   21.3830 F   0  0  0  0  0  0  0  0  0  0  0  0
  -21.1910   -3.8600   26.0160 F   0  0  0  0  0  0  0  0  0  0  0  0
  -22.7340  -13.6230   21.0820 C   0  0  0  0  0  0  0  0  0  0  0  0
  -21.9890  -12.9400   21.9430 N   0  0  0  0  0  0  0  0  0  0  0  0
  -22.3110  -14.6420   20.5390 O   0  0  0  0  0  0  0  0  0  0  0  0
  -22.3430  -12.1160   22.4040 H   0  0  0  0  0  0  0  0  0  0  0  0
  -21.0480  -13.2490   22.1450 H   0  0  0  0  0  0  0  0  0  0  0  0
  -25.3710  -15.2710   20.2810 N   0  0  0  0  0  0  0  0  0  0  0  0
  -24.5950  -15.9190   20.3580 H   0  0  0  0  0  0  0  0  0  0  0  0
  -26.2090  -15.6990   19.9120 H   0  0  0  0  0  0  0  0  0  0  0  0
  -29.0430  -22.4200   20.5730 N   0  0  0  0  0  0  0  0  0  0  0  0
  -29.0370  -21.9980   21.5010 H   0  0  0  0  0  0  0  0  0  0  0  0
  -29.3000  -23.9250   20.5250 C   0  0  0  0  0  3  0  0  0  0  0  0
  -28.1190  -24.9620   20.1660 C   0  0  0  0  0  3  0  0  0  0  0  0
  -28.3510  -26.4410   20.2670 O   0  0  0  0  0  0  0  0  0  0  0  0
  -24.6320  -31.9150   23.2280 C   0  0  0  0  0  0  0  0  0  0  0  0
  -27.2420  -27.3140   20.2020 C   0  0  0  0  0  0  0  0  0  0  0  0
  -23.4300  -30.5020   21.6010 C   0  0  0  0  0  3  0  0  0  0  0  0
  -24.8810  -28.9480   20.1800 C   0  0  0  0  0  0  0  0  0  0  0  0
  -25.9730  -30.8140   21.4190 C   0  0  0  0  0  2  0  0  0  0  0  0
  -26.0520  -29.4320   20.7760 C   0  0  0  0  0  0  0  0  0  0  0  0
  -27.2360  -28.6290   20.7730 C   0  0  0  0  0  3  0  0  0  0  0  0
  -26.0470  -26.8930   19.5770 C   0  0  0  0  0  3  0  0  0  0  0  0
  -24.8820  -27.6860   19.5690 C   0  0  0  0  0  3  0  0  0  0  0  0
  -23.6440  -29.8230   20.2250 C   0  0  0  0  0  2  0  0  0  0  0  0
  -24.6990  -31.0910   22.1420 N   0  0  0  0  0  0  0  0  0  0  0  0
  -23.5430  -32.2180   23.7330 O   0  0  0  0  0  0  0  0  0  0  0  0
  -22.7650  -29.4900   22.5660 C   0  0  0  0  0  0  0  0  0  0  0  0
  -21.4380  -29.3140   22.4420 N   0  0  0  0  0  0  0  0  0  0  0  0
  -23.4440  -28.8640   23.3850 O   0  0  0  0  0  0  0  0  0  0  0  0
  -20.9490  -29.8720   21.7570 H   0  0  0  0  0  0  0  0  0  0  0  0
  -18.0610  -28.1230   22.9510 C   0  0  0  0  0  0  0  0  0  0  0  0
  -20.6200  -28.3790   23.2150 C   0  0  0  0  0  3  0  0  0  0  0  0
  -20.7170  -26.9460   22.6410 C   0  0  0  0  0  2  0  0  0  0  0  0
  -19.6130  -26.6240   21.6290 C   0  0  0  0  0  2  0  0  0  0  0  0
  -18.2330  -26.7720   22.2760 C   0  0  0  0  0  2  0  0  0  0  0  0
  -19.1810  -28.8830   23.3790 C   0  0  0  0  0  0  0  0  0  0  0  0
  -18.9650  -30.1470   23.9710 C   0  0  0  0  0  3  0  0  0  0  0  0
  -17.6620  -30.6500   24.1380 C   0  0  0  0  0  3  0  0  0  0  0  0
  -16.5550  -29.8870   23.7270 C   0  0  0  0  0  3  0  0  0  0  0  0
  -16.7550  -28.6250   23.1400 C   0  0  0  0  0  3  0  0  0  0  0  0
  -25.9130  -32.5430   23.8610 C   0  0  0  0  0  3  0  0  0  0  0  0
  -25.6030  -33.9390   24.1960 N   0  0  0  0  0  0  0  0  0  0  0  0
  -25.9230  -34.9940   23.4340 C   0  0  0  0  0  0  0  0  0  0  0  0
  -26.5830  -34.8930   22.3970 O   0  0  0  0  0  0  0  0  0  0  0  0
  -25.0160  -34.0920   25.0030 H   0  0  0  0  0  0  0  0  0  0  0  0
  -24.1820  -36.7800   23.1020 C   0  0  0  0  0  1  0  0  0  0  0  0
  -25.4350  -36.3800   23.8980 C   0  0  0  0  0  3  0  0  0  0  0  0
  -27.5760  -37.2740   24.7030 C   0  0  0  0  0  1  0  0  0  0  0  0
  -26.4610  -37.4370   23.7720 N   0  0  0  0  0  0  0  0  0  0  0  0
  -26.0530  -38.3560   23.9240 H   0  0  0  0  0  0  0  0  0  0  0  0
  -26.4270  -31.7690   25.1380 C   0  0  1  0  0  0  0  0  0  0  0  0
  -25.3310  -31.5330   26.2030 C   0  0  0  0  0  1  0  0  0  0  0  0
  -27.0100  -30.3920   24.7460 C   0  0  0  0  0  1  0  0  0  0  0  0
  -27.5760  -32.5610   25.8060 C   0  0  0  0  0  1  0  0  0  0  0  0
  1 21  1  0
  2  7  1  0
  3  4  1  0
  3  2  1  0
  5  4  1  0
  5 25  1  0
  5  6  1  0
  7  1  1  0
  7  6  1  0
  8  1  2  0
  9 10  2  0
 10 11  1  0
 10 50  1  0
 11 20  1  0
 12 19  1  0
 13 15  1  0
 16 14  1  0
 16 21  1  0
 17 12  1  0
 18 12  2  0
 18  9  1  0
 19 11  2  0
 20 14  1  0
 20 13  1  0
 21 15  1  0
 22 23  2  0
 23 42  1  0
 24 23  1  0
 24 27  1  0
 25 22  1  0
 25 26  1  0
 26 24  2  0
 27 28  1  0
 28 29  2  0
 30 33  1  0
 30 29  1  0
 31 30  2  0
 32 31  1  0
 32 27  2  0
 33 34  1  0
 34 35  1  0
 35 36  2  0
 37 36  1  0
 37 41  1  0
 38 37  2  0
 39 34  2  0
 39 38  1  0
 40 39  1  0
 42 43  1  0
 43 46  1  0
 43 45  1  0
 44 42  2  0
 47 48  1  0
 47 22  1  0
 49 47  1  0
 50 51  1  0
 52 50  1  0
 53 54  1  0
 53 52  2  0
 55 66  2  0
 56 54  1  0
 56 61  1  0
 57 65  1  0
 57 67  1  0
 58 64  1  0
 58 60  1  0
 59 65  1  0
 60 59  1  0
 61 60  2  0
 62 56  2  0
 63 62  1  0
 63 58  2  0
 64 57  1  0
 65 55  1  0
 67 69  2  0
 68 67  1  0
 70 68  1  0
 71 80  2  0
 71 76  1  0
 72 68  1  0
 72 76  1  0
 73 72  1  0
 74 75  1  0
 74 73  1  0
 75 71  1  0
 76 77  2  0
 77 78  1  0
 79 78  2  0
 80 79  1  0
 81 55  1  0
 81 82  1  0
 81 91  1  0
 82 85  1  0
 83 87  1  0
 83 82  1  0
 84 83  2  0
 87 86  1  0
 89 87  1  0
 89 90  1  0
 89 88  1  0
 91 94  1  1
 91 92  1  0
 93 91  1  0
M  ISO  4   1 100  21 100  53 101  54 101
M  END
>  <TORSDO>  (4) 
F 18

>  <SCORE>  (4) 
-14.97

>  <name>  (4) 
3

>  <ligand_id>  (4) 
3

>  <original_smiles>  (4) 
[H]c1nc(C([H])([H])[H])nc(N2C([H])([H])C([H])([H])N(C(=O)N3C([H])([H])C([H])([H])C([H])([H])C([H])(n4nc(-c5c([H])c([H])c(Oc6c([H])c([H])c(F)c([H])c6F)c([H])c5[H])c(C(=O)N([H])[H])c4N([H])[H])C3([H])[H])C([H])([H])C2([H])[H])c1N([H])C([H])([H])C([H])([H])Oc1c([H])c([H])c2c(c1[H])C([H])([H])N(C(=O)C([H])(N([H])C(=O)C([H])(N([H])C([H])([H])[H])C([H])([H])[H])C(C([H])([H])[H])(C([H])([H])[H])C([H])([H])[H])C([H])(C(=O)N([H])C1([H])c3c([H])c([H])c([H])c([H])c3C([H])([H])C([H])([H])C1([H])[H])C2([H])[H]

>  <smiles>  (4) 
[H]c1nc(C([H])([H])[H])nc(N2C([H])([H])C([H])([H])N(C(=O)N3C([H])([H])C([H])([H])C([H])([H])C([H])(n4nc(-c5c([H])c([H])c(Oc6c([H])c([H])c(F)c([H])c6F)c([H])c5[H])c(C(=O)N([H])[H])c4N([H])[H])C3([H])[H])C([H])([H])C2([H])[H])c1N([H])C([H])([H])C([H])([H])Oc1c([H])c([H])c2c(c1[H])C([H])([H])N(C(=O)C([H])(N([H])C(=O)C([H])(N([H])C([H])([H])[H])C([H])([H])[H])C(C([H])([H])[H])(C([H])([H])[H])C([H])([H])[H])C([H])(C(=O)N([H])C1([H])c3c([H])c([H])c([H])c([H])c3C([H])([H])C([H])([H])C1([H])[H])C2([H])[H]

> <Step>
187.0

> <Scaffold>
O=C(NC1CCCc2ccccc21)C1Cc2ccc(OCCNc3cncnc3N3CCN(C(=O)N4CCCC(n5ccc(-c6ccc(Oc7ccccc7)cc6)n5)C4)CC3)cc2CN1

> <SMILES>
CNC(C)C(=O)NC(C(=O)N1Cc2cc(OCCNc3cnc(C)nc3N3CCN(C(=O)N4CCCC(n5nc(-c6ccc(Oc7ccc(F)cc7F)cc6)c(C(N)=O)c5N)C4)CC3)ccc2CC1C(=O)NC1CCCc2ccccc21)C(C)(C)C

> <Tanimoto ROCS sim>
0.20495779812335968

> <Custom alerts>
1.0

> <Linker Num Aromatic Rings>
1.0

> <Linker Effective Length>
1.0

> <ADV>
0.9965663552284241

> <PostDock Tanimoto ROCS sim>
0.9958233833312988

> <raw_Linker Num Aromatic Rings>
1.0

> <raw_Linker Effective Length>
8.0

> <raw_ADV>
-14.85099983215332

> <total_score>
0.9980974197387695

> <ID>
default_job_3

> <PostDock Tanimoto ROCS sim (re-score)>
0.97657144

> <raw_ADV (re-score)>
-14.97

> <Final Intermolecular Energy>
-30.285

> <Final Total Internal Energy>
-2.662

> <Torsional Free Energy>
15.315

> <Unbound System's Energy>
-2.662

$$$$
default_job_4
     RDKit          3D

 96105  0  0  1  0  0  0  0  0999 V2000
  -29.8490  -21.6510   22.6580 C   0  0  0  0  0  2  0  0  0  0  0  0
  -29.5630  -23.1290   22.3790 C   0  0  0  0  0  2  0  0  0  0  0  0
  -29.2590  -21.9090   20.3370 C   0  0  0  0  0  2  0  0  0  0  0  0
  -30.2130  -21.1250   21.2700 C   0  0  0  0  0  3  0  0  0  0  0  0
  -28.9080  -23.1690   21.0480 N   0  0  2  0  0  4  0  0  0  0  0  0
  -27.9160  -23.0840   21.2260 H   0  0  0  0  0  0  0  0  0  0  0  0
  -30.7580  -14.5750   20.1490 C   0  0  0  0  0  0  0  0  0  0  0  0
  -30.4100  -12.4670   18.9100 C   0  0  0  0  0  2  0  0  0  0  0  0
  -29.3980  -12.7200   17.7730 C   0  0  0  0  0  2  0  0  0  0  0  0
  -27.9500  -12.5600   18.2780 C   0  0  0  0  0  2  0  0  0  0  0  0
  -27.6840  -13.3390   19.5930 C   0  0  0  0  0  3  0  0  0  0  0  0
  -28.7970  -13.0540   20.6270 C   0  0  0  0  0  2  0  0  0  0  0  0
  -30.0930  -13.3950   20.0080 N   0  0  0  0  0  0  0  0  0  0  0  0
  -31.8430  -14.7840   19.5930 O   0  0  0  0  0  0  0  0  0  0  0  0
  -29.0690  -18.8280   21.3720 C   0  0  0  0  0  3  0  0  0  0  0  0
  -30.2250  -19.5900   21.1200 C   0  0  0  0  0  0  0  0  0  0  0  0
  -31.3630  -18.8420   20.7660 C   0  0  0  0  0  0  0  0  0  0  0  0
  -30.1730  -16.8760   20.9140 C   0  0  0  0  0  0  0  0  0  0  0  0
  -33.8140  -18.6580   20.4750 C   0  0  0  0  0  1  0  0  0  0  0  0
  -29.0510  -17.4840   21.2740 N   0  0  0  0  0  0  0  0  0  0  0  0
  -31.3230  -17.5010   20.6670 N   0  0  0  0  0  0  0  0  0  0  0  0
  -32.5930  -19.4560   20.4980 N   0  0  0  0  0  0  0  0  0  0  0  0
  -30.0760  -15.5060   20.8460 N   0  0  0  0  0  0  0  0  0  0  0  0
  -32.6800  -20.4510   20.6730 H   0  0  0  0  0  0  0  0  0  0  0  0
  -29.2180  -15.1530   21.2320 H   0  0  0  0  0  0  0  0  0  0  0  0
  -25.3170  -13.9150   20.4300 C   0  0  0  0  0  0  0  0  0  0  0  0
  -24.2740  -13.1260   20.8360 C   0  0  0  0  0  0  0  0  0  0  0  0
  -24.7450  -11.7790   20.7550 C   0  0  0  0  0  0  0  0  0  0  0  0
  -26.3570  -13.0480   20.1310 N   0  0  0  0  0  0  0  0  0  0  0  0
  -26.0180  -11.7570   20.3820 N   0  0  0  0  0  0  0  0  0  0  0  0
  -24.0400  -10.5070   20.9570 C   0  0  0  0  0  0  0  0  0  0  0  0
  -24.4960   -9.5500   21.8890 C   0  0  0  0  0  3  0  0  0  0  0  0
  -23.7910   -8.3420   22.0780 C   0  0  0  0  0  3  0  0  0  0  0  0
  -22.6170   -8.0810   21.3320 C   0  0  0  0  0  0  0  0  0  0  0  0
  -22.1810   -9.0270   20.3880 C   0  0  0  0  0  3  0  0  0  0  0  0
  -22.8870  -10.2270   20.1980 C   0  0  0  0  0  3  0  0  0  0  0  0
  -21.8820   -6.9240   21.4290 O   0  0  0  0  0  0  0  0  0  0  0  0
  -21.8010   -6.2200   22.6030 C   0  0  0  0  0  0  0  0  0  0  0  0
  -21.3130   -6.8050   23.7920 C   0  0  0  0  0  3  0  0  0  0  0  0
  -21.1820   -6.0250   24.9590 C   0  0  0  0  0  3  0  0  0  0  0  0
  -21.5280   -4.6610   24.9370 C   0  0  0  0  0  0  0  0  0  0  0  0
  -22.0090   -4.0750   23.7530 C   0  0  0  0  0  3  0  0  0  0  0  0
  -22.1420   -4.8510   22.5900 C   0  0  0  0  0  0  0  0  0  0  0  0
  -22.5860   -4.2770   21.4450 F   0  0  0  0  0  0  0  0  0  0  0  0
  -21.3940   -3.9100   26.0550 F   0  0  0  0  0  0  0  0  0  0  0  0
  -22.8890  -13.5840   21.1890 C   0  0  0  0  0  0  0  0  0  0  0  0
  -22.2100  -12.8620   22.0740 N   0  0  0  0  0  0  0  0  0  0  0  0
  -22.4180  -14.6180   20.7160 O   0  0  0  0  0  0  0  0  0  0  0  0
  -22.6050  -12.0260   22.4780 H   0  0  0  0  0  0  0  0  0  0  0  0
  -21.2830  -13.1500   22.3500 H   0  0  0  0  0  0  0  0  0  0  0  0
  -25.4620  -15.2900   20.2750 N   0  0  0  0  0  0  0  0  0  0  0  0
  -24.6990  -15.9360   20.4460 H   0  0  0  0  0  0  0  0  0  0  0  0
  -26.3010  -15.7510   19.9440 H   0  0  0  0  0  0  0  0  0  0  0  0
  -29.0960  -24.4330   20.2740 C   0  0  0  0  0  2  0  0  0  0  0  0
  -28.4590  -25.6610   20.9690 C   0  0  0  0  0  2  0  0  0  0  0  0
  -28.4910  -26.8320   20.1390 O   0  0  0  0  0  0  0  0  0  0  0  0
  -24.6410  -31.9570   23.2510 C   0  0  0  0  0  0  0  0  0  0  0  0
  -27.3240  -27.5580   20.1530 C   0  0  0  0  0  0  0  0  0  0  0  0
  -23.4410  -30.5330   21.6220 C   0  0  0  0  0  3  0  0  0  0  0  0
  -24.9080  -29.0170   20.1860 C   0  0  0  0  0  0  0  0  0  0  0  0
  -25.9600  -30.9290   21.4060 C   0  0  0  0  0  2  0  0  0  0  0  0
  -26.0610  -29.5610   20.7650 C   0  0  0  0  0  0  0  0  0  0  0  0
  -27.2760  -28.8400   20.7420 C   0  0  0  0  0  3  0  0  0  0  0  0
  -26.1570  -27.0230   19.5670 C   0  0  0  0  0  3  0  0  0  0  0  0
  -24.9490  -27.7450   19.5850 C   0  0  0  0  0  3  0  0  0  0  0  0
  -23.6520  -29.8560   20.2410 C   0  0  0  0  0  2  0  0  0  0  0  0
  -24.7000  -31.1510   22.1540 N   0  0  0  0  0  0  0  0  0  0  0  0
  -23.5550  -32.2370   23.7780 O   0  0  0  0  0  0  0  0  0  0  0  0
  -22.8110  -29.5030   22.5870 C   0  0  0  0  0  0  0  0  0  0  0  0
  -21.4900  -29.2950   22.4590 N   0  0  0  0  0  0  0  0  0  0  0  0
  -23.5060  -28.8930   23.4030 O   0  0  0  0  0  0  0  0  0  0  0  0
  -20.9910  -29.8420   21.7720 H   0  0  0  0  0  0  0  0  0  0  0  0
  -18.1390  -28.0310   22.9380 C   0  0  0  0  0  0  0  0  0  0  0  0
  -20.6890  -28.3440   23.2280 C   0  0  0  0  0  3  0  0  0  0  0  0
  -20.8260  -26.9130   22.6580 C   0  0  0  0  0  2  0  0  0  0  0  0
  -19.7380  -26.5620   21.6390 C   0  0  0  0  0  2  0  0  0  0  0  0
  -18.3490  -26.6810   22.2720 C   0  0  0  0  0  2  0  0  0  0  0  0
  -19.2380  -28.8180   23.3710 C   0  0  0  0  0  0  0  0  0  0  0  0
  -18.9900  -30.0810   23.9520 C   0  0  0  0  0  3  0  0  0  0  0  0
  -17.6740  -30.5560   24.1050 C   0  0  0  0  0  3  0  0  0  0  0  0
  -16.5890  -29.7660   23.6900 C   0  0  0  0  0  3  0  0  0  0  0  0
  -16.8230  -28.5060   23.1110 C   0  0  0  0  0  3  0  0  0  0  0  0
  -25.9260  -32.5920   23.8720 C   0  0  0  0  0  3  0  0  0  0  0  0
  -25.6130  -33.9880   24.2000 N   0  0  0  0  0  0  0  0  0  0  0  0
  -25.9350  -35.0370   23.4340 C   0  0  0  0  0  0  0  0  0  0  0  0
  -26.6040  -34.9330   22.4010 O   0  0  0  0  0  0  0  0  0  0  0  0
  -25.0200  -34.1440   25.0030 H   0  0  0  0  0  0  0  0  0  0  0  0
  -24.1950  -36.8140   23.0690 C   0  0  0  0  0  1  0  0  0  0  0  0
  -25.4390  -36.4240   23.8840 C   0  0  0  0  0  3  0  0  0  0  0  0
  -27.5650  -37.3250   24.7150 C   0  0  0  0  0  1  0  0  0  0  0  0
  -26.4650  -37.4830   23.7680 N   0  0  0  0  0  0  0  0  0  0  0  0
  -26.0530  -38.4020   23.9090 H   0  0  0  0  0  0  0  0  0  0  0  0
  -26.4540  -31.8250   25.1470 C   0  0  1  0  0  0  0  0  0  0  0  0
  -25.3630  -31.5700   26.2130 C   0  0  0  0  0  1  0  0  0  0  0  0
  -27.0580  -30.4590   24.7490 C   0  0  0  0  0  1  0  0  0  0  0  0
  -27.5930  -32.6330   25.8120 C   0  0  0  0  0  1  0  0  0  0  0  0
  2  1  1  0
  3  5  1  0
  3  4  1  0
  4 16  1  0
  4  1  1  0
  5  6  1  1
  5  2  1  0
  7 23  1  0
  8 13  1  0
  9 10  1  0
  9  8  1  0
 11 10  1  0
 11 29  1  0
 11 12  1  0
 13  7  1  0
 13 12  1  0
 14  7  2  0
 16 15  2  0
 17 16  1  0
 18 20  2  0
 19 22  1  0
 20 15  1  0
 21 17  2  0
 21 18  1  0
 22 24  1  0
 22 17  1  0
 23 18  1  0
 23 25  1  0
 26 27  2  0
 27 46  1  0
 28 27  1  0
 28 31  1  0
 29 30  1  0
 29 26  1  0
 30 28  2  0
 31 32  1  0
 32 33  2  0
 34 37  1  0
 34 33  1  0
 35 34  2  0
 36 35  1  0
 36 31  2  0
 37 38  1  0
 38 39  1  0
 39 40  2  0
 41 40  1  0
 41 45  1  0
 42 41  2  0
 43 38  2  0
 43 42  1  0
 44 43  1  0
 46 47  1  0
 47 50  1  0
 47 49  1  0
 48 46  2  0
 51 26  1  0
 51 52  1  0
 53 51  1  0
 54 55  1  0
 54  5  1  0
 56 58  1  0
 56 55  1  0
 57 68  2  0
 58 63  1  0
 59 67  1  0
 59 69  1  0
 60 66  1  0
 60 62  1  0
 61 67  1  0
 62 61  1  0
 63 62  2  0
 64 65  1  0
 64 58  2  0
 65 60  2  0
 66 59  1  0
 67 57  1  0
 69 71  2  0
 70 69  1  0
 72 70  1  0
 73 82  2  0
 73 78  1  0
 74 70  1  0
 74 78  1  0
 75 74  1  0
 76 77  1  0
 76 75  1  0
 77 73  1  0
 78 79  2  0
 79 80  1  0
 81 80  2  0
 82 81  1  0
 83 57  1  0
 83 84  1  0
 83 93  1  0
 84 87  1  0
 85 89  1  0
 85 84  1  0
 86 85  2  0
 89 88  1  0
 91 89  1  0
 91 92  1  0
 91 90  1  0
 93 96  1  1
 93 94  1  0
 95 93  1  0
M  ISO  4   7 100  23 100  55 101  56 101
M  END
>  <TORSDO>  (5) 
F 18

>  <SCORE>  (5) 
-14.058

>  <name>  (5) 
4

>  <ligand_id>  (5) 
4

>  <original_smiles>  (5) 
[H]c1nc(N([H])C(=O)N2C([H])([H])C([H])([H])C([H])([H])C([H])(n3nc(-c4c([H])c([H])c(Oc5c([H])c([H])c(F)c([H])c5F)c([H])c4[H])c(C(=O)N([H])[H])c3N([H])[H])C2([H])[H])nc(N([H])C([H])([H])[H])c1C1([H])C([H])([H])C([H])([H])[N+]([H])(C([H])([H])C([H])([H])Oc2c([H])c([H])c3c(c2[H])C([H])([H])N(C(=O)C([H])(N([H])C(=O)C([H])(N([H])C([H])([H])[H])C([H])([H])[H])C(C([H])([H])[H])(C([H])([H])[H])C([H])([H])[H])C([H])(C(=O)N([H])C2([H])c4c([H])c([H])c([H])c([H])c4C([H])([H])C([H])([H])C2([H])[H])C3([H])[H])C1([H])[H]

>  <smiles>  (5) 
[H]c1nc(N([H])C(=O)N2C([H])([H])C([H])([H])C([H])([H])C([H])(n3nc(-c4c([H])c([H])c(Oc5c([H])c([H])c(F)c([H])c5F)c([H])c4[H])c(C(=O)N([H])[H])c3N([H])[H])C2([H])[H])nc(N([H])C([H])([H])[H])c1C1([H])C([H])([H])C([H])([H])[N+]([H])(C([H])([H])C([H])([H])Oc2c([H])c([H])c3c(c2[H])C([H])([H])N(C(=O)C([H])(N([H])C(=O)C([H])(N([H])C([H])([H])[H])C([H])([H])[H])C(C([H])([H])[H])(C([H])([H])[H])C([H])([H])[H])C([H])(C(=O)N([H])C2([H])c4c([H])c([H])c([H])c([H])c4C([H])([H])C([H])([H])C2([H])[H])C3([H])[H])C1([H])[H]

> <Step>
189.0

> <Scaffold>
O=C(NC1CCCc2ccccc21)C1Cc2ccc(OCCN3CCC(c4cnc(NC(=O)N5CCCC(n6ccc(-c7ccc(Oc8ccccc8)cc7)n6)C5)nc4)C3)cc2CN1

> <SMILES>
CNc1nc(NC(=O)N2CCCC(n3nc(-c4ccc(Oc5ccc(F)cc5F)cc4)c(C(N)=O)c3N)C2)ncc1C1CCN(CCOc2ccc3c(c2)CN(C(=O)C(NC(=O)C(C)NC)C(C)(C)C)C(C(=O)NC2CCCc4ccccc42)C3)C1

> <Tanimoto ROCS sim>
0.25027912855148315

> <Custom alerts>
1.0

> <Linker Num Aromatic Rings>
1.0

> <Linker Effective Length>
1.0

> <ADV>
0.9919372200965881

> <PostDock Tanimoto ROCS sim>
0.9995579123497009

> <raw_Linker Num Aromatic Rings>
1.0

> <raw_Linker Effective Length>
9.0

> <raw_ADV>
-13.359999656677246

> <total_score>
0.9978737831115723

> <ID>
default_job_4

> <PostDock Tanimoto ROCS sim (re-score)>
0.96690667

> <raw_ADV (re-score)>
-14.058

> <Final Intermolecular Energy>
-28.44

> <Final Total Internal Energy>
-2.887

> <Torsional Free Energy>
14.382

> <Unbound System's Energy>
-2.887

$$$$
default_job_5
     RDKit          3D

 93102  0  0  1  0  0  0  0  0999 V2000
  -30.4930  -22.2470   20.4720 C   0  0  0  0  0  3  0  0  0  0  0  0
  -28.2140  -21.6190   20.0110 C   0  0  0  0  0  3  0  0  0  0  0  0
  -30.0830  -23.5850   20.7380 C   0  0  0  0  0  3  0  0  0  0  0  0
  -27.8040  -22.9580   20.2790 C   0  0  0  0  0  3  0  0  0  0  0  0
  -29.5730  -21.2280   20.1030 C   0  0  0  0  0  0  0  0  0  0  0  0
  -28.7260  -23.9760   20.6480 C   0  0  0  0  0  0  0  0  0  0  0  0
  -30.5980  -18.4660   17.5410 C   0  0  0  0  0  2  0  0  0  0  0  0
  -29.8860  -19.6940   18.1220 C   0  0  0  0  0  2  0  0  0  0  0  0
  -30.1190  -17.1740   18.2120 C   0  0  0  0  0  2  0  0  0  0  0  0
  -30.0930  -19.8200   19.6430 C   0  0  0  0  0  3  0  0  0  0  0  0
  -29.6310  -18.4700   20.3590 C   0  0  0  0  0  3  0  0  0  0  0  0
  -30.3590  -17.1890   19.7380 C   0  0  0  0  0  3  0  0  0  0  0  0
  -29.8300  -18.5400   21.8800 C   0  0  0  0  0  1  0  0  0  0  0  0
  -30.7810  -14.6970   20.0590 C   0  0  0  0  0  0  0  0  0  0  0  0
  -30.4600  -12.4970   18.9830 C   0  0  0  0  0  2  0  0  0  0  0  0
  -29.4620  -12.6770   17.8190 C   0  0  0  0  0  2  0  0  0  0  0  0
  -28.0150  -12.5120   18.3210 C   0  0  0  0  0  2  0  0  0  0  0  0
  -27.7250  -13.3440   19.5990 C   0  0  0  0  0  3  0  0  0  0  0  0
  -28.8410  -13.1800   20.6560 C   0  0  0  0  0  2  0  0  0  0  0  0
  -30.1190  -13.5030   20.0090 N   0  0  0  0  0  0  0  0  0  0  0  0
  -31.9400  -14.8020   19.6540 O   0  0  0  0  0  0  0  0  0  0  0  0
  -30.0320  -15.8230   20.2820 N   0  0  0  0  0  0  0  0  0  0  0  0
  -29.0910  -15.6760   20.6140 H   0  0  0  0  0  0  0  0  0  0  0  0
  -25.3750  -13.9150   20.4650 C   0  0  0  0  0  0  0  0  0  0  0  0
  -24.3310  -13.1280   20.8680 C   0  0  0  0  0  0  0  0  0  0  0  0
  -24.7920  -11.7800   20.7740 C   0  0  0  0  0  0  0  0  0  0  0  0
  -26.4060  -13.0450   20.1490 N   0  0  0  0  0  0  0  0  0  0  0  0
  -26.0630  -11.7530   20.3960 N   0  0  0  0  0  0  0  0  0  0  0  0
  -24.0770  -10.5110   20.9650 C   0  0  0  0  0  0  0  0  0  0  0  0
  -24.5240   -9.5430   21.8920 C   0  0  0  0  0  3  0  0  0  0  0  0
  -23.8080   -8.3400   22.0710 C   0  0  0  0  0  3  0  0  0  0  0  0
  -22.6330   -8.0940   21.3230 C   0  0  0  0  0  0  0  0  0  0  0  0
  -22.2040   -9.0510   20.3860 C   0  0  0  0  0  3  0  0  0  0  0  0
  -22.9200  -10.2460   20.2050 C   0  0  0  0  0  3  0  0  0  0  0  0
  -21.8870   -6.9430   21.4130 O   0  0  0  0  0  0  0  0  0  0  0  0
  -21.8030   -6.2290   22.5820 C   0  0  0  0  0  0  0  0  0  0  0  0
  -21.2890   -6.7980   23.7670 C   0  0  0  0  0  3  0  0  0  0  0  0
  -21.1570   -6.0080   24.9260 C   0  0  0  0  0  3  0  0  0  0  0  0
  -21.5260   -4.6510   24.9000 C   0  0  0  0  0  0  0  0  0  0  0  0
  -22.0340   -4.0810   23.7190 C   0  0  0  0  0  3  0  0  0  0  0  0
  -22.1680   -4.8680   22.5620 C   0  0  0  0  0  0  0  0  0  0  0  0
  -22.6370   -4.3090   21.4210 F   0  0  0  0  0  0  0  0  0  0  0  0
  -21.3920   -3.8890   26.0120 F   0  0  0  0  0  0  0  0  0  0  0  0
  -22.9500  -13.5950   21.2290 C   0  0  0  0  0  0  0  0  0  0  0  0
  -22.2700  -12.8720   22.1100 N   0  0  0  0  0  0  0  0  0  0  0  0
  -22.4840  -14.6350   20.7640 O   0  0  0  0  0  0  0  0  0  0  0  0
  -22.6600  -12.0300   22.5080 H   0  0  0  0  0  0  0  0  0  0  0  0
  -21.3450  -13.1640   22.3940 H   0  0  0  0  0  0  0  0  0  0  0  0
  -25.5280  -15.2900   20.3180 N   0  0  0  0  0  0  0  0  0  0  0  0
  -24.7640  -15.9370   20.4840 H   0  0  0  0  0  0  0  0  0  0  0  0
  -26.3500  -15.7410   19.9360 H   0  0  0  0  0  0  0  0  0  0  0  0
  -28.2310  -25.3790   21.1310 C   0  0  0  0  0  2  0  0  0  0  0  0
  -28.4680  -26.5860   20.3320 O   0  0  0  0  0  0  0  0  0  0  0  0
  -24.6340  -31.9360   23.2510 C   0  0  0  0  0  0  0  0  0  0  0  0
  -27.3660  -27.4340   20.2670 C   0  0  0  0  0  0  0  0  0  0  0  0
  -23.4790  -30.5080   21.6000 C   0  0  0  0  0  3  0  0  0  0  0  0
  -24.9780  -28.9780   20.2060 C   0  0  0  0  0  0  0  0  0  0  0  0
  -26.0130  -30.8710   21.4610 C   0  0  0  0  0  2  0  0  0  0  0  0
  -26.1250  -29.4970   20.8210 C   0  0  0  0  0  0  0  0  0  0  0  0
  -27.3280  -28.7340   20.8440 C   0  0  0  0  0  3  0  0  0  0  0  0
  -26.2040  -26.9560   19.6270 C   0  0  0  0  0  3  0  0  0  0  0  0
  -25.0170  -27.7110   19.5990 C   0  0  0  0  0  3  0  0  0  0  0  0
  -23.7250  -29.8290   20.2280 C   0  0  0  0  0  2  0  0  0  0  0  0
  -24.7260  -31.1170   22.1630 N   0  0  0  0  0  0  0  0  0  0  0  0
  -23.5330  -32.2250   23.7400 O   0  0  0  0  0  0  0  0  0  0  0  0
  -22.8140  -29.4850   22.5520 C   0  0  0  0  0  0  0  0  0  0  0  0
  -21.4900  -29.3000   22.4090 N   0  0  0  0  0  0  0  0  0  0  0  0
  -23.4870  -28.8620   23.3770 O   0  0  0  0  0  0  0  0  0  0  0  0
  -21.0060  -29.8550   21.7170 H   0  0  0  0  0  0  0  0  0  0  0  0
  -18.1090  -28.1070   22.8840 C   0  0  0  0  0  0  0  0  0  0  0  0
  -20.6670  -28.3570   23.1680 C   0  0  0  0  0  3  0  0  0  0  0  0
  -20.7680  -26.9310   22.5790 C   0  0  0  0  0  2  0  0  0  0  0  0
  -19.6700  -26.6200   21.5570 C   0  0  0  0  0  2  0  0  0  0  0  0
  -18.2850  -26.7630   22.1960 C   0  0  0  0  0  2  0  0  0  0  0  0
  -19.2280  -28.8620   23.3250 C   0  0  0  0  0  0  0  0  0  0  0  0
  -19.0090  -30.1200   23.9280 C   0  0  0  0  0  3  0  0  0  0  0  0
  -17.7050  -30.6230   24.0920 C   0  0  0  0  0  3  0  0  0  0  0  0
  -16.6000  -29.8640   23.6670 C   0  0  0  0  0  3  0  0  0  0  0  0
  -16.8030  -28.6070   23.0680 C   0  0  0  0  0  3  0  0  0  0  0  0
  -25.8980  -32.5750   23.9050 C   0  0  0  0  0  3  0  0  0  0  0  0
  -25.5750  -33.9740   24.2170 N   0  0  0  0  0  0  0  0  0  0  0  0
  -25.9040  -35.0210   23.4490 C   0  0  0  0  0  0  0  0  0  0  0  0
  -26.5860  -34.9100   22.4260 O   0  0  0  0  0  0  0  0  0  0  0  0
  -24.9700  -34.1330   25.0110 H   0  0  0  0  0  0  0  0  0  0  0  0
  -24.1630  -36.7910   23.0520 C   0  0  0  0  0  1  0  0  0  0  0  0
  -25.3980  -36.4080   23.8840 C   0  0  0  0  0  3  0  0  0  0  0  0
  -27.5090  -37.3280   24.7350 C   0  0  0  0  0  1  0  0  0  0  0  0
  -26.4220  -37.4710   23.7710 N   0  0  0  0  0  0  0  0  0  0  0  0
  -26.0040  -38.3880   23.8970 H   0  0  0  0  0  0  0  0  0  0  0  0
  -26.3880  -31.8180   25.2000 C   0  0  1  0  0  0  0  0  0  0  0  0
  -25.2680  -31.5740   26.2380 C   0  0  0  0  0  1  0  0  0  0  0  0
  -26.9980  -30.4440   24.8350 C   0  0  0  0  0  1  0  0  0  0  0  0
  -27.5120  -32.6290   25.8890 C   0  0  0  0  0  1  0  0  0  0  0  0
  1  3  1  0
  2  5  1  0
  2  4  2  0
  4  6  1  0
  5  1  2  0
  6  3  2  0
  6 52  1  0
  7  8  1  0
  7  9  1  0
  8 10  1  0
  9 12  1  0
 10  5  1  0
 10 11  1  0
 11 13  1  0
 12 22  1  0
 12 11  1  0
 14 22  1  0
 15 20  1  0
 16 17  1  0
 16 15  1  0
 18 17  1  0
 18 27  1  0
 18 19  1  0
 20 14  1  0
 20 19  1  0
 21 14  2  0
 22 23  1  0
 24 25  2  0
 25 44  1  0
 26 25  1  0
 26 29  1  0
 27 28  1  0
 27 24  1  0
 28 26  2  0
 29 30  1  0
 30 31  2  0
 32 35  1  0
 32 31  1  0
 33 32  2  0
 34 33  1  0
 34 29  2  0
 35 36  1  0
 36 37  1  0
 37 38  2  0
 39 38  1  0
 39 43  1  0
 40 39  2  0
 41 36  2  0
 41 40  1  0
 42 41  1  0
 44 45  1  0
 45 48  1  0
 45 47  1  0
 46 44  2  0
 49 24  1  0
 49 50  1  0
 51 49  1  0
 53 52  1  0
 54 65  2  0
 55 53  1  0
 55 60  1  0
 56 64  1  0
 56 66  1  0
 57 63  1  0
 57 59  1  0
 58 64  1  0
 59 60  2  0
 59 58  1  0
 61 55  2  0
 62 61  1  0
 62 57  2  0
 63 56  1  0
 64 54  1  0
 66 68  2  0
 67 66  1  0
 69 67  1  0
 70 79  2  0
 70 75  1  0
 71 67  1  0
 71 75  1  0
 72 71  1  0
 73 74  1  0
 73 72  1  0
 74 70  1  0
 75 76  2  0
 76 77  1  0
 78 77  2  0
 79 78  1  0
 80 54  1  0
 80 81  1  0
 80 90  1  0
 81 84  1  0
 82 86  1  0
 82 81  1  0
 83 82  2  0
 86 85  1  0
 88 86  1  0
 88 89  1  0
 88 87  1  0
 90 93  1  1
 90 91  1  0
 92 90  1  0
M  ISO  4  14 100  22 100  52 101  53 101
M  END
>  <TORSDO>  (6) 
F 18

>  <SCORE>  (6) 
-13.996

>  <name>  (6) 
5

>  <ligand_id>  (6) 
5

>  <original_smiles>  (6) 
[H]c1c([H])c([H])c2c(c1[H])C([H])([H])C([H])([H])C([H])([H])C2([H])N([H])C(=O)C1([H])N(C(=O)C([H])(N([H])C(=O)C([H])(N([H])C([H])([H])[H])C([H])([H])[H])C(C([H])([H])[H])(C([H])([H])[H])C([H])([H])[H])C([H])([H])c2c([H])c(OC([H])([H])c3c([H])c([H])c(C4([H])C([H])([H])C([H])([H])C([H])([H])C([H])(N([H])C(=O)N5C([H])([H])C([H])([H])C([H])([H])C([H])(n6nc(-c7c([H])c([H])c(Oc8c([H])c([H])c(F)c([H])c8F)c([H])c7[H])c(C(=O)N([H])[H])c6N([H])[H])C5([H])[H])C4([H])C([H])([H])[H])c([H])c3[H])c([H])c([H])c2C1([H])[H]

>  <smiles>  (6) 
[H]c1c([H])c([H])c2c(c1[H])C([H])([H])C([H])([H])C([H])([H])C2([H])N([H])C(=O)C1([H])N(C(=O)C([H])(N([H])C(=O)C([H])(N([H])C([H])([H])[H])C([H])([H])[H])C(C([H])([H])[H])(C([H])([H])[H])C([H])([H])[H])C([H])([H])c2c([H])c(OC([H])([H])c3c([H])c([H])c(C4([H])C([H])([H])C([H])([H])C([H])([H])C([H])(N([H])C(=O)N5C([H])([H])C([H])([H])C([H])([H])C([H])(n6nc(-c7c([H])c([H])c(Oc8c([H])c([H])c(F)c([H])c8F)c([H])c7[H])c(C(=O)N([H])[H])c6N([H])[H])C5([H])[H])C4([H])C([H])([H])[H])c([H])c3[H])c([H])c([H])c2C1([H])[H]

> <Step>
125.0

> <Scaffold>
O=C(NC1CCCc2ccccc21)C1Cc2ccc(OCc3ccc(C4CCCC(NC(=O)N5CCCC(n6ccc(-c7ccc(Oc8ccccc8)cc7)n6)C5)C4)cc3)cc2CN1

> <SMILES>
CNC(C)C(=O)NC(C(=O)N1Cc2cc(OCc3ccc(C4CCCC(NC(=O)N5CCCC(n6nc(-c7ccc(Oc8ccc(F)cc8F)cc7)c(C(N)=O)c6N)C5)C4C)cc3)ccc2CC1C(=O)NC1CCCc2ccccc21)C(C)(C)C

> <Tanimoto ROCS sim>
0.24933050572872162

> <Custom alerts>
1.0

> <Linker Num Aromatic Rings>
1.0

> <Linker Effective Length>
1.0

> <ADV>
0.9930064082145691

> <PostDock Tanimoto ROCS sim>
0.9979221224784851

> <raw_Linker Num Aromatic Rings>
1.0

> <raw_Linker Effective Length>
8.0

> <raw_ADV>
-13.609000205993652

> <total_score>
0.9977321624755859

> <ID>
default_job_5

> <PostDock Tanimoto ROCS sim (re-score)>
0.9654008

> <raw_ADV (re-score)>
-13.996

> <Final Intermolecular Energy>
-28.315

> <Final Total Internal Energy>
-3.465

> <Torsional Free Energy>
14.319

> <Unbound System's Energy>
-3.465

$$$$
default_job_6
     RDKit          3D

 96106  0  0  1  0  0  0  0  0999 V2000
  -29.4420  -22.4390   21.6170 C   0  0  0  0  0  3  0  0  0  0  0  0
  -30.0930  -23.5880   21.1130 C   0  0  0  0  0  0  0  0  0  0  0  0
  -31.1660  -23.4140   20.2540 C   0  0  0  0  0  0  0  0  0  0  0  0
  -29.9290  -21.1870   21.1500 C   0  0  0  0  0  0  0  0  0  0  0  0
  -30.8750  -25.6670   20.3270 C   0  0  0  0  0  2  0  0  0  0  0  0
  -29.8220  -25.0620   21.3120 C   0  0  0  0  0  3  0  0  0  0  0  0
  -31.5910  -22.2110   19.8180 N   0  0  0  0  0  0  0  0  0  0  0  0
  -30.9690  -21.1110   20.2670 N   0  0  0  0  0  0  0  0  0  0  0  0
  -31.7640  -24.6010   19.8560 N   0  0  0  0  0  0  0  0  0  0  0  0
  -29.3430  -19.9790   21.5730 N   0  0  0  0  0  0  0  0  0  0  0  0
  -32.1000  -24.6330   18.8990 H   0  0  0  0  0  0  0  0  0  0  0  0
  -28.4710  -20.0470   22.0840 H   0  0  0  0  0  0  0  0  0  0  0  0
  -30.7780  -14.6120   20.0310 C   0  0  0  0  0  0  0  0  0  0  0  0
  -30.3840  -12.4620   18.8620 C   0  0  0  0  0  2  0  0  0  0  0  0
  -29.3780  -12.6560   17.7120 C   0  0  0  0  0  2  0  0  0  0  0  0
  -27.9350  -12.4780   18.2200 C   0  0  0  0  0  2  0  0  0  0  0  0
  -27.6590  -13.2780   19.5200 C   0  0  0  0  0  3  0  0  0  0  0  0
  -28.7920  -13.0800   20.5630 C   0  0  0  0  0  2  0  0  0  0  0  0
  -30.0590  -13.4500   19.9150 N   0  0  0  0  0  0  0  0  0  0  0  0
  -31.8830  -14.6880   19.4720 O   0  0  0  0  0  0  0  0  0  0  0  0
  -28.6050  -17.6380   21.1600 C   0  0  0  0  0  2  0  0  0  0  0  0
  -30.9200  -18.0380   21.7660 C   0  0  0  0  0  2  0  0  0  0  0  0
  -28.9490  -16.2600   20.5340 C   0  0  0  0  0  2  0  0  0  0  0  0
  -31.3650  -16.6960   21.1340 C   0  0  0  0  0  2  0  0  0  0  0  0
  -29.7310  -18.6640   21.0290 C   0  0  0  0  0  3  0  0  0  0  0  0
  -30.3170  -15.7010   20.7450 N   0  0  0  0  0  0  0  0  0  0  0  0
  -25.3140  -13.8540   20.4020 C   0  0  0  0  0  0  0  0  0  0  0  0
  -24.2740  -13.0680   20.8190 C   0  0  0  0  0  0  0  0  0  0  0  0
  -24.7360  -11.7200   20.7190 C   0  0  0  0  0  0  0  0  0  0  0  0
  -26.3430  -12.9820   20.0790 N   0  0  0  0  0  0  0  0  0  0  0  0
  -26.0040  -11.6910   20.3250 N   0  0  0  0  0  0  0  0  0  0  0  0
  -24.0280  -10.4500   20.9210 C   0  0  0  0  0  0  0  0  0  0  0  0
  -24.4890   -9.4910   21.8480 C   0  0  0  0  0  3  0  0  0  0  0  0
  -23.7860   -8.2840   22.0370 C   0  0  0  0  0  3  0  0  0  0  0  0
  -22.6060   -8.0270   21.2990 C   0  0  0  0  0  0  0  0  0  0  0  0
  -22.1640   -8.9750   20.3610 C   0  0  0  0  0  3  0  0  0  0  0  0
  -22.8680  -10.1750   20.1700 C   0  0  0  0  0  3  0  0  0  0  0  0
  -21.8730   -6.8710   21.3970 O   0  0  0  0  0  0  0  0  0  0  0  0
  -21.7890   -6.1650   22.5690 C   0  0  0  0  0  0  0  0  0  0  0  0
  -21.2970   -6.7490   23.7570 C   0  0  0  0  0  3  0  0  0  0  0  0
  -21.1590   -5.9670   24.9210 C   0  0  0  0  0  3  0  0  0  0  0  0
  -21.5070   -4.6030   24.9000 C   0  0  0  0  0  0  0  0  0  0  0  0
  -21.9930   -4.0190   23.7170 C   0  0  0  0  0  3  0  0  0  0  0  0
  -22.1270   -4.7970   22.5550 C   0  0  0  0  0  0  0  0  0  0  0  0
  -22.5740   -4.2220   21.4120 F   0  0  0  0  0  0  0  0  0  0  0  0
  -21.3690   -3.8510   26.0180 F   0  0  0  0  0  0  0  0  0  0  0  0
  -22.8970  -13.5320   21.1950 C   0  0  0  0  0  0  0  0  0  0  0  0
  -22.2310  -12.8170   22.0930 N   0  0  0  0  0  0  0  0  0  0  0  0
  -22.4200  -14.5640   20.7250 O   0  0  0  0  0  0  0  0  0  0  0  0
  -22.6290  -11.9810   22.4950 H   0  0  0  0  0  0  0  0  0  0  0  0
  -21.3100  -13.1140   22.3790 H   0  0  0  0  0  0  0  0  0  0  0  0
  -25.4600  -15.2300   20.2490 N   0  0  0  0  0  0  0  0  0  0  0  0
  -24.7020  -15.8780   20.4350 H   0  0  0  0  0  0  0  0  0  0  0  0
  -26.2750  -15.6820   19.8570 H   0  0  0  0  0  0  0  0  0  0  0  0
  -28.3630  -25.5230   21.0160 C   0  0  0  0  0  2  0  0  0  0  0  0
  -28.4540  -26.7730   20.3060 O   0  0  0  0  0  0  0  0  0  0  0  0
  -24.5400  -31.8720   23.1670 C   0  0  0  0  0  0  0  0  0  0  0  0
  -27.2950  -27.4850   20.1970 C   0  0  0  0  0  0  0  0  0  0  0  0
  -23.3840  -30.4330   21.5170 C   0  0  0  0  0  3  0  0  0  0  0  0
  -24.8870  -28.9320   20.1060 C   0  0  0  0  0  0  0  0  0  0  0  0
  -25.8990  -30.8590   21.3470 C   0  0  0  0  0  2  0  0  0  0  0  0
  -26.0220  -29.4930   20.7100 C   0  0  0  0  0  0  0  0  0  0  0  0
  -27.2340  -28.7810   20.7420 C   0  0  0  0  0  3  0  0  0  0  0  0
  -26.1670  -26.9350   19.5590 C   0  0  0  0  0  3  0  0  0  0  0  0
  -24.9580  -27.6560   19.5140 C   0  0  0  0  0  3  0  0  0  0  0  0
  -23.6220  -29.7590   20.1380 C   0  0  0  0  0  2  0  0  0  0  0  0
  -24.6250  -31.0670   22.0700 N   0  0  0  0  0  0  0  0  0  0  0  0
  -23.4430  -32.1400   23.6750 O   0  0  0  0  0  0  0  0  0  0  0  0
  -22.7520  -29.3950   22.4700 C   0  0  0  0  0  0  0  0  0  0  0  0
  -21.4320  -29.1870   22.3350 N   0  0  0  0  0  0  0  0  0  0  0  0
  -23.4420  -28.7790   23.2860 O   0  0  0  0  0  0  0  0  0  0  0  0
  -20.9350  -29.7380   21.6500 H   0  0  0  0  0  0  0  0  0  0  0  0
  -18.0700  -27.9690   22.8380 C   0  0  0  0  0  0  0  0  0  0  0  0
  -20.6260  -28.2310   23.0960 C   0  0  0  0  0  3  0  0  0  0  0  0
  -20.7310  -26.8100   22.4960 C   0  0  0  0  0  2  0  0  0  0  0  0
  -19.6240  -26.5020   21.4830 C   0  0  0  0  0  2  0  0  0  0  0  0
  -18.2450  -26.6340   22.1350 C   0  0  0  0  0  2  0  0  0  0  0  0
  -19.1880  -28.7280   23.2720 C   0  0  0  0  0  0  0  0  0  0  0  0
  -18.9690  -29.9830   23.8820 C   0  0  0  0  0  3  0  0  0  0  0  0
  -17.6650  -30.4770   24.0630 C   0  0  0  0  0  3  0  0  0  0  0  0
  -16.5600  -29.7160   23.6440 C   0  0  0  0  0  3  0  0  0  0  0  0
  -16.7650  -28.4620   23.0400 C   0  0  0  0  0  3  0  0  0  0  0  0
  -25.8080  -32.5190   23.8090 C   0  0  0  0  0  3  0  0  0  0  0  0
  -25.4750  -33.9110   24.1350 N   0  0  0  0  0  0  0  0  0  0  0  0
  -25.7880  -34.9660   23.3690 C   0  0  0  0  0  0  0  0  0  0  0  0
  -26.4620  -34.8690   22.3400 O   0  0  0  0  0  0  0  0  0  0  0  0
  -24.8730  -34.0580   24.9330 H   0  0  0  0  0  0  0  0  0  0  0  0
  -24.0170  -36.7110   22.9970 C   0  0  0  0  0  1  0  0  0  0  0  0
  -25.2660  -36.3450   23.8160 C   0  0  0  0  0  3  0  0  0  0  0  0
  -27.3800  -37.2810   24.6460 C   0  0  0  0  0  1  0  0  0  0  0  0
  -26.2740  -37.4220   23.6990 N   0  0  0  0  0  0  0  0  0  0  0  0
  -25.8490  -38.3330   23.8430 H   0  0  0  0  0  0  0  0  0  0  0  0
  -26.3260  -31.7550   25.0890 C   0  0  1  0  0  0  0  0  0  0  0  0
  -25.2240  -31.4900   26.1420 C   0  0  0  0  0  1  0  0  0  0  0  0
  -26.9480  -30.3940   24.6960 C   0  0  0  0  0  1  0  0  0  0  0  0
  -27.4490  -32.5740   25.7690 C   0  0  0  0  0  1  0  0  0  0  0  0
  2  6  1  0
  2  1  2  0
  3  2  1  0
  4 10  1  0
  4  1  1  0
  5  6  1  0
  6 55  1  0
  7  3  2  0
  7  8  1  0
  8  4  2  0
  9  3  1  0
  9  5  1  0
 10 12  1  0
 11  9  1  0
 13 26  1  0
 14 19  1  0
 15 16  1  0
 15 14  1  0
 17 16  1  0
 17 30  1  0
 17 18  1  0
 19 13  1  0
 19 18  1  0
 20 13  2  0
 23 26  1  0
 23 21  1  0
 24 22  1  0
 25 21  1  0
 25 10  1  0
 25 22  1  0
 26 24  1  0
 27 28  2  0
 28 47  1  0
 29 28  1  0
 29 32  1  0
 30 31  1  0
 30 27  1  0
 31 29  2  0
 32 33  1  0
 33 34  2  0
 35 38  1  0
 35 34  1  0
 36 35  2  0
 37 36  1  0
 37 32  2  0
 38 39  1  0
 39 40  1  0
 40 41  2  0
 42 41  1  0
 42 46  1  0
 43 42  2  0
 44 39  2  0
 44 43  1  0
 45 44  1  0
 47 48  1  0
 48 51  1  0
 48 50  1  0
 49 47  2  0
 52 27  1  0
 52 53  1  0
 54 52  1  0
 56 55  1  0
 57 68  2  0
 58 56  1  0
 58 63  1  0
 59 67  1  0
 59 69  1  0
 60 66  1  0
 60 62  1  0
 61 67  1  0
 62 63  2  0
 62 61  1  0
 64 58  2  0
 65 64  1  0
 65 60  2  0
 66 59  1  0
 67 57  1  0
 69 71  2  0
 70 69  1  0
 72 70  1  0
 73 82  2  0
 73 78  1  0
 74 70  1  0
 74 78  1  0
 75 74  1  0
 76 77  1  0
 76 75  1  0
 77 73  1  0
 78 79  2  0
 79 80  1  0
 81 80  2  0
 82 81  1  0
 83 57  1  0
 83 84  1  0
 83 93  1  0
 84 87  1  0
 85 89  1  0
 85 84  1  0
 86 85  2  0
 89 88  1  0
 91 89  1  0
 91 92  1  0
 91 90  1  0
 93 96  1  1
 93 94  1  0
 95 93  1  0
M  ISO  4  13 100  26 100  55 101  56 101
M  END
>  <TORSDO>  (7) 
F 17

>  <SCORE>  (7) 
-14.707

>  <name>  (7) 
6

>  <ligand_id>  (7) 
6

>  <original_smiles>  (7) 
[H]c1c([H])c([H])c2c(c1[H])C([H])([H])C([H])([H])C([H])([H])C2([H])N([H])C(=O)C1([H])N(C(=O)C([H])(N([H])C(=O)C([H])(N([H])C([H])([H])[H])C([H])([H])[H])C(C([H])([H])[H])(C([H])([H])[H])C([H])([H])[H])C([H])([H])c2c([H])c(OC([H])([H])C3([H])c4c(nnc(N([H])C5([H])C([H])([H])C([H])([H])N(C(=O)N6C([H])([H])C([H])([H])C([H])([H])C([H])(n7nc(-c8c([H])c([H])c(Oc9c([H])c([H])c(F)c([H])c9F)c([H])c8[H])c(C(=O)N([H])[H])c7N([H])[H])C6([H])[H])C([H])([H])C5([H])[H])c4[H])N([H])C3([H])[H])c([H])c([H])c2C1([H])[H]

>  <smiles>  (7) 
[H]c1c([H])c([H])c2c(c1[H])C([H])([H])C([H])([H])C([H])([H])C2([H])N([H])C(=O)C1([H])N(C(=O)C([H])(N([H])C(=O)C([H])(N([H])C([H])([H])[H])C([H])([H])[H])C(C([H])([H])[H])(C([H])([H])[H])C([H])([H])[H])C([H])([H])c2c([H])c(OC([H])([H])C3([H])c4c(nnc(N([H])C5([H])C([H])([H])C([H])([H])N(C(=O)N6C([H])([H])C([H])([H])C([H])([H])C([H])(n7nc(-c8c([H])c([H])c(Oc9c([H])c([H])c(F)c([H])c9F)c([H])c8[H])c(C(=O)N([H])[H])c7N([H])[H])C6([H])[H])C([H])([H])C5([H])[H])c4[H])N([H])C3([H])[H])c([H])c([H])c2C1([H])[H]

> <Step>
195.0

> <Scaffold>
O=C(NC1CCCc2ccccc21)C1Cc2ccc(OCC3CNc4nnc(NC5CCN(C(=O)N6CCCC(n7ccc(-c8ccc(Oc9ccccc9)cc8)n7)C6)CC5)cc43)cc2CN1

> <SMILES>
CNC(C)C(=O)NC(C(=O)N1Cc2cc(OCC3CNc4nnc(NC5CCN(C(=O)N6CCCC(n7nc(-c8ccc(Oc9ccc(F)cc9F)cc8)c(C(N)=O)c7N)C6)CC5)cc43)ccc2CC1C(=O)NC1CCCc2ccccc21)C(C)(C)C

> <Tanimoto ROCS sim>
0.2444087117910385

> <Custom alerts>
1.0

> <Linker Num Aromatic Rings>
1.0

> <Linker Effective Length>
1.0

> <ADV>
0.9920424222946167

> <PostDock Tanimoto ROCS sim>
0.99880051612854

> <raw_Linker Num Aromatic Rings>
1.0

> <raw_Linker Effective Length>
9.0

> <raw_ADV>
-13.383000373840332

> <total_score>
0.9977107644081116

> <ID>
default_job_6

> <PostDock Tanimoto ROCS sim (re-score)>
0.9638204

> <raw_ADV (re-score)>
-14.707

> <Final Intermolecular Energy>
-28.894

> <Final Total Internal Energy>
-3.132

> <Torsional Free Energy>
14.186

> <Unbound System's Energy>
-3.132

$$$$
default_job_7
     RDKit          3D

 92100  0  0  1  0  0  0  0  0999 V2000
  -28.7120  -21.0070   19.0690 C   0  0  0  0  0  3  0  0  0  0  0  0
  -29.6330  -20.5760   21.0450 C   0  0  0  0  0  3  0  0  0  0  0  0
  -29.3600  -21.6170   20.1760 C   0  0  0  0  0  0  0  0  0  0  0  0
  -28.6140  -19.6590   19.2700 C   0  0  0  0  0  0  0  0  0  0  0  0
  -27.9380  -18.6360   18.4070 C   0  0  0  0  0  1  0  0  0  0  0  0
  -29.2240  -19.3560   20.4850 N   0  0  0  0  0  0  0  0  0  0  0  0
  -30.9410  -23.3620   21.1690 C   0  0  0  0  0  1  0  0  0  0  0  0
  -29.7310  -23.1150   20.2510 C   0  0  0  0  0  3  0  0  0  0  0  0
  -28.3390  -24.5240   21.9310 C   0  0  0  0  0  1  0  0  0  0  0  0
  -28.5440  -24.1420   20.4510 C   0  0  0  0  0  3  0  0  0  0  0  0
  -28.6640  -25.4270   19.5440 C   0  0  0  0  0  2  0  0  0  0  0  0
  -28.4620  -26.7110   20.1770 O   0  0  0  0  0  0  0  0  0  0  0  0
  -24.5890  -31.8690   23.2110 C   0  0  0  0  0  0  0  0  0  0  0  0
  -27.2600  -27.4000   20.1370 C   0  0  0  0  0  0  0  0  0  0  0  0
  -23.3960  -30.4560   21.5730 C   0  0  0  0  0  3  0  0  0  0  0  0
  -24.8570  -28.9120   20.1560 C   0  0  0  0  0  0  0  0  0  0  0  0
  -25.9260  -30.8070   21.3940 C   0  0  0  0  0  2  0  0  0  0  0  0
  -26.0110  -29.4360   20.7490 C   0  0  0  0  0  0  0  0  0  0  0  0
  -27.2100  -28.6830   20.7400 C   0  0  0  0  0  3  0  0  0  0  0  0
  -26.0810  -26.8920   19.5430 C   0  0  0  0  0  3  0  0  0  0  0  0
  -24.8860  -27.6440   19.5530 C   0  0  0  0  0  3  0  0  0  0  0  0
  -23.6120  -29.7710   20.1980 C   0  0  0  0  0  2  0  0  0  0  0  0
  -24.6540  -31.0600   22.1160 N   0  0  0  0  0  0  0  0  0  0  0  0
  -23.4980  -32.1650   23.7200 O   0  0  0  0  0  0  0  0  0  0  0  0
  -22.7380  -29.4380   22.5360 C   0  0  0  0  0  0  0  0  0  0  0  0
  -21.4130  -29.2640   22.4080 N   0  0  0  0  0  0  0  0  0  0  0  0
  -23.4170  -28.8100   23.3510 O   0  0  0  0  0  0  0  0  0  0  0  0
  -20.9260  -29.8360   21.7320 H   0  0  0  0  0  0  0  0  0  0  0  0
  -18.0290  -28.0940   22.9150 C   0  0  0  0  0  0  0  0  0  0  0  0
  -20.5930  -28.3240   23.1730 C   0  0  0  0  0  3  0  0  0  0  0  0
  -20.6710  -26.9000   22.5760 C   0  0  0  0  0  2  0  0  0  0  0  0
  -19.5540  -26.6000   21.5680 C   0  0  0  0  0  2  0  0  0  0  0  0
  -18.1810  -26.7520   22.2230 C   0  0  0  0  0  2  0  0  0  0  0  0
  -19.1590  -28.8400   23.3430 C   0  0  0  0  0  0  0  0  0  0  0  0
  -18.9520  -30.1040   23.9430 C   0  0  0  0  0  3  0  0  0  0  0  0
  -17.6520  -30.6140   24.1240 C   0  0  0  0  0  3  0  0  0  0  0  0
  -16.5390  -29.8630   23.7090 C   0  0  0  0  0  3  0  0  0  0  0  0
  -16.7290  -28.6060   23.1100 C   0  0  0  0  0  3  0  0  0  0  0  0
  -25.8700  -32.4880   23.8510 C   0  0  0  0  0  3  0  0  0  0  0  0
  -25.5680  -33.8840   24.1890 N   0  0  0  0  0  0  0  0  0  0  0  0
  -25.8930  -34.9370   23.4280 C   0  0  0  0  0  0  0  0  0  0  0  0
  -26.5520  -34.8370   22.3910 O   0  0  0  0  0  0  0  0  0  0  0  0
  -24.9830  -34.0410   24.9970 H   0  0  0  0  0  0  0  0  0  0  0  0
  -24.1550  -36.7250   23.0940 C   0  0  0  0  0  1  0  0  0  0  0  0
  -25.4080  -36.3270   23.8910 C   0  0  0  0  0  3  0  0  0  0  0  0
  -27.5510  -37.2110   24.7060 C   0  0  0  0  0  1  0  0  0  0  0  0
  -26.4370  -37.3840   23.7740 N   0  0  0  0  0  0  0  0  0  0  0  0
  -26.0300  -38.3020   23.9290 H   0  0  0  0  0  0  0  0  0  0  0  0
  -26.3820  -31.7100   25.1240 C   0  0  1  0  0  0  0  0  0  0  0  0
  -25.2790  -31.4610   26.1820 C   0  0  0  0  0  1  0  0  0  0  0  0
  -26.9820  -30.3400   24.7260 C   0  0  0  0  0  1  0  0  0  0  0  0
  -27.5360  -32.5010   25.7860 C   0  0  0  0  0  1  0  0  0  0  0  0
  -29.3130  -18.0060   21.1100 C   0  0  0  0  0  3  0  0  0  0  0  0
  -30.1880  -16.9540   20.3370 C   0  0  0  0  0  3  0  0  0  0  0  0
  -30.7020  -14.5110   20.2220 C   0  0  0  0  0  0  0  0  0  0  0  0
  -30.3840  -12.3770   19.0280 C   0  0  0  0  0  2  0  0  0  0  0  0
  -29.3940  -12.6080   17.8660 C   0  0  0  0  0  2  0  0  0  0  0  0
  -27.9370  -12.4740   18.3470 C   0  0  0  0  0  2  0  0  0  0  0  0
  -27.6560  -13.2720   19.6450 C   0  0  0  0  0  3  0  0  0  0  0  0
  -28.7450  -13.0030   20.7080 C   0  0  0  0  0  2  0  0  0  0  0  0
  -30.0440  -13.3260   20.1020 N   0  0  0  0  0  0  0  0  0  0  0  0
  -31.8180  -14.7030   19.7350 O   0  0  0  0  0  0  0  0  0  0  0  0
  -29.9590  -15.5370   20.6990 N   0  0  0  0  0  0  0  0  0  0  0  0
  -29.0360  -15.2880   21.0220 H   0  0  0  0  0  0  0  0  0  0  0  0
  -25.2820  -13.8940   20.4140 C   0  0  0  0  0  0  0  0  0  0  0  0
  -24.2230  -13.1270   20.8120 C   0  0  0  0  0  0  0  0  0  0  0  0
  -24.6750  -11.7720   20.7670 C   0  0  0  0  0  0  0  0  0  0  0  0
  -26.3160  -13.0080   20.1560 N   0  0  0  0  0  0  0  0  0  0  0  0
  -25.9540  -11.7280   20.4200 N   0  0  0  0  0  0  0  0  0  0  0  0
  -23.9480  -10.5140   20.9710 C   0  0  0  0  0  0  0  0  0  0  0  0
  -24.3960   -9.5470   21.8990 C   0  0  0  0  0  3  0  0  0  0  0  0
  -23.6690   -8.3520   22.0920 C   0  0  0  0  0  3  0  0  0  0  0  0
  -22.4820   -8.1140   21.3580 C   0  0  0  0  0  0  0  0  0  0  0  0
  -22.0560   -9.0700   20.4180 C   0  0  0  0  0  3  0  0  0  0  0  0
  -22.7820  -10.2560   20.2230 C   0  0  0  0  0  3  0  0  0  0  0  0
  -21.7320   -6.9680   21.4570 O   0  0  0  0  0  0  0  0  0  0  0  0
  -21.6860   -6.2360   22.6160 C   0  0  0  0  0  0  0  0  0  0  0  0
  -21.2590   -6.8010   23.8380 C   0  0  0  0  0  3  0  0  0  0  0  0
  -21.1640   -5.9950   24.9900 C   0  0  0  0  0  3  0  0  0  0  0  0
  -21.4860   -4.6270   24.9230 C   0  0  0  0  0  0  0  0  0  0  0  0
  -21.9090   -4.0620   23.7060 C   0  0  0  0  0  3  0  0  0  0  0  0
  -22.0070   -4.8640   22.5540 C   0  0  0  0  0  0  0  0  0  0  0  0
  -22.3920   -4.3100   21.3780 F   0  0  0  0  0  0  0  0  0  0  0  0
  -21.3900   -3.8490   26.0280 F   0  0  0  0  0  0  0  0  0  0  0  0
  -22.8380  -13.6090   21.1360 C   0  0  0  0  0  0  0  0  0  0  0  0
  -22.1380  -12.9090   22.0220 N   0  0  0  0  0  0  0  0  0  0  0  0
  -22.3900  -14.6430   20.6410 O   0  0  0  0  0  0  0  0  0  0  0  0
  -22.5160  -12.0680   22.4320 H   0  0  0  0  0  0  0  0  0  0  0  0
  -21.2200  -13.2230   22.3010 H   0  0  0  0  0  0  0  0  0  0  0  0
  -25.4520  -15.2630   20.2280 N   0  0  0  0  0  0  0  0  0  0  0  0
  -24.6910  -15.9220   20.3430 H   0  0  0  0  0  0  0  0  0  0  0  0
  -26.2820  -15.6820   19.8250 H   0  0  0  0  0  0  0  0  0  0  0  0
  1  4  2  0
  1  3  1  0
  3  8  1  0
  3  2  2  0
  4  6  1  0
  5  4  1  0
  6  2  1  0
  6 53  1  0
  8 10  1  0
  8  7  1  0
 10  9  1  0
 11 12  1  0
 11 10  1  0
 13 24  2  0
 14 12  1  0
 14 19  1  0
 15 23  1  0
 15 25  1  0
 16 22  1  0
 16 18  1  0
 17 23  1  0
 18 17  1  0
 19 18  2  0
 20 21  1  0
 20 14  2  0
 21 16  2  0
 22 15  1  0
 23 13  1  0
 25 27  2  0
 26 25  1  0
 28 26  1  0
 29 38  2  0
 29 34  1  0
 30 26  1  0
 30 34  1  0
 31 30  1  0
 32 33  1  0
 32 31  1  0
 33 29  1  0
 34 35  2  0
 35 36  1  0
 37 36  2  0
 38 37  1  0
 39 13  1  0
 39 40  1  0
 39 49  1  0
 40 43  1  0
 41 45  1  0
 41 40  1  0
 42 41  2  0
 45 44  1  0
 47 45  1  0
 47 48  1  0
 47 46  1  0
 49 52  1  1
 49 50  1  0
 51 49  1  0
 54 63  1  0
 54 53  2  0
 55 63  1  0
 56 61  1  0
 57 58  1  0
 57 56  1  0
 59 58  1  0
 59 68  1  0
 59 60  1  0
 61 55  1  0
 61 60  1  0
 62 55  2  0
 63 64  1  0
 65 66  2  0
 66 85  1  0
 67 66  1  0
 67 70  1  0
 68 65  1  0
 68 69  1  0
 69 67  2  0
 70 71  1  0
 71 72  2  0
 73 76  1  0
 73 72  1  0
 74 73  2  0
 75 74  1  0
 75 70  2  0
 76 77  1  0
 77 78  1  0
 78 79  2  0
 80 79  1  0
 80 84  1  0
 81 80  2  0
 82 77  2  0
 82 81  1  0
 83 82  1  0
 85 86  1  0
 86 89  1  0
 86 88  1  0
 87 85  2  0
 90 91  1  0
 90 65  1  0
 92 90  1  0
M  ISO  4  11 101  12 101  55 100  63 100
M  END
>  <TORSDO>  (8) 
F 21

>  <SCORE>  (8) 
-13.545

>  <name>  (8) 
7

>  <ligand_id>  (8) 
7

>  <original_smiles>  (8) 
[H]c1c([H])c([H])c2c(c1[H])C([H])([H])C([H])([H])C([H])([H])C2([H])N([H])C(=O)C1([H])N(C(=O)C([H])(N([H])C(=O)C([H])(N([H])C([H])([H])[H])C([H])([H])[H])C(C([H])([H])[H])(C([H])([H])[H])C([H])([H])[H])C([H])([H])c2c([H])c(OC([H])([H])C([H])(C([H])([H])[H])C([H])(c3c([H])c(C([H])([H])[H])n(C([H])([H])C([H])([H])N([H])C(=O)N4C([H])([H])C([H])([H])C([H])([H])C([H])(n5nc(-c6c([H])c([H])c(Oc7c([H])c([H])c(F)c([H])c7F)c([H])c6[H])c(C(=O)N([H])[H])c5N([H])[H])C4([H])[H])c3[H])C([H])([H])[H])c([H])c([H])c2C1([H])[H]

>  <smiles>  (8) 
[H]c1c([H])c([H])c2c(c1[H])C([H])([H])C([H])([H])C([H])([H])C2([H])N([H])C(=O)C1([H])N(C(=O)C([H])(N([H])C(=O)C([H])(N([H])C([H])([H])[H])C([H])([H])[H])C(C([H])([H])[H])(C([H])([H])[H])C([H])([H])[H])C([H])([H])c2c([H])c(OC([H])([H])C([H])(C([H])([H])[H])C([H])(c3c([H])c(C([H])([H])[H])n(C([H])([H])C([H])([H])N([H])C(=O)N4C([H])([H])C([H])([H])C([H])([H])C([H])(n5nc(-c6c([H])c([H])c(Oc7c([H])c([H])c(F)c([H])c7F)c([H])c6[H])c(C(=O)N([H])[H])c5N([H])[H])C4([H])[H])c3[H])C([H])([H])[H])c([H])c([H])c2C1([H])[H]

> <Step>
102.0

> <Scaffold>
O=C(NC1CCCc2ccccc21)C1Cc2ccc(OCCCc3ccn(CCNC(=O)N4CCCC(n5ccc(-c6ccc(Oc7ccccc7)cc6)n5)C4)c3)cc2CN1

> <SMILES>
CNC(C)C(=O)NC(C(=O)N1Cc2cc(OCC(C)C(C)c3cc(C)n(CCNC(=O)N4CCCC(n5nc(-c6ccc(Oc7ccc(F)cc7F)cc6)c(C(N)=O)c5N)C4)c3)ccc2CC1C(=O)NC1CCCc2ccccc21)C(C)(C)C

> <Tanimoto ROCS sim>
0.2424263209104538

> <Custom alerts>
1.0

> <Linker Num Aromatic Rings>
1.0

> <Linker Effective Length>
1.0

> <ADV>
0.9914196133613586

> <PostDock Tanimoto ROCS sim>
0.9991236329078674

> <raw_Linker Num Aromatic Rings>
1.0

> <raw_Linker Effective Length>
8.0

> <raw_ADV>
-13.25100040435791

> <total_score>
0.9976357817649841

> <ID>
default_job_7

> <PostDock Tanimoto ROCS sim (re-score)>
0.9776045

> <raw_ADV (re-score)>
-13.545

> <Final Intermolecular Energy>
-29.777

> <Final Total Internal Energy>
-3.088

> <Torsional Free Energy>
16.232

> <Unbound System's Energy>
-3.088

$$$$
default_job_8
     RDKit          3D

 92100  0  0  1  0  0  0  0  0999 V2000
  -28.6120  -21.5630   19.3550 C   0  0  0  0  0  3  0  0  0  0  0  0
  -28.3450  -20.1910   19.5360 C   0  0  0  0  0  0  0  0  0  0  0  0
  -29.9010  -22.0620   19.6120 C   0  0  0  0  0  0  0  0  0  0  0  0
  -29.3830  -19.3320   19.9770 C   0  0  0  0  0  0  0  0  0  0  0  0
  -30.8690  -21.1440   20.0890 C   0  0  0  0  0  0  0  0  0  0  0  0
  -26.9580  -19.6690   19.1990 C   0  0  0  0  0  1  0  0  0  0  0  0
  -32.2800  -21.5830   20.4380 C   0  0  0  0  0  1  0  0  0  0  0  0
  -30.6180  -19.8190   20.2390 N   0  0  0  0  0  0  0  0  0  0  0  0
  -30.2400  -23.5170   19.2400 C   0  0  0  0  0  2  0  0  0  0  0  0
  -29.6980  -24.6400   20.1630 C   0  0  0  0  0  2  0  0  0  0  0  0
  -28.4580  -25.3960   19.6320 C   0  0  0  0  0  2  0  0  0  0  0  0
  -28.3970  -26.7100   20.2080 O   0  0  0  0  0  0  0  0  0  0  0  0
  -24.5840  -31.8910   23.2550 C   0  0  0  0  0  0  0  0  0  0  0  0
  -27.2130  -27.4230   20.1740 C   0  0  0  0  0  0  0  0  0  0  0  0
  -23.3720  -30.4840   21.6230 C   0  0  0  0  0  3  0  0  0  0  0  0
  -24.8180  -28.9420   20.1970 C   0  0  0  0  0  0  0  0  0  0  0  0
  -25.9000  -30.8290   21.4270 C   0  0  0  0  0  2  0  0  0  0  0  0
  -25.9780  -29.4580   20.7860 C   0  0  0  0  0  0  0  0  0  0  0  0
  -27.1740  -28.7030   20.7750 C   0  0  0  0  0  3  0  0  0  0  0  0
  -26.0310  -26.9270   19.5700 C   0  0  0  0  0  3  0  0  0  0  0  0
  -24.8400  -27.6750   19.5900 C   0  0  0  0  0  3  0  0  0  0  0  0
  -23.5770  -29.8030   20.2440 C   0  0  0  0  0  2  0  0  0  0  0  0
  -24.6380  -31.0800   22.1620 N   0  0  0  0  0  0  0  0  0  0  0  0
  -23.5000  -32.1900   23.7730 O   0  0  0  0  0  0  0  0  0  0  0  0
  -22.7210  -29.4650   22.5840 C   0  0  0  0  0  0  0  0  0  0  0  0
  -21.3980  -29.2750   22.4500 N   0  0  0  0  0  0  0  0  0  0  0  0
  -23.4010  -28.8460   23.4080 O   0  0  0  0  0  0  0  0  0  0  0  0
  -20.9100  -29.8260   21.7570 H   0  0  0  0  0  0  0  0  0  0  0  0
  -18.0260  -28.0620   22.9180 C   0  0  0  0  0  0  0  0  0  0  0  0
  -20.5790  -28.3380   23.2190 C   0  0  0  0  0  3  0  0  0  0  0  0
  -20.6970  -26.9030   22.6550 C   0  0  0  0  0  2  0  0  0  0  0  0
  -19.6100  -26.5650   21.6300 C   0  0  0  0  0  2  0  0  0  0  0  0
  -18.2190  -26.7080   22.2570 C   0  0  0  0  0  2  0  0  0  0  0  0
  -19.1350  -28.8340   23.3560 C   0  0  0  0  0  0  0  0  0  0  0  0
  -18.9020  -30.1020   23.9320 C   0  0  0  0  0  3  0  0  0  0  0  0
  -17.5930  -30.5980   24.0760 C   0  0  0  0  0  3  0  0  0  0  0  0
  -16.4980  -29.8230   23.6550 C   0  0  0  0  0  3  0  0  0  0  0  0
  -16.7150  -28.5580   23.0830 C   0  0  0  0  0  3  0  0  0  0  0  0
  -25.8740  -32.5090   23.8810 C   0  0  0  0  0  3  0  0  0  0  0  0
  -25.5740  -33.9080   24.2100 N   0  0  0  0  0  0  0  0  0  0  0  0
  -25.9070  -34.9550   23.4440 C   0  0  0  0  0  0  0  0  0  0  0  0
  -26.5720  -34.8450   22.4110 O   0  0  0  0  0  0  0  0  0  0  0  0
  -24.9830  -34.0690   25.0110 H   0  0  0  0  0  0  0  0  0  0  0  0
  -24.1800  -36.7490   23.0880 C   0  0  0  0  0  1  0  0  0  0  0  0
  -25.4250  -36.3460   23.8970 C   0  0  0  0  0  3  0  0  0  0  0  0
  -27.5650  -37.2290   24.7130 C   0  0  0  0  0  1  0  0  0  0  0  0
  -26.4590  -37.3960   23.7740 N   0  0  0  0  0  0  0  0  0  0  0  0
  -26.0560  -38.3190   23.9190 H   0  0  0  0  0  0  0  0  0  0  0  0
  -26.3860  -31.7340   25.1570 C   0  0  1  0  0  0  0  0  0  0  0  0
  -25.2910  -31.5030   26.2230 C   0  0  0  0  0  1  0  0  0  0  0  0
  -26.9630  -30.3540   24.7630 C   0  0  0  0  0  1  0  0  0  0  0  0
  -27.5420  -32.5220   25.8190 C   0  0  0  0  0  1  0  0  0  0  0  0
  -29.1900  -17.7960   20.0490 C   0  0  0  0  0  2  0  0  0  0  0  0
  -30.2100  -16.9760   20.9020 C   0  0  0  0  0  2  0  0  0  0  0  0
  -30.6370  -14.5030   20.4750 C   0  0  0  0  0  0  0  0  0  0  0  0
  -30.3520  -12.3270   19.3430 C   0  0  0  0  0  2  0  0  0  0  0  0
  -29.4090  -12.5370   18.1360 C   0  0  0  0  0  2  0  0  0  0  0  0
  -27.9380  -12.3880   18.5720 C   0  0  0  0  0  2  0  0  0  0  0  0
  -27.6030  -13.2240   19.8370 C   0  0  0  0  0  3  0  0  0  0  0  0
  -28.6640  -13.0070   20.9440 C   0  0  0  0  0  2  0  0  0  0  0  0
  -29.9840  -13.3100   20.3730 N   0  0  0  0  0  0  0  0  0  0  0  0
  -31.7640  -14.6910   20.0110 O   0  0  0  0  0  0  0  0  0  0  0  0
  -29.8970  -15.5270   20.9570 N   0  0  0  0  0  0  0  0  0  0  0  0
  -28.9970  -15.2720   21.3380 H   0  0  0  0  0  0  0  0  0  0  0  0
  -25.2050  -13.8390   20.5420 C   0  0  0  0  0  0  0  0  0  0  0  0
  -24.1360  -13.0670   20.9120 C   0  0  0  0  0  0  0  0  0  0  0  0
  -24.5960  -11.7150   20.8830 C   0  0  0  0  0  0  0  0  0  0  0  0
  -26.2500  -12.9540   20.3180 N   0  0  0  0  0  0  0  0  0  0  0  0
  -25.8860  -11.6730   20.5790 N   0  0  0  0  0  0  0  0  0  0  0  0
  -23.8670  -10.4550   21.0740 C   0  0  0  0  0  0  0  0  0  0  0  0
  -24.3080   -9.4840   21.9980 C   0  0  0  0  0  3  0  0  0  0  0  0
  -23.5840   -8.2850   22.1790 C   0  0  0  0  0  3  0  0  0  0  0  0
  -22.4040   -8.0530   21.4350 C   0  0  0  0  0  0  0  0  0  0  0  0
  -21.9790   -9.0140   20.5010 C   0  0  0  0  0  3  0  0  0  0  0  0
  -22.7040  -10.2040   20.3190 C   0  0  0  0  0  3  0  0  0  0  0  0
  -21.6470   -6.9080   21.5260 O   0  0  0  0  0  0  0  0  0  0  0  0
  -21.6210   -6.1530   22.6690 C   0  0  0  0  0  0  0  0  0  0  0  0
  -21.2300   -6.6940   23.9130 C   0  0  0  0  0  3  0  0  0  0  0  0
  -21.1510   -5.8650   25.0490 C   0  0  0  0  0  3  0  0  0  0  0  0
  -21.4520   -4.4930   24.9420 C   0  0  0  0  0  0  0  0  0  0  0  0
  -21.8360   -3.9510   23.7020 C   0  0  0  0  0  3  0  0  0  0  0  0
  -21.9170   -4.7790   22.5690 C   0  0  0  0  0  0  0  0  0  0  0  0
  -22.2650   -4.2460   21.3730 F   0  0  0  0  0  0  0  0  0  0  0  0
  -21.3670   -3.6930   26.0300 F   0  0  0  0  0  0  0  0  0  0  0  0
  -22.7400  -13.5480   21.1820 C   0  0  0  0  0  0  0  0  0  0  0  0
  -22.0130  -12.8540   22.0490 N   0  0  0  0  0  0  0  0  0  0  0  0
  -22.3040  -14.5730   20.6600 O   0  0  0  0  0  0  0  0  0  0  0  0
  -22.3780  -12.0250   22.4940 H   0  0  0  0  0  0  0  0  0  0  0  0
  -21.0760  -13.1590   22.2730 H   0  0  0  0  0  0  0  0  0  0  0  0
  -25.3730  -15.2070   20.3530 N   0  0  0  0  0  0  0  0  0  0  0  0
  -24.6010  -15.8570   20.4490 H   0  0  0  0  0  0  0  0  0  0  0  0
  -26.2130  -15.6430   19.9940 H   0  0  0  0  0  0  0  0  0  0  0  0
  1  2  2  0
  1  3  1  0
  2  4  1  0
  3  5  2  0
  4 53  1  0
  4  8  2  0
  5  8  1  0
  5  7  1  0
  6  2  1  0
  9  3  1  0
  9 10  1  0
 11 10  1  0
 11 12  1  0
 13 24  2  0
 14 12  1  0
 14 19  1  0
 15 23  1  0
 15 25  1  0
 16 22  1  0
 16 18  1  0
 17 23  1  0
 18 17  1  0
 19 18  2  0
 20 21  1  0
 20 14  2  0
 21 16  2  0
 22 15  1  0
 23 13  1  0
 25 27  2  0
 26 25  1  0
 28 26  1  0
 29 38  2  0
 29 34  1  0
 30 26  1  0
 30 34  1  0
 31 30  1  0
 32 33  1  0
 32 31  1  0
 33 29  1  0
 34 35  2  0
 35 36  1  0
 37 36  2  0
 38 37  1  0
 39 13  1  0
 39 40  1  0
 39 49  1  0
 40 43  1  0
 41 45  1  0
 41 40  1  0
 42 41  2  0
 45 44  1  0
 47 45  1  0
 47 48  1  0
 47 46  1  0
 49 52  1  1
 49 50  1  0
 51 49  1  0
 53 54  1  0
 54 63  1  0
 55 63  1  0
 56 61  1  0
 57 58  1  0
 57 56  1  0
 59 58  1  0
 59 68  1  0
 59 60  1  0
 61 55  1  0
 61 60  1  0
 62 55  2  0
 63 64  1  0
 65 66  2  0
 66 85  1  0
 67 66  1  0
 67 70  1  0
 68 65  1  0
 68 69  1  0
 69 67  2  0
 70 71  1  0
 71 72  2  0
 73 76  1  0
 73 72  1  0
 74 73  2  0
 75 74  1  0
 75 70  2  0
 76 77  1  0
 77 78  1  0
 78 79  2  0
 80 79  1  0
 80 84  1  0
 81 80  2  0
 82 77  2  0
 82 81  1  0
 83 82  1  0
 85 86  1  0
 86 89  1  0
 86 88  1  0
 87 85  2  0
 90 91  1  0
 90 65  1  0
 92 90  1  0
M  ISO  4  11 101  12 101  55 100  63 100
M  END
>  <TORSDO>  (9) 
F 21

>  <SCORE>  (9) 
-13.488

>  <name>  (9) 
8

>  <ligand_id>  (9) 
8

>  <original_smiles>  (9) 
[H]c1c([H])c([H])c2c(c1[H])C([H])([H])C([H])([H])C([H])([H])C2([H])N([H])C(=O)C1([H])N(C(=O)C([H])(N([H])C(=O)C([H])(N([H])C([H])([H])[H])C([H])([H])[H])C(C([H])([H])[H])(C([H])([H])[H])C([H])([H])[H])C([H])([H])c2c([H])c(OC([H])([H])C([H])([H])C([H])([H])c3c(C([H])([H])[H])nc(C([H])([H])C([H])([H])N([H])C(=O)N4C([H])([H])C([H])([H])C([H])([H])C([H])(n5nc(-c6c([H])c([H])c(Oc7c([H])c([H])c(F)c([H])c7F)c([H])c6[H])c(C(=O)N([H])[H])c5N([H])[H])C4([H])[H])c(C([H])([H])[H])c3[H])c([H])c([H])c2C1([H])[H]

>  <smiles>  (9) 
[H]c1c([H])c([H])c2c(c1[H])C([H])([H])C([H])([H])C([H])([H])C2([H])N([H])C(=O)C1([H])N(C(=O)C([H])(N([H])C(=O)C([H])(N([H])C([H])([H])[H])C([H])([H])[H])C(C([H])([H])[H])(C([H])([H])[H])C([H])([H])[H])C([H])([H])c2c([H])c(OC([H])([H])C([H])([H])C([H])([H])c3c(C([H])([H])[H])nc(C([H])([H])C([H])([H])N([H])C(=O)N4C([H])([H])C([H])([H])C([H])([H])C([H])(n5nc(-c6c([H])c([H])c(Oc7c([H])c([H])c(F)c([H])c7F)c([H])c6[H])c(C(=O)N([H])[H])c5N([H])[H])C4([H])[H])c(C([H])([H])[H])c3[H])c([H])c([H])c2C1([H])[H]

> <Step>
41.0

> <Scaffold>
O=C(NC1CCCc2ccccc21)C1Cc2ccc(OCCCc3ccc(CCNC(=O)N4CCCC(n5ccc(-c6ccc(Oc7ccccc7)cc6)n5)C4)nc3)cc2CN1

> <SMILES>
CNC(C)C(=O)NC(C(=O)N1Cc2cc(OCCCc3cc(C)c(CCNC(=O)N4CCCC(n5nc(-c6ccc(Oc7ccc(F)cc7F)cc6)c(C(N)=O)c5N)C4)nc3C)ccc2CC1C(=O)NC1CCCc2ccccc21)C(C)(C)C

> <Tanimoto ROCS sim>
0.22844761610031128

> <Custom alerts>
1.0

> <Linker Num Aromatic Rings>
1.0

> <Linker Effective Length>
1.0

> <ADV>
0.9907273650169373

> <PostDock Tanimoto ROCS sim>
0.9993308186531067

> <raw_Linker Num Aromatic Rings>
1.0

> <raw_Linker Effective Length>
9.0

> <raw_ADV>
-13.114999771118164

> <total_score>
0.997514545917511

> <ID>
default_job_8

> <PostDock Tanimoto ROCS sim (re-score)>
0.98568547

> <raw_ADV (re-score)>
-13.488

> <Final Intermolecular Energy>
-29.652

> <Final Total Internal Energy>
-3.004

> <Torsional Free Energy>
16.164

> <Unbound System's Energy>
-3.004

$$$$
default_job_9
     RDKit          3D

 94102  0  0  1  0  0  0  0  0999 V2000
  -29.9960  -23.5940   21.0880 C   0  0  0  0  0  3  0  0  0  0  0  0
  -30.4570  -22.2470   21.0410 C   0  0  0  0  0  3  0  0  0  0  0  0
  -28.6370  -23.9090   20.8470 C   0  0  0  0  0  0  0  0  0  0  0  0
  -27.8280  -22.7680   20.5110 C   0  0  0  0  0  0  0  0  0  0  0  0
  -29.5750  -21.1770   20.7690 C   0  0  0  0  0  0  0  0  0  0  0  0
  -28.2780  -21.4660   20.5130 N   0  0  0  0  0  0  0  0  0  0  0  0
  -30.0710  -19.8340   20.7520 N   0  0  0  0  0  0  0  0  0  0  0  0
  -31.0600  -19.7390   20.9550 H   0  0  0  0  0  0  0  0  0  0  0  0
  -25.9250  -22.1020   18.9220 C   0  0  0  0  0  1  0  0  0  0  0  0
  -26.3440  -22.8990   20.1720 C   0  0  0  0  0  2  0  0  0  0  0  0
  -28.5400  -25.8330   22.5610 C   0  0  0  0  0  1  0  0  0  0  0  0
  -28.0670  -25.3590   21.1730 C   0  0  0  0  0  3  0  0  0  0  0  0
  -28.3210  -26.5090   20.2740 O   0  0  0  0  0  0  0  0  0  0  0  0
  -24.6310  -31.9400   23.2470 C   0  0  0  0  0  0  0  0  0  0  0  0
  -27.2530  -27.4090   20.1960 C   0  0  0  0  0  0  0  0  0  0  0  0
  -23.4320  -30.5260   21.6180 C   0  0  0  0  0  3  0  0  0  0  0  0
  -24.8870  -28.9950   20.1770 C   0  0  0  0  0  0  0  0  0  0  0  0
  -25.9670  -30.8720   21.4210 C   0  0  0  0  0  2  0  0  0  0  0  0
  -26.0540  -29.4970   20.7730 C   0  0  0  0  0  0  0  0  0  0  0  0
  -27.2450  -28.7140   20.7750 C   0  0  0  0  0  3  0  0  0  0  0  0
  -26.0780  -26.9650   19.5590 C   0  0  0  0  0  3  0  0  0  0  0  0
  -24.9020  -27.7370   19.5570 C   0  0  0  0  0  3  0  0  0  0  0  0
  -23.6430  -29.8580   20.2340 C   0  0  0  0  0  2  0  0  0  0  0  0
  -24.6970  -31.1260   22.1550 N   0  0  0  0  0  0  0  0  0  0  0  0
  -23.5430  -32.2300   23.7640 O   0  0  0  0  0  0  0  0  0  0  0  0
  -22.7800  -29.5030   22.5790 C   0  0  0  0  0  0  0  0  0  0  0  0
  -21.4550  -29.3140   22.4540 N   0  0  0  0  0  0  0  0  0  0  0  0
  -23.4650  -28.8830   23.3980 O   0  0  0  0  0  0  0  0  0  0  0  0
  -20.9650  -29.8660   21.7630 H   0  0  0  0  0  0  0  0  0  0  0  0
  -18.0840  -28.0930   22.9520 C   0  0  0  0  0  0  0  0  0  0  0  0
  -20.6400  -28.3720   23.2230 C   0  0  0  0  0  3  0  0  0  0  0  0
  -20.7530  -26.9420   22.6480 C   0  0  0  0  0  2  0  0  0  0  0  0
  -19.6540  -26.6110   21.6340 C   0  0  0  0  0  2  0  0  0  0  0  0
  -18.2710  -26.7440   22.2780 C   0  0  0  0  0  2  0  0  0  0  0  0
  -19.1970  -28.8650   23.3820 C   0  0  0  0  0  0  0  0  0  0  0  0
  -18.9680  -30.1250   23.9750 C   0  0  0  0  0  3  0  0  0  0  0  0
  -17.6590  -30.6160   24.1400 C   0  0  0  0  0  3  0  0  0  0  0  0
  -16.5600  -29.8430   23.7250 C   0  0  0  0  0  3  0  0  0  0  0  0
  -16.7740  -28.5820   23.1400 C   0  0  0  0  0  3  0  0  0  0  0  0
  -25.9120  -32.5700   23.8770 C   0  0  0  0  0  3  0  0  0  0  0  0
  -26.4280  -31.8020   25.1550 C   0  0  1  0  0  0  0  0  0  0  0  0
  -25.3330  -31.5630   26.2210 C   0  0  0  0  0  1  0  0  0  0  0  0
  -27.0160  -30.4240   24.7660 C   0  0  0  0  0  1  0  0  0  0  0  0
  -27.5780  -32.5990   25.8160 C   0  0  0  0  0  1  0  0  0  0  0  0
  -25.6020  -33.9700   24.2020 N   0  0  0  0  0  0  0  0  0  0  0  0
  -25.9190  -35.0190   23.4340 C   0  0  0  0  0  0  0  0  0  0  0  0
  -26.5790  -34.9130   22.3940 O   0  0  0  0  0  0  0  0  0  0  0  0
  -25.0150  -34.1290   25.0080 H   0  0  0  0  0  0  0  0  0  0  0  0
  -24.1740  -36.8000   23.0890 C   0  0  0  0  0  1  0  0  0  0  0  0
  -25.4290  -36.4090   23.8870 C   0  0  0  0  0  3  0  0  0  0  0  0
  -27.5720  -37.3130   24.6790 C   0  0  0  0  0  1  0  0  0  0  0  0
  -26.4560  -37.4660   23.7500 N   0  0  0  0  0  0  0  0  0  0  0  0
  -26.0490  -38.3860   23.8890 H   0  0  0  0  0  0  0  0  0  0  0  0
  -29.3440  -18.5260   20.6710 C   0  0  0  0  0  2  0  0  0  0  0  0
  -30.3460  -17.4710   18.5980 C   0  0  0  0  0  1  0  0  0  0  0  0
  -30.2410  -17.3110   20.1290 C   0  0  0  0  0  3  0  0  0  0  0  0
  -30.5860  -14.7430   20.2090 C   0  0  0  0  0  0  0  0  0  0  0  0
  -30.3180  -12.4880   19.1930 C   0  0  0  0  0  2  0  0  0  0  0  0
  -29.3480  -12.5830   17.9950 C   0  0  0  0  0  2  0  0  0  0  0  0
  -27.8970  -12.4090   18.4700 C   0  0  0  0  0  2  0  0  0  0  0  0
  -27.5570  -13.3060   19.6880 C   0  0  0  0  0  3  0  0  0  0  0  0
  -28.6400  -13.2180   20.7860 C   0  0  0  0  0  2  0  0  0  0  0  0
  -29.9310  -13.5360   20.1630 N   0  0  0  0  0  0  0  0  0  0  0  0
  -31.7530  -14.8330   19.8180 O   0  0  0  0  0  0  0  0  0  0  0  0
  -29.8510  -15.8810   20.4650 N   0  0  0  0  0  0  0  0  0  0  0  0
  -28.9130  -15.7380   20.8070 H   0  0  0  0  0  0  0  0  0  0  0  0
  -25.2030  -13.9000   20.5180 C   0  0  0  0  0  0  0  0  0  0  0  0
  -24.1400  -13.1250   20.8940 C   0  0  0  0  0  0  0  0  0  0  0  0
  -24.5820  -11.7700   20.7900 C   0  0  0  0  0  0  0  0  0  0  0  0
  -26.2250  -13.0180   20.2100 N   0  0  0  0  0  0  0  0  0  0  0  0
  -25.8600  -11.7290   20.4350 N   0  0  0  0  0  0  0  0  0  0  0  0
  -23.8470  -10.5100   20.9490 C   0  0  0  0  0  0  0  0  0  0  0  0
  -24.3010   -9.4900   21.8150 C   0  0  0  0  0  3  0  0  0  0  0  0
  -23.5620   -8.2960   21.9620 C   0  0  0  0  0  3  0  0  0  0  0  0
  -22.3580   -8.1110   21.2440 C   0  0  0  0  0  0  0  0  0  0  0  0
  -21.9240   -9.1190   20.3640 C   0  0  0  0  0  3  0  0  0  0  0  0
  -22.6630  -10.3050   20.2130 C   0  0  0  0  0  3  0  0  0  0  0  0
  -21.5880   -6.9750   21.3090 O   0  0  0  0  0  0  0  0  0  0  0  0
  -21.5920   -6.1640   22.4160 C   0  0  0  0  0  0  0  0  0  0  0  0
  -21.2380   -6.6460   23.6940 C   0  0  0  0  0  3  0  0  0  0  0  0
  -21.1890   -5.7630   24.7910 C   0  0  0  0  0  3  0  0  0  0  0  0
  -21.4850   -4.3980   24.6110 C   0  0  0  0  0  0  0  0  0  0  0  0
  -21.8340   -3.9150   23.3380 C   0  0  0  0  0  3  0  0  0  0  0  0
  -21.8850   -4.7960   22.2420 C   0  0  0  0  0  0  0  0  0  0  0  0
  -22.2020   -4.3220   21.0130 F   0  0  0  0  0  0  0  0  0  0  0  0
  -21.4320   -3.5480   25.6630 F   0  0  0  0  0  0  0  0  0  0  0  0
  -22.7580  -13.6060   21.2330 C   0  0  0  0  0  0  0  0  0  0  0  0
  -22.0500  -12.8800   22.0900 N   0  0  0  0  0  0  0  0  0  0  0  0
  -22.3190  -14.6600   20.7760 O   0  0  0  0  0  0  0  0  0  0  0  0
  -22.4180  -12.0240   22.4810 H   0  0  0  0  0  0  0  0  0  0  0  0
  -21.1240  -13.1820   22.3590 H   0  0  0  0  0  0  0  0  0  0  0  0
  -25.3800  -15.2740   20.3860 N   0  0  0  0  0  0  0  0  0  0  0  0
  -24.6300  -15.9370   20.5440 H   0  0  0  0  0  0  0  0  0  0  0  0
  -26.2110  -15.7040   20.0000 H   0  0  0  0  0  0  0  0  0  0  0  0
  2  1  1  0
  3  1  2  0
  3 12  1  0
  4  6  2  0
  4  3  1  0
  5  2  2  0
  6  5  1  0
  7  5  1  0
  7  8  1  0
  9 10  1  0
 10  4  1  0
 12 11  1  0
 13 12  1  0
 14 25  2  0
 15 13  1  0
 15 20  1  0
 16 24  1  0
 16 26  1  0
 17 23  1  0
 17 19  1  0
 18 24  1  0
 19 20  2  0
 19 18  1  0
 21 15  2  0
 22 21  1  0
 22 17  2  0
 23 16  1  0
 24 14  1  0
 26 28  2  0
 27 26  1  0
 29 27  1  0
 30 39  2  0
 30 35  1  0
 31 27  1  0
 31 35  1  0
 32 31  1  0
 33 34  1  0
 33 32  1  0
 34 30  1  0
 35 36  2  0
 36 37  1  0
 38 37  2  0
 39 38  1  0
 40 14  1  0
 40 45  1  0
 40 41  1  0
 41 44  1  1
 41 42  1  0
 43 41  1  0
 45 48  1  0
 46 50  1  0
 46 45  1  0
 47 46  2  0
 50 49  1  0
 52 50  1  0
 52 53  1  0
 52 51  1  0
 54  7  1  0
 56 55  1  0
 56 65  1  0
 56 54  1  0
 57 65  1  0
 58 63  1  0
 59 60  1  0
 59 58  1  0
 61 60  1  0
 61 70  1  0
 61 62  1  0
 63 57  1  0
 63 62  1  0
 64 57  2  0
 65 66  1  0
 67 68  2  0
 68 87  1  0
 69 68  1  0
 69 72  1  0
 70 71  1  0
 70 67  1  0
 71 69  2  0
 72 73  1  0
 73 74  2  0
 75 78  1  0
 75 74  1  0
 76 75  2  0
 77 76  1  0
 77 72  2  0
 78 79  1  0
 79 80  1  0
 80 81  2  0
 82 81  1  0
 82 86  1  0
 83 82  2  0
 84 79  2  0
 84 83  1  0
 85 84  1  0
 87 88  1  0
 88 91  1  0
 88 90  1  0
 89 87  2  0
 92 67  1  0
 92 93  1  0
 94 92  1  0
M  ISO  4  12 101  13 101  57 100  65 100
M  END
>  <TORSDO>  (10) 
F 20

>  <SCORE>  (10) 
-13.923

>  <name>  (10) 
9

>  <ligand_id>  (10) 
9

>  <original_smiles>  (10) 
[H]c1c(N([H])C([H])([H])C([H])(N([H])C(=O)N2C([H])([H])C([H])([H])C([H])([H])C([H])(n3nc(-c4c([H])c([H])c(Oc5c([H])c([H])c(F)c([H])c5F)c([H])c4[H])c(C(=O)N([H])[H])c3N([H])[H])C2([H])[H])C([H])([H])[H])nc(C([H])([H])C([H])([H])[H])c(C([H])(Oc2c([H])c([H])c3c(c2[H])C([H])([H])N(C(=O)C([H])(N([H])C(=O)C([H])(N([H])C([H])([H])[H])C([H])([H])[H])C(C([H])([H])[H])(C([H])([H])[H])C([H])([H])[H])C([H])(C(=O)N([H])C2([H])c4c([H])c([H])c([H])c([H])c4C([H])([H])C([H])([H])C2([H])[H])C3([H])[H])C([H])([H])[H])c1[H]

>  <smiles>  (10) 
[H]c1c(N([H])C([H])([H])C([H])(N([H])C(=O)N2C([H])([H])C([H])([H])C([H])([H])C([H])(n3nc(-c4c([H])c([H])c(Oc5c([H])c([H])c(F)c([H])c5F)c([H])c4[H])c(C(=O)N([H])[H])c3N([H])[H])C2([H])[H])C([H])([H])[H])nc(C([H])([H])C([H])([H])[H])c(C([H])(Oc2c([H])c([H])c3c(c2[H])C([H])([H])N(C(=O)C([H])(N([H])C(=O)C([H])(N([H])C([H])([H])[H])C([H])([H])[H])C(C([H])([H])[H])(C([H])([H])[H])C([H])([H])[H])C([H])(C(=O)N([H])C2([H])c4c([H])c([H])c([H])c([H])c4C([H])([H])C([H])([H])C2([H])[H])C3([H])[H])C([H])([H])[H])c1[H]

> <Step>
135.0

> <Scaffold>
O=C(NC1CCCc2ccccc21)C1Cc2ccc(OCc3ccc(NCCNC(=O)N4CCCC(n5ccc(-c6ccc(Oc7ccccc7)cc6)n5)C4)nc3)cc2CN1

> <SMILES>
CCc1nc(NCC(C)NC(=O)N2CCCC(n3nc(-c4ccc(Oc5ccc(F)cc5F)cc4)c(C(N)=O)c3N)C2)ccc1C(C)Oc1ccc2c(c1)CN(C(=O)C(NC(=O)C(C)NC)C(C)(C)C)C(C(=O)NC1CCCc3ccccc31)C2

> <Tanimoto ROCS sim>
0.20130224525928497

> <Custom alerts>
1.0

> <Linker Num Aromatic Rings>
1.0

> <Linker Effective Length>
1.0

> <ADV>
0.9930581450462341

> <PostDock Tanimoto ROCS sim>
0.9968396425247192

> <raw_Linker Num Aromatic Rings>
1.0

> <raw_Linker Effective Length>
8.0

> <raw_ADV>
-13.621999740600586

> <total_score>
0.9974744319915771

> <ID>
default_job_9

> <PostDock Tanimoto ROCS sim (re-score)>
0.9773695

> <raw_ADV (re-score)>
-13.923

> <Final Intermolecular Energy>
-29.795

> <Final Total Internal Energy>
-3.247

> <Torsional Free Energy>
15.872

> <Unbound System's Energy>
-3.247

$$$$
default_job_10
     RDKit          3D

 95103  0  0  1  0  0  0  0  0999 V2000
  -28.6570  -20.5640   19.2080 C   0  0  0  0  0  2  0  0  0  0  0  0
  -28.4940  -16.9790   20.6020 C   0  0  0  0  0  3  0  0  0  0  0  0
  -30.4310  -18.9870   20.2320 C   0  0  0  0  0  0  0  0  0  0  0  0
  -29.0670  -19.2680   19.9270 C   0  0  0  0  0  0  0  0  0  0  0  0
  -29.8550  -16.6440   20.7520 C   0  0  0  0  0  0  0  0  0  0  0  0
  -28.0980  -18.2640   20.1820 C   0  0  0  0  0  0  0  0  0  0  0  0
  -30.8210  -17.6770   20.6380 C   0  0  0  0  0  0  0  0  0  0  0  0
  -31.4950  -20.0740   20.0930 C   0  0  0  0  0  1  0  0  0  0  0  0
  -26.4090  -18.5530   19.9480 Cl  0  0  0  0  0  0  0  0  0  0  0  0
  -32.4830  -17.3610   21.0180 Cl  0  0  0  0  0  0  0  0  0  0  0  0
  -30.6900  -14.4080   20.1680 C   0  0  0  0  0  0  0  0  0  0  0  0
  -30.2950  -12.3140   18.9170 C   0  0  0  0  0  2  0  0  0  0  0  0
  -29.2810  -12.5830   17.7850 C   0  0  0  0  0  2  0  0  0  0  0  0
  -27.8360  -12.4350   18.3000 C   0  0  0  0  0  2  0  0  0  0  0  0
  -27.5890  -13.2140   19.6180 C   0  0  0  0  0  3  0  0  0  0  0  0
  -28.7050  -12.9210   20.6480 C   0  0  0  0  0  2  0  0  0  0  0  0
  -30.0060  -13.2390   20.0260 N   0  0  0  0  0  0  0  0  0  0  0  0
  -31.7060  -14.6620   19.5180 O   0  0  0  0  0  0  0  0  0  0  0  0
  -30.1600  -15.2770   21.0510 N   0  0  0  0  0  0  0  0  0  0  0  0
  -29.4680  -14.8240   21.6290 H   0  0  0  0  0  0  0  0  0  0  0  0
  -25.2310  -13.8080   20.4690 C   0  0  0  0  0  0  0  0  0  0  0  0
  -24.1870  -13.0310   20.8860 C   0  0  0  0  0  0  0  0  0  0  0  0
  -24.6400  -11.6800   20.7960 C   0  0  0  0  0  0  0  0  0  0  0  0
  -26.2630  -12.9330   20.1630 N   0  0  0  0  0  0  0  0  0  0  0  0
  -25.9100  -11.6450   20.4120 N   0  0  0  0  0  0  0  0  0  0  0  0
  -23.9210  -10.4170   20.9990 C   0  0  0  0  0  0  0  0  0  0  0  0
  -24.3910   -9.4360   21.8990 C   0  0  0  0  0  3  0  0  0  0  0  0
  -23.6710   -8.2360   22.0890 C   0  0  0  0  0  3  0  0  0  0  0  0
  -22.4680   -8.0110   21.3800 C   0  0  0  0  0  0  0  0  0  0  0  0
  -22.0180   -8.9810   20.4660 C   0  0  0  0  0  3  0  0  0  0  0  0
  -22.7390  -10.1720   20.2740 C   0  0  0  0  0  3  0  0  0  0  0  0
  -21.7140   -6.8670   21.4830 O   0  0  0  0  0  0  0  0  0  0  0  0
  -21.6950   -6.1200   22.6340 C   0  0  0  0  0  0  0  0  0  0  0  0
  -21.2990   -6.6700   23.8730 C   0  0  0  0  0  3  0  0  0  0  0  0
  -21.2290   -5.8500   25.0160 C   0  0  0  0  0  3  0  0  0  0  0  0
  -21.5410   -4.4800   24.9220 C   0  0  0  0  0  0  0  0  0  0  0  0
  -21.9290   -3.9300   23.6880 C   0  0  0  0  0  3  0  0  0  0  0  0
  -22.0030   -4.7480   22.5460 C   0  0  0  0  0  0  0  0  0  0  0  0
  -22.3560   -4.2070   21.3550 F   0  0  0  0  0  0  0  0  0  0  0  0
  -21.4640   -3.6900   26.0180 F   0  0  0  0  0  0  0  0  0  0  0  0
  -22.8110  -13.5060   21.2570 C   0  0  0  0  0  0  0  0  0  0  0  0
  -22.1380  -12.7920   22.1540 N   0  0  0  0  0  0  0  0  0  0  0  0
  -22.3440  -14.5440   20.7900 O   0  0  0  0  0  0  0  0  0  0  0  0
  -22.5300  -11.9500   22.5500 H   0  0  0  0  0  0  0  0  0  0  0  0
  -21.2220  -13.0920   22.4530 H   0  0  0  0  0  0  0  0  0  0  0  0
  -25.3810  -15.1810   20.3050 N   0  0  0  0  0  0  0  0  0  0  0  0
  -24.6090  -15.8210   20.4490 H   0  0  0  0  0  0  0  0  0  0  0  0
  -26.1770  -15.6220   19.8720 H   0  0  0  0  0  0  0  0  0  0  0  0
  -28.1770  -22.9630   19.4670 C   0  0  0  0  0  0  0  0  0  0  0  0
  -28.5720  -21.7940   20.0060 N   0  0  0  0  0  0  0  0  0  0  0  0
  -27.7760  -23.0280   18.3020 O   0  0  0  0  0  0  0  0  0  0  0  0
  -28.8700  -21.7630   20.9720 H   0  0  0  0  0  0  0  0  0  0  0  0
  -28.2310  -24.2470   20.3190 C   0  0  0  0  0  2  0  0  0  0  0  0
  -28.6220  -25.5040   19.5000 C   0  0  0  0  0  2  0  0  0  0  0  0
  -28.4720  -26.7280   20.2370 O   0  0  0  0  0  0  0  0  0  0  0  0
  -24.6200  -31.8970   23.2500 C   0  0  0  0  0  0  0  0  0  0  0  0
  -27.2690  -27.4080   20.2230 C   0  0  0  0  0  0  0  0  0  0  0  0
  -23.4160  -30.4680   21.6310 C   0  0  0  0  0  3  0  0  0  0  0  0
  -24.8670  -28.9140   20.2270 C   0  0  0  0  0  0  0  0  0  0  0  0
  -25.9420  -30.8190   21.4350 C   0  0  0  0  0  2  0  0  0  0  0  0
  -26.0240  -29.4420   20.8110 C   0  0  0  0  0  0  0  0  0  0  0  0
  -27.2230  -28.6950   20.8090 C   0  0  0  0  0  3  0  0  0  0  0  0
  -26.0850  -26.8870   19.6480 C   0  0  0  0  0  3  0  0  0  0  0  0
  -24.8920  -27.6340   19.6480 C   0  0  0  0  0  3  0  0  0  0  0  0
  -23.6240  -29.7740   20.2600 C   0  0  0  0  0  2  0  0  0  0  0  0
  -24.6780  -31.0730   22.1660 N   0  0  0  0  0  0  0  0  0  0  0  0
  -23.5330  -32.2010   23.7620 O   0  0  0  0  0  0  0  0  0  0  0  0
  -22.7640  -29.4570   22.6020 C   0  0  0  0  0  0  0  0  0  0  0  0
  -21.4410  -29.2710   22.4720 N   0  0  0  0  0  0  0  0  0  0  0  0
  -23.4450  -28.8430   23.4280 O   0  0  0  0  0  0  0  0  0  0  0  0
  -20.9520  -29.8200   21.7780 H   0  0  0  0  0  0  0  0  0  0  0  0
  -18.0660  -28.0790   22.9660 C   0  0  0  0  0  0  0  0  0  0  0  0
  -20.6220  -28.3400   23.2480 C   0  0  0  0  0  3  0  0  0  0  0  0
  -20.7270  -26.9030   22.6870 C   0  0  0  0  0  2  0  0  0  0  0  0
  -19.6300  -26.5700   21.6710 C   0  0  0  0  0  2  0  0  0  0  0  0
  -18.2460  -26.7220   22.3070 C   0  0  0  0  0  2  0  0  0  0  0  0
  -19.1820  -28.8450   23.3930 C   0  0  0  0  0  0  0  0  0  0  0  0
  -18.9620  -30.1160   23.9680 C   0  0  0  0  0  3  0  0  0  0  0  0
  -17.6560  -30.6190   24.1210 C   0  0  0  0  0  3  0  0  0  0  0  0
  -16.5550  -29.8500   23.7100 C   0  0  0  0  0  3  0  0  0  0  0  0
  -16.7590  -28.5820   23.1390 C   0  0  0  0  0  3  0  0  0  0  0  0
  -25.9070  -32.5240   23.8750 C   0  0  0  0  0  3  0  0  0  0  0  0
  -26.4280  -31.7520   25.1490 C   0  0  1  0  0  0  0  0  0  0  0  0
  -25.3370  -31.5110   26.2160 C   0  0  0  0  0  1  0  0  0  0  0  0
  -27.0140  -30.3760   24.7530 C   0  0  0  0  0  1  0  0  0  0  0  0
  -27.5770  -32.5490   25.8090 C   0  0  0  0  0  1  0  0  0  0  0  0
  -25.6000  -33.9210   24.2040 N   0  0  0  0  0  0  0  0  0  0  0  0
  -25.9230  -34.9700   23.4370 C   0  0  0  0  0  0  0  0  0  0  0  0
  -26.5870  -34.8650   22.4020 O   0  0  0  0  0  0  0  0  0  0  0  0
  -25.0090  -34.0780   25.0070 H   0  0  0  0  0  0  0  0  0  0  0  0
  -24.1810  -36.7510   23.0860 C   0  0  0  0  0  1  0  0  0  0  0  0
  -25.4310  -36.3580   23.8910 C   0  0  0  0  0  3  0  0  0  0  0  0
  -27.5700  -37.2540   24.6960 C   0  0  0  0  0  1  0  0  0  0  0  0
  -26.4560  -37.4170   23.7670 N   0  0  0  0  0  0  0  0  0  0  0  0
  -26.0450  -38.3330   23.9230 H   0  0  0  0  0  0  0  0  0  0  0  0
  1  4  1  0
  1 50  1  0
  2  5  1  0
  3  7  1  0
  4  6  1  0
  4  3  2  0
  5 19  1  0
  6  2  2  0
  7  5  2  0
  7 10  1  0
  8  3  1  0
  9  6  1  0
 11 19  1  0
 12 17  1  0
 13 14  1  0
 13 12  1  0
 15 14  1  0
 15 24  1  0
 15 16  1  0
 17 11  1  0
 17 16  1  0
 18 11  2  0
 19 20  1  0
 21 22  2  0
 22 41  1  0
 23 22  1  0
 23 26  1  0
 24 25  1  0
 24 21  1  0
 25 23  2  0
 26 27  1  0
 27 28  2  0
 29 32  1  0
 29 28  1  0
 30 29  2  0
 31 30  1  0
 31 26  2  0
 32 33  1  0
 33 34  1  0
 34 35  2  0
 36 35  1  0
 36 40  1  0
 37 36  2  0
 38 33  2  0
 38 37  1  0
 39 38  1  0
 41 42  1  0
 42 45  1  0
 42 44  1  0
 43 41  2  0
 46 47  1  0
 46 21  1  0
 48 46  1  0
 49 50  1  0
 49 53  1  0
 50 52  1  0
 51 49  2  0
 54 55  1  0
 54 53  1  0
 56 67  2  0
 57 55  1  0
 57 62  1  0
 58 66  1  0
 58 68  1  0
 59 65  1  0
 59 61  1  0
 60 66  1  0
 61 60  1  0
 62 61  2  0
 63 57  2  0
 64 63  1  0
 64 59  2  0
 65 58  1  0
 66 56  1  0
 68 70  2  0
 69 68  1  0
 71 69  1  0
 72 81  2  0
 72 77  1  0
 73 69  1  0
 73 77  1  0
 74 73  1  0
 75 76  1  0
 75 74  1  0
 76 72  1  0
 77 78  2  0
 78 79  1  0
 80 79  2  0
 81 80  1  0
 82 56  1  0
 82 87  1  0
 82 83  1  0
 83 86  1  1
 83 84  1  0
 85 83  1  0
 87 90  1  0
 88 92  1  0
 88 87  1  0
 89 88  2  0
 92 91  1  0
 94 92  1  0
 94 95  1  0
 94 93  1  0
M  ISO  4  11 100  19 100  54 101  55 101
M  END
>  <TORSDO>  (11) 
F 20

>  <SCORE>  (11) 
-13.604

>  <name>  (11) 
10

>  <ligand_id>  (11) 
10

>  <original_smiles>  (11) 
[H]c1c([H])c([H])c2c(c1[H])C([H])([H])C([H])([H])C([H])([H])C2([H])N([H])C(=O)C1([H])N(C(=O)C([H])(N([H])C(=O)C([H])(N([H])C([H])([H])[H])C([H])([H])[H])C(C([H])([H])[H])(C([H])([H])[H])C([H])([H])[H])C([H])([H])c2c([H])c(OC([H])([H])C([H])([H])C(=O)N([H])C([H])([H])c3c(Cl)c([H])c(N([H])C(=O)N4C([H])([H])C([H])([H])C([H])([H])C([H])(n5nc(-c6c([H])c([H])c(Oc7c([H])c([H])c(F)c([H])c7F)c([H])c6[H])c(C(=O)N([H])[H])c5N([H])[H])C4([H])[H])c(Cl)c3C([H])([H])[H])c([H])c([H])c2C1([H])[H]

>  <smiles>  (11) 
[H]c1c([H])c([H])c2c(c1[H])C([H])([H])C([H])([H])C([H])([H])C2([H])N([H])C(=O)C1([H])N(C(=O)C([H])(N([H])C(=O)C([H])(N([H])C([H])([H])[H])C([H])([H])[H])C(C([H])([H])[H])(C([H])([H])[H])C([H])([H])[H])C([H])([H])c2c([H])c(OC([H])([H])C([H])([H])C(=O)N([H])C([H])([H])c3c(Cl)c([H])c(N([H])C(=O)N4C([H])([H])C([H])([H])C([H])([H])C([H])(n5nc(-c6c([H])c([H])c(Oc7c([H])c([H])c(F)c([H])c7F)c([H])c6[H])c(C(=O)N([H])[H])c5N([H])[H])C4([H])[H])c(Cl)c3C([H])([H])[H])c([H])c([H])c2C1([H])[H]

> <Step>
16.0

> <Scaffold>
O=C(CCOc1ccc2c(c1)CNC(C(=O)NC1CCCc3ccccc31)C2)NCc1ccc(NC(=O)N2CCCC(n3ccc(-c4ccc(Oc5ccccc5)cc4)n3)C2)cc1

> <SMILES>
CNC(C)C(=O)NC(C(=O)N1Cc2cc(OCCC(=O)NCc3c(Cl)cc(NC(=O)N4CCCC(n5nc(-c6ccc(Oc7ccc(F)cc7F)cc6)c(C(N)=O)c5N)C4)c(Cl)c3C)ccc2CC1C(=O)NC1CCCc2ccccc21)C(C)(C)C

> <Tanimoto ROCS sim>
0.21324525773525238

> <Custom alerts>
1.0

> <Linker Num Aromatic Rings>
1.0

> <Linker Effective Length>
1.0

> <ADV>
0.9903607368469238

> <PostDock Tanimoto ROCS sim>
0.9995299577713013

> <raw_Linker Num Aromatic Rings>
1.0

> <raw_Linker Effective Length>
9.0

> <raw_ADV>
-13.04699993133545

> <total_score>
0.9974726438522339

> <ID>
default_job_10

> <PostDock Tanimoto ROCS sim (re-score)>
0.9752319

> <raw_ADV (re-score)>
-13.604

> <Final Intermolecular Energy>
-29.113

> <Final Total Internal Energy>
-3.166

> <Torsional Free Energy>
15.508

> <Unbound System's Energy>
-3.166

$$$$
default_job_11
     RDKit          3D

 92100  0  0  1  0  0  0  0  0999 V2000
  -28.9560  -19.9030   20.3560 C   0  0  0  0  0  3  0  0  0  0  0  0
  -29.4330  -21.1990   20.7810 C   0  0  0  0  0  0  0  0  0  0  0  0
  -29.7960  -18.7180   20.4770 C   0  0  0  0  0  0  0  0  0  0  0  0
  -31.3860  -20.1040   21.3940 C   0  0  0  0  0  0  0  0  0  0  0  0
  -32.7680  -20.2330   21.9990 C   0  0  0  0  0  1  0  0  0  0  0  0
  -30.6880  -21.2350   21.2750 N   0  0  0  0  0  0  0  0  0  0  0  0
  -31.0070  -18.8800   21.0390 N   0  0  0  0  0  0  0  0  0  0  0  0
  -30.4330  -17.2770   18.5130 C   0  0  0  0  0  1  0  0  0  0  0  0
  -28.0990  -17.2480   19.2930 C   0  0  0  0  0  1  0  0  0  0  0  0
  -29.5590  -17.2830   19.7890 C   0  0  2  0  0  0  0  0  0  0  0  0
  -30.5560  -14.8260   20.3490 C   0  0  0  0  0  0  0  0  0  0  0  0
  -30.3860  -12.5250   19.3840 C   0  0  0  0  0  2  0  0  0  0  0  0
  -29.4560  -12.5930   18.1520 C   0  0  0  0  0  2  0  0  0  0  0  0
  -27.9840  -12.4130   18.5720 C   0  0  0  0  0  2  0  0  0  0  0  0
  -27.6030  -13.2930   19.7910 C   0  0  0  0  0  3  0  0  0  0  0  0
  -28.6580  -13.2190   20.9190 C   0  0  0  0  0  2  0  0  0  0  0  0
  -29.9560  -13.5810   20.3350 N   0  0  0  0  0  0  0  0  0  0  0  0
  -31.7290  -14.9250   19.9780 O   0  0  0  0  0  0  0  0  0  0  0  0
  -29.7480  -15.9450   20.5520 N   0  0  0  0  0  0  0  0  0  0  0  0
  -28.9180  -15.7120   21.0730 H   0  0  0  0  0  0  0  0  0  0  0  0
  -25.2120  -13.8950   20.4990 C   0  0  0  0  0  0  0  0  0  0  0  0
  -24.1440  -13.1250   20.8670 C   0  0  0  0  0  0  0  0  0  0  0  0
  -24.6050  -11.7730   20.8440 C   0  0  0  0  0  0  0  0  0  0  0  0
  -26.2560  -13.0120   20.2730 N   0  0  0  0  0  0  0  0  0  0  0  0
  -25.8970  -11.7310   20.5430 N   0  0  0  0  0  0  0  0  0  0  0  0
  -23.8760  -10.5130   21.0340 C   0  0  0  0  0  0  0  0  0  0  0  0
  -24.3050   -9.5460   21.9700 C   0  0  0  0  0  3  0  0  0  0  0  0
  -23.5760   -8.3510   22.1500 C   0  0  0  0  0  3  0  0  0  0  0  0
  -22.4040   -8.1150   21.3930 C   0  0  0  0  0  0  0  0  0  0  0  0
  -21.9940   -9.0700   20.4470 C   0  0  0  0  0  3  0  0  0  0  0  0
  -22.7240  -10.2560   20.2650 C   0  0  0  0  0  3  0  0  0  0  0  0
  -21.6470   -6.9710   21.4820 O   0  0  0  0  0  0  0  0  0  0  0  0
  -21.5970   -6.2280   22.6340 C   0  0  0  0  0  0  0  0  0  0  0  0
  -21.1740   -6.7850   23.8610 C   0  0  0  0  0  3  0  0  0  0  0  0
  -21.0720   -5.9690   25.0050 C   0  0  0  0  0  3  0  0  0  0  0  0
  -21.3820   -4.5980   24.9240 C   0  0  0  0  0  0  0  0  0  0  0  0
  -21.7970   -4.0420   23.7020 C   0  0  0  0  0  3  0  0  0  0  0  0
  -21.9020   -4.8540   22.5590 C   0  0  0  0  0  0  0  0  0  0  0  0
  -22.2830   -4.3090   21.3790 F   0  0  0  0  0  0  0  0  0  0  0  0
  -21.2750   -3.8130   26.0210 F   0  0  0  0  0  0  0  0  0  0  0  0
  -22.7450  -13.6060   21.1270 C   0  0  0  0  0  0  0  0  0  0  0  0
  -22.0110  -12.9150   21.9900 N   0  0  0  0  0  0  0  0  0  0  0  0
  -22.3130  -14.6300   20.5990 O   0  0  0  0  0  0  0  0  0  0  0  0
  -22.3730  -12.0870   22.4400 H   0  0  0  0  0  0  0  0  0  0  0  0
  -21.0720  -13.2180   22.2060 H   0  0  0  0  0  0  0  0  0  0  0  0
  -25.3750  -15.2640   20.3160 N   0  0  0  0  0  0  0  0  0  0  0  0
  -24.6010  -15.9110   20.4170 H   0  0  0  0  0  0  0  0  0  0  0  0
  -26.2100  -15.6990   19.9510 H   0  0  0  0  0  0  0  0  0  0  0  0
  -28.6220  -22.5710   21.0040 C   0  0  0  0  0  2  0  0  0  0  0  0
  -28.1460  -23.6320   19.8760 C   0  0  0  0  0  2  0  0  0  0  0  0
  -28.6450  -25.1730   19.6680 C   0  0  0  0  0  2  0  0  0  0  0  0
  -28.3520  -26.4360   20.4240 O   0  0  0  0  0  0  0  0  0  0  0  0
  -24.6090  -31.9190   23.2660 C   0  0  0  0  0  0  0  0  0  0  0  0
  -27.2390  -27.2930   20.2680 C   0  0  0  0  0  0  0  0  0  0  0  0
  -23.4160  -30.5050   21.6320 C   0  0  0  0  0  3  0  0  0  0  0  0
  -24.8760  -28.9340   20.2190 C   0  0  0  0  0  0  0  0  0  0  0  0
  -25.9590  -30.8040   21.4730 C   0  0  0  0  0  2  0  0  0  0  0  0
  -26.0380  -29.4180   20.8310 C   0  0  0  0  0  0  0  0  0  0  0  0
  -27.2130  -28.6060   20.8500 C   0  0  0  0  0  3  0  0  0  0  0  0
  -26.0600  -26.8690   19.6200 C   0  0  0  0  0  3  0  0  0  0  0  0
  -24.8930  -27.6680   19.6030 C   0  0  0  0  0  3  0  0  0  0  0  0
  -23.6390  -29.8130   20.2580 C   0  0  0  0  0  2  0  0  0  0  0  0
  -24.6810  -31.0920   22.1830 N   0  0  0  0  0  0  0  0  0  0  0  0
  -23.5170  -32.2280   23.7610 O   0  0  0  0  0  0  0  0  0  0  0  0
  -22.7390  -29.5010   22.5980 C   0  0  0  0  0  0  0  0  0  0  0  0
  -21.4120  -29.3330   22.4680 N   0  0  0  0  0  0  0  0  0  0  0  0
  -23.4090  -28.8760   23.4240 O   0  0  0  0  0  0  0  0  0  0  0  0
  -20.9290  -29.8910   21.7760 H   0  0  0  0  0  0  0  0  0  0  0  0
  -18.0250  -28.1560   22.9610 C   0  0  0  0  0  0  0  0  0  0  0  0
  -20.5840  -28.4010   23.2370 C   0  0  0  0  0  3  0  0  0  0  0  0
  -20.6790  -26.9680   22.6630 C   0  0  0  0  0  2  0  0  0  0  0  0
  -19.5790  -26.6520   21.6450 C   0  0  0  0  0  2  0  0  0  0  0  0
  -18.1960  -26.8050   22.2840 C   0  0  0  0  0  2  0  0  0  0  0  0
  -19.1470  -28.9110   23.3940 C   0  0  0  0  0  0  0  0  0  0  0  0
  -18.9330  -30.1750   23.9880 C   0  0  0  0  0  3  0  0  0  0  0  0
  -17.6300  -30.6830   24.1490 C   0  0  0  0  0  3  0  0  0  0  0  0
  -16.5230  -29.9240   23.7320 C   0  0  0  0  0  3  0  0  0  0  0  0
  -16.7210  -28.6620   23.1440 C   0  0  0  0  0  3  0  0  0  0  0  0
  -25.8880  -32.5420   23.9110 C   0  0  0  0  0  3  0  0  0  0  0  0
  -26.3770  -31.7840   25.2060 C   0  0  1  0  0  0  0  0  0  0  0  0
  -25.2650  -31.5720   26.2580 C   0  0  0  0  0  1  0  0  0  0  0  0
  -26.9550  -30.3960   24.8450 C   0  0  0  0  0  1  0  0  0  0  0  0
  -27.5250  -32.5770   25.8770 C   0  0  0  0  0  1  0  0  0  0  0  0
  -25.5870  -33.9470   24.2230 N   0  0  0  0  0  0  0  0  0  0  0  0
  -25.9310  -34.9900   23.4560 C   0  0  0  0  0  0  0  0  0  0  0  0
  -26.6050  -34.8710   22.4300 O   0  0  0  0  0  0  0  0  0  0  0  0
  -24.9900  -34.1150   25.0200 H   0  0  0  0  0  0  0  0  0  0  0  0
  -24.2180  -36.7930   23.0750 C   0  0  0  0  0  1  0  0  0  0  0  0
  -25.4520  -36.3870   23.8970 C   0  0  0  0  0  3  0  0  0  0  0  0
  -27.5890  -37.2660   24.7290 C   0  0  0  0  0  1  0  0  0  0  0  0
  -26.4930  -37.4310   23.7770 N   0  0  0  0  0  0  0  0  0  0  0  0
  -26.0930  -38.3550   23.9110 H   0  0  0  0  0  0  0  0  0  0  0  0
  1  3  1  0
  1  2  2  0
  2 49  1  0
  2  6  1  0
  3  7  2  0
  4  5  1  0
  6  4  2  0
  7  4  1  0
 10  8  1  6
  9 10  1  0
 10  3  1  0
 10 19  1  0
 11 19  1  0
 12 17  1  0
 13 14  1  0
 13 12  1  0
 15 14  1  0
 15 24  1  0
 15 16  1  0
 17 11  1  0
 17 16  1  0
 18 11  2  0
 19 20  1  0
 21 22  2  0
 22 41  1  0
 23 22  1  0
 23 26  1  0
 24 21  1  0
 24 25  1  0
 25 23  2  0
 26 27  1  0
 27 28  2  0
 29 32  1  0
 29 28  1  0
 30 29  2  0
 31 30  1  0
 31 26  2  0
 32 33  1  0
 33 34  1  0
 34 35  2  0
 36 35  1  0
 36 40  1  0
 37 36  2  0
 38 33  2  0
 38 37  1  0
 39 38  1  0
 41 42  1  0
 42 45  1  0
 42 44  1  0
 43 41  2  0
 46 47  1  0
 46 21  1  0
 48 46  1  0
 50 49  1  0
 51 50  1  0
 51 52  1  0
 53 64  2  0
 54 52  1  0
 54 59  1  0
 55 63  1  0
 55 65  1  0
 56 62  1  0
 56 58  1  0
 57 63  1  0
 58 59  2  0
 58 57  1  0
 60 54  2  0
 61 60  1  0
 61 56  2  0
 62 55  1  0
 63 53  1  0
 65 67  2  0
 66 65  1  0
 68 66  1  0
 69 78  2  0
 69 74  1  0
 70 66  1  0
 70 74  1  0
 71 70  1  0
 72 73  1  0
 72 71  1  0
 73 69  1  0
 74 75  2  0
 75 76  1  0
 77 76  2  0
 78 77  1  0
 79 53  1  0
 79 84  1  0
 79 80  1  0
 80 83  1  1
 80 81  1  0
 82 80  1  0
 84 87  1  0
 85 89  1  0
 85 84  1  0
 86 85  2  0
 89 88  1  0
 91 89  1  0
 91 92  1  0
 91 90  1  0
M  ISO  4  11 100  19 100  51 101  52 101
M  END
>  <TORSDO>  (12) 
F 20

>  <SCORE>  (12) 
-14.291

>  <name>  (12) 
11

>  <ligand_id>  (12) 
11

>  <original_smiles>  (12) 
[H]c1c(C([H])([H])C([H])([H])C([H])([H])Oc2c([H])c([H])c3c(c2[H])C([H])([H])N(C(=O)C([H])(N([H])C(=O)C([H])(N([H])C([H])([H])[H])C([H])([H])[H])C(C([H])([H])[H])(C([H])([H])[H])C([H])([H])[H])C([H])(C(=O)N([H])C2([H])c4c([H])c([H])c([H])c([H])c4C([H])([H])C([H])([H])C2([H])[H])C3([H])[H])nc(C([H])([H])[H])nc1C(N([H])C(=O)N1C([H])([H])C([H])([H])C([H])([H])C([H])(n2nc(-c3c([H])c([H])c(Oc4c([H])c([H])c(F)c([H])c4F)c([H])c3[H])c(C(=O)N([H])[H])c2N([H])[H])C1([H])[H])(C([H])([H])[H])C([H])([H])[H]

>  <smiles>  (12) 
[H]c1c(C([H])([H])C([H])([H])C([H])([H])Oc2c([H])c([H])c3c(c2[H])C([H])([H])N(C(=O)C([H])(N([H])C(=O)C([H])(N([H])C([H])([H])[H])C([H])([H])[H])C(C([H])([H])[H])(C([H])([H])[H])C([H])([H])[H])C([H])(C(=O)N([H])C2([H])c4c([H])c([H])c([H])c([H])c4C([H])([H])C([H])([H])C2([H])[H])C3([H])[H])nc(C([H])([H])[H])nc1C(N([H])C(=O)N1C([H])([H])C([H])([H])C([H])([H])C([H])(n2nc(-c3c([H])c([H])c(Oc4c([H])c([H])c(F)c([H])c4F)c([H])c3[H])c(C(=O)N([H])[H])c2N([H])[H])C1([H])[H])(C([H])([H])[H])C([H])([H])[H]

> <Step>
82.0

> <Scaffold>
O=C(NC1CCCc2ccccc21)C1Cc2ccc(OCCCc3cc(CNC(=O)N4CCCC(n5ccc(-c6ccc(Oc7ccccc7)cc6)n5)C4)ncn3)cc2CN1

> <SMILES>
CNC(C)C(=O)NC(C(=O)N1Cc2cc(OCCCc3cc(C(C)(C)NC(=O)N4CCCC(n5nc(-c6ccc(Oc7ccc(F)cc7F)cc6)c(C(N)=O)c5N)C4)nc(C)n3)ccc2CC1C(=O)NC1CCCc2ccccc21)C(C)(C)C

> <Tanimoto ROCS sim>
0.28811997175216675

> <Custom alerts>
1.0

> <Linker Num Aromatic Rings>
1.0

> <Linker Effective Length>
1.0

> <ADV>
0.9947373270988464

> <PostDock Tanimoto ROCS sim>
0.9944396615028381

> <raw_Linker Num Aromatic Rings>
1.0

> <raw_Linker Effective Length>
7.0

> <raw_ADV>
-14.105999946594238

> <total_score>
0.9972942471504211

> <ID>
default_job_11

> <PostDock Tanimoto ROCS sim (re-score)>
0.9750041

> <raw_ADV (re-score)>
-14.291

> <Final Intermolecular Energy>
-30.583

> <Final Total Internal Energy>
-2.822

> <Torsional Free Energy>
16.292

> <Unbound System's Energy>
-2.822

$$$$
default_job_12
     RDKit          3D

 94103  0  0  1  0  0  0  0  0999 V2000
  -30.4010  -21.6770   22.1150 C   0  0  0  0  0  2  0  0  0  0  0  0
  -30.7100  -23.0940   21.6230 C   0  0  0  0  0  2  0  0  0  0  0  0
  -28.5460  -22.4710   20.8140 C   0  0  0  0  0  2  0  0  0  0  0  0
  -29.3170  -21.1710   21.1550 C   0  0  0  0  0  3  0  0  0  0  0  0
  -29.4380  -23.6340   21.0910 N   0  0  2  0  0  4  0  0  0  0  0  0
  -29.0120  -24.1480   21.8510 H   0  0  0  0  0  0  0  0  0  0  0  0
  -29.9250  -20.5160   19.8970 C   0  0  0  0  0  0  0  0  0  0  0  0
  -30.5520  -17.0580   18.8060 C   0  0  0  0  0  2  0  0  0  0  0  0
  -30.5510  -18.5610   18.5680 C   0  0  0  0  0  2  0  0  0  0  0  0
  -29.6930  -18.1350   20.7790 C   0  0  0  0  0  2  0  0  0  0  0  0
  -30.5110  -16.9070   20.3290 C   0  0  0  0  0  3  0  0  0  0  0  0
  -29.9830  -19.1690   19.7710 N   0  0  0  0  0  0  0  0  0  0  0  0
  -30.3470  -21.2550   19.0020 O   0  0  0  0  0  0  0  0  0  0  0  0
  -30.6990  -14.4630   20.4560 C   0  0  0  0  0  0  0  0  0  0  0  0
  -30.3430  -12.3080   19.3450 C   0  0  0  0  0  2  0  0  0  0  0  0
  -29.4120  -12.5370   18.1380 C   0  0  0  0  0  2  0  0  0  0  0  0
  -27.9370  -12.4150   18.5670 C   0  0  0  0  0  2  0  0  0  0  0  0
  -27.6060  -13.2500   19.8340 C   0  0  0  0  0  3  0  0  0  0  0  0
  -28.6650  -13.0500   20.9430 C   0  0  0  0  0  2  0  0  0  0  0  0
  -29.9880  -13.3110   20.3600 N   0  0  0  0  0  0  0  0  0  0  0  0
  -31.8660  -14.5540   20.0720 O   0  0  0  0  0  0  0  0  0  0  0  0
  -29.9970  -15.5820   20.7210 N   0  0  0  0  0  0  0  0  0  0  0  0
  -29.0300  -15.4890   20.9930 H   0  0  0  0  0  0  0  0  0  0  0  0
  -25.2100  -13.8530   20.5490 C   0  0  0  0  0  0  0  0  0  0  0  0
  -24.1430  -13.0790   20.9210 C   0  0  0  0  0  0  0  0  0  0  0  0
  -24.6060  -11.7280   20.8910 C   0  0  0  0  0  0  0  0  0  0  0  0
  -26.2560  -12.9730   20.3180 N   0  0  0  0  0  0  0  0  0  0  0  0
  -25.8960  -11.6890   20.5810 N   0  0  0  0  0  0  0  0  0  0  0  0
  -23.8810  -10.4650   21.0830 C   0  0  0  0  0  0  0  0  0  0  0  0
  -24.3300   -9.4860   21.9960 C   0  0  0  0  0  3  0  0  0  0  0  0
  -23.6060   -8.2880   22.1770 C   0  0  0  0  0  3  0  0  0  0  0  0
  -22.4170   -8.0600   21.4440 C   0  0  0  0  0  0  0  0  0  0  0  0
  -21.9850   -9.0270   20.5190 C   0  0  0  0  0  3  0  0  0  0  0  0
  -22.7110  -10.2170   20.3370 C   0  0  0  0  0  3  0  0  0  0  0  0
  -21.6620   -6.9150   21.5350 O   0  0  0  0  0  0  0  0  0  0  0  0
  -21.6560   -6.1460   22.6710 C   0  0  0  0  0  0  0  0  0  0  0  0
  -21.2990   -6.6790   23.9300 C   0  0  0  0  0  3  0  0  0  0  0  0
  -21.2370   -5.8370   25.0580 C   0  0  0  0  0  3  0  0  0  0  0  0
  -21.5220   -4.4640   24.9300 C   0  0  0  0  0  0  0  0  0  0  0  0
  -21.8720   -3.9310   23.6770 C   0  0  0  0  0  3  0  0  0  0  0  0
  -21.9350   -4.7700   22.5510 C   0  0  0  0  0  0  0  0  0  0  0  0
  -22.2530   -4.2480   21.3420 F   0  0  0  0  0  0  0  0  0  0  0  0
  -21.4560   -3.6530   26.0120 F   0  0  0  0  0  0  0  0  0  0  0  0
  -22.7460  -13.5550   21.1960 C   0  0  0  0  0  0  0  0  0  0  0  0
  -22.0200  -12.8610   22.0660 N   0  0  0  0  0  0  0  0  0  0  0  0
  -22.3060  -14.5790   20.6740 O   0  0  0  0  0  0  0  0  0  0  0  0
  -22.3890  -12.0310   22.5070 H   0  0  0  0  0  0  0  0  0  0  0  0
  -21.0830  -13.1630   22.2920 H   0  0  0  0  0  0  0  0  0  0  0  0
  -25.3740  -15.2220   20.3680 N   0  0  0  0  0  0  0  0  0  0  0  0
  -24.6020  -15.8730   20.4670 H   0  0  0  0  0  0  0  0  0  0  0  0
  -26.2170  -15.6580   20.0160 H   0  0  0  0  0  0  0  0  0  0  0  0
  -29.6260  -24.5920   19.9610 C   0  0  0  0  0  2  0  0  0  0  0  0
  -28.3550  -25.3890   19.5990 C   0  0  0  0  0  2  0  0  0  0  0  0
  -28.3730  -26.7150   20.1470 O   0  0  0  0  0  0  0  0  0  0  0  0
  -24.5960  -31.9030   23.2410 C   0  0  0  0  0  0  0  0  0  0  0  0
  -27.1940  -27.4400   20.1300 C   0  0  0  0  0  0  0  0  0  0  0  0
  -23.3710  -30.4980   21.6200 C   0  0  0  0  0  3  0  0  0  0  0  0
  -24.8040  -28.9620   20.1780 C   0  0  0  0  0  0  0  0  0  0  0  0
  -25.8990  -30.8430   21.4020 C   0  0  0  0  0  2  0  0  0  0  0  0
  -25.9710  -29.4730   20.7580 C   0  0  0  0  0  0  0  0  0  0  0  0
  -27.1650  -28.7180   20.7360 C   0  0  0  0  0  3  0  0  0  0  0  0
  -26.0040  -26.9520   19.5360 C   0  0  0  0  0  3  0  0  0  0  0  0
  -24.8160  -27.7000   19.5660 C   0  0  0  0  0  3  0  0  0  0  0  0
  -23.5640  -29.8230   20.2370 C   0  0  0  0  0  2  0  0  0  0  0  0
  -24.6410  -31.0930   22.1470 N   0  0  0  0  0  0  0  0  0  0  0  0
  -23.5160  -32.2010   23.7700 O   0  0  0  0  0  0  0  0  0  0  0  0
  -22.7290  -29.4740   22.5840 C   0  0  0  0  0  0  0  0  0  0  0  0
  -21.4050  -29.2860   22.4620 N   0  0  0  0  0  0  0  0  0  0  0  0
  -23.4180  -28.8520   23.3970 O   0  0  0  0  0  0  0  0  0  0  0  0
  -20.9100  -29.8380   21.7750 H   0  0  0  0  0  0  0  0  0  0  0  0
  -18.0380  -28.0700   22.9590 C   0  0  0  0  0  0  0  0  0  0  0  0
  -20.5940  -28.3470   23.2370 C   0  0  0  0  0  3  0  0  0  0  0  0
  -20.7080  -26.9120   22.6700 C   0  0  0  0  0  2  0  0  0  0  0  0
  -19.6100  -26.5750   21.6560 C   0  0  0  0  0  2  0  0  0  0  0  0
  -18.2260  -26.7150   22.2940 C   0  0  0  0  0  2  0  0  0  0  0  0
  -19.1500  -28.8420   23.3860 C   0  0  0  0  0  0  0  0  0  0  0  0
  -18.9220  -30.1100   23.9660 C   0  0  0  0  0  3  0  0  0  0  0  0
  -17.6130  -30.6040   24.1230 C   0  0  0  0  0  3  0  0  0  0  0  0
  -16.5160  -29.8280   23.7130 C   0  0  0  0  0  3  0  0  0  0  0  0
  -16.7290  -28.5630   23.1360 C   0  0  0  0  0  3  0  0  0  0  0  0
  -25.8900  -32.5210   23.8560 C   0  0  0  0  0  3  0  0  0  0  0  0
  -26.4210  -31.7390   25.1210 C   0  0  1  0  0  0  0  0  0  0  0  0
  -25.3380  -31.4990   26.2000 C   0  0  0  0  0  1  0  0  0  0  0  0
  -26.9960  -30.3640   24.7140 C   0  0  0  0  0  1  0  0  0  0  0  0
  -27.5810  -32.5270   25.7760 C   0  0  0  0  0  1  0  0  0  0  0  0
  -25.5900  -33.9170   24.1980 N   0  0  0  0  0  0  0  0  0  0  0  0
  -25.9110  -34.9710   23.4350 C   0  0  0  0  0  0  0  0  0  0  0  0
  -26.5680  -34.8690   22.3960 O   0  0  0  0  0  0  0  0  0  0  0  0
  -25.0060  -34.0700   25.0060 H   0  0  0  0  0  0  0  0  0  0  0  0
  -24.1750  -36.7600   23.1100 C   0  0  0  0  0  1  0  0  0  0  0  0
  -25.4280  -36.3560   23.9030 C   0  0  0  0  0  3  0  0  0  0  0  0
  -27.5760  -37.2380   24.7010 C   0  0  0  0  0  1  0  0  0  0  0  0
  -26.4580  -37.4100   23.7760 N   0  0  0  0  0  0  0  0  0  0  0  0
  -26.0540  -38.3300   23.9330 H   0  0  0  0  0  0  0  0  0  0  0  0
  2  1  1  0
  3  5  1  0
  3  4  1  0
  4  7  1  0
  4  1  1  0
  5  2  1  0
  5  6  1  1
  8 11  1  0
  9  8  1  0
  9 12  1  0
 11 22  1  0
 11 10  1  0
 12  7  1  0
 12 10  1  0
 13  7  2  0
 14 22  1  0
 15 20  1  0
 16 17  1  0
 16 15  1  0
 18 17  1  0
 18 27  1  0
 18 19  1  0
 20 14  1  0
 20 19  1  0
 21 14  2  0
 22 23  1  0
 24 25  2  0
 25 44  1  0
 26 25  1  0
 26 29  1  0
 27 24  1  0
 27 28  1  0
 28 26  2  0
 29 30  1  0
 30 31  2  0
 32 35  1  0
 32 31  1  0
 33 32  2  0
 34 33  1  0
 34 29  2  0
 35 36  1  0
 36 37  1  0
 37 38  2  0
 39 38  1  0
 39 43  1  0
 40 39  2  0
 41 36  2  0
 41 40  1  0
 42 41  1  0
 44 45  1  0
 45 48  1  0
 45 47  1  0
 46 44  2  0
 49 50  1  0
 49 24  1  0
 51 49  1  0
 52  5  1  0
 53 52  1  0
 53 54  1  0
 55 66  2  0
 56 54  1  0
 56 61  1  0
 57 65  1  0
 57 67  1  0
 58 64  1  0
 58 60  1  0
 59 65  1  0
 60 59  1  0
 61 60  2  0
 62 63  1  0
 62 56  2  0
 63 58  2  0
 64 57  1  0
 65 55  1  0
 67 69  2  0
 68 67  1  0
 70 68  1  0
 71 80  2  0
 71 76  1  0
 72 68  1  0
 72 76  1  0
 73 72  1  0
 74 75  1  0
 74 73  1  0
 75 71  1  0
 76 77  2  0
 77 78  1  0
 79 78  2  0
 80 79  1  0
 81 55  1  0
 81 86  1  0
 81 82  1  0
 82 85  1  1
 82 83  1  0
 84 82  1  0
 86 89  1  0
 87 91  1  0
 87 86  1  0
 88 87  2  0
 91 90  1  0
 93 91  1  0
 93 94  1  0
 93 92  1  0
M  ISO  4  14 100  22 100  53 101  54 101
M  END
>  <TORSDO>  (13) 
F 19

>  <SCORE>  (13) 
-14.468

>  <name>  (13) 
12

>  <ligand_id>  (13) 
12

>  <original_smiles>  (13) 
[H]c1c([H])c([H])c2c(c1[H])C([H])([H])C([H])([H])C([H])([H])C2([H])N([H])C(=O)C1([H])N(C(=O)C([H])(N([H])C(=O)C([H])(N([H])C([H])([H])[H])C([H])([H])[H])C(C([H])([H])[H])(C([H])([H])[H])C([H])([H])[H])C([H])([H])c2c([H])c(OC([H])([H])C([H])([H])[N+]3([H])C([H])([H])C([H])([H])C([H])(C(=O)N4C([H])([H])C([H])([H])C([H])(N([H])C(=O)N5C([H])([H])C([H])([H])C([H])([H])C([H])(n6nc(-c7c([H])c([H])c(Oc8c([H])c([H])c(F)c([H])c8F)c([H])c7[H])c(C(=O)N([H])[H])c6N([H])[H])C5([H])[H])C4([H])[H])C3([H])[H])c([H])c([H])c2C1([H])[H]

>  <smiles>  (13) 
[H]c1c([H])c([H])c2c(c1[H])C([H])([H])C([H])([H])C([H])([H])C2([H])N([H])C(=O)C1([H])N(C(=O)C([H])(N([H])C(=O)C([H])(N([H])C([H])([H])[H])C([H])([H])[H])C(C([H])([H])[H])(C([H])([H])[H])C([H])([H])[H])C([H])([H])c2c([H])c(OC([H])([H])C([H])([H])[N+]3([H])C([H])([H])C([H])([H])C([H])(C(=O)N4C([H])([H])C([H])([H])C([H])(N([H])C(=O)N5C([H])([H])C([H])([H])C([H])([H])C([H])(n6nc(-c7c([H])c([H])c(Oc8c([H])c([H])c(F)c([H])c8F)c([H])c7[H])c(C(=O)N([H])[H])c6N([H])[H])C5([H])[H])C4([H])[H])C3([H])[H])c([H])c([H])c2C1([H])[H]

> <Step>
199.0

> <Scaffold>
O=C(NC1CCCc2ccccc21)C1Cc2ccc(OCCN3CCC(C(=O)N4CCC(NC(=O)N5CCCC(n6ccc(-c7ccc(Oc8ccccc8)cc7)n6)C5)C4)C3)cc2CN1

> <SMILES>
CNC(C)C(=O)NC(C(=O)N1Cc2cc(OCCN3CCC(C(=O)N4CCC(NC(=O)N5CCCC(n6nc(-c7ccc(Oc8ccc(F)cc8F)cc7)c(C(N)=O)c6N)C5)C4)C3)ccc2CC1C(=O)NC1CCCc2ccccc21)C(C)(C)C

> <Tanimoto ROCS sim>
0.27850979566574097

> <Custom alerts>
1.0

> <Linker Num Aromatic Rings>
1.0

> <Linker Effective Length>
1.0

> <ADV>
0.9957717657089233

> <PostDock Tanimoto ROCS sim>
0.9932865500450134

> <raw_Linker Num Aromatic Rings>
0.0

> <raw_Linker Effective Length>
9.0

> <raw_ADV>
-14.48799991607666

> <total_score>
0.9972646236419678

> <ID>
default_job_12

> <PostDock Tanimoto ROCS sim (re-score)>
0.9870162

> <raw_ADV (re-score)>
-14.468

> <Final Intermolecular Energy>
-30.116

> <Final Total Internal Energy>
-2.801

> <Torsional Free Energy>
15.648

> <Unbound System's Energy>
-2.801

$$$$
default_job_13
     RDKit          3D

 93102  0  0  1  0  0  0  0  0999 V2000
  -29.6630  -21.5830   17.9430 C   0  0  0  0  0  0  0  0  0  0  0  0
  -29.6160  -22.9240   19.7190 C   0  0  0  0  0  0  0  0  0  0  0  0
  -29.9340  -20.7130   19.9620 C   0  0  0  0  0  0  0  0  0  0  0  0
  -29.5650  -21.3990   16.4430 C   0  0  0  0  0  1  0  0  0  0  0  0
  -29.5460  -22.8230   18.3950 N   0  0  0  0  0  4  0  0  0  0  0  0
  -29.8580  -20.4880   18.6620 N   0  0  0  0  0  0  0  0  0  0  0  0
  -29.8160  -21.8970   20.5670 N   0  0  0  0  0  2  0  0  0  0  0  0
  -30.1980  -19.5960   20.7590 N   0  0  0  0  0  0  0  0  0  0  0  0
  -30.2300  -19.7810   21.7540 H   0  0  0  0  0  0  0  0  0  0  0  0
  -30.6940  -14.6140   20.4710 C   0  0  0  0  0  0  0  0  0  0  0  0
  -30.3950  -12.3950   19.3980 C   0  0  0  0  0  2  0  0  0  0  0  0
  -29.4680  -12.4960   18.1710 C   0  0  0  0  0  2  0  0  0  0  0  0
  -27.9980  -12.3020   18.5910 C   0  0  0  0  0  2  0  0  0  0  0  0
  -27.6120  -13.1890   19.7990 C   0  0  0  0  0  3  0  0  0  0  0  0
  -28.6700  -13.1060   20.9320 C   0  0  0  0  0  2  0  0  0  0  0  0
  -29.9810  -13.4440   20.3540 N   0  0  0  0  0  0  0  0  0  0  0  0
  -31.8850  -14.6420   20.1500 O   0  0  0  0  0  0  0  0  0  0  0  0
  -28.5970  -17.7120   20.4950 C   0  0  0  0  0  2  0  0  0  0  0  0
  -28.7300  -16.1940   20.3850 C   0  0  0  0  0  2  0  0  0  0  0  0
  -30.8030  -17.0750   21.0600 C   0  0  0  0  0  2  0  0  0  0  0  0
  -30.0190  -18.1940   20.3190 C   0  0  0  0  0  3  0  0  0  0  0  0
  -30.0720  -15.7940   20.8240 N   0  0  0  0  0  0  0  0  0  0  0  0
  -25.2160  -13.8210   20.4780 C   0  0  0  0  0  0  0  0  0  0  0  0
  -24.1450  -13.0560   20.8440 C   0  0  0  0  0  0  0  0  0  0  0  0
  -24.6080  -11.7050   20.8430 C   0  0  0  0  0  0  0  0  0  0  0  0
  -26.2630  -12.9310   20.2780 N   0  0  0  0  0  0  0  0  0  0  0  0
  -25.9020  -11.6580   20.5600 N   0  0  0  0  0  0  0  0  0  0  0  0
  -23.8830  -10.4460   21.0360 C   0  0  0  0  0  0  0  0  0  0  0  0
  -24.3160   -9.4850   21.9750 C   0  0  0  0  0  3  0  0  0  0  0  0
  -23.5930   -8.2870   22.1540 C   0  0  0  0  0  3  0  0  0  0  0  0
  -22.4240   -8.0440   21.3950 C   0  0  0  0  0  0  0  0  0  0  0  0
  -22.0120   -8.9940   20.4430 C   0  0  0  0  0  3  0  0  0  0  0  0
  -22.7360  -10.1840   20.2620 C   0  0  0  0  0  3  0  0  0  0  0  0
  -21.6720   -6.8990   21.4840 O   0  0  0  0  0  0  0  0  0  0  0  0
  -21.6290   -6.1560   22.6370 C   0  0  0  0  0  0  0  0  0  0  0  0
  -21.2140   -6.7120   23.8660 C   0  0  0  0  0  3  0  0  0  0  0  0
  -21.1190   -5.8940   25.0110 C   0  0  0  0  0  3  0  0  0  0  0  0
  -21.4300   -4.5250   24.9260 C   0  0  0  0  0  0  0  0  0  0  0  0
  -21.8390   -3.9690   23.7010 C   0  0  0  0  0  3  0  0  0  0  0  0
  -21.9360   -4.7830   22.5600 C   0  0  0  0  0  0  0  0  0  0  0  0
  -22.3110   -4.2390   21.3760 F   0  0  0  0  0  0  0  0  0  0  0  0
  -21.3310   -3.7370   26.0230 F   0  0  0  0  0  0  0  0  0  0  0  0
  -22.7430  -13.5370   21.0820 C   0  0  0  0  0  0  0  0  0  0  0  0
  -21.9990  -12.8540   21.9450 N   0  0  0  0  0  0  0  0  0  0  0  0
  -22.3130  -14.5530   20.5380 O   0  0  0  0  0  0  0  0  0  0  0  0
  -22.3580  -12.0310   22.4080 H   0  0  0  0  0  0  0  0  0  0  0  0
  -21.0580  -13.1590   22.1470 H   0  0  0  0  0  0  0  0  0  0  0  0
  -25.3740  -15.1890   20.2740 N   0  0  0  0  0  0  0  0  0  0  0  0
  -24.6000  -15.8370   20.3670 H   0  0  0  0  0  0  0  0  0  0  0  0
  -26.2210  -15.6300   19.9460 H   0  0  0  0  0  0  0  0  0  0  0  0
  -29.5850  -24.3760   20.2550 C   0  0  0  0  0  3  0  0  0  0  0  0
  -28.3070  -25.2080   19.9070 C   0  0  0  0  0  3  0  0  0  0  0  0
  -28.3980  -26.6300   20.2060 O   0  0  0  0  0  0  0  0  0  0  0  0
  -24.6340  -31.8830   23.2650 C   0  0  0  0  0  0  0  0  0  0  0  0
  -27.2340  -27.3910   20.1690 C   0  0  0  0  0  0  0  0  0  0  0  0
  -23.4130  -30.4860   21.6330 C   0  0  0  0  0  3  0  0  0  0  0  0
  -24.8500  -28.9440   20.1930 C   0  0  0  0  0  0  0  0  0  0  0  0
  -25.9450  -30.8190   21.4280 C   0  0  0  0  0  2  0  0  0  0  0  0
  -26.0170  -29.4480   20.7790 C   0  0  0  0  0  0  0  0  0  0  0  0
  -27.2100  -28.6810   20.7610 C   0  0  0  0  0  3  0  0  0  0  0  0
  -26.0430  -26.9160   19.5680 C   0  0  0  0  0  3  0  0  0  0  0  0
  -24.8610  -27.6800   19.5830 C   0  0  0  0  0  3  0  0  0  0  0  0
  -23.6120  -29.8120   20.2500 C   0  0  0  0  0  2  0  0  0  0  0  0
  -24.6830  -31.0740   22.1690 N   0  0  0  0  0  0  0  0  0  0  0  0
  -23.5520  -32.1850   23.7860 O   0  0  0  0  0  0  0  0  0  0  0  0
  -22.7590  -29.4650   22.5940 C   0  0  0  0  0  0  0  0  0  0  0  0
  -21.4340  -29.2830   22.4660 N   0  0  0  0  0  0  0  0  0  0  0  0
  -23.4410  -28.8410   23.4100 O   0  0  0  0  0  0  0  0  0  0  0  0
  -20.9440  -29.8400   21.7790 H   0  0  0  0  0  0  0  0  0  0  0  0
  -18.0600  -28.0800   22.9530 C   0  0  0  0  0  0  0  0  0  0  0  0
  -20.6160  -28.3440   23.2340 C   0  0  0  0  0  3  0  0  0  0  0  0
  -20.7230  -26.9120   22.6590 C   0  0  0  0  0  2  0  0  0  0  0  0
  -19.6250  -26.5870   21.6410 C   0  0  0  0  0  2  0  0  0  0  0  0
  -18.2410  -26.7310   22.2810 C   0  0  0  0  0  2  0  0  0  0  0  0
  -19.1750  -28.8450   23.3870 C   0  0  0  0  0  0  0  0  0  0  0  0
  -18.9520  -30.1090   23.9750 C   0  0  0  0  0  3  0  0  0  0  0  0
  -17.6460  -30.6090   24.1350 C   0  0  0  0  0  3  0  0  0  0  0  0
  -16.5450  -29.8410   23.7180 C   0  0  0  0  0  3  0  0  0  0  0  0
  -16.7520  -28.5800   23.1330 C   0  0  0  0  0  3  0  0  0  0  0  0
  -25.9270  -32.4960   23.8910 C   0  0  0  0  0  3  0  0  0  0  0  0
  -25.6320  -33.8950   24.2270 N   0  0  0  0  0  0  0  0  0  0  0  0
  -25.9530  -34.9440   23.4590 C   0  0  0  0  0  0  0  0  0  0  0  0
  -26.6010  -34.8360   22.4150 O   0  0  0  0  0  0  0  0  0  0  0  0
  -25.0560  -34.0540   25.0390 H   0  0  0  0  0  0  0  0  0  0  0  0
  -24.2160  -36.7340   23.1430 C   0  0  0  0  0  1  0  0  0  0  0  0
  -25.4780  -36.3350   23.9220 C   0  0  0  0  0  3  0  0  0  0  0  0
  -27.6360  -37.2200   24.6900 C   0  0  0  0  0  1  0  0  0  0  0  0
  -26.5090  -37.3860   23.7760 N   0  0  0  0  0  0  0  0  0  0  0  0
  -26.1080  -38.3070   23.9320 H   0  0  0  0  0  0  0  0  0  0  0  0
  -26.4410  -31.7140   25.1620 C   0  0  1  0  0  0  0  0  0  0  0  0
  -25.3500  -31.4820   26.2310 C   0  0  0  0  0  1  0  0  0  0  0  0
  -27.0110  -30.3340   24.7620 C   0  0  0  0  0  1  0  0  0  0  0  0
  -27.6010  -32.4970   25.8240 C   0  0  0  0  0  1  0  0  0  0  0  0
  1  5  2  0
  1  6  1  0
  2 51  1  0
  2  7  1  0
  3  7  1  0
  3  8  1  0
  4  1  1  0
  5  2  2  0
  6  3  2  0
  8  9  1  0
 10 22  1  0
 11 16  1  0
 12 13  1  0
 12 11  1  0
 14 13  1  0
 14 26  1  0
 14 15  1  0
 16 10  1  0
 16 15  1  0
 17 10  2  0
 19 18  1  0
 19 22  1  0
 21 18  1  0
 21  8  1  0
 21 20  1  0
 22 20  1  0
 23 24  2  0
 24 43  1  0
 25 24  1  0
 25 28  1  0
 26 23  1  0
 26 27  1  0
 27 25  2  0
 28 29  1  0
 29 30  2  0
 31 34  1  0
 31 30  1  0
 32 31  2  0
 33 32  1  0
 33 28  2  0
 34 35  1  0
 35 36  1  0
 36 37  2  0
 38 37  1  0
 38 42  1  0
 39 38  2  0
 40 35  2  0
 40 39  1  0
 41 40  1  0
 43 44  1  0
 44 47  1  0
 44 46  1  0
 45 43  2  0
 48 49  1  0
 48 23  1  0
 50 48  1  0
 52 53  1  0
 52 51  2  0
 54 65  2  0
 55 53  1  0
 55 60  1  0
 56 64  1  0
 56 66  1  0
 57 63  1  0
 57 59  1  0
 58 64  1  0
 59 58  1  0
 60 59  2  0
 61 62  1  0
 61 55  2  0
 62 57  2  0
 63 56  1  0
 64 54  1  0
 66 68  2  0
 67 66  1  0
 69 67  1  0
 70 79  2  0
 70 75  1  0
 71 67  1  0
 71 75  1  0
 72 71  1  0
 73 74  1  0
 73 72  1  0
 74 70  1  0
 75 76  2  0
 76 77  1  0
 78 77  2  0
 79 78  1  0
 80 54  1  0
 80 81  1  0
 80 90  1  0
 81 84  1  0
 82 86  1  0
 82 81  1  0
 83 82  2  0
 86 85  1  0
 88 86  1  0
 88 89  1  0
 88 87  1  0
 90 93  1  1
 90 91  1  0
 92 90  1  0
M  ISO  4  10 100  22 100  52 101  53 101
M  END
>  <TORSDO>  (14) 
F 18

>  <SCORE>  (14) 
-14.795

>  <name>  (14) 
13

>  <ligand_id>  (14) 
13

>  <original_smiles>  (14) 
[H]c1c([H])c([H])c2c(c1[H])C([H])([H])C([H])([H])C([H])([H])C2([H])N([H])C(=O)C1([H])N(C(=O)C([H])(N([H])C(=O)C([H])(N([H])C([H])([H])[H])C([H])([H])[H])C(C([H])([H])[H])(C([H])([H])[H])C([H])([H])[H])C([H])([H])c2c([H])c(OC([H])([H])C([H])([H])c3nc(N([H])C4([H])C([H])([H])N(C(=O)N5C([H])([H])C([H])([H])C([H])([H])C([H])(n6nc(-c7c([H])c([H])c(Oc8c([H])c([H])c(F)c([H])c8F)c([H])c7[H])c(C(=O)N([H])[H])c6N([H])[H])C5([H])[H])C([H])([H])C4([H])[H])nc(C([H])([H])[H])n3)c([H])c([H])c2C1([H])[H]

>  <smiles>  (14) 
[H]c1c([H])c([H])c2c(c1[H])C([H])([H])C([H])([H])C([H])([H])C2([H])N([H])C(=O)C1([H])N(C(=O)C([H])(N([H])C(=O)C([H])(N([H])C([H])([H])[H])C([H])([H])[H])C(C([H])([H])[H])(C([H])([H])[H])C([H])([H])[H])C([H])([H])c2c([H])c(OC([H])([H])C([H])([H])c3nc(N([H])C4([H])C([H])([H])N(C(=O)N5C([H])([H])C([H])([H])C([H])([H])C([H])(n6nc(-c7c([H])c([H])c(Oc8c([H])c([H])c(F)c([H])c8F)c([H])c7[H])c(C(=O)N([H])[H])c6N([H])[H])C5([H])[H])C([H])([H])C4([H])[H])nc(C([H])([H])[H])n3)c([H])c([H])c2C1([H])[H]

> <Step>
186.0

> <Scaffold>
O=C(NC1CCCc2ccccc21)C1Cc2ccc(OCCc3ncnc(NC4CCN(C(=O)N5CCCC(n6ccc(-c7ccc(Oc8ccccc8)cc7)n6)C5)C4)n3)cc2CN1

> <SMILES>
CNC(C)C(=O)NC(C(=O)N1Cc2cc(OCCc3nc(C)nc(NC4CCN(C(=O)N5CCCC(n6nc(-c7ccc(Oc8ccc(F)cc8F)cc7)c(C(N)=O)c6N)C5)C4)n3)ccc2CC1C(=O)NC1CCCc2ccccc21)C(C)(C)C

> <Tanimoto ROCS sim>
0.20785389840602875

> <Custom alerts>
1.0

> <Linker Num Aromatic Rings>
1.0

> <Linker Effective Length>
1.0

> <ADV>
0.996532678604126

> <PostDock Tanimoto ROCS sim>
0.9923039078712463

> <raw_Linker Num Aromatic Rings>
1.0

> <raw_Linker Effective Length>
8.0

> <raw_ADV>
-14.833999633789062

> <total_score>
0.9972091317176819

> <ID>
default_job_13

> <PostDock Tanimoto ROCS sim (re-score)>
0.9837446

> <raw_ADV (re-score)>
-14.795

> <Final Intermolecular Energy>
-29.931

> <Final Total Internal Energy>
-2.835

> <Torsional Free Energy>
15.136

> <Unbound System's Energy>
-2.835

$$$$
default_job_14
     RDKit          3D

 93102  0  0  1  0  0  0  0  0999 V2000
  -31.3450  -21.6260   21.9000 C   0  0  0  0  0  2  0  0  0  0  0  0
  -31.3000  -23.1240   21.5700 C   0  0  0  0  0  2  0  0  0  0  0  0
  -29.3110  -22.2050   20.6970 C   0  0  0  0  0  2  0  0  0  0  0  0
  -29.9760  -21.0510   21.4870 C   0  0  0  0  0  3  0  0  0  0  0  0
  -29.8970  -23.4510   21.2490 N   0  0  2  0  0  4  0  0  0  0  0  0
  -29.4490  -23.6190   22.1380 H   0  0  0  0  0  0  0  0  0  0  0  0
  -30.1160  -19.7090   20.7410 C   0  0  0  0  0  0  0  0  0  0  0  0
  -29.4470  -17.5500   21.6940 C   0  0  0  0  0  2  0  0  0  0  0  0
  -31.4140  -17.5960   21.0310 C   0  0  0  0  0  2  0  0  0  0  0  0
  -30.1970  -16.7540   20.6200 C   0  0  0  0  0  3  0  0  0  0  0  0
  -30.4630  -18.5990   21.5340 N   0  0  0  0  0  0  0  0  0  0  0  0
  -30.0160  -19.6380   19.5150 O   0  0  0  0  0  0  0  0  0  0  0  0
  -30.8480  -14.4000   20.1410 C   0  0  0  0  0  0  0  0  0  0  0  0
  -30.4640  -12.2970   18.9160 C   0  0  0  0  0  2  0  0  0  0  0  0
  -29.4550  -12.5670   17.7820 C   0  0  0  0  0  2  0  0  0  0  0  0
  -28.0050  -12.4300   18.2900 C   0  0  0  0  0  2  0  0  0  0  0  0
  -27.7540  -13.2220   19.6030 C   0  0  0  0  0  3  0  0  0  0  0  0
  -28.8660  -12.9220   20.6350 C   0  0  0  0  0  2  0  0  0  0  0  0
  -30.1720  -13.2280   20.0140 N   0  0  0  0  0  0  0  0  0  0  0  0
  -31.8770  -14.6640   19.5070 O   0  0  0  0  0  0  0  0  0  0  0  0
  -30.2300  -15.3150   20.8940 N   0  0  0  0  0  0  0  0  0  0  0  0
  -29.4510  -14.9580   21.4260 H   0  0  0  0  0  0  0  0  0  0  0  0
  -25.4050  -13.8350   20.4660 C   0  0  0  0  0  0  0  0  0  0  0  0
  -24.3500  -13.0630   20.8740 C   0  0  0  0  0  0  0  0  0  0  0  0
  -24.7910  -11.7070   20.7680 C   0  0  0  0  0  0  0  0  0  0  0  0
  -26.4250  -12.9510   20.1460 N   0  0  0  0  0  0  0  0  0  0  0  0
  -26.0590  -11.6640   20.3820 N   0  0  0  0  0  0  0  0  0  0  0  0
  -24.0610  -10.4470   20.9610 C   0  0  0  0  0  0  0  0  0  0  0  0
  -24.5080   -9.4740   21.8820 C   0  0  0  0  0  3  0  0  0  0  0  0
  -23.7850   -8.2740   22.0630 C   0  0  0  0  0  3  0  0  0  0  0  0
  -22.5970   -8.0430   21.3270 C   0  0  0  0  0  0  0  0  0  0  0  0
  -22.1690   -9.0040   20.3950 C   0  0  0  0  0  3  0  0  0  0  0  0
  -22.8930  -10.1960   20.2130 C   0  0  0  0  0  3  0  0  0  0  0  0
  -21.8400   -6.9000   21.4250 O   0  0  0  0  0  0  0  0  0  0  0  0
  -21.7590   -6.1860   22.5930 C   0  0  0  0  0  0  0  0  0  0  0  0
  -21.2920   -6.7670   23.7930 C   0  0  0  0  0  3  0  0  0  0  0  0
  -21.1610   -5.9750   24.9520 C   0  0  0  0  0  3  0  0  0  0  0  0
  -21.4840   -4.6060   24.9120 C   0  0  0  0  0  0  0  0  0  0  0  0
  -21.9400   -4.0250   23.7160 C   0  0  0  0  0  3  0  0  0  0  0  0
  -22.0760   -4.8120   22.5610 C   0  0  0  0  0  0  0  0  0  0  0  0
  -22.4980   -4.2430   21.4060 F   0  0  0  0  0  0  0  0  0  0  0  0
  -21.3480   -3.8450   26.0230 F   0  0  0  0  0  0  0  0  0  0  0  0
  -22.9780  -13.5410   21.2510 C   0  0  0  0  0  0  0  0  0  0  0  0
  -22.2990  -12.8230   22.1410 N   0  0  0  0  0  0  0  0  0  0  0  0
  -22.5180  -14.5870   20.7900 O   0  0  0  0  0  0  0  0  0  0  0  0
  -22.6800  -11.9800   22.5440 H   0  0  0  0  0  0  0  0  0  0  0  0
  -21.3770  -13.1200   22.4290 H   0  0  0  0  0  0  0  0  0  0  0  0
  -25.5780  -15.2070   20.3240 N   0  0  0  0  0  0  0  0  0  0  0  0
  -24.8320  -15.8710   20.5070 H   0  0  0  0  0  0  0  0  0  0  0  0
  -26.4160  -15.6420   19.9590 H   0  0  0  0  0  0  0  0  0  0  0  0
  -29.7510  -24.6890   20.4250 C   0  0  0  0  0  2  0  0  0  0  0  0
  -28.3290  -25.2890   20.4050 C   0  0  0  0  0  2  0  0  0  0  0  0
  -28.4170  -26.6630   19.9950 O   0  0  0  0  0  0  0  0  0  0  0  0
  -24.5330  -31.7510   23.1250 C   0  0  0  0  0  0  0  0  0  0  0  0
  -27.2370  -27.3740   20.0060 C   0  0  0  0  0  0  0  0  0  0  0  0
  -23.3570  -30.3620   21.4550 C   0  0  0  0  0  3  0  0  0  0  0  0
  -24.8360  -28.8590   20.0230 C   0  0  0  0  0  0  0  0  0  0  0  0
  -25.8830  -30.7400   21.2900 C   0  0  0  0  0  2  0  0  0  0  0  0
  -25.9840  -29.3800   20.6290 C   0  0  0  0  0  0  0  0  0  0  0  0
  -27.1910  -28.6480   20.6140 C   0  0  0  0  0  3  0  0  0  0  0  0
  -26.0740  -26.8630   19.3940 C   0  0  0  0  0  3  0  0  0  0  0  0
  -24.8750  -27.5990   19.4000 C   0  0  0  0  0  3  0  0  0  0  0  0
  -23.5880  -29.7100   20.0660 C   0  0  0  0  0  2  0  0  0  0  0  0
  -24.6090  -30.9610   22.0180 N   0  0  0  0  0  0  0  0  0  0  0  0
  -23.4390  -32.0320   23.6340 O   0  0  0  0  0  0  0  0  0  0  0  0
  -22.7010  -29.3180   22.3870 C   0  0  0  0  0  0  0  0  0  0  0  0
  -21.3790  -29.1310   22.2440 N   0  0  0  0  0  0  0  0  0  0  0  0
  -23.3810  -28.6790   23.1940 O   0  0  0  0  0  0  0  0  0  0  0  0
  -20.8920  -29.6990   21.5640 H   0  0  0  0  0  0  0  0  0  0  0  0
  -18.0030  -27.9280   22.6960 C   0  0  0  0  0  0  0  0  0  0  0  0
  -20.5580  -28.1750   22.9880 C   0  0  0  0  0  3  0  0  0  0  0  0
  -20.6640  -26.7590   22.3760 C   0  0  0  0  0  2  0  0  0  0  0  0
  -19.5680  -26.4640   21.3480 C   0  0  0  0  0  2  0  0  0  0  0  0
  -18.1820  -26.5960   21.9880 C   0  0  0  0  0  2  0  0  0  0  0  0
  -19.1200  -28.6780   23.1510 C   0  0  0  0  0  0  0  0  0  0  0  0
  -18.9000  -29.9280   23.7700 C   0  0  0  0  0  3  0  0  0  0  0  0
  -17.5950  -30.4300   23.9360 C   0  0  0  0  0  3  0  0  0  0  0  0
  -16.4920  -29.6760   23.4980 C   0  0  0  0  0  3  0  0  0  0  0  0
  -16.6970  -28.4260   22.8850 C   0  0  0  0  0  3  0  0  0  0  0  0
  -25.8080  -32.3700   23.7780 C   0  0  0  0  0  3  0  0  0  0  0  0
  -26.3130  -31.5800   25.0480 C   0  0  1  0  0  0  0  0  0  0  0  0
  -25.2050  -31.3180   26.0930 C   0  0  0  0  0  1  0  0  0  0  0  0
  -26.9110  -30.2140   24.6370 C   0  0  0  0  0  1  0  0  0  0  0  0
  -27.4510  -32.3680   25.7400 C   0  0  0  0  0  1  0  0  0  0  0  0
  -25.4920  -33.7620   24.1240 N   0  0  0  0  0  0  0  0  0  0  0  0
  -25.8300  -34.8230   23.3820 C   0  0  0  0  0  0  0  0  0  0  0  0
  -26.5130  -34.7360   22.3580 O   0  0  0  0  0  0  0  0  0  0  0  0
  -24.8810  -33.9030   24.9150 H   0  0  0  0  0  0  0  0  0  0  0  0
  -24.1000  -36.6140   23.0220 C   0  0  0  0  0  1  0  0  0  0  0  0
  -25.3290  -36.2030   23.8490 C   0  0  0  0  0  3  0  0  0  0  0  0
  -27.4460  -37.0850   24.7270 C   0  0  0  0  0  1  0  0  0  0  0  0
  -26.3580  -37.2610   23.7690 N   0  0  0  0  0  0  0  0  0  0  0  0
  -25.9460  -38.1750   23.9270 H   0  0  0  0  0  0  0  0  0  0  0  0
  2  1  1  0
  3  5  1  0
  3  4  1  0
  4  7  1  0
  4  1  1  0
  5  2  1  0
  5  6  1  1
  7 11  1  0
  9 11  1  0
 10 21  1  0
 10  9  1  0
 10  8  1  0
 11  8  1  0
 12  7  2  0
 13 21  1  0
 14 19  1  0
 15 16  1  0
 15 14  1  0
 17 16  1  0
 17 26  1  0
 17 18  1  0
 19 13  1  0
 19 18  1  0
 20 13  2  0
 21 22  1  0
 23 24  2  0
 24 43  1  0
 25 24  1  0
 25 28  1  0
 26 27  1  0
 26 23  1  0
 27 25  2  0
 28 29  1  0
 29 30  2  0
 31 34  1  0
 31 30  1  0
 32 31  2  0
 33 32  1  0
 33 28  2  0
 34 35  1  0
 35 36  1  0
 36 37  2  0
 38 37  1  0
 38 42  1  0
 39 38  2  0
 40 35  2  0
 40 39  1  0
 41 40  1  0
 43 44  1  0
 44 47  1  0
 44 46  1  0
 45 43  2  0
 48 23  1  0
 48 49  1  0
 50 48  1  0
 51  5  1  0
 52 51  1  0
 53 55  1  0
 53 52  1  0
 54 65  2  0
 55 60  1  0
 56 64  1  0
 56 66  1  0
 57 63  1  0
 57 59  1  0
 58 64  1  0
 59 58  1  0
 60 59  2  0
 61 62  1  0
 61 55  2  0
 62 57  2  0
 63 56  1  0
 64 54  1  0
 66 68  2  0
 67 66  1  0
 69 67  1  0
 70 79  2  0
 70 75  1  0
 71 67  1  0
 71 75  1  0
 72 71  1  0
 73 74  1  0
 73 72  1  0
 74 70  1  0
 75 76  2  0
 76 77  1  0
 78 77  2  0
 79 78  1  0
 80 54  1  0
 80 85  1  0
 80 81  1  0
 81 84  1  1
 81 82  1  0
 83 81  1  0
 85 88  1  0
 86 90  1  0
 86 85  1  0
 87 86  2  0
 90 89  1  0
 92 90  1  0
 92 93  1  0
 92 91  1  0
M  ISO  4  13 100  21 100  52 101  53 101
M  END
>  <TORSDO>  (15) 
F 19

>  <SCORE>  (15) 
-13.547

>  <name>  (15) 
14

>  <ligand_id>  (15) 
14

>  <original_smiles>  (15) 
[H]c1c([H])c([H])c2c(c1[H])C([H])([H])C([H])([H])C([H])([H])C2([H])N([H])C(=O)C1([H])N(C(=O)C([H])(N([H])C(=O)C([H])(N([H])C([H])([H])[H])C([H])([H])[H])C(C([H])([H])[H])(C([H])([H])[H])C([H])([H])[H])C([H])([H])c2c([H])c(OC([H])([H])C([H])([H])[N+]3([H])C([H])([H])C([H])([H])C([H])(C(=O)N4C([H])([H])C([H])(N([H])C(=O)N5C([H])([H])C([H])([H])C([H])([H])C([H])(n6nc(-c7c([H])c([H])c(Oc8c([H])c([H])c(F)c([H])c8F)c([H])c7[H])c(C(=O)N([H])[H])c6N([H])[H])C5([H])[H])C4([H])[H])C3([H])[H])c([H])c([H])c2C1([H])[H]

>  <smiles>  (15) 
[H]c1c([H])c([H])c2c(c1[H])C([H])([H])C([H])([H])C([H])([H])C2([H])N([H])C(=O)C1([H])N(C(=O)C([H])(N([H])C(=O)C([H])(N([H])C([H])([H])[H])C([H])([H])[H])C(C([H])([H])[H])(C([H])([H])[H])C([H])([H])[H])C([H])([H])c2c([H])c(OC([H])([H])C([H])([H])[N+]3([H])C([H])([H])C([H])([H])C([H])(C(=O)N4C([H])([H])C([H])(N([H])C(=O)N5C([H])([H])C([H])([H])C([H])([H])C([H])(n6nc(-c7c([H])c([H])c(Oc8c([H])c([H])c(F)c([H])c8F)c([H])c7[H])c(C(=O)N([H])[H])c6N([H])[H])C5([H])[H])C4([H])[H])C3([H])[H])c([H])c([H])c2C1([H])[H]

> <Step>
196.0

> <Scaffold>
O=C(NC1CCCc2ccccc21)C1Cc2ccc(OCCN3CCC(C(=O)N4CC(NC(=O)N5CCCC(n6ccc(-c7ccc(Oc8ccccc8)cc7)n6)C5)C4)C3)cc2CN1

> <SMILES>
CNC(C)C(=O)NC(C(=O)N1Cc2cc(OCCN3CCC(C(=O)N4CC(NC(=O)N5CCCC(n6nc(-c7ccc(Oc8ccc(F)cc8F)cc7)c(C(N)=O)c6N)C5)C4)C3)ccc2CC1C(=O)NC1CCCc2ccccc21)C(C)(C)C

> <Tanimoto ROCS sim>
0.25556427240371704

> <Custom alerts>
1.0

> <Linker Num Aromatic Rings>
1.0

> <Linker Effective Length>
1.0

> <ADV>
0.9892769455909729

> <PostDock Tanimoto ROCS sim>
0.9995466470718384

> <raw_Linker Num Aromatic Rings>
0.0

> <raw_Linker Effective Length>
9.0

> <raw_ADV>
-12.859999656677246

> <total_score>
0.9972058534622192

> <ID>
default_job_14

> <PostDock Tanimoto ROCS sim (re-score)>
0.9690238

> <raw_ADV (re-score)>
-13.547

> <Final Intermolecular Energy>
-28.198

> <Final Total Internal Energy>
-2.958

> <Torsional Free Energy>
14.651

> <Unbound System's Energy>
-2.958

$$$$
default_job_15
     RDKit          3D

100110  0  0  1  0  0  0  0  0999 V2000
  -31.8040  -23.9610   19.8670 C   0  0  0  0  0  3  0  0  0  0  0  0
  -29.1150  -23.1690   19.7830 C   0  0  0  0  0  3  0  0  0  0  0  0
  -31.4550  -22.7260   19.2880 C   0  0  0  0  0  0  0  0  0  0  0  0
  -30.1090  -22.2920   19.2770 C   0  0  0  0  0  0  0  0  0  0  0  0
  -30.8130  -24.8260   20.3710 C   0  0  0  0  0  0  0  0  0  0  0  0
  -29.4470  -24.4540   20.2890 C   0  0  0  0  0  0  0  0  0  0  0  0
  -32.5000  -21.9240   18.5420 C   0  0  0  0  0  2  0  0  0  0  0  0
  -31.9100  -21.4880   17.1960 C   0  0  0  0  0  2  0  0  0  0  0  0
  -29.7290  -20.9600   18.5890 C   0  0  0  0  0  3  0  0  0  0  0  0
  -30.6700  -20.5900   17.3760 C   0  0  0  0  0  3  0  0  0  0  0  0
  -31.2440  -26.1590   20.9600 C   0  0  0  0  0  1  0  0  0  0  0  0
  -28.5680  -17.4270   19.7070 C   0  0  0  0  0  2  0  0  0  0  0  0
  -30.5420  -18.0000   21.0540 C   0  0  0  0  0  2  0  0  0  0  0  0
  -28.7290  -18.7070   18.8610 C   0  0  0  0  0  2  0  0  0  0  0  0
  -30.7410  -19.3150   20.2450 C   0  0  0  0  0  2  0  0  0  0  0  0
  -29.9370  -16.9020   20.1610 C   0  0  0  0  0  3  0  0  0  0  0  0
  -29.5120  -19.7990   19.5260 N   0  0  1  0  0  4  0  0  0  0  0  0
  -28.9050  -20.1610   20.2460 H   0  0  0  0  0  0  0  0  0  0  0  0
  -30.6120  -14.5150   20.4730 C   0  0  0  0  0  0  0  0  0  0  0  0
  -30.3460  -12.3370   19.3670 C   0  0  0  0  0  2  0  0  0  0  0  0
  -29.4180  -12.5530   18.1510 C   0  0  0  0  0  2  0  0  0  0  0  0
  -27.9400  -12.4110   18.5630 C   0  0  0  0  0  2  0  0  0  0  0  0
  -27.5880  -13.2440   19.8250 C   0  0  0  0  0  3  0  0  0  0  0  0
  -28.6340  -13.0280   20.9470 C   0  0  0  0  0  2  0  0  0  0  0  0
  -29.9650  -13.3210   20.3930 N   0  0  0  0  0  0  0  0  0  0  0  0
  -31.7570  -14.6900   20.0460 O   0  0  0  0  0  0  0  0  0  0  0  0
  -29.8240  -15.5650   20.7810 N   0  0  0  0  0  0  0  0  0  0  0  0
  -28.9270  -15.3240   21.1750 H   0  0  0  0  0  0  0  0  0  0  0  0
  -25.1780  -13.8460   20.5030 C   0  0  0  0  0  0  0  0  0  0  0  0
  -24.1100  -13.0710   20.8670 C   0  0  0  0  0  0  0  0  0  0  0  0
  -24.5780  -11.7220   20.8510 C   0  0  0  0  0  0  0  0  0  0  0  0
  -26.2300  -12.9680   20.2910 N   0  0  0  0  0  0  0  0  0  0  0  0
  -25.8720  -11.6860   20.5570 N   0  0  0  0  0  0  0  0  0  0  0  0
  -23.8570  -10.4570   21.0430 C   0  0  0  0  0  0  0  0  0  0  0  0
  -24.2920   -9.4940   21.9790 C   0  0  0  0  0  3  0  0  0  0  0  0
  -23.5710   -8.2930   22.1580 C   0  0  0  0  0  3  0  0  0  0  0  0
  -22.4010   -8.0490   21.4020 C   0  0  0  0  0  0  0  0  0  0  0  0
  -21.9850   -9.0010   20.4550 C   0  0  0  0  0  3  0  0  0  0  0  0
  -22.7060  -10.1930   20.2740 C   0  0  0  0  0  3  0  0  0  0  0  0
  -21.6510   -6.9010   21.4900 O   0  0  0  0  0  0  0  0  0  0  0  0
  -21.6130   -6.1520   22.6400 C   0  0  0  0  0  0  0  0  0  0  0  0
  -21.1960   -6.7010   23.8720 C   0  0  0  0  0  3  0  0  0  0  0  0
  -21.1060   -5.8790   25.0130 C   0  0  0  0  0  3  0  0  0  0  0  0
  -21.4220   -4.5100   24.9230 C   0  0  0  0  0  0  0  0  0  0  0  0
  -21.8330   -3.9610   23.6960 C   0  0  0  0  0  3  0  0  0  0  0  0
  -21.9250   -4.7800   22.5570 C   0  0  0  0  0  0  0  0  0  0  0  0
  -22.3000   -4.2420   21.3720 F   0  0  0  0  0  0  0  0  0  0  0  0
  -21.3280   -3.7200   26.0180 F   0  0  0  0  0  0  0  0  0  0  0  0
  -22.7070  -13.5440   21.1210 C   0  0  0  0  0  0  0  0  0  0  0  0
  -21.9720  -12.8490   21.9830 N   0  0  0  0  0  0  0  0  0  0  0  0
  -22.2700  -14.5640   20.5890 O   0  0  0  0  0  0  0  0  0  0  0  0
  -22.3370  -12.0250   22.4350 H   0  0  0  0  0  0  0  0  0  0  0  0
  -21.0310  -13.1480   22.1940 H   0  0  0  0  0  0  0  0  0  0  0  0
  -25.3370  -15.2160   20.3140 N   0  0  0  0  0  0  0  0  0  0  0  0
  -24.5600  -15.8610   20.4020 H   0  0  0  0  0  0  0  0  0  0  0  0
  -26.1830  -15.6550   19.9790 H   0  0  0  0  0  0  0  0  0  0  0  0
  -29.9520  -20.5880   16.1480 O   0  0  0  0  0  0  0  0  0  0  0  0
  -29.6670  -21.4790   15.9640 H   0  0  0  0  0  0  0  0  0  0  0  0
  -28.3300  -25.4010   20.7480 C   0  0  0  0  0  2  0  0  0  0  0  0
  -28.4110  -26.7240   20.1820 O   0  0  0  0  0  0  0  0  0  0  0  0
  -24.5990  -31.9180   23.2630 C   0  0  0  0  0  0  0  0  0  0  0  0
  -27.2430  -27.4570   20.2030 C   0  0  0  0  0  0  0  0  0  0  0  0
  -23.3930  -30.5000   21.6370 C   0  0  0  0  0  3  0  0  0  0  0  0
  -24.8460  -28.9620   20.2140 C   0  0  0  0  0  0  0  0  0  0  0  0
  -25.9190  -30.8610   21.4330 C   0  0  0  0  0  2  0  0  0  0  0  0
  -26.0060  -29.4890   20.7970 C   0  0  0  0  0  0  0  0  0  0  0  0
  -27.2100  -28.7460   20.7850 C   0  0  0  0  0  3  0  0  0  0  0  0
  -26.0690  -26.9510   19.6050 C   0  0  0  0  0  3  0  0  0  0  0  0
  -24.8730  -27.6920   19.6150 C   0  0  0  0  0  3  0  0  0  0  0  0
  -23.6010  -29.8170   20.2590 C   0  0  0  0  0  2  0  0  0  0  0  0
  -24.6560  -31.1040   22.1710 N   0  0  0  0  0  0  0  0  0  0  0  0
  -23.5130  -32.2120   23.7830 O   0  0  0  0  0  0  0  0  0  0  0  0
  -22.7460  -29.4800   22.6020 C   0  0  0  0  0  0  0  0  0  0  0  0
  -21.4240  -29.2860   22.4720 N   0  0  0  0  0  0  0  0  0  0  0  0
  -23.4320  -28.8650   23.4240 O   0  0  0  0  0  0  0  0  0  0  0  0
  -20.9320  -29.8340   21.7790 H   0  0  0  0  0  0  0  0  0  0  0  0
  -18.0570  -28.0670   22.9580 C   0  0  0  0  0  0  0  0  0  0  0  0
  -20.6120  -28.3470   23.2440 C   0  0  0  0  0  3  0  0  0  0  0  0
  -20.7280  -26.9120   22.6770 C   0  0  0  0  0  2  0  0  0  0  0  0
  -19.6350  -26.5750   21.6590 C   0  0  0  0  0  2  0  0  0  0  0  0
  -18.2480  -26.7140   22.2940 C   0  0  0  0  0  2  0  0  0  0  0  0
  -19.1670  -28.8400   23.3910 C   0  0  0  0  0  0  0  0  0  0  0  0
  -18.9360  -30.1060   23.9710 C   0  0  0  0  0  3  0  0  0  0  0  0
  -17.6270  -30.6000   24.1240 C   0  0  0  0  0  3  0  0  0  0  0  0
  -16.5310  -29.8240   23.7100 C   0  0  0  0  0  3  0  0  0  0  0  0
  -16.7470  -28.5590   23.1330 C   0  0  0  0  0  3  0  0  0  0  0  0
  -25.8860  -32.5440   23.8870 C   0  0  0  0  0  3  0  0  0  0  0  0
  -26.4050  -31.7750   25.1630 C   0  0  1  0  0  0  0  0  0  0  0  0
  -25.3130  -31.5390   26.2320 C   0  0  0  0  0  1  0  0  0  0  0  0
  -26.9880  -30.3970   24.7710 C   0  0  0  0  0  1  0  0  0  0  0  0
  -27.5570  -32.5700   25.8230 C   0  0  0  0  0  1  0  0  0  0  0  0
  -25.5800  -33.9430   24.2140 N   0  0  0  0  0  0  0  0  0  0  0  0
  -25.9080  -34.9910   23.4460 C   0  0  0  0  0  0  0  0  0  0  0  0
  -26.5750  -34.8820   22.4130 O   0  0  0  0  0  0  0  0  0  0  0  0
  -24.9870  -34.1020   25.0150 H   0  0  0  0  0  0  0  0  0  0  0  0
  -24.1760  -36.7760   23.0860 C   0  0  0  0  0  1  0  0  0  0  0  0
  -25.4200  -36.3810   23.8970 C   0  0  0  0  0  3  0  0  0  0  0  0
  -27.5560  -37.2710   24.7160 C   0  0  0  0  0  1  0  0  0  0  0  0
  -26.4510  -37.4340   23.7750 N   0  0  0  0  0  0  0  0  0  0  0  0
  -26.0440  -38.3540   23.9200 H   0  0  0  0  0  0  0  0  0  0  0  0
  1  5  1  0
  2  6  1  0
  3  1  2  0
  4  3  1  0
  4  2  2  0
  5 11  1  0
  6  5  2  0
  6 59  1  0
  7  3  1  0
  8 10  1  0
  8  7  1  0
  9  4  1  0
  9 17  1  0
 10 57  1  0
 10  9  1  0
 12 16  1  0
 14 17  1  0
 14 12  1  0
 15 13  1  0
 16 27  1  0
 16 13  1  0
 17 15  1  0
 17 18  1  1
 19 27  1  0
 20 25  1  0
 21 22  1  0
 21 20  1  0
 23 22  1  0
 23 32  1  0
 23 24  1  0
 25 19  1  0
 25 24  1  0
 26 19  2  0
 27 28  1  0
 29 30  2  0
 30 49  1  0
 31 30  1  0
 31 34  1  0
 32 29  1  0
 32 33  1  0
 33 31  2  0
 34 35  1  0
 35 36  2  0
 37 40  1  0
 37 36  1  0
 38 37  2  0
 39 38  1  0
 39 34  2  0
 40 41  1  0
 41 42  1  0
 42 43  2  0
 44 43  1  0
 44 48  1  0
 45 44  2  0
 46 41  2  0
 46 45  1  0
 47 46  1  0
 49 50  1  0
 50 53  1  0
 50 52  1  0
 51 49  2  0
 54 55  1  0
 54 29  1  0
 56 54  1  0
 58 57  1  0
 60 62  1  0
 60 59  1  0
 61 72  2  0
 62 67  1  0
 63 71  1  0
 63 73  1  0
 64 70  1  0
 64 66  1  0
 65 71  1  0
 66 65  1  0
 67 66  2  0
 68 69  1  0
 68 62  2  0
 69 64  2  0
 70 63  1  0
 71 61  1  0
 73 75  2  0
 74 73  1  0
 76 74  1  0
 77 86  2  0
 77 82  1  0
 78 74  1  0
 78 82  1  0
 79 78  1  0
 80 81  1  0
 80 79  1  0
 81 77  1  0
 82 83  2  0
 83 84  1  0
 85 84  2  0
 86 85  1  0
 87 61  1  0
 87 92  1  0
 87 88  1  0
 88 91  1  1
 88 89  1  0
 90 88  1  0
 92 95  1  0
 93 97  1  0
 93 92  1  0
 94 93  2  0
 97 96  1  0
 99 97  1  0
 99100  1  0
 99 98  1  0
M  ISO  4  19 100  27 100  59 101  60 101
M  END
>  <TORSDO>  (16) 
F 19

>  <SCORE>  (16) 
-14.801

>  <name>  (16) 
15

>  <ligand_id>  (16) 
15

>  <original_smiles>  (16) 
[H]OC1([H])C([H])([H])C([H])([H])c2c([H])c(C([H])([H])[H])c(C([H])([H])Oc3c([H])c([H])c4c(c3[H])C([H])([H])N(C(=O)C([H])(N([H])C(=O)C([H])(N([H])C([H])([H])[H])C([H])([H])[H])C(C([H])([H])[H])(C([H])([H])[H])C([H])([H])[H])C([H])(C(=O)N([H])C3([H])c5c([H])c([H])c([H])c([H])c5C([H])([H])C([H])([H])C3([H])[H])C4([H])[H])c([H])c2C1([H])[N+]1([H])C([H])([H])C([H])([H])C([H])(N([H])C(=O)N2C([H])([H])C([H])([H])C([H])([H])C([H])(n3nc(-c4c([H])c([H])c(Oc5c([H])c([H])c(F)c([H])c5F)c([H])c4[H])c(C(=O)N([H])[H])c3N([H])[H])C2([H])[H])C([H])([H])C1([H])[H]

>  <smiles>  (16) 
[H]OC1([H])C([H])([H])C([H])([H])c2c([H])c(C([H])([H])[H])c(C([H])([H])Oc3c([H])c([H])c4c(c3[H])C([H])([H])N(C(=O)C([H])(N([H])C(=O)C([H])(N([H])C([H])([H])[H])C([H])([H])[H])C(C([H])([H])[H])(C([H])([H])[H])C([H])([H])[H])C([H])(C(=O)N([H])C3([H])c5c([H])c([H])c([H])c([H])c5C([H])([H])C([H])([H])C3([H])[H])C4([H])[H])c([H])c2C1([H])[N+]1([H])C([H])([H])C([H])([H])C([H])(N([H])C(=O)N2C([H])([H])C([H])([H])C([H])([H])C([H])(n3nc(-c4c([H])c([H])c(Oc5c([H])c([H])c(F)c([H])c5F)c([H])c4[H])c(C(=O)N([H])[H])c3N([H])[H])C2([H])[H])C([H])([H])C1([H])[H]

> <Step>
158.0

> <Scaffold>
O=C(NC1CCCc2ccccc21)C1Cc2ccc(OCc3ccc4c(c3)C(N3CCC(NC(=O)N5CCCC(n6ccc(-c7ccc(Oc8ccccc8)cc7)n6)C5)CC3)CCC4)cc2CN1

> <SMILES>
CNC(C)C(=O)NC(C(=O)N1Cc2cc(OCc3cc4c(cc3C)CCC(O)C4N3CCC(NC(=O)N4CCCC(n5nc(-c6ccc(Oc7ccc(F)cc7F)cc6)c(C(N)=O)c5N)C4)CC3)ccc2CC1C(=O)NC1CCCc2ccccc21)C(C)(C)C

> <Tanimoto ROCS sim>
0.2538430094718933

> <Custom alerts>
1.0

> <Linker Num Aromatic Rings>
1.0

> <Linker Effective Length>
1.0

> <ADV>
0.9964785575866699

> <PostDock Tanimoto ROCS sim>
0.9922990798950195

> <raw_Linker Num Aromatic Rings>
1.0

> <raw_Linker Effective Length>
9.0

> <raw_ADV>
-14.807000160217285

> <total_score>
0.9971944093704224

> <ID>
default_job_15

> <PostDock Tanimoto ROCS sim (re-score)>
0.9836621

> <raw_ADV (re-score)>
-14.801

> <Final Intermolecular Energy>
-30.376

> <Final Total Internal Energy>
-3.067

> <Torsional Free Energy>
15.575

> <Unbound System's Energy>
-3.067

$$$$
default_job_16
     RDKit          3D

 98109  0  0  1  0  0  0  0  0999 V2000
  -34.0330  -19.7960   17.8710 C   0  0  0  0  0  2  0  0  0  0  0  0
  -34.1820  -20.9800   18.8290 C   0  0  0  0  0  2  0  0  0  0  0  0
  -29.7070  -20.0800   19.7700 C   0  0  0  0  0  2  0  0  0  0  0  0
  -31.7240  -18.7770   18.7600 C   0  0  0  0  0  2  0  0  0  0  0  0
  -30.2880  -21.4490   19.3430 C   0  0  0  0  0  3  0  0  0  0  0  0
  -32.5050  -19.8810   18.0070 C   0  0  0  0  0  3  0  0  0  0  0  0
  -32.6750  -21.2480   18.6870 C   0  0  0  0  0  3  0  0  0  0  0  0
  -31.7470  -21.4600   19.8810 C   0  0  0  0  0  3  0  0  0  0  0  0
  -31.8330  -20.2310   20.8200 C   0  0  0  0  0  3  0  0  0  0  0  0
  -30.9600  -19.1980   20.0730 C   0  0  1  0  0  0  0  0  0  0  0  0
  -31.4180  -20.5450   22.2750 C   0  0  0  0  0  1  0  0  0  0  0  0
  -29.1940  -23.5770   18.4810 C   0  0  0  0  0  3  0  0  0  0  0  0
  -29.2580  -23.2500   20.8880 C   0  0  0  0  0  3  0  0  0  0  0  0
  -28.7410  -24.8980   18.6660 C   0  0  0  0  0  3  0  0  0  0  0  0
  -28.7980  -24.5760   21.0720 C   0  0  0  0  0  3  0  0  0  0  0  0
  -29.5130  -22.7540   19.5900 C   0  0  0  0  0  0  0  0  0  0  0  0
  -28.5850  -25.4220   19.9640 C   0  0  0  0  0  0  0  0  0  0  0  0
  -28.4420  -26.7790   20.1450 O   0  0  0  0  0  0  0  0  0  0  0  0
  -24.6140  -31.8930   23.2370 C   0  0  0  0  0  0  0  0  0  0  0  0
  -27.2260  -27.4240   20.1750 C   0  0  0  0  0  0  0  0  0  0  0  0
  -23.3890  -30.4780   21.6170 C   0  0  0  0  0  3  0  0  0  0  0  0
  -24.8250  -28.9160   20.1970 C   0  0  0  0  0  0  0  0  0  0  0  0
  -25.9110  -30.8260   21.4000 C   0  0  0  0  0  2  0  0  0  0  0  0
  -25.9840  -29.4490   20.7740 C   0  0  0  0  0  0  0  0  0  0  0  0
  -27.1820  -28.7060   20.7640 C   0  0  0  0  0  3  0  0  0  0  0  0
  -26.0510  -26.8940   19.5960 C   0  0  0  0  0  3  0  0  0  0  0  0
  -24.8520  -27.6370   19.6090 C   0  0  0  0  0  3  0  0  0  0  0  0
  -23.5850  -29.7800   20.2430 C   0  0  0  0  0  2  0  0  0  0  0  0
  -24.6580  -31.0780   22.1460 N   0  0  0  0  0  0  0  0  0  0  0  0
  -23.5350  -32.1970   23.7620 O   0  0  0  0  0  0  0  0  0  0  0  0
  -22.7410  -29.4690   22.5920 C   0  0  0  0  0  0  0  0  0  0  0  0
  -21.4160  -29.2870   22.4700 N   0  0  0  0  0  0  0  0  0  0  0  0
  -23.4270  -28.8500   23.4100 O   0  0  0  0  0  0  0  0  0  0  0  0
  -20.9260  -29.8400   21.7810 H   0  0  0  0  0  0  0  0  0  0  0  0
  -18.0440  -28.0940   22.9680 C   0  0  0  0  0  0  0  0  0  0  0  0
  -20.6000  -28.3570   23.2460 C   0  0  0  0  0  3  0  0  0  0  0  0
  -20.7050  -26.9200   22.6840 C   0  0  0  0  0  2  0  0  0  0  0  0
  -19.6080  -26.5870   21.6700 C   0  0  0  0  0  2  0  0  0  0  0  0
  -18.2230  -26.7370   22.3080 C   0  0  0  0  0  2  0  0  0  0  0  0
  -19.1610  -28.8610   23.3940 C   0  0  0  0  0  0  0  0  0  0  0  0
  -18.9400  -30.1310   23.9690 C   0  0  0  0  0  3  0  0  0  0  0  0
  -17.6350  -30.6340   24.1240 C   0  0  0  0  0  3  0  0  0  0  0  0
  -16.5320  -29.8630   23.7160 C   0  0  0  0  0  3  0  0  0  0  0  0
  -16.7380  -28.5960   23.1430 C   0  0  0  0  0  3  0  0  0  0  0  0
  -25.9100  -32.5100   23.8530 C   0  0  0  0  0  3  0  0  0  0  0  0
  -26.4430  -31.7270   25.1170 C   0  0  1  0  0  0  0  0  0  0  0  0
  -25.3650  -31.4850   26.1970 C   0  0  0  0  0  1  0  0  0  0  0  0
  -27.0170  -30.3520   24.7040 C   0  0  0  0  0  1  0  0  0  0  0  0
  -27.6060  -32.5120   25.7700 C   0  0  0  0  0  1  0  0  0  0  0  0
  -25.6130  -33.9070   24.1980 N   0  0  0  0  0  0  0  0  0  0  0  0
  -25.9310  -34.9610   23.4350 C   0  0  0  0  0  0  0  0  0  0  0  0
  -26.5810  -34.8620   22.3910 O   0  0  0  0  0  0  0  0  0  0  0  0
  -25.0350  -34.0590   25.0110 H   0  0  0  0  0  0  0  0  0  0  0  0
  -24.1890  -36.7480   23.1260 C   0  0  0  0  0  1  0  0  0  0  0  0
  -25.4510  -36.3470   23.9070 C   0  0  0  0  0  3  0  0  0  0  0  0
  -27.6040  -37.2340   24.6830 C   0  0  0  0  0  1  0  0  0  0  0  0
  -26.4770  -37.4030   23.7690 N   0  0  0  0  0  0  0  0  0  0  0  0
  -26.0730  -38.3210   23.9320 H   0  0  0  0  0  0  0  0  0  0  0  0
  -30.6850  -17.9090   20.9230 C   0  0  0  0  0  3  0  0  0  0  0  0
  -29.8340  -16.8160   20.2300 C   0  0  0  0  0  3  0  0  0  0  0  0
  -30.6330  -14.4660   20.4770 C   0  0  0  0  0  0  0  0  0  0  0  0
  -30.3670  -12.2990   19.3480 C   0  0  0  0  0  2  0  0  0  0  0  0
  -29.4240  -12.5170   18.1450 C   0  0  0  0  0  2  0  0  0  0  0  0
  -27.9480  -12.3840   18.5710 C   0  0  0  0  0  2  0  0  0  0  0  0
  -27.6130  -13.2100   19.8430 C   0  0  0  0  0  3  0  0  0  0  0  0
  -28.6650  -12.9660   20.9500 C   0  0  0  0  0  2  0  0  0  0  0  0
  -29.9950  -13.2690   20.3910 N   0  0  0  0  0  0  0  0  0  0  0  0
  -31.7570  -14.6680   20.0090 O   0  0  0  0  0  0  0  0  0  0  0  0
  -29.8490  -15.4890   20.8700 N   0  0  0  0  0  0  0  0  0  0  0  0
  -28.9830  -15.2100   21.3090 H   0  0  0  0  0  0  0  0  0  0  0  0
  -25.2110  -13.8280   20.5330 C   0  0  0  0  0  0  0  0  0  0  0  0
  -24.1390  -13.0610   20.9020 C   0  0  0  0  0  0  0  0  0  0  0  0
  -24.5960  -11.7080   20.8780 C   0  0  0  0  0  0  0  0  0  0  0  0
  -26.2550  -12.9420   20.3130 N   0  0  0  0  0  0  0  0  0  0  0  0
  -25.8870  -11.6630   20.5760 N   0  0  0  0  0  0  0  0  0  0  0  0
  -23.8660  -10.4490   21.0710 C   0  0  0  0  0  0  0  0  0  0  0  0
  -24.3110   -9.4730   21.9910 C   0  0  0  0  0  3  0  0  0  0  0  0
  -23.5860   -8.2760   22.1720 C   0  0  0  0  0  3  0  0  0  0  0  0
  -22.4000   -8.0470   21.4340 C   0  0  0  0  0  0  0  0  0  0  0  0
  -21.9730   -9.0110   20.5050 C   0  0  0  0  0  3  0  0  0  0  0  0
  -22.7000  -10.2000   20.3210 C   0  0  0  0  0  3  0  0  0  0  0  0
  -21.6430   -6.9040   21.5260 O   0  0  0  0  0  0  0  0  0  0  0  0
  -21.6270   -6.1400   22.6650 C   0  0  0  0  0  0  0  0  0  0  0  0
  -21.2610   -6.6790   23.9180 C   0  0  0  0  0  3  0  0  0  0  0  0
  -21.1920   -5.8430   25.0510 C   0  0  0  0  0  3  0  0  0  0  0  0
  -21.4780   -4.4700   24.9320 C   0  0  0  0  0  0  0  0  0  0  0  0
  -21.8380   -3.9310   23.6830 C   0  0  0  0  0  3  0  0  0  0  0  0
  -21.9080   -4.7640   22.5540 C   0  0  0  0  0  0  0  0  0  0  0  0
  -22.2350   -4.2360   21.3490 F   0  0  0  0  0  0  0  0  0  0  0  0
  -21.4030   -3.6650   26.0170 F   0  0  0  0  0  0  0  0  0  0  0  0
  -22.7420  -13.5420   21.1690 C   0  0  0  0  0  0  0  0  0  0  0  0
  -22.0110  -12.8520   22.0390 N   0  0  0  0  0  0  0  0  0  0  0  0
  -22.3060  -14.5650   20.6430 O   0  0  0  0  0  0  0  0  0  0  0  0
  -22.3750  -12.0250   22.4870 H   0  0  0  0  0  0  0  0  0  0  0  0
  -21.0740  -13.1550   22.2580 H   0  0  0  0  0  0  0  0  0  0  0  0
  -25.3810  -15.1980   20.3500 N   0  0  0  0  0  0  0  0  0  0  0  0
  -24.6150  -15.8540   20.4520 H   0  0  0  0  0  0  0  0  0  0  0  0
  -26.2330  -15.6300   20.0120 H   0  0  0  0  0  0  0  0  0  0  0  0
  1  2  1  0
  3 10  1  0
  4 10  1  0
  5 16  1  0
  5  3  1  0
  5  8  1  0
  6  1  1  0
  6  7  1  0
  6  4  1  0
  7  2  1  0
  7  8  1  0
  8  9  1  0
  9 11  1  0
 10  9  1  0
 10 59  1  1
 12 14  2  0
 12 16  1  0
 13 15  1  0
 14 17  1  0
 16 13  2  0
 17 18  1  0
 17 15  2  0
 18 20  1  0
 19 30  2  0
 19 45  1  0
 20 25  1  0
 21 29  1  0
 21 31  1  0
 22 28  1  0
 22 24  1  0
 23 29  1  0
 24 23  1  0
 25 24  2  0
 26 27  1  0
 26 20  2  0
 27 22  2  0
 28 21  1  0
 29 19  1  0
 31 33  2  0
 32 31  1  0
 32 36  1  0
 34 32  1  0
 35 44  2  0
 35 40  1  0
 36 40  1  0
 37 36  1  0
 38 39  1  0
 38 37  1  0
 39 35  1  0
 40 41  2  0
 41 42  1  0
 43 42  2  0
 44 43  1  0
 45 50  1  0
 45 46  1  0
 46 49  1  1
 46 47  1  0
 48 46  1  0
 50 53  1  0
 51 55  1  0
 51 50  1  0
 52 51  2  0
 54 55  1  0
 57 55  1  0
 57 58  1  0
 57 56  1  0
 60 69  1  0
 60 59  2  0
 61 69  1  0
 62 67  1  0
 63 64  1  0
 63 62  1  0
 64 65  1  0
 65 74  1  0
 65 66  1  0
 67 61  1  0
 67 66  1  0
 68 61  2  0
 69 70  1  0
 71 72  2  0
 72 91  1  0
 73 72  1  0
 73 76  1  0
 74 71  1  0
 74 75  1  0
 75 73  2  0
 76 77  1  0
 77 78  2  0
 79 82  1  0
 79 78  1  0
 80 79  2  0
 81 80  1  0
 81 76  2  0
 82 83  1  0
 83 84  1  0
 84 85  2  0
 86 85  1  0
 86 90  1  0
 87 86  2  0
 88 83  2  0
 88 87  1  0
 89 88  1  0
 91 92  1  0
 92 95  1  0
 92 94  1  0
 93 91  2  0
 96 97  1  0
 96 71  1  0
 98 96  1  0
M  ISO  4  17 101  18 101  61 100  69 100
M  END
>  <TORSDO>  (17) 
F 19

>  <SCORE>  (17) 
-14.555

>  <name>  (17) 
16

>  <ligand_id>  (17) 
16

>  <original_smiles>  (17) 
[H]c1c([H])c([H])c2c(c1[H])C([H])([H])C([H])([H])C([H])([H])C2([H])N([H])C(=O)C1([H])N(C(=O)C([H])(N([H])C(=O)C([H])(N([H])C([H])([H])[H])C([H])([H])[H])C(C([H])([H])[H])(C([H])([H])[H])C([H])([H])[H])C([H])([H])c2c([H])c(Oc3c([H])c([H])c(C4([H])C([H])([H])C5(C([H])([H])C([H])([H])N([H])C(=O)N6C([H])([H])C([H])([H])C([H])([H])C([H])(n7nc(-c8c([H])c([H])c(Oc9c([H])c([H])c(F)c([H])c9F)c([H])c8[H])c(C(=O)N([H])[H])c7N([H])[H])C6([H])[H])C([H])([H])C6([H])C([H])([H])C([H])([H])C6([H])C4([H])C5([H])C([H])([H])[H])c([H])c3[H])c([H])c([H])c2C1([H])[H]

>  <smiles>  (17) 
[H]c1c([H])c([H])c2c(c1[H])C([H])([H])C([H])([H])C([H])([H])C2([H])N([H])C(=O)C1([H])N(C(=O)C([H])(N([H])C(=O)C([H])(N([H])C([H])([H])[H])C([H])([H])[H])C(C([H])([H])[H])(C([H])([H])[H])C([H])([H])[H])C([H])([H])c2c([H])c(Oc3c([H])c([H])c(C4([H])C([H])([H])C5(C([H])([H])C([H])([H])N([H])C(=O)N6C([H])([H])C([H])([H])C([H])([H])C([H])(n7nc(-c8c([H])c([H])c(Oc9c([H])c([H])c(F)c([H])c9F)c([H])c8[H])c(C(=O)N([H])[H])c7N([H])[H])C6([H])[H])C([H])([H])C6([H])C([H])([H])C([H])([H])C6([H])C4([H])C5([H])C([H])([H])[H])c([H])c3[H])c([H])c([H])c2C1([H])[H]

> <Step>
141.0

> <Scaffold>
O=C(NC1CCCc2ccccc21)C1Cc2ccc(Oc3ccc(C4CC5(CCNC(=O)N6CCCC(n7ccc(-c8ccc(Oc9ccccc9)cc8)n7)C6)CC6CCC6C4C5)cc3)cc2CN1

> <SMILES>
CNC(C)C(=O)NC(C(=O)N1Cc2cc(Oc3ccc(C4CC5(CCNC(=O)N6CCCC(n7nc(-c8ccc(Oc9ccc(F)cc9F)cc8)c(C(N)=O)c7N)C6)CC6CCC6C4C5C)cc3)ccc2CC1C(=O)NC1CCCc2ccccc21)C(C)(C)C

> <Tanimoto ROCS sim>
0.2585836946964264

> <Custom alerts>
1.0

> <Linker Num Aromatic Rings>
1.0

> <Linker Effective Length>
1.0

> <ADV>
0.9959403872489929

> <PostDock Tanimoto ROCS sim>
0.992774486541748

> <raw_Linker Num Aromatic Rings>
1.0

> <raw_Linker Effective Length>
9.0

> <raw_ADV>
-14.559000015258789

> <total_score>
0.9971787333488464

> <ID>
default_job_16

> <PostDock Tanimoto ROCS sim (re-score)>
0.9861781

> <raw_ADV (re-score)>
-14.555

> <Final Intermolecular Energy>
-30.296

> <Final Total Internal Energy>
-3.571

> <Torsional Free Energy>
15.741

> <Unbound System's Energy>
-3.571

$$$$
default_job_17
     RDKit          3D

 95104  0  0  1  0  0  0  0  0999 V2000
  -29.2190  -21.9740   20.1300 C   0  0  0  0  0  2  0  0  0  0  0  0
  -30.1170  -25.3970   19.1290 C   0  0  0  0  0  2  0  0  0  0  0  0
  -30.2580  -23.8880   18.8760 C   0  0  0  0  0  2  0  0  0  0  0  0
  -28.2520  -24.3030   20.0990 C   0  0  0  0  0  2  0  0  0  0  0  0
  -28.6280  -25.6080   19.3840 C   0  0  0  0  0  3  0  0  0  0  0  0
  -29.0210  -23.2520   19.3900 N   0  0  2  0  0  4  0  0  0  0  0  0
  -28.4720  -23.0200   18.5740 H   0  0  0  0  0  0  0  0  0  0  0  0
  -28.4400  -26.7900   20.1670 O   0  0  0  0  0  0  0  0  0  0  0  0
  -24.5600  -31.8840   23.2380 C   0  0  0  0  0  0  0  0  0  0  0  0
  -27.2290  -27.4520   20.1560 C   0  0  0  0  0  0  0  0  0  0  0  0
  -23.3620  -30.4810   21.5890 C   0  0  0  0  0  3  0  0  0  0  0  0
  -24.8220  -28.9440   20.1710 C   0  0  0  0  0  0  0  0  0  0  0  0
  -25.8890  -30.8370   21.4110 C   0  0  0  0  0  2  0  0  0  0  0  0
  -25.9750  -29.4680   20.7680 C   0  0  0  0  0  0  0  0  0  0  0  0
  -27.1740  -28.7260   20.7640 C   0  0  0  0  0  3  0  0  0  0  0  0
  -26.0500  -26.9310   19.5680 C   0  0  0  0  0  3  0  0  0  0  0  0
  -24.8540  -27.6730   19.5740 C   0  0  0  0  0  3  0  0  0  0  0  0
  -23.5780  -29.8030   20.2110 C   0  0  0  0  0  2  0  0  0  0  0  0
  -24.6220  -31.0790   22.1400 N   0  0  0  0  0  0  0  0  0  0  0  0
  -23.4710  -32.1780   23.7510 O   0  0  0  0  0  0  0  0  0  0  0  0
  -22.7050  -29.4570   22.5430 C   0  0  0  0  0  0  0  0  0  0  0  0
  -21.3820  -29.2760   22.4060 N   0  0  0  0  0  0  0  0  0  0  0  0
  -23.3840  -28.8280   23.3600 O   0  0  0  0  0  0  0  0  0  0  0  0
  -20.8970  -29.8360   21.7190 H   0  0  0  0  0  0  0  0  0  0  0  0
  -18.0010  -28.0970   22.8840 C   0  0  0  0  0  0  0  0  0  0  0  0
  -20.5590  -28.3360   23.1670 C   0  0  0  0  0  3  0  0  0  0  0  0
  -20.6550  -26.9100   22.5780 C   0  0  0  0  0  2  0  0  0  0  0  0
  -19.5540  -26.6030   21.5580 C   0  0  0  0  0  2  0  0  0  0  0  0
  -18.1710  -26.7510   22.1980 C   0  0  0  0  0  2  0  0  0  0  0  0
  -19.1230  -28.8480   23.3250 C   0  0  0  0  0  0  0  0  0  0  0  0
  -18.9110  -30.1080   23.9250 C   0  0  0  0  0  3  0  0  0  0  0  0
  -17.6090  -30.6170   24.0890 C   0  0  0  0  0  3  0  0  0  0  0  0
  -16.5010  -29.8640   23.6650 C   0  0  0  0  0  3  0  0  0  0  0  0
  -16.6980  -28.6050   23.0690 C   0  0  0  0  0  3  0  0  0  0  0  0
  -25.8450  -32.5000   23.8750 C   0  0  0  0  0  3  0  0  0  0  0  0
  -26.3470  -31.7250   25.1550 C   0  0  1  0  0  0  0  0  0  0  0  0
  -25.2430  -31.4910   26.2120 C   0  0  0  0  0  1  0  0  0  0  0  0
  -26.9280  -30.3450   24.7660 C   0  0  0  0  0  1  0  0  0  0  0  0
  -27.4960  -32.5130   25.8290 C   0  0  0  0  0  1  0  0  0  0  0  0
  -25.5440  -33.9000   24.2030 N   0  0  0  0  0  0  0  0  0  0  0  0
  -25.8860  -34.9470   23.4400 C   0  0  0  0  0  0  0  0  0  0  0  0
  -26.5610  -34.8370   22.4130 O   0  0  0  0  0  0  0  0  0  0  0  0
  -24.9460  -34.0610   24.9990 H   0  0  0  0  0  0  0  0  0  0  0  0
  -24.1670  -36.7440   23.0660 C   0  0  0  0  0  1  0  0  0  0  0  0
  -25.4010  -36.3390   23.8880 C   0  0  0  0  0  3  0  0  0  0  0  0
  -27.5330  -37.2180   24.7310 C   0  0  0  0  0  1  0  0  0  0  0  0
  -26.4390  -37.3870   23.7780 N   0  0  0  0  0  0  0  0  0  0  0  0
  -26.0350  -38.3090   23.9190 H   0  0  0  0  0  0  0  0  0  0  0  0
  -29.6550  -20.8310   19.1820 C   0  0  0  0  0  2  0  0  0  0  0  0
  -31.0800  -17.5840   20.7340 C   0  0  0  0  0  3  0  0  0  0  0  0
  -28.7020  -17.2800   20.3570 C   0  0  0  0  0  3  0  0  0  0  0  0
  -30.9850  -18.9230   20.2870 C   0  0  0  0  0  0  0  0  0  0  0  0
  -28.5940  -18.6040   19.8800 C   0  0  0  0  0  0  0  0  0  0  0  0
  -29.7430  -19.4360   19.8190 C   0  0  0  0  0  0  0  0  0  0  0  0
  -29.9460  -16.7460   20.7380 C   0  0  0  0  0  0  0  0  0  0  0  0
  -32.2470  -19.7710   20.2940 C   0  0  0  0  0  1  0  0  0  0  0  0
  -27.2300  -19.0810   19.4000 C   0  0  0  0  0  1  0  0  0  0  0  0
  -30.6730  -14.4320   20.4410 C   0  0  0  0  0  0  0  0  0  0  0  0
  -30.3520  -12.3150   19.2220 C   0  0  0  0  0  2  0  0  0  0  0  0
  -29.4060  -12.5710   18.0310 C   0  0  0  0  0  2  0  0  0  0  0  0
  -27.9310  -12.4420   18.4600 C   0  0  0  0  0  2  0  0  0  0  0  0
  -27.6100  -13.2470   19.7480 C   0  0  0  0  0  3  0  0  0  0  0  0
  -28.6630  -12.9610   20.8440 C   0  0  0  0  0  2  0  0  0  0  0  0
  -29.9980  -13.2620   20.2890 N   0  0  0  0  0  0  0  0  0  0  0  0
  -31.7760  -14.6450   19.9290 O   0  0  0  0  0  0  0  0  0  0  0  0
  -30.0030  -15.3790   21.1200 N   0  0  0  0  0  0  0  0  0  0  0  0
  -29.1600  -15.0200   21.5400 H   0  0  0  0  0  0  0  0  0  0  0  0
  -25.2070  -13.8660   20.4420 C   0  0  0  0  0  0  0  0  0  0  0  0
  -24.1380  -13.0990   20.8190 C   0  0  0  0  0  0  0  0  0  0  0  0
  -24.5960  -11.7470   20.7940 C   0  0  0  0  0  0  0  0  0  0  0  0
  -26.2530  -12.9810   20.2210 N   0  0  0  0  0  0  0  0  0  0  0  0
  -25.8850  -11.7020   20.4870 N   0  0  0  0  0  0  0  0  0  0  0  0
  -23.8660  -10.4870   20.9890 C   0  0  0  0  0  0  0  0  0  0  0  0
  -24.2930   -9.5240   21.9310 C   0  0  0  0  0  3  0  0  0  0  0  0
  -23.5640   -8.3290   22.1120 C   0  0  0  0  0  3  0  0  0  0  0  0
  -22.3950   -8.0880   21.3520 C   0  0  0  0  0  0  0  0  0  0  0  0
  -21.9870   -9.0390   20.4010 C   0  0  0  0  0  3  0  0  0  0  0  0
  -22.7160  -10.2260   20.2180 C   0  0  0  0  0  3  0  0  0  0  0  0
  -21.6380   -6.9440   21.4440 O   0  0  0  0  0  0  0  0  0  0  0  0
  -21.5810   -6.2100   22.6010 C   0  0  0  0  0  0  0  0  0  0  0  0
  -21.1390   -6.7730   23.8190 C   0  0  0  0  0  3  0  0  0  0  0  0
  -21.0280   -5.9640   24.9670 C   0  0  0  0  0  3  0  0  0  0  0  0
  -21.3500   -4.5950   24.9000 C   0  0  0  0  0  0  0  0  0  0  0  0
  -21.7860   -4.0330   23.6870 C   0  0  0  0  0  3  0  0  0  0  0  0
  -21.8980   -4.8380   22.5410 C   0  0  0  0  0  0  0  0  0  0  0  0
  -22.2980   -4.2870   21.3700 F   0  0  0  0  0  0  0  0  0  0  0  0
  -21.2360   -3.8160   26.0010 F   0  0  0  0  0  0  0  0  0  0  0  0
  -22.7420  -13.5810   21.0890 C   0  0  0  0  0  0  0  0  0  0  0  0
  -22.0110  -12.8920   21.9590 N   0  0  0  0  0  0  0  0  0  0  0  0
  -22.3060  -14.6060   20.5640 O   0  0  0  0  0  0  0  0  0  0  0  0
  -22.3760  -12.0620   22.4050 H   0  0  0  0  0  0  0  0  0  0  0  0
  -21.0760  -13.1970   22.1800 H   0  0  0  0  0  0  0  0  0  0  0  0
  -25.3700  -15.2330   20.2470 N   0  0  0  0  0  0  0  0  0  0  0  0
  -24.5910  -15.8780   20.3180 H   0  0  0  0  0  0  0  0  0  0  0  0
  -26.1860  -15.6440   19.8130 H   0  0  0  0  0  0  0  0  0  0  0  0
  2  5  1  0
  3  2  1  0
  3  6  1  0
  5  4  1  0
  5  8  1  0
  6  4  1  0
  6  1  1  0
  6  7  1  6
  9 20  2  0
 10  8  1  0
 10 15  1  0
 11 19  1  0
 11 21  1  0
 12 18  1  0
 12 14  1  0
 13 19  1  0
 14 13  1  0
 15 14  2  0
 16 17  1  0
 16 10  2  0
 17 12  2  0
 18 11  1  0
 19  9  1  0
 21 23  2  0
 22 21  1  0
 24 22  1  0
 25 34  2  0
 25 30  1  0
 26 22  1  0
 26 30  1  0
 27 26  1  0
 28 29  1  0
 28 27  1  0
 29 25  1  0
 30 31  2  0
 31 32  1  0
 33 32  2  0
 34 33  1  0
 35  9  1  0
 35 40  1  0
 35 36  1  0
 36 39  1  1
 36 37  1  0
 38 36  1  0
 40 43  1  0
 41 45  1  0
 41 40  1  0
 42 41  2  0
 45 44  1  0
 47 45  1  0
 47 48  1  0
 47 46  1  0
 49 54  1  0
 49  1  1  0
 50 55  1  0
 51 55  2  0
 52 56  1  0
 52 50  2  0
 53 51  1  0
 54 53  2  0
 54 52  1  0
 55 66  1  0
 57 53  1  0
 58 66  1  0
 59 64  1  0
 60 61  1  0
 60 59  1  0
 62 61  1  0
 62 71  1  0
 62 63  1  0
 64 58  1  0
 64 63  1  0
 65 58  2  0
 66 67  1  0
 68 69  2  0
 69 88  1  0
 70 69  1  0
 70 73  1  0
 71 68  1  0
 71 72  1  0
 72 70  2  0
 73 74  1  0
 74 75  2  0
 76 79  1  0
 76 75  1  0
 77 76  2  0
 78 77  1  0
 78 73  2  0
 79 80  1  0
 80 81  1  0
 81 82  2  0
 83 82  1  0
 83 87  1  0
 84 83  2  0
 85 80  2  0
 85 84  1  0
 86 85  1  0
 88 89  1  0
 89 92  1  0
 89 91  1  0
 90 88  2  0
 93 94  1  0
 93 68  1  0
 95 93  1  0
M  ISO  4   5 101   8 101  58 100  66 100
M  END
>  <TORSDO>  (18) 
F 19

>  <SCORE>  (18) 
-14.541

>  <name>  (18) 
17

>  <ligand_id>  (18) 
17

>  <original_smiles>  (18) 
[H]c1c([H])c([H])c2c(c1[H])C([H])([H])C([H])([H])C([H])([H])C2([H])N([H])C(=O)C1([H])N(C(=O)C([H])(N([H])C(=O)C([H])(N([H])C([H])([H])[H])C([H])([H])[H])C(C([H])([H])[H])(C([H])([H])[H])C([H])([H])[H])C([H])([H])c2c([H])c(OC3([H])C([H])([H])C([H])([H])[N+]([H])(C([H])([H])C([H])([H])c4c(C([H])([H])[H])c([H])c(N([H])C(=O)N5C([H])([H])C([H])([H])C([H])([H])C([H])(n6nc(-c7c([H])c([H])c(Oc8c([H])c([H])c(F)c([H])c8F)c([H])c7[H])c(C(=O)N([H])[H])c6N([H])[H])C5([H])[H])c([H])c4C([H])([H])[H])C3([H])[H])c([H])c([H])c2C1([H])[H]

>  <smiles>  (18) 
[H]c1c([H])c([H])c2c(c1[H])C([H])([H])C([H])([H])C([H])([H])C2([H])N([H])C(=O)C1([H])N(C(=O)C([H])(N([H])C(=O)C([H])(N([H])C([H])([H])[H])C([H])([H])[H])C(C([H])([H])[H])(C([H])([H])[H])C([H])([H])[H])C([H])([H])c2c([H])c(OC3([H])C([H])([H])C([H])([H])[N+]([H])(C([H])([H])C([H])([H])c4c(C([H])([H])[H])c([H])c(N([H])C(=O)N5C([H])([H])C([H])([H])C([H])([H])C([H])(n6nc(-c7c([H])c([H])c(Oc8c([H])c([H])c(F)c([H])c8F)c([H])c7[H])c(C(=O)N([H])[H])c6N([H])[H])C5([H])[H])c([H])c4C([H])([H])[H])C3([H])[H])c([H])c([H])c2C1([H])[H]

> <Step>
134.0

> <Scaffold>
O=C(NC1CCCc2ccccc21)C1Cc2ccc(OC3CCN(CCc4ccc(NC(=O)N5CCCC(n6ccc(-c7ccc(Oc8ccccc8)cc7)n6)C5)cc4)C3)cc2CN1

> <SMILES>
CNC(C)C(=O)NC(C(=O)N1Cc2cc(OC3CCN(CCc4c(C)cc(NC(=O)N5CCCC(n6nc(-c7ccc(Oc8ccc(F)cc8F)cc7)c(C(N)=O)c6N)C5)cc4C)C3)ccc2CC1C(=O)NC1CCCc2ccccc21)C(C)(C)C

> <Tanimoto ROCS sim>
0.24870793521404266

> <Custom alerts>
1.0

> <Linker Num Aromatic Rings>
1.0

> <Linker Effective Length>
1.0

> <ADV>
0.9959520101547241

> <PostDock Tanimoto ROCS sim>
0.9925053119659424

> <raw_Linker Num Aromatic Rings>
1.0

> <raw_Linker Effective Length>
9.0

> <raw_ADV>
-14.564000129699707

> <total_score>
0.997114360332489

> <ID>
default_job_17

> <PostDock Tanimoto ROCS sim (re-score)>
0.98225135

> <raw_ADV (re-score)>
-14.541

> <Final Intermolecular Energy>
-30.267

> <Final Total Internal Energy>
-2.992

> <Torsional Free Energy>
15.726

> <Unbound System's Energy>
-2.992

$$$$
default_job_18
     RDKit          3D

 96105  0  0  1  0  0  0  0  0999 V2000
  -31.5380  -22.7400   18.9520 C   0  0  0  0  0  2  0  0  0  0  0  0
  -29.2350  -22.9280   19.4810 C   0  0  0  0  0  2  0  0  0  0  0  0
  -31.8320  -24.0990   19.6140 C   0  0  0  0  0  2  0  0  0  0  0  0
  -29.4390  -24.3700   20.0520 C   0  0  0  0  0  3  0  0  0  0  0  0
  -30.4190  -22.0540   19.6210 N   0  0  0  0  0  0  0  0  0  0  0  0
  -30.6610  -24.9820   19.4810 N   0  0  0  0  0  4  0  0  0  0  0  0
  -30.5170  -25.1830   18.5040 H   0  0  0  0  0  0  0  0  0  0  0  0
  -30.8410  -25.8560   19.9500 H   0  0  0  0  0  0  0  0  0  0  0  0
  -30.1760  -20.7810   18.9140 C   0  0  0  0  0  2  0  0  0  0  0  0
  -30.6750  -14.4660   20.5140 C   0  0  0  0  0  0  0  0  0  0  0  0
  -30.3720  -12.3070   19.3630 C   0  0  0  0  0  2  0  0  0  0  0  0
  -29.4470  -12.5220   18.1480 C   0  0  0  0  0  2  0  0  0  0  0  0
  -27.9680  -12.3880   18.5610 C   0  0  0  0  0  2  0  0  0  0  0  0
  -27.6200  -13.2250   19.8210 C   0  0  0  0  0  3  0  0  0  0  0  0
  -28.6610  -12.9970   20.9400 C   0  0  0  0  0  2  0  0  0  0  0  0
  -29.9950  -13.2910   20.3910 N   0  0  0  0  0  0  0  0  0  0  0  0
  -31.8120  -14.6080   20.0530 O   0  0  0  0  0  0  0  0  0  0  0  0
  -28.9140  -18.9160   20.1150 C   0  0  0  0  0  3  0  0  0  0  0  0
  -28.8910  -17.6000   20.6240 C   0  0  0  0  0  3  0  0  0  0  0  0
  -30.1460  -19.4990   19.7530 C   0  0  0  0  0  0  0  0  0  0  0  0
  -31.3140  -18.7540   20.0360 C   0  0  0  0  0  0  0  0  0  0  0  0
  -30.0930  -16.8710   20.7410 C   0  0  0  0  0  0  0  0  0  0  0  0
  -32.7010  -19.2960   19.7560 C   0  0  0  0  0  1  0  0  0  0  0  0
  -31.2790  -17.4880   20.5190 N   0  0  0  0  0  0  0  0  0  0  0  0
  -29.9700  -15.4840   21.0560 N   0  0  0  0  0  0  0  0  0  0  0  0
  -29.0780  -15.2050   21.4280 H   0  0  0  0  0  0  0  0  0  0  0  0
  -25.2140  -13.8450   20.4950 C   0  0  0  0  0  0  0  0  0  0  0  0
  -24.1410  -13.0780   20.8640 C   0  0  0  0  0  0  0  0  0  0  0  0
  -24.6000  -11.7260   20.8500 C   0  0  0  0  0  0  0  0  0  0  0  0
  -26.2600  -12.9590   20.2850 N   0  0  0  0  0  0  0  0  0  0  0  0
  -25.8930  -11.6800   20.5540 N   0  0  0  0  0  0  0  0  0  0  0  0
  -23.8690  -10.4660   21.0450 C   0  0  0  0  0  0  0  0  0  0  0  0
  -24.3040   -9.4980   21.9770 C   0  0  0  0  0  3  0  0  0  0  0  0
  -23.5750   -8.3040   22.1610 C   0  0  0  0  0  3  0  0  0  0  0  0
  -22.3960   -8.0690   21.4130 C   0  0  0  0  0  0  0  0  0  0  0  0
  -21.9800   -9.0250   20.4700 C   0  0  0  0  0  3  0  0  0  0  0  0
  -22.7100  -10.2120   20.2840 C   0  0  0  0  0  3  0  0  0  0  0  0
  -21.6410   -6.9260   21.5040 O   0  0  0  0  0  0  0  0  0  0  0  0
  -21.6110   -6.1720   22.6510 C   0  0  0  0  0  0  0  0  0  0  0  0
  -21.2230   -6.7220   23.8930 C   0  0  0  0  0  3  0  0  0  0  0  0
  -21.1370   -5.8960   25.0320 C   0  0  0  0  0  3  0  0  0  0  0  0
  -21.4300   -4.5230   24.9310 C   0  0  0  0  0  0  0  0  0  0  0  0
  -21.8110   -3.9740   23.6940 C   0  0  0  0  0  3  0  0  0  0  0  0
  -21.8990   -4.7960   22.5570 C   0  0  0  0  0  0  0  0  0  0  0  0
  -22.2450   -4.2580   21.3620 F   0  0  0  0  0  0  0  0  0  0  0  0
  -21.3400   -3.7270   26.0240 F   0  0  0  0  0  0  0  0  0  0  0  0
  -22.7420  -13.5620   21.1170 C   0  0  0  0  0  0  0  0  0  0  0  0
  -22.0040  -12.8760   21.9840 N   0  0  0  0  0  0  0  0  0  0  0  0
  -22.3110  -14.5800   20.5790 O   0  0  0  0  0  0  0  0  0  0  0  0
  -22.3650  -12.0530   22.4410 H   0  0  0  0  0  0  0  0  0  0  0  0
  -21.0630  -13.1820   22.1930 H   0  0  0  0  0  0  0  0  0  0  0  0
  -25.3840  -15.2120   20.3020 N   0  0  0  0  0  0  0  0  0  0  0  0
  -24.6110  -15.8630   20.3820 H   0  0  0  0  0  0  0  0  0  0  0  0
  -26.2160  -15.6330   19.9100 H   0  0  0  0  0  0  0  0  0  0  0  0
  -28.2170  -25.2580   19.7380 C   0  0  0  0  0  2  0  0  0  0  0  0
  -28.3540  -26.6350   20.1490 O   0  0  0  0  0  0  0  0  0  0  0  0
  -24.6180  -31.8840   23.2460 C   0  0  0  0  0  0  0  0  0  0  0  0
  -27.1960  -27.3990   20.1360 C   0  0  0  0  0  0  0  0  0  0  0  0
  -23.3930  -30.4850   21.6240 C   0  0  0  0  0  3  0  0  0  0  0  0
  -24.8190  -28.9490   20.1800 C   0  0  0  0  0  0  0  0  0  0  0  0
  -25.9240  -30.8170   21.4110 C   0  0  0  0  0  2  0  0  0  0  0  0
  -25.9920  -29.4490   20.7620 C   0  0  0  0  0  0  0  0  0  0  0  0
  -27.1810  -28.6800   20.7390 C   0  0  0  0  0  3  0  0  0  0  0  0
  -25.9960  -26.9290   19.5420 C   0  0  0  0  0  3  0  0  0  0  0  0
  -24.8180  -27.6880   19.5700 C   0  0  0  0  0  3  0  0  0  0  0  0
  -23.5850  -29.8180   20.2390 C   0  0  0  0  0  2  0  0  0  0  0  0
  -24.6650  -31.0730   22.1520 N   0  0  0  0  0  0  0  0  0  0  0  0
  -23.5390  -32.1850   23.7710 O   0  0  0  0  0  0  0  0  0  0  0  0
  -22.7450  -29.4610   22.5840 C   0  0  0  0  0  0  0  0  0  0  0  0
  -21.4200  -29.2760   22.4580 N   0  0  0  0  0  0  0  0  0  0  0  0
  -23.4310  -28.8370   23.3980 O   0  0  0  0  0  0  0  0  0  0  0  0
  -20.9290  -29.8320   21.7730 H   0  0  0  0  0  0  0  0  0  0  0  0
  -18.0490  -28.0720   22.9510 C   0  0  0  0  0  0  0  0  0  0  0  0
  -20.6050  -28.3390   23.2320 C   0  0  0  0  0  3  0  0  0  0  0  0
  -20.7150  -26.9050   22.6650 C   0  0  0  0  0  2  0  0  0  0  0  0
  -19.6180  -26.5710   21.6490 C   0  0  0  0  0  2  0  0  0  0  0  0
  -18.2330  -26.7170   22.2880 C   0  0  0  0  0  2  0  0  0  0  0  0
  -19.1640  -28.8390   23.3810 C   0  0  0  0  0  0  0  0  0  0  0  0
  -18.9390  -30.1060   23.9620 C   0  0  0  0  0  3  0  0  0  0  0  0
  -17.6320  -30.6050   24.1190 C   0  0  0  0  0  3  0  0  0  0  0  0
  -16.5320  -29.8330   23.7060 C   0  0  0  0  0  3  0  0  0  0  0  0
  -16.7410  -28.5690   23.1280 C   0  0  0  0  0  3  0  0  0  0  0  0
  -25.9140  -32.4980   23.8630 C   0  0  0  0  0  3  0  0  0  0  0  0
  -25.6150  -33.8950   24.2050 N   0  0  0  0  0  0  0  0  0  0  0  0
  -25.9310  -34.9490   23.4410 C   0  0  0  0  0  0  0  0  0  0  0  0
  -26.5790  -34.8480   22.3960 O   0  0  0  0  0  0  0  0  0  0  0  0
  -25.0380  -34.0470   25.0200 H   0  0  0  0  0  0  0  0  0  0  0  0
  -24.1890  -36.7340   23.1280 C   0  0  0  0  0  1  0  0  0  0  0  0
  -25.4500  -36.3340   23.9110 C   0  0  0  0  0  3  0  0  0  0  0  0
  -27.6040  -37.2180   24.6880 C   0  0  0  0  0  1  0  0  0  0  0  0
  -26.4770  -37.3900   23.7750 N   0  0  0  0  0  0  0  0  0  0  0  0
  -26.0730  -38.3080   23.9410 H   0  0  0  0  0  0  0  0  0  0  0  0
  -26.4400  -31.7150   25.1270 C   0  0  1  0  0  0  0  0  0  0  0  0
  -25.3590  -31.4770   26.2050 C   0  0  0  0  0  1  0  0  0  0  0  0
  -27.0110  -30.3370   24.7190 C   0  0  0  0  0  1  0  0  0  0  0  0
  -27.6040  -32.4980   25.7810 C   0  0  0  0  0  1  0  0  0  0  0  0
  1  3  1  0
  1  5  1  0
  2  5  1  0
  2  4  1  0
  4 55  1  0
  6  3  1  0
  6  8  1  0
  6  4  1  0
  7  6  1  0
  9  5  1  0
  9 20  1  0
 10 25  1  0
 11 16  1  0
 12 13  1  0
 12 11  1  0
 14 13  1  0
 14 30  1  0
 14 15  1  0
 16 10  1  0
 16 15  1  0
 17 10  2  0
 18 19  1  0
 19 22  2  0
 20 21  1  0
 20 18  2  0
 21 24  2  0
 22 25  1  0
 23 21  1  0
 24 22  1  0
 25 26  1  0
 27 28  2  0
 28 47  1  0
 29 28  1  0
 29 32  1  0
 30 27  1  0
 30 31  1  0
 31 29  2  0
 32 33  1  0
 33 34  2  0
 35 38  1  0
 35 34  1  0
 36 35  2  0
 37 36  1  0
 37 32  2  0
 38 39  1  0
 39 40  1  0
 40 41  2  0
 42 41  1  0
 42 46  1  0
 43 42  2  0
 44 39  2  0
 44 43  1  0
 45 44  1  0
 47 48  1  0
 48 51  1  0
 48 50  1  0
 49 47  2  0
 52 53  1  0
 52 27  1  0
 54 52  1  0
 55 56  1  0
 57 68  2  0
 58 56  1  0
 58 63  1  0
 59 67  1  0
 59 69  1  0
 60 66  1  0
 60 62  1  0
 61 67  1  0
 62 61  1  0
 63 62  2  0
 64 65  1  0
 64 58  2  0
 65 60  2  0
 66 59  1  0
 67 57  1  0
 69 71  2  0
 70 69  1  0
 72 70  1  0
 73 82  2  0
 73 78  1  0
 74 70  1  0
 74 78  1  0
 75 74  1  0
 76 77  1  0
 76 75  1  0
 77 73  1  0
 78 79  2  0
 79 80  1  0
 81 80  2  0
 82 81  1  0
 83 57  1  0
 83 84  1  0
 83 93  1  0
 84 87  1  0
 85 89  1  0
 85 84  1  0
 86 85  2  0
 89 88  1  0
 91 89  1  0
 91 92  1  0
 91 90  1  0
 93 96  1  1
 93 94  1  0
 95 93  1  0
M  ISO  4  10 100  25 100  55 101  56 101
M  END
>  <TORSDO>  (19) 
F 18

>  <SCORE>  (19) 
-14.828

>  <name>  (19) 
18

>  <ligand_id>  (19) 
18

>  <original_smiles>  (19) 
[H]c1c(N([H])C(=O)N2C([H])([H])C([H])([H])C([H])([H])C([H])(n3nc(-c4c([H])c([H])c(Oc5c([H])c([H])c(F)c([H])c5F)c([H])c4[H])c(C(=O)N([H])[H])c3N([H])[H])C2([H])[H])nc(C([H])([H])[H])c(C([H])([H])N2C([H])([H])C([H])([H])[N+]([H])([H])C([H])(C([H])([H])Oc3c([H])c([H])c4c(c3[H])C([H])([H])N(C(=O)C([H])(N([H])C(=O)C([H])(N([H])C([H])([H])[H])C([H])([H])[H])C(C([H])([H])[H])(C([H])([H])[H])C([H])([H])[H])C([H])(C(=O)N([H])C3([H])c5c([H])c([H])c([H])c([H])c5C([H])([H])C([H])([H])C3([H])[H])C4([H])[H])C2([H])[H])c1[H]

>  <smiles>  (19) 
[H]c1c(N([H])C(=O)N2C([H])([H])C([H])([H])C([H])([H])C([H])(n3nc(-c4c([H])c([H])c(Oc5c([H])c([H])c(F)c([H])c5F)c([H])c4[H])c(C(=O)N([H])[H])c3N([H])[H])C2([H])[H])nc(C([H])([H])[H])c(C([H])([H])N2C([H])([H])C([H])([H])[N+]([H])([H])C([H])(C([H])([H])Oc3c([H])c([H])c4c(c3[H])C([H])([H])N(C(=O)C([H])(N([H])C(=O)C([H])(N([H])C([H])([H])[H])C([H])([H])[H])C(C([H])([H])[H])(C([H])([H])[H])C([H])([H])[H])C([H])(C(=O)N([H])C3([H])c5c([H])c([H])c([H])c([H])c5C([H])([H])C([H])([H])C3([H])[H])C4([H])[H])C2([H])[H])c1[H]

> <Step>
126.0

> <Scaffold>
O=C(NC1CCCc2ccccc21)C1Cc2ccc(OCC3CN(Cc4ccc(NC(=O)N5CCCC(n6ccc(-c7ccc(Oc8ccccc8)cc7)n6)C5)nc4)CCN3)cc2CN1

> <SMILES>
CNC(C)C(=O)NC(C(=O)N1Cc2cc(OCC3CN(Cc4ccc(NC(=O)N5CCCC(n6nc(-c7ccc(Oc8ccc(F)cc8F)cc7)c(C(N)=O)c6N)C5)nc4C)CCN3)ccc2CC1C(=O)NC1CCCc2ccccc21)C(C)(C)C

> <Tanimoto ROCS sim>
0.2865244746208191

> <Custom alerts>
1.0

> <Linker Num Aromatic Rings>
1.0

> <Linker Effective Length>
1.0

> <ADV>
0.9965663552284241

> <PostDock Tanimoto ROCS sim>
0.9915283918380737

> <raw_Linker Num Aromatic Rings>
1.0

> <raw_Linker Effective Length>
9.0

> <raw_ADV>
-14.85099983215332

> <total_score>
0.9970237016677856

> <ID>
default_job_18

> <PostDock Tanimoto ROCS sim (re-score)>
0.9855673

> <raw_ADV (re-score)>
-14.828

> <Final Intermolecular Energy>
-29.999

> <Final Total Internal Energy>
-2.801

> <Torsional Free Energy>
15.17

> <Unbound System's Energy>
-2.801

$$$$
default_job_19
     RDKit          3D

 93102  0  0  1  0  0  0  0  0999 V2000
  -30.1230  -23.6270   19.0300 C   0  0  0  0  0  2  0  0  0  0  0  0
  -27.8780  -23.0290   20.0440 C   0  0  0  0  0  2  0  0  0  0  0  0
  -29.9660  -25.0600   19.5670 C   0  0  0  0  0  2  0  0  0  0  0  0
  -27.7840  -24.4480   20.6210 C   0  0  0  0  0  2  0  0  0  0  0  0
  -29.3480  -22.5850   19.8690 C   0  0  0  0  0  3  0  0  0  0  0  0
  -28.4840  -25.4470   19.6770 C   0  0  0  0  0  3  0  0  0  0  0  0
  -28.4170  -26.7870   20.1600 O   0  0  0  0  0  0  0  0  0  0  0  0
  -24.5950  -31.8890   23.2560 C   0  0  0  0  0  0  0  0  0  0  0  0
  -27.2130  -27.4620   20.1430 C   0  0  0  0  0  0  0  0  0  0  0  0
  -23.3740  -30.4880   21.6270 C   0  0  0  0  0  3  0  0  0  0  0  0
  -24.8110  -28.9560   20.1850 C   0  0  0  0  0  0  0  0  0  0  0  0
  -25.8970  -30.8440   21.4120 C   0  0  0  0  0  2  0  0  0  0  0  0
  -25.9730  -29.4780   20.7660 C   0  0  0  0  0  0  0  0  0  0  0  0
  -27.1720  -28.7370   20.7460 C   0  0  0  0  0  3  0  0  0  0  0  0
  -26.0300  -26.9520   19.5520 C   0  0  0  0  0  3  0  0  0  0  0  0
  -24.8340  -27.6910   19.5790 C   0  0  0  0  0  3  0  0  0  0  0  0
  -23.5690  -29.8110   20.2440 C   0  0  0  0  0  2  0  0  0  0  0  0
  -24.6420  -31.0840   22.1580 N   0  0  0  0  0  0  0  0  0  0  0  0
  -23.5130  -32.1850   23.7830 O   0  0  0  0  0  0  0  0  0  0  0  0
  -22.7310  -29.4620   22.5880 C   0  0  0  0  0  0  0  0  0  0  0  0
  -21.4060  -29.2740   22.4620 N   0  0  0  0  0  0  0  0  0  0  0  0
  -23.4190  -28.8380   23.4000 O   0  0  0  0  0  0  0  0  0  0  0  0
  -20.9140  -29.8290   21.7760 H   0  0  0  0  0  0  0  0  0  0  0  0
  -18.0370  -28.0740   22.9590 C   0  0  0  0  0  0  0  0  0  0  0  0
  -20.5930  -28.3350   23.2320 C   0  0  0  0  0  3  0  0  0  0  0  0
  -20.6990  -26.9040   22.6550 C   0  0  0  0  0  2  0  0  0  0  0  0
  -19.5970  -26.5810   21.6400 C   0  0  0  0  0  2  0  0  0  0  0  0
  -18.2160  -26.7250   22.2830 C   0  0  0  0  0  2  0  0  0  0  0  0
  -19.1540  -28.8370   23.3900 C   0  0  0  0  0  0  0  0  0  0  0  0
  -18.9320  -30.1020   23.9800 C   0  0  0  0  0  3  0  0  0  0  0  0
  -17.6270  -30.6020   24.1420 C   0  0  0  0  0  3  0  0  0  0  0  0
  -16.5250  -29.8350   23.7270 C   0  0  0  0  0  3  0  0  0  0  0  0
  -16.7300  -28.5730   23.1430 C   0  0  0  0  0  3  0  0  0  0  0  0
  -25.8900  -32.5030   23.8780 C   0  0  0  0  0  3  0  0  0  0  0  0
  -26.4110  -31.7240   25.1460 C   0  0  1  0  0  0  0  0  0  0  0  0
  -25.3220  -31.4860   26.2170 C   0  0  0  0  0  1  0  0  0  0  0  0
  -26.9850  -30.3460   24.7420 C   0  0  0  0  0  1  0  0  0  0  0  0
  -27.5700  -32.5100   25.8040 C   0  0  0  0  0  1  0  0  0  0  0  0
  -25.5920  -33.9020   24.2130 N   0  0  0  0  0  0  0  0  0  0  0  0
  -25.9170  -34.9500   23.4460 C   0  0  0  0  0  0  0  0  0  0  0  0
  -26.5700  -34.8420   22.4050 O   0  0  0  0  0  0  0  0  0  0  0  0
  -25.0100  -34.0600   25.0220 H   0  0  0  0  0  0  0  0  0  0  0  0
  -24.1820  -36.7390   23.1170 C   0  0  0  0  0  1  0  0  0  0  0  0
  -25.4390  -36.3400   23.9060 C   0  0  0  0  0  3  0  0  0  0  0  0
  -27.5900  -37.2250   24.6930 C   0  0  0  0  0  1  0  0  0  0  0  0
  -26.4700  -37.3910   23.7690 N   0  0  0  0  0  0  0  0  0  0  0  0
  -26.0680  -38.3120   23.9210 H   0  0  0  0  0  0  0  0  0  0  0  0
  -29.4420  -21.1760   19.2280 C   0  0  0  0  0  2  0  0  0  0  0  0
  -31.8640  -19.2740   21.5410 C   0  0  0  0  0  3  0  0  0  0  0  0
  -31.2830  -20.3400   20.8270 C   0  0  0  0  0  3  0  0  0  0  0  0
  -31.2830  -17.9970   21.4400 C   0  0  0  0  0  3  0  0  0  0  0  0
  -30.1300  -20.0960   20.0580 C   0  0  0  0  0  0  0  0  0  0  0  0
  -30.1470  -17.8390   20.6280 C   0  0  0  0  0  0  0  0  0  0  0  0
  -29.5830  -18.8680   19.9650 N   0  0  0  0  0  0  0  0  0  0  0  0
  -29.4420  -16.5160   20.4050 C   0  0  0  0  0  2  0  0  0  0  0  0
  -30.6550  -14.4240   20.5550 C   0  0  0  0  0  0  0  0  0  0  0  0
  -30.4000  -12.2890   19.3620 C   0  0  0  0  0  2  0  0  0  0  0  0
  -29.4740  -12.5410   18.1520 C   0  0  0  0  0  2  0  0  0  0  0  0
  -27.9910  -12.4070   18.5520 C   0  0  0  0  0  2  0  0  0  0  0  0
  -27.6440  -13.2130   19.8320 C   0  0  0  0  0  3  0  0  0  0  0  0
  -28.6770  -12.9230   20.9510 C   0  0  0  0  0  2  0  0  0  0  0  0
  -30.0230  -13.2290   20.4260 N   0  0  0  0  0  0  0  0  0  0  0  0
  -31.7310  -14.6970   20.0140 O   0  0  0  0  0  0  0  0  0  0  0  0
  -29.9130  -15.3570   21.1560 N   0  0  0  0  0  0  0  0  0  0  0  0
  -29.2040  -14.9810   21.7660 H   0  0  0  0  0  0  0  0  0  0  0  0
  -25.2260  -13.8350   20.4690 C   0  0  0  0  0  0  0  0  0  0  0  0
  -24.1500  -13.0680   20.8270 C   0  0  0  0  0  0  0  0  0  0  0  0
  -24.6120  -11.7160   20.8240 C   0  0  0  0  0  0  0  0  0  0  0  0
  -26.2770  -12.9510   20.2780 N   0  0  0  0  0  0  0  0  0  0  0  0
  -25.9070  -11.6720   20.5410 N   0  0  0  0  0  0  0  0  0  0  0  0
  -23.8840  -10.4570   21.0190 C   0  0  0  0  0  0  0  0  0  0  0  0
  -24.3030   -9.5020   21.9690 C   0  0  0  0  0  3  0  0  0  0  0  0
  -23.5780   -8.3050   22.1490 C   0  0  0  0  0  3  0  0  0  0  0  0
  -22.4200   -8.0540   21.3770 C   0  0  0  0  0  0  0  0  0  0  0  0
  -22.0190   -8.9970   20.4150 C   0  0  0  0  0  3  0  0  0  0  0  0
  -22.7450  -10.1860   20.2340 C   0  0  0  0  0  3  0  0  0  0  0  0
  -21.6690   -6.9070   21.4650 O   0  0  0  0  0  0  0  0  0  0  0  0
  -21.6050   -6.1750   22.6240 C   0  0  0  0  0  0  0  0  0  0  0  0
  -21.1550   -6.7380   23.8370 C   0  0  0  0  0  3  0  0  0  0  0  0
  -21.0410   -5.9310   24.9870 C   0  0  0  0  0  3  0  0  0  0  0  0
  -21.3660   -4.5630   24.9230 C   0  0  0  0  0  0  0  0  0  0  0  0
  -21.8080   -4.0000   23.7150 C   0  0  0  0  0  3  0  0  0  0  0  0
  -21.9250   -4.8030   22.5670 C   0  0  0  0  0  0  0  0  0  0  0  0
  -22.3330   -4.2510   21.3990 F   0  0  0  0  0  0  0  0  0  0  0  0
  -21.2460   -3.7870   26.0250 F   0  0  0  0  0  0  0  0  0  0  0  0
  -22.7480  -13.5460   21.0700 C   0  0  0  0  0  0  0  0  0  0  0  0
  -22.0080  -12.8570   21.9330 N   0  0  0  0  0  0  0  0  0  0  0  0
  -22.3150  -14.5630   20.5280 O   0  0  0  0  0  0  0  0  0  0  0  0
  -22.3680  -12.0310   22.3880 H   0  0  0  0  0  0  0  0  0  0  0  0
  -21.0670  -13.1610   22.1420 H   0  0  0  0  0  0  0  0  0  0  0  0
  -25.3890  -15.2030   20.2740 N   0  0  0  0  0  0  0  0  0  0  0  0
  -24.6120  -15.8510   20.3480 H   0  0  0  0  0  0  0  0  0  0  0  0
  -26.2300  -15.6410   19.9240 H   0  0  0  0  0  0  0  0  0  0  0  0
  1  3  1  0
  1  5  1  0
  2  4  1  0
  3  6  1  0
  5 48  1  0
  5  2  1  0
  6  7  1  0
  6  4  1  0
  8 19  2  0
  9  7  1  0
  9 14  1  0
 10 18  1  0
 10 20  1  0
 11 17  1  0
 11 13  1  0
 12 18  1  0
 13 12  1  0
 14 13  2  0
 15 16  1  0
 15  9  2  0
 16 11  2  0
 17 10  1  0
 18  8  1  0
 20 22  2  0
 21 20  1  0
 23 21  1  0
 24 33  2  0
 24 29  1  0
 25 21  1  0
 25 29  1  0
 26 25  1  0
 27 28  1  0
 27 26  1  0
 28 24  1  0
 29 30  2  0
 30 31  1  0
 32 31  2  0
 33 32  1  0
 34  8  1  0
 34 39  1  0
 34 35  1  0
 35 38  1  1
 35 36  1  0
 37 35  1  0
 39 42  1  0
 40 44  1  0
 40 39  1  0
 41 40  2  0
 44 43  1  0
 46 44  1  0
 46 47  1  0
 46 45  1  0
 48 52  1  0
 50 49  2  0
 51 49  1  0
 52 50  1  0
 53 51  2  0
 54 52  2  0
 54 53  1  0
 55 53  1  0
 55 64  1  0
 56 64  1  0
 57 62  1  0
 58 59  1  0
 58 57  1  0
 60 59  1  0
 60 69  1  0
 60 61  1  0
 62 56  1  0
 62 61  1  0
 63 56  2  0
 64 65  1  0
 66 67  2  0
 67 86  1  0
 68 67  1  0
 68 71  1  0
 69 66  1  0
 69 70  1  0
 70 68  2  0
 71 72  1  0
 72 73  2  0
 74 77  1  0
 74 73  1  0
 75 74  2  0
 76 75  1  0
 76 71  2  0
 77 78  1  0
 78 79  1  0
 79 80  2  0
 81 80  1  0
 81 85  1  0
 82 81  2  0
 83 78  2  0
 83 82  1  0
 84 83  1  0
 86 87  1  0
 87 90  1  0
 87 89  1  0
 88 86  2  0
 91 92  1  0
 91 66  1  0
 93 91  1  0
M  ISO  4   6 101   7 101  56 100  64 100
M  END
>  <TORSDO>  (20) 
F 19

>  <SCORE>  (20) 
-14.434

>  <name>  (20) 
19

>  <ligand_id>  (20) 
19

>  <original_smiles>  (20) 
[H]c1c(C([H])([H])N([H])C(=O)N2C([H])([H])C([H])([H])C([H])([H])C([H])(n3nc(-c4c([H])c([H])c(Oc5c([H])c([H])c(F)c([H])c5F)c([H])c4[H])c(C(=O)N([H])[H])c3N([H])[H])C2([H])[H])nc(C([H])([H])C2([H])C([H])([H])C([H])([H])C([H])(Oc3c([H])c([H])c4c(c3[H])C([H])([H])N(C(=O)C([H])(N([H])C(=O)C([H])(N([H])C([H])([H])[H])C([H])([H])[H])C(C([H])([H])[H])(C([H])([H])[H])C([H])([H])[H])C([H])(C(=O)N([H])C3([H])c5c([H])c([H])c([H])c([H])c5C([H])([H])C([H])([H])C3([H])[H])C4([H])[H])C([H])([H])C2([H])[H])c([H])c1[H]

>  <smiles>  (20) 
[H]c1c(C([H])([H])N([H])C(=O)N2C([H])([H])C([H])([H])C([H])([H])C([H])(n3nc(-c4c([H])c([H])c(Oc5c([H])c([H])c(F)c([H])c5F)c([H])c4[H])c(C(=O)N([H])[H])c3N([H])[H])C2([H])[H])nc(C([H])([H])C2([H])C([H])([H])C([H])([H])C([H])(Oc3c([H])c([H])c4c(c3[H])C([H])([H])N(C(=O)C([H])(N([H])C(=O)C([H])(N([H])C([H])([H])[H])C([H])([H])[H])C(C([H])([H])[H])(C([H])([H])[H])C([H])([H])[H])C([H])(C(=O)N([H])C3([H])c5c([H])c([H])c([H])c([H])c5C([H])([H])C([H])([H])C3([H])[H])C4([H])[H])C([H])([H])C2([H])[H])c([H])c1[H]

> <Step>
110.0

> <Scaffold>
O=C(NC1CCCc2ccccc21)C1Cc2ccc(OC3CCC(Cc4cccc(CNC(=O)N5CCCC(n6ccc(-c7ccc(Oc8ccccc8)cc7)n6)C5)n4)CC3)cc2CN1

> <SMILES>
CNC(C)C(=O)NC(C(=O)N1Cc2cc(OC3CCC(Cc4cccc(CNC(=O)N5CCCC(n6nc(-c7ccc(Oc8ccc(F)cc8F)cc7)c(C(N)=O)c6N)C5)n4)CC3)ccc2CC1C(=O)NC1CCCc2ccccc21)C(C)(C)C

> <Tanimoto ROCS sim>
0.27964597940444946

> <Custom alerts>
1.0

> <Linker Num Aromatic Rings>
1.0

> <Linker Effective Length>
1.0

> <ADV>
0.9957935214042664

> <PostDock Tanimoto ROCS sim>
0.9922792315483093

> <raw_Linker Num Aromatic Rings>
1.0

> <raw_Linker Effective Length>
9.0

> <raw_ADV>
-14.496999740600586

> <total_score>
0.9970182180404663

> <ID>
default_job_19

> <PostDock Tanimoto ROCS sim (re-score)>
0.98397404

> <raw_ADV (re-score)>
-14.434

> <Final Intermolecular Energy>
-30.044

> <Final Total Internal Energy>
-3.088

> <Torsional Free Energy>
15.61

> <Unbound System's Energy>
-3.088

$$$$
default_job_20
     RDKit          3D

 93102  0  0  1  0  0  0  0  0999 V2000
  -30.8890  -21.2960   20.9790 C   0  0  0  0  0  2  0  0  0  0  0  0
  -28.5400  -21.0280   20.2400 C   0  0  0  0  0  2  0  0  0  0  0  0
  -30.4600  -22.4410   21.9330 C   0  0  0  0  0  2  0  0  0  0  0  0
  -28.1080  -22.1760   21.1870 C   0  0  0  0  0  2  0  0  0  0  0  0
  -29.7680  -20.2460   20.7790 C   0  0  0  0  0  3  0  0  0  0  0  0
  -29.2030  -23.1380   21.5260 N   0  0  2  0  0  4  0  0  0  0  0  0
  -28.8910  -23.5690   22.3870 H   0  0  0  0  0  0  0  0  0  0  0  0
  -30.1440  -19.3460   18.4700 C   0  0  0  0  0  1  0  0  0  0  0  0
  -30.2090  -19.0750   19.9310 N   0  0  2  0  0  4  0  0  0  0  0  0
  -31.1960  -18.9800   20.1190 H   0  0  0  0  0  0  0  0  0  0  0  0
  -30.6640  -14.5430   20.4390 C   0  0  0  0  0  0  0  0  0  0  0  0
  -30.3540  -12.3560   19.3590 C   0  0  0  0  0  2  0  0  0  0  0  0
  -29.4280  -12.5480   18.1420 C   0  0  0  0  0  2  0  0  0  0  0  0
  -27.9500  -12.4190   18.5610 C   0  0  0  0  0  2  0  0  0  0  0  0
  -27.6010  -13.2660   19.8160 C   0  0  0  0  0  3  0  0  0  0  0  0
  -28.6550  -13.0940   20.9340 C   0  0  0  0  0  2  0  0  0  0  0  0
  -29.9750  -13.3720   20.3510 N   0  0  0  0  0  0  0  0  0  0  0  0
  -31.8530  -14.6350   20.1210 O   0  0  0  0  0  0  0  0  0  0  0  0
  -29.8340  -16.5500   19.3760 C   0  0  0  0  0  2  0  0  0  0  0  0
  -30.4410  -16.8700   21.2910 C   0  0  0  0  0  2  0  0  0  0  0  0
  -29.6300  -17.7350   20.3240 C   0  0  0  0  0  3  0  0  0  0  0  0
  -29.9210  -15.6740   20.5710 N   0  0  0  0  0  0  0  0  0  0  0  0
  -25.2000  -13.8650   20.5130 C   0  0  0  0  0  0  0  0  0  0  0  0
  -24.1300  -13.0940   20.8790 C   0  0  0  0  0  0  0  0  0  0  0  0
  -24.5960  -11.7430   20.8620 C   0  0  0  0  0  0  0  0  0  0  0  0
  -26.2490  -12.9870   20.2960 N   0  0  0  0  0  0  0  0  0  0  0  0
  -25.8890  -11.7050   20.5650 N   0  0  0  0  0  0  0  0  0  0  0  0
  -23.8690  -10.4820   21.0560 C   0  0  0  0  0  0  0  0  0  0  0  0
  -24.3080   -9.5120   21.9860 C   0  0  0  0  0  3  0  0  0  0  0  0
  -23.5840   -8.3140   22.1680 C   0  0  0  0  0  3  0  0  0  0  0  0
  -22.4060   -8.0780   21.4190 C   0  0  0  0  0  0  0  0  0  0  0  0
  -21.9870   -9.0350   20.4790 C   0  0  0  0  0  3  0  0  0  0  0  0
  -22.7120  -10.2240   20.2960 C   0  0  0  0  0  3  0  0  0  0  0  0
  -21.6520   -6.9330   21.5110 O   0  0  0  0  0  0  0  0  0  0  0  0
  -21.6220   -6.1790   22.6570 C   0  0  0  0  0  0  0  0  0  0  0  0
  -21.2340   -6.7270   23.9000 C   0  0  0  0  0  3  0  0  0  0  0  0
  -21.1520   -5.9000   25.0380 C   0  0  0  0  0  3  0  0  0  0  0  0
  -21.4490   -4.5270   24.9350 C   0  0  0  0  0  0  0  0  0  0  0  0
  -21.8290   -3.9800   23.6970 C   0  0  0  0  0  3  0  0  0  0  0  0
  -21.9130   -4.8040   22.5610 C   0  0  0  0  0  0  0  0  0  0  0  0
  -22.2600   -4.2670   21.3660 F   0  0  0  0  0  0  0  0  0  0  0  0
  -21.3630   -3.7310   26.0260 F   0  0  0  0  0  0  0  0  0  0  0  0
  -22.7300  -13.5700   21.1360 C   0  0  0  0  0  0  0  0  0  0  0  0
  -21.9960  -12.8780   22.0020 N   0  0  0  0  0  0  0  0  0  0  0  0
  -22.2940  -14.5920   20.6070 O   0  0  0  0  0  0  0  0  0  0  0  0
  -22.3600  -12.0540   22.4550 H   0  0  0  0  0  0  0  0  0  0  0  0
  -21.0540  -13.1770   22.2120 H   0  0  0  0  0  0  0  0  0  0  0  0
  -25.3640  -15.2360   20.3270 N   0  0  0  0  0  0  0  0  0  0  0  0
  -24.6010  -15.8940   20.4370 H   0  0  0  0  0  0  0  0  0  0  0  0
  -26.2290  -15.6760   20.0400 H   0  0  0  0  0  0  0  0  0  0  0  0
  -29.3940  -24.3250   20.6200 C   0  0  0  0  0  2  0  0  0  0  0  0
  -28.1340  -25.2340   20.5060 C   0  0  0  0  0  2  0  0  0  0  0  0
  -28.3720  -26.6370   20.2220 O   0  0  0  0  0  0  0  0  0  0  0  0
  -24.6160  -31.9220   23.2510 C   0  0  0  0  0  0  0  0  0  0  0  0
  -27.2280  -27.4230   20.1890 C   0  0  0  0  0  0  0  0  0  0  0  0
  -23.4020  -30.5120   21.6280 C   0  0  0  0  0  3  0  0  0  0  0  0
  -24.8470  -28.9690   20.2010 C   0  0  0  0  0  0  0  0  0  0  0  0
  -25.9340  -30.8510   21.4250 C   0  0  0  0  0  2  0  0  0  0  0  0
  -26.0120  -29.4780   20.7870 C   0  0  0  0  0  0  0  0  0  0  0  0
  -27.2080  -28.7140   20.7760 C   0  0  0  0  0  3  0  0  0  0  0  0
  -26.0420  -26.9500   19.5800 C   0  0  0  0  0  3  0  0  0  0  0  0
  -24.8580  -27.7050   19.5930 C   0  0  0  0  0  3  0  0  0  0  0  0
  -23.6050  -29.8310   20.2500 C   0  0  0  0  0  2  0  0  0  0  0  0
  -24.6700  -31.1070   22.1610 N   0  0  0  0  0  0  0  0  0  0  0  0
  -23.5320  -32.2240   23.7690 O   0  0  0  0  0  0  0  0  0  0  0  0
  -22.7500  -29.4940   22.5930 C   0  0  0  0  0  0  0  0  0  0  0  0
  -21.4240  -29.3130   22.4680 N   0  0  0  0  0  0  0  0  0  0  0  0
  -23.4330  -28.8710   23.4090 O   0  0  0  0  0  0  0  0  0  0  0  0
  -20.9350  -29.8680   21.7810 H   0  0  0  0  0  0  0  0  0  0  0  0
  -18.0490  -28.1180   22.9680 C   0  0  0  0  0  0  0  0  0  0  0  0
  -20.6050  -28.3780   23.2420 C   0  0  0  0  0  3  0  0  0  0  0  0
  -20.7100  -26.9440   22.6730 C   0  0  0  0  0  2  0  0  0  0  0  0
  -19.6090  -26.6150   21.6610 C   0  0  0  0  0  2  0  0  0  0  0  0
  -18.2260  -26.7650   22.3010 C   0  0  0  0  0  2  0  0  0  0  0  0
  -19.1670  -28.8830   23.3960 C   0  0  0  0  0  0  0  0  0  0  0  0
  -18.9470  -30.1500   23.9790 C   0  0  0  0  0  3  0  0  0  0  0  0
  -17.6420  -30.6520   24.1400 C   0  0  0  0  0  3  0  0  0  0  0  0
  -16.5390  -29.8850   23.7290 C   0  0  0  0  0  3  0  0  0  0  0  0
  -16.7430  -28.6190   23.1490 C   0  0  0  0  0  3  0  0  0  0  0  0
  -25.9060  -32.5430   23.8740 C   0  0  0  0  0  3  0  0  0  0  0  0
  -26.4270  -31.7640   25.1440 C   0  0  1  0  0  0  0  0  0  0  0  0
  -25.3380  -31.5220   26.2140 C   0  0  0  0  0  1  0  0  0  0  0  0
  -27.0070  -30.3880   24.7410 C   0  0  0  0  0  1  0  0  0  0  0  0
  -27.5830  -32.5520   25.8040 C   0  0  0  0  0  1  0  0  0  0  0  0
  -25.6020  -33.9410   24.2130 N   0  0  0  0  0  0  0  0  0  0  0  0
  -25.9240  -34.9930   23.4500 C   0  0  0  0  0  0  0  0  0  0  0  0
  -26.5840  -34.8900   22.4120 O   0  0  0  0  0  0  0  0  0  0  0  0
  -25.0160  -34.0930   25.0200 H   0  0  0  0  0  0  0  0  0  0  0  0
  -24.1880  -36.7800   23.1130 C   0  0  0  0  0  1  0  0  0  0  0  0
  -25.4380  -36.3800   23.9120 C   0  0  0  0  0  3  0  0  0  0  0  0
  -27.5810  -37.2650   24.7160 C   0  0  0  0  0  1  0  0  0  0  0  0
  -26.4680  -37.4340   23.7870 N   0  0  0  0  0  0  0  0  0  0  0  0
  -26.0630  -38.3540   23.9400 H   0  0  0  0  0  0  0  0  0  0  0  0
  1  3  1  0
  2  5  1  0
  2  4  1  0
  4  6  1  0
  5  9  1  0
  5  1  1  0
  6  3  1  0
  6  7  1  1
  8  9  1  0
  9 10  1  1
 11 22  1  0
 12 17  1  0
 13 14  1  0
 13 12  1  0
 15 14  1  0
 15 26  1  0
 15 16  1  0
 17 11  1  0
 17 16  1  0
 18 11  2  0
 19 21  1  0
 19 22  1  0
 21  9  1  0
 21 20  1  0
 22 20  1  0
 23 24  2  0
 24 43  1  0
 25 24  1  0
 25 28  1  0
 26 23  1  0
 26 27  1  0
 27 25  2  0
 28 29  1  0
 29 30  2  0
 31 34  1  0
 31 30  1  0
 32 31  2  0
 33 32  1  0
 33 28  2  0
 34 35  1  0
 35 36  1  0
 36 37  2  0
 38 37  1  0
 38 42  1  0
 39 38  2  0
 40 35  2  0
 40 39  1  0
 41 40  1  0
 43 44  1  0
 44 47  1  0
 44 46  1  0
 45 43  2  0
 48 49  1  0
 48 23  1  0
 50 48  1  0
 51  6  1  0
 52 51  1  0
 53 52  1  0
 54 65  2  0
 55 53  1  0
 55 60  1  0
 56 64  1  0
 56 66  1  0
 57 63  1  0
 57 59  1  0
 58 64  1  0
 59 58  1  0
 60 59  2  0
 61 62  1  0
 61 55  2  0
 62 57  2  0
 63 56  1  0
 64 54  1  0
 66 68  2  0
 67 66  1  0
 69 67  1  0
 70 79  2  0
 70 75  1  0
 71 67  1  0
 71 75  1  0
 72 71  1  0
 73 74  1  0
 73 72  1  0
 74 70  1  0
 75 76  2  0
 76 77  1  0
 78 77  2  0
 79 78  1  0
 80 54  1  0
 80 85  1  0
 80 81  1  0
 81 84  1  1
 81 82  1  0
 83 81  1  0
 85 88  1  0
 86 90  1  0
 86 85  1  0
 87 86  2  0
 90 89  1  0
 92 90  1  0
 92 93  1  0
 92 91  1  0
M  ISO  4  11 100  22 100  52 101  53 101
M  END
>  <TORSDO>  (21) 
F 19

>  <SCORE>  (21) 
-14.648

>  <name>  (21) 
20

>  <ligand_id>  (21) 
20

>  <original_smiles>  (21) 
[H]c1c([H])c([H])c2c(c1[H])C([H])([H])C([H])([H])C([H])([H])C2([H])N([H])C(=O)C1([H])N(C(=O)C([H])(N([H])C(=O)C([H])(N([H])C([H])([H])[H])C([H])([H])[H])C(C([H])([H])[H])(C([H])([H])[H])C([H])([H])[H])C([H])([H])c2c([H])c(OC([H])([H])C([H])([H])[N+]3([H])C([H])([H])C([H])([H])C([H])([N+]([H])(C([H])([H])[H])C4([H])C([H])([H])N(C(=O)N5C([H])([H])C([H])([H])C([H])([H])C([H])(n6nc(-c7c([H])c([H])c(Oc8c([H])c([H])c(F)c([H])c8F)c([H])c7[H])c(C(=O)N([H])[H])c6N([H])[H])C5([H])[H])C4([H])[H])C([H])([H])C3([H])[H])c([H])c([H])c2C1([H])[H]

>  <smiles>  (21) 
[H]c1c([H])c([H])c2c(c1[H])C([H])([H])C([H])([H])C([H])([H])C2([H])N([H])C(=O)C1([H])N(C(=O)C([H])(N([H])C(=O)C([H])(N([H])C([H])([H])[H])C([H])([H])[H])C(C([H])([H])[H])(C([H])([H])[H])C([H])([H])[H])C([H])([H])c2c([H])c(OC([H])([H])C([H])([H])[N+]3([H])C([H])([H])C([H])([H])C([H])([N+]([H])(C([H])([H])[H])C4([H])C([H])([H])N(C(=O)N5C([H])([H])C([H])([H])C([H])([H])C([H])(n6nc(-c7c([H])c([H])c(Oc8c([H])c([H])c(F)c([H])c8F)c([H])c7[H])c(C(=O)N([H])[H])c6N([H])[H])C5([H])[H])C4([H])[H])C([H])([H])C3([H])[H])c([H])c([H])c2C1([H])[H]

> <Step>
188.0

> <Scaffold>
O=C(NC1CCCc2ccccc21)C1Cc2ccc(OCCN3CCC(NC4CN(C(=O)N5CCCC(n6ccc(-c7ccc(Oc8ccccc8)cc7)n6)C5)C4)CC3)cc2CN1

> <SMILES>
CNC(C)C(=O)NC(C(=O)N1Cc2cc(OCCN3CCC(N(C)C4CN(C(=O)N5CCCC(n6nc(-c7ccc(Oc8ccc(F)cc8F)cc7)c(C(N)=O)c6N)C5)C4)CC3)ccc2CC1C(=O)NC1CCCc2ccccc21)C(C)(C)C

> <Tanimoto ROCS sim>
0.26644259691238403

> <Custom alerts>
1.0

> <Linker Num Aromatic Rings>
1.0

> <Linker Effective Length>
1.0

> <ADV>
0.996249258518219

> <PostDock Tanimoto ROCS sim>
0.9917256236076355

> <raw_Linker Num Aromatic Rings>
0.0

> <raw_Linker Effective Length>
9.0

> <raw_ADV>
-14.696999549865723

> <total_score>
0.9969937205314636

> <ID>
default_job_20

> <PostDock Tanimoto ROCS sim (re-score)>
0.9842819

> <raw_ADV (re-score)>
-14.648

> <Final Intermolecular Energy>
-30.491

> <Final Total Internal Energy>
-2.767

> <Torsional Free Energy>
15.842

> <Unbound System's Energy>
-2.767

$$$$
default_job_21
     RDKit          3D

 92101  0  0  1  0  0  0  0  0999 V2000
  -30.7900  -23.1710   20.2460 C   0  0  0  0  0  3  0  0  0  0  0  0
  -31.1390  -20.9340   20.6750 C   0  0  0  0  0  3  0  0  0  0  0  0
  -29.3940  -22.9600   20.1640 C   0  0  0  0  0  0  0  0  0  0  0  0
  -29.7440  -20.6780   20.5990 C   0  0  0  0  0  0  0  0  0  0  0  0
  -31.6630  -22.1720   20.5070 N   0  0  0  0  0  0  0  0  0  0  0  0
  -28.8670  -21.7050   20.3570 N   0  0  0  0  0  0  0  0  0  0  0  0
  -29.2130  -19.3810   20.8000 N   0  0  0  0  0  0  0  0  0  0  0  0
  -28.2000  -19.3480   20.7580 H   0  0  0  0  0  0  0  0  0  0  0  0
  -30.6250  -14.6000   20.4210 C   0  0  0  0  0  0  0  0  0  0  0  0
  -30.3780  -12.3780   19.3870 C   0  0  0  0  0  2  0  0  0  0  0  0
  -29.4630  -12.5340   18.1540 C   0  0  0  0  0  2  0  0  0  0  0  0
  -27.9780  -12.4110   18.5560 C   0  0  0  0  0  2  0  0  0  0  0  0
  -27.6050  -13.2710   19.7960 C   0  0  0  0  0  3  0  0  0  0  0  0
  -28.6460  -13.1240   20.9260 C   0  0  0  0  0  2  0  0  0  0  0  0
  -29.9690  -13.4070   20.3540 N   0  0  0  0  0  0  0  0  0  0  0  0
  -31.8390  -14.6950   20.2230 O   0  0  0  0  0  0  0  0  0  0  0  0
  -29.2500  -17.6880   18.9860 C   0  0  0  0  0  2  0  0  0  0  0  0
  -29.6730  -16.2220   18.8970 C   0  0  0  0  0  2  0  0  0  0  0  0
  -29.8790  -16.9010   21.1540 C   0  0  0  0  0  2  0  0  0  0  0  0
  -29.9010  -18.1830   20.2640 C   0  0  0  0  0  3  0  0  0  0  0  0
  -29.8340  -15.7060   20.2690 N   0  0  0  0  0  0  0  0  0  0  0  0
  -25.1980  -13.8860   20.4480 C   0  0  0  0  0  0  0  0  0  0  0  0
  -24.1220  -13.1190   20.8010 C   0  0  0  0  0  0  0  0  0  0  0  0
  -24.5860  -11.7680   20.8080 C   0  0  0  0  0  0  0  0  0  0  0  0
  -26.2470  -13.0010   20.2580 N   0  0  0  0  0  0  0  0  0  0  0  0
  -25.8830  -11.7240   20.5350 N   0  0  0  0  0  0  0  0  0  0  0  0
  -23.8560  -10.5080   21.0000 C   0  0  0  0  0  0  0  0  0  0  0  0
  -24.2680   -9.5560   21.9590 C   0  0  0  0  0  3  0  0  0  0  0  0
  -23.5410   -8.3610   22.1380 C   0  0  0  0  0  3  0  0  0  0  0  0
  -22.3870   -8.1080   21.3590 C   0  0  0  0  0  0  0  0  0  0  0  0
  -21.9950   -9.0480   20.3900 C   0  0  0  0  0  3  0  0  0  0  0  0
  -22.7230  -10.2360   20.2080 C   0  0  0  0  0  3  0  0  0  0  0  0
  -21.6320   -6.9630   21.4470 O   0  0  0  0  0  0  0  0  0  0  0  0
  -21.5580   -6.2380   22.6090 C   0  0  0  0  0  0  0  0  0  0  0  0
  -21.1000   -6.8090   23.8160 C   0  0  0  0  0  3  0  0  0  0  0  0
  -20.9740   -6.0100   24.9700 C   0  0  0  0  0  3  0  0  0  0  0  0
  -21.2940   -4.6400   24.9170 C   0  0  0  0  0  0  0  0  0  0  0  0
  -21.7460   -4.0680   23.7140 C   0  0  0  0  0  3  0  0  0  0  0  0
  -21.8740   -4.8650   22.5630 C   0  0  0  0  0  0  0  0  0  0  0  0
  -22.2890   -4.3040   21.4010 F   0  0  0  0  0  0  0  0  0  0  0  0
  -21.1660   -3.8700   26.0230 F   0  0  0  0  0  0  0  0  0  0  0  0
  -22.7170  -13.5990   21.0270 C   0  0  0  0  0  0  0  0  0  0  0  0
  -21.9650  -12.9150   21.8820 N   0  0  0  0  0  0  0  0  0  0  0  0
  -22.2940  -14.6170   20.4800 O   0  0  0  0  0  0  0  0  0  0  0  0
  -22.3190  -12.0930   22.3480 H   0  0  0  0  0  0  0  0  0  0  0  0
  -21.0220  -13.2200   22.0750 H   0  0  0  0  0  0  0  0  0  0  0  0
  -25.3670  -15.2540   20.2520 N   0  0  0  0  0  0  0  0  0  0  0  0
  -24.6020  -15.9130   20.3380 H   0  0  0  0  0  0  0  0  0  0  0  0
  -26.2390  -15.6900   19.9750 H   0  0  0  0  0  0  0  0  0  0  0  0
  -28.4880  -24.1460   19.7480 C   0  0  0  0  0  2  0  0  0  0  0  0
  -28.3820  -25.3390   20.7570 C   0  0  0  0  0  2  0  0  0  0  0  0
  -28.3940  -26.6730   20.1790 O   0  0  0  0  0  0  0  0  0  0  0  0
  -24.5910  -31.8980   23.2680 C   0  0  0  0  0  0  0  0  0  0  0  0
  -27.2250  -27.4140   20.2070 C   0  0  0  0  0  0  0  0  0  0  0  0
  -23.3840  -30.4900   21.6340 C   0  0  0  0  0  3  0  0  0  0  0  0
  -24.8350  -28.9420   20.2120 C   0  0  0  0  0  0  0  0  0  0  0  0
  -25.9120  -30.8390   21.4330 C   0  0  0  0  0  2  0  0  0  0  0  0
  -25.9970  -29.4650   20.7950 C   0  0  0  0  0  0  0  0  0  0  0  0
  -27.1960  -28.7110   20.7800 C   0  0  0  0  0  3  0  0  0  0  0  0
  -26.0450  -26.9080   19.6220 C   0  0  0  0  0  3  0  0  0  0  0  0
  -24.8560  -27.6660   19.6210 C   0  0  0  0  0  3  0  0  0  0  0  0
  -23.5930  -29.8070   20.2560 C   0  0  0  0  0  2  0  0  0  0  0  0
  -24.6490  -31.0880   22.1720 N   0  0  0  0  0  0  0  0  0  0  0  0
  -23.5050  -32.1930   23.7860 O   0  0  0  0  0  0  0  0  0  0  0  0
  -22.7300  -29.4720   22.5980 C   0  0  0  0  0  0  0  0  0  0  0  0
  -21.4070  -29.2860   22.4670 N   0  0  0  0  0  0  0  0  0  0  0  0
  -23.4130  -28.8500   23.4170 O   0  0  0  0  0  0  0  0  0  0  0  0
  -20.9170  -29.8410   21.7800 H   0  0  0  0  0  0  0  0  0  0  0  0
  -18.0350  -28.0770   22.9520 C   0  0  0  0  0  0  0  0  0  0  0  0
  -20.5900  -28.3450   23.2350 C   0  0  0  0  0  3  0  0  0  0  0  0
  -20.7020  -26.9140   22.6610 C   0  0  0  0  0  2  0  0  0  0  0  0
  -19.6050  -26.5860   21.6430 C   0  0  0  0  0  2  0  0  0  0  0  0
  -18.2200  -26.7270   22.2790 C   0  0  0  0  0  2  0  0  0  0  0  0
  -19.1480  -28.8430   23.3860 C   0  0  0  0  0  0  0  0  0  0  0  0
  -18.9220  -30.1070   23.9740 C   0  0  0  0  0  3  0  0  0  0  0  0
  -17.6140  -30.6030   24.1320 C   0  0  0  0  0  3  0  0  0  0  0  0
  -16.5150  -29.8340   23.7140 C   0  0  0  0  0  3  0  0  0  0  0  0
  -16.7270  -28.5730   23.1280 C   0  0  0  0  0  3  0  0  0  0  0  0
  -25.8770  -32.5190   23.8980 C   0  0  0  0  0  3  0  0  0  0  0  0
  -25.5780  -33.9220   24.2170 N   0  0  0  0  0  0  0  0  0  0  0  0
  -25.9180  -34.9650   23.4500 C   0  0  0  0  0  0  0  0  0  0  0  0
  -26.5890  -34.8490   22.4210 O   0  0  0  0  0  0  0  0  0  0  0  0
  -24.9800  -34.0870   25.0140 H   0  0  0  0  0  0  0  0  0  0  0  0
  -24.2000  -36.7660   23.0750 C   0  0  0  0  0  1  0  0  0  0  0  0
  -25.4370  -36.3600   23.8940 C   0  0  0  0  0  3  0  0  0  0  0  0
  -27.5740  -37.2400   24.7240 C   0  0  0  0  0  1  0  0  0  0  0  0
  -26.4760  -37.4060   23.7750 N   0  0  0  0  0  0  0  0  0  0  0  0
  -26.0750  -38.3300   23.9110 H   0  0  0  0  0  0  0  0  0  0  0  0
  -26.3840  -31.7530   25.1810 C   0  0  1  0  0  0  0  0  0  0  0  0
  -25.2850  -31.5310   26.2450 C   0  0  0  0  0  1  0  0  0  0  0  0
  -26.9600  -30.3700   24.8000 C   0  0  0  0  0  1  0  0  0  0  0  0
  -27.5370  -32.5450   25.8440 C   0  0  0  0  0  1  0  0  0  0  0  0
  1  5  1  0
  3  1  2  0
  3  6  1  0
  4  2  1  0
  4  7  1  0
  5  2  2  0
  6  4  2  0
  8  7  1  0
 10 15  1  0
 11 12  1  0
 11 10  1  0
 13 12  1  0
 13 25  1  0
 13 14  1  0
 15  9  1  0
 15 14  1  0
 16  9  2  0
 17 20  1  0
 18 17  1  0
 18 21  1  0
 20  7  1  0
 20 19  1  0
 21  9  1  0
 21 19  1  0
 22 23  2  0
 23 24  1  0
 23 42  1  0
 24 27  1  0
 25 22  1  0
 25 26  1  0
 26 24  2  0
 27 28  1  0
 28 29  2  0
 30 33  1  0
 30 29  1  0
 31 30  2  0
 32 31  1  0
 32 27  2  0
 33 34  1  0
 34 35  1  0
 35 36  2  0
 37 36  1  0
 37 41  1  0
 38 37  2  0
 39 34  2  0
 39 38  1  0
 40 39  1  0
 42 43  1  0
 43 46  1  0
 43 45  1  0
 44 42  2  0
 47 48  1  0
 47 22  1  0
 49 47  1  0
 50  3  1  0
 50 51  1  0
 52 54  1  0
 52 51  1  0
 53 64  2  0
 54 59  1  0
 55 63  1  0
 55 65  1  0
 56 62  1  0
 56 58  1  0
 57 63  1  0
 58 57  1  0
 59 58  2  0
 60 54  2  0
 61 60  1  0
 61 56  2  0
 62 55  1  0
 63 53  1  0
 65 67  2  0
 66 65  1  0
 68 66  1  0
 69 78  2  0
 69 74  1  0
 70 66  1  0
 70 74  1  0
 71 70  1  0
 72 73  1  0
 72 71  1  0
 73 69  1  0
 74 75  2  0
 75 76  1  0
 77 76  2  0
 78 77  1  0
 79 53  1  0
 79 80  1  0
 79 89  1  0
 80 83  1  0
 81 85  1  0
 81 80  1  0
 82 81  2  0
 85 84  1  0
 87 85  1  0
 87 88  1  0
 87 86  1  0
 89 92  1  1
 89 90  1  0
 91 89  1  0
M  ISO  4   9 100  21 100  51 101  52 101
M  END
>  <TORSDO>  (22) 
F 18

>  <SCORE>  (22) 
-14.746

>  <name>  (22) 
21

>  <ligand_id>  (22) 
21

>  <original_smiles>  (22) 
[H]c1nc([H])c(C([H])([H])C([H])([H])Oc2c([H])c([H])c3c(c2[H])C([H])([H])N(C(=O)C([H])(N([H])C(=O)C([H])(N([H])C([H])([H])[H])C([H])([H])[H])C(C([H])([H])[H])(C([H])([H])[H])C([H])([H])[H])C([H])(C(=O)N([H])C2([H])c4c([H])c([H])c([H])c([H])c4C([H])([H])C([H])([H])C2([H])[H])C3([H])[H])nc1N([H])C1([H])C([H])([H])N(C(=O)N2C([H])([H])C([H])([H])C([H])([H])C([H])(n3nc(-c4c([H])c([H])c(Oc5c([H])c([H])c(F)c([H])c5F)c([H])c4[H])c(C(=O)N([H])[H])c3N([H])[H])C2([H])[H])C([H])([H])C1([H])[H]

>  <smiles>  (22) 
[H]c1nc([H])c(C([H])([H])C([H])([H])Oc2c([H])c([H])c3c(c2[H])C([H])([H])N(C(=O)C([H])(N([H])C(=O)C([H])(N([H])C([H])([H])[H])C([H])([H])[H])C(C([H])([H])[H])(C([H])([H])[H])C([H])([H])[H])C([H])(C(=O)N([H])C2([H])c4c([H])c([H])c([H])c([H])c4C([H])([H])C([H])([H])C2([H])[H])C3([H])[H])nc1N([H])C1([H])C([H])([H])N(C(=O)N2C([H])([H])C([H])([H])C([H])([H])C([H])(n3nc(-c4c([H])c([H])c(Oc5c([H])c([H])c(F)c([H])c5F)c([H])c4[H])c(C(=O)N([H])[H])c3N([H])[H])C2([H])[H])C([H])([H])C1([H])[H]

> <Step>
192.0

> <Scaffold>
O=C(NC1CCCc2ccccc21)C1Cc2ccc(OCCc3cncc(NC4CCN(C(=O)N5CCCC(n6ccc(-c7ccc(Oc8ccccc8)cc7)n6)C5)C4)n3)cc2CN1

> <SMILES>
CNC(C)C(=O)NC(C(=O)N1Cc2cc(OCCc3cncc(NC4CCN(C(=O)N5CCCC(n6nc(-c7ccc(Oc8ccc(F)cc8F)cc7)c(C(N)=O)c6N)C5)C4)n3)ccc2CC1C(=O)NC1CCCc2ccccc21)C(C)(C)C

> <Tanimoto ROCS sim>
0.2137754112482071

> <Custom alerts>
1.0

> <Linker Num Aromatic Rings>
1.0

> <Linker Effective Length>
1.0

> <ADV>
0.996484637260437

> <PostDock Tanimoto ROCS sim>
0.9911171197891235

> <raw_Linker Num Aromatic Rings>
1.0

> <raw_Linker Effective Length>
8.0

> <raw_ADV>
-14.8100004196167

> <total_score>
0.9969004392623901

> <ID>
default_job_21

> <PostDock Tanimoto ROCS sim (re-score)>
0.9776779

> <raw_ADV (re-score)>
-14.746

> <Final Intermolecular Energy>
-29.832

> <Final Total Internal Energy>
-2.831

> <Torsional Free Energy>
15.086

> <Unbound System's Energy>
-2.831

$$$$
default_job_22
     RDKit          3D

 92101  0  0  1  0  0  0  0  0999 V2000
  -29.7950  -23.7470   21.2780 C   0  0  0  0  0  2  0  0  0  0  0  0
  -30.1480  -22.2320   21.2540 C   0  0  0  0  0  2  0  0  0  0  0  0
  -28.4470  -22.6300   19.6250 C   0  0  0  0  0  2  0  0  0  0  0  0
  -28.5320  -23.9740   20.4140 C   0  0  0  0  0  3  0  0  0  0  0  0
  -29.0010  -21.4920   20.5410 C   0  0  0  0  0  3  0  0  0  0  0  0
  -29.4180  -20.2440   19.7980 N   0  0  0  0  0  4  0  0  0  0  0  0
  -30.3270  -20.3730   19.3830 H   0  0  0  0  0  0  0  0  0  0  0  0
  -28.7690  -20.2090   19.0290 H   0  0  0  0  0  0  0  0  0  0  0  0
  -30.6740  -14.6560   20.3760 C   0  0  0  0  0  0  0  0  0  0  0  0
  -30.3620  -12.4270   19.3200 C   0  0  0  0  0  2  0  0  0  0  0  0
  -29.4120  -12.5150   18.1080 C   0  0  0  0  0  2  0  0  0  0  0  0
  -27.9530  -12.3240   18.5600 C   0  0  0  0  0  2  0  0  0  0  0  0
  -27.5830  -13.2260   19.7630 C   0  0  0  0  0  3  0  0  0  0  0  0
  -28.6580  -13.1850   20.8760 C   0  0  0  0  0  2  0  0  0  0  0  0
  -29.9620  -13.4870   20.2680 N   0  0  0  0  0  0  0  0  0  0  0  0
  -31.8740  -14.6940   20.0990 O   0  0  0  0  0  0  0  0  0  0  0  0
  -30.5930  -18.3510   21.1220 C   0  0  0  0  0  2  0  0  0  0  0  0
  -29.0300  -17.8100   19.3260 C   0  0  0  0  0  2  0  0  0  0  0  0
  -30.5370  -16.8570   21.6190 C   0  0  0  0  0  2  0  0  0  0  0  0
  -28.9120  -16.3430   19.8250 C   0  0  0  0  0  2  0  0  0  0  0  0
  -29.3090  -18.8660   20.4180 C   0  0  0  0  0  3  0  0  0  0  0  0
  -30.0090  -15.8310   20.6730 N   0  0  0  0  0  0  0  0  0  0  0  0
  -25.2080  -13.8480   20.5010 C   0  0  0  0  0  0  0  0  0  0  0  0
  -24.1400  -13.0810   20.8760 C   0  0  0  0  0  0  0  0  0  0  0  0
  -24.6010  -11.7280   20.8560 C   0  0  0  0  0  0  0  0  0  0  0  0
  -26.2470  -12.9590   20.2710 N   0  0  0  0  0  0  0  0  0  0  0  0
  -25.8900  -11.6820   20.5490 N   0  0  0  0  0  0  0  0  0  0  0  0
  -23.8760  -10.4690   21.0500 C   0  0  0  0  0  0  0  0  0  0  0  0
  -24.3210   -9.5000   21.9740 C   0  0  0  0  0  3  0  0  0  0  0  0
  -23.5980   -8.3030   22.1570 C   0  0  0  0  0  3  0  0  0  0  0  0
  -22.4160   -8.0690   21.4140 C   0  0  0  0  0  0  0  0  0  0  0  0
  -21.9920   -9.0280   20.4790 C   0  0  0  0  0  3  0  0  0  0  0  0
  -22.7160  -10.2170   20.2940 C   0  0  0  0  0  3  0  0  0  0  0  0
  -21.6620   -6.9250   21.5100 O   0  0  0  0  0  0  0  0  0  0  0  0
  -21.6400   -6.1710   22.6550 C   0  0  0  0  0  0  0  0  0  0  0  0
  -21.2600   -6.7180   23.9010 C   0  0  0  0  0  3  0  0  0  0  0  0
  -21.1850   -5.8910   25.0390 C   0  0  0  0  0  3  0  0  0  0  0  0
  -21.4790   -4.5180   24.9340 C   0  0  0  0  0  0  0  0  0  0  0  0
  -21.8540   -3.9720   23.6940 C   0  0  0  0  0  3  0  0  0  0  0  0
  -21.9310   -4.7960   22.5570 C   0  0  0  0  0  0  0  0  0  0  0  0
  -22.2720   -4.2600   21.3600 F   0  0  0  0  0  0  0  0  0  0  0  0
  -21.3990   -3.7230   26.0250 F   0  0  0  0  0  0  0  0  0  0  0  0
  -22.7440  -13.5620   21.1410 C   0  0  0  0  0  0  0  0  0  0  0  0
  -22.0160  -12.8730   22.0110 N   0  0  0  0  0  0  0  0  0  0  0  0
  -22.3080  -14.5830   20.6110 O   0  0  0  0  0  0  0  0  0  0  0  0
  -22.3820  -12.0450   22.4600 H   0  0  0  0  0  0  0  0  0  0  0  0
  -21.0780  -13.1750   22.2340 H   0  0  0  0  0  0  0  0  0  0  0  0
  -25.3700  -15.2170   20.3090 N   0  0  0  0  0  0  0  0  0  0  0  0
  -24.5990  -15.8680   20.4070 H   0  0  0  0  0  0  0  0  0  0  0  0
  -26.2130  -15.6500   19.9600 H   0  0  0  0  0  0  0  0  0  0  0  0
  -28.5260  -25.2880   19.5290 C   0  0  0  0  0  2  0  0  0  0  0  0
  -28.3990  -26.5970   20.1810 O   0  0  0  0  0  0  0  0  0  0  0  0
  -24.6150  -31.8860   23.2250 C   0  0  0  0  0  0  0  0  0  0  0  0
  -27.2250  -27.3560   20.1410 C   0  0  0  0  0  0  0  0  0  0  0  0
  -23.4010  -30.4780   21.6000 C   0  0  0  0  0  3  0  0  0  0  0  0
  -24.8410  -28.9300   20.1670 C   0  0  0  0  0  0  0  0  0  0  0  0
  -25.9330  -30.8110   21.3890 C   0  0  0  0  0  2  0  0  0  0  0  0
  -26.0110  -29.4320   20.7500 C   0  0  0  0  0  0  0  0  0  0  0  0
  -27.2000  -28.6540   20.7310 C   0  0  0  0  0  3  0  0  0  0  0  0
  -26.0240  -26.8860   19.5600 C   0  0  0  0  0  3  0  0  0  0  0  0
  -24.8470  -27.6600   19.5680 C   0  0  0  0  0  3  0  0  0  0  0  0
  -23.6040  -29.8010   20.2200 C   0  0  0  0  0  2  0  0  0  0  0  0
  -24.6710  -31.0700   22.1310 N   0  0  0  0  0  0  0  0  0  0  0  0
  -23.5310  -32.1850   23.7400 O   0  0  0  0  0  0  0  0  0  0  0  0
  -22.7510  -29.4590   22.5640 C   0  0  0  0  0  0  0  0  0  0  0  0
  -21.4240  -29.2790   22.4480 N   0  0  0  0  0  0  0  0  0  0  0  0
  -23.4380  -28.8330   23.3760 O   0  0  0  0  0  0  0  0  0  0  0  0
  -20.9280  -29.8410   21.7710 H   0  0  0  0  0  0  0  0  0  0  0  0
  -18.0540  -28.0710   22.9560 C   0  0  0  0  0  0  0  0  0  0  0  0
  -20.6120  -28.3390   23.2230 C   0  0  0  0  0  3  0  0  0  0  0  0
  -20.7180  -26.9080   22.6480 C   0  0  0  0  0  2  0  0  0  0  0  0
  -19.6150  -26.5800   21.6370 C   0  0  0  0  0  2  0  0  0  0  0  0
  -18.2350  -26.7210   22.2840 C   0  0  0  0  0  2  0  0  0  0  0  0
  -19.1700  -28.8370   23.3840 C   0  0  0  0  0  0  0  0  0  0  0  0
  -18.9470  -30.0990   23.9740 C   0  0  0  0  0  3  0  0  0  0  0  0
  -17.6410  -30.5970   24.1420 C   0  0  0  0  0  3  0  0  0  0  0  0
  -16.5390  -29.8280   23.7310 C   0  0  0  0  0  3  0  0  0  0  0  0
  -16.7470  -28.5670   23.1430 C   0  0  0  0  0  3  0  0  0  0  0  0
  -25.9030  -32.5070   23.8510 C   0  0  0  0  0  3  0  0  0  0  0  0
  -25.5980  -33.9040   24.1900 N   0  0  0  0  0  0  0  0  0  0  0  0
  -25.9230  -34.9580   23.4300 C   0  0  0  0  0  0  0  0  0  0  0  0
  -26.5830  -34.8560   22.3930 O   0  0  0  0  0  0  0  0  0  0  0  0
  -25.0090  -34.0550   24.9960 H   0  0  0  0  0  0  0  0  0  0  0  0
  -24.1870  -36.7500   23.0980 C   0  0  0  0  0  1  0  0  0  0  0  0
  -25.4380  -36.3440   23.8950 C   0  0  0  0  0  3  0  0  0  0  0  0
  -27.5810  -37.2340   24.7020 C   0  0  0  0  0  1  0  0  0  0  0  0
  -26.4670  -37.4010   23.7720 N   0  0  0  0  0  0  0  0  0  0  0  0
  -26.0590  -38.3190   23.9280 H   0  0  0  0  0  0  0  0  0  0  0  0
  -26.4260  -31.7300   25.1210 C   0  0  1  0  0  0  0  0  0  0  0  0
  -25.3370  -31.4840   26.1930 C   0  0  0  0  0  1  0  0  0  0  0  0
  -27.0070  -30.3560   24.7150 C   0  0  0  0  0  1  0  0  0  0  0  0
  -27.5830  -32.5170   25.7800 C   0  0  0  0  0  1  0  0  0  0  0  0
  2  1  1  0
  3  4  1  0
  3  5  1  0
  4 51  1  0
  4  1  1  0
  5  6  1  0
  5  2  1  0
  7  6  1  0
  8  6  1  0
  9 22  1  0
 10 15  1  0
 11 12  1  0
 11 10  1  0
 13 12  1  0
 13 26  1  0
 13 14  1  0
 15  9  1  0
 15 14  1  0
 16  9  2  0
 17 19  1  0
 18 20  1  0
 18 21  1  0
 20 22  1  0
 21  6  1  0
 21 17  1  0
 22 19  1  0
 23 24  2  0
 24 43  1  0
 25 24  1  0
 25 28  1  0
 26 23  1  0
 26 27  1  0
 27 25  2  0
 28 29  1  0
 29 30  2  0
 31 34  1  0
 31 30  1  0
 32 31  2  0
 33 32  1  0
 33 28  2  0
 34 35  1  0
 35 36  1  0
 36 37  2  0
 38 37  1  0
 38 42  1  0
 39 38  2  0
 40 35  2  0
 40 39  1  0
 41 40  1  0
 43 44  1  0
 44 47  1  0
 44 46  1  0
 45 43  2  0
 48 49  1  0
 48 23  1  0
 50 48  1  0
 51 52  1  0
 53 64  2  0
 54 52  1  0
 54 59  1  0
 55 63  1  0
 55 65  1  0
 56 62  1  0
 56 58  1  0
 57 63  1  0
 58 57  1  0
 59 58  2  0
 60 61  1  0
 60 54  2  0
 61 56  2  0
 62 55  1  0
 63 53  1  0
 65 67  2  0
 66 65  1  0
 68 66  1  0
 69 78  2  0
 69 74  1  0
 70 66  1  0
 70 74  1  0
 71 70  1  0
 72 73  1  0
 72 71  1  0
 73 69  1  0
 74 75  2  0
 75 76  1  0
 77 76  2  0
 78 77  1  0
 79 53  1  0
 79 80  1  0
 79 89  1  0
 80 83  1  0
 81 85  1  0
 81 80  1  0
 82 81  2  0
 85 84  1  0
 87 85  1  0
 87 88  1  0
 87 86  1  0
 89 92  1  1
 89 90  1  0
 91 89  1  0
M  ISO  4   9 100  22 100  51 101  52 101
M  END
>  <TORSDO>  (23) 
F 18

>  <SCORE>  (23) 
-14.857

>  <name>  (23) 
22

>  <ligand_id>  (23) 
22

>  <original_smiles>  (23) 
[H]c1c([H])c([H])c2c(c1[H])C([H])([H])C([H])([H])C([H])([H])C2([H])N([H])C(=O)C1([H])N(C(=O)C([H])(N([H])C(=O)C([H])(N([H])C([H])([H])[H])C([H])([H])[H])C(C([H])([H])[H])(C([H])([H])[H])C([H])([H])[H])C([H])([H])c2c([H])c(OC([H])([H])C3([H])C([H])([H])C([H])([H])C([H])([N+]([H])([H])C4([H])C([H])([H])C([H])([H])N(C(=O)N5C([H])([H])C([H])([H])C([H])([H])C([H])(n6nc(-c7c([H])c([H])c(Oc8c([H])c([H])c(F)c([H])c8F)c([H])c7[H])c(C(=O)N([H])[H])c6N([H])[H])C5([H])[H])C([H])([H])C4([H])[H])C3([H])[H])c([H])c([H])c2C1([H])[H]

>  <smiles>  (23) 
[H]c1c([H])c([H])c2c(c1[H])C([H])([H])C([H])([H])C([H])([H])C2([H])N([H])C(=O)C1([H])N(C(=O)C([H])(N([H])C(=O)C([H])(N([H])C([H])([H])[H])C([H])([H])[H])C(C([H])([H])[H])(C([H])([H])[H])C([H])([H])[H])C([H])([H])c2c([H])c(OC([H])([H])C3([H])C([H])([H])C([H])([H])C([H])([N+]([H])([H])C4([H])C([H])([H])C([H])([H])N(C(=O)N5C([H])([H])C([H])([H])C([H])([H])C([H])(n6nc(-c7c([H])c([H])c(Oc8c([H])c([H])c(F)c([H])c8F)c([H])c7[H])c(C(=O)N([H])[H])c6N([H])[H])C5([H])[H])C([H])([H])C4([H])[H])C3([H])[H])c([H])c([H])c2C1([H])[H]

> <Step>
157.0

> <Scaffold>
O=C(NC1CCCc2ccccc21)C1Cc2ccc(OCC3CCC(NC4CCN(C(=O)N5CCCC(n6ccc(-c7ccc(Oc8ccccc8)cc7)n6)C5)CC4)C3)cc2CN1

> <SMILES>
CNC(C)C(=O)NC(C(=O)N1Cc2cc(OCC3CCC(NC4CCN(C(=O)N5CCCC(n6nc(-c7ccc(Oc8ccc(F)cc8F)cc7)c(C(N)=O)c6N)C5)CC4)C3)ccc2CC1C(=O)NC1CCCc2ccccc21)C(C)(C)C

> <Tanimoto ROCS sim>
0.34587639570236206

> <Custom alerts>
1.0

> <Linker Num Aromatic Rings>
1.0

> <Linker Effective Length>
1.0

> <ADV>
0.99665766954422

> <PostDock Tanimoto ROCS sim>
0.9909231662750244

> <raw_Linker Num Aromatic Rings>
0.0

> <raw_Linker Effective Length>
8.0

> <raw_ADV>
-14.89799976348877

> <total_score>
0.9968951940536499

> <ID>
default_job_22

> <PostDock Tanimoto ROCS sim (re-score)>
0.98298323

> <raw_ADV (re-score)>
-14.857

> <Final Intermolecular Energy>
-30.057

> <Final Total Internal Energy>
-2.847

> <Torsional Free Energy>
15.2

> <Unbound System's Energy>
-2.847

$$$$
default_job_23
     RDKit          3D

 95105  0  0  1  0  0  0  0  0999 V2000
  -31.7920  -21.9750   19.4050 C   0  0  0  0  0  3  0  0  0  0  0  0
  -32.7480  -21.1240   18.9530 C   0  0  0  0  0  0  0  0  0  0  0  0
  -32.3120  -19.8050   19.2550 C   0  0  0  0  0  0  0  0  0  0  0  0
  -31.0890  -19.8850   19.8990 C   0  0  0  0  0  0  0  0  0  0  0  0
  -34.0370  -21.5140   18.2780 C   0  0  0  0  0  1  0  0  0  0  0  0
  -33.1400  -18.5840   18.9100 C   0  0  0  0  0  1  0  0  0  0  0  0
  -30.7360  -21.2630   19.9470 N   0  0  0  0  0  0  0  0  0  0  0  0
  -30.6560  -14.5800   20.3930 C   0  0  0  0  0  0  0  0  0  0  0  0
  -30.3610  -12.3880   19.2830 C   0  0  0  0  0  2  0  0  0  0  0  0
  -29.4120  -12.5570   18.0800 C   0  0  0  0  0  2  0  0  0  0  0  0
  -27.9420  -12.4000   18.5190 C   0  0  0  0  0  2  0  0  0  0  0  0
  -27.5970  -13.2450   19.7730 C   0  0  0  0  0  3  0  0  0  0  0  0
  -28.6670  -13.0900   20.8770 C   0  0  0  0  0  2  0  0  0  0  0  0
  -29.9760  -13.4000   20.2830 N   0  0  0  0  0  0  0  0  0  0  0  0
  -31.8310  -14.6940   20.0330 O   0  0  0  0  0  0  0  0  0  0  0  0
  -29.7340  -17.7770   19.3370 C   0  0  0  0  0  2  0  0  0  0  0  0
  -31.0410  -17.8480   21.4890 C   0  0  0  0  0  2  0  0  0  0  0  0
  -29.1060  -16.4430   19.8230 C   0  0  0  0  0  2  0  0  0  0  0  0
  -30.3270  -16.5340   21.9120 C   0  0  0  0  0  2  0  0  0  0  0  0
  -30.2620  -18.7150   20.4550 C   0  0  0  0  0  3  0  0  0  0  0  0
  -29.9410  -15.6810   20.7750 N   0  0  0  0  0  0  0  0  0  0  0  0
  -25.2100  -13.8600   20.4920 C   0  0  0  0  0  0  0  0  0  0  0  0
  -24.1420  -13.0900   20.8640 C   0  0  0  0  0  0  0  0  0  0  0  0
  -24.6030  -11.7390   20.8400 C   0  0  0  0  0  0  0  0  0  0  0  0
  -26.2520  -12.9740   20.2650 N   0  0  0  0  0  0  0  0  0  0  0  0
  -25.8930  -11.6950   20.5330 N   0  0  0  0  0  0  0  0  0  0  0  0
  -23.8780  -10.4780   21.0340 C   0  0  0  0  0  0  0  0  0  0  0  0
  -24.3170   -9.5110   21.9660 C   0  0  0  0  0  3  0  0  0  0  0  0
  -23.5930   -8.3150   22.1480 C   0  0  0  0  0  3  0  0  0  0  0  0
  -22.4170   -8.0750   21.3980 C   0  0  0  0  0  0  0  0  0  0  0  0
  -21.9970   -9.0300   20.4560 C   0  0  0  0  0  3  0  0  0  0  0  0
  -22.7220  -10.2200   20.2720 C   0  0  0  0  0  3  0  0  0  0  0  0
  -21.6640   -6.9300   21.4910 O   0  0  0  0  0  0  0  0  0  0  0  0
  -21.6290   -6.1830   22.6410 C   0  0  0  0  0  0  0  0  0  0  0  0
  -21.2220   -6.7350   23.8760 C   0  0  0  0  0  3  0  0  0  0  0  0
  -21.1330   -5.9150   25.0170 C   0  0  0  0  0  3  0  0  0  0  0  0
  -21.4420   -4.5440   24.9270 C   0  0  0  0  0  0  0  0  0  0  0  0
  -21.8420   -3.9930   23.6980 C   0  0  0  0  0  3  0  0  0  0  0  0
  -21.9330   -4.8100   22.5570 C   0  0  0  0  0  0  0  0  0  0  0  0
  -22.3000   -4.2690   21.3700 F   0  0  0  0  0  0  0  0  0  0  0  0
  -21.3490   -3.7540   26.0220 F   0  0  0  0  0  0  0  0  0  0  0  0
  -22.7450  -13.5700   21.1320 C   0  0  0  0  0  0  0  0  0  0  0  0
  -22.0160  -12.8770   22.0000 N   0  0  0  0  0  0  0  0  0  0  0  0
  -22.3090  -14.5940   20.6090 O   0  0  0  0  0  0  0  0  0  0  0  0
  -22.3830  -12.0480   22.4440 H   0  0  0  0  0  0  0  0  0  0  0  0
  -21.0780  -13.1810   22.2230 H   0  0  0  0  0  0  0  0  0  0  0  0
  -25.3750  -15.2300   20.3070 N   0  0  0  0  0  0  0  0  0  0  0  0
  -24.6100  -15.8860   20.4150 H   0  0  0  0  0  0  0  0  0  0  0  0
  -26.2290  -15.6650   19.9860 H   0  0  0  0  0  0  0  0  0  0  0  0
  -29.5530  -21.9460   20.5340 C   0  0  0  0  0  2  0  0  0  0  0  0
  -29.7890  -24.5940   19.7230 C   0  0  0  0  0  2  0  0  0  0  0  0
  -27.8780  -24.1000   20.3670 C   0  0  0  0  0  2  0  0  0  0  0  0
  -29.0350  -23.2330   19.7860 C   0  0  0  0  0  3  0  0  0  0  0  0
  -28.4330  -25.3220   19.5930 C   0  0  0  0  0  3  0  0  0  0  0  0
  -28.3870  -26.6380   20.2080 O   0  0  0  0  0  0  0  0  0  0  0  0
  -24.5960  -31.8940   23.2560 C   0  0  0  0  0  0  0  0  0  0  0  0
  -27.2140  -27.3870   20.1800 C   0  0  0  0  0  0  0  0  0  0  0  0
  -23.3820  -30.4870   21.6280 C   0  0  0  0  0  3  0  0  0  0  0  0
  -24.8250  -28.9380   20.2000 C   0  0  0  0  0  0  0  0  0  0  0  0
  -25.9140  -30.8210   21.4290 C   0  0  0  0  0  2  0  0  0  0  0  0
  -25.9900  -29.4460   20.7870 C   0  0  0  0  0  0  0  0  0  0  0  0
  -27.1830  -28.6780   20.7740 C   0  0  0  0  0  3  0  0  0  0  0  0
  -26.0220  -26.9040   19.5900 C   0  0  0  0  0  3  0  0  0  0  0  0
  -24.8380  -27.6670   19.6010 C   0  0  0  0  0  3  0  0  0  0  0  0
  -23.5860  -29.8070   20.2490 C   0  0  0  0  0  2  0  0  0  0  0  0
  -24.6500  -31.0800   22.1640 N   0  0  0  0  0  0  0  0  0  0  0  0
  -23.5110  -32.1950   23.7750 O   0  0  0  0  0  0  0  0  0  0  0  0
  -22.7280  -29.4700   22.5920 C   0  0  0  0  0  0  0  0  0  0  0  0
  -21.4030  -29.2880   22.4670 N   0  0  0  0  0  0  0  0  0  0  0  0
  -23.4100  -28.8460   23.4100 O   0  0  0  0  0  0  0  0  0  0  0  0
  -20.9130  -29.8460   21.7830 H   0  0  0  0  0  0  0  0  0  0  0  0
  -18.0280  -28.0890   22.9630 C   0  0  0  0  0  0  0  0  0  0  0  0
  -20.5850  -28.3520   23.2390 C   0  0  0  0  0  3  0  0  0  0  0  0
  -20.6900  -26.9180   22.6670 C   0  0  0  0  0  2  0  0  0  0  0  0
  -19.5910  -26.5910   21.6520 C   0  0  0  0  0  2  0  0  0  0  0  0
  -18.2070  -26.7370   22.2920 C   0  0  0  0  0  2  0  0  0  0  0  0
  -19.1460  -28.8540   23.3930 C   0  0  0  0  0  0  0  0  0  0  0  0
  -18.9250  -30.1200   23.9790 C   0  0  0  0  0  3  0  0  0  0  0  0
  -17.6190  -30.6190   24.1410 C   0  0  0  0  0  3  0  0  0  0  0  0
  -16.5160  -29.8520   23.7280 C   0  0  0  0  0  3  0  0  0  0  0  0
  -16.7210  -28.5890   23.1440 C   0  0  0  0  0  3  0  0  0  0  0  0
  -25.8860  -32.5140   23.8830 C   0  0  0  0  0  3  0  0  0  0  0  0
  -25.5860  -33.9140   24.2120 N   0  0  0  0  0  0  0  0  0  0  0  0
  -25.9170  -34.9620   23.4460 C   0  0  0  0  0  0  0  0  0  0  0  0
  -26.5790  -34.8520   22.4100 O   0  0  0  0  0  0  0  0  0  0  0  0
  -25.0010  -34.0740   25.0180 H   0  0  0  0  0  0  0  0  0  0  0  0
  -24.1880  -36.7550   23.0990 C   0  0  0  0  0  1  0  0  0  0  0  0
  -25.4370  -36.3540   23.8990 C   0  0  0  0  0  3  0  0  0  0  0  0
  -27.5810  -37.2360   24.7050 C   0  0  0  0  0  1  0  0  0  0  0  0
  -26.4700  -37.4040   23.7720 N   0  0  0  0  0  0  0  0  0  0  0  0
  -26.0690  -38.3250   23.9220 H   0  0  0  0  0  0  0  0  0  0  0  0
  -26.3990  -31.7410   25.1600 C   0  0  1  0  0  0  0  0  0  0  0  0
  -25.3050  -31.5120   26.2280 C   0  0  0  0  0  1  0  0  0  0  0  0
  -26.9760  -30.3610   24.7680 C   0  0  0  0  0  1  0  0  0  0  0  0
  -27.5550  -32.5300   25.8200 C   0  0  0  0  0  1  0  0  0  0  0  0
  1  7  1  0
  2  3  1  0
  2  1  2  0
  3  4  2  0
  4  7  1  0
  5  2  1  0
  6  3  1  0
  7 50  1  0
  8 21  1  0
  9 14  1  0
 10 11  1  0
 10  9  1  0
 12 11  1  0
 12 25  1  0
 12 13  1  0
 14  8  1  0
 14 13  1  0
 15  8  2  0
 16 18  1  0
 16 20  1  0
 17 19  1  0
 18 21  1  0
 20  4  1  0
 20 17  1  0
 21 19  1  0
 22 23  2  0
 23 42  1  0
 24 23  1  0
 24 27  1  0
 25 22  1  0
 25 26  1  0
 26 24  2  0
 27 28  1  0
 28 29  2  0
 30 33  1  0
 30 29  1  0
 31 30  2  0
 32 31  1  0
 32 27  2  0
 33 34  1  0
 34 35  1  0
 35 36  2  0
 37 36  1  0
 37 41  1  0
 38 37  2  0
 39 34  2  0
 39 38  1  0
 40 39  1  0
 42 43  1  0
 43 46  1  0
 43 45  1  0
 44 42  2  0
 47 48  1  0
 47 22  1  0
 49 47  1  0
 51 53  1  0
 53 52  1  0
 53 50  1  0
 54 51  1  0
 54 55  1  0
 54 52  1  0
 56 67  2  0
 57 55  1  0
 57 62  1  0
 58 66  1  0
 58 68  1  0
 59 65  1  0
 59 61  1  0
 60 66  1  0
 61 60  1  0
 62 61  2  0
 63 64  1  0
 63 57  2  0
 64 59  2  0
 65 58  1  0
 66 56  1  0
 68 70  2  0
 69 68  1  0
 71 69  1  0
 72 81  2  0
 72 77  1  0
 73 69  1  0
 73 77  1  0
 74 73  1  0
 75 76  1  0
 75 74  1  0
 76 72  1  0
 77 78  2  0
 78 79  1  0
 80 79  2  0
 81 80  1  0
 82 56  1  0
 82 83  1  0
 82 92  1  0
 83 86  1  0
 84 88  1  0
 84 83  1  0
 85 84  2  0
 88 87  1  0
 90 88  1  0
 90 91  1  0
 90 89  1  0
 92 95  1  1
 92 93  1  0
 94 92  1  0
M  ISO  4   8 100  21 100  54 101  55 101
M  END
>  <TORSDO>  (24) 
F 18

>  <SCORE>  (24) 
-14.995

>  <name>  (24) 
23

>  <ligand_id>  (24) 
23

>  <original_smiles>  (24) 
[H]c1c([H])c([H])c2c(c1[H])C([H])([H])C([H])([H])C([H])([H])C2([H])N([H])C(=O)C1([H])N(C(=O)C([H])(N([H])C(=O)C([H])(N([H])C([H])([H])[H])C([H])([H])[H])C(C([H])([H])[H])(C([H])([H])[H])C([H])([H])[H])C([H])([H])c2c([H])c(OC3([H])C([H])([H])C([H])(C([H])([H])n4c([H])c(C([H])([H])[H])c(C([H])([H])[H])c4C4([H])C([H])([H])C([H])([H])N(C(=O)N5C([H])([H])C([H])([H])C([H])([H])C([H])(n6nc(-c7c([H])c([H])c(Oc8c([H])c([H])c(F)c([H])c8F)c([H])c7[H])c(C(=O)N([H])[H])c6N([H])[H])C5([H])[H])C([H])([H])C4([H])[H])C3([H])[H])c([H])c([H])c2C1([H])[H]

>  <smiles>  (24) 
[H]c1c([H])c([H])c2c(c1[H])C([H])([H])C([H])([H])C([H])([H])C2([H])N([H])C(=O)C1([H])N(C(=O)C([H])(N([H])C(=O)C([H])(N([H])C([H])([H])[H])C([H])([H])[H])C(C([H])([H])[H])(C([H])([H])[H])C([H])([H])[H])C([H])([H])c2c([H])c(OC3([H])C([H])([H])C([H])(C([H])([H])n4c([H])c(C([H])([H])[H])c(C([H])([H])[H])c4C4([H])C([H])([H])C([H])([H])N(C(=O)N5C([H])([H])C([H])([H])C([H])([H])C([H])(n6nc(-c7c([H])c([H])c(Oc8c([H])c([H])c(F)c([H])c8F)c([H])c7[H])c(C(=O)N([H])[H])c6N([H])[H])C5([H])[H])C([H])([H])C4([H])[H])C3([H])[H])c([H])c([H])c2C1([H])[H]

> <Step>
142.0

> <Scaffold>
O=C(NC1CCCc2ccccc21)C1Cc2ccc(OC3CC(Cn4cccc4C4CCN(C(=O)N5CCCC(n6ccc(-c7ccc(Oc8ccccc8)cc7)n6)C5)CC4)C3)cc2CN1

> <SMILES>
CNC(C)C(=O)NC(C(=O)N1Cc2cc(OC3CC(Cn4cc(C)c(C)c4C4CCN(C(=O)N5CCCC(n6nc(-c7ccc(Oc8ccc(F)cc8F)cc7)c(C(N)=O)c6N)C5)CC4)C3)ccc2CC1C(=O)NC1CCCc2ccccc21)C(C)(C)C

> <Tanimoto ROCS sim>
0.23408159613609314

> <Custom alerts>
1.0

> <Linker Num Aromatic Rings>
1.0

> <Linker Effective Length>
1.0

> <ADV>
0.9968711137771606

> <PostDock Tanimoto ROCS sim>
0.9906948804855347

> <raw_Linker Num Aromatic Rings>
1.0

> <raw_Linker Effective Length>
9.0

> <raw_ADV>
-15.012999534606934

> <total_score>
0.9968914985656738

> <ID>
default_job_23

> <PostDock Tanimoto ROCS sim (re-score)>
0.9825507

> <raw_ADV (re-score)>
-14.995

> <Final Intermolecular Energy>
-30.335

> <Final Total Internal Energy>
-2.762

> <Torsional Free Energy>
15.34

> <Unbound System's Energy>
-2.762

$$$$
default_job_24
     RDKit          3D

 97108  0  0  1  0  0  0  0  0999 V2000
  -29.5210  -21.0650   20.5400 C   0  0  0  0  0  3  0  0  0  0  0  0
  -31.1890  -22.2330   19.6470 C   0  0  0  0  0  3  0  0  0  0  0  0
  -29.9420  -22.3930   20.1850 C   0  0  0  0  0  0  0  0  0  0  0  0
  -30.4660  -20.1490   20.1360 C   0  0  0  0  0  0  0  0  0  0  0  0
  -31.4940  -20.8840   19.5540 N   0  0  0  0  0  0  0  0  0  0  0  0
  -30.6740  -14.5910   20.4290 C   0  0  0  0  0  0  0  0  0  0  0  0
  -30.3650  -12.3900   19.3490 C   0  0  0  0  0  2  0  0  0  0  0  0
  -29.4290  -12.5440   18.1330 C   0  0  0  0  0  2  0  0  0  0  0  0
  -27.9600  -12.3730   18.5690 C   0  0  0  0  0  2  0  0  0  0  0  0
  -27.5990  -13.2380   19.8020 C   0  0  0  0  0  3  0  0  0  0  0  0
  -28.6630  -13.1290   20.9200 C   0  0  0  0  0  2  0  0  0  0  0  0
  -29.9780  -13.4200   20.3270 N   0  0  0  0  0  0  0  0  0  0  0  0
  -31.8560  -14.6810   20.0810 O   0  0  0  0  0  0  0  0  0  0  0  0
  -30.9800  -17.9820   21.4930 C   0  0  0  0  0  2  0  0  0  0  0  0
  -29.1580  -17.9800   19.7940 C   0  0  0  0  0  2  0  0  0  0  0  0
  -30.3560  -16.5880   21.8480 C   0  0  0  0  0  2  0  0  0  0  0  0
  -29.3430  -16.4620   19.5800 C   0  0  0  0  0  2  0  0  0  0  0  0
  -30.4890  -18.6220   20.1760 C   0  0  0  0  0  3  0  0  0  0  0  0
  -29.9680  -15.7240   20.7080 N   0  0  0  0  0  0  0  0  0  0  0  0
  -25.2140  -13.8660   20.5240 C   0  0  0  0  0  0  0  0  0  0  0  0
  -24.1430  -13.0990   20.8920 C   0  0  0  0  0  0  0  0  0  0  0  0
  -24.6020  -11.7450   20.8690 C   0  0  0  0  0  0  0  0  0  0  0  0
  -26.2520  -12.9760   20.2920 N   0  0  0  0  0  0  0  0  0  0  0  0
  -25.8920  -11.6980   20.5650 N   0  0  0  0  0  0  0  0  0  0  0  0
  -23.8760  -10.4860   21.0570 C   0  0  0  0  0  0  0  0  0  0  0  0
  -24.3090   -9.5170   21.9900 C   0  0  0  0  0  3  0  0  0  0  0  0
  -23.5810   -8.3220   22.1670 C   0  0  0  0  0  3  0  0  0  0  0  0
  -22.4070   -8.0890   21.4120 C   0  0  0  0  0  0  0  0  0  0  0  0
  -21.9940   -9.0460   20.4690 C   0  0  0  0  0  3  0  0  0  0  0  0
  -22.7230  -10.2330   20.2890 C   0  0  0  0  0  3  0  0  0  0  0  0
  -21.6530   -6.9450   21.4970 O   0  0  0  0  0  0  0  0  0  0  0  0
  -21.6060   -6.1990   22.6470 C   0  0  0  0  0  0  0  0  0  0  0  0
  -21.1830   -6.7520   23.8760 C   0  0  0  0  0  3  0  0  0  0  0  0
  -21.0810   -5.9320   25.0180 C   0  0  0  0  0  3  0  0  0  0  0  0
  -21.3950   -4.5630   24.9320 C   0  0  0  0  0  0  0  0  0  0  0  0
  -21.8150   -4.0110   23.7090 C   0  0  0  0  0  3  0  0  0  0  0  0
  -21.9160   -4.8270   22.5690 C   0  0  0  0  0  0  0  0  0  0  0  0
  -22.2990   -4.2860   21.3870 F   0  0  0  0  0  0  0  0  0  0  0  0
  -21.2910   -3.7740   26.0260 F   0  0  0  0  0  0  0  0  0  0  0  0
  -22.7470  -13.5810   21.1560 C   0  0  0  0  0  0  0  0  0  0  0  0
  -22.0130  -12.8900   22.0210 N   0  0  0  0  0  0  0  0  0  0  0  0
  -22.3140  -14.6070   20.6340 O   0  0  0  0  0  0  0  0  0  0  0  0
  -22.3730  -12.0610   22.4730 H   0  0  0  0  0  0  0  0  0  0  0  0
  -21.0740  -13.1930   22.2300 H   0  0  0  0  0  0  0  0  0  0  0  0
  -25.3830  -15.2370   20.3470 N   0  0  0  0  0  0  0  0  0  0  0  0
  -24.6230  -15.8980   20.4720 H   0  0  0  0  0  0  0  0  0  0  0  0
  -26.2470  -15.6800   20.0630 H   0  0  0  0  0  0  0  0  0  0  0  0
  -27.7080  -23.6270   20.7070 C   0  0  0  0  0  2  0  0  0  0  0  0
  -27.4470  -24.8430   21.6120 C   0  0  0  0  0  2  0  0  0  0  0  0
  -29.1800  -23.7270   20.2610 C   0  0  0  0  0  3  0  0  0  0  0  0
  -29.7780  -24.8570   21.1380 C   0  0  0  0  0  3  0  0  0  0  0  0
  -28.5980  -25.8360   21.3640 C   0  0  0  0  0  3  0  0  0  0  0  0
  -31.0350  -25.5440   20.5850 C   0  0  0  0  0  1  0  0  0  0  0  0
  -28.4080  -26.6820   20.2070 O   0  0  0  0  0  0  0  0  0  0  0  0
  -24.6060  -31.9070   23.2630 C   0  0  0  0  0  0  0  0  0  0  0  0
  -27.2710  -27.4610   20.2130 C   0  0  0  0  0  0  0  0  0  0  0  0
  -23.4110  -30.4970   21.6190 C   0  0  0  0  0  3  0  0  0  0  0  0
  -24.8800  -28.9670   20.1960 C   0  0  0  0  0  0  0  0  0  0  0  0
  -25.9390  -30.8580   21.4390 C   0  0  0  0  0  2  0  0  0  0  0  0
  -26.0310  -29.4880   20.8010 C   0  0  0  0  0  0  0  0  0  0  0  0
  -27.2320  -28.7400   20.8150 C   0  0  0  0  0  3  0  0  0  0  0  0
  -26.1150  -26.9680   19.5770 C   0  0  0  0  0  3  0  0  0  0  0  0
  -24.9160  -27.7050   19.5810 C   0  0  0  0  0  3  0  0  0  0  0  0
  -23.6300  -29.8200   20.2390 C   0  0  0  0  0  2  0  0  0  0  0  0
  -24.6700  -31.0990   22.1670 N   0  0  0  0  0  0  0  0  0  0  0  0
  -23.5160  -32.1990   23.7760 O   0  0  0  0  0  0  0  0  0  0  0  0
  -22.7580  -29.4710   22.5750 C   0  0  0  0  0  0  0  0  0  0  0  0
  -21.4340  -29.2910   22.4460 N   0  0  0  0  0  0  0  0  0  0  0  0
  -23.4420  -28.8430   23.3880 O   0  0  0  0  0  0  0  0  0  0  0  0
  -20.9450  -29.8530   21.7640 H   0  0  0  0  0  0  0  0  0  0  0  0
  -18.0570  -28.1050   22.9410 C   0  0  0  0  0  0  0  0  0  0  0  0
  -20.6150  -28.3500   23.2100 C   0  0  0  0  0  3  0  0  0  0  0  0
  -20.7110  -26.9240   22.6230 C   0  0  0  0  0  2  0  0  0  0  0  0
  -19.6060  -26.6130   21.6080 C   0  0  0  0  0  2  0  0  0  0  0  0
  -18.2260  -26.7600   22.2550 C   0  0  0  0  0  2  0  0  0  0  0  0
  -19.1790  -28.8590   23.3750 C   0  0  0  0  0  0  0  0  0  0  0  0
  -18.9660  -30.1190   23.9760 C   0  0  0  0  0  3  0  0  0  0  0  0
  -17.6640  -30.6260   24.1470 C   0  0  0  0  0  3  0  0  0  0  0  0
  -16.5570  -29.8680   23.7300 C   0  0  0  0  0  3  0  0  0  0  0  0
  -16.7520  -28.6100   23.1310 C   0  0  0  0  0  3  0  0  0  0  0  0
  -25.8880  -32.5300   23.8980 C   0  0  0  0  0  3  0  0  0  0  0  0
  -25.5840  -33.9300   24.2200 N   0  0  0  0  0  0  0  0  0  0  0  0
  -25.9190  -34.9750   23.4510 C   0  0  0  0  0  0  0  0  0  0  0  0
  -26.5900  -34.8610   22.4210 O   0  0  0  0  0  0  0  0  0  0  0  0
  -24.9910  -34.0920   25.0190 H   0  0  0  0  0  0  0  0  0  0  0  0
  -24.1900  -36.7630   23.0790 C   0  0  0  0  0  1  0  0  0  0  0  0
  -25.4310  -36.3670   23.8950 C   0  0  0  0  0  3  0  0  0  0  0  0
  -27.5650  -37.2580   24.7170 C   0  0  0  0  0  1  0  0  0  0  0  0
  -26.4640  -37.4170   23.7720 N   0  0  0  0  0  0  0  0  0  0  0  0
  -26.0590  -38.3390   23.9110 H   0  0  0  0  0  0  0  0  0  0  0  0
  -26.3920  -31.7600   25.1810 C   0  0  1  0  0  0  0  0  0  0  0  0
  -25.2890  -31.5290   26.2390 C   0  0  0  0  0  1  0  0  0  0  0  0
  -26.9760  -30.3800   24.7980 C   0  0  0  0  0  1  0  0  0  0  0  0
  -27.5410  -32.5530   25.8500 C   0  0  0  0  0  1  0  0  0  0  0  0
  -33.2140  -21.0540   17.7060 C   0  0  0  0  0  2  0  0  0  0  0  0
  -32.4530  -19.7560   17.5750 C   0  0  0  0  0  2  0  0  0  0  0  0
  -32.7030  -20.3430   18.9480 C   0  0  0  0  0  3  0  0  0  0  0  0
  2  3  2  0
  3  1  1  0
  4  1  2  0
  5  2  1  0
  5  4  1  0
  6 19  1  0
  7 12  1  0
  8  9  1  0
  8  7  1  0
 10  9  1  0
 10 23  1  0
 10 11  1  0
 12  6  1  0
 12 11  1  0
 13  6  2  0
 14 16  1  0
 15 18  1  0
 17 15  1  0
 17 19  1  0
 18  4  1  0
 18 14  1  0
 19 16  1  0
 20 21  2  0
 21 40  1  0
 22 21  1  0
 22 25  1  0
 23 20  1  0
 23 24  1  0
 24 22  2  0
 25 26  1  0
 26 27  2  0
 28 31  1  0
 28 27  1  0
 29 28  2  0
 30 29  1  0
 30 25  2  0
 31 32  1  0
 32 33  1  0
 33 34  2  0
 35 34  1  0
 35 39  1  0
 36 35  2  0
 37 32  2  0
 37 36  1  0
 38 37  1  0
 40 41  1  0
 41 44  1  0
 41 43  1  0
 42 40  2  0
 45 46  1  0
 45 20  1  0
 47 45  1  0
 48 49  1  0
 50  3  1  0
 50 48  1  0
 50 51  1  0
 51 53  1  0
 51 52  1  0
 52 54  1  0
 52 49  1  0
 54 56  1  0
 55 66  2  0
 56 61  1  0
 57 65  1  0
 57 67  1  0
 58 64  1  0
 58 60  1  0
 59 65  1  0
 60 61  2  0
 60 59  1  0
 62 63  1  0
 62 56  2  0
 63 58  2  0
 64 57  1  0
 65 55  1  0
 67 69  2  0
 68 67  1  0
 70 68  1  0
 71 80  2  0
 71 76  1  0
 72 68  1  0
 72 76  1  0
 73 72  1  0
 74 75  1  0
 74 73  1  0
 75 71  1  0
 76 77  2  0
 77 78  1  0
 79 78  2  0
 80 79  1  0
 81 55  1  0
 81 82  1  0
 81 91  1  0
 82 85  1  0
 83 87  1  0
 83 82  1  0
 84 83  2  0
 87 86  1  0
 89 87  1  0
 89 90  1  0
 89 88  1  0
 91 94  1  1
 91 92  1  0
 93 91  1  0
 95 97  1  0
 96 95  1  0
 96 97  1  0
 97  5  1  0
M  ISO  4   6 100  19 100  52 101  54 101
M  END
>  <TORSDO>  (25) 
F 18

>  <SCORE>  (25) 
-15.265

>  <name>  (25) 
24

>  <ligand_id>  (25) 
24

>  <original_smiles>  (25) 
[H]c1c([H])c([H])c2c(c1[H])C([H])([H])C([H])([H])C([H])([H])C2([H])N([H])C(=O)C1([H])N(C(=O)C([H])(N([H])C(=O)C([H])(N([H])C([H])([H])[H])C([H])([H])[H])C(C([H])([H])[H])(C([H])([H])[H])C([H])([H])[H])C([H])([H])c2c([H])c(OC3([H])C([H])([H])C([H])([H])C([H])(c4c([H])c(C5([H])C([H])([H])C([H])([H])N(C(=O)N6C([H])([H])C([H])([H])C([H])([H])C([H])(n7nc(-c8c([H])c([H])c(Oc9c([H])c([H])c(F)c([H])c9F)c([H])c8[H])c(C(=O)N([H])[H])c7N([H])[H])C6([H])[H])C([H])([H])C5([H])[H])n(C5([H])C([H])([H])C5([H])[H])c4[H])C3([H])C([H])([H])[H])c([H])c([H])c2C1([H])[H]

>  <smiles>  (25) 
[H]c1c([H])c([H])c2c(c1[H])C([H])([H])C([H])([H])C([H])([H])C2([H])N([H])C(=O)C1([H])N(C(=O)C([H])(N([H])C(=O)C([H])(N([H])C([H])([H])[H])C([H])([H])[H])C(C([H])([H])[H])(C([H])([H])[H])C([H])([H])[H])C([H])([H])c2c([H])c(OC3([H])C([H])([H])C([H])([H])C([H])(c4c([H])c(C5([H])C([H])([H])C([H])([H])N(C(=O)N6C([H])([H])C([H])([H])C([H])([H])C([H])(n7nc(-c8c([H])c([H])c(Oc9c([H])c([H])c(F)c([H])c9F)c([H])c8[H])c(C(=O)N([H])[H])c7N([H])[H])C6([H])[H])C([H])([H])C5([H])[H])n(C5([H])C([H])([H])C5([H])[H])c4[H])C3([H])C([H])([H])[H])c([H])c([H])c2C1([H])[H]

> <Step>
170.0

> <Scaffold>
O=C(NC1CCCc2ccccc21)C1Cc2ccc(OC3CCC(c4cc(C5CCN(C(=O)N6CCCC(n7ccc(-c8ccc(Oc9ccccc9)cc8)n7)C6)CC5)n(C5CC5)c4)C3)cc2CN1

> <SMILES>
CNC(C)C(=O)NC(C(=O)N1Cc2cc(OC3CCC(c4cc(C5CCN(C(=O)N6CCCC(n7nc(-c8ccc(Oc9ccc(F)cc9F)cc8)c(C(N)=O)c7N)C6)CC5)n(C5CC5)c4)C3C)ccc2CC1C(=O)NC1CCCc2ccccc21)C(C)(C)C

> <Tanimoto ROCS sim>
0.2439097762107849

> <Custom alerts>
1.0

> <Linker Num Aromatic Rings>
1.0

> <Linker Effective Length>
1.0

> <ADV>
0.9972878098487854

> <PostDock Tanimoto ROCS sim>
0.9902455806732178

> <raw_Linker Num Aromatic Rings>
1.0

> <raw_Linker Effective Length>
9.0

> <raw_ADV>
-15.26200008392334

> <total_score>
0.9968833327293396

> <ID>
default_job_24

> <PostDock Tanimoto ROCS sim (re-score)>
0.98260254

> <raw_ADV (re-score)>
-15.265

> <Final Intermolecular Energy>
-30.881

> <Final Total Internal Energy>
-3.082

> <Torsional Free Energy>
15.617

> <Unbound System's Energy>
-3.082

$$$$
default_job_25
     RDKit          3D

 99108  0  0  1  0  0  0  0  0999 V2000
  -28.9870  -21.5700   20.6630 C   0  0  0  0  0  3  0  0  0  0  0  0
  -27.5470  -24.6760   21.2950 C   0  0  0  0  0  2  0  0  0  0  0  0
  -28.0700  -23.4980   22.1430 C   0  0  0  0  0  2  0  0  0  0  0  0
  -30.0420  -25.2390   21.2270 C   0  0  0  0  0  2  0  0  0  0  0  0
  -28.5970  -25.8130   21.2350 C   0  0  0  0  0  3  0  0  0  0  0  0
  -29.3460  -22.8260   21.5380 C   0  0  0  0  0  3  0  0  0  0  0  0
  -30.1260  -23.8270   20.7530 N   0  0  0  0  0  4  0  0  0  0  0  0
  -31.0890  -23.5370   20.7010 H   0  0  0  0  0  0  0  0  0  0  0  0
  -29.7420  -23.7760   19.8190 H   0  0  0  0  0  0  0  0  0  0  0  0
  -28.3970  -26.7000   20.1210 O   0  0  0  0  0  0  0  0  0  0  0  0
  -24.6060  -31.8880   23.2470 C   0  0  0  0  0  0  0  0  0  0  0  0
  -27.2440  -27.4510   20.1590 C   0  0  0  0  0  0  0  0  0  0  0  0
  -23.3950  -30.4820   21.6100 C   0  0  0  0  0  3  0  0  0  0  0  0
  -24.8460  -28.9500   20.1760 C   0  0  0  0  0  0  0  0  0  0  0  0
  -25.9170  -30.8470   21.4040 C   0  0  0  0  0  2  0  0  0  0  0  0
  -26.0040  -29.4760   20.7640 C   0  0  0  0  0  0  0  0  0  0  0  0
  -27.2080  -28.7330   20.7560 C   0  0  0  0  0  3  0  0  0  0  0  0
  -26.0740  -26.9430   19.5560 C   0  0  0  0  0  3  0  0  0  0  0  0
  -24.8750  -27.6820   19.5710 C   0  0  0  0  0  3  0  0  0  0  0  0
  -23.6020  -29.8090   20.2280 C   0  0  0  0  0  2  0  0  0  0  0  0
  -24.6580  -31.0850   22.1470 N   0  0  0  0  0  0  0  0  0  0  0  0
  -23.5240  -32.1760   23.7760 O   0  0  0  0  0  0  0  0  0  0  0  0
  -22.7470  -29.4580   22.5690 C   0  0  0  0  0  0  0  0  0  0  0  0
  -21.4220  -29.2750   22.4480 N   0  0  0  0  0  0  0  0  0  0  0  0
  -23.4350  -28.8320   23.3790 O   0  0  0  0  0  0  0  0  0  0  0  0
  -20.9280  -29.8400   21.7720 H   0  0  0  0  0  0  0  0  0  0  0  0
  -18.0530  -28.0710   22.9420 C   0  0  0  0  0  0  0  0  0  0  0  0
  -20.6100  -28.3330   23.2170 C   0  0  0  0  0  3  0  0  0  0  0  0
  -20.7160  -26.9030   22.6400 C   0  0  0  0  0  2  0  0  0  0  0  0
  -19.6160  -26.5770   21.6250 C   0  0  0  0  0  2  0  0  0  0  0  0
  -18.2310  -26.7220   22.2680 C   0  0  0  0  0  2  0  0  0  0  0  0
  -19.1700  -28.8330   23.3750 C   0  0  0  0  0  0  0  0  0  0  0  0
  -18.9510  -30.0940   23.9690 C   0  0  0  0  0  3  0  0  0  0  0  0
  -17.6470  -30.5960   24.1340 C   0  0  0  0  0  3  0  0  0  0  0  0
  -16.5420  -29.8300   23.7220 C   0  0  0  0  0  3  0  0  0  0  0  0
  -16.7460  -28.5700   23.1300 C   0  0  0  0  0  3  0  0  0  0  0  0
  -25.8990  -32.5100   23.8690 C   0  0  0  0  0  3  0  0  0  0  0  0
  -25.6000  -33.9080   24.2030 N   0  0  0  0  0  0  0  0  0  0  0  0
  -25.9200  -34.9570   23.4340 C   0  0  0  0  0  0  0  0  0  0  0  0
  -26.5730  -34.8490   22.3930 O   0  0  0  0  0  0  0  0  0  0  0  0
  -25.0270  -34.0700   25.0170 H   0  0  0  0  0  0  0  0  0  0  0  0
  -24.1840  -36.7420   23.0930 C   0  0  0  0  0  1  0  0  0  0  0  0
  -25.4350  -36.3450   23.8930 C   0  0  0  0  0  3  0  0  0  0  0  0
  -27.5770  -37.2300   24.6950 C   0  0  0  0  0  1  0  0  0  0  0  0
  -26.4650  -37.3980   23.7640 N   0  0  0  0  0  0  0  0  0  0  0  0
  -26.0620  -38.3190   23.9140 H   0  0  0  0  0  0  0  0  0  0  0  0
  -26.4190  -31.7340   25.1400 C   0  0  1  0  0  0  0  0  0  0  0  0
  -25.3310  -31.4990   26.2110 C   0  0  0  0  0  1  0  0  0  0  0  0
  -27.0030  -30.3600   24.7380 C   0  0  0  0  0  1  0  0  0  0  0  0
  -27.5740  -32.5240   25.8020 C   0  0  0  0  0  1  0  0  0  0  0  0
  -31.1440  -20.3140   21.5070 C   0  0  0  0  0  1  0  0  0  0  0  0
  -29.9830  -20.3370   20.4840 C   0  0  0  0  0  3  0  0  0  0  0  0
  -27.7910  -17.5680   19.2070 C   0  0  0  0  0  2  0  0  0  0  0  0
  -29.2210  -17.1590   18.9270 C   0  0  0  0  0  2  0  0  0  0  0  0
  -27.9720  -18.9900   19.7190 C   0  0  0  0  0  2  0  0  0  0  0  0
  -30.0000  -17.7630   20.1140 C   0  0  0  0  0  3  0  0  0  0  0  0
  -29.2500  -19.0150   20.4880 N   0  0  1  0  0  4  0  0  0  0  0  0
  -28.9720  -18.8570   21.4460 H   0  0  0  0  0  0  0  0  0  0  0  0
  -30.1490  -16.8340   21.3710 C   0  0  0  0  0  2  0  0  0  0  0  0
  -30.6660  -14.4600   20.5440 C   0  0  0  0  0  0  0  0  0  0  0  0
  -30.3910  -12.3330   19.3170 C   0  0  0  0  0  2  0  0  0  0  0  0
  -29.4350  -12.5490   18.1250 C   0  0  0  0  0  2  0  0  0  0  0  0
  -27.9600  -12.4050   18.5530 C   0  0  0  0  0  2  0  0  0  0  0  0
  -27.6270  -13.2170   19.8320 C   0  0  0  0  0  3  0  0  0  0  0  0
  -28.6840  -12.9480   20.9300 C   0  0  0  0  0  2  0  0  0  0  0  0
  -30.0140  -13.2790   20.3760 N   0  0  0  0  0  0  0  0  0  0  0  0
  -31.7630  -14.7200   20.0410 O   0  0  0  0  0  0  0  0  0  0  0  0
  -29.9360  -15.3900   21.1800 N   0  0  0  0  0  0  0  0  0  0  0  0
  -29.0720  -15.0300   21.5590 H   0  0  0  0  0  0  0  0  0  0  0  0
  -25.2190  -13.8270   20.5160 C   0  0  0  0  0  0  0  0  0  0  0  0
  -24.1490  -13.0580   20.8860 C   0  0  0  0  0  0  0  0  0  0  0  0
  -24.6130  -11.7070   20.8640 C   0  0  0  0  0  0  0  0  0  0  0  0
  -26.2690  -12.9460   20.3010 N   0  0  0  0  0  0  0  0  0  0  0  0
  -25.9050  -11.6660   20.5640 N   0  0  0  0  0  0  0  0  0  0  0  0
  -23.8850  -10.4460   21.0560 C   0  0  0  0  0  0  0  0  0  0  0  0
  -24.3230   -9.4780   21.9870 C   0  0  0  0  0  3  0  0  0  0  0  0
  -23.6000   -8.2800   22.1680 C   0  0  0  0  0  3  0  0  0  0  0  0
  -22.4230   -8.0420   21.4170 C   0  0  0  0  0  0  0  0  0  0  0  0
  -22.0040   -9.0000   20.4770 C   0  0  0  0  0  3  0  0  0  0  0  0
  -22.7280  -10.1900   20.2950 C   0  0  0  0  0  3  0  0  0  0  0  0
  -21.6720   -6.8960   21.5060 O   0  0  0  0  0  0  0  0  0  0  0  0
  -21.6400   -6.1440   22.6530 C   0  0  0  0  0  0  0  0  0  0  0  0
  -21.2340   -6.6900   23.8900 C   0  0  0  0  0  3  0  0  0  0  0  0
  -21.1480   -5.8650   25.0290 C   0  0  0  0  0  3  0  0  0  0  0  0
  -21.4580   -4.4950   24.9310 C   0  0  0  0  0  0  0  0  0  0  0  0
  -21.8560   -3.9480   23.6980 C   0  0  0  0  0  3  0  0  0  0  0  0
  -21.9440   -4.7710   22.5620 C   0  0  0  0  0  0  0  0  0  0  0  0
  -22.3080   -4.2360   21.3710 F   0  0  0  0  0  0  0  0  0  0  0  0
  -21.3680   -3.7000   26.0240 F   0  0  0  0  0  0  0  0  0  0  0  0
  -22.7500  -13.5380   21.1480 C   0  0  0  0  0  0  0  0  0  0  0  0
  -22.0170  -12.8460   22.0130 N   0  0  0  0  0  0  0  0  0  0  0  0
  -22.3150  -14.5610   20.6210 O   0  0  0  0  0  0  0  0  0  0  0  0
  -22.3840  -12.0210   22.4620 H   0  0  0  0  0  0  0  0  0  0  0  0
  -21.0790  -13.1470   22.2280 H   0  0  0  0  0  0  0  0  0  0  0  0
  -25.3800  -15.1940   20.3260 N   0  0  0  0  0  0  0  0  0  0  0  0
  -24.6060  -15.8440   20.4010 H   0  0  0  0  0  0  0  0  0  0  0  0
  -26.2080  -15.6040   19.9170 H   0  0  0  0  0  0  0  0  0  0  0  0
  -28.6110  -22.0830   19.3850 O   0  0  0  0  0  0  0  0  0  0  0  0
  -29.1170  -21.6440   18.7060 H   0  0  0  0  0  0  0  0  0  0  0  0
  1 98  1  0
  2  3  1  0
  4  5  1  0
  5 10  1  0
  5  2  1  0
  6  1  1  0
  6  3  1  0
  7  4  1  0
  7  6  1  0
  8  7  1  0
  9  7  1  0
 10 12  1  0
 11 22  2  0
 12 17  1  0
 13 21  1  0
 13 23  1  0
 14 20  1  0
 14 16  1  0
 15 21  1  0
 16 15  1  0
 17 16  2  0
 18 19  1  0
 18 12  2  0
 19 14  2  0
 20 13  1  0
 21 11  1  0
 23 25  2  0
 24 23  1  0
 26 24  1  0
 27 36  2  0
 27 32  1  0
 28 24  1  0
 28 32  1  0
 29 28  1  0
 30 31  1  0
 30 29  1  0
 31 27  1  0
 32 33  2  0
 33 34  1  0
 35 34  2  0
 36 35  1  0
 37 11  1  0
 37 38  1  0
 37 47  1  0
 38 41  1  0
 39 43  1  0
 39 38  1  0
 40 39  2  0
 43 42  1  0
 45 43  1  0
 45 46  1  0
 45 44  1  0
 47 50  1  1
 47 48  1  0
 49 47  1  0
 52 57  1  0
 52  1  1  0
 52 51  1  0
 53 55  1  0
 54 53  1  0
 54 56  1  0
 55 57  1  0
 56 57  1  0
 56 59  1  0
 57 58  1  1
 60 68  1  0
 61 66  1  0
 62 63  1  0
 62 61  1  0
 64 63  1  0
 64 73  1  0
 64 65  1  0
 66 60  1  0
 66 65  1  0
 67 60  2  0
 68 59  1  0
 68 69  1  0
 70 71  2  0
 71 90  1  0
 72 71  1  0
 72 75  1  0
 73 70  1  0
 73 74  1  0
 74 72  2  0
 75 76  1  0
 76 77  2  0
 78 81  1  0
 78 77  1  0
 79 78  2  0
 80 79  1  0
 80 75  2  0
 81 82  1  0
 82 83  1  0
 83 84  2  0
 85 84  1  0
 85 89  1  0
 86 85  2  0
 87 82  2  0
 87 86  1  0
 88 87  1  0
 90 91  1  0
 91 94  1  0
 91 93  1  0
 92 90  2  0
 95 96  1  0
 95 70  1  0
 97 95  1  0
 99 98  1  0
M  ISO  4   5 101  10 101  60 100  68 100
M  END
>  <TORSDO>  (26) 
F 21

>  <SCORE>  (26) 
-14.222

>  <name>  (26) 
25

>  <ligand_id>  (26) 
25

>  <original_smiles>  (26) 
[H]OC([H])(C1([H])C([H])([H])C([H])([H])C([H])(Oc2c([H])c([H])c3c(c2[H])C([H])([H])N(C(=O)C([H])(N([H])C(=O)C([H])(N([H])C([H])([H])[H])C([H])([H])[H])C(C([H])([H])[H])(C([H])([H])[H])C([H])([H])[H])C([H])(C(=O)N([H])C2([H])c4c([H])c([H])c([H])c([H])c4C([H])([H])C([H])([H])C2([H])[H])C3([H])[H])C([H])([H])[N+]1([H])[H])C([H])(C([H])([H])[H])[N+]1([H])C([H])([H])C([H])([H])C([H])([H])C1([H])C([H])([H])N([H])C(=O)N1C([H])([H])C([H])([H])C([H])([H])C([H])(n2nc(-c3c([H])c([H])c(Oc4c([H])c([H])c(F)c([H])c4F)c([H])c3[H])c(C(=O)N([H])[H])c2N([H])[H])C1([H])[H]

>  <smiles>  (26) 
[H]OC([H])(C1([H])C([H])([H])C([H])([H])C([H])(Oc2c([H])c([H])c3c(c2[H])C([H])([H])N(C(=O)C([H])(N([H])C(=O)C([H])(N([H])C([H])([H])[H])C([H])([H])[H])C(C([H])([H])[H])(C([H])([H])[H])C([H])([H])[H])C([H])(C(=O)N([H])C2([H])c4c([H])c([H])c([H])c([H])c4C([H])([H])C([H])([H])C2([H])[H])C3([H])[H])C([H])([H])[N+]1([H])[H])C([H])(C([H])([H])[H])[N+]1([H])C([H])([H])C([H])([H])C([H])([H])C1([H])C([H])([H])N([H])C(=O)N1C([H])([H])C([H])([H])C([H])([H])C([H])(n2nc(-c3c([H])c([H])c(Oc4c([H])c([H])c(F)c([H])c4F)c([H])c3[H])c(C(=O)N([H])[H])c2N([H])[H])C1([H])[H]

> <Step>
131.0

> <Scaffold>
O=C(NC1CCCc2ccccc21)C1Cc2ccc(OC3CCC(CCN4CCCC4CNC(=O)N4CCCC(n5ccc(-c6ccc(Oc7ccccc7)cc6)n5)C4)NC3)cc2CN1

> <SMILES>
CNC(C)C(=O)NC(C(=O)N1Cc2cc(OC3CCC(C(O)C(C)N4CCCC4CNC(=O)N4CCCC(n5nc(-c6ccc(Oc7ccc(F)cc7F)cc6)c(C(N)=O)c5N)C4)NC3)ccc2CC1C(=O)NC1CCCc2ccccc21)C(C)(C)C

> <Tanimoto ROCS sim>
0.2831687033176422

> <Custom alerts>
1.0

> <Linker Num Aromatic Rings>
1.0

> <Linker Effective Length>
1.0

> <ADV>
0.9951816201210022

> <PostDock Tanimoto ROCS sim>
0.9923226237297058

> <raw_Linker Num Aromatic Rings>
0.0

> <raw_Linker Effective Length>
9.0

> <raw_ADV>
-14.260000228881836

> <total_score>
0.996876060962677

> <ID>
default_job_25

> <PostDock Tanimoto ROCS sim (re-score)>
0.9862484

> <raw_ADV (re-score)>
-14.222

> <Final Intermolecular Energy>
-30.851

> <Final Total Internal Energy>
-3.081

> <Torsional Free Energy>
16.629

> <Unbound System's Energy>
-3.081

$$$$
default_job_26
     RDKit          3D

 92102  0  0  1  0  0  0  0  0999 V2000
  -28.8220  -22.4370   20.5650 C   0  0  0  0  0  0  0  0  0  0  0  0
  -29.6060  -20.4700   20.6740 C   0  0  0  0  0  3  0  0  0  0  0  0
  -30.5980  -18.1590   21.2830 C   0  0  0  0  0  2  0  0  0  0  0  0
  -29.0630  -18.0830   19.8970 C   0  0  0  0  0  2  0  0  0  0  0  0
  -30.2270  -17.0990   20.2150 C   0  0  0  0  0  3  0  0  0  0  0  0
  -31.2210  -20.8940   22.6080 C   0  0  0  0  0  1  0  0  0  0  0  0
  -28.7330  -21.1920   19.9550 N   0  0  0  0  0  0  0  0  0  0  0  0
  -29.6930  -22.4790   21.5750 N   0  0  0  0  0  2  0  0  0  0  0  0
  -30.1930  -21.2100   21.6330 N   0  0  0  0  0  0  0  0  0  0  0  0
  -30.0110  -19.1150   20.3300 N   0  0  0  0  0  0  0  0  0  0  0  0
  -30.6370  -14.6110   20.4240 C   0  0  0  0  0  0  0  0  0  0  0  0
  -30.3790  -12.3900   19.3680 C   0  0  0  0  0  2  0  0  0  0  0  0
  -29.4460  -12.5440   18.1480 C   0  0  0  0  0  2  0  0  0  0  0  0
  -27.9720  -12.3980   18.5730 C   0  0  0  0  0  2  0  0  0  0  0  0
  -27.6170  -13.2600   19.8150 C   0  0  0  0  0  3  0  0  0  0  0  0
  -28.6710  -13.1040   20.9340 C   0  0  0  0  0  2  0  0  0  0  0  0
  -29.9850  -13.4120   20.3580 N   0  0  0  0  0  0  0  0  0  0  0  0
  -31.8040  -14.7320   20.0410 O   0  0  0  0  0  0  0  0  0  0  0  0
  -29.8800  -15.7160   20.6760 N   0  0  0  0  0  0  0  0  0  0  0  0
  -28.9340  -15.5550   20.9880 H   0  0  0  0  0  0  0  0  0  0  0  0
  -25.2210  -13.8610   20.5230 C   0  0  0  0  0  0  0  0  0  0  0  0
  -24.1540  -13.0890   20.8960 C   0  0  0  0  0  0  0  0  0  0  0  0
  -24.6170  -11.7370   20.8710 C   0  0  0  0  0  0  0  0  0  0  0  0
  -26.2670  -12.9800   20.2960 N   0  0  0  0  0  0  0  0  0  0  0  0
  -25.9080  -11.6990   20.5650 N   0  0  0  0  0  0  0  0  0  0  0  0
  -23.8910  -10.4760   21.0620 C   0  0  0  0  0  0  0  0  0  0  0  0
  -24.3310   -9.5030   21.9870 C   0  0  0  0  0  3  0  0  0  0  0  0
  -23.6050   -8.3070   22.1680 C   0  0  0  0  0  3  0  0  0  0  0  0
  -22.4250   -8.0720   21.4220 C   0  0  0  0  0  0  0  0  0  0  0  0
  -22.0040   -9.0330   20.4860 C   0  0  0  0  0  3  0  0  0  0  0  0
  -22.7310  -10.2220   20.3040 C   0  0  0  0  0  3  0  0  0  0  0  0
  -21.6700   -6.9280   21.5120 O   0  0  0  0  0  0  0  0  0  0  0  0
  -21.6420   -6.1730   22.6570 C   0  0  0  0  0  0  0  0  0  0  0  0
  -21.2450   -6.7160   23.8980 C   0  0  0  0  0  3  0  0  0  0  0  0
  -21.1640   -5.8870   25.0350 C   0  0  0  0  0  3  0  0  0  0  0  0
  -21.4680   -4.5160   24.9310 C   0  0  0  0  0  0  0  0  0  0  0  0
  -21.8570   -3.9720   23.6940 C   0  0  0  0  0  3  0  0  0  0  0  0
  -21.9410   -4.7980   22.5600 C   0  0  0  0  0  0  0  0  0  0  0  0
  -22.2960   -4.2650   21.3660 F   0  0  0  0  0  0  0  0  0  0  0  0
  -21.3820   -3.7180   26.0220 F   0  0  0  0  0  0  0  0  0  0  0  0
  -22.7560  -13.5670   21.1600 C   0  0  0  0  0  0  0  0  0  0  0  0
  -22.0260  -12.8760   22.0310 N   0  0  0  0  0  0  0  0  0  0  0  0
  -22.3180  -14.5870   20.6300 O   0  0  0  0  0  0  0  0  0  0  0  0
  -22.3940  -12.0530   22.4820 H   0  0  0  0  0  0  0  0  0  0  0  0
  -21.0870  -13.1790   22.2490 H   0  0  0  0  0  0  0  0  0  0  0  0
  -25.3840  -15.2310   20.3390 N   0  0  0  0  0  0  0  0  0  0  0  0
  -24.6090  -15.8780   20.4320 H   0  0  0  0  0  0  0  0  0  0  0  0
  -26.2180  -15.6640   19.9630 H   0  0  0  0  0  0  0  0  0  0  0  0
  -27.6120  -24.7160   21.0980 C   0  0  0  0  0  2  0  0  0  0  0  0
  -27.9340  -23.6490   20.1930 C   0  0  0  0  0  3  0  0  0  0  0  0
  -28.3250  -25.1330   19.7660 C   0  0  0  0  0  3  0  0  0  0  0  0
  -28.3330  -26.5360   20.2530 O   0  0  0  0  0  0  0  0  0  0  0  0
  -24.6200  -31.9010   23.2560 C   0  0  0  0  0  0  0  0  0  0  0  0
  -27.2000  -27.3630   20.1700 C   0  0  0  0  0  0  0  0  0  0  0  0
  -23.4010  -30.5040   21.6270 C   0  0  0  0  0  3  0  0  0  0  0  0
  -24.8360  -28.9630   20.1830 C   0  0  0  0  0  0  0  0  0  0  0  0
  -25.9400  -30.8190   21.4320 C   0  0  0  0  0  2  0  0  0  0  0  0
  -26.0080  -29.4480   20.7760 C   0  0  0  0  0  0  0  0  0  0  0  0
  -27.1900  -28.6580   20.7650 C   0  0  0  0  0  3  0  0  0  0  0  0
  -26.0040  -26.9250   19.5490 C   0  0  0  0  0  3  0  0  0  0  0  0
  -24.8350  -27.7050   19.5630 C   0  0  0  0  0  3  0  0  0  0  0  0
  -23.6020  -29.8370   20.2420 C   0  0  0  0  0  2  0  0  0  0  0  0
  -24.6740  -31.0870   22.1640 N   0  0  0  0  0  0  0  0  0  0  0  0
  -23.5370  -32.2060   23.7720 O   0  0  0  0  0  0  0  0  0  0  0  0
  -22.7440  -29.4830   22.5860 C   0  0  0  0  0  0  0  0  0  0  0  0
  -21.4190  -29.3020   22.4570 N   0  0  0  0  0  0  0  0  0  0  0  0
  -23.4240  -28.8600   23.4050 O   0  0  0  0  0  0  0  0  0  0  0  0
  -20.9280  -29.8570   21.7700 H   0  0  0  0  0  0  0  0  0  0  0  0
  -18.0460  -28.0900   22.9390 C   0  0  0  0  0  0  0  0  0  0  0  0
  -20.6010  -28.3640   23.2270 C   0  0  0  0  0  3  0  0  0  0  0  0
  -20.7150  -26.9300   22.6610 C   0  0  0  0  0  2  0  0  0  0  0  0
  -19.6220  -26.5950   21.6400 C   0  0  0  0  0  2  0  0  0  0  0  0
  -18.2340  -26.7370   22.2730 C   0  0  0  0  0  2  0  0  0  0  0  0
  -19.1570  -28.8600   23.3740 C   0  0  0  0  0  0  0  0  0  0  0  0
  -18.9270  -30.1250   23.9560 C   0  0  0  0  0  3  0  0  0  0  0  0
  -17.6180  -30.6200   24.1090 C   0  0  0  0  0  3  0  0  0  0  0  0
  -16.5210  -29.8470   23.6910 C   0  0  0  0  0  3  0  0  0  0  0  0
  -16.7350  -28.5840   23.1120 C   0  0  0  0  0  3  0  0  0  0  0  0
  -25.9110  -32.5150   23.8830 C   0  0  0  0  0  3  0  0  0  0  0  0
  -25.6120  -33.9130   24.2230 N   0  0  0  0  0  0  0  0  0  0  0  0
  -25.9250  -34.9670   23.4580 C   0  0  0  0  0  0  0  0  0  0  0  0
  -26.5690  -34.8630   22.4100 O   0  0  0  0  0  0  0  0  0  0  0  0
  -25.0370  -34.0670   25.0400 H   0  0  0  0  0  0  0  0  0  0  0  0
  -24.1760  -36.7500   23.1600 C   0  0  0  0  0  1  0  0  0  0  0  0
  -25.4480  -36.3550   23.9270 C   0  0  0  0  0  3  0  0  0  0  0  0
  -27.6070  -37.2500   24.6770 C   0  0  0  0  0  1  0  0  0  0  0  0
  -26.4710  -37.4110   23.7720 N   0  0  0  0  0  0  0  0  0  0  0  0
  -26.0670  -38.3300   23.9330 H   0  0  0  0  0  0  0  0  0  0  0  0
  -26.4280  -31.7340   25.1530 C   0  0  1  0  0  0  0  0  0  0  0  0
  -25.3360  -31.4970   26.2230 C   0  0  0  0  0  1  0  0  0  0  0  0
  -27.0020  -30.3550   24.7530 C   0  0  0  0  0  1  0  0  0  0  0  0
  -27.5850  -32.5180   25.8150 C   0  0  0  0  0  1  0  0  0  0  0  0
  1  8  1  0
  2  7  1  0
  2  9  1  0
  4  5  1  0
  5 19  1  0
  5  3  1  0
  7  1  2  0
  8  9  1  0
  9  6  1  0
 10  4  1  0
 10  2  1  0
 10  3  1  0
 11 19  1  0
 12 17  1  0
 13 14  1  0
 13 12  1  0
 15 14  1  0
 15 24  1  0
 15 16  1  0
 17 11  1  0
 17 16  1  0
 18 11  2  0
 19 20  1  0
 21 22  2  0
 22 41  1  0
 23 22  1  0
 23 26  1  0
 24 21  1  0
 24 25  1  0
 25 23  2  0
 26 27  1  0
 27 28  2  0
 29 32  1  0
 29 28  1  0
 30 29  2  0
 31 30  1  0
 31 26  2  0
 32 33  1  0
 33 34  1  0
 34 35  2  0
 36 35  1  0
 36 40  1  0
 37 36  2  0
 38 33  2  0
 38 37  1  0
 39 38  1  0
 41 42  1  0
 42 45  1  0
 42 44  1  0
 43 41  2  0
 46 47  1  0
 46 21  1  0
 48 46  1  0
 50  1  1  0
 50 49  1  0
 51 50  1  0
 51 52  1  0
 51 49  1  0
 53 64  2  0
 54 52  1  0
 54 59  1  0
 55 63  1  0
 55 65  1  0
 56 62  1  0
 56 58  1  0
 57 63  1  0
 58 57  1  0
 59 58  2  0
 60 61  1  0
 60 54  2  0
 61 56  2  0
 62 55  1  0
 63 53  1  0
 65 67  2  0
 66 65  1  0
 68 66  1  0
 69 78  2  0
 69 74  1  0
 70 66  1  0
 70 74  1  0
 71 70  1  0
 72 73  1  0
 72 71  1  0
 73 69  1  0
 74 75  2  0
 75 76  1  0
 77 76  2  0
 78 77  1  0
 79 53  1  0
 79 80  1  0
 79 89  1  0
 80 83  1  0
 81 85  1  0
 81 80  1  0
 82 81  2  0
 85 84  1  0
 87 85  1  0
 87 88  1  0
 87 86  1  0
 89 92  1  1
 89 90  1  0
 91 89  1  0
M  ISO  4  11 100  19 100  51 101  52 101
M  END
>  <TORSDO>  (27) 
F 17

>  <SCORE>  (27) 
-15.416

>  <name>  (27) 
26

>  <ligand_id>  (27) 
26

>  <original_smiles>  (27) 
[H]c1c([H])c([H])c2c(c1[H])C([H])([H])C([H])([H])C([H])([H])C2([H])N([H])C(=O)C1([H])N(C(=O)C([H])(N([H])C(=O)C([H])(N([H])C([H])([H])[H])C([H])([H])[H])C(C([H])([H])[H])(C([H])([H])[H])C([H])([H])[H])C([H])([H])c2c([H])c(OC3([H])C([H])([H])C3([H])c3nc(N4C([H])([H])C([H])(N([H])C(=O)N5C([H])([H])C([H])([H])C([H])([H])C([H])(n6nc(-c7c([H])c([H])c(Oc8c([H])c([H])c(F)c([H])c8F)c([H])c7[H])c(C(=O)N([H])[H])c6N([H])[H])C5([H])[H])C4([H])[H])n(C([H])([H])[H])n3)c([H])c([H])c2C1([H])[H]

>  <smiles>  (27) 
[H]c1c([H])c([H])c2c(c1[H])C([H])([H])C([H])([H])C([H])([H])C2([H])N([H])C(=O)C1([H])N(C(=O)C([H])(N([H])C(=O)C([H])(N([H])C([H])([H])[H])C([H])([H])[H])C(C([H])([H])[H])(C([H])([H])[H])C([H])([H])[H])C([H])([H])c2c([H])c(OC3([H])C([H])([H])C3([H])c3nc(N4C([H])([H])C([H])(N([H])C(=O)N5C([H])([H])C([H])([H])C([H])([H])C([H])(n6nc(-c7c([H])c([H])c(Oc8c([H])c([H])c(F)c([H])c8F)c([H])c7[H])c(C(=O)N([H])[H])c6N([H])[H])C5([H])[H])C4([H])[H])n(C([H])([H])[H])n3)c([H])c([H])c2C1([H])[H]

> <Step>
198.0

> <Scaffold>
O=C(NC1CCCc2ccccc21)C1Cc2ccc(OC3CC3c3n[nH]c(N4CC(NC(=O)N5CCCC(n6ccc(-c7ccc(Oc8ccccc8)cc7)n6)C5)C4)n3)cc2CN1

> <SMILES>
CNC(C)C(=O)NC(C(=O)N1Cc2cc(OC3CC3c3nc(N4CC(NC(=O)N5CCCC(n6nc(-c7ccc(Oc8ccc(F)cc8F)cc7)c(C(N)=O)c6N)C5)C4)n(C)n3)ccc2CC1C(=O)NC1CCCc2ccccc21)C(C)(C)C

> <Tanimoto ROCS sim>
0.23615451157093048

> <Custom alerts>
1.0

> <Linker Num Aromatic Rings>
1.0

> <Linker Effective Length>
1.0

> <ADV>
0.9975215792655945

> <PostDock Tanimoto ROCS sim>
0.9898324012756348

> <raw_Linker Num Aromatic Rings>
1.0

> <raw_Linker Effective Length>
8.0

> <raw_ADV>
-15.418999671936035

> <total_score>
0.9968385100364685

> <ID>
default_job_26

> <PostDock Tanimoto ROCS sim (re-score)>
0.9846007

> <raw_ADV (re-score)>
-15.416

> <Final Intermolecular Energy>
-30.286

> <Final Total Internal Energy>
-2.69

> <Torsional Free Energy>
14.87

> <Unbound System's Energy>
-2.69

$$$$
default_job_27
     RDKit          3D

 94103  0  0  1  0  0  0  0  0999 V2000
  -31.7300  -22.5100   21.8370 C   0  0  0  0  0  2  0  0  0  0  0  0
  -31.5980  -23.6590   20.8370 C   0  0  0  0  0  2  0  0  0  0  0  0
  -29.4310  -22.7190   21.0570 C   0  0  0  0  0  2  0  0  0  0  0  0
  -30.4280  -21.7070   21.6930 C   0  0  0  0  0  3  0  0  0  0  0  0
  -30.1590  -23.9940   20.7990 N   0  0  2  0  0  4  0  0  0  0  0  0
  -29.9930  -24.5960   21.5930 H   0  0  0  0  0  0  0  0  0  0  0  0
  -30.6310  -20.4320   20.8440 C   0  0  0  0  0  0  0  0  0  0  0  0
  -30.5740  -19.2400   21.4650 N   0  0  0  0  0  0  0  0  0  0  0  0
  -30.8040  -20.5310   19.6280 O   0  0  0  0  0  0  0  0  0  0  0  0
  -30.4740  -19.2320   22.4720 H   0  0  0  0  0  0  0  0  0  0  0  0
  -30.6590  -14.5000   20.4730 C   0  0  0  0  0  0  0  0  0  0  0  0
  -30.3150  -12.3350   19.3310 C   0  0  0  0  0  2  0  0  0  0  0  0
  -29.3660  -12.5020   18.1290 C   0  0  0  0  0  2  0  0  0  0  0  0
  -27.9000  -12.3250   18.5690 C   0  0  0  0  0  2  0  0  0  0  0  0
  -27.5500  -13.1860   19.8070 C   0  0  0  0  0  3  0  0  0  0  0  0
  -28.6210  -13.0440   20.9200 C   0  0  0  0  0  2  0  0  0  0  0  0
  -29.9410  -13.3440   20.3370 N   0  0  0  0  0  0  0  0  0  0  0  0
  -31.8100  -14.6020   20.0400 O   0  0  0  0  0  0  0  0  0  0  0  0
  -29.0090  -17.6930   20.3910 C   0  0  0  0  0  2  0  0  0  0  0  0
  -28.8820  -16.1750   20.3560 C   0  0  0  0  0  2  0  0  0  0  0  0
  -30.8120  -16.7110   21.6030 C   0  0  0  0  0  2  0  0  0  0  0  0
  -30.4590  -17.9550   20.7650 C   0  0  0  0  0  3  0  0  0  0  0  0
  -30.0460  -15.5820   21.0310 N   0  0  0  0  0  0  0  0  0  0  0  0
  -25.1630  -13.8070   20.5340 C   0  0  0  0  0  0  0  0  0  0  0  0
  -24.0970  -13.0360   20.9120 C   0  0  0  0  0  0  0  0  0  0  0  0
  -24.5620  -11.6850   20.8850 C   0  0  0  0  0  0  0  0  0  0  0  0
  -26.2060  -12.9210   20.3030 N   0  0  0  0  0  0  0  0  0  0  0  0
  -25.8500  -11.6420   20.5760 N   0  0  0  0  0  0  0  0  0  0  0  0
  -23.8410  -10.4230   21.0780 C   0  0  0  0  0  0  0  0  0  0  0  0
  -24.2930   -9.4510   21.9950 C   0  0  0  0  0  3  0  0  0  0  0  0
  -23.5720   -8.2510   22.1760 C   0  0  0  0  0  3  0  0  0  0  0  0
  -22.3860   -8.0180   21.4400 C   0  0  0  0  0  0  0  0  0  0  0  0
  -21.9560   -8.9800   20.5100 C   0  0  0  0  0  3  0  0  0  0  0  0
  -22.6760  -10.1710   20.3270 C   0  0  0  0  0  3  0  0  0  0  0  0
  -21.6350   -6.8710   21.5320 O   0  0  0  0  0  0  0  0  0  0  0  0
  -21.6240   -6.1100   22.6740 C   0  0  0  0  0  0  0  0  0  0  0  0
  -21.2530   -6.6480   23.9270 C   0  0  0  0  0  3  0  0  0  0  0  0
  -21.1890   -5.8120   25.0590 C   0  0  0  0  0  3  0  0  0  0  0  0
  -21.4850   -4.4400   24.9400 C   0  0  0  0  0  0  0  0  0  0  0  0
  -21.8480   -3.9030   23.6930 C   0  0  0  0  0  3  0  0  0  0  0  0
  -21.9160   -4.7360   22.5630 C   0  0  0  0  0  0  0  0  0  0  0  0
  -22.2440   -4.2100   21.3580 F   0  0  0  0  0  0  0  0  0  0  0  0
  -21.4160   -3.6350   26.0260 F   0  0  0  0  0  0  0  0  0  0  0  0
  -22.7000  -13.5110   21.1840 C   0  0  0  0  0  0  0  0  0  0  0  0
  -21.9750  -12.8180   22.0550 N   0  0  0  0  0  0  0  0  0  0  0  0
  -22.2580  -14.5330   20.6600 O   0  0  0  0  0  0  0  0  0  0  0  0
  -22.3430  -11.9920   22.5020 H   0  0  0  0  0  0  0  0  0  0  0  0
  -21.0370  -13.1190   22.2790 H   0  0  0  0  0  0  0  0  0  0  0  0
  -25.3160  -15.1760   20.3430 N   0  0  0  0  0  0  0  0  0  0  0  0
  -24.5410  -15.8210   20.4490 H   0  0  0  0  0  0  0  0  0  0  0  0
  -26.1520  -15.6200   19.9840 H   0  0  0  0  0  0  0  0  0  0  0  0
  -29.7680  -24.7460   19.5700 C   0  0  0  0  0  2  0  0  0  0  0  0
  -28.3550  -25.3770   19.6020 C   0  0  0  0  0  2  0  0  0  0  0  0
  -28.3580  -26.7120   20.1350 O   0  0  0  0  0  0  0  0  0  0  0  0
  -24.5740  -31.8940   23.2410 C   0  0  0  0  0  0  0  0  0  0  0  0
  -27.1670  -27.4220   20.1340 C   0  0  0  0  0  0  0  0  0  0  0  0
  -23.3440  -30.4910   21.6190 C   0  0  0  0  0  3  0  0  0  0  0  0
  -24.7740  -28.9460   20.1810 C   0  0  0  0  0  0  0  0  0  0  0  0
  -25.8720  -30.8310   21.3990 C   0  0  0  0  0  2  0  0  0  0  0  0
  -25.9420  -29.4610   20.7560 C   0  0  0  0  0  0  0  0  0  0  0  0
  -27.1370  -28.7060   20.7300 C   0  0  0  0  0  3  0  0  0  0  0  0
  -25.9700  -26.9220   19.5650 C   0  0  0  0  0  3  0  0  0  0  0  0
  -24.7820  -27.6750   19.5860 C   0  0  0  0  0  3  0  0  0  0  0  0
  -23.5360  -29.8120   20.2380 C   0  0  0  0  0  2  0  0  0  0  0  0
  -24.6170  -31.0840   22.1460 N   0  0  0  0  0  0  0  0  0  0  0  0
  -23.4950  -32.1960   23.7690 O   0  0  0  0  0  0  0  0  0  0  0  0
  -22.6960  -29.4730   22.5850 C   0  0  0  0  0  0  0  0  0  0  0  0
  -21.3720  -29.2880   22.4600 N   0  0  0  0  0  0  0  0  0  0  0  0
  -23.3830  -28.8510   23.4000 O   0  0  0  0  0  0  0  0  0  0  0  0
  -20.8800  -29.8420   21.7730 H   0  0  0  0  0  0  0  0  0  0  0  0
  -18.0030  -28.0800   22.9560 C   0  0  0  0  0  0  0  0  0  0  0  0
  -20.5580  -28.3530   23.2360 C   0  0  0  0  0  3  0  0  0  0  0  0
  -20.6700  -26.9170   22.6710 C   0  0  0  0  0  2  0  0  0  0  0  0
  -19.5740  -26.5810   21.6550 C   0  0  0  0  0  2  0  0  0  0  0  0
  -18.1890  -26.7250   22.2930 C   0  0  0  0  0  2  0  0  0  0  0  0
  -19.1150  -28.8500   23.3850 C   0  0  0  0  0  0  0  0  0  0  0  0
  -18.8890  -30.1180   23.9640 C   0  0  0  0  0  3  0  0  0  0  0  0
  -17.5810  -30.6140   24.1200 C   0  0  0  0  0  3  0  0  0  0  0  0
  -16.4820  -29.8420   23.7080 C   0  0  0  0  0  3  0  0  0  0  0  0
  -16.6940  -28.5760   23.1330 C   0  0  0  0  0  3  0  0  0  0  0  0
  -25.8710  -32.5070   23.8570 C   0  0  0  0  0  3  0  0  0  0  0  0
  -26.3960  -31.7260   25.1230 C   0  0  1  0  0  0  0  0  0  0  0  0
  -25.3130  -31.4900   26.2010 C   0  0  0  0  0  1  0  0  0  0  0  0
  -26.9660  -30.3450   24.7190 C   0  0  0  0  0  1  0  0  0  0  0  0
  -27.5610  -32.5080   25.7760 C   0  0  0  0  0  1  0  0  0  0  0  0
  -25.5780  -33.9050   24.1950 N   0  0  0  0  0  0  0  0  0  0  0  0
  -25.9060  -34.9550   23.4330 C   0  0  0  0  0  0  0  0  0  0  0  0
  -26.5630  -34.8490   22.3920 O   0  0  0  0  0  0  0  0  0  0  0  0
  -24.9970  -34.0630   25.0050 H   0  0  0  0  0  0  0  0  0  0  0  0
  -24.1820  -36.7550   23.0990 C   0  0  0  0  0  1  0  0  0  0  0  0
  -25.4310  -36.3450   23.8960 C   0  0  0  0  0  3  0  0  0  0  0  0
  -27.5810  -37.2160   24.6990 C   0  0  0  0  0  1  0  0  0  0  0  0
  -26.4660  -37.3930   23.7720 N   0  0  0  0  0  0  0  0  0  0  0  0
  -26.0670  -38.3140   23.9280 H   0  0  0  0  0  0  0  0  0  0  0  0
  2  1  1  0
  3  4  1  0
  4  7  1  0
  4  1  1  0
  5  2  1  0
  5  3  1  0
  5  6  1  1
  7  8  1  0
  8 10  1  0
  9  7  2  0
 11 23  1  0
 12 17  1  0
 13 14  1  0
 13 12  1  0
 15 14  1  0
 15 27  1  0
 15 16  1  0
 17 11  1  0
 17 16  1  0
 18 11  2  0
 19 22  1  0
 20 19  1  0
 20 23  1  0
 22  8  1  0
 22 21  1  0
 23 21  1  0
 24 25  2  0
 25 44  1  0
 26 25  1  0
 26 29  1  0
 27 24  1  0
 27 28  1  0
 28 26  2  0
 29 30  1  0
 30 31  2  0
 32 35  1  0
 32 31  1  0
 33 32  2  0
 34 33  1  0
 34 29  2  0
 35 36  1  0
 36 37  1  0
 37 38  2  0
 39 38  1  0
 39 43  1  0
 40 39  2  0
 41 36  2  0
 41 40  1  0
 42 41  1  0
 44 45  1  0
 45 48  1  0
 45 47  1  0
 46 44  2  0
 49 50  1  0
 49 24  1  0
 51 49  1  0
 52 53  1  0
 52  5  1  0
 53 54  1  0
 55 66  2  0
 56 54  1  0
 56 61  1  0
 57 65  1  0
 57 67  1  0
 58 64  1  0
 58 60  1  0
 59 65  1  0
 60 59  1  0
 61 60  2  0
 62 63  1  0
 62 56  2  0
 63 58  2  0
 64 57  1  0
 65 55  1  0
 67 69  2  0
 68 67  1  0
 70 68  1  0
 71 80  2  0
 71 76  1  0
 72 68  1  0
 72 76  1  0
 73 72  1  0
 74 75  1  0
 74 73  1  0
 75 71  1  0
 76 77  2  0
 77 78  1  0
 79 78  2  0
 80 79  1  0
 81 55  1  0
 81 86  1  0
 81 82  1  0
 82 85  1  1
 82 83  1  0
 84 82  1  0
 86 89  1  0
 87 91  1  0
 87 86  1  0
 88 87  2  0
 91 90  1  0
 93 91  1  0
 93 94  1  0
 93 92  1  0
M  ISO  4  11 100  23 100  53 101  54 101
M  END
>  <TORSDO>  (28) 
F 19

>  <SCORE>  (28) 
-14.097

>  <name>  (28) 
27

>  <ligand_id>  (28) 
27

>  <original_smiles>  (28) 
[H]c1c([H])c([H])c2c(c1[H])C([H])([H])C([H])([H])C([H])([H])C2([H])N([H])C(=O)C1([H])N(C(=O)C([H])(N([H])C(=O)C([H])(N([H])C([H])([H])[H])C([H])([H])[H])C(C([H])([H])[H])(C([H])([H])[H])C([H])([H])[H])C([H])([H])c2c([H])c(OC([H])([H])C([H])([H])[N+]3([H])C([H])([H])C([H])([H])C([H])(C(=O)N([H])C4([H])C([H])([H])N(C(=O)N5C([H])([H])C([H])([H])C([H])([H])C([H])(n6nc(-c7c([H])c([H])c(Oc8c([H])c([H])c(F)c([H])c8F)c([H])c7[H])c(C(=O)N([H])[H])c6N([H])[H])C5([H])[H])C([H])([H])C4([H])[H])C3([H])[H])c([H])c([H])c2C1([H])[H]

>  <smiles>  (28) 
[H]c1c([H])c([H])c2c(c1[H])C([H])([H])C([H])([H])C([H])([H])C2([H])N([H])C(=O)C1([H])N(C(=O)C([H])(N([H])C(=O)C([H])(N([H])C([H])([H])[H])C([H])([H])[H])C(C([H])([H])[H])(C([H])([H])[H])C([H])([H])[H])C([H])([H])c2c([H])c(OC([H])([H])C([H])([H])[N+]3([H])C([H])([H])C([H])([H])C([H])(C(=O)N([H])C4([H])C([H])([H])N(C(=O)N5C([H])([H])C([H])([H])C([H])([H])C([H])(n6nc(-c7c([H])c([H])c(Oc8c([H])c([H])c(F)c([H])c8F)c([H])c7[H])c(C(=O)N([H])[H])c6N([H])[H])C5([H])[H])C([H])([H])C4([H])[H])C3([H])[H])c([H])c([H])c2C1([H])[H]

> <Step>
193.0

> <Scaffold>
O=C(NC1CCN(C(=O)N2CCCC(n3ccc(-c4ccc(Oc5ccccc5)cc4)n3)C2)C1)C1CCN(CCOc2ccc3c(c2)CNC(C(=O)NC2CCCc4ccccc42)C3)C1

> <SMILES>
CNC(C)C(=O)NC(C(=O)N1Cc2cc(OCCN3CCC(C(=O)NC4CCN(C(=O)N5CCCC(n6nc(-c7ccc(Oc8ccc(F)cc8F)cc7)c(C(N)=O)c6N)C5)C4)C3)ccc2CC1C(=O)NC1CCCc2ccccc21)C(C)(C)C

> <Tanimoto ROCS sim>
0.2689811885356903

> <Custom alerts>
1.0

> <Linker Num Aromatic Rings>
1.0

> <Linker Effective Length>
1.0

> <ADV>
0.994868278503418

> <PostDock Tanimoto ROCS sim>
0.9924096465110779

> <raw_Linker Num Aromatic Rings>
0.0

> <raw_Linker Effective Length>
9.0

> <raw_ADV>
-14.149999618530273

> <total_score>
0.9968194961547852

> <ID>
default_job_27

> <PostDock Tanimoto ROCS sim (re-score)>
0.9861702

> <raw_ADV (re-score)>
-14.097

> <Final Intermolecular Energy>
-29.343

> <Final Total Internal Energy>
-2.838

> <Torsional Free Energy>
15.246

> <Unbound System's Energy>
-2.838

$$$$
default_job_28
     RDKit          3D

 95104  0  0  1  0  0  0  0  0999 V2000
  -29.9740  -21.2940   21.4580 O   0  0  0  0  0  0  0  0  0  0  0  0
  -30.9410  -17.7000   21.5130 C   0  0  0  0  0  3  0  0  0  0  0  0
  -28.9320  -19.3070   20.3670 C   0  0  0  0  0  3  0  0  0  0  0  0
  -30.9560  -19.1080   21.6840 C   0  0  0  0  0  0  0  0  0  0  0  0
  -29.8970  -17.0660   20.8050 C   0  0  0  0  0  0  0  0  0  0  0  0
  -29.9440  -19.9370   21.1300 C   0  0  0  0  0  0  0  0  0  0  0  0
  -28.8900  -17.8820   20.2200 C   0  0  0  0  0  0  0  0  0  0  0  0
  -32.0650  -19.7410   22.5030 C   0  0  0  0  0  1  0  0  0  0  0  0
  -30.5780  -14.6200   20.4750 C   0  0  0  0  0  0  0  0  0  0  0  0
  -30.3720  -12.4160   19.3570 C   0  0  0  0  0  2  0  0  0  0  0  0
  -29.4250  -12.5810   18.1470 C   0  0  0  0  0  2  0  0  0  0  0  0
  -27.9490  -12.4320   18.5700 C   0  0  0  0  0  2  0  0  0  0  0  0
  -27.5960  -13.2770   19.8230 C   0  0  0  0  0  3  0  0  0  0  0  0
  -28.6490  -13.0680   20.9360 C   0  0  0  0  0  2  0  0  0  0  0  0
  -29.9670  -13.4050   20.3690 N   0  0  0  0  0  0  0  0  0  0  0  0
  -31.7440  -14.8090   20.1140 O   0  0  0  0  0  0  0  0  0  0  0  0
  -29.7310  -15.6340   20.7900 N   0  0  0  0  0  0  0  0  0  0  0  0
  -28.7730  -15.3310   20.8680 H   0  0  0  0  0  0  0  0  0  0  0  0
  -25.1990  -13.8950   20.5190 C   0  0  0  0  0  0  0  0  0  0  0  0
  -24.1270  -13.1280   20.8840 C   0  0  0  0  0  0  0  0  0  0  0  0
  -24.5840  -11.7740   20.8620 C   0  0  0  0  0  0  0  0  0  0  0  0
  -26.2420  -13.0090   20.2970 N   0  0  0  0  0  0  0  0  0  0  0  0
  -25.8760  -11.7290   20.5630 N   0  0  0  0  0  0  0  0  0  0  0  0
  -23.8530  -10.5160   21.0540 C   0  0  0  0  0  0  0  0  0  0  0  0
  -24.2810   -9.5480   21.9890 C   0  0  0  0  0  3  0  0  0  0  0  0
  -23.5520   -8.3530   22.1680 C   0  0  0  0  0  3  0  0  0  0  0  0
  -22.3810   -8.1170   21.4090 C   0  0  0  0  0  0  0  0  0  0  0  0
  -21.9720   -9.0730   20.4620 C   0  0  0  0  0  3  0  0  0  0  0  0
  -22.7020  -10.2590   20.2830 C   0  0  0  0  0  3  0  0  0  0  0  0
  -21.6230   -6.9740   21.4970 O   0  0  0  0  0  0  0  0  0  0  0  0
  -21.5710   -6.2320   22.6490 C   0  0  0  0  0  0  0  0  0  0  0  0
  -21.1420   -6.7860   23.8750 C   0  0  0  0  0  3  0  0  0  0  0  0
  -21.0370   -5.9700   25.0190 C   0  0  0  0  0  3  0  0  0  0  0  0
  -21.3510   -4.6010   24.9380 C   0  0  0  0  0  0  0  0  0  0  0  0
  -21.7740   -4.0450   23.7180 C   0  0  0  0  0  3  0  0  0  0  0  0
  -21.8800   -4.8590   22.5750 C   0  0  0  0  0  0  0  0  0  0  0  0
  -22.2660   -4.3140   21.3970 F   0  0  0  0  0  0  0  0  0  0  0  0
  -21.2430   -3.8140   26.0350 F   0  0  0  0  0  0  0  0  0  0  0  0
  -22.7280  -13.6100   21.1450 C   0  0  0  0  0  0  0  0  0  0  0  0
  -21.9920  -12.9180   22.0080 N   0  0  0  0  0  0  0  0  0  0  0  0
  -22.2980  -14.6360   20.6190 O   0  0  0  0  0  0  0  0  0  0  0  0
  -22.3530  -12.0890   22.4560 H   0  0  0  0  0  0  0  0  0  0  0  0
  -21.0550  -13.2240   22.2250 H   0  0  0  0  0  0  0  0  0  0  0  0
  -25.3690  -15.2640   20.3380 N   0  0  0  0  0  0  0  0  0  0  0  0
  -24.5990  -15.9150   20.4450 H   0  0  0  0  0  0  0  0  0  0  0  0
  -26.2240  -15.7090   20.0240 H   0  0  0  0  0  0  0  0  0  0  0  0
  -26.9300  -17.9950   18.8310 C   0  0  0  0  0  1  0  0  0  0  0  0
  -27.8840  -17.2180   19.5450 O   0  0  0  0  0  0  0  0  0  0  0  0
  -27.6330  -24.2270   20.3740 C   0  0  0  0  0  2  0  0  0  0  0  0
  -30.0170  -24.9040   20.2830 C   0  0  0  0  0  2  0  0  0  0  0  0
  -28.0410  -22.8510   21.0080 C   0  0  0  0  0  2  0  0  0  0  0  0
  -30.4410  -23.5440   20.8940 C   0  0  0  0  0  2  0  0  0  0  0  0
  -28.6140  -25.3850   20.7250 C   0  0  0  0  0  3  0  0  0  0  0  0
  -29.4680  -22.3690   20.6260 C   0  0  0  0  0  3  0  0  0  0  0  0
  -28.4390  -26.7020   20.1180 O   0  0  0  0  0  0  0  0  0  0  0  0
  -24.6240  -31.9410   23.2650 C   0  0  0  0  0  0  0  0  0  0  0  0
  -27.2580  -27.4230   20.2250 C   0  0  0  0  0  0  0  0  0  0  0  0
  -23.4200  -30.5290   21.6330 C   0  0  0  0  0  3  0  0  0  0  0  0
  -24.8720  -28.9730   20.2220 C   0  0  0  0  0  0  0  0  0  0  0  0
  -25.9520  -30.8640   21.4450 C   0  0  0  0  0  2  0  0  0  0  0  0
  -26.0340  -29.4850   20.8140 C   0  0  0  0  0  0  0  0  0  0  0  0
  -27.2310  -28.7200   20.8050 C   0  0  0  0  0  3  0  0  0  0  0  0
  -26.0790  -26.9440   19.6180 C   0  0  0  0  0  3  0  0  0  0  0  0
  -24.8920  -27.7030   19.6210 C   0  0  0  0  0  3  0  0  0  0  0  0
  -23.6330  -29.8420   20.2580 C   0  0  0  0  0  2  0  0  0  0  0  0
  -24.6850  -31.1250   22.1740 N   0  0  0  0  0  0  0  0  0  0  0  0
  -23.5370  -32.2420   23.7770 O   0  0  0  0  0  0  0  0  0  0  0  0
  -22.7620  -29.5130   22.5970 C   0  0  0  0  0  0  0  0  0  0  0  0
  -21.4400  -29.3250   22.4620 N   0  0  0  0  0  0  0  0  0  0  0  0
  -23.4420  -28.8940   23.4200 O   0  0  0  0  0  0  0  0  0  0  0  0
  -20.9520  -29.8750   21.7690 H   0  0  0  0  0  0  0  0  0  0  0  0
  -18.0660  -28.1160   22.9410 C   0  0  0  0  0  0  0  0  0  0  0  0
  -20.6210  -28.3870   23.2310 C   0  0  0  0  0  3  0  0  0  0  0  0
  -20.7330  -26.9540   22.6610 C   0  0  0  0  0  2  0  0  0  0  0  0
  -19.6400  -26.6230   21.6390 C   0  0  0  0  0  2  0  0  0  0  0  0
  -18.2530  -26.7650   22.2730 C   0  0  0  0  0  2  0  0  0  0  0  0
  -19.1780  -28.8850   23.3770 C   0  0  0  0  0  0  0  0  0  0  0  0
  -18.9490  -30.1500   23.9600 C   0  0  0  0  0  3  0  0  0  0  0  0
  -17.6410  -30.6460   24.1140 C   0  0  0  0  0  3  0  0  0  0  0  0
  -16.5440  -29.8750   23.6960 C   0  0  0  0  0  3  0  0  0  0  0  0
  -16.7570  -28.6120   23.1140 C   0  0  0  0  0  3  0  0  0  0  0  0
  -25.9100  -32.5630   23.8950 C   0  0  0  0  0  3  0  0  0  0  0  0
  -26.4180  -31.7930   25.1760 C   0  0  1  0  0  0  0  0  0  0  0  0
  -25.3170  -31.5640   26.2390 C   0  0  0  0  0  1  0  0  0  0  0  0
  -26.9960  -30.4110   24.7920 C   0  0  0  0  0  1  0  0  0  0  0  0
  -27.5680  -32.5840   25.8420 C   0  0  0  0  0  1  0  0  0  0  0  0
  -25.6090  -33.9630   24.2200 N   0  0  0  0  0  0  0  0  0  0  0  0
  -25.9380  -35.0090   23.4520 C   0  0  0  0  0  0  0  0  0  0  0  0
  -26.6020  -34.8970   22.4170 O   0  0  0  0  0  0  0  0  0  0  0  0
  -25.0190  -34.1250   25.0240 H   0  0  0  0  0  0  0  0  0  0  0  0
  -24.2080  -36.7990   23.0950 C   0  0  0  0  0  1  0  0  0  0  0  0
  -25.4550  -36.4010   23.9010 C   0  0  0  0  0  3  0  0  0  0  0  0
  -27.5970  -37.2900   24.7090 C   0  0  0  0  0  1  0  0  0  0  0  0
  -26.4870  -37.4520   23.7730 N   0  0  0  0  0  0  0  0  0  0  0  0
  -26.0830  -38.3730   23.9160 H   0  0  0  0  0  0  0  0  0  0  0  0
  2  4  1  0
  3  6  1  0
  4  8  1  0
  5  2  2  0
  6  1  1  0
  6  4  2  0
  7  3  2  0
  7  5  1  0
  9 17  1  0
 10 15  1  0
 11 12  1  0
 11 10  1  0
 13 12  1  0
 13 22  1  0
 13 14  1  0
 15  9  1  0
 15 14  1  0
 16  9  2  0
 17  5  1  0
 17 18  1  0
 19 20  2  0
 20 39  1  0
 21 20  1  0
 21 24  1  0
 22 19  1  0
 22 23  1  0
 23 21  2  0
 24 25  1  0
 25 26  2  0
 27 30  1  0
 27 26  1  0
 28 27  2  0
 29 28  1  0
 29 24  2  0
 30 31  1  0
 31 32  1  0
 32 33  2  0
 34 33  1  0
 34 38  1  0
 35 34  2  0
 36 31  2  0
 36 35  1  0
 37 36  1  0
 39 40  1  0
 40 43  1  0
 40 42  1  0
 41 39  2  0
 44 45  1  0
 44 19  1  0
 46 44  1  0
 47 48  1  0
 48  7  1  0
 49 53  1  0
 49 51  1  0
 50 53  1  0
 50 52  1  0
 53 55  1  0
 54 52  1  0
 54 51  1  0
 54  1  1  0
 55 57  1  0
 56 67  2  0
 57 62  1  0
 58 66  1  0
 58 68  1  0
 59 65  1  0
 59 61  1  0
 60 66  1  0
 61 60  1  0
 62 61  2  0
 63 64  1  0
 63 57  2  0
 64 59  2  0
 65 58  1  0
 66 56  1  0
 68 70  2  0
 69 68  1  0
 71 69  1  0
 72 81  2  0
 72 77  1  0
 73 69  1  0
 73 77  1  0
 74 73  1  0
 75 76  1  0
 75 74  1  0
 76 72  1  0
 77 78  2  0
 78 79  1  0
 80 79  2  0
 81 80  1  0
 82 56  1  0
 82 87  1  0
 82 83  1  0
 83 86  1  1
 83 84  1  0
 85 83  1  0
 87 90  1  0
 88 92  1  0
 88 87  1  0
 89 88  2  0
 92 91  1  0
 94 92  1  0
 94 95  1  0
 94 93  1  0
M  ISO  4   9 100  17 100  53 101  55 101
M  END
>  <TORSDO>  (29) 
F 19

>  <SCORE>  (29) 
-14.683

>  <name>  (29) 
28

>  <ligand_id>  (29) 
28

>  <original_smiles>  (29) 
[H]c1c([H])c([H])c2c(c1[H])C([H])([H])C([H])([H])C([H])([H])C2([H])N([H])C(=O)C1([H])N(C(=O)C([H])(N([H])C(=O)C([H])(N([H])C([H])([H])[H])C([H])([H])[H])C(C([H])([H])[H])(C([H])([H])[H])C([H])([H])[H])C([H])([H])c2c([H])c(OC3([H])C([H])([H])C([H])([H])C([H])(Oc4c([H])c(OC([H])([H])[H])c(N([H])C(=O)N5C([H])([H])C([H])([H])C([H])([H])C([H])(n6nc(-c7c([H])c([H])c(Oc8c([H])c([H])c(F)c([H])c8F)c([H])c7[H])c(C(=O)N([H])[H])c6N([H])[H])C5([H])[H])c([H])c4C([H])([H])[H])C([H])([H])C3([H])[H])c([H])c([H])c2C1([H])[H]

>  <smiles>  (29) 
[H]c1c([H])c([H])c2c(c1[H])C([H])([H])C([H])([H])C([H])([H])C2([H])N([H])C(=O)C1([H])N(C(=O)C([H])(N([H])C(=O)C([H])(N([H])C([H])([H])[H])C([H])([H])[H])C(C([H])([H])[H])(C([H])([H])[H])C([H])([H])[H])C([H])([H])c2c([H])c(OC3([H])C([H])([H])C([H])([H])C([H])(Oc4c([H])c(OC([H])([H])[H])c(N([H])C(=O)N5C([H])([H])C([H])([H])C([H])([H])C([H])(n6nc(-c7c([H])c([H])c(Oc8c([H])c([H])c(F)c([H])c8F)c([H])c7[H])c(C(=O)N([H])[H])c6N([H])[H])C5([H])[H])c([H])c4C([H])([H])[H])C([H])([H])C3([H])[H])c([H])c([H])c2C1([H])[H]

> <Step>
148.0

> <Scaffold>
O=C(NC1CCCc2ccccc21)C1Cc2ccc(OC3CCC(Oc4ccc(NC(=O)N5CCCC(n6ccc(-c7ccc(Oc8ccccc8)cc7)n6)C5)cc4)CC3)cc2CN1

> <SMILES>
CNC(C)C(=O)NC(C(=O)N1Cc2cc(OC3CCC(Oc4cc(OC)c(NC(=O)N5CCCC(n6nc(-c7ccc(Oc8ccc(F)cc8F)cc7)c(C(N)=O)c6N)C5)cc4C)CC3)ccc2CC1C(=O)NC1CCCc2ccccc21)C(C)(C)C

> <Tanimoto ROCS sim>
0.31440192461013794

> <Custom alerts>
1.0

> <Linker Num Aromatic Rings>
1.0

> <Linker Effective Length>
1.0

> <ADV>
0.9963026642799377

> <PostDock Tanimoto ROCS sim>
0.9909509420394897

> <raw_Linker Num Aromatic Rings>
1.0

> <raw_Linker Effective Length>
9.0

> <raw_ADV>
-14.722000122070312

> <total_score>
0.9968134164810181

> <ID>
default_job_28

> <PostDock Tanimoto ROCS sim (re-score)>
0.97960025

> <raw_ADV (re-score)>
-14.683

> <Final Intermolecular Energy>
-30.562

> <Final Total Internal Energy>
-3.361

> <Torsional Free Energy>
15.88

> <Unbound System's Energy>
-3.361

$$$$
default_job_29
     RDKit          3D

 93102  0  0  1  0  0  0  0  0999 V2000
  -30.5300  -19.5240   21.2130 C   0  0  0  0  0  3  0  0  0  0  0  0
  -28.5870  -18.4270   20.3250 C   0  0  0  0  0  3  0  0  0  0  0  0
  -29.8490  -18.3050   20.9470 C   0  0  0  0  0  0  0  0  0  0  0  0
  -29.9670  -20.7670   20.8290 C   0  0  0  0  0  0  0  0  0  0  0  0
  -28.7050  -20.7630   20.2060 C   0  0  0  0  0  0  0  0  0  0  0  0
  -30.3240  -22.9830   20.0850 C   0  0  0  0  0  3  0  0  0  0  0  0
  -28.7910  -23.2050   19.9200 C   0  0  0  0  0  3  0  0  0  0  0  0
  -31.0100  -22.6360   18.7500 C   0  0  0  0  0  1  0  0  0  0  0  0
  -28.0270  -19.6170   19.9660 N   0  0  0  0  0  0  0  0  0  0  0  0
  -30.6360  -21.9520   21.0310 O   0  0  0  0  0  0  0  0  0  0  0  0
  -28.0940  -21.9350   19.7710 O   0  0  0  0  0  0  0  0  0  0  0  0
  -30.5130  -16.9580   21.3680 C   0  0  0  0  0  2  0  0  0  0  0  0
  -30.6480  -14.5880   20.4550 C   0  0  0  0  0  0  0  0  0  0  0  0
  -30.3620  -12.4150   19.2940 C   0  0  0  0  0  2  0  0  0  0  0  0
  -29.4050  -12.5960   18.0970 C   0  0  0  0  0  2  0  0  0  0  0  0
  -27.9370  -12.4450   18.5420 C   0  0  0  0  0  2  0  0  0  0  0  0
  -27.6060  -13.2740   19.8110 C   0  0  0  0  0  3  0  0  0  0  0  0
  -28.6750  -13.0720   20.9080 C   0  0  0  0  0  2  0  0  0  0  0  0
  -29.9800  -13.4040   20.3190 N   0  0  0  0  0  0  0  0  0  0  0  0
  -31.7940  -14.7370   20.0240 O   0  0  0  0  0  0  0  0  0  0  0  0
  -29.9470  -15.6370   20.9670 N   0  0  0  0  0  0  0  0  0  0  0  0
  -29.0040  -15.4310   21.2590 H   0  0  0  0  0  0  0  0  0  0  0  0
  -25.2170  -13.8690   20.5450 C   0  0  0  0  0  0  0  0  0  0  0  0
  -24.1530  -13.0920   20.9190 C   0  0  0  0  0  0  0  0  0  0  0  0
  -24.6170  -11.7420   20.8770 C   0  0  0  0  0  0  0  0  0  0  0  0
  -26.2620  -12.9910   20.3030 N   0  0  0  0  0  0  0  0  0  0  0  0
  -25.9060  -11.7060   20.5600 N   0  0  0  0  0  0  0  0  0  0  0  0
  -23.8950  -10.4780   21.0670 C   0  0  0  0  0  0  0  0  0  0  0  0
  -24.3370   -9.5040   21.9910 C   0  0  0  0  0  3  0  0  0  0  0  0
  -23.6160   -8.3040   22.1670 C   0  0  0  0  0  3  0  0  0  0  0  0
  -22.4350   -8.0700   21.4220 C   0  0  0  0  0  0  0  0  0  0  0  0
  -22.0130   -9.0310   20.4870 C   0  0  0  0  0  3  0  0  0  0  0  0
  -22.7360  -10.2220   20.3070 C   0  0  0  0  0  3  0  0  0  0  0  0
  -21.6840   -6.9230   21.5080 O   0  0  0  0  0  0  0  0  0  0  0  0
  -21.6470   -6.1720   22.6550 C   0  0  0  0  0  0  0  0  0  0  0  0
  -21.2260   -6.7140   23.8890 C   0  0  0  0  0  3  0  0  0  0  0  0
  -21.1380   -5.8890   25.0280 C   0  0  0  0  0  3  0  0  0  0  0  0
  -21.4610   -4.5220   24.9350 C   0  0  0  0  0  0  0  0  0  0  0  0
  -21.8750   -3.9790   23.7050 C   0  0  0  0  0  3  0  0  0  0  0  0
  -21.9650   -4.8010   22.5680 C   0  0  0  0  0  0  0  0  0  0  0  0
  -22.3450   -4.2680   21.3830 F   0  0  0  0  0  0  0  0  0  0  0  0
  -21.3680   -3.7270   26.0260 F   0  0  0  0  0  0  0  0  0  0  0  0
  -22.7580  -13.5650   21.2020 C   0  0  0  0  0  0  0  0  0  0  0  0
  -22.0370  -12.8580   22.0650 N   0  0  0  0  0  0  0  0  0  0  0  0
  -22.3160  -14.5960   20.6950 O   0  0  0  0  0  0  0  0  0  0  0  0
  -22.4080  -12.0250   22.4960 H   0  0  0  0  0  0  0  0  0  0  0  0
  -21.1000  -13.1560   22.3000 H   0  0  0  0  0  0  0  0  0  0  0  0
  -25.3790  -15.2400   20.3700 N   0  0  0  0  0  0  0  0  0  0  0  0
  -24.6080  -15.8900   20.4820 H   0  0  0  0  0  0  0  0  0  0  0  0
  -26.2140  -15.6760   20.0030 H   0  0  0  0  0  0  0  0  0  0  0  0
  -28.0860  -24.1370   20.9680 C   0  0  0  0  0  2  0  0  0  0  0  0
  -28.5930  -25.6100   21.2160 C   0  0  0  0  0  2  0  0  0  0  0  0
  -28.4320  -26.6300   20.1970 O   0  0  0  0  0  0  0  0  0  0  0  0
  -24.6290  -31.9170   23.2640 C   0  0  0  0  0  0  0  0  0  0  0  0
  -27.2870  -27.4060   20.2490 C   0  0  0  0  0  0  0  0  0  0  0  0
  -23.4380  -30.4940   21.6340 C   0  0  0  0  0  3  0  0  0  0  0  0
  -24.9030  -28.9410   20.2300 C   0  0  0  0  0  0  0  0  0  0  0  0
  -25.9710  -30.8400   21.4550 C   0  0  0  0  0  2  0  0  0  0  0  0
  -26.0600  -29.4600   20.8260 C   0  0  0  0  0  0  0  0  0  0  0  0
  -27.2590  -28.7000   20.8290 C   0  0  0  0  0  3  0  0  0  0  0  0
  -26.1150  -26.9110   19.6450 C   0  0  0  0  0  3  0  0  0  0  0  0
  -24.9270  -27.6680   19.6360 C   0  0  0  0  0  3  0  0  0  0  0  0
  -23.6590  -29.8040   20.2620 C   0  0  0  0  0  2  0  0  0  0  0  0
  -24.6980  -31.0970   22.1770 N   0  0  0  0  0  0  0  0  0  0  0  0
  -23.5390  -32.2170   23.7690 O   0  0  0  0  0  0  0  0  0  0  0  0
  -22.7810  -29.4790   22.5980 C   0  0  0  0  0  0  0  0  0  0  0  0
  -21.4570  -29.2900   22.4630 N   0  0  0  0  0  0  0  0  0  0  0  0
  -23.4590  -28.8640   23.4250 O   0  0  0  0  0  0  0  0  0  0  0  0
  -20.9700  -29.8380   21.7670 H   0  0  0  0  0  0  0  0  0  0  0  0
  -18.0830  -28.0830   22.9440 C   0  0  0  0  0  0  0  0  0  0  0  0
  -20.6390  -28.3520   23.2310 C   0  0  0  0  0  3  0  0  0  0  0  0
  -20.7490  -26.9190   22.6610 C   0  0  0  0  0  2  0  0  0  0  0  0
  -19.6550  -26.5880   21.6410 C   0  0  0  0  0  2  0  0  0  0  0  0
  -18.2690  -26.7320   22.2770 C   0  0  0  0  0  2  0  0  0  0  0  0
  -19.1970  -28.8510   23.3780 C   0  0  0  0  0  0  0  0  0  0  0  0
  -18.9710  -30.1160   23.9620 C   0  0  0  0  0  3  0  0  0  0  0  0
  -17.6630  -30.6150   24.1170 C   0  0  0  0  0  3  0  0  0  0  0  0
  -16.5640  -29.8440   23.7000 C   0  0  0  0  0  3  0  0  0  0  0  0
  -16.7750  -28.5800   23.1190 C   0  0  0  0  0  3  0  0  0  0  0  0
  -25.9100  -32.5460   23.8990 C   0  0  0  0  0  3  0  0  0  0  0  0
  -26.4150  -31.7820   25.1850 C   0  0  1  0  0  0  0  0  0  0  0  0
  -25.3120  -31.5490   26.2420 C   0  0  0  0  0  1  0  0  0  0  0  0
  -27.0060  -30.4040   24.8060 C   0  0  0  0  0  1  0  0  0  0  0  0
  -27.5590  -32.5820   25.8530 C   0  0  0  0  0  1  0  0  0  0  0  0
  -25.6010  -33.9460   24.2180 N   0  0  0  0  0  0  0  0  0  0  0  0
  -25.9310  -34.9920   23.4490 C   0  0  0  0  0  0  0  0  0  0  0  0
  -26.6010  -34.8790   22.4190 O   0  0  0  0  0  0  0  0  0  0  0  0
  -25.0040  -34.1080   25.0170 H   0  0  0  0  0  0  0  0  0  0  0  0
  -24.1980  -36.7750   23.0760 C   0  0  0  0  0  1  0  0  0  0  0  0
  -25.4400  -36.3840   23.8910 C   0  0  0  0  0  3  0  0  0  0  0  0
  -27.5710  -37.2810   24.7150 C   0  0  0  0  0  1  0  0  0  0  0  0
  -26.4710  -37.4370   23.7680 N   0  0  0  0  0  0  0  0  0  0  0  0
  -26.0630  -38.3580   23.9030 H   0  0  0  0  0  0  0  0  0  0  0  0
  2  3  2  0
  3  1  1  0
  3 12  1  0
  4 10  1  0
  4  1  2  0
  5  4  1  0
  6  8  1  0
  6 10  1  0
  7  6  1  0
  7 51  1  0
  9  5  2  0
  9  2  1  0
 11  7  1  0
 11  5  1  0
 13 21  1  0
 14 19  1  0
 15 16  1  0
 15 14  1  0
 17 16  1  0
 17 26  1  0
 17 18  1  0
 19 13  1  0
 19 18  1  0
 20 13  2  0
 21 22  1  0
 21 12  1  0
 23 24  2  0
 24 43  1  0
 25 24  1  0
 25 28  1  0
 26 23  1  0
 26 27  1  0
 27 25  2  0
 28 29  1  0
 29 30  2  0
 31 34  1  0
 31 30  1  0
 32 31  2  0
 33 32  1  0
 33 28  2  0
 34 35  1  0
 35 36  1  0
 36 37  2  0
 38 37  1  0
 38 42  1  0
 39 38  2  0
 40 35  2  0
 40 39  1  0
 41 40  1  0
 43 44  1  0
 44 47  1  0
 44 46  1  0
 45 43  2  0
 48 49  1  0
 48 23  1  0
 50 48  1  0
 51 52  1  0
 53 55  1  0
 53 52  1  0
 54 65  2  0
 55 60  1  0
 56 64  1  0
 56 66  1  0
 57 63  1  0
 57 59  1  0
 58 64  1  0
 59 60  2  0
 59 58  1  0
 61 55  2  0
 62 61  1  0
 62 57  2  0
 63 56  1  0
 64 54  1  0
 66 68  2  0
 67 66  1  0
 69 67  1  0
 70 79  2  0
 70 75  1  0
 71 67  1  0
 71 75  1  0
 72 71  1  0
 73 74  1  0
 73 72  1  0
 74 70  1  0
 75 76  2  0
 76 77  1  0
 78 77  2  0
 79 78  1  0
 80 54  1  0
 80 85  1  0
 80 81  1  0
 81 84  1  1
 81 82  1  0
 83 81  1  0
 85 88  1  0
 86 90  1  0
 86 85  1  0
 87 86  2  0
 90 89  1  0
 92 90  1  0
 92 93  1  0
 92 91  1  0
M  ISO  4  13 100  21 100  52 101  53 101
M  END
>  <TORSDO>  (30) 
F 19

>  <SCORE>  (30) 
-14.642

>  <name>  (30) 
29

>  <ligand_id>  (30) 
29

>  <original_smiles>  (30) 
[H]c1nc2c(c([H])c1C([H])([H])N([H])C(=O)N1C([H])([H])C([H])([H])C([H])([H])C([H])(n3nc(-c4c([H])c([H])c(Oc5c([H])c([H])c(F)c([H])c5F)c([H])c4[H])c(C(=O)N([H])[H])c3N([H])[H])C1([H])[H])OC([H])(C([H])([H])[H])C([H])(C([H])([H])C([H])([H])Oc1c([H])c([H])c3c(c1[H])C([H])([H])N(C(=O)C([H])(N([H])C(=O)C([H])(N([H])C([H])([H])[H])C([H])([H])[H])C(C([H])([H])[H])(C([H])([H])[H])C([H])([H])[H])C([H])(C(=O)N([H])C1([H])c4c([H])c([H])c([H])c([H])c4C([H])([H])C([H])([H])C1([H])[H])C3([H])[H])O2

>  <smiles>  (30) 
[H]c1nc2c(c([H])c1C([H])([H])N([H])C(=O)N1C([H])([H])C([H])([H])C([H])([H])C([H])(n3nc(-c4c([H])c([H])c(Oc5c([H])c([H])c(F)c([H])c5F)c([H])c4[H])c(C(=O)N([H])[H])c3N([H])[H])C1([H])[H])OC([H])(C([H])([H])[H])C([H])(C([H])([H])C([H])([H])Oc1c([H])c([H])c3c(c1[H])C([H])([H])N(C(=O)C([H])(N([H])C(=O)C([H])(N([H])C([H])([H])[H])C([H])([H])[H])C(C([H])([H])[H])(C([H])([H])[H])C([H])([H])[H])C([H])(C(=O)N([H])C1([H])c4c([H])c([H])c([H])c([H])c4C([H])([H])C([H])([H])C1([H])[H])C3([H])[H])O2

> <Step>
120.0

> <Scaffold>
O=C(NC1CCCc2ccccc21)C1Cc2ccc(OCCC3COc4cc(CNC(=O)N5CCCC(n6ccc(-c7ccc(Oc8ccccc8)cc7)n6)C5)cnc4O3)cc2CN1

> <SMILES>
CNC(C)C(=O)NC(C(=O)N1Cc2cc(OCCC3Oc4ncc(CNC(=O)N5CCCC(n6nc(-c7ccc(Oc8ccc(F)cc8F)cc7)c(C(N)=O)c6N)C5)cc4OC3C)ccc2CC1C(=O)NC1CCCc2ccccc21)C(C)(C)C

> <Tanimoto ROCS sim>
0.22570931911468506

> <Custom alerts>
1.0

> <Linker Num Aromatic Rings>
1.0

> <Linker Effective Length>
1.0

> <ADV>
0.9961357116699219

> <PostDock Tanimoto ROCS sim>
0.9910759329795837

> <raw_Linker Num Aromatic Rings>
1.0

> <raw_Linker Effective Length>
9.0

> <raw_ADV>
-14.645000457763672

> <total_score>
0.9968029260635376

> <ID>
default_job_29

> <PostDock Tanimoto ROCS sim (re-score)>
0.98176575

> <raw_ADV (re-score)>
-14.642

> <Final Intermolecular Energy>
-30.478

> <Final Total Internal Energy>
-2.985

> <Torsional Free Energy>
15.836

> <Unbound System's Energy>
-2.985

$$$$
default_job_30
     RDKit          3D

 97106  0  0  1  0  0  0  0  0999 V2000
  -29.8460  -22.4130   20.3660 C   0  0  0  0  0  0  0  0  0  0  0  0
  -29.6060  -21.1420   20.0250 N   0  0  0  0  0  0  0  0  0  0  0  0
  -30.6040  -22.7320   21.2830 O   0  0  0  0  0  0  0  0  0  0  0  0
  -28.9160  -20.9960   19.3000 H   0  0  0  0  0  0  0  0  0  0  0  0
  -28.0240  -24.2620   20.1260 C   0  0  0  0  0  2  0  0  0  0  0  0
  -29.1670  -23.4680   19.4770 C   0  0  0  0  0  3  0  0  0  0  0  0
  -29.8950  -24.8240   19.3100 C   0  0  0  0  0  3  0  0  0  0  0  0
  -28.4910  -25.4490   19.2640 C   0  0  0  0  0  3  0  0  0  0  0  0
  -30.8510  -25.0400   18.1450 C   0  0  0  0  0  1  0  0  0  0  0  0
  -28.4420  -26.7330   19.8800 O   0  0  0  0  0  0  0  0  0  0  0  0
  -24.5510  -31.7370   23.0970 C   0  0  0  0  0  0  0  0  0  0  0  0
  -27.2380  -27.4060   19.8920 C   0  0  0  0  0  0  0  0  0  0  0  0
  -23.3560  -30.3610   21.4240 C   0  0  0  0  0  3  0  0  0  0  0  0
  -24.8210  -28.8780   19.9580 C   0  0  0  0  0  0  0  0  0  0  0  0
  -25.8790  -30.7460   21.2380 C   0  0  0  0  0  2  0  0  0  0  0  0
  -25.9740  -29.3950   20.5630 C   0  0  0  0  0  0  0  0  0  0  0  0
  -27.1800  -28.6630   20.5340 C   0  0  0  0  0  3  0  0  0  0  0  0
  -26.0610  -26.8970   19.2900 C   0  0  0  0  0  3  0  0  0  0  0  0
  -24.8590  -27.6260   19.3240 C   0  0  0  0  0  3  0  0  0  0  0  0
  -23.5700  -29.7220   20.0270 C   0  0  0  0  0  2  0  0  0  0  0  0
  -24.6140  -30.9580   21.9810 N   0  0  0  0  0  0  0  0  0  0  0  0
  -23.4640  -32.0060   23.6250 O   0  0  0  0  0  0  0  0  0  0  0  0
  -22.7180  -29.3070   22.3560 C   0  0  0  0  0  0  0  0  0  0  0  0
  -21.3890  -29.1470   22.2560 N   0  0  0  0  0  0  0  0  0  0  0  0
  -23.4140  -28.6360   23.1230 O   0  0  0  0  0  0  0  0  0  0  0  0
  -20.8880  -29.7410   21.6100 H   0  0  0  0  0  0  0  0  0  0  0  0
  -18.0090  -27.9910   22.8000 C   0  0  0  0  0  0  0  0  0  0  0  0
  -20.5780  -28.1870   23.0050 C   0  0  0  0  0  3  0  0  0  0  0  0
  -20.6340  -26.7840   22.3580 C   0  0  0  0  0  2  0  0  0  0  0  0
  -19.4960  -26.5310   21.3630 C   0  0  0  0  0  2  0  0  0  0  0  0
  -18.1380  -26.6720   22.0560 C   0  0  0  0  0  2  0  0  0  0  0  0
  -19.1550  -28.7100   23.2310 C   0  0  0  0  0  0  0  0  0  0  0  0
  -18.9810  -29.9470   23.8880 C   0  0  0  0  0  3  0  0  0  0  0  0
  -17.6930  -30.4670   24.1150 C   0  0  0  0  0  3  0  0  0  0  0  0
  -16.5610  -29.7440   23.7000 C   0  0  0  0  0  3  0  0  0  0  0  0
  -16.7200  -28.5080   23.0490 C   0  0  0  0  0  3  0  0  0  0  0  0
  -25.8350  -32.3520   23.7390 C   0  0  0  0  0  3  0  0  0  0  0  0
  -26.3550  -31.5520   24.9970 C   0  0  1  0  0  0  0  0  0  0  0  0
  -25.2640  -31.2900   26.0610 C   0  0  0  0  0  1  0  0  0  0  0  0
  -26.9390  -30.1850   24.5720 C   0  0  0  0  0  1  0  0  0  0  0  0
  -27.5050  -32.3320   25.6750 C   0  0  0  0  0  1  0  0  0  0  0  0
  -25.5210  -33.7400   24.1000 N   0  0  0  0  0  0  0  0  0  0  0  0
  -25.8710  -34.8110   23.3750 C   0  0  0  0  0  0  0  0  0  0  0  0
  -26.5660  -34.7330   22.3580 O   0  0  0  0  0  0  0  0  0  0  0  0
  -24.9080  -33.8750   24.8910 H   0  0  0  0  0  0  0  0  0  0  0  0
  -24.1460  -36.6060   23.0270 C   0  0  0  0  0  1  0  0  0  0  0  0
  -25.3710  -36.1860   23.8550 C   0  0  0  0  0  3  0  0  0  0  0  0
  -27.4850  -37.0530   24.7530 C   0  0  0  0  0  1  0  0  0  0  0  0
  -26.4030  -37.2430   23.7900 N   0  0  0  0  0  0  0  0  0  0  0  0
  -25.9920  -38.1580   23.9530 H   0  0  0  0  0  0  0  0  0  0  0  0
  -30.2740  -19.9450   20.5390 C   0  0  0  0  0  2  0  0  0  0  0  0
  -30.9290  -19.4620   18.1140 C   0  0  0  0  0  3  0  0  0  0  0  0
  -31.3410  -18.5770   17.1080 C   0  0  0  0  0  3  0  0  0  0  0  0
  -30.7480  -18.9870   19.4340 C   0  0  0  0  0  0  0  0  0  0  0  0
  -31.5590  -17.2360   17.4430 C   0  0  0  0  0  0  0  0  0  0  0  0
  -31.0350  -17.6170   19.6910 C   0  0  0  0  0  0  0  0  0  0  0  0
  -32.0070  -16.2340   16.4010 C   0  0  0  0  0  1  0  0  0  0  0  0
  -31.4040  -16.7710   18.6980 N   0  0  0  0  0  0  0  0  0  0  0  0
  -30.9810  -17.0150   21.1050 C   0  0  0  0  0  2  0  0  0  0  0  0
  -31.3610  -14.5750   20.7010 C   0  0  0  0  0  0  0  0  0  0  0  0
  -31.0200  -12.5220   19.3930 C   0  0  0  0  0  2  0  0  0  0  0  0
  -30.1510  -12.8780   18.1700 C   0  0  0  0  0  2  0  0  0  0  0  0
  -28.6490  -12.8060   18.5180 C   0  0  0  0  0  2  0  0  0  0  0  0
  -28.2980  -13.5640   19.8270 C   0  0  0  0  0  3  0  0  0  0  0  0
  -29.2800  -13.1830   20.9560 C   0  0  0  0  0  2  0  0  0  0  0  0
  -30.6490  -13.4410   20.4760 N   0  0  0  0  0  0  0  0  0  0  0  0
  -32.5340  -14.7290   20.3500 O   0  0  0  0  0  0  0  0  0  0  0  0
  -30.6250  -15.5940   21.1650 N   0  0  0  0  0  0  0  0  0  0  0  0
  -29.6650  -15.3860   21.3820 H   0  0  0  0  0  0  0  0  0  0  0  0
  -25.8710  -14.2530   20.3510 C   0  0  0  0  0  0  0  0  0  0  0  0
  -24.7620  -13.5180   20.6780 C   0  0  0  0  0  0  0  0  0  0  0  0
  -25.1930  -12.1570   20.7250 C   0  0  0  0  0  0  0  0  0  0  0  0
  -26.9070  -13.3410   20.2210 N   0  0  0  0  0  0  0  0  0  0  0  0
  -26.4980  -12.0780   20.5030 N   0  0  0  0  0  0  0  0  0  0  0  0
  -24.4270  -10.9180   20.9110 C   0  0  0  0  0  0  0  0  0  0  0  0
  -24.7760   -9.9760   21.9050 C   0  0  0  0  0  3  0  0  0  0  0  0
  -24.0140   -8.8000   22.0770 C   0  0  0  0  0  3  0  0  0  0  0  0
  -22.8880   -8.5580   21.2540 C   0  0  0  0  0  0  0  0  0  0  0  0
  -22.5580   -9.4870   20.2510 C   0  0  0  0  0  3  0  0  0  0  0  0
  -23.3210  -10.6540   20.0790 C   0  0  0  0  0  3  0  0  0  0  0  0
  -22.1050   -7.4310   21.3310 O   0  0  0  0  0  0  0  0  0  0  0  0
  -21.9120   -6.7690   22.5160 C   0  0  0  0  0  0  0  0  0  0  0  0
  -21.3950   -7.4190   23.6590 C   0  0  0  0  0  3  0  0  0  0  0  0
  -21.1470   -6.6840   24.8350 C   0  0  0  0  0  3  0  0  0  0  0  0
  -21.4050   -5.3010   24.8700 C   0  0  0  0  0  0  0  0  0  0  0  0
  -21.9160   -4.6510   23.7330 C   0  0  0  0  0  3  0  0  0  0  0  0
  -22.1670   -5.3830   22.5580 C   0  0  0  0  0  0  0  0  0  0  0  0
  -22.6380   -4.7480   21.4580 F   0  0  0  0  0  0  0  0  0  0  0  0
  -21.1600   -4.5940   25.9970 F   0  0  0  0  0  0  0  0  0  0  0  0
  -23.3610  -14.0340   20.8410 C   0  0  0  0  0  0  0  0  0  0  0  0
  -22.5740  -13.4100   21.7100 N   0  0  0  0  0  0  0  0  0  0  0  0
  -22.9700  -15.0280   20.2310 O   0  0  0  0  0  0  0  0  0  0  0  0
  -22.9000  -12.6090   22.2290 H   0  0  0  0  0  0  0  0  0  0  0  0
  -21.6310  -13.7410   21.8590 H   0  0  0  0  0  0  0  0  0  0  0  0
  -26.0790  -15.6110   20.1340 N   0  0  0  0  0  0  0  0  0  0  0  0
  -25.3190  -16.2820   20.1500 H   0  0  0  0  0  0  0  0  0  0  0  0
  -26.9520  -16.0100   19.8110 H   0  0  0  0  0  0  0  0  0  0  0  0
  1  3  2  0
  2  1  1  0
  2 51  1  0
  4  2  1  0
  6  5  1  0
  6  1  1  0
  7  9  1  0
  7  6  1  0
  8  7  1  0
  8 10  1  0
  8  5  1  0
 10 12  1  0
 11 22  2  0
 12 17  1  0
 13 21  1  0
 13 23  1  0
 14 20  1  0
 14 16  1  0
 15 21  1  0
 16 15  1  0
 17 16  2  0
 18 19  1  0
 18 12  2  0
 19 14  2  0
 20 13  1  0
 21 11  1  0
 23 25  2  0
 24 23  1  0
 26 24  1  0
 27 36  2  0
 27 32  1  0
 28 24  1  0
 28 32  1  0
 29 28  1  0
 30 31  1  0
 30 29  1  0
 31 27  1  0
 32 33  2  0
 33 34  1  0
 35 34  2  0
 36 35  1  0
 37 11  1  0
 37 42  1  0
 37 38  1  0
 38 41  1  1
 38 39  1  0
 40 38  1  0
 42 45  1  0
 43 47  1  0
 43 42  1  0
 44 43  2  0
 47 46  1  0
 49 47  1  0
 49 50  1  0
 49 48  1  0
 52 54  1  0
 53 55  1  0
 53 52  2  0
 54 56  2  0
 54 51  1  0
 55 58  2  0
 56 59  1  0
 57 55  1  0
 58 56  1  0
 59 68  1  0
 60 68  1  0
 61 66  1  0
 62 63  1  0
 62 61  1  0
 64 63  1  0
 64 73  1  0
 64 65  1  0
 66 60  1  0
 66 65  1  0
 67 60  2  0
 68 69  1  0
 70 71  2  0
 71 72  1  0
 71 90  1  0
 72 75  1  0
 73 70  1  0
 73 74  1  0
 74 72  2  0
 75 76  1  0
 76 77  2  0
 78 81  1  0
 78 77  1  0
 79 78  2  0
 80 79  1  0
 80 75  2  0
 81 82  1  0
 82 87  2  0
 82 83  1  0
 83 84  2  0
 84 85  1  0
 85 89  1  0
 86 85  2  0
 87 86  1  0
 88 87  1  0
 90 91  1  0
 91 94  1  0
 91 93  1  0
 92 90  2  0
 95 96  1  0
 95 70  1  0
 97 95  1  0
M  ISO  4   8 101  10 101  60 100  68 100
M  END
>  <TORSDO>  (31) 
F 20

>  <SCORE>  (31) 
-13.232

>  <name>  (31) 
30

>  <ligand_id>  (31) 
30

>  <original_smiles>  (31) 
[H]c1c(C([H])([H])[H])nc(C([H])([H])N([H])C(=O)N2C([H])([H])C([H])([H])C([H])([H])C([H])(n3nc(-c4c([H])c([H])c(Oc5c([H])c([H])c(F)c([H])c5F)c([H])c4[H])c(C(=O)N([H])[H])c3N([H])[H])C2([H])[H])c(C([H])([H])N([H])C(=O)C2([H])C([H])([H])C([H])(Oc3c([H])c([H])c4c(c3[H])C([H])([H])N(C(=O)C([H])(N([H])C(=O)C([H])(N([H])C([H])([H])[H])C([H])([H])[H])C(C([H])([H])[H])(C([H])([H])[H])C([H])([H])[H])C([H])(C(=O)N([H])C3([H])c5c([H])c([H])c([H])c([H])c5C([H])([H])C([H])([H])C3([H])[H])C4([H])[H])C2([H])C([H])([H])[H])c1[H]

>  <smiles>  (31) 
[H]c1c(C([H])([H])[H])nc(C([H])([H])N([H])C(=O)N2C([H])([H])C([H])([H])C([H])([H])C([H])(n3nc(-c4c([H])c([H])c(Oc5c([H])c([H])c(F)c([H])c5F)c([H])c4[H])c(C(=O)N([H])[H])c3N([H])[H])C2([H])[H])c(C([H])([H])N([H])C(=O)C2([H])C([H])([H])C([H])(Oc3c([H])c([H])c4c(c3[H])C([H])([H])N(C(=O)C([H])(N([H])C(=O)C([H])(N([H])C([H])([H])[H])C([H])([H])[H])C(C([H])([H])[H])(C([H])([H])[H])C([H])([H])[H])C([H])(C(=O)N([H])C3([H])c5c([H])c([H])c([H])c([H])c5C([H])([H])C([H])([H])C3([H])[H])C4([H])[H])C2([H])C([H])([H])[H])c1[H]

> <Step>
121.0

> <Scaffold>
O=C(NCc1cccnc1CNC(=O)N1CCCC(n2ccc(-c3ccc(Oc4ccccc4)cc3)n2)C1)C1CC(Oc2ccc3c(c2)CNC(C(=O)NC2CCCc4ccccc42)C3)C1

> <SMILES>
CNC(C)C(=O)NC(C(=O)N1Cc2cc(OC3CC(C(=O)NCc4ccc(C)nc4CNC(=O)N4CCCC(n5nc(-c6ccc(Oc7ccc(F)cc7F)cc6)c(C(N)=O)c5N)C4)C3C)ccc2CC1C(=O)NC1CCCc2ccccc21)C(C)(C)C

> <Tanimoto ROCS sim>
0.188981831073761

> <Custom alerts>
1.0

> <Linker Num Aromatic Rings>
1.0

> <Linker Effective Length>
1.0

> <ADV>
0.9941627383232117

> <PostDock Tanimoto ROCS sim>
0.9929799437522888

> <raw_Linker Num Aromatic Rings>
1.0

> <raw_Linker Effective Length>
9.0

> <raw_ADV>
-13.925000190734863

> <total_score>
0.9967857003211975

> <ID>
default_job_30

> <PostDock Tanimoto ROCS sim (re-score)>
0.9229096

> <raw_ADV (re-score)>
-13.232

> <Final Intermolecular Energy>
-28.317

> <Final Total Internal Energy>
-2.495

> <Torsional Free Energy>
15.084

> <Unbound System's Energy>
-2.495

$$$$
default_job_31
     RDKit          3D

 94103  0  0  1  0  0  0  0  0999 V2000
  -31.1770  -23.1600   21.3110 C   0  0  0  0  0  3  0  0  0  0  0  0
  -30.9310  -21.8370   20.8970 C   0  0  0  0  0  3  0  0  0  0  0  0
  -30.2650  -24.2020   21.0390 C   0  0  0  0  0  0  0  0  0  0  0  0
  -29.7470  -21.4920   20.2160 C   0  0  0  0  0  0  0  0  0  0  0  0
  -28.7820  -22.5450   19.9960 C   0  0  0  0  0  0  0  0  0  0  0  0
  -29.0460  -23.9210   20.3680 C   0  0  0  0  0  0  0  0  0  0  0  0
  -30.6400  -25.6090   21.4740 C   0  0  0  0  0  1  0  0  0  0  0  0
  -27.4580  -22.2000   19.3160 C   0  0  0  0  0  1  0  0  0  0  0  0
  -29.6640  -20.0580   19.5750 C   0  0  0  0  0  2  0  0  0  0  0  0
  -30.6580  -14.6010   20.4190 C   0  0  0  0  0  0  0  0  0  0  0  0
  -30.3600  -12.3800   19.3690 C   0  0  0  0  0  2  0  0  0  0  0  0
  -29.4260  -12.5040   18.1470 C   0  0  0  0  0  2  0  0  0  0  0  0
  -27.9530  -12.3550   18.5780 C   0  0  0  0  0  2  0  0  0  0  0  0
  -27.5900  -13.2360   19.8050 C   0  0  0  0  0  3  0  0  0  0  0  0
  -28.6520  -13.1250   20.9230 C   0  0  0  0  0  2  0  0  0  0  0  0
  -29.9640  -13.4260   20.3290 N   0  0  0  0  0  0  0  0  0  0  0  0
  -31.8480  -14.6730   20.1020 O   0  0  0  0  0  0  0  0  0  0  0  0
  -30.3870  -16.7550   21.6360 C   0  0  0  0  0  2  0  0  0  0  0  0
  -29.4850  -16.4710   19.3960 C   0  0  0  0  0  2  0  0  0  0  0  0
  -30.5680  -18.2490   21.1520 C   0  0  0  0  0  2  0  0  0  0  0  0
  -28.6460  -17.7500   19.7040 C   0  0  0  0  0  2  0  0  0  0  0  0
  -29.9510  -15.7630   20.6100 N   0  0  0  0  0  0  0  0  0  0  0  0
  -29.3910  -18.8300   20.4280 N   0  0  2  0  0  4  0  0  0  0  0  0
  -28.7470  -19.1520   21.1340 H   0  0  0  0  0  0  0  0  0  0  0  0
  -25.1960  -13.8460   20.5060 C   0  0  0  0  0  0  0  0  0  0  0  0
  -24.1230  -13.0800   20.8720 C   0  0  0  0  0  0  0  0  0  0  0  0
  -24.5840  -11.7280   20.8610 C   0  0  0  0  0  0  0  0  0  0  0  0
  -26.2410  -12.9610   20.2900 N   0  0  0  0  0  0  0  0  0  0  0  0
  -25.8770  -11.6830   20.5650 N   0  0  0  0  0  0  0  0  0  0  0  0
  -23.8540  -10.4680   21.0560 C   0  0  0  0  0  0  0  0  0  0  0  0
  -24.2970   -9.4960   21.9810 C   0  0  0  0  0  3  0  0  0  0  0  0
  -23.5680   -8.3020   22.1650 C   0  0  0  0  0  3  0  0  0  0  0  0
  -22.3830   -8.0710   21.4260 C   0  0  0  0  0  0  0  0  0  0  0  0
  -21.9600   -9.0320   20.4910 C   0  0  0  0  0  3  0  0  0  0  0  0
  -22.6900  -10.2180   20.3040 C   0  0  0  0  0  3  0  0  0  0  0  0
  -21.6250   -6.9290   21.5210 O   0  0  0  0  0  0  0  0  0  0  0  0
  -21.6100   -6.1690   22.6630 C   0  0  0  0  0  0  0  0  0  0  0  0
  -21.2510   -6.7110   23.9160 C   0  0  0  0  0  3  0  0  0  0  0  0
  -21.1810   -5.8780   25.0490 C   0  0  0  0  0  3  0  0  0  0  0  0
  -21.4620   -4.5030   24.9340 C   0  0  0  0  0  0  0  0  0  0  0  0
  -21.8160   -3.9620   23.6850 C   0  0  0  0  0  3  0  0  0  0  0  0
  -21.8870   -4.7920   22.5530 C   0  0  0  0  0  0  0  0  0  0  0  0
  -22.2090   -4.2600   21.3500 F   0  0  0  0  0  0  0  0  0  0  0  0
  -21.3880   -3.7020   26.0210 F   0  0  0  0  0  0  0  0  0  0  0  0
  -22.7230  -13.5630   21.1220 C   0  0  0  0  0  0  0  0  0  0  0  0
  -21.9840  -12.8830   21.9900 N   0  0  0  0  0  0  0  0  0  0  0  0
  -22.2920  -14.5830   20.5850 O   0  0  0  0  0  0  0  0  0  0  0  0
  -22.3450  -12.0600   22.4500 H   0  0  0  0  0  0  0  0  0  0  0  0
  -21.0460  -13.1920   22.2000 H   0  0  0  0  0  0  0  0  0  0  0  0
  -25.3680  -15.2130   20.3150 N   0  0  0  0  0  0  0  0  0  0  0  0
  -24.6040  -15.8740   20.4070 H   0  0  0  0  0  0  0  0  0  0  0  0
  -26.2210  -15.6350   19.9760 H   0  0  0  0  0  0  0  0  0  0  0  0
  -27.9930  -25.0400   20.0500 C   0  0  0  0  0  2  0  0  0  0  0  0
  -28.2790  -26.4790   20.1910 O   0  0  0  0  0  0  0  0  0  0  0  0
  -24.6140  -31.8890   23.2310 C   0  0  0  0  0  0  0  0  0  0  0  0
  -27.1670  -27.3310   20.1430 C   0  0  0  0  0  0  0  0  0  0  0  0
  -23.3850  -30.4880   21.6150 C   0  0  0  0  0  3  0  0  0  0  0  0
  -24.8090  -28.9400   20.1730 C   0  0  0  0  0  0  0  0  0  0  0  0
  -25.9240  -30.8000   21.4010 C   0  0  0  0  0  2  0  0  0  0  0  0
  -25.9890  -29.4250   20.7510 C   0  0  0  0  0  0  0  0  0  0  0  0
  -27.1720  -28.6320   20.7280 C   0  0  0  0  0  3  0  0  0  0  0  0
  -25.9600  -26.9010   19.5400 C   0  0  0  0  0  3  0  0  0  0  0  0
  -24.7930  -27.6800   19.5630 C   0  0  0  0  0  3  0  0  0  0  0  0
  -23.5790  -29.8190   20.2310 C   0  0  0  0  0  2  0  0  0  0  0  0
  -24.6620  -31.0710   22.1400 N   0  0  0  0  0  0  0  0  0  0  0  0
  -23.5340  -32.1930   23.7530 O   0  0  0  0  0  0  0  0  0  0  0  0
  -22.7340  -29.4680   22.5810 C   0  0  0  0  0  0  0  0  0  0  0  0
  -21.4070  -29.2880   22.4640 N   0  0  0  0  0  0  0  0  0  0  0  0
  -23.4200  -28.8460   23.3960 O   0  0  0  0  0  0  0  0  0  0  0  0
  -20.9120  -29.8450   21.7830 H   0  0  0  0  0  0  0  0  0  0  0  0
  -18.0380  -28.0760   22.9760 C   0  0  0  0  0  0  0  0  0  0  0  0
  -20.5950  -28.3530   23.2440 C   0  0  0  0  0  3  0  0  0  0  0  0
  -20.7060  -26.9150   22.6850 C   0  0  0  0  0  2  0  0  0  0  0  0
  -19.6070  -26.5740   21.6730 C   0  0  0  0  0  2  0  0  0  0  0  0
  -18.2230  -26.7200   22.3150 C   0  0  0  0  0  2  0  0  0  0  0  0
  -19.1520  -28.8480   23.3980 C   0  0  0  0  0  0  0  0  0  0  0  0
  -18.9270  -30.1160   23.9760 C   0  0  0  0  0  3  0  0  0  0  0  0
  -17.6190  -30.6130   24.1370 C   0  0  0  0  0  3  0  0  0  0  0  0
  -16.5190  -29.8380   23.7310 C   0  0  0  0  0  3  0  0  0  0  0  0
  -16.7300  -28.5710   23.1560 C   0  0  0  0  0  3  0  0  0  0  0  0
  -25.9080  -32.5090   23.8440 C   0  0  0  0  0  3  0  0  0  0  0  0
  -25.6030  -33.9020   24.1950 N   0  0  0  0  0  0  0  0  0  0  0  0
  -25.9070  -34.9610   23.4340 C   0  0  0  0  0  0  0  0  0  0  0  0
  -26.5480  -34.8690   22.3820 O   0  0  0  0  0  0  0  0  0  0  0  0
  -25.0320  -34.0490   25.0150 H   0  0  0  0  0  0  0  0  0  0  0  0
  -24.1540  -36.7430   23.1510 C   0  0  0  0  0  1  0  0  0  0  0  0
  -25.4260  -36.3420   23.9160 C   0  0  0  0  0  3  0  0  0  0  0  0
  -27.5820  -37.2370   24.6750 C   0  0  0  0  0  1  0  0  0  0  0  0
  -26.4460  -37.4040   23.7740 N   0  0  0  0  0  0  0  0  0  0  0  0
  -26.0370  -38.3190   23.9470 H   0  0  0  0  0  0  0  0  0  0  0  0
  -26.4430  -31.7240   25.1050 C   0  0  1  0  0  0  0  0  0  0  0  0
  -25.3650  -31.4820   26.1880 C   0  0  0  0  0  1  0  0  0  0  0  0
  -27.0180  -30.3500   24.6930 C   0  0  0  0  0  1  0  0  0  0  0  0
  -27.6030  -32.5110   25.7600 C   0  0  0  0  0  1  0  0  0  0  0  0
  2  1  2  0
  3  1  1  0
  3  7  1  0
  4  2  1  0
  5  4  2  0
  5  6  1  0
  6  3  2  0
  8  5  1  0
  9  4  1  0
  9 23  1  0
 10 22  1  0
 11 16  1  0
 12 13  1  0
 12 11  1  0
 14 13  1  0
 14 28  1  0
 14 15  1  0
 16 10  1  0
 16 15  1  0
 17 10  2  0
 19 21  1  0
 19 22  1  0
 20 18  1  0
 21 23  1  0
 22 18  1  0
 23 24  1  1
 23 20  1  0
 25 26  2  0
 26 45  1  0
 27 26  1  0
 27 30  1  0
 28 25  1  0
 28 29  1  0
 29 27  2  0
 30 31  1  0
 31 32  2  0
 33 36  1  0
 33 32  1  0
 34 33  2  0
 35 34  1  0
 35 30  2  0
 36 37  1  0
 37 38  1  0
 38 39  2  0
 40 39  1  0
 40 44  1  0
 41 40  2  0
 42 37  2  0
 42 41  1  0
 43 42  1  0
 45 46  1  0
 46 49  1  0
 46 48  1  0
 47 45  2  0
 50 51  1  0
 50 25  1  0
 52 50  1  0
 53 54  1  0
 53  6  1  0
 55 66  2  0
 56 54  1  0
 56 61  1  0
 57 65  1  0
 57 67  1  0
 58 64  1  0
 58 60  1  0
 59 65  1  0
 60 59  1  0
 61 60  2  0
 62 63  1  0
 62 56  2  0
 63 58  2  0
 64 57  1  0
 65 55  1  0
 67 69  2  0
 68 67  1  0
 70 68  1  0
 71 80  2  0
 71 76  1  0
 72 68  1  0
 72 76  1  0
 73 72  1  0
 74 75  1  0
 74 73  1  0
 75 71  1  0
 76 77  2  0
 77 78  1  0
 79 78  2  0
 80 79  1  0
 81 55  1  0
 81 82  1  0
 81 91  1  0
 82 85  1  0
 83 87  1  0
 83 82  1  0
 84 83  2  0
 87 86  1  0
 89 87  1  0
 89 90  1  0
 89 88  1  0
 91 94  1  1
 91 92  1  0
 93 91  1  0
M  ISO  4  10 100  22 100  53 101  54 101
M  END
>  <TORSDO>  (32) 
F 18

>  <SCORE>  (32) 
-14.992

>  <name>  (32) 
31

>  <ligand_id>  (32) 
31

>  <original_smiles>  (32) 
[H]c1c([H])c([H])c2c(c1[H])C([H])([H])C([H])([H])C([H])([H])C2([H])N([H])C(=O)C1([H])N(C(=O)C([H])(N([H])C(=O)C([H])(N([H])C([H])([H])[H])C([H])([H])[H])C(C([H])([H])[H])(C([H])([H])[H])C([H])([H])[H])C([H])([H])c2c([H])c(OC([H])([H])c3c(C([H])([H])[H])c([H])c([H])c(C([H])([H])[N+]4([H])C([H])([H])C([H])([H])N(C(=O)N5C([H])([H])C([H])([H])C([H])([H])C([H])(n6nc(-c7c([H])c([H])c(Oc8c([H])c([H])c(F)c([H])c8F)c([H])c7[H])c(C(=O)N([H])[H])c6N([H])[H])C5([H])[H])C([H])([H])C4([H])[H])c3C([H])([H])[H])c([H])c([H])c2C1([H])[H]

>  <smiles>  (32) 
[H]c1c([H])c([H])c2c(c1[H])C([H])([H])C([H])([H])C([H])([H])C2([H])N([H])C(=O)C1([H])N(C(=O)C([H])(N([H])C(=O)C([H])(N([H])C([H])([H])[H])C([H])([H])[H])C(C([H])([H])[H])(C([H])([H])[H])C([H])([H])[H])C([H])([H])c2c([H])c(OC([H])([H])c3c(C([H])([H])[H])c([H])c([H])c(C([H])([H])[N+]4([H])C([H])([H])C([H])([H])N(C(=O)N5C([H])([H])C([H])([H])C([H])([H])C([H])(n6nc(-c7c([H])c([H])c(Oc8c([H])c([H])c(F)c([H])c8F)c([H])c7[H])c(C(=O)N([H])[H])c6N([H])[H])C5([H])[H])C([H])([H])C4([H])[H])c3C([H])([H])[H])c([H])c([H])c2C1([H])[H]

> <Step>
159.0

> <Scaffold>
O=C(NC1CCCc2ccccc21)C1Cc2ccc(OCc3cccc(CN4CCN(C(=O)N5CCCC(n6ccc(-c7ccc(Oc8ccccc8)cc7)n6)C5)CC4)c3)cc2CN1

> <SMILES>
CNC(C)C(=O)NC(C(=O)N1Cc2cc(OCc3c(C)ccc(CN4CCN(C(=O)N5CCCC(n6nc(-c7ccc(Oc8ccc(F)cc8F)cc7)c(C(N)=O)c6N)C5)CC4)c3C)ccc2CC1C(=O)NC1CCCc2ccccc21)C(C)(C)C

> <Tanimoto ROCS sim>
0.266056090593338

> <Custom alerts>
1.0

> <Linker Num Aromatic Rings>
1.0

> <Linker Effective Length>
1.0

> <ADV>
0.9968476891517639

> <PostDock Tanimoto ROCS sim>
0.9902942180633545

> <raw_Linker Num Aromatic Rings>
1.0

> <raw_Linker Effective Length>
8.0

> <raw_ADV>
-15.0

> <total_score>
0.9967854619026184

> <ID>
default_job_31

> <PostDock Tanimoto ROCS sim (re-score)>
0.9838714

> <raw_ADV (re-score)>
-14.992

> <Final Intermolecular Energy>
-30.329

> <Final Total Internal Energy>
-2.367

> <Torsional Free Energy>
15.337

> <Unbound System's Energy>
-2.367

$$$$
default_job_32
     RDKit          3D

 92100  0  0  1  0  0  0  0  0999 V2000
  -29.0470  -23.7340   19.9800 C   0  0  0  0  0  3  0  0  0  0  0  0
  -29.5390  -23.7930   22.3500 C   0  0  0  0  0  3  0  0  0  0  0  0
  -29.0130  -24.4270   21.2080 C   0  0  0  0  0  0  0  0  0  0  0  0
  -29.5900  -22.4240   19.8900 C   0  0  0  0  0  0  0  0  0  0  0  0
  -30.0670  -22.4870   22.2810 C   0  0  0  0  0  0  0  0  0  0  0  0
  -30.0780  -21.7680   21.0630 C   0  0  0  0  0  0  0  0  0  0  0  0
  -29.6740  -21.7960   18.5090 C   0  0  0  0  0  1  0  0  0  0  0  0
  -30.6330  -21.8520   23.5410 C   0  0  0  0  0  1  0  0  0  0  0  0
  -28.3410  -25.7930   21.3630 C   0  0  0  0  0  2  0  0  0  0  0  0
  -28.3310  -26.6340   20.1980 O   0  0  0  0  0  0  0  0  0  0  0  0
  -24.5820  -31.8750   23.2550 C   0  0  0  0  0  0  0  0  0  0  0  0
  -27.2130  -27.4330   20.1650 C   0  0  0  0  0  0  0  0  0  0  0  0
  -23.3730  -30.4790   21.6090 C   0  0  0  0  0  3  0  0  0  0  0  0
  -24.8250  -28.9440   20.1750 C   0  0  0  0  0  0  0  0  0  0  0  0
  -25.9010  -30.8260   21.4200 C   0  0  0  0  0  2  0  0  0  0  0  0
  -25.9830  -29.4600   20.7730 C   0  0  0  0  0  0  0  0  0  0  0  0
  -27.1830  -28.7090   20.7720 C   0  0  0  0  0  3  0  0  0  0  0  0
  -26.0440  -26.9290   19.5590 C   0  0  0  0  0  3  0  0  0  0  0  0
  -24.8510  -27.6760   19.5660 C   0  0  0  0  0  3  0  0  0  0  0  0
  -23.5830  -29.8040   20.2260 C   0  0  0  0  0  2  0  0  0  0  0  0
  -24.6370  -31.0710   22.1550 N   0  0  0  0  0  0  0  0  0  0  0  0
  -23.4970  -32.1700   23.7750 O   0  0  0  0  0  0  0  0  0  0  0  0
  -22.7180  -29.4550   22.5650 C   0  0  0  0  0  0  0  0  0  0  0  0
  -21.3940  -29.2750   22.4320 N   0  0  0  0  0  0  0  0  0  0  0  0
  -23.3980  -28.8260   23.3780 O   0  0  0  0  0  0  0  0  0  0  0  0
  -20.9070  -29.8350   21.7450 H   0  0  0  0  0  0  0  0  0  0  0  0
  -18.0160  -28.0850   22.9140 C   0  0  0  0  0  0  0  0  0  0  0  0
  -20.5720  -28.3360   23.1970 C   0  0  0  0  0  3  0  0  0  0  0  0
  -20.6750  -26.9060   22.6170 C   0  0  0  0  0  2  0  0  0  0  0  0
  -19.5760  -26.5890   21.5970 C   0  0  0  0  0  2  0  0  0  0  0  0
  -18.1920  -26.7370   22.2340 C   0  0  0  0  0  2  0  0  0  0  0  0
  -19.1340  -28.8430   23.3510 C   0  0  0  0  0  0  0  0  0  0  0  0
  -18.9160  -30.1050   23.9430 C   0  0  0  0  0  3  0  0  0  0  0  0
  -17.6130  -30.6100   24.1040 C   0  0  0  0  0  3  0  0  0  0  0  0
  -16.5070  -29.8490   23.6850 C   0  0  0  0  0  3  0  0  0  0  0  0
  -16.7090  -28.5880   23.0950 C   0  0  0  0  0  3  0  0  0  0  0  0
  -25.8710  -32.4900   23.8860 C   0  0  0  0  0  3  0  0  0  0  0  0
  -25.5740  -33.8890   24.2170 N   0  0  0  0  0  0  0  0  0  0  0  0
  -25.9070  -34.9380   23.4540 C   0  0  0  0  0  0  0  0  0  0  0  0
  -26.5730  -34.8320   22.4210 O   0  0  0  0  0  0  0  0  0  0  0  0
  -24.9840  -34.0470   25.0210 H   0  0  0  0  0  0  0  0  0  0  0  0
  -24.1810  -36.7320   23.1040 C   0  0  0  0  0  1  0  0  0  0  0  0
  -25.4250  -36.3270   23.9110 C   0  0  0  0  0  3  0  0  0  0  0  0
  -27.5660  -37.2050   24.7310 C   0  0  0  0  0  1  0  0  0  0  0  0
  -26.4590  -37.3780   23.7930 N   0  0  0  0  0  0  0  0  0  0  0  0
  -26.0560  -38.2990   23.9480 H   0  0  0  0  0  0  0  0  0  0  0  0
  -26.3800  -31.7120   25.1600 C   0  0  1  0  0  0  0  0  0  0  0  0
  -25.2830  -31.4760   26.2230 C   0  0  0  0  0  1  0  0  0  0  0  0
  -26.9600  -30.3330   24.7640 C   0  0  0  0  0  1  0  0  0  0  0  0
  -27.5310  -32.4990   25.8320 C   0  0  0  0  0  1  0  0  0  0  0  0
  -30.6300  -20.4940   21.1190 O   0  0  0  0  0  0  0  0  0  0  0  0
  -30.0160  -19.4100   20.4160 C   0  0  0  0  0  2  0  0  0  0  0  0
  -30.2660  -18.0450   21.1180 C   0  0  0  0  0  2  0  0  0  0  0  0
  -29.8440  -16.8490   20.2250 C   0  0  0  0  0  2  0  0  0  0  0  0
  -30.6340  -14.4840   20.4420 C   0  0  0  0  0  0  0  0  0  0  0  0
  -30.3620  -12.3100   19.3180 C   0  0  0  0  0  2  0  0  0  0  0  0
  -29.4260  -12.5320   18.1080 C   0  0  0  0  0  2  0  0  0  0  0  0
  -27.9500  -12.3970   18.5260 C   0  0  0  0  0  2  0  0  0  0  0  0
  -27.6090  -13.2200   19.7980 C   0  0  0  0  0  3  0  0  0  0  0  0
  -28.6600  -12.9860   20.9110 C   0  0  0  0  0  2  0  0  0  0  0  0
  -29.9900  -13.2860   20.3540 N   0  0  0  0  0  0  0  0  0  0  0  0
  -31.7560  -14.6810   19.9680 O   0  0  0  0  0  0  0  0  0  0  0  0
  -29.8630  -15.5120   20.8520 N   0  0  0  0  0  0  0  0  0  0  0  0
  -29.0020  -15.2300   21.2980 H   0  0  0  0  0  0  0  0  0  0  0  0
  -25.2030  -13.8330   20.4780 C   0  0  0  0  0  0  0  0  0  0  0  0
  -24.1310  -13.0640   20.8460 C   0  0  0  0  0  0  0  0  0  0  0  0
  -24.5930  -11.7130   20.8290 C   0  0  0  0  0  0  0  0  0  0  0  0
  -26.2500  -12.9510   20.2650 N   0  0  0  0  0  0  0  0  0  0  0  0
  -25.8850  -11.6700   20.5290 N   0  0  0  0  0  0  0  0  0  0  0  0
  -23.8660  -10.4520   21.0250 C   0  0  0  0  0  0  0  0  0  0  0  0
  -24.2940   -9.4910   21.9660 C   0  0  0  0  0  3  0  0  0  0  0  0
  -23.5700   -8.2940   22.1480 C   0  0  0  0  0  3  0  0  0  0  0  0
  -22.4000   -8.0490   21.3890 C   0  0  0  0  0  0  0  0  0  0  0  0
  -21.9910   -9.0000   20.4360 C   0  0  0  0  0  3  0  0  0  0  0  0
  -22.7170  -10.1880   20.2520 C   0  0  0  0  0  3  0  0  0  0  0  0
  -21.6450   -6.9050   21.4800 O   0  0  0  0  0  0  0  0  0  0  0  0
  -21.5950   -6.1670   22.6360 C   0  0  0  0  0  0  0  0  0  0  0  0
  -21.1610   -6.7240   23.8590 C   0  0  0  0  0  3  0  0  0  0  0  0
  -21.0600   -5.9110   25.0060 C   0  0  0  0  0  3  0  0  0  0  0  0
  -21.3820   -4.5420   24.9310 C   0  0  0  0  0  0  0  0  0  0  0  0
  -21.8070   -3.9850   23.7120 C   0  0  0  0  0  3  0  0  0  0  0  0
  -21.9120   -4.7950   22.5680 C   0  0  0  0  0  0  0  0  0  0  0  0
  -22.3030   -4.2480   21.3920 F   0  0  0  0  0  0  0  0  0  0  0  0
  -21.2760   -3.7600   26.0300 F   0  0  0  0  0  0  0  0  0  0  0  0
  -22.7330  -13.5430   21.1080 C   0  0  0  0  0  0  0  0  0  0  0  0
  -22.0010  -12.8530   21.9750 N   0  0  0  0  0  0  0  0  0  0  0  0
  -22.2980  -14.5660   20.5800 O   0  0  0  0  0  0  0  0  0  0  0  0
  -22.3640  -12.0240   22.4220 H   0  0  0  0  0  0  0  0  0  0  0  0
  -21.0630  -13.1560   22.1930 H   0  0  0  0  0  0  0  0  0  0  0  0
  -25.3700  -15.2020   20.2880 N   0  0  0  0  0  0  0  0  0  0  0  0
  -24.6020  -15.8590   20.3720 H   0  0  0  0  0  0  0  0  0  0  0  0
  -26.2280  -15.6370   19.9720 H   0  0  0  0  0  0  0  0  0  0  0  0
  1  3  1  0
  3  9  1  0
  3  2  2  0
  4  1  2  0
  4  6  1  0
  5  2  1  0
  5  8  1  0
  6 51  1  0
  6  5  2  0
  7  4  1  0
 10  9  1  0
 11 22  2  0
 12 10  1  0
 12 17  1  0
 13 21  1  0
 13 23  1  0
 14 20  1  0
 14 16  1  0
 15 21  1  0
 16 15  1  0
 17 16  2  0
 18 19  1  0
 18 12  2  0
 19 14  2  0
 20 13  1  0
 21 11  1  0
 23 25  2  0
 24 23  1  0
 26 24  1  0
 27 36  2  0
 27 32  1  0
 28 24  1  0
 28 32  1  0
 29 28  1  0
 30 31  1  0
 30 29  1  0
 31 27  1  0
 32 33  2  0
 33 34  1  0
 35 34  2  0
 36 35  1  0
 37 11  1  0
 37 38  1  0
 37 47  1  0
 38 41  1  0
 39 43  1  0
 39 38  1  0
 40 39  2  0
 43 42  1  0
 45 43  1  0
 45 46  1  0
 45 44  1  0
 47 50  1  1
 47 48  1  0
 49 47  1  0
 52 53  1  0
 52 51  1  0
 54 63  1  0
 54 53  1  0
 55 63  1  0
 56 61  1  0
 57 58  1  0
 57 56  1  0
 59 58  1  0
 59 68  1  0
 59 60  1  0
 61 55  1  0
 61 60  1  0
 62 55  2  0
 63 64  1  0
 65 66  2  0
 66 85  1  0
 67 66  1  0
 67 70  1  0
 68 65  1  0
 68 69  1  0
 69 67  2  0
 70 71  1  0
 71 72  2  0
 73 76  1  0
 73 72  1  0
 74 73  2  0
 75 74  1  0
 75 70  2  0
 76 77  1  0
 77 78  1  0
 78 79  2  0
 80 79  1  0
 80 84  1  0
 81 80  2  0
 82 77  2  0
 82 81  1  0
 83 82  1  0
 85 86  1  0
 86 89  1  0
 86 88  1  0
 87 85  2  0
 90 91  1  0
 90 65  1  0
 92 90  1  0
M  ISO  4   9 101  10 101  55 100  63 100
M  END
>  <TORSDO>  (33) 
F 21

>  <SCORE>  (33) 
-13.817

>  <name>  (33) 
32

>  <ligand_id>  (33) 
32

>  <original_smiles>  (33) 
[H]c1c([H])c([H])c2c(c1[H])C([H])([H])C([H])([H])C([H])([H])C2([H])N([H])C(=O)C1([H])N(C(=O)C([H])(N([H])C(=O)C([H])(N([H])C([H])([H])[H])C([H])([H])[H])C(C([H])([H])[H])(C([H])([H])[H])C([H])([H])[H])C([H])([H])c2c([H])c(OC([H])([H])c3c([H])c(C([H])([H])[H])c(OC([H])([H])C([H])([H])C([H])([H])N([H])C(=O)N4C([H])([H])C([H])([H])C([H])([H])C([H])(n5nc(-c6c([H])c([H])c(Oc7c([H])c([H])c(F)c([H])c7F)c([H])c6[H])c(C(=O)N([H])[H])c5N([H])[H])C4([H])[H])c(C([H])([H])[H])c3[H])c([H])c([H])c2C1([H])[H]

>  <smiles>  (33) 
[H]c1c([H])c([H])c2c(c1[H])C([H])([H])C([H])([H])C([H])([H])C2([H])N([H])C(=O)C1([H])N(C(=O)C([H])(N([H])C(=O)C([H])(N([H])C([H])([H])[H])C([H])([H])[H])C(C([H])([H])[H])(C([H])([H])[H])C([H])([H])[H])C([H])([H])c2c([H])c(OC([H])([H])c3c([H])c(C([H])([H])[H])c(OC([H])([H])C([H])([H])C([H])([H])N([H])C(=O)N4C([H])([H])C([H])([H])C([H])([H])C([H])(n5nc(-c6c([H])c([H])c(Oc7c([H])c([H])c(F)c([H])c7F)c([H])c6[H])c(C(=O)N([H])[H])c5N([H])[H])C4([H])[H])c(C([H])([H])[H])c3[H])c([H])c([H])c2C1([H])[H]

> <Step>
152.0

> <Scaffold>
O=C(NC1CCCc2ccccc21)C1Cc2ccc(OCc3ccc(OCCCNC(=O)N4CCCC(n5ccc(-c6ccc(Oc7ccccc7)cc6)n5)C4)cc3)cc2CN1

> <SMILES>
CNC(C)C(=O)NC(C(=O)N1Cc2cc(OCc3cc(C)c(OCCCNC(=O)N4CCCC(n5nc(-c6ccc(Oc7ccc(F)cc7F)cc6)c(C(N)=O)c5N)C4)c(C)c3)ccc2CC1C(=O)NC1CCCc2ccccc21)C(C)(C)C

> <Tanimoto ROCS sim>
0.21596315503120422

> <Custom alerts>
1.0

> <Linker Num Aromatic Rings>
1.0

> <Linker Effective Length>
1.0

> <ADV>
0.993818998336792

> <PostDock Tanimoto ROCS sim>
0.9933037757873535

> <raw_Linker Num Aromatic Rings>
1.0

> <raw_Linker Effective Length>
9.0

> <raw_ADV>
-13.824999809265137

> <total_score>
0.9967806935310364

> <ID>
default_job_32

> <PostDock Tanimoto ROCS sim (re-score)>
0.98427653

> <raw_ADV (re-score)>
-13.817

> <Final Intermolecular Energy>
-30.376

> <Final Total Internal Energy>
-2.64

> <Torsional Free Energy>
16.559

> <Unbound System's Energy>
-2.64

$$$$
default_job_33
     RDKit          3D

 92101  0  0  1  0  0  0  0  0999 V2000
  -28.4330  -20.7190   18.5880 C   0  0  0  0  0  2  0  0  0  0  0  0
  -28.4960  -22.2600   18.6760 C   0  0  0  0  0  2  0  0  0  0  0  0
  -29.3810  -21.3980   20.6560 C   0  0  0  0  0  2  0  0  0  0  0  0
  -28.6880  -20.1550   20.0000 C   0  0  0  0  0  3  0  0  0  0  0  0
  -28.6830  -22.5840   20.0900 N   0  0  0  0  0  0  0  0  0  0  0  0
  -30.7030  -14.6470   20.2900 C   0  0  0  0  0  0  0  0  0  0  0  0
  -30.4230  -12.4170   19.2570 C   0  0  0  0  0  2  0  0  0  0  0  0
  -29.4570  -12.5300   18.0610 C   0  0  0  0  0  2  0  0  0  0  0  0
  -27.9910  -12.4040   18.5250 C   0  0  0  0  0  2  0  0  0  0  0  0
  -27.6630  -13.2670   19.7720 C   0  0  0  0  0  3  0  0  0  0  0  0
  -28.7500  -13.1390   20.8610 C   0  0  0  0  0  2  0  0  0  0  0  0
  -30.0370  -13.4560   20.2300 N   0  0  0  0  0  0  0  0  0  0  0  0
  -31.8970  -14.7260   19.9880 O   0  0  0  0  0  0  0  0  0  0  0  0
  -29.6340  -16.4390   19.0750 C   0  0  0  0  0  2  0  0  0  0  0  0
  -30.3930  -16.8450   21.3440 C   0  0  0  0  0  2  0  0  0  0  0  0
  -28.8150  -17.7690   19.1290 C   0  0  0  0  0  2  0  0  0  0  0  0
  -29.5910  -18.1980   21.3560 C   0  0  0  0  0  2  0  0  0  0  0  0
  -29.9570  -15.8030   20.3760 N   0  0  0  0  0  0  0  0  0  0  0  0
  -29.4190  -18.8120   20.0120 N   0  0  2  0  0  4  0  0  0  0  0  0
  -30.3430  -18.9930   19.6500 H   0  0  0  0  0  0  0  0  0  0  0  0
  -25.2950  -13.8680   20.5580 C   0  0  0  0  0  0  0  0  0  0  0  0
  -24.2320  -13.0930   20.9360 C   0  0  0  0  0  0  0  0  0  0  0  0
  -24.6900  -11.7410   20.8770 C   0  0  0  0  0  0  0  0  0  0  0  0
  -26.3290  -12.9860   20.2900 N   0  0  0  0  0  0  0  0  0  0  0  0
  -25.9720  -11.7010   20.5410 N   0  0  0  0  0  0  0  0  0  0  0  0
  -23.9640  -10.4790   21.0600 C   0  0  0  0  0  0  0  0  0  0  0  0
  -24.3990   -9.5010   21.9820 C   0  0  0  0  0  3  0  0  0  0  0  0
  -23.6690   -8.3050   22.1530 C   0  0  0  0  0  3  0  0  0  0  0  0
  -22.4900   -8.0790   21.4010 C   0  0  0  0  0  0  0  0  0  0  0  0
  -22.0760   -9.0450   20.4650 C   0  0  0  0  0  3  0  0  0  0  0  0
  -22.8080  -10.2330   20.2930 C   0  0  0  0  0  3  0  0  0  0  0  0
  -21.7320   -6.9360   21.4830 O   0  0  0  0  0  0  0  0  0  0  0  0
  -21.6640   -6.1960   22.6370 C   0  0  0  0  0  0  0  0  0  0  0  0
  -21.1610   -6.7390   23.8390 C   0  0  0  0  0  3  0  0  0  0  0  0
  -21.0460   -5.9260   24.9840 C   0  0  0  0  0  3  0  0  0  0  0  0
  -21.4250   -4.5710   24.9270 C   0  0  0  0  0  0  0  0  0  0  0  0
  -21.9220   -4.0270   23.7280 C   0  0  0  0  0  3  0  0  0  0  0  0
  -22.0390   -4.8380   22.5850 C   0  0  0  0  0  0  0  0  0  0  0  0
  -22.4970   -4.3040   21.4280 F   0  0  0  0  0  0  0  0  0  0  0  0
  -21.3070   -3.7850   26.0230 F   0  0  0  0  0  0  0  0  0  0  0  0
  -22.8420  -13.5730   21.2420 C   0  0  0  0  0  0  0  0  0  0  0  0
  -22.1300  -12.8680   22.1130 N   0  0  0  0  0  0  0  0  0  0  0  0
  -22.3970  -14.6060   20.7430 O   0  0  0  0  0  0  0  0  0  0  0  0
  -22.5040  -12.0310   22.5360 H   0  0  0  0  0  0  0  0  0  0  0  0
  -21.1970  -13.1680   22.3600 H   0  0  0  0  0  0  0  0  0  0  0  0
  -25.4660  -15.2410   20.4000 N   0  0  0  0  0  0  0  0  0  0  0  0
  -24.7110  -15.9030   20.5370 H   0  0  0  0  0  0  0  0  0  0  0  0
  -26.3220  -15.6720   20.0800 H   0  0  0  0  0  0  0  0  0  0  0  0
  -30.5640  -24.2610   19.9230 C   0  0  0  0  0  1  0  0  0  0  0  0
  -29.1320  -23.9830   20.4120 C   0  0  0  0  0  3  0  0  0  0  0  0
  -28.1320  -25.0980   19.9030 C   0  0  0  0  0  2  0  0  0  0  0  0
  -28.3510  -26.5120   20.2620 O   0  0  0  0  0  0  0  0  0  0  0  0
  -24.6360  -31.9020   23.2730 C   0  0  0  0  0  0  0  0  0  0  0  0
  -27.2410  -27.3670   20.1960 C   0  0  0  0  0  0  0  0  0  0  0  0
  -23.4360  -30.5080   21.6320 C   0  0  0  0  0  3  0  0  0  0  0  0
  -24.8860  -28.9770   20.1990 C   0  0  0  0  0  0  0  0  0  0  0  0
  -25.9780  -30.8250   21.4630 C   0  0  0  0  0  2  0  0  0  0  0  0
  -26.0560  -29.4580   20.8010 C   0  0  0  0  0  0  0  0  0  0  0  0
  -27.2380  -28.6630   20.7930 C   0  0  0  0  0  3  0  0  0  0  0  0
  -26.0490  -26.9460   19.5600 C   0  0  0  0  0  3  0  0  0  0  0  0
  -24.8830  -27.7250   19.5740 C   0  0  0  0  0  3  0  0  0  0  0  0
  -23.6520  -29.8490   20.2480 C   0  0  0  0  0  2  0  0  0  0  0  0
  -24.7030  -31.0900   22.1820 N   0  0  0  0  0  0  0  0  0  0  0  0
  -23.5470  -32.2060   23.7790 O   0  0  0  0  0  0  0  0  0  0  0  0
  -22.7740  -29.4780   22.5790 C   0  0  0  0  0  0  0  0  0  0  0  0
  -21.4500  -29.2920   22.4350 N   0  0  0  0  0  0  0  0  0  0  0  0
  -23.4480  -28.8510   23.4000 O   0  0  0  0  0  0  0  0  0  0  0  0
  -20.9660  -29.8480   21.7440 H   0  0  0  0  0  0  0  0  0  0  0  0
  -18.0670  -28.1120   22.9190 C   0  0  0  0  0  0  0  0  0  0  0  0
  -20.6270  -28.3500   23.1940 C   0  0  0  0  0  3  0  0  0  0  0  0
  -20.7210  -26.9250   22.5990 C   0  0  0  0  0  2  0  0  0  0  0  0
  -19.6160  -26.6220   21.5820 C   0  0  0  0  0  2  0  0  0  0  0  0
  -18.2340  -26.7700   22.2270 C   0  0  0  0  0  2  0  0  0  0  0  0
  -19.1900  -28.8610   23.3600 C   0  0  0  0  0  0  0  0  0  0  0  0
  -18.9800  -30.1180   23.9650 C   0  0  0  0  0  3  0  0  0  0  0  0
  -17.6780  -30.6260   24.1380 C   0  0  0  0  0  3  0  0  0  0  0  0
  -16.5690  -29.8730   23.7150 C   0  0  0  0  0  3  0  0  0  0  0  0
  -16.7640  -28.6180   23.1100 C   0  0  0  0  0  3  0  0  0  0  0  0
  -25.9190  -32.5170   23.9150 C   0  0  0  0  0  3  0  0  0  0  0  0
  -25.6190  -33.9180   24.2380 N   0  0  0  0  0  0  0  0  0  0  0  0
  -25.9170  -34.9600   23.4500 C   0  0  0  0  0  0  0  0  0  0  0  0
  -26.5500  -34.8430   22.3980 O   0  0  0  0  0  0  0  0  0  0  0  0
  -25.0540  -34.0820   25.0580 H   0  0  0  0  0  0  0  0  0  0  0  0
  -24.1560  -36.7290   23.1460 C   0  0  0  0  0  1  0  0  0  0  0  0
  -25.4380  -36.3510   23.9050 C   0  0  0  0  0  3  0  0  0  0  0  0
  -27.5950  -37.2760   24.6270 C   0  0  0  0  0  1  0  0  0  0  0  0
  -26.4530  -37.4120   23.7260 N   0  0  0  0  0  0  0  0  0  0  0  0
  -26.0430  -38.3290   23.8740 H   0  0  0  0  0  0  0  0  0  0  0  0
  -26.4090  -31.7450   25.2010 C   0  0  1  0  0  0  0  0  0  0  0  0
  -25.2950  -31.5130   26.2470 C   0  0  0  0  0  1  0  0  0  0  0  0
  -26.9970  -30.3660   24.8230 C   0  0  0  0  0  1  0  0  0  0  0  0
  -27.5500  -32.5380   25.8850 C   0  0  0  0  0  1  0  0  0  0  0  0
  1  2  1  0
  2  5  1  0
  4  1  1  0
  4 19  1  0
  4  3  1  0
  5 50  1  0
  5  3  1  0
  6 18  1  0
  7 12  1  0
  8  9  1  0
  8  7  1  0
 10  9  1  0
 10 24  1  0
 10 11  1  0
 12  6  1  0
 12 11  1  0
 13  6  2  0
 14 16  1  0
 14 18  1  0
 15 17  1  0
 16 19  1  0
 18 15  1  0
 19 20  1  6
 19 17  1  0
 21 22  2  0
 22 41  1  0
 23 22  1  0
 23 26  1  0
 24 25  1  0
 24 21  1  0
 25 23  2  0
 26 27  1  0
 27 28  2  0
 29 32  1  0
 29 28  1  0
 30 29  2  0
 31 30  1  0
 31 26  2  0
 32 33  1  0
 33 34  1  0
 34 35  2  0
 36 35  1  0
 36 40  1  0
 37 36  2  0
 38 33  2  0
 38 37  1  0
 39 38  1  0
 41 42  1  0
 42 45  1  0
 42 44  1  0
 43 41  2  0
 46 47  1  0
 46 21  1  0
 48 46  1  0
 50 49  1  0
 51 52  1  0
 51 50  1  0
 53 64  2  0
 54 52  1  0
 54 59  1  0
 55 63  1  0
 55 65  1  0
 56 62  1  0
 56 58  1  0
 57 63  1  0
 58 57  1  0
 59 58  2  0
 60 61  1  0
 60 54  2  0
 61 56  2  0
 62 55  1  0
 63 53  1  0
 65 67  2  0
 66 65  1  0
 68 66  1  0
 69 78  2  0
 69 74  1  0
 70 66  1  0
 70 74  1  0
 71 70  1  0
 72 73  1  0
 72 71  1  0
 73 69  1  0
 74 75  2  0
 75 76  1  0
 77 76  2  0
 78 77  1  0
 79 53  1  0
 79 80  1  0
 79 89  1  0
 80 83  1  0
 81 85  1  0
 81 80  1  0
 82 81  2  0
 85 84  1  0
 87 88  1  0
 87 85  1  0
 87 86  1  0
 89 92  1  1
 89 90  1  0
 91 89  1  0
M  ISO  4   6 100  18 100  51 101  52 101
M  END
>  <TORSDO>  (34) 
F 18

>  <SCORE>  (34) 
-14.6

>  <name>  (34) 
33

>  <ligand_id>  (34) 
33

>  <original_smiles>  (34) 
[H]c1c([H])c([H])c2c(c1[H])C([H])([H])C([H])([H])C([H])([H])C2([H])N([H])C(=O)C1([H])N(C(=O)C([H])(N([H])C(=O)C([H])(N([H])C([H])([H])[H])C([H])([H])[H])C(C([H])([H])[H])(C([H])([H])[H])C([H])([H])[H])C([H])([H])c2c([H])c(OC([H])([H])C([H])(N3C([H])([H])C([H])([H])C([H])([N+]4([H])C([H])([H])C([H])([H])N(C(=O)N5C([H])([H])C([H])([H])C([H])([H])C([H])(n6nc(-c7c([H])c([H])c(Oc8c([H])c([H])c(F)c([H])c8F)c([H])c7[H])c(C(=O)N([H])[H])c6N([H])[H])C5([H])[H])C([H])([H])C4([H])[H])C3([H])[H])C([H])([H])[H])c([H])c([H])c2C1([H])[H]

>  <smiles>  (34) 
[H]c1c([H])c([H])c2c(c1[H])C([H])([H])C([H])([H])C([H])([H])C2([H])N([H])C(=O)C1([H])N(C(=O)C([H])(N([H])C(=O)C([H])(N([H])C([H])([H])[H])C([H])([H])[H])C(C([H])([H])[H])(C([H])([H])[H])C([H])([H])[H])C([H])([H])c2c([H])c(OC([H])([H])C([H])(N3C([H])([H])C([H])([H])C([H])([N+]4([H])C([H])([H])C([H])([H])N(C(=O)N5C([H])([H])C([H])([H])C([H])([H])C([H])(n6nc(-c7c([H])c([H])c(Oc8c([H])c([H])c(F)c([H])c8F)c([H])c7[H])c(C(=O)N([H])[H])c6N([H])[H])C5([H])[H])C([H])([H])C4([H])[H])C3([H])[H])C([H])([H])[H])c([H])c([H])c2C1([H])[H]

> <Step>
195.0

> <Scaffold>
O=C(NC1CCCc2ccccc21)C1Cc2ccc(OCCN3CCC(N4CCN(C(=O)N5CCCC(n6ccc(-c7ccc(Oc8ccccc8)cc7)n6)C5)CC4)C3)cc2CN1

> <SMILES>
CNC(C)C(=O)NC(C(=O)N1Cc2cc(OCC(C)N3CCC(N4CCN(C(=O)N5CCCC(n6nc(-c7ccc(Oc8ccc(F)cc8F)cc7)c(C(N)=O)c6N)C5)CC4)C3)ccc2CC1C(=O)NC1CCCc2ccccc21)C(C)(C)C

> <Tanimoto ROCS sim>
0.28648442029953003

> <Custom alerts>
1.0

> <Linker Num Aromatic Rings>
1.0

> <Linker Effective Length>
1.0

> <ADV>
0.9959797859191895

> <PostDock Tanimoto ROCS sim>
0.991131067276001

> <raw_Linker Num Aromatic Rings>
0.0

> <raw_Linker Effective Length>
8.0

> <raw_ADV>
-14.576000213623047

> <total_score>
0.9967777132987976

> <ID>
default_job_33

> <PostDock Tanimoto ROCS sim (re-score)>
0.9797514

> <raw_ADV (re-score)>
-14.6

> <Final Intermolecular Energy>
-29.537

> <Final Total Internal Energy>
-2.882

> <Torsional Free Energy>
14.937

> <Unbound System's Energy>
-2.882

$$$$
default_job_34
     RDKit          3D

 95104  0  0  1  0  0  0  0  0999 V2000
  -31.6120  -23.5990   20.4020 C   0  0  0  0  0  3  0  0  0  0  0  0
  -30.5550  -24.5350   20.3950 C   0  0  0  0  0  3  0  0  0  0  0  0
  -28.9750  -22.6960   20.1300 C   0  0  0  0  0  3  0  0  0  0  0  0
  -31.3580  -22.2180   20.2310 C   0  0  0  0  0  0  0  0  0  0  0  0
  -30.0320  -21.7360   20.1420 C   0  0  0  0  0  0  0  0  0  0  0  0
  -29.2250  -24.1010   20.2230 C   0  0  0  0  0  0  0  0  0  0  0  0
  -32.5030  -21.2390   20.0150 C   0  0  0  0  0  2  0  0  0  0  0  0
  -32.2270  -20.2240   18.8740 C   0  0  0  0  0  2  0  0  0  0  0  0
  -30.7270  -20.0010   18.5470 C   0  0  0  0  0  2  0  0  0  0  0  0
  -29.8100  -20.2460   19.7610 C   0  0  0  0  0  3  0  0  0  0  0  0
  -29.7470  -17.8860   20.6330 C   0  0  0  0  0  0  0  0  0  0  0  0
  -30.1110  -19.1880   20.7630 N   0  0  0  0  0  0  0  0  0  0  0  0
  -28.9490  -17.5200   19.7670 O   0  0  0  0  0  0  0  0  0  0  0  0
  -30.7420  -19.4300   21.5150 H   0  0  0  0  0  0  0  0  0  0  0  0
  -30.3510  -16.8210   21.5820 C   0  0  0  0  0  2  0  0  0  0  0  0
  -30.6320  -14.5060   20.5150 C   0  0  0  0  0  0  0  0  0  0  0  0
  -30.3600  -12.3700   19.2780 C   0  0  0  0  0  2  0  0  0  0  0  0
  -29.4060  -12.5620   18.0810 C   0  0  0  0  0  2  0  0  0  0  0  0
  -27.9330  -12.4160   18.5140 C   0  0  0  0  0  2  0  0  0  0  0  0
  -27.6010  -13.2420   19.7870 C   0  0  0  0  0  3  0  0  0  0  0  0
  -28.6510  -12.9850   20.8870 C   0  0  0  0  0  2  0  0  0  0  0  0
  -29.9750  -13.3250   20.3330 N   0  0  0  0  0  0  0  0  0  0  0  0
  -31.7230  -14.7500   19.9910 O   0  0  0  0  0  0  0  0  0  0  0  0
  -29.9730  -15.4220   21.2590 N   0  0  0  0  0  0  0  0  0  0  0  0
  -29.0700  -15.1340   21.6000 H   0  0  0  0  0  0  0  0  0  0  0  0
  -25.2050  -13.8690   20.4830 C   0  0  0  0  0  0  0  0  0  0  0  0
  -24.1300  -13.1070   20.8600 C   0  0  0  0  0  0  0  0  0  0  0  0
  -24.5820  -11.7530   20.8390 C   0  0  0  0  0  0  0  0  0  0  0  0
  -26.2430  -12.9810   20.2610 N   0  0  0  0  0  0  0  0  0  0  0  0
  -25.8710  -11.7030   20.5270 N   0  0  0  0  0  0  0  0  0  0  0  0
  -23.8490  -10.4960   21.0390 C   0  0  0  0  0  0  0  0  0  0  0  0
  -24.2850   -9.5240   21.9650 C   0  0  0  0  0  3  0  0  0  0  0  0
  -23.5500   -8.3330   22.1510 C   0  0  0  0  0  3  0  0  0  0  0  0
  -22.3650   -8.1060   21.4090 C   0  0  0  0  0  0  0  0  0  0  0  0
  -21.9490   -9.0680   20.4700 C   0  0  0  0  0  3  0  0  0  0  0  0
  -22.6850  -10.2500   20.2840 C   0  0  0  0  0  3  0  0  0  0  0  0
  -21.6040   -6.9670   21.5030 O   0  0  0  0  0  0  0  0  0  0  0  0
  -21.5710   -6.2150   22.6490 C   0  0  0  0  0  0  0  0  0  0  0  0
  -21.1770   -6.7620   23.8890 C   0  0  0  0  0  3  0  0  0  0  0  0
  -21.0920   -5.9360   25.0280 C   0  0  0  0  0  3  0  0  0  0  0  0
  -21.3950   -4.5640   24.9270 C   0  0  0  0  0  0  0  0  0  0  0  0
  -21.7830   -4.0170   23.6920 C   0  0  0  0  0  3  0  0  0  0  0  0
  -21.8690   -4.8400   22.5550 C   0  0  0  0  0  0  0  0  0  0  0  0
  -22.2230   -4.3040   21.3620 F   0  0  0  0  0  0  0  0  0  0  0  0
  -21.3050   -3.7670   26.0180 F   0  0  0  0  0  0  0  0  0  0  0  0
  -22.7370  -13.5980   21.1280 C   0  0  0  0  0  0  0  0  0  0  0  0
  -22.0030  -12.9150   22.0000 N   0  0  0  0  0  0  0  0  0  0  0  0
  -22.3070  -14.6230   20.6010 O   0  0  0  0  0  0  0  0  0  0  0  0
  -22.3650  -12.0860   22.4490 H   0  0  0  0  0  0  0  0  0  0  0  0
  -21.0690  -13.2280   22.2200 H   0  0  0  0  0  0  0  0  0  0  0  0
  -25.3800  -15.2360   20.2950 N   0  0  0  0  0  0  0  0  0  0  0  0
  -24.6070  -15.8890   20.3510 H   0  0  0  0  0  0  0  0  0  0  0  0
  -26.2270  -15.6590   19.9350 H   0  0  0  0  0  0  0  0  0  0  0  0
  -28.0700  -25.1070   20.0360 C   0  0  0  0  0  2  0  0  0  0  0  0
  -28.3170  -26.5430   20.2080 O   0  0  0  0  0  0  0  0  0  0  0  0
  -24.5950  -31.8790   23.2580 C   0  0  0  0  0  0  0  0  0  0  0  0
  -27.1850  -27.3640   20.1640 C   0  0  0  0  0  0  0  0  0  0  0  0
  -23.3800  -30.4870   21.6250 C   0  0  0  0  0  3  0  0  0  0  0  0
  -24.8170  -28.9500   20.1850 C   0  0  0  0  0  0  0  0  0  0  0  0
  -25.9170  -30.8100   21.4280 C   0  0  0  0  0  2  0  0  0  0  0  0
  -25.9890  -29.4410   20.7730 C   0  0  0  0  0  0  0  0  0  0  0  0
  -27.1770  -28.6610   20.7510 C   0  0  0  0  0  3  0  0  0  0  0  0
  -25.9850  -26.9190   19.5540 C   0  0  0  0  0  3  0  0  0  0  0  0
  -24.8140  -27.6950   19.5640 C   0  0  0  0  0  3  0  0  0  0  0  0
  -23.5840  -29.8210   20.2410 C   0  0  0  0  0  2  0  0  0  0  0  0
  -24.6510  -31.0670   22.1650 N   0  0  0  0  0  0  0  0  0  0  0  0
  -23.5090  -32.1780   23.7750 O   0  0  0  0  0  0  0  0  0  0  0  0
  -22.7170  -29.4660   22.5810 C   0  0  0  0  0  0  0  0  0  0  0  0
  -21.3910  -29.2860   22.4490 N   0  0  0  0  0  0  0  0  0  0  0  0
  -23.3930  -28.8390   23.4010 O   0  0  0  0  0  0  0  0  0  0  0  0
  -20.9030  -29.8430   21.7620 H   0  0  0  0  0  0  0  0  0  0  0  0
  -18.0150  -28.0840   22.9310 C   0  0  0  0  0  0  0  0  0  0  0  0
  -20.5700  -28.3470   23.2170 C   0  0  0  0  0  3  0  0  0  0  0  0
  -20.6780  -26.9150   22.6450 C   0  0  0  0  0  2  0  0  0  0  0  0
  -19.5840  -26.5890   21.6240 C   0  0  0  0  0  2  0  0  0  0  0  0
  -18.1970  -26.7340   22.2590 C   0  0  0  0  0  2  0  0  0  0  0  0
  -19.1290  -28.8500   23.3660 C   0  0  0  0  0  0  0  0  0  0  0  0
  -18.9030  -30.1130   23.9520 C   0  0  0  0  0  3  0  0  0  0  0  0
  -17.5970  -30.6130   24.1080 C   0  0  0  0  0  3  0  0  0  0  0  0
  -16.4960  -29.8460   23.6880 C   0  0  0  0  0  3  0  0  0  0  0  0
  -16.7060  -28.5830   23.1040 C   0  0  0  0  0  3  0  0  0  0  0  0
  -25.8830  -32.4950   23.8870 C   0  0  0  0  0  3  0  0  0  0  0  0
  -26.3910  -31.7160   25.1620 C   0  0  1  0  0  0  0  0  0  0  0  0
  -25.2950  -31.4860   26.2270 C   0  0  0  0  0  1  0  0  0  0  0  0
  -26.9630  -30.3340   24.7650 C   0  0  0  0  0  1  0  0  0  0  0  0
  -27.5450  -32.5010   25.8310 C   0  0  0  0  0  1  0  0  0  0  0  0
  -25.5820  -33.8950   24.2210 N   0  0  0  0  0  0  0  0  0  0  0  0
  -25.9020  -34.9450   23.4540 C   0  0  0  0  0  0  0  0  0  0  0  0
  -26.5540  -34.8390   22.4110 O   0  0  0  0  0  0  0  0  0  0  0  0
  -25.0030  -34.0520   25.0320 H   0  0  0  0  0  0  0  0  0  0  0  0
  -24.1630  -36.7380   23.1330 C   0  0  0  0  0  1  0  0  0  0  0  0
  -25.4240  -36.3350   23.9170 C   0  0  0  0  0  3  0  0  0  0  0  0
  -27.5770  -37.2260   24.6930 C   0  0  0  0  0  1  0  0  0  0  0  0
  -26.4530  -37.3880   23.7750 N   0  0  0  0  0  0  0  0  0  0  0  0
  -26.0480  -38.3070   23.9290 H   0  0  0  0  0  0  0  0  0  0  0  0
  2  1  1  0
  3  5  2  0
  3  6  1  0
  4  1  2  0
  5  4  1  0
  6  2  2  0
  7  4  1  0
  8  7  1  0
  9  8  1  0
  9 10  1  0
 10  5  1  0
 10 12  1  0
 11 12  1  0
 11 15  1  0
 12 14  1  0
 13 11  2  0
 16 24  1  0
 17 22  1  0
 18 19  1  0
 18 17  1  0
 20 19  1  0
 20 29  1  0
 20 21  1  0
 22 16  1  0
 22 21  1  0
 23 16  2  0
 24 15  1  0
 24 25  1  0
 26 27  2  0
 27 46  1  0
 28 27  1  0
 28 31  1  0
 29 26  1  0
 29 30  1  0
 30 28  2  0
 31 32  1  0
 32 33  2  0
 34 37  1  0
 34 33  1  0
 35 34  2  0
 36 35  1  0
 36 31  2  0
 37 38  1  0
 38 39  1  0
 39 40  2  0
 41 40  1  0
 41 45  1  0
 42 41  2  0
 43 38  2  0
 43 42  1  0
 44 43  1  0
 46 47  1  0
 47 50  1  0
 47 49  1  0
 48 46  2  0
 51 52  1  0
 51 26  1  0
 53 51  1  0
 54 55  1  0
 54  6  1  0
 56 67  2  0
 57 55  1  0
 57 62  1  0
 58 66  1  0
 58 68  1  0
 59 65  1  0
 59 61  1  0
 60 66  1  0
 61 60  1  0
 62 61  2  0
 63 64  1  0
 63 57  2  0
 64 59  2  0
 65 58  1  0
 66 56  1  0
 68 70  2  0
 69 68  1  0
 71 69  1  0
 72 81  2  0
 72 77  1  0
 73 69  1  0
 73 77  1  0
 74 73  1  0
 75 76  1  0
 75 74  1  0
 76 72  1  0
 77 78  2  0
 78 79  1  0
 80 79  2  0
 81 80  1  0
 82 56  1  0
 82 87  1  0
 82 83  1  0
 83 86  1  1
 83 84  1  0
 85 83  1  0
 87 90  1  0
 88 92  1  0
 88 87  1  0
 89 88  2  0
 92 91  1  0
 94 92  1  0
 94 95  1  0
 94 93  1  0
M  ISO  4  16 100  24 100  54 101  55 101
M  END
>  <TORSDO>  (35) 
F 19

>  <SCORE>  (35) 
-14.511

>  <name>  (35) 
34

>  <ligand_id>  (35) 
34

>  <original_smiles>  (35) 
[H]c1c([H])c([H])c2c(c1[H])C([H])([H])C([H])([H])C([H])([H])C2([H])N([H])C(=O)C1([H])N(C(=O)C([H])(N([H])C(=O)C([H])(N([H])C([H])([H])[H])C([H])([H])[H])C(C([H])([H])[H])(C([H])([H])[H])C([H])([H])[H])C([H])([H])c2c([H])c(OC([H])([H])c3c([H])c([H])c4c(c3[H])C([H])(N([H])C(=O)C([H])([H])N([H])C(=O)N3C([H])([H])C([H])([H])C([H])([H])C([H])(n5nc(-c6c([H])c([H])c(Oc7c([H])c([H])c(F)c([H])c7F)c([H])c6[H])c(C(=O)N([H])[H])c5N([H])[H])C3([H])[H])C([H])([H])C([H])([H])C4([H])[H])c([H])c([H])c2C1([H])[H]

>  <smiles>  (35) 
[H]c1c([H])c([H])c2c(c1[H])C([H])([H])C([H])([H])C([H])([H])C2([H])N([H])C(=O)C1([H])N(C(=O)C([H])(N([H])C(=O)C([H])(N([H])C([H])([H])[H])C([H])([H])[H])C(C([H])([H])[H])(C([H])([H])[H])C([H])([H])[H])C([H])([H])c2c([H])c(OC([H])([H])c3c([H])c([H])c4c(c3[H])C([H])(N([H])C(=O)C([H])([H])N([H])C(=O)N3C([H])([H])C([H])([H])C([H])([H])C([H])(n5nc(-c6c([H])c([H])c(Oc7c([H])c([H])c(F)c([H])c7F)c([H])c6[H])c(C(=O)N([H])[H])c5N([H])[H])C3([H])[H])C([H])([H])C([H])([H])C4([H])[H])c([H])c([H])c2C1([H])[H]

> <Step>
133.0

> <Scaffold>
O=C(CNC(=O)N1CCCC(n2ccc(-c3ccc(Oc4ccccc4)cc3)n2)C1)NC1CCCc2ccc(COc3ccc4c(c3)CNC(C(=O)NC3CCCc5ccccc53)C4)cc21

> <SMILES>
CNC(C)C(=O)NC(C(=O)N1Cc2cc(OCc3ccc4c(c3)C(NC(=O)CNC(=O)N3CCCC(n5nc(-c6ccc(Oc7ccc(F)cc7F)cc6)c(C(N)=O)c5N)C3)CCC4)ccc2CC1C(=O)NC1CCCc2ccccc21)C(C)(C)C

> <Tanimoto ROCS sim>
0.2075275182723999

> <Custom alerts>
1.0

> <Linker Num Aromatic Rings>
1.0

> <Linker Effective Length>
1.0

> <ADV>
0.9958271384239197

> <PostDock Tanimoto ROCS sim>
0.9912821650505066

> <raw_Linker Num Aromatic Rings>
1.0

> <raw_Linker Effective Length>
8.0

> <raw_ADV>
-14.51099967956543

> <total_score>
0.996777355670929

> <ID>
default_job_34

> <PostDock Tanimoto ROCS sim (re-score)>
0.9827835

> <raw_ADV (re-score)>
-14.511

> <Final Intermolecular Energy>
-30.206

> <Final Total Internal Energy>
-2.95

> <Torsional Free Energy>
15.694

> <Unbound System's Energy>
-2.95

$$$$
default_job_35
     RDKit          3D

 93102  0  0  1  0  0  0  0  0999 V2000
  -30.6830  -14.5000   20.5320 C   0  0  0  0  0  0  0  0  0  0  0  0
  -30.4440  -12.2900   19.4500 C   0  0  0  0  0  2  0  0  0  0  0  0
  -29.5350  -12.4530   18.2120 C   0  0  0  0  0  2  0  0  0  0  0  0
  -28.0470  -12.3310   18.6000 C   0  0  0  0  0  2  0  0  0  0  0  0
  -27.6750  -13.2080   19.8250 C   0  0  0  0  0  3  0  0  0  0  0  0
  -28.6940  -13.0080   20.9700 C   0  0  0  0  0  2  0  0  0  0  0  0
  -30.0370  -13.3020   20.4380 N   0  0  0  0  0  0  0  0  0  0  0  0
  -31.8270  -14.6610   20.0890 O   0  0  0  0  0  0  0  0  0  0  0  0
  -28.8250  -19.0500   20.9950 C   0  0  0  0  0  3  0  0  0  0  0  0
  -28.8460  -17.6470   21.1450 C   0  0  0  0  0  3  0  0  0  0  0  0
  -29.9950  -19.7240   20.5700 C   0  0  0  0  0  0  0  0  0  0  0  0
  -31.1310  -18.9150   20.3230 C   0  0  0  0  0  0  0  0  0  0  0  0
  -30.0200  -16.9150   20.8700 C   0  0  0  0  0  0  0  0  0  0  0  0
  -31.1400  -17.5680   20.4790 N   0  0  0  0  0  0  0  0  0  0  0  0
  -29.9240  -15.4980   21.0330 N   0  0  0  0  0  0  0  0  0  0  0  0
  -29.0430  -15.1770   21.3990 H   0  0  0  0  0  0  0  0  0  0  0  0
  -25.2610  -13.8520   20.4460 C   0  0  0  0  0  0  0  0  0  0  0  0
  -24.1770  -13.0980   20.8070 C   0  0  0  0  0  0  0  0  0  0  0  0
  -24.6280  -11.7420   20.8240 C   0  0  0  0  0  0  0  0  0  0  0  0
  -26.3050  -12.9570   20.2690 N   0  0  0  0  0  0  0  0  0  0  0  0
  -25.9250  -11.6850   20.5510 N   0  0  0  0  0  0  0  0  0  0  0  0
  -23.8870  -10.4900   21.0260 C   0  0  0  0  0  0  0  0  0  0  0  0
  -24.3080   -9.5280   21.9690 C   0  0  0  0  0  3  0  0  0  0  0  0
  -23.5700   -8.3390   22.1590 C   0  0  0  0  0  3  0  0  0  0  0  0
  -22.3970   -8.1060   21.4040 C   0  0  0  0  0  0  0  0  0  0  0  0
  -21.9940   -9.0570   20.4500 C   0  0  0  0  0  3  0  0  0  0  0  0
  -22.7320  -10.2360   20.2590 C   0  0  0  0  0  3  0  0  0  0  0  0
  -21.6310   -6.9690   21.5020 O   0  0  0  0  0  0  0  0  0  0  0  0
  -21.5920   -6.2240   22.6540 C   0  0  0  0  0  0  0  0  0  0  0  0
  -21.2210   -6.7880   23.8940 C   0  0  0  0  0  3  0  0  0  0  0  0
  -21.1270   -5.9720   25.0380 C   0  0  0  0  0  3  0  0  0  0  0  0
  -21.3930   -4.5930   24.9440 C   0  0  0  0  0  0  0  0  0  0  0  0
  -21.7560   -4.0280   23.7090 C   0  0  0  0  0  3  0  0  0  0  0  0
  -21.8520   -4.8420   22.5660 C   0  0  0  0  0  0  0  0  0  0  0  0
  -22.1820   -4.2900   21.3740 F   0  0  0  0  0  0  0  0  0  0  0  0
  -21.2950   -3.8060   26.0410 F   0  0  0  0  0  0  0  0  0  0  0  0
  -22.7760  -13.5920   21.0270 C   0  0  0  0  0  0  0  0  0  0  0  0
  -22.0210  -12.9280   21.8960 N   0  0  0  0  0  0  0  0  0  0  0  0
  -22.3580  -14.6020   20.4620 O   0  0  0  0  0  0  0  0  0  0  0  0
  -22.3710  -12.1120   22.3770 H   0  0  0  0  0  0  0  0  0  0  0  0
  -21.0790  -13.2430   22.0850 H   0  0  0  0  0  0  0  0  0  0  0  0
  -25.4400  -15.2160   20.2360 N   0  0  0  0  0  0  0  0  0  0  0  0
  -24.6670  -15.8700   20.2870 H   0  0  0  0  0  0  0  0  0  0  0  0
  -26.2870  -15.6340   19.8720 H   0  0  0  0  0  0  0  0  0  0  0  0
  -32.5460  -20.3910   18.6750 C   0  0  0  0  0  2  0  0  0  0  0  0
  -33.1520  -19.0140   18.6490 C   0  0  0  0  0  2  0  0  0  0  0  0
  -32.4450  -19.5020   19.8970 C   0  0  0  0  0  3  0  0  0  0  0  0
  -30.0950  -21.0980   20.3910 O   0  0  0  0  0  0  0  0  0  0  0  0
  -28.9740  -21.9430   20.6770 C   0  0  0  0  0  2  0  0  0  0  0  0
  -29.3730  -23.4310   20.4820 C   0  0  0  0  0  2  0  0  0  0  0  0
  -28.2800  -24.4500   20.9040 C   0  0  0  0  0  2  0  0  0  0  0  0
  -28.7380  -25.9330   20.9850 C   0  0  0  0  0  2  0  0  0  0  0  0
  -28.4580  -26.7060   19.8090 O   0  0  0  0  0  0  0  0  0  0  0  0
  -24.6720  -31.8160   23.0730 C   0  0  0  0  0  0  0  0  0  0  0  0
  -27.3010  -27.4480   19.8730 C   0  0  0  0  0  0  0  0  0  0  0  0
  -23.4490  -30.4210   21.4380 C   0  0  0  0  0  3  0  0  0  0  0  0
  -24.8920  -28.9230   19.9590 C   0  0  0  0  0  0  0  0  0  0  0  0
  -25.9660  -30.8090   21.1990 C   0  0  0  0  0  2  0  0  0  0  0  0
  -26.0550  -29.4490   20.5360 C   0  0  0  0  0  0  0  0  0  0  0  0
  -27.2640  -28.7180   20.4950 C   0  0  0  0  0  3  0  0  0  0  0  0
  -26.1280  -26.9360   19.2870 C   0  0  0  0  0  3  0  0  0  0  0  0
  -24.9220  -27.6630   19.3320 C   0  0  0  0  0  3  0  0  0  0  0  0
  -23.6390  -29.7660   20.0440 C   0  0  0  0  0  2  0  0  0  0  0  0
  -24.7160  -31.0260   21.9640 N   0  0  0  0  0  0  0  0  0  0  0  0
  -23.5950  -32.0900   23.6180 O   0  0  0  0  0  0  0  0  0  0  0  0
  -22.8290  -29.3770   22.3950 C   0  0  0  0  0  0  0  0  0  0  0  0
  -21.5010  -29.1950   22.3040 N   0  0  0  0  0  0  0  0  0  0  0  0
  -23.5370  -28.7340   23.1740 O   0  0  0  0  0  0  0  0  0  0  0  0
  -20.9910  -29.7650   21.6450 H   0  0  0  0  0  0  0  0  0  0  0  0
  -18.1440  -27.9870   22.8760 C   0  0  0  0  0  0  0  0  0  0  0  0
  -20.7100  -28.2370   23.0740 C   0  0  0  0  0  3  0  0  0  0  0  0
  -20.7920  -26.8210   22.4590 C   0  0  0  0  0  2  0  0  0  0  0  0
  -19.6600  -26.5260   21.4700 C   0  0  0  0  0  2  0  0  0  0  0  0
  -18.2980  -26.6540   22.1600 C   0  0  0  0  0  2  0  0  0  0  0  0
  -19.2760  -28.7370   23.2910 C   0  0  0  0  0  0  0  0  0  0  0  0
  -19.0770  -29.9840   23.9220 C   0  0  0  0  0  3  0  0  0  0  0  0
  -17.7790  -30.4820   24.1400 C   0  0  0  0  0  3  0  0  0  0  0  0
  -16.6620  -29.7290   23.7400 C   0  0  0  0  0  3  0  0  0  0  0  0
  -16.8450  -28.4820   23.1140 C   0  0  0  0  0  3  0  0  0  0  0  0
  -25.9670  -32.4390   23.6870 C   0  0  0  0  0  3  0  0  0  0  0  0
  -25.6440  -33.8160   24.0870 N   0  0  0  0  0  0  0  0  0  0  0  0
  -25.9250  -34.9030   23.3580 C   0  0  0  0  0  0  0  0  0  0  0  0
  -26.5570  -34.8560   22.2990 O   0  0  0  0  0  0  0  0  0  0  0  0
  -25.0770  -33.9250   24.9150 H   0  0  0  0  0  0  0  0  0  0  0  0
  -24.1400  -36.6610   23.1450 C   0  0  0  0  0  1  0  0  0  0  0  0
  -25.4240  -36.2600   23.8880 C   0  0  0  0  0  3  0  0  0  0  0  0
  -27.5740  -37.1630   24.6560 C   0  0  0  0  0  1  0  0  0  0  0  0
  -26.4250  -37.3430   23.7710 N   0  0  0  0  0  0  0  0  0  0  0  0
  -26.0050  -38.2450   23.9770 H   0  0  0  0  0  0  0  0  0  0  0  0
  -26.5410  -31.6240   24.9090 C   0  0  1  0  0  0  0  0  0  0  0  0
  -25.4900  -31.3240   26.0030 C   0  0  0  0  0  1  0  0  0  0  0  0
  -27.1300  -30.2730   24.4380 C   0  0  0  0  0  1  0  0  0  0  0  0
  -27.7030  -32.4070   25.5640 C   0  0  0  0  0  1  0  0  0  0  0  0
  1 15  1  0
  2  7  1  0
  3  4  1  0
  3  2  1  0
  5  4  1  0
  5 20  1  0
  5  6  1  0
  7  1  1  0
  7  6  1  0
  8  1  2  0
  9 10  1  0
 11  9  2  0
 12 14  2  0
 12 11  1  0
 13 15  1  0
 13 10  2  0
 14 13  1  0
 15 16  1  0
 17 18  2  0
 18 19  1  0
 18 37  1  0
 19 22  1  0
 20 17  1  0
 20 21  1  0
 21 19  2  0
 22 23  1  0
 23 24  2  0
 25 28  1  0
 25 24  1  0
 26 25  2  0
 27 26  1  0
 27 22  2  0
 28 29  1  0
 29 30  1  0
 30 31  2  0
 32 31  1  0
 32 36  1  0
 33 32  2  0
 34 29  2  0
 34 33  1  0
 35 34  1  0
 37 38  1  0
 38 41  1  0
 38 40  1  0
 39 37  2  0
 42 43  1  0
 42 17  1  0
 44 42  1  0
 45 47  1  0
 46 45  1  0
 46 47  1  0
 47 12  1  0
 48 11  1  0
 48 49  1  0
 50 49  1  0
 50 51  1  0
 51 52  1  0
 53 55  1  0
 53 52  1  0
 54 65  2  0
 55 60  1  0
 56 64  1  0
 56 66  1  0
 57 63  1  0
 57 59  1  0
 58 64  1  0
 59 58  1  0
 60 59  2  0
 61 62  1  0
 61 55  2  0
 62 57  2  0
 63 56  1  0
 64 54  1  0
 66 68  2  0
 67 66  1  0
 69 67  1  0
 70 79  2  0
 70 75  1  0
 71 67  1  0
 71 75  1  0
 72 71  1  0
 73 74  1  0
 73 72  1  0
 74 70  1  0
 75 76  2  0
 76 77  1  0
 78 77  2  0
 79 78  1  0
 80 54  1  0
 80 81  1  0
 80 90  1  0
 81 84  1  0
 82 86  1  0
 82 81  1  0
 83 82  2  0
 86 85  1  0
 88 86  1  0
 88 89  1  0
 88 87  1  0
 90 93  1  1
 90 91  1  0
 92 90  1  0
M  ISO  4   1 100  15 100  52 101  53 101
M  END
>  <TORSDO>  (36) 
F 21

>  <SCORE>  (36) 
-12.785

>  <name>  (36) 
35

>  <ligand_id>  (36) 
35

>  <original_smiles>  (36) 
[H]c1c(N([H])C(=O)N2C([H])([H])C([H])([H])C([H])([H])C([H])(n3nc(-c4c([H])c([H])c(Oc5c([H])c([H])c(F)c([H])c5F)c([H])c4[H])c(C(=O)N([H])[H])c3N([H])[H])C2([H])[H])nc(C2([H])C([H])([H])C2([H])[H])c(OC([H])([H])C([H])([H])C([H])([H])C([H])([H])Oc2c([H])c([H])c3c(c2[H])C([H])([H])N(C(=O)C([H])(N([H])C(=O)C([H])(N([H])C([H])([H])[H])C([H])([H])[H])C(C([H])([H])[H])(C([H])([H])[H])C([H])([H])[H])C([H])(C(=O)N([H])C2([H])c4c([H])c([H])c([H])c([H])c4C([H])([H])C([H])([H])C2([H])[H])C3([H])[H])c1[H]

>  <smiles>  (36) 
[H]c1c(N([H])C(=O)N2C([H])([H])C([H])([H])C([H])([H])C([H])(n3nc(-c4c([H])c([H])c(Oc5c([H])c([H])c(F)c([H])c5F)c([H])c4[H])c(C(=O)N([H])[H])c3N([H])[H])C2([H])[H])nc(C2([H])C([H])([H])C2([H])[H])c(OC([H])([H])C([H])([H])C([H])([H])C([H])([H])Oc2c([H])c([H])c3c(c2[H])C([H])([H])N(C(=O)C([H])(N([H])C(=O)C([H])(N([H])C([H])([H])[H])C([H])([H])[H])C(C([H])([H])[H])(C([H])([H])[H])C([H])([H])[H])C([H])(C(=O)N([H])C2([H])c4c([H])c([H])c([H])c([H])c4C([H])([H])C([H])([H])C2([H])[H])C3([H])[H])c1[H]

> <Step>
148.0

> <Scaffold>
O=C(NC1CCCc2ccccc21)C1Cc2ccc(OCCCCOc3ccc(NC(=O)N4CCCC(n5ccc(-c6ccc(Oc7ccccc7)cc6)n5)C4)nc3C3CC3)cc2CN1

> <SMILES>
CNC(C)C(=O)NC(C(=O)N1Cc2cc(OCCCCOc3ccc(NC(=O)N4CCCC(n5nc(-c6ccc(Oc7ccc(F)cc7F)cc6)c(C(N)=O)c5N)C4)nc3C3CC3)ccc2CC1C(=O)NC1CCCc2ccccc21)C(C)(C)C

> <Tanimoto ROCS sim>
0.24816067516803741

> <Custom alerts>
1.0

> <Linker Num Aromatic Rings>
1.0

> <Linker Effective Length>
1.0

> <ADV>
0.9876798391342163

> <PostDock Tanimoto ROCS sim>
0.9993994235992432

> <raw_Linker Num Aromatic Rings>
1.0

> <raw_Linker Effective Length>
9.0

> <raw_ADV>
-12.616000175476074

> <total_score>
0.9967698454856873

> <ID>
default_job_35

> <PostDock Tanimoto ROCS sim (re-score)>
0.9778648

> <raw_ADV (re-score)>
-12.785

> <Final Intermolecular Energy>
-28.107

> <Final Total Internal Energy>
-2.436

> <Torsional Free Energy>
15.322

> <Unbound System's Energy>
-2.436

$$$$
default_job_36
     RDKit          3D

 95104  0  0  1  0  0  0  0  0999 V2000
  -30.9020  -22.4200   21.8450 C   0  0  0  0  0  3  0  0  0  0  0  0
  -31.0930  -20.0950   21.0970 C   0  0  0  0  0  0  0  0  0  0  0  0
  -29.8610  -20.2310   20.3980 C   0  0  0  0  0  0  0  0  0  0  0  0
  -31.5880  -21.1920   21.8490 C   0  0  0  0  0  0  0  0  0  0  0  0
  -29.1490  -21.4690   20.4540 C   0  0  0  0  0  0  0  0  0  0  0  0
  -29.6870  -22.5860   21.1450 C   0  0  0  0  0  0  0  0  0  0  0  0
  -31.9170  -18.8050   20.9840 C   0  0  0  0  0  2  0  0  0  0  0  0
  -29.3550  -19.0720   19.5200 C   0  0  0  0  0  2  0  0  0  0  0  0
  -31.2360  -17.5370   21.5300 C   0  0  0  0  0  2  0  0  0  0  0  0
  -29.0430  -17.7500   20.2590 C   0  0  0  0  0  2  0  0  0  0  0  0
  -30.2950  -16.8880   20.5010 C   0  0  0  0  0  3  0  0  0  0  0  0
  -32.8740  -21.1030   22.6600 C   0  0  0  0  0  1  0  0  0  0  0  0
  -27.8110  -21.6330   19.7400 C   0  0  0  0  0  1  0  0  0  0  0  0
  -30.6650  -14.4350   20.4400 C   0  0  0  0  0  0  0  0  0  0  0  0
  -30.3310  -12.2890   19.2940 C   0  0  0  0  0  2  0  0  0  0  0  0
  -29.3900  -12.5290   18.0950 C   0  0  0  0  0  2  0  0  0  0  0  0
  -27.9160  -12.4030   18.5290 C   0  0  0  0  0  2  0  0  0  0  0  0
  -27.5940  -13.2250   19.8070 C   0  0  0  0  0  3  0  0  0  0  0  0
  -28.6530  -12.9880   20.9080 C   0  0  0  0  0  2  0  0  0  0  0  0
  -29.9780  -13.2670   20.3330 N   0  0  0  0  0  0  0  0  0  0  0  0
  -31.8010  -14.5830   19.9850 O   0  0  0  0  0  0  0  0  0  0  0  0
  -29.9520  -15.4980   20.8560 N   0  0  0  0  0  0  0  0  0  0  0  0
  -29.0290  -15.3160   21.2200 H   0  0  0  0  0  0  0  0  0  0  0  0
  -25.1950  -13.8340   20.5140 C   0  0  0  0  0  0  0  0  0  0  0  0
  -24.1280  -13.0620   20.8870 C   0  0  0  0  0  0  0  0  0  0  0  0
  -24.5890  -11.7100   20.8600 C   0  0  0  0  0  0  0  0  0  0  0  0
  -26.2410  -12.9520   20.2860 N   0  0  0  0  0  0  0  0  0  0  0  0
  -25.8780  -11.6700   20.5490 N   0  0  0  0  0  0  0  0  0  0  0  0
  -23.8630  -10.4490   21.0520 C   0  0  0  0  0  0  0  0  0  0  0  0
  -24.2990   -9.4800   21.9830 C   0  0  0  0  0  3  0  0  0  0  0  0
  -23.5730   -8.2840   22.1640 C   0  0  0  0  0  3  0  0  0  0  0  0
  -22.3970   -8.0460   21.4140 C   0  0  0  0  0  0  0  0  0  0  0  0
  -21.9800   -9.0030   20.4720 C   0  0  0  0  0  3  0  0  0  0  0  0
  -22.7070  -10.1920   20.2890 C   0  0  0  0  0  3  0  0  0  0  0  0
  -21.6430   -6.9010   21.5040 O   0  0  0  0  0  0  0  0  0  0  0  0
  -21.6080   -6.1510   22.6520 C   0  0  0  0  0  0  0  0  0  0  0  0
  -21.2030   -6.6990   23.8890 C   0  0  0  0  0  3  0  0  0  0  0  0
  -21.1150   -5.8760   25.0290 C   0  0  0  0  0  3  0  0  0  0  0  0
  -21.4230   -4.5050   24.9340 C   0  0  0  0  0  0  0  0  0  0  0  0
  -21.8220   -3.9570   23.7020 C   0  0  0  0  0  3  0  0  0  0  0  0
  -21.9110   -4.7770   22.5640 C   0  0  0  0  0  0  0  0  0  0  0  0
  -22.2760   -4.2400   21.3750 F   0  0  0  0  0  0  0  0  0  0  0  0
  -21.3320   -3.7110   26.0260 F   0  0  0  0  0  0  0  0  0  0  0  0
  -22.7310  -13.5400   21.1610 C   0  0  0  0  0  0  0  0  0  0  0  0
  -22.0040  -12.8420   22.0260 N   0  0  0  0  0  0  0  0  0  0  0  0
  -22.2930  -14.5680   20.6440 O   0  0  0  0  0  0  0  0  0  0  0  0
  -22.3710  -12.0100   22.4630 H   0  0  0  0  0  0  0  0  0  0  0  0
  -21.0670  -13.1440   22.2540 H   0  0  0  0  0  0  0  0  0  0  0  0
  -25.3600  -15.2040   20.3320 N   0  0  0  0  0  0  0  0  0  0  0  0
  -24.5920  -15.8580   20.4390 H   0  0  0  0  0  0  0  0  0  0  0  0
  -26.2050  -15.6410   19.9900 H   0  0  0  0  0  0  0  0  0  0  0  0
  -28.9980  -23.7900   21.1070 O   0  0  0  0  0  0  0  0  0  0  0  0
  -29.6730  -24.9900   21.5000 C   0  0  0  0  0  2  0  0  0  0  0  0
  -28.7250  -26.2060   21.5000 C   0  0  0  0  0  2  0  0  0  0  0  0
  -28.4000  -26.6680   20.1880 O   0  0  0  0  0  0  0  0  0  0  0  0
  -24.6070  -31.8740   23.2380 C   0  0  0  0  0  0  0  0  0  0  0  0
  -27.2650  -27.4400   20.1710 C   0  0  0  0  0  0  0  0  0  0  0  0
  -23.4050  -30.4590   21.6010 C   0  0  0  0  0  3  0  0  0  0  0  0
  -24.8650  -28.9240   20.1760 C   0  0  0  0  0  0  0  0  0  0  0  0
  -25.9280  -30.8250   21.4070 C   0  0  0  0  0  2  0  0  0  0  0  0
  -26.0170  -29.4550   20.7710 C   0  0  0  0  0  0  0  0  0  0  0  0
  -27.2200  -28.7170   20.7740 C   0  0  0  0  0  3  0  0  0  0  0  0
  -26.1060  -26.9230   19.5610 C   0  0  0  0  0  3  0  0  0  0  0  0
  -24.9030  -27.6560   19.5700 C   0  0  0  0  0  3  0  0  0  0  0  0
  -23.6160  -29.7760   20.2230 C   0  0  0  0  0  2  0  0  0  0  0  0
  -24.6650  -31.0640   22.1430 N   0  0  0  0  0  0  0  0  0  0  0  0
  -23.5210  -32.1680   23.7540 O   0  0  0  0  0  0  0  0  0  0  0  0
  -22.7550  -29.4400   22.5630 C   0  0  0  0  0  0  0  0  0  0  0  0
  -21.4300  -29.2620   22.4390 N   0  0  0  0  0  0  0  0  0  0  0  0
  -23.4390  -28.8110   23.3750 O   0  0  0  0  0  0  0  0  0  0  0  0
  -20.9400  -29.8220   21.7540 H   0  0  0  0  0  0  0  0  0  0  0  0
  -18.0500  -28.0880   22.9430 C   0  0  0  0  0  0  0  0  0  0  0  0
  -20.6100  -28.3250   23.2070 C   0  0  0  0  0  3  0  0  0  0  0  0
  -20.7000  -26.8960   22.6200 C   0  0  0  0  0  2  0  0  0  0  0  0
  -19.5910  -26.5890   21.6090 C   0  0  0  0  0  2  0  0  0  0  0  0
  -18.2130  -26.7410   22.2600 C   0  0  0  0  0  2  0  0  0  0  0  0
  -19.1760  -28.8400   23.3730 C   0  0  0  0  0  0  0  0  0  0  0  0
  -18.9690  -30.1020   23.9700 C   0  0  0  0  0  3  0  0  0  0  0  0
  -17.6700  -30.6130   24.1440 C   0  0  0  0  0  3  0  0  0  0  0  0
  -16.5580  -29.8580   23.7330 C   0  0  0  0  0  3  0  0  0  0  0  0
  -16.7490  -28.5980   23.1380 C   0  0  0  0  0  3  0  0  0  0  0  0
  -25.8950  -32.4950   23.8670 C   0  0  0  0  0  3  0  0  0  0  0  0
  -26.4110  -31.7180   25.1400 C   0  0  1  0  0  0  0  0  0  0  0  0
  -25.3160  -31.4750   26.2040 C   0  0  0  0  0  1  0  0  0  0  0  0
  -26.9970  -30.3440   24.7400 C   0  0  0  0  0  1  0  0  0  0  0  0
  -27.5610  -32.5090   25.8070 C   0  0  0  0  0  1  0  0  0  0  0  0
  -25.5920  -33.8920   24.1990 N   0  0  0  0  0  0  0  0  0  0  0  0
  -25.9210  -34.9430   23.4350 C   0  0  0  0  0  0  0  0  0  0  0  0
  -26.5860  -34.8380   22.4020 O   0  0  0  0  0  0  0  0  0  0  0  0
  -25.0020  -34.0490   25.0030 H   0  0  0  0  0  0  0  0  0  0  0  0
  -24.1890  -36.7310   23.0840 C   0  0  0  0  0  1  0  0  0  0  0  0
  -25.4340  -36.3310   23.8910 C   0  0  0  0  0  3  0  0  0  0  0  0
  -27.5710  -37.2190   24.7110 C   0  0  0  0  0  1  0  0  0  0  0  0
  -26.4650  -37.3840   23.7720 N   0  0  0  0  0  0  0  0  0  0  0  0
  -26.0600  -38.3040   23.9200 H   0  0  0  0  0  0  0  0  0  0  0  0
  1  4  1  0
  2  4  2  0
  3  5  2  0
  3  2  1  0
  4 12  1  0
  5  6  1  0
  6  1  2  0
  7  2  1  0
  7  9  1  0
  8 10  1  0
  8  3  1  0
 10 11  1  0
 11 22  1  0
 11  9  1  0
 13  5  1  0
 14 22  1  0
 15 20  1  0
 16 17  1  0
 16 15  1  0
 18 17  1  0
 18 27  1  0
 18 19  1  0
 20 14  1  0
 20 19  1  0
 21 14  2  0
 22 23  1  0
 24 25  2  0
 25 44  1  0
 26 25  1  0
 26 29  1  0
 27 24  1  0
 27 28  1  0
 28 26  2  0
 29 30  1  0
 30 31  2  0
 32 35  1  0
 32 31  1  0
 33 32  2  0
 34 33  1  0
 34 29  2  0
 35 36  1  0
 36 37  1  0
 37 38  2  0
 39 38  1  0
 39 43  1  0
 40 39  2  0
 41 36  2  0
 41 40  1  0
 42 41  1  0
 44 45  1  0
 45 48  1  0
 45 47  1  0
 46 44  2  0
 49 50  1  0
 49 24  1  0
 51 49  1  0
 52  6  1  0
 52 53  1  0
 53 54  1  0
 55 54  1  0
 56 67  2  0
 57 55  1  0
 57 62  1  0
 58 66  1  0
 58 68  1  0
 59 65  1  0
 59 61  1  0
 60 66  1  0
 61 62  2  0
 61 60  1  0
 63 64  1  0
 63 57  2  0
 64 59  2  0
 65 58  1  0
 66 56  1  0
 68 70  2  0
 69 68  1  0
 71 69  1  0
 72 81  2  0
 72 77  1  0
 73 69  1  0
 73 77  1  0
 74 73  1  0
 75 76  1  0
 75 74  1  0
 76 72  1  0
 77 78  2  0
 78 79  1  0
 80 79  2  0
 81 80  1  0
 82 56  1  0
 82 87  1  0
 82 83  1  0
 83 86  1  1
 83 84  1  0
 85 83  1  0
 87 90  1  0
 88 92  1  0
 88 87  1  0
 89 88  2  0
 92 91  1  0
 94 92  1  0
 94 95  1  0
 94 93  1  0
M  ISO  4  14 100  22 100  54 101  55 101
M  END
>  <TORSDO>  (37) 
F 19

>  <SCORE>  (37) 
-14.724

>  <name>  (37) 
36

>  <ligand_id>  (37) 
36

>  <original_smiles>  (37) 
[H]c1c([H])c([H])c2c(c1[H])C([H])([H])C([H])([H])C([H])([H])C2([H])N([H])C(=O)C1([H])N(C(=O)C([H])(N([H])C(=O)C([H])(N([H])C([H])([H])[H])C([H])([H])[H])C(C([H])([H])[H])(C([H])([H])[H])C([H])([H])[H])C([H])([H])c2c([H])c(OC([H])([H])C([H])([H])Oc3c([H])c(C([H])([H])[H])c4c(c3C([H])([H])[H])C([H])([H])C([H])([H])C([H])(N([H])C(=O)N3C([H])([H])C([H])([H])C([H])([H])C([H])(n5nc(-c6c([H])c([H])c(Oc7c([H])c([H])c(F)c([H])c7F)c([H])c6[H])c(C(=O)N([H])[H])c5N([H])[H])C3([H])[H])C([H])([H])C4([H])[H])c([H])c([H])c2C1([H])[H]

>  <smiles>  (37) 
[H]c1c([H])c([H])c2c(c1[H])C([H])([H])C([H])([H])C([H])([H])C2([H])N([H])C(=O)C1([H])N(C(=O)C([H])(N([H])C(=O)C([H])(N([H])C([H])([H])[H])C([H])([H])[H])C(C([H])([H])[H])(C([H])([H])[H])C([H])([H])[H])C([H])([H])c2c([H])c(OC([H])([H])C([H])([H])Oc3c([H])c(C([H])([H])[H])c4c(c3C([H])([H])[H])C([H])([H])C([H])([H])C([H])(N([H])C(=O)N3C([H])([H])C([H])([H])C([H])([H])C([H])(n5nc(-c6c([H])c([H])c(Oc7c([H])c([H])c(F)c([H])c7F)c([H])c6[H])c(C(=O)N([H])[H])c5N([H])[H])C3([H])[H])C([H])([H])C4([H])[H])c([H])c([H])c2C1([H])[H]

> <Step>
150.0

> <Scaffold>
O=C(NC1CCCc2ccccc21)C1Cc2ccc(OCCOc3ccc4c(c3)CCC(NC(=O)N3CCCC(n5ccc(-c6ccc(Oc7ccccc7)cc6)n5)C3)CC4)cc2CN1

> <SMILES>
CNC(C)C(=O)NC(C(=O)N1Cc2cc(OCCOc3cc(C)c4c(c3C)CCC(NC(=O)N3CCCC(n5nc(-c6ccc(Oc7ccc(F)cc7F)cc6)c(C(N)=O)c5N)C3)CC4)ccc2CC1C(=O)NC1CCCc2ccccc21)C(C)(C)C

> <Tanimoto ROCS sim>
0.265769362449646

> <Custom alerts>
1.0

> <Linker Num Aromatic Rings>
1.0

> <Linker Effective Length>
1.0

> <ADV>
0.9962770938873291

> <PostDock Tanimoto ROCS sim>
0.9907816052436829

> <raw_Linker Num Aromatic Rings>
1.0

> <raw_Linker Effective Length>
9.0

> <raw_ADV>
-14.710000038146973

> <total_score>
0.9967646598815918

> <ID>
default_job_36

> <PostDock Tanimoto ROCS sim (re-score)>
0.9849517

> <raw_ADV (re-score)>
-14.724

> <Final Intermolecular Energy>
-30.648

> <Final Total Internal Energy>
-2.924

> <Torsional Free Energy>
15.924

> <Unbound System's Energy>
-2.924

$$$$
default_job_37
     RDKit          3D

 92101  0  0  1  0  0  0  0  0999 V2000
  -28.9440  -20.8450   20.9010 C   0  0  0  0  0  3  0  0  0  0  0  0
  -29.3610  -19.5540   21.3520 C   0  0  0  0  0  3  0  0  0  0  0  0
  -28.9630  -21.1790   19.5200 C   0  0  0  0  0  0  0  0  0  0  0  0
  -29.7910  -18.5550   20.4400 C   0  0  0  0  0  0  0  0  0  0  0  0
  -29.4080  -20.0900   18.6880 C   0  0  0  0  0  0  0  0  0  0  0  0
  -29.4990  -20.2030   17.1750 C   0  0  0  0  0  1  0  0  0  0  0  0
  -29.7970  -18.8560   19.1260 N   0  0  0  0  0  0  0  0  0  0  0  0
  -27.1210  -23.1100   19.1810 C   0  0  0  0  0  2  0  0  0  0  0  0
  -28.4590  -22.5340   18.8690 C   0  0  0  0  0  3  0  0  0  0  0  0
  -28.2810  -24.1070   19.1560 C   0  0  1  0  0  0  0  0  0  0  0  0
  -28.6080  -24.8960   17.8850 C   0  0  0  0  0  1  0  0  0  0  0  0
  -28.3020  -25.0850   20.4020 C   0  0  0  0  0  2  0  0  0  0  0  0
  -28.3860  -26.5650   20.2170 O   0  0  0  0  0  0  0  0  0  0  0  0
  -24.5820  -31.8990   23.2380 C   0  0  0  0  0  0  0  0  0  0  0  0
  -27.2390  -27.3700   20.1850 C   0  0  0  0  0  0  0  0  0  0  0  0
  -23.3990  -30.5060   21.5780 C   0  0  0  0  0  3  0  0  0  0  0  0
  -24.8670  -28.9660   20.1560 C   0  0  0  0  0  0  0  0  0  0  0  0
  -25.9370  -30.8350   21.4250 C   0  0  0  0  0  2  0  0  0  0  0  0
  -26.0270  -29.4630   20.7650 C   0  0  0  0  0  0  0  0  0  0  0  0
  -27.2180  -28.6800   20.7600 C   0  0  0  0  0  3  0  0  0  0  0  0
  -26.0590  -26.9160   19.5640 C   0  0  0  0  0  3  0  0  0  0  0  0
  -24.8860  -27.7000   19.5460 C   0  0  0  0  0  3  0  0  0  0  0  0
  -23.6260  -29.8360   20.1960 C   0  0  0  0  0  2  0  0  0  0  0  0
  -24.6580  -31.0930   22.1400 N   0  0  0  0  0  0  0  0  0  0  0  0
  -23.4880  -32.1950   23.7380 O   0  0  0  0  0  0  0  0  0  0  0  0
  -22.7260  -29.4820   22.5240 C   0  0  0  0  0  0  0  0  0  0  0  0
  -21.4010  -29.3060   22.3810 N   0  0  0  0  0  0  0  0  0  0  0  0
  -23.3960  -28.8490   23.3430 O   0  0  0  0  0  0  0  0  0  0  0  0
  -20.9220  -29.8640   21.6880 H   0  0  0  0  0  0  0  0  0  0  0  0
  -18.0120  -28.1390   22.8630 C   0  0  0  0  0  0  0  0  0  0  0  0
  -20.5740  -28.3600   23.1300 C   0  0  0  0  0  3  0  0  0  0  0  0
  -20.6560  -26.9430   22.5180 C   0  0  0  0  0  2  0  0  0  0  0  0
  -19.5470  -26.6600   21.5000 C   0  0  0  0  0  2  0  0  0  0  0  0
  -18.1690  -26.8050   22.1510 C   0  0  0  0  0  2  0  0  0  0  0  0
  -19.1420  -28.8760   23.3080 C   0  0  0  0  0  0  0  0  0  0  0  0
  -18.9400  -30.1250   23.9330 C   0  0  0  0  0  3  0  0  0  0  0  0
  -17.6430  -30.6390   24.1170 C   0  0  0  0  0  3  0  0  0  0  0  0
  -16.5270  -29.8980   23.6890 C   0  0  0  0  0  3  0  0  0  0  0  0
  -16.7130  -28.6490   23.0680 C   0  0  0  0  0  3  0  0  0  0  0  0
  -25.8580  -32.5150   23.8930 C   0  0  0  0  0  3  0  0  0  0  0  0
  -26.3380  -31.7440   25.1850 C   0  0  1  0  0  0  0  0  0  0  0  0
  -25.2140  -31.5150   26.2220 C   0  0  0  0  0  1  0  0  0  0  0  0
  -26.9220  -30.3620   24.8130 C   0  0  0  0  0  1  0  0  0  0  0  0
  -27.4780  -32.5300   25.8750 C   0  0  0  0  0  1  0  0  0  0  0  0
  -25.5560  -33.9170   24.2140 N   0  0  0  0  0  0  0  0  0  0  0  0
  -25.8970  -34.9630   23.4490 C   0  0  0  0  0  0  0  0  0  0  0  0
  -26.5690  -34.8470   22.4210 O   0  0  0  0  0  0  0  0  0  0  0  0
  -24.9570  -34.0800   25.0110 H   0  0  0  0  0  0  0  0  0  0  0  0
  -24.1810  -36.7610   23.0730 C   0  0  0  0  0  1  0  0  0  0  0  0
  -25.4140  -36.3570   23.8950 C   0  0  0  0  0  3  0  0  0  0  0  0
  -27.5450  -37.2370   24.7410 C   0  0  0  0  0  1  0  0  0  0  0  0
  -26.4540  -37.4030   23.7830 N   0  0  0  0  0  0  0  0  0  0  0  0
  -26.0500  -38.3260   23.9190 H   0  0  0  0  0  0  0  0  0  0  0  0
  -30.5040  -17.2250   20.8920 C   0  0  0  0  0  2  0  0  0  0  0  0
  -30.6880  -14.7320   20.2910 C   0  0  0  0  0  0  0  0  0  0  0  0
  -30.4390  -12.5010   19.2210 C   0  0  0  0  0  2  0  0  0  0  0  0
  -29.4860  -12.5950   18.0100 C   0  0  0  0  0  2  0  0  0  0  0  0
  -28.0170  -12.4420   18.4500 C   0  0  0  0  0  2  0  0  0  0  0  0
  -27.6640  -13.3120   19.6860 C   0  0  0  0  0  3  0  0  0  0  0  0
  -28.7320  -13.1970   20.7940 C   0  0  0  0  0  2  0  0  0  0  0  0
  -30.0270  -13.5350   20.1900 N   0  0  0  0  0  0  0  0  0  0  0  0
  -31.8730  -14.8230   19.9640 O   0  0  0  0  0  0  0  0  0  0  0  0
  -29.9580  -15.8510   20.5960 N   0  0  0  0  0  0  0  0  0  0  0  0
  -28.9680  -15.7280   20.7320 H   0  0  0  0  0  0  0  0  0  0  0  0
  -25.2780  -13.8960   20.4270 C   0  0  0  0  0  0  0  0  0  0  0  0
  -24.2180  -13.1200   20.8120 C   0  0  0  0  0  0  0  0  0  0  0  0
  -24.6870  -11.7700   20.7790 C   0  0  0  0  0  0  0  0  0  0  0  0
  -26.3240  -13.0200   20.1870 N   0  0  0  0  0  0  0  0  0  0  0  0
  -25.9750  -11.7370   20.4620 N   0  0  0  0  0  0  0  0  0  0  0  0
  -23.9650  -10.5060   20.9760 C   0  0  0  0  0  0  0  0  0  0  0  0
  -24.3920   -9.5520   21.9260 C   0  0  0  0  0  3  0  0  0  0  0  0
  -23.6700   -8.3540   22.1090 C   0  0  0  0  0  3  0  0  0  0  0  0
  -22.5080   -8.1010   21.3420 C   0  0  0  0  0  0  0  0  0  0  0  0
  -22.1000   -9.0440   20.3830 C   0  0  0  0  0  3  0  0  0  0  0  0
  -22.8230  -10.2340   20.1980 C   0  0  0  0  0  3  0  0  0  0  0  0
  -21.7590   -6.9530   21.4360 O   0  0  0  0  0  0  0  0  0  0  0  0
  -21.6880   -6.2320   22.6010 C   0  0  0  0  0  0  0  0  0  0  0  0
  -21.2000   -6.7980   23.7990 C   0  0  0  0  0  3  0  0  0  0  0  0
  -21.0780   -6.0030   24.9560 C   0  0  0  0  0  3  0  0  0  0  0  0
  -21.4330   -4.6420   24.9140 C   0  0  0  0  0  0  0  0  0  0  0  0
  -21.9140   -4.0740   23.7210 C   0  0  0  0  0  3  0  0  0  0  0  0
  -22.0380   -4.8680   22.5660 C   0  0  0  0  0  0  0  0  0  0  0  0
  -22.4810   -4.3110   21.4130 F   0  0  0  0  0  0  0  0  0  0  0  0
  -21.3090   -3.8740   26.0220 F   0  0  0  0  0  0  0  0  0  0  0  0
  -22.8200  -13.5940   21.0870 C   0  0  0  0  0  0  0  0  0  0  0  0
  -22.0930  -12.8970   21.9510 N   0  0  0  0  0  0  0  0  0  0  0  0
  -22.3820  -14.6200   20.5700 O   0  0  0  0  0  0  0  0  0  0  0  0
  -22.4590  -12.0690   22.3990 H   0  0  0  0  0  0  0  0  0  0  0  0
  -21.1540  -13.2000   22.1730 H   0  0  0  0  0  0  0  0  0  0  0  0
  -25.4280  -15.2660   20.2350 N   0  0  0  0  0  0  0  0  0  0  0  0
  -24.6310  -15.8920   20.2880 H   0  0  0  0  0  0  0  0  0  0  0  0
  -26.2380  -15.6960   19.8070 H   0  0  0  0  0  0  0  0  0  0  0  0
  1  2  1  0
  3  1  2  0
  4 54  1  0
  4  2  2  0
  5  7  2  0
  5  3  1  0
  6  5  1  0
  7  4  1  0
  9 10  1  0
  9  8  1  0
  9  3  1  0
 10 11  1  6
 10  8  1  0
 10 12  1  0
 13 12  1  0
 14 25  2  0
 15 13  1  0
 15 20  1  0
 16 24  1  0
 16 26  1  0
 17 23  1  0
 17 19  1  0
 18 24  1  0
 19 18  1  0
 20 19  2  0
 21 15  2  0
 22 21  1  0
 22 17  2  0
 23 16  1  0
 24 14  1  0
 26 28  2  0
 27 26  1  0
 29 27  1  0
 30 39  2  0
 30 35  1  0
 31 27  1  0
 31 35  1  0
 32 31  1  0
 33 34  1  0
 33 32  1  0
 34 30  1  0
 35 36  2  0
 36 37  1  0
 38 37  2  0
 39 38  1  0
 40 14  1  0
 40 45  1  0
 40 41  1  0
 41 44  1  1
 41 42  1  0
 43 41  1  0
 45 48  1  0
 46 50  1  0
 46 45  1  0
 47 46  2  0
 50 49  1  0
 52 50  1  0
 52 53  1  0
 52 51  1  0
 55 63  1  0
 56 61  1  0
 57 58  1  0
 57 56  1  0
 59 58  1  0
 59 68  1  0
 59 60  1  0
 61 55  1  0
 61 60  1  0
 62 55  2  0
 63 64  1  0
 63 54  1  0
 65 66  2  0
 66 85  1  0
 67 66  1  0
 67 70  1  0
 68 65  1  0
 68 69  1  0
 69 67  2  0
 70 71  1  0
 71 72  2  0
 73 76  1  0
 73 72  1  0
 74 73  2  0
 75 74  1  0
 75 70  2  0
 76 77  1  0
 77 78  1  0
 78 79  2  0
 80 79  1  0
 80 84  1  0
 81 80  2  0
 82 77  2  0
 82 81  1  0
 83 82  1  0
 85 86  1  0
 86 89  1  0
 86 88  1  0
 87 85  2  0
 90 91  1  0
 90 65  1  0
 92 90  1  0
M  ISO  4  12 101  13 101  55 100  63 100
M  END
>  <TORSDO>  (38) 
F 19

>  <SCORE>  (38) 
-14.088

>  <name>  (38) 
37

>  <ligand_id>  (38) 
37

>  <original_smiles>  (38) 
[H]c1c(C([H])([H])N([H])C(=O)N2C([H])([H])C([H])([H])C([H])([H])C([H])(n3nc(-c4c([H])c([H])c(Oc5c([H])c([H])c(F)c([H])c5F)c([H])c4[H])c(C(=O)N([H])[H])c3N([H])[H])C2([H])[H])nc(C([H])([H])[H])c(C2([H])C([H])([H])C2(C([H])([H])[H])C([H])([H])Oc2c([H])c([H])c3c(c2[H])C([H])([H])N(C(=O)C([H])(N([H])C(=O)C([H])(N([H])C([H])([H])[H])C([H])([H])[H])C(C([H])([H])[H])(C([H])([H])[H])C([H])([H])[H])C([H])(C(=O)N([H])C2([H])c4c([H])c([H])c([H])c([H])c4C([H])([H])C([H])([H])C2([H])[H])C3([H])[H])c1[H]

>  <smiles>  (38) 
[H]c1c(C([H])([H])N([H])C(=O)N2C([H])([H])C([H])([H])C([H])([H])C([H])(n3nc(-c4c([H])c([H])c(Oc5c([H])c([H])c(F)c([H])c5F)c([H])c4[H])c(C(=O)N([H])[H])c3N([H])[H])C2([H])[H])nc(C([H])([H])[H])c(C2([H])C([H])([H])C2(C([H])([H])[H])C([H])([H])Oc2c([H])c([H])c3c(c2[H])C([H])([H])N(C(=O)C([H])(N([H])C(=O)C([H])(N([H])C([H])([H])[H])C([H])([H])[H])C(C([H])([H])[H])(C([H])([H])[H])C([H])([H])[H])C([H])(C(=O)N([H])C2([H])c4c([H])c([H])c([H])c([H])c4C([H])([H])C([H])([H])C2([H])[H])C3([H])[H])c1[H]

> <Step>
155.0

> <Scaffold>
O=C(NC1CCCc2ccccc21)C1Cc2ccc(OCC3CC3c3ccc(CNC(=O)N4CCCC(n5ccc(-c6ccc(Oc7ccccc7)cc6)n5)C4)nc3)cc2CN1

> <SMILES>
CNC(C)C(=O)NC(C(=O)N1Cc2cc(OCC3(C)CC3c3ccc(CNC(=O)N4CCCC(n5nc(-c6ccc(Oc7ccc(F)cc7F)cc6)c(C(N)=O)c5N)C4)nc3C)ccc2CC1C(=O)NC1CCCc2ccccc21)C(C)(C)C

> <Tanimoto ROCS sim>
0.234963521361351

> <Custom alerts>
1.0

> <Linker Num Aromatic Rings>
1.0

> <Linker Effective Length>
1.0

> <ADV>
0.9956687092781067

> <PostDock Tanimoto ROCS sim>
0.9913507103919983

> <raw_Linker Num Aromatic Rings>
1.0

> <raw_Linker Effective Length>
8.0

> <raw_ADV>
-14.446000099182129

> <total_score>
0.9967548251152039

> <ID>
default_job_37

> <PostDock Tanimoto ROCS sim (re-score)>
0.97681636

> <raw_ADV (re-score)>
-14.088

> <Final Intermolecular Energy>
-29.324

> <Final Total Internal Energy>
-3.367

> <Torsional Free Energy>
15.236

> <Unbound System's Energy>
-3.367

$$$$
default_job_38
     RDKit          3D

 93102  0  0  1  0  0  0  0  0999 V2000
  -28.7150  -21.6480   19.5220 C   0  0  0  0  0  3  0  0  0  0  0  0
  -29.7940  -21.1120   20.2820 C   0  0  0  0  0  0  0  0  0  0  0  0
  -30.4560  -22.0620   21.1230 C   0  0  0  0  0  0  0  0  0  0  0  0
  -28.8680  -23.9070   20.5500 C   0  0  0  0  0  0  0  0  0  0  0  0
  -28.2670  -22.9980   19.6420 C   0  0  0  0  0  0  0  0  0  0  0  0
  -29.9880  -23.4060   21.2660 C   0  0  0  0  0  0  0  0  0  0  0  0
  -31.7240  -21.6450   21.8620 C   0  0  0  0  0  1  0  0  0  0  0  0
  -27.2100  -23.4010   18.8930 F   0  0  0  0  0  0  0  0  0  0  0  0
  -30.6180  -24.2260   22.1420 F   0  0  0  0  0  0  0  0  0  0  0  0
  -29.7060  -18.6550   19.1470 C   0  0  0  0  0  2  0  0  0  0  0  0
  -30.3130  -19.6360   20.1300 C   0  0  0  0  0  3  0  0  0  0  0  0
  -29.6760  -18.2840   20.6120 C   0  0  0  0  0  3  0  0  0  0  0  0
  -30.5150  -17.0540   21.1000 C   0  0  0  0  0  2  0  0  0  0  0  0
  -30.6520  -14.5740   20.4450 C   0  0  0  0  0  0  0  0  0  0  0  0
  -30.3400  -12.3800   19.3210 C   0  0  0  0  0  2  0  0  0  0  0  0
  -29.3920  -12.5570   18.1160 C   0  0  0  0  0  2  0  0  0  0  0  0
  -27.9290  -12.3860   18.5640 C   0  0  0  0  0  2  0  0  0  0  0  0
  -27.5910  -13.2280   19.8210 C   0  0  0  0  0  3  0  0  0  0  0  0
  -28.6650  -13.0560   20.9210 C   0  0  0  0  0  2  0  0  0  0  0  0
  -29.9700  -13.3900   20.3310 N   0  0  0  0  0  0  0  0  0  0  0  0
  -31.7880  -14.7060   19.9810 O   0  0  0  0  0  0  0  0  0  0  0  0
  -29.9880  -15.6560   20.9470 N   0  0  0  0  0  0  0  0  0  0  0  0
  -29.0650  -15.4790   21.3170 H   0  0  0  0  0  0  0  0  0  0  0  0
  -25.2020  -13.7970   20.5710 C   0  0  0  0  0  0  0  0  0  0  0  0
  -24.1440  -13.0130   20.9450 C   0  0  0  0  0  0  0  0  0  0  0  0
  -24.6180  -11.6660   20.8990 C   0  0  0  0  0  0  0  0  0  0  0  0
  -26.2500  -12.9270   20.3190 N   0  0  0  0  0  0  0  0  0  0  0  0
  -25.9060  -11.6410   20.5770 N   0  0  0  0  0  0  0  0  0  0  0  0
  -23.9060  -10.3940   21.0870 C   0  0  0  0  0  0  0  0  0  0  0  0
  -24.3570   -9.4230   22.0060 C   0  0  0  0  0  3  0  0  0  0  0  0
  -23.6440   -8.2180   22.1840 C   0  0  0  0  0  3  0  0  0  0  0  0
  -22.4630   -7.9770   21.4410 C   0  0  0  0  0  0  0  0  0  0  0  0
  -22.0310   -8.9380   20.5090 C   0  0  0  0  0  3  0  0  0  0  0  0
  -22.7480  -10.1330   20.3310 C   0  0  0  0  0  3  0  0  0  0  0  0
  -21.7190   -6.8240   21.5240 O   0  0  0  0  0  0  0  0  0  0  0  0
  -21.6910   -6.0690   22.6690 C   0  0  0  0  0  0  0  0  0  0  0  0
  -21.2620   -6.6030   23.9030 C   0  0  0  0  0  3  0  0  0  0  0  0
  -21.1830   -5.7760   25.0400 C   0  0  0  0  0  3  0  0  0  0  0  0
  -21.5230   -4.4130   24.9440 C   0  0  0  0  0  0  0  0  0  0  0  0
  -21.9450   -3.8760   23.7140 C   0  0  0  0  0  3  0  0  0  0  0  0
  -22.0260   -4.7020   22.5800 C   0  0  0  0  0  0  0  0  0  0  0  0
  -22.4130   -4.1770   21.3910 F   0  0  0  0  0  0  0  0  0  0  0  0
  -21.4400   -3.6120   26.0330 F   0  0  0  0  0  0  0  0  0  0  0  0
  -22.7490  -13.4760   21.2460 C   0  0  0  0  0  0  0  0  0  0  0  0
  -22.0410  -12.7590   22.1090 N   0  0  0  0  0  0  0  0  0  0  0  0
  -22.2980  -14.5080   20.7490 O   0  0  0  0  0  0  0  0  0  0  0  0
  -22.4210  -11.9200   22.5230 H   0  0  0  0  0  0  0  0  0  0  0  0
  -21.1050  -13.0480   22.3610 H   0  0  0  0  0  0  0  0  0  0  0  0
  -25.3610  -15.1700   20.4000 N   0  0  0  0  0  0  0  0  0  0  0  0
  -24.5990  -15.8330   20.4930 H   0  0  0  0  0  0  0  0  0  0  0  0
  -26.2240  -15.6010   20.0900 H   0  0  0  0  0  0  0  0  0  0  0  0
  -28.1940  -25.2790   20.9460 C   0  0  0  0  0  2  0  0  0  0  0  0
  -28.3170  -26.5020   20.1390 O   0  0  0  0  0  0  0  0  0  0  0  0
  -24.5560  -31.8810   23.2230 C   0  0  0  0  0  0  0  0  0  0  0  0
  -27.1960  -27.3370   20.1730 C   0  0  0  0  0  0  0  0  0  0  0  0
  -23.3570  -30.4690   21.5970 C   0  0  0  0  0  3  0  0  0  0  0  0
  -24.8090  -28.9060   20.1870 C   0  0  0  0  0  0  0  0  0  0  0  0
  -25.8940  -30.7950   21.4080 C   0  0  0  0  0  2  0  0  0  0  0  0
  -25.9800  -29.4140   20.7710 C   0  0  0  0  0  0  0  0  0  0  0  0
  -27.1790  -28.6430   20.7490 C   0  0  0  0  0  3  0  0  0  0  0  0
  -25.9990  -26.8650   19.5920 C   0  0  0  0  0  3  0  0  0  0  0  0
  -24.8170  -27.6310   19.5950 C   0  0  0  0  0  3  0  0  0  0  0  0
  -23.5730  -29.7810   20.2250 C   0  0  0  0  0  2  0  0  0  0  0  0
  -24.6240  -31.0590   22.1370 N   0  0  0  0  0  0  0  0  0  0  0  0
  -23.4610  -32.1860   23.7240 O   0  0  0  0  0  0  0  0  0  0  0  0
  -22.6870  -29.4600   22.5590 C   0  0  0  0  0  0  0  0  0  0  0  0
  -21.3580  -29.2880   22.4280 N   0  0  0  0  0  0  0  0  0  0  0  0
  -23.3640  -28.8290   23.3730 O   0  0  0  0  0  0  0  0  0  0  0  0
  -20.8740  -29.8470   21.7400 H   0  0  0  0  0  0  0  0  0  0  0  0
  -17.9700  -28.1350   22.9390 C   0  0  0  0  0  0  0  0  0  0  0  0
  -20.5320  -28.3570   23.1960 C   0  0  0  0  0  3  0  0  0  0  0  0
  -20.6160  -26.9300   22.6080 C   0  0  0  0  0  2  0  0  0  0  0  0
  -19.5050  -26.6320   21.5960 C   0  0  0  0  0  2  0  0  0  0  0  0
  -18.1270  -26.7900   22.2460 C   0  0  0  0  0  2  0  0  0  0  0  0
  -19.1000  -28.8780   23.3690 C   0  0  0  0  0  0  0  0  0  0  0  0
  -18.9010  -30.1400   23.9670 C   0  0  0  0  0  3  0  0  0  0  0  0
  -17.6030  -30.6560   24.1440 C   0  0  0  0  0  3  0  0  0  0  0  0
  -16.4880  -29.9080   23.7330 C   0  0  0  0  0  3  0  0  0  0  0  0
  -16.6710  -28.6470   23.1360 C   0  0  0  0  0  3  0  0  0  0  0  0
  -25.8310  -32.5020   23.8660 C   0  0  0  0  0  3  0  0  0  0  0  0
  -26.3270  -31.7380   25.1530 C   0  0  1  0  0  0  0  0  0  0  0  0
  -25.2190  -31.5190   26.2090 C   0  0  0  0  0  1  0  0  0  0  0  0
  -26.9080  -30.3610   24.7700 C   0  0  0  0  0  1  0  0  0  0  0  0
  -27.4770  -32.5320   25.8220 C   0  0  0  0  0  1  0  0  0  0  0  0
  -25.5310  -33.9060   24.1840 N   0  0  0  0  0  0  0  0  0  0  0  0
  -25.8910  -34.9520   23.4250 C   0  0  0  0  0  0  0  0  0  0  0  0
  -26.5740  -34.8350   22.4050 O   0  0  0  0  0  0  0  0  0  0  0  0
  -24.9300  -34.0730   24.9770 H   0  0  0  0  0  0  0  0  0  0  0  0
  -24.1860  -36.7480   23.0280 C   0  0  0  0  0  1  0  0  0  0  0  0
  -25.4090  -36.3450   23.8680 C   0  0  0  0  0  3  0  0  0  0  0  0
  -27.5330  -37.2000   24.7400 C   0  0  0  0  0  1  0  0  0  0  0  0
  -26.4560  -37.3860   23.7720 N   0  0  0  0  0  0  0  0  0  0  0  0
  -26.0580  -38.3100   23.9090 H   0  0  0  0  0  0  0  0  0  0  0  0
  1  5  2  0
  1  2  1  0
  2  3  2  0
  3  6  1  0
  3  7  1  0
  4 52  1  0
  4  6  2  0
  5  4  1  0
  6  9  1  0
  8  5  1  0
 10 11  1  0
 10 12  1  0
 11  2  1  0
 11 12  1  0
 12 13  1  0
 14 22  1  0
 15 20  1  0
 16 17  1  0
 16 15  1  0
 18 17  1  0
 18 27  1  0
 18 19  1  0
 20 14  1  0
 20 19  1  0
 21 14  2  0
 22 13  1  0
 22 23  1  0
 24 25  2  0
 25 44  1  0
 26 25  1  0
 26 29  1  0
 27 24  1  0
 27 28  1  0
 28 26  2  0
 29 30  1  0
 30 31  2  0
 32 35  1  0
 32 31  1  0
 33 32  2  0
 34 33  1  0
 34 29  2  0
 35 36  1  0
 36 37  1  0
 37 38  2  0
 39 38  1  0
 39 43  1  0
 40 39  2  0
 41 36  2  0
 41 40  1  0
 42 41  1  0
 44 45  1  0
 45 48  1  0
 45 47  1  0
 46 44  2  0
 49 50  1  0
 49 24  1  0
 51 49  1  0
 53 55  1  0
 53 52  1  0
 54 65  2  0
 55 60  1  0
 56 64  1  0
 56 66  1  0
 57 63  1  0
 57 59  1  0
 58 64  1  0
 59 58  1  0
 60 59  2  0
 61 62  1  0
 61 55  2  0
 62 57  2  0
 63 56  1  0
 64 54  1  0
 66 68  2  0
 67 66  1  0
 69 67  1  0
 70 79  2  0
 70 75  1  0
 71 67  1  0
 71 75  1  0
 72 71  1  0
 73 74  1  0
 73 72  1  0
 74 70  1  0
 75 76  2  0
 76 77  1  0
 78 77  2  0
 79 78  1  0
 80 54  1  0
 80 85  1  0
 80 81  1  0
 81 84  1  1
 81 82  1  0
 83 81  1  0
 85 88  1  0
 86 90  1  0
 86 85  1  0
 87 86  2  0
 90 89  1  0
 92 90  1  0
 92 93  1  0
 92 91  1  0
M  ISO  4  14 100  22 100  52 101  53 101
M  END
>  <TORSDO>  (39) 
F 19

>  <SCORE>  (39) 
-14.402

>  <name>  (39) 
38

>  <ligand_id>  (39) 
38

>  <original_smiles>  (39) 
[H]c1c([H])c([H])c2c(c1[H])C([H])([H])C([H])([H])C([H])([H])C2([H])N([H])C(=O)C1([H])N(C(=O)C([H])(N([H])C(=O)C([H])(N([H])C([H])([H])[H])C([H])([H])[H])C(C([H])([H])[H])(C([H])([H])[H])C([H])([H])[H])C([H])([H])c2c([H])c(OC([H])([H])c3c(F)c([H])c(C4([H])C([H])([H])C4([H])C([H])([H])N([H])C(=O)N4C([H])([H])C([H])([H])C([H])([H])C([H])(n5nc(-c6c([H])c([H])c(Oc7c([H])c([H])c(F)c([H])c7F)c([H])c6[H])c(C(=O)N([H])[H])c5N([H])[H])C4([H])[H])c(C([H])([H])[H])c3F)c([H])c([H])c2C1([H])[H]

>  <smiles>  (39) 
[H]c1c([H])c([H])c2c(c1[H])C([H])([H])C([H])([H])C([H])([H])C2([H])N([H])C(=O)C1([H])N(C(=O)C([H])(N([H])C(=O)C([H])(N([H])C([H])([H])[H])C([H])([H])[H])C(C([H])([H])[H])(C([H])([H])[H])C([H])([H])[H])C([H])([H])c2c([H])c(OC([H])([H])c3c(F)c([H])c(C4([H])C([H])([H])C4([H])C([H])([H])N([H])C(=O)N4C([H])([H])C([H])([H])C([H])([H])C([H])(n5nc(-c6c([H])c([H])c(Oc7c([H])c([H])c(F)c([H])c7F)c([H])c6[H])c(C(=O)N([H])[H])c5N([H])[H])C4([H])[H])c(C([H])([H])[H])c3F)c([H])c([H])c2C1([H])[H]

> <Step>
19.0

> <Scaffold>
O=C(NC1CCCc2ccccc21)C1Cc2ccc(OCc3ccc(C4CC4CNC(=O)N4CCCC(n5ccc(-c6ccc(Oc7ccccc7)cc6)n5)C4)cc3)cc2CN1

> <SMILES>
CNC(C)C(=O)NC(C(=O)N1Cc2cc(OCc3c(F)cc(C4CC4CNC(=O)N4CCCC(n5nc(-c6ccc(Oc7ccc(F)cc7F)cc6)c(C(N)=O)c5N)C4)c(C)c3F)ccc2CC1C(=O)NC1CCCc2ccccc21)C(C)(C)C

> <Tanimoto ROCS sim>
0.20692849159240723

> <Custom alerts>
1.0

> <Linker Num Aromatic Rings>
1.0

> <Linker Effective Length>
1.0

> <ADV>
0.9959240555763245

> <PostDock Tanimoto ROCS sim>
0.9910939931869507

> <raw_Linker Num Aromatic Rings>
1.0

> <raw_Linker Effective Length>
8.0

> <raw_ADV>
-14.552000045776367

> <total_score>
0.99675452709198

> <ID>
default_job_38

> <PostDock Tanimoto ROCS sim (re-score)>
0.98439467

> <raw_ADV (re-score)>
-14.402

> <Final Intermolecular Energy>
-29.977

> <Final Total Internal Energy>
-3.21

> <Torsional Free Energy>
15.575

> <Unbound System's Energy>
-3.21

$$$$
default_job_39
     RDKit          3D

 96105  0  0  1  0  0  0  0  0999 V2000
  -30.6430  -14.7090   20.4790 C   0  0  0  0  0  0  0  0  0  0  0  0
  -30.3920  -12.4590   19.4270 C   0  0  0  0  0  2  0  0  0  0  0  0
  -29.4710  -12.5520   18.1930 C   0  0  0  0  0  2  0  0  0  0  0  0
  -27.9940  -12.4030   18.6050 C   0  0  0  0  0  2  0  0  0  0  0  0
  -27.6170  -13.2820   19.8290 C   0  0  0  0  0  3  0  0  0  0  0  0
  -28.6640  -13.1830   20.9590 C   0  0  0  0  0  2  0  0  0  0  0  0
  -29.9720  -13.5130   20.3750 N   0  0  0  0  0  0  0  0  0  0  0  0
  -31.8270  -14.7850   20.1300 O   0  0  0  0  0  0  0  0  0  0  0  0
  -31.8140  -21.9480   21.0530 C   0  0  0  0  0  3  0  0  0  0  0  0
  -30.9720  -22.9820   20.6230 C   0  0  0  0  0  0  0  0  0  0  0  0
  -29.6170  -22.6540   20.3880 C   0  0  0  0  0  0  0  0  0  0  0  0
  -30.1630  -20.3700   20.8380 C   0  0  0  0  0  0  0  0  0  0  0  0
  -29.5200  -18.1600   19.7580 C   0  0  0  0  0  2  0  0  0  0  0  0
  -30.8400  -18.1360   21.7340 C   0  0  0  0  0  2  0  0  0  0  0  0
  -29.0680  -16.6710   20.0570 C   0  0  0  0  0  2  0  0  0  0  0  0
  -30.4320  -16.6550   22.0500 C   0  0  0  0  0  2  0  0  0  0  0  0
  -31.4120  -20.6750   21.1390 N   0  0  0  0  0  0  0  0  0  0  0  0
  -29.2420  -21.3100   20.4770 N   0  0  0  0  0  0  0  0  0  0  0  0
  -29.8840  -18.9550   20.9450 N   0  0  0  0  0  0  0  0  0  0  0  0
  -29.9710  -15.8430   20.9030 N   0  0  0  0  0  0  0  0  0  0  0  0
  -25.2230  -13.8890   20.5210 C   0  0  0  0  0  0  0  0  0  0  0  0
  -24.1500  -13.1230   20.8820 C   0  0  0  0  0  0  0  0  0  0  0  0
  -24.6080  -11.7690   20.8640 C   0  0  0  0  0  0  0  0  0  0  0  0
  -26.2660  -13.0040   20.3040 N   0  0  0  0  0  0  0  0  0  0  0  0
  -25.9020  -11.7240   20.5720 N   0  0  0  0  0  0  0  0  0  0  0  0
  -23.8730  -10.5120   21.0520 C   0  0  0  0  0  0  0  0  0  0  0  0
  -24.2990   -9.5400   21.9860 C   0  0  0  0  0  3  0  0  0  0  0  0
  -23.5650   -8.3470   22.1620 C   0  0  0  0  0  3  0  0  0  0  0  0
  -22.3910   -8.1160   21.4060 C   0  0  0  0  0  0  0  0  0  0  0  0
  -21.9840   -9.0760   20.4610 C   0  0  0  0  0  3  0  0  0  0  0  0
  -22.7180  -10.2610   20.2830 C   0  0  0  0  0  3  0  0  0  0  0  0
  -21.6310   -6.9760   21.4910 O   0  0  0  0  0  0  0  0  0  0  0  0
  -21.5790   -6.2300   22.6400 C   0  0  0  0  0  0  0  0  0  0  0  0
  -21.1720   -6.7870   23.8730 C   0  0  0  0  0  3  0  0  0  0  0  0
  -21.0680   -5.9680   25.0140 C   0  0  0  0  0  3  0  0  0  0  0  0
  -21.3590   -4.5940   24.9260 C   0  0  0  0  0  0  0  0  0  0  0  0
  -21.7580   -4.0350   23.6980 C   0  0  0  0  0  3  0  0  0  0  0  0
  -21.8650   -4.8520   22.5580 C   0  0  0  0  0  0  0  0  0  0  0  0
  -22.2300   -4.3050   21.3730 F   0  0  0  0  0  0  0  0  0  0  0  0
  -21.2510   -3.8050   26.0210 F   0  0  0  0  0  0  0  0  0  0  0  0
  -22.7510  -13.6060   21.1340 C   0  0  0  0  0  0  0  0  0  0  0  0
  -22.0120  -12.9200   21.9970 N   0  0  0  0  0  0  0  0  0  0  0  0
  -22.3240  -14.6300   20.6010 O   0  0  0  0  0  0  0  0  0  0  0  0
  -22.3690  -12.0890   22.4470 H   0  0  0  0  0  0  0  0  0  0  0  0
  -21.0740  -13.2270   22.2130 H   0  0  0  0  0  0  0  0  0  0  0  0
  -25.3950  -15.2590   20.3370 N   0  0  0  0  0  0  0  0  0  0  0  0
  -24.6320  -15.9190   20.4450 H   0  0  0  0  0  0  0  0  0  0  0  0
  -26.2500  -15.6910   20.0140 H   0  0  0  0  0  0  0  0  0  0  0  0
  -31.5920  -24.3700   20.4050 C   0  0  0  0  0  2  0  0  0  0  0  0
  -32.2540  -24.4880   19.0920 N   0  0  0  0  0  4  0  0  0  0  0  0
  -33.0470  -23.8740   19.0200 H   0  0  0  0  0  0  0  0  0  0  0  0
  -32.5980  -25.4260   18.9620 H   0  0  0  0  0  0  0  0  0  0  0  0
  -31.6270  -24.2880   18.3350 H   0  0  0  0  0  0  0  0  0  0  0  0
  -28.6220  -23.7790   19.8620 C   0  0  0  0  0  2  0  0  0  0  0  0
  -28.2210  -25.0640   20.7510 C   0  0  0  0  0  2  0  0  0  0  0  0
  -28.3930  -26.4650   20.2510 O   0  0  0  0  0  0  0  0  0  0  0  0
  -24.6170  -31.8810   23.2260 C   0  0  0  0  0  0  0  0  0  0  0  0
  -27.2750  -27.3170   20.2220 C   0  0  0  0  0  0  0  0  0  0  0  0
  -23.4350  -30.4640   21.5890 C   0  0  0  0  0  3  0  0  0  0  0  0
  -24.9050  -28.9140   20.1800 C   0  0  0  0  0  0  0  0  0  0  0  0
  -25.9700  -30.8040   21.4120 C   0  0  0  0  0  2  0  0  0  0  0  0
  -26.0670  -29.4170   20.7790 C   0  0  0  0  0  0  0  0  0  0  0  0
  -27.2600  -28.6330   20.7830 C   0  0  0  0  0  3  0  0  0  0  0  0
  -26.0950  -26.8680   19.5930 C   0  0  0  0  0  3  0  0  0  0  0  0
  -24.9230  -27.6480   19.5730 C   0  0  0  0  0  3  0  0  0  0  0  0
  -23.6630  -29.7810   20.2140 C   0  0  0  0  0  2  0  0  0  0  0  0
  -24.6940  -31.0610   22.1390 N   0  0  0  0  0  0  0  0  0  0  0  0
  -23.5230  -32.1790   23.7250 O   0  0  0  0  0  0  0  0  0  0  0  0
  -22.7710  -29.4450   22.5470 C   0  0  0  0  0  0  0  0  0  0  0  0
  -21.4430  -29.2750   22.4240 N   0  0  0  0  0  0  0  0  0  0  0  0
  -23.4490  -28.8100   23.3580 O   0  0  0  0  0  0  0  0  0  0  0  0
  -20.9580  -29.8350   21.7390 H   0  0  0  0  0  0  0  0  0  0  0  0
  -18.0590  -28.0980   22.9290 C   0  0  0  0  0  0  0  0  0  0  0  0
  -20.6210  -28.3350   23.1870 C   0  0  0  0  0  3  0  0  0  0  0  0
  -20.7110  -26.9090   22.5960 C   0  0  0  0  0  2  0  0  0  0  0  0
  -19.6010  -26.6050   21.5850 C   0  0  0  0  0  2  0  0  0  0  0  0
  -18.2230  -26.7550   22.2380 C   0  0  0  0  0  2  0  0  0  0  0  0
  -19.1860  -28.8460   23.3610 C   0  0  0  0  0  0  0  0  0  0  0  0
  -18.9820  -30.1050   23.9680 C   0  0  0  0  0  3  0  0  0  0  0  0
  -17.6820  -30.6150   24.1460 C   0  0  0  0  0  3  0  0  0  0  0  0
  -16.5700  -29.8630   23.7300 C   0  0  0  0  0  3  0  0  0  0  0  0
  -16.7580  -28.6070   23.1260 C   0  0  0  0  0  3  0  0  0  0  0  0
  -25.8900  -32.5130   23.8710 C   0  0  0  0  0  3  0  0  0  0  0  0
  -26.3900  -31.7440   25.1550 C   0  0  1  0  0  0  0  0  0  0  0  0
  -25.2830  -31.5100   26.2100 C   0  0  0  0  0  1  0  0  0  0  0  0
  -26.9780  -30.3680   24.7680 C   0  0  0  0  0  1  0  0  0  0  0  0
  -27.5340  -32.5400   25.8310 C   0  0  0  0  0  1  0  0  0  0  0  0
  -25.5750  -33.9100   24.1990 N   0  0  0  0  0  0  0  0  0  0  0  0
  -25.9060  -34.9620   23.4370 C   0  0  0  0  0  0  0  0  0  0  0  0
  -26.5800  -34.8570   22.4080 O   0  0  0  0  0  0  0  0  0  0  0  0
  -24.9730  -34.0640   24.9940 H   0  0  0  0  0  0  0  0  0  0  0  0
  -24.1700  -36.7400   23.0690 C   0  0  0  0  0  1  0  0  0  0  0  0
  -25.4090  -36.3480   23.8870 C   0  0  0  0  0  3  0  0  0  0  0  0
  -27.5380  -37.2430   24.7180 C   0  0  0  0  0  1  0  0  0  0  0  0
  -26.4370  -37.4060   23.7720 N   0  0  0  0  0  0  0  0  0  0  0  0
  -26.0290  -38.3250   23.9150 H   0  0  0  0  0  0  0  0  0  0  0  0
  1 20  1  0
  2  7  1  0
  3  4  1  0
  3  2  1  0
  5  4  1  0
  5 24  1  0
  5  6  1  0
  7  1  1  0
  7  6  1  0
  8  1  2  0
  9 17  1  0
 10  9  2  0
 11 18  2  0
 11 10  1  0
 12 19  1  0
 12 17  2  0
 13 15  1  0
 13 19  1  0
 14 16  1  0
 15 20  1  0
 18 12  1  0
 19 14  1  0
 20 16  1  0
 21 22  2  0
 22 41  1  0
 23 22  1  0
 23 26  1  0
 24 21  1  0
 24 25  1  0
 25 23  2  0
 26 27  1  0
 27 28  2  0
 29 32  1  0
 29 28  1  0
 30 29  2  0
 31 30  1  0
 31 26  2  0
 32 33  1  0
 33 34  1  0
 34 35  2  0
 36 35  1  0
 36 40  1  0
 37 36  2  0
 38 33  2  0
 38 37  1  0
 39 38  1  0
 41 42  1  0
 42 45  1  0
 42 44  1  0
 43 41  2  0
 46 47  1  0
 46 21  1  0
 48 46  1  0
 49 10  1  0
 50 49  1  0
 51 50  1  0
 52 50  1  0
 53 50  1  0
 54 11  1  0
 54 55  1  0
 56 55  1  0
 57 68  2  0
 58 56  1  0
 58 63  1  0
 59 67  1  0
 59 69  1  0
 60 66  1  0
 60 62  1  0
 61 67  1  0
 62 63  2  0
 62 61  1  0
 64 58  2  0
 65 64  1  0
 65 60  2  0
 66 59  1  0
 67 57  1  0
 69 71  2  0
 70 69  1  0
 72 70  1  0
 73 82  2  0
 73 78  1  0
 74 70  1  0
 74 78  1  0
 75 74  1  0
 76 77  1  0
 76 75  1  0
 77 73  1  0
 78 79  2  0
 79 80  1  0
 81 80  2  0
 82 81  1  0
 83 57  1  0
 83 88  1  0
 83 84  1  0
 84 87  1  1
 84 85  1  0
 86 84  1  0
 88 91  1  0
 89 93  1  0
 89 88  1  0
 90 89  2  0
 93 92  1  0
 95 93  1  0
 95 96  1  0
 95 94  1  0
M  ISO  4   1 100  20 100  55 101  56 101
M  END
>  <TORSDO>  (40) 
F 19

>  <SCORE>  (40) 
-14.772

>  <name>  (40) 
39

>  <ligand_id>  (40) 
39

>  <original_smiles>  (40) 
[H]c1nc(N2C([H])([H])C([H])([H])N(C(=O)N3C([H])([H])C([H])([H])C([H])([H])C([H])(n4nc(-c5c([H])c([H])c(Oc6c([H])c([H])c(F)c([H])c6F)c([H])c5[H])c(C(=O)N([H])[H])c4N([H])[H])C3([H])[H])C([H])([H])C2([H])[H])nc(C([H])([H])C([H])([H])Oc2c([H])c([H])c3c(c2[H])C([H])([H])N(C(=O)C([H])(N([H])C(=O)C([H])(N([H])C([H])([H])[H])C([H])([H])[H])C(C([H])([H])[H])(C([H])([H])[H])C([H])([H])[H])C([H])(C(=O)N([H])C2([H])c4c([H])c([H])c([H])c([H])c4C([H])([H])C([H])([H])C2([H])[H])C3([H])[H])c1C([H])([H])[N+]([H])([H])[H]

>  <smiles>  (40) 
[H]c1nc(N2C([H])([H])C([H])([H])N(C(=O)N3C([H])([H])C([H])([H])C([H])([H])C([H])(n4nc(-c5c([H])c([H])c(Oc6c([H])c([H])c(F)c([H])c6F)c([H])c5[H])c(C(=O)N([H])[H])c4N([H])[H])C3([H])[H])C([H])([H])C2([H])[H])nc(C([H])([H])C([H])([H])Oc2c([H])c([H])c3c(c2[H])C([H])([H])N(C(=O)C([H])(N([H])C(=O)C([H])(N([H])C([H])([H])[H])C([H])([H])[H])C(C([H])([H])[H])(C([H])([H])[H])C([H])([H])[H])C([H])(C(=O)N([H])C2([H])c4c([H])c([H])c([H])c([H])c4C([H])([H])C([H])([H])C2([H])[H])C3([H])[H])c1C([H])([H])[N+]([H])([H])[H]

> <Step>
197.0

> <Scaffold>
O=C(NC1CCCc2ccccc21)C1Cc2ccc(OCCc3ccnc(N4CCN(C(=O)N5CCCC(n6ccc(-c7ccc(Oc8ccccc8)cc7)n6)C5)CC4)n3)cc2CN1

> <SMILES>
CNC(C)C(=O)NC(C(=O)N1Cc2cc(OCCc3nc(N4CCN(C(=O)N5CCCC(n6nc(-c7ccc(Oc8ccc(F)cc8F)cc7)c(C(N)=O)c6N)C5)CC4)ncc3CN)ccc2CC1C(=O)NC1CCCc2ccccc21)C(C)(C)C

> <Tanimoto ROCS sim>
0.2058936208486557

> <Custom alerts>
1.0

> <Linker Num Aromatic Rings>
1.0

> <Linker Effective Length>
1.0

> <ADV>
0.9963427186012268

> <PostDock Tanimoto ROCS sim>
0.9906440377235413

> <raw_Linker Num Aromatic Rings>
1.0

> <raw_Linker Effective Length>
8.0

> <raw_ADV>
-14.741000175476074

> <total_score>
0.9967466592788696

> <ID>
default_job_39

> <PostDock Tanimoto ROCS sim (re-score)>
0.97982454

> <raw_ADV (re-score)>
-14.772

> <Final Intermolecular Energy>
-30.317

> <Final Total Internal Energy>
-2.652

> <Torsional Free Energy>
15.545

> <Unbound System's Energy>
-2.652

$$$$
default_job_40
     RDKit          3D

 93102  0  0  1  0  0  0  0  0999 V2000
  -29.9390  -21.9430   20.5120 C   0  0  0  0  0  3  0  0  0  0  0  0
  -29.9660  -20.4850   18.5980 C   0  0  0  0  0  3  0  0  0  0  0  0
  -29.7230  -23.0440   19.6340 C   0  0  0  0  0  0  0  0  0  0  0  0
  -30.0870  -20.6220   20.0000 C   0  0  0  0  0  0  0  0  0  0  0  0
  -29.6770  -22.7620   18.2470 C   0  0  0  0  0  0  0  0  0  0  0  0
  -29.5530  -23.8350   17.1770 C   0  0  0  0  0  1  0  0  0  0  0  0
  -29.7710  -21.5140   17.7520 N   0  0  0  0  0  0  0  0  0  0  0  0
  -30.3630  -19.5140   20.8510 N   0  0  0  0  0  0  0  0  0  0  0  0
  -30.3850  -19.6660   21.8570 H   0  0  0  0  0  0  0  0  0  0  0  0
  -30.6980  -14.5980   20.4560 C   0  0  0  0  0  0  0  0  0  0  0  0
  -30.3810  -12.3960   19.3620 C   0  0  0  0  0  2  0  0  0  0  0  0
  -29.4420  -12.5190   18.1450 C   0  0  0  0  0  2  0  0  0  0  0  0
  -27.9770  -12.3230   18.5790 C   0  0  0  0  0  2  0  0  0  0  0  0
  -27.6040  -13.2040   19.7950 C   0  0  0  0  0  3  0  0  0  0  0  0
  -28.6710  -13.1150   20.9190 C   0  0  0  0  0  2  0  0  0  0  0  0
  -29.9830  -13.4320   20.3360 N   0  0  0  0  0  0  0  0  0  0  0  0
  -31.8790  -14.6480   20.1030 O   0  0  0  0  0  0  0  0  0  0  0  0
  -28.7490  -17.7240   20.2950 C   0  0  0  0  0  2  0  0  0  0  0  0
  -28.8050  -16.2000   20.2650 C   0  0  0  0  0  2  0  0  0  0  0  0
  -30.7950  -16.9940   21.2350 C   0  0  0  0  0  2  0  0  0  0  0  0
  -30.2030  -18.1300   20.3670 C   0  0  0  0  0  3  0  0  0  0  0  0
  -30.0680  -15.7480   20.8640 N   0  0  0  0  0  0  0  0  0  0  0  0
  -25.2150  -13.8300   20.5070 C   0  0  0  0  0  0  0  0  0  0  0  0
  -24.1470  -13.0620   20.8810 C   0  0  0  0  0  0  0  0  0  0  0  0
  -24.6120  -11.7110   20.8650 C   0  0  0  0  0  0  0  0  0  0  0  0
  -26.2590  -12.9420   20.2870 N   0  0  0  0  0  0  0  0  0  0  0  0
  -25.9030  -11.6660   20.5660 N   0  0  0  0  0  0  0  0  0  0  0  0
  -23.8910  -10.4500   21.0560 C   0  0  0  0  0  0  0  0  0  0  0  0
  -24.3330   -9.4830   21.9840 C   0  0  0  0  0  3  0  0  0  0  0  0
  -23.6130   -8.2840   22.1620 C   0  0  0  0  0  3  0  0  0  0  0  0
  -22.4360   -8.0440   21.4130 C   0  0  0  0  0  0  0  0  0  0  0  0
  -22.0150   -9.0010   20.4730 C   0  0  0  0  0  3  0  0  0  0  0  0
  -22.7360  -10.1930   20.2920 C   0  0  0  0  0  3  0  0  0  0  0  0
  -21.6850   -6.8990   21.5030 O   0  0  0  0  0  0  0  0  0  0  0  0
  -21.6570   -6.1470   22.6490 C   0  0  0  0  0  0  0  0  0  0  0  0
  -21.2550   -6.6920   23.8880 C   0  0  0  0  0  3  0  0  0  0  0  0
  -21.1740   -5.8670   25.0270 C   0  0  0  0  0  3  0  0  0  0  0  0
  -21.4850   -4.4970   24.9280 C   0  0  0  0  0  0  0  0  0  0  0  0
  -21.8800   -3.9520   23.6940 C   0  0  0  0  0  3  0  0  0  0  0  0
  -21.9640   -4.7750   22.5580 C   0  0  0  0  0  0  0  0  0  0  0  0
  -22.3260   -4.2410   21.3660 F   0  0  0  0  0  0  0  0  0  0  0  0
  -21.3980   -3.7010   26.0190 F   0  0  0  0  0  0  0  0  0  0  0  0
  -22.7490  -13.5390   21.1390 C   0  0  0  0  0  0  0  0  0  0  0  0
  -22.0160  -12.8500   22.0060 N   0  0  0  0  0  0  0  0  0  0  0  0
  -22.3130  -14.5590   20.6070 O   0  0  0  0  0  0  0  0  0  0  0  0
  -22.3810  -12.0240   22.4580 H   0  0  0  0  0  0  0  0  0  0  0  0
  -21.0760  -13.1520   22.2210 H   0  0  0  0  0  0  0  0  0  0  0  0
  -25.3680  -15.1990   20.3110 N   0  0  0  0  0  0  0  0  0  0  0  0
  -24.5910  -15.8430   20.4090 H   0  0  0  0  0  0  0  0  0  0  0  0
  -26.2060  -15.6430   19.9610 H   0  0  0  0  0  0  0  0  0  0  0  0
  -29.6400  -24.4940   20.1690 C   0  0  0  0  0  2  0  0  0  0  0  0
  -28.3000  -25.2520   19.9230 C   0  0  0  0  0  2  0  0  0  0  0  0
  -28.3810  -26.6670   20.2110 O   0  0  0  0  0  0  0  0  0  0  0  0
  -24.5950  -31.9040   23.2540 C   0  0  0  0  0  0  0  0  0  0  0  0
  -27.2080  -27.4100   20.1820 C   0  0  0  0  0  0  0  0  0  0  0  0
  -23.3780  -30.4960   21.6280 C   0  0  0  0  0  3  0  0  0  0  0  0
  -24.8180  -28.9500   20.1990 C   0  0  0  0  0  0  0  0  0  0  0  0
  -25.9080  -30.8360   21.4210 C   0  0  0  0  0  2  0  0  0  0  0  0
  -25.9840  -29.4630   20.7800 C   0  0  0  0  0  0  0  0  0  0  0  0
  -27.1800  -28.7020   20.7660 C   0  0  0  0  0  3  0  0  0  0  0  0
  -26.0170  -26.9220   19.5910 C   0  0  0  0  0  3  0  0  0  0  0  0
  -24.8320  -27.6800   19.6000 C   0  0  0  0  0  3  0  0  0  0  0  0
  -23.5790  -29.8150   20.2490 C   0  0  0  0  0  2  0  0  0  0  0  0
  -24.6470  -31.0910   22.1600 N   0  0  0  0  0  0  0  0  0  0  0  0
  -23.5130  -32.2060   23.7740 O   0  0  0  0  0  0  0  0  0  0  0  0
  -22.7260  -29.4800   22.5930 C   0  0  0  0  0  0  0  0  0  0  0  0
  -21.4010  -29.2940   22.4660 N   0  0  0  0  0  0  0  0  0  0  0  0
  -23.4090  -28.8590   23.4130 O   0  0  0  0  0  0  0  0  0  0  0  0
  -20.9120  -29.8460   21.7760 H   0  0  0  0  0  0  0  0  0  0  0  0
  -18.0300  -28.0900   22.9560 C   0  0  0  0  0  0  0  0  0  0  0  0
  -20.5850  -28.3590   23.2400 C   0  0  0  0  0  3  0  0  0  0  0  0
  -20.6950  -26.9240   22.6730 C   0  0  0  0  0  2  0  0  0  0  0  0
  -19.6000  -26.5910   21.6560 C   0  0  0  0  0  2  0  0  0  0  0  0
  -18.2140  -26.7350   22.2920 C   0  0  0  0  0  2  0  0  0  0  0  0
  -19.1430  -28.8580   23.3870 C   0  0  0  0  0  0  0  0  0  0  0  0
  -18.9170  -30.1260   23.9670 C   0  0  0  0  0  3  0  0  0  0  0  0
  -17.6090  -30.6240   24.1210 C   0  0  0  0  0  3  0  0  0  0  0  0
  -16.5110  -29.8520   23.7090 C   0  0  0  0  0  3  0  0  0  0  0  0
  -16.7210  -28.5870   23.1320 C   0  0  0  0  0  3  0  0  0  0  0  0
  -25.8870  -32.5230   23.8760 C   0  0  0  0  0  3  0  0  0  0  0  0
  -26.4060  -31.7460   25.1480 C   0  0  1  0  0  0  0  0  0  0  0  0
  -25.3150  -31.5130   26.2190 C   0  0  0  0  0  1  0  0  0  0  0  0
  -26.9810  -30.3670   24.7510 C   0  0  0  0  0  1  0  0  0  0  0  0
  -27.5630  -32.5330   25.8070 C   0  0  0  0  0  1  0  0  0  0  0  0
  -25.5890  -33.9210   24.2090 N   0  0  0  0  0  0  0  0  0  0  0  0
  -25.9130  -34.9710   23.4420 C   0  0  0  0  0  0  0  0  0  0  0  0
  -26.5700  -34.8620   22.4020 O   0  0  0  0  0  0  0  0  0  0  0  0
  -25.0040  -34.0790   25.0160 H   0  0  0  0  0  0  0  0  0  0  0  0
  -24.1810  -36.7620   23.1050 C   0  0  0  0  0  1  0  0  0  0  0  0
  -25.4330  -36.3610   23.9000 C   0  0  0  0  0  3  0  0  0  0  0  0
  -27.5800  -37.2450   24.6950 C   0  0  0  0  0  1  0  0  0  0  0  0
  -26.4650  -37.4120   23.7680 N   0  0  0  0  0  0  0  0  0  0  0  0
  -26.0620  -38.3330   23.9180 H   0  0  0  0  0  0  0  0  0  0  0  0
  2  4  2  0
  3 51  1  0
  3  1  2  0
  4  1  1  0
  4  8  1  0
  5  3  1  0
  6  5  1  0
  7  5  2  0
  7  2  1  0
  8  9  1  0
 10 22  1  0
 11 16  1  0
 12 13  1  0
 12 11  1  0
 14 13  1  0
 14 26  1  0
 14 15  1  0
 16 10  1  0
 16 15  1  0
 17 10  2  0
 18 21  1  0
 19 18  1  0
 19 22  1  0
 21  8  1  0
 21 20  1  0
 22 20  1  0
 23 24  2  0
 24 43  1  0
 25 24  1  0
 25 28  1  0
 26 23  1  0
 26 27  1  0
 27 25  2  0
 28 29  1  0
 29 30  2  0
 31 34  1  0
 31 30  1  0
 32 31  2  0
 33 32  1  0
 33 28  2  0
 34 35  1  0
 35 36  1  0
 36 37  2  0
 38 37  1  0
 38 42  1  0
 39 38  2  0
 40 35  2  0
 40 39  1  0
 41 40  1  0
 43 44  1  0
 44 47  1  0
 44 46  1  0
 45 43  2  0
 48 49  1  0
 48 23  1  0
 50 48  1  0
 52 51  1  0
 52 53  1  0
 54 65  2  0
 55 53  1  0
 55 60  1  0
 56 64  1  0
 56 66  1  0
 57 63  1  0
 57 59  1  0
 58 64  1  0
 59 58  1  0
 60 59  2  0
 61 62  1  0
 61 55  2  0
 62 57  2  0
 63 56  1  0
 64 54  1  0
 66 68  2  0
 67 66  1  0
 69 67  1  0
 70 79  2  0
 70 75  1  0
 71 67  1  0
 71 75  1  0
 72 71  1  0
 73 74  1  0
 73 72  1  0
 74 70  1  0
 75 76  2  0
 76 77  1  0
 78 77  2  0
 79 78  1  0
 80 54  1  0
 80 85  1  0
 80 81  1  0
 81 84  1  1
 81 82  1  0
 83 81  1  0
 85 88  1  0
 86 90  1  0
 86 85  1  0
 87 86  2  0
 90 89  1  0
 92 90  1  0
 92 93  1  0
 92 91  1  0
M  ISO  4  10 100  22 100  52 101  53 101
M  END
>  <TORSDO>  (41) 
F 19

>  <SCORE>  (41) 
-14.463

>  <name>  (41) 
40

>  <ligand_id>  (41) 
40

>  <original_smiles>  (41) 
[H]c1nc(C([H])([H])[H])c(C([H])([H])C([H])([H])Oc2c([H])c([H])c3c(c2[H])C([H])([H])N(C(=O)C([H])(N([H])C(=O)C([H])(N([H])C([H])([H])[H])C([H])([H])[H])C(C([H])([H])[H])(C([H])([H])[H])C([H])([H])[H])C([H])(C(=O)N([H])C2([H])c4c([H])c([H])c([H])c([H])c4C([H])([H])C([H])([H])C2([H])[H])C3([H])[H])c([H])c1N([H])C1([H])C([H])([H])N(C(=O)N2C([H])([H])C([H])([H])C([H])([H])C([H])(n3nc(-c4c([H])c([H])c(Oc5c([H])c([H])c(F)c([H])c5F)c([H])c4[H])c(C(=O)N([H])[H])c3N([H])[H])C2([H])[H])C([H])([H])C1([H])[H]

>  <smiles>  (41) 
[H]c1nc(C([H])([H])[H])c(C([H])([H])C([H])([H])Oc2c([H])c([H])c3c(c2[H])C([H])([H])N(C(=O)C([H])(N([H])C(=O)C([H])(N([H])C([H])([H])[H])C([H])([H])[H])C(C([H])([H])[H])(C([H])([H])[H])C([H])([H])[H])C([H])(C(=O)N([H])C2([H])c4c([H])c([H])c([H])c([H])c4C([H])([H])C([H])([H])C2([H])[H])C3([H])[H])c([H])c1N([H])C1([H])C([H])([H])N(C(=O)N2C([H])([H])C([H])([H])C([H])([H])C([H])(n3nc(-c4c([H])c([H])c(Oc5c([H])c([H])c(F)c([H])c5F)c([H])c4[H])c(C(=O)N([H])[H])c3N([H])[H])C2([H])[H])C([H])([H])C1([H])[H]

> <Step>
169.0

> <Scaffold>
O=C(NC1CCCc2ccccc21)C1Cc2ccc(OCCc3cncc(NC4CCN(C(=O)N5CCCC(n6ccc(-c7ccc(Oc8ccccc8)cc7)n6)C5)C4)c3)cc2CN1

> <SMILES>
CNC(C)C(=O)NC(C(=O)N1Cc2cc(OCCc3cc(NC4CCN(C(=O)N5CCCC(n6nc(-c7ccc(Oc8ccc(F)cc8F)cc7)c(C(N)=O)c6N)C5)C4)cnc3C)ccc2CC1C(=O)NC1CCCc2ccccc21)C(C)(C)C

> <Tanimoto ROCS sim>
0.2183895856142044

> <Custom alerts>
1.0

> <Linker Num Aromatic Rings>
1.0

> <Linker Effective Length>
1.0

> <ADV>
0.995747447013855

> <PostDock Tanimoto ROCS sim>
0.9912269115447998

> <raw_Linker Num Aromatic Rings>
1.0

> <raw_Linker Effective Length>
8.0

> <raw_ADV>
-14.477999687194824

> <total_score>
0.9967436194419861

> <ID>
default_job_40

> <PostDock Tanimoto ROCS sim (re-score)>
0.9849451

> <raw_ADV (re-score)>
-14.463

> <Final Intermolecular Energy>
-30.105

> <Final Total Internal Energy>
-2.63

> <Torsional Free Energy>
15.642

> <Unbound System's Energy>
-2.63

$$$$
default_job_41
     RDKit          3D

 93102  0  0  1  0  0  0  0  0999 V2000
  -28.0300  -22.7330   19.2540 C   0  0  0  0  0  2  0  0  0  0  0  0
  -29.2180  -22.9330   21.4370 C   0  0  0  0  0  2  0  0  0  0  0  0
  -28.2210  -24.2680   19.0210 C   0  0  0  0  0  2  0  0  0  0  0  0
  -29.3300  -24.4800   21.2090 C   0  0  0  0  0  2  0  0  0  0  0  0
  -29.1170  -22.0550   20.1480 C   0  0  0  0  0  3  0  0  0  0  0  0
  -28.1920  -25.0830   20.3410 C   0  0  0  0  0  3  0  0  0  0  0  0
  -28.0710  -19.7040   19.3950 C   0  0  0  0  0  2  0  0  0  0  0  0
  -28.3160  -18.2370   19.7950 C   0  0  0  0  0  2  0  0  0  0  0  0
  -28.8480  -20.5040   20.4560 C   0  0  0  0  0  3  0  0  0  0  0  0
  -29.7900  -18.2290   20.2250 C   0  0  0  0  0  3  0  0  0  0  0  0
  -30.0380  -19.6270   20.7320 N   0  0  0  0  0  4  0  0  0  0  0  0
  -30.2230  -19.6190   21.7230 H   0  0  0  0  0  0  0  0  0  0  0  0
  -30.8550  -19.9930   20.2710 H   0  0  0  0  0  0  0  0  0  0  0  0
  -30.2420  -17.0530   21.1870 C   0  0  0  0  0  2  0  0  0  0  0  0
  -30.5990  -14.5900   20.4680 C   0  0  0  0  0  0  0  0  0  0  0  0
  -30.3610  -12.3790   19.3660 C   0  0  0  0  0  2  0  0  0  0  0  0
  -29.4240  -12.5220   18.1460 C   0  0  0  0  0  2  0  0  0  0  0  0
  -27.9480  -12.3750   18.5680 C   0  0  0  0  0  2  0  0  0  0  0  0
  -27.5880  -13.2400   19.8050 C   0  0  0  0  0  3  0  0  0  0  0  0
  -28.6360  -13.0670   20.9260 C   0  0  0  0  0  2  0  0  0  0  0  0
  -29.9530  -13.3920   20.3550 N   0  0  0  0  0  0  0  0  0  0  0  0
  -31.7670  -14.7430   20.1000 O   0  0  0  0  0  0  0  0  0  0  0  0
  -29.8350  -15.6520   20.8530 N   0  0  0  0  0  0  0  0  0  0  0  0
  -28.8750  -15.4190   21.0580 H   0  0  0  0  0  0  0  0  0  0  0  0
  -25.1900  -13.8560   20.4930 C   0  0  0  0  0  0  0  0  0  0  0  0
  -24.1160  -13.0900   20.8600 C   0  0  0  0  0  0  0  0  0  0  0  0
  -24.5740  -11.7380   20.8450 C   0  0  0  0  0  0  0  0  0  0  0  0
  -26.2330  -12.9700   20.2780 N   0  0  0  0  0  0  0  0  0  0  0  0
  -25.8670  -11.6910   20.5510 N   0  0  0  0  0  0  0  0  0  0  0  0
  -23.8410  -10.4790   21.0390 C   0  0  0  0  0  0  0  0  0  0  0  0
  -24.2730   -9.5090   21.9700 C   0  0  0  0  0  3  0  0  0  0  0  0
  -23.5420   -8.3150   22.1500 C   0  0  0  0  0  3  0  0  0  0  0  0
  -22.3650   -8.0830   21.4010 C   0  0  0  0  0  0  0  0  0  0  0  0
  -21.9530   -9.0420   20.4580 C   0  0  0  0  0  3  0  0  0  0  0  0
  -22.6840  -10.2270   20.2760 C   0  0  0  0  0  3  0  0  0  0  0  0
  -21.6050   -6.9430   21.4900 O   0  0  0  0  0  0  0  0  0  0  0  0
  -21.5700   -6.1900   22.6370 C   0  0  0  0  0  0  0  0  0  0  0  0
  -21.1780   -6.7390   23.8780 C   0  0  0  0  0  3  0  0  0  0  0  0
  -21.0890   -5.9140   25.0160 C   0  0  0  0  0  3  0  0  0  0  0  0
  -21.3830   -4.5400   24.9160 C   0  0  0  0  0  0  0  0  0  0  0  0
  -21.7680   -3.9910   23.6800 C   0  0  0  0  0  3  0  0  0  0  0  0
  -21.8580   -4.8130   22.5440 C   0  0  0  0  0  0  0  0  0  0  0  0
  -22.2090   -4.2740   21.3510 F   0  0  0  0  0  0  0  0  0  0  0  0
  -21.2900   -3.7460   26.0080 F   0  0  0  0  0  0  0  0  0  0  0  0
  -22.7170  -13.5740   21.1110 C   0  0  0  0  0  0  0  0  0  0  0  0
  -21.9780  -12.8890   21.9760 N   0  0  0  0  0  0  0  0  0  0  0  0
  -22.2880  -14.5950   20.5750 O   0  0  0  0  0  0  0  0  0  0  0  0
  -22.3370  -12.0640   22.4320 H   0  0  0  0  0  0  0  0  0  0  0  0
  -21.0380  -13.1950   22.1870 H   0  0  0  0  0  0  0  0  0  0  0  0
  -25.3600  -15.2240   20.3040 N   0  0  0  0  0  0  0  0  0  0  0  0
  -24.5880  -15.8750   20.3930 H   0  0  0  0  0  0  0  0  0  0  0  0
  -26.1990  -15.6550   19.9390 H   0  0  0  0  0  0  0  0  0  0  0  0
  -28.3340  -26.5430   20.1940 O   0  0  0  0  0  0  0  0  0  0  0  0
  -24.5960  -31.8870   23.2470 C   0  0  0  0  0  0  0  0  0  0  0  0
  -27.1880  -27.3430   20.1810 C   0  0  0  0  0  0  0  0  0  0  0  0
  -23.3790  -30.4850   21.6200 C   0  0  0  0  0  3  0  0  0  0  0  0
  -24.8170  -28.9320   20.1910 C   0  0  0  0  0  0  0  0  0  0  0  0
  -25.9170  -30.8040   21.4230 C   0  0  0  0  0  2  0  0  0  0  0  0
  -25.9880  -29.4290   20.7740 C   0  0  0  0  0  0  0  0  0  0  0  0
  -27.1790  -28.6480   20.7550 C   0  0  0  0  0  3  0  0  0  0  0  0
  -25.9880  -26.8820   19.5940 C   0  0  0  0  0  3  0  0  0  0  0  0
  -24.8160  -27.6620   19.5940 C   0  0  0  0  0  3  0  0  0  0  0  0
  -23.5830  -29.8080   20.2410 C   0  0  0  0  0  2  0  0  0  0  0  0
  -24.6510  -31.0710   22.1560 N   0  0  0  0  0  0  0  0  0  0  0  0
  -23.5110  -32.1940   23.7610 O   0  0  0  0  0  0  0  0  0  0  0  0
  -22.7190  -29.4700   22.5840 C   0  0  0  0  0  0  0  0  0  0  0  0
  -21.3920  -29.2980   22.4610 N   0  0  0  0  0  0  0  0  0  0  0  0
  -23.3990  -28.8420   23.3980 O   0  0  0  0  0  0  0  0  0  0  0  0
  -20.9050  -29.8580   21.7760 H   0  0  0  0  0  0  0  0  0  0  0  0
  -18.0110  -28.1170   22.9640 C   0  0  0  0  0  0  0  0  0  0  0  0
  -20.5710  -28.3640   23.2330 C   0  0  0  0  0  3  0  0  0  0  0  0
  -20.6660  -26.9320   22.6570 C   0  0  0  0  0  2  0  0  0  0  0  0
  -19.5610  -26.6140   21.6440 C   0  0  0  0  0  2  0  0  0  0  0  0
  -18.1810  -26.7660   22.2890 C   0  0  0  0  0  2  0  0  0  0  0  0
  -19.1330  -28.8730   23.3920 C   0  0  0  0  0  0  0  0  0  0  0  0
  -18.9200  -30.1390   23.9840 C   0  0  0  0  0  3  0  0  0  0  0  0
  -17.6180  -30.6450   24.1500 C   0  0  0  0  0  3  0  0  0  0  0  0
  -16.5100  -29.8840   23.7380 C   0  0  0  0  0  3  0  0  0  0  0  0
  -16.7070  -28.6220   23.1510 C   0  0  0  0  0  3  0  0  0  0  0  0
  -25.8850  -32.5030   23.8750 C   0  0  0  0  0  3  0  0  0  0  0  0
  -25.5860  -33.9020   24.2130 N   0  0  0  0  0  0  0  0  0  0  0  0
  -25.9120  -34.9530   23.4490 C   0  0  0  0  0  0  0  0  0  0  0  0
  -26.5690  -34.8480   22.4100 O   0  0  0  0  0  0  0  0  0  0  0  0
  -25.0040  -34.0580   25.0210 H   0  0  0  0  0  0  0  0  0  0  0  0
  -24.1790  -36.7460   23.1230 C   0  0  0  0  0  1  0  0  0  0  0  0
  -25.4340  -36.3430   23.9130 C   0  0  0  0  0  3  0  0  0  0  0  0
  -27.5860  -37.2240   24.7030 C   0  0  0  0  0  1  0  0  0  0  0  0
  -26.4660  -37.3940   23.7800 N   0  0  0  0  0  0  0  0  0  0  0  0
  -26.0640  -38.3150   23.9340 H   0  0  0  0  0  0  0  0  0  0  0  0
  -26.3980  -31.7240   25.1490 C   0  0  1  0  0  0  0  0  0  0  0  0
  -25.3040  -31.4910   26.2170 C   0  0  0  0  0  1  0  0  0  0  0  0
  -26.9710  -30.3440   24.7520 C   0  0  0  0  0  1  0  0  0  0  0  0
  -27.5560  -32.5080   25.8110 C   0  0  0  0  0  1  0  0  0  0  0  0
  3  1  1  0
  3  6  1  0
  4  2  1  0
  5  1  1  0
  5  9  1  0
  5  2  1  0
  6 53  1  0
  6  4  1  0
  7  8  1  0
  8 10  1  0
  9  7  1  0
  9 11  1  0
 10 11  1  0
 10 14  1  0
 11 12  1  0
 13 11  1  0
 15 23  1  0
 16 21  1  0
 17 18  1  0
 17 16  1  0
 19 18  1  0
 19 28  1  0
 19 20  1  0
 21 15  1  0
 21 20  1  0
 22 15  2  0
 23 24  1  0
 23 14  1  0
 25 26  2  0
 26 45  1  0
 27 26  1  0
 27 30  1  0
 28 25  1  0
 28 29  1  0
 29 27  2  0
 30 31  1  0
 31 32  2  0
 33 36  1  0
 33 32  1  0
 34 33  2  0
 35 34  1  0
 35 30  2  0
 36 37  1  0
 37 38  1  0
 38 39  2  0
 40 39  1  0
 40 44  1  0
 41 40  2  0
 42 37  2  0
 42 41  1  0
 43 42  1  0
 45 46  1  0
 46 49  1  0
 46 48  1  0
 47 45  2  0
 50 51  1  0
 50 25  1  0
 52 50  1  0
 54 65  2  0
 55 53  1  0
 55 60  1  0
 56 64  1  0
 56 66  1  0
 57 63  1  0
 57 59  1  0
 58 64  1  0
 59 58  1  0
 60 59  2  0
 61 55  2  0
 62 61  1  0
 62 57  2  0
 63 56  1  0
 64 54  1  0
 66 68  2  0
 67 66  1  0
 69 67  1  0
 70 79  2  0
 70 75  1  0
 71 67  1  0
 71 75  1  0
 72 71  1  0
 73 74  1  0
 73 72  1  0
 74 70  1  0
 75 76  2  0
 76 77  1  0
 78 77  2  0
 79 78  1  0
 80 54  1  0
 80 81  1  0
 80 90  1  0
 81 84  1  0
 82 86  1  0
 82 81  1  0
 83 82  2  0
 86 85  1  0
 88 86  1  0
 88 89  1  0
 88 87  1  0
 90 93  1  1
 90 91  1  0
 92 90  1  0
M  ISO  4   6 101  15 100  23 100  53 101
M  END
>  <TORSDO>  (42) 
F 18

>  <SCORE>  (42) 
-14.865

>  <name>  (42) 
41

>  <ligand_id>  (42) 
41

>  <original_smiles>  (42) 
[H]c1c([H])c([H])c2c(c1[H])C([H])([H])C([H])([H])C([H])([H])C2([H])N([H])C(=O)C1([H])N(C(=O)C([H])(N([H])C(=O)C([H])(N([H])C([H])([H])[H])C([H])([H])[H])C(C([H])([H])[H])(C([H])([H])[H])C([H])([H])[H])C([H])([H])c2c([H])c(OC3([H])C([H])([H])C([H])([H])C([H])(C4([H])C([H])([H])C([H])([H])C([H])(C([H])([H])N([H])C(=O)N5C([H])([H])C([H])([H])C([H])([H])C([H])(n6nc(-c7c([H])c([H])c(Oc8c([H])c([H])c(F)c([H])c8F)c([H])c7[H])c(C(=O)N([H])[H])c6N([H])[H])C5([H])[H])[N+]4([H])[H])C([H])([H])C3([H])[H])c([H])c([H])c2C1([H])[H]

>  <smiles>  (42) 
[H]c1c([H])c([H])c2c(c1[H])C([H])([H])C([H])([H])C([H])([H])C2([H])N([H])C(=O)C1([H])N(C(=O)C([H])(N([H])C(=O)C([H])(N([H])C([H])([H])[H])C([H])([H])[H])C(C([H])([H])[H])(C([H])([H])[H])C([H])([H])[H])C([H])([H])c2c([H])c(OC3([H])C([H])([H])C([H])([H])C([H])(C4([H])C([H])([H])C([H])([H])C([H])(C([H])([H])N([H])C(=O)N5C([H])([H])C([H])([H])C([H])([H])C([H])(n6nc(-c7c([H])c([H])c(Oc8c([H])c([H])c(F)c([H])c8F)c([H])c7[H])c(C(=O)N([H])[H])c6N([H])[H])C5([H])[H])[N+]4([H])[H])C([H])([H])C3([H])[H])c([H])c([H])c2C1([H])[H]

> <Step>
133.0

> <Scaffold>
O=C(NC1CCCc2ccccc21)C1Cc2ccc(OC3CCC(C4CCC(CNC(=O)N5CCCC(n6ccc(-c7ccc(Oc8ccccc8)cc7)n6)C5)N4)CC3)cc2CN1

> <SMILES>
CNC(C)C(=O)NC(C(=O)N1Cc2cc(OC3CCC(C4CCC(CNC(=O)N5CCCC(n6nc(-c7ccc(Oc8ccc(F)cc8F)cc7)c(C(N)=O)c6N)C5)N4)CC3)ccc2CC1C(=O)NC1CCCc2ccccc21)C(C)(C)C

> <Tanimoto ROCS sim>
0.2782457768917084

> <Custom alerts>
1.0

> <Linker Num Aromatic Rings>
1.0

> <Linker Effective Length>
1.0

> <ADV>
0.996665358543396

> <PostDock Tanimoto ROCS sim>
0.9902568459510803

> <raw_Linker Num Aromatic Rings>
0.0

> <raw_Linker Effective Length>
8.0

> <raw_ADV>
-14.902000427246094

> <total_score>
0.9967305660247803

> <ID>
default_job_41

> <PostDock Tanimoto ROCS sim (re-score)>
0.9823068

> <raw_ADV (re-score)>
-14.865

> <Final Intermolecular Energy>
-30.073

> <Final Total Internal Energy>
-2.951

> <Torsional Free Energy>
15.208

> <Unbound System's Energy>
-2.951

$$$$
default_job_42
     RDKit          3D

 92101  0  0  1  0  0  0  0  0999 V2000
  -28.9780  -23.1890   19.5190 C   0  0  0  0  0  2  0  0  0  0  0  0
  -28.9090  -23.0640   22.0100 C   0  0  0  0  0  2  0  0  0  0  0  0
  -29.8220  -21.8700   19.5030 C   0  0  0  0  0  2  0  0  0  0  0  0
  -29.7500  -21.7520   21.9810 C   0  0  0  0  0  2  0  0  0  0  0  0
  -29.1260  -24.0390   20.8120 C   0  0  0  0  0  3  0  0  0  0  0  0
  -29.5460  -20.9070   20.6970 C   0  0  0  0  0  3  0  0  0  0  0  0
  -30.4180  -19.6710   20.6690 N   0  0  0  0  0  4  0  0  0  0  0  0
  -31.1610  -19.8120   21.3350 H   0  0  0  0  0  0  0  0  0  0  0  0
  -30.8560  -19.6300   19.7640 H   0  0  0  0  0  0  0  0  0  0  0  0
  -30.6620  -14.6470   20.3490 C   0  0  0  0  0  0  0  0  0  0  0  0
  -30.3290  -12.4210   19.2960 C   0  0  0  0  0  2  0  0  0  0  0  0
  -29.3760  -12.5220   18.0890 C   0  0  0  0  0  2  0  0  0  0  0  0
  -27.9180  -12.3300   18.5450 C   0  0  0  0  0  2  0  0  0  0  0  0
  -27.5580  -13.2160   19.7620 C   0  0  0  0  0  3  0  0  0  0  0  0
  -28.6420  -13.1650   20.8680 C   0  0  0  0  0  2  0  0  0  0  0  0
  -29.9410  -13.4800   20.2520 N   0  0  0  0  0  0  0  0  0  0  0  0
  -31.8560  -14.6600   20.0400 O   0  0  0  0  0  0  0  0  0  0  0  0
  -28.8170  -17.8390   19.8850 C   0  0  0  0  0  2  0  0  0  0  0  0
  -28.7930  -16.3040   20.0320 C   0  0  0  0  0  2  0  0  0  0  0  0
  -30.7910  -17.0970   20.9770 C   0  0  0  0  0  2  0  0  0  0  0  0
  -29.8050  -18.3150   20.9360 C   0  0  0  0  0  3  0  0  0  0  0  0
  -30.0430  -15.8440   20.6590 N   0  0  0  0  0  0  0  0  0  0  0  0
  -25.1900  -13.8350   20.5250 C   0  0  0  0  0  0  0  0  0  0  0  0
  -24.1250  -13.0690   20.9080 C   0  0  0  0  0  0  0  0  0  0  0  0
  -24.5810  -11.7150   20.8670 C   0  0  0  0  0  0  0  0  0  0  0  0
  -26.2250  -12.9460   20.2770 N   0  0  0  0  0  0  0  0  0  0  0  0
  -25.8670  -11.6670   20.5470 N   0  0  0  0  0  0  0  0  0  0  0  0
  -23.8530  -10.4570   21.0580 C   0  0  0  0  0  0  0  0  0  0  0  0
  -24.3020   -9.4800   21.9730 C   0  0  0  0  0  3  0  0  0  0  0  0
  -23.5770   -8.2830   22.1530 C   0  0  0  0  0  3  0  0  0  0  0  0
  -22.3900   -8.0570   21.4170 C   0  0  0  0  0  0  0  0  0  0  0  0
  -21.9600   -9.0220   20.4900 C   0  0  0  0  0  3  0  0  0  0  0  0
  -22.6850  -10.2110   20.3080 C   0  0  0  0  0  3  0  0  0  0  0  0
  -21.6340   -6.9130   21.5080 O   0  0  0  0  0  0  0  0  0  0  0  0
  -21.6120   -6.1560   22.6510 C   0  0  0  0  0  0  0  0  0  0  0  0
  -21.2320   -6.6990   23.8980 C   0  0  0  0  0  3  0  0  0  0  0  0
  -21.1570   -5.8680   25.0330 C   0  0  0  0  0  3  0  0  0  0  0  0
  -21.4500   -4.4950   24.9230 C   0  0  0  0  0  0  0  0  0  0  0  0
  -21.8230   -3.9530   23.6810 C   0  0  0  0  0  3  0  0  0  0  0  0
  -21.9000   -4.7810   22.5470 C   0  0  0  0  0  0  0  0  0  0  0  0
  -22.2400   -4.2480   21.3490 F   0  0  0  0  0  0  0  0  0  0  0  0
  -21.3680   -3.6960   26.0110 F   0  0  0  0  0  0  0  0  0  0  0  0
  -22.7330  -13.5530   21.1930 C   0  0  0  0  0  0  0  0  0  0  0  0
  -22.0120  -12.8600   22.0680 N   0  0  0  0  0  0  0  0  0  0  0  0
  -22.2950  -14.5800   20.6760 O   0  0  0  0  0  0  0  0  0  0  0  0
  -22.3810  -12.0320   22.5090 H   0  0  0  0  0  0  0  0  0  0  0  0
  -21.0770  -13.1620   22.2980 H   0  0  0  0  0  0  0  0  0  0  0  0
  -25.3500  -15.2050   20.3420 N   0  0  0  0  0  0  0  0  0  0  0  0
  -24.5710  -15.8490   20.4370 H   0  0  0  0  0  0  0  0  0  0  0  0
  -26.1760  -15.6400   19.9540 H   0  0  0  0  0  0  0  0  0  0  0  0
  -28.1280  -25.2670   20.9230 C   0  0  0  0  0  2  0  0  0  0  0  0
  -28.3640  -26.5250   20.2090 O   0  0  0  0  0  0  0  0  0  0  0  0
  -24.6390  -31.8840   23.2210 C   0  0  0  0  0  0  0  0  0  0  0  0
  -27.2480  -27.3610   20.1660 C   0  0  0  0  0  0  0  0  0  0  0  0
  -23.4250  -30.4730   21.5990 C   0  0  0  0  0  3  0  0  0  0  0  0
  -24.8700  -28.9260   20.1650 C   0  0  0  0  0  0  0  0  0  0  0  0
  -25.9590  -30.8070   21.3960 C   0  0  0  0  0  2  0  0  0  0  0  0
  -26.0380  -29.4330   20.7520 C   0  0  0  0  0  0  0  0  0  0  0  0
  -27.2320  -28.6600   20.7440 C   0  0  0  0  0  3  0  0  0  0  0  0
  -26.0660  -26.8990   19.5460 C   0  0  0  0  0  3  0  0  0  0  0  0
  -24.8840  -27.6630   19.5530 C   0  0  0  0  0  3  0  0  0  0  0  0
  -23.6290  -29.7910   20.2200 C   0  0  0  0  0  2  0  0  0  0  0  0
  -24.6940  -31.0680   22.1310 N   0  0  0  0  0  0  0  0  0  0  0  0
  -23.5550  -32.1860   23.7390 O   0  0  0  0  0  0  0  0  0  0  0  0
  -22.7730  -29.4570   22.5650 C   0  0  0  0  0  0  0  0  0  0  0  0
  -21.4450  -29.2770   22.4480 N   0  0  0  0  0  0  0  0  0  0  0  0
  -23.4580  -28.8310   23.3790 O   0  0  0  0  0  0  0  0  0  0  0  0
  -20.9520  -29.8330   21.7620 H   0  0  0  0  0  0  0  0  0  0  0  0
  -18.0720  -28.0830   22.9650 C   0  0  0  0  0  0  0  0  0  0  0  0
  -20.6310  -28.3420   23.2250 C   0  0  0  0  0  3  0  0  0  0  0  0
  -20.7290  -26.9100   22.6520 C   0  0  0  0  0  2  0  0  0  0  0  0
  -19.6250  -26.5840   21.6430 C   0  0  0  0  0  2  0  0  0  0  0  0
  -18.2460  -26.7310   22.2920 C   0  0  0  0  0  2  0  0  0  0  0  0
  -19.1920  -28.8450   23.3880 C   0  0  0  0  0  0  0  0  0  0  0  0
  -18.9750  -30.1110   23.9770 C   0  0  0  0  0  3  0  0  0  0  0  0
  -17.6720  -30.6120   24.1470 C   0  0  0  0  0  3  0  0  0  0  0  0
  -16.5660  -29.8470   23.7410 C   0  0  0  0  0  3  0  0  0  0  0  0
  -16.7670  -28.5830   23.1560 C   0  0  0  0  0  3  0  0  0  0  0  0
  -25.9280  -32.5060   23.8450 C   0  0  0  0  0  3  0  0  0  0  0  0
  -25.6220  -33.9010   24.1910 N   0  0  0  0  0  0  0  0  0  0  0  0
  -25.9340  -34.9580   23.4310 C   0  0  0  0  0  0  0  0  0  0  0  0
  -26.5840  -34.8630   22.3860 O   0  0  0  0  0  0  0  0  0  0  0  0
  -25.0450  -34.0480   25.0060 H   0  0  0  0  0  0  0  0  0  0  0  0
  -24.1840  -36.7380   23.1250 C   0  0  0  0  0  1  0  0  0  0  0  0
  -25.4480  -36.3410   23.9060 C   0  0  0  0  0  3  0  0  0  0  0  0
  -27.6000  -37.2330   24.6800 C   0  0  0  0  0  1  0  0  0  0  0  0
  -26.4680  -37.4030   23.7720 N   0  0  0  0  0  0  0  0  0  0  0  0
  -26.0600  -38.3180   23.9420 H   0  0  0  0  0  0  0  0  0  0  0  0
  -26.4570  -31.7230   25.1100 C   0  0  1  0  0  0  0  0  0  0  0  0
  -25.3740  -31.4760   26.1850 C   0  0  0  0  0  1  0  0  0  0  0  0
  -27.0370  -30.3490   24.7000 C   0  0  0  0  0  1  0  0  0  0  0  0
  -27.6140  -32.5110   25.7680 C   0  0  0  0  0  1  0  0  0  0  0  0
  1  5  1  0
  3  1  1  0
  3  6  1  0
  4  2  1  0
  5 51  1  0
  5  2  1  0
  6  7  1  0
  6  4  1  0
  7  8  1  0
  9  7  1  0
 10 22  1  0
 11 16  1  0
 12 13  1  0
 12 11  1  0
 14 13  1  0
 14 26  1  0
 14 15  1  0
 16 10  1  0
 16 15  1  0
 17 10  2  0
 18 19  1  0
 18 21  1  0
 19 22  1  0
 21  7  1  0
 21 20  1  0
 22 20  1  0
 23 24  2  0
 24 43  1  0
 25 24  1  0
 25 28  1  0
 26 23  1  0
 26 27  1  0
 27 25  2  0
 28 29  1  0
 29 30  2  0
 31 34  1  0
 31 30  1  0
 32 31  2  0
 33 32  1  0
 33 28  2  0
 34 35  1  0
 35 36  1  0
 36 37  2  0
 38 37  1  0
 38 42  1  0
 39 38  2  0
 40 35  2  0
 40 39  1  0
 41 40  1  0
 43 44  1  0
 44 47  1  0
 44 46  1  0
 45 43  2  0
 48 49  1  0
 48 23  1  0
 50 48  1  0
 52 51  1  0
 53 64  2  0
 54 52  1  0
 54 59  1  0
 55 63  1  0
 55 65  1  0
 56 62  1  0
 56 58  1  0
 57 63  1  0
 58 57  1  0
 59 58  2  0
 60 61  1  0
 60 54  2  0
 61 56  2  0
 62 55  1  0
 63 53  1  0
 65 67  2  0
 66 65  1  0
 68 66  1  0
 69 78  2  0
 69 74  1  0
 70 66  1  0
 70 74  1  0
 71 70  1  0
 72 73  1  0
 72 71  1  0
 73 69  1  0
 74 75  2  0
 75 76  1  0
 77 76  2  0
 78 77  1  0
 79 53  1  0
 79 80  1  0
 79 89  1  0
 80 83  1  0
 81 85  1  0
 81 80  1  0
 82 81  2  0
 85 84  1  0
 87 85  1  0
 87 88  1  0
 87 86  1  0
 89 92  1  1
 89 90  1  0
 91 89  1  0
M  ISO  4  10 100  22 100  51 101  52 101
M  END
>  <TORSDO>  (43) 
F 18

>  <SCORE>  (43) 
-14.797

>  <name>  (43) 
42

>  <ligand_id>  (43) 
42

>  <original_smiles>  (43) 
[H]c1c([H])c([H])c2c(c1[H])C([H])([H])C([H])([H])C([H])([H])C2([H])N([H])C(=O)C1([H])N(C(=O)C([H])(N([H])C(=O)C([H])(N([H])C([H])([H])[H])C([H])([H])[H])C(C([H])([H])[H])(C([H])([H])[H])C([H])([H])[H])C([H])([H])c2c([H])c(OC([H])([H])C3([H])C([H])([H])C([H])([H])C([H])([N+]([H])([H])C4([H])C([H])([H])N(C(=O)N5C([H])([H])C([H])([H])C([H])([H])C([H])(n6nc(-c7c([H])c([H])c(Oc8c([H])c([H])c(F)c([H])c8F)c([H])c7[H])c(C(=O)N([H])[H])c6N([H])[H])C5([H])[H])C([H])([H])C4([H])[H])C([H])([H])C3([H])[H])c([H])c([H])c2C1([H])[H]

>  <smiles>  (43) 
[H]c1c([H])c([H])c2c(c1[H])C([H])([H])C([H])([H])C([H])([H])C2([H])N([H])C(=O)C1([H])N(C(=O)C([H])(N([H])C(=O)C([H])(N([H])C([H])([H])[H])C([H])([H])[H])C(C([H])([H])[H])(C([H])([H])[H])C([H])([H])[H])C([H])([H])c2c([H])c(OC([H])([H])C3([H])C([H])([H])C([H])([H])C([H])([N+]([H])([H])C4([H])C([H])([H])N(C(=O)N5C([H])([H])C([H])([H])C([H])([H])C([H])(n6nc(-c7c([H])c([H])c(Oc8c([H])c([H])c(F)c([H])c8F)c([H])c7[H])c(C(=O)N([H])[H])c6N([H])[H])C5([H])[H])C([H])([H])C4([H])[H])C([H])([H])C3([H])[H])c([H])c([H])c2C1([H])[H]

> <Step>
126.0

> <Scaffold>
O=C(NC1CCCc2ccccc21)C1Cc2ccc(OCC3CCC(NC4CCN(C(=O)N5CCCC(n6ccc(-c7ccc(Oc8ccccc8)cc7)n6)C5)C4)CC3)cc2CN1

> <SMILES>
CNC(C)C(=O)NC(C(=O)N1Cc2cc(OCC3CCC(NC4CCN(C(=O)N5CCCC(n6nc(-c7ccc(Oc8ccc(F)cc8F)cc7)c(C(N)=O)c6N)C5)C4)CC3)ccc2CC1C(=O)NC1CCCc2ccccc21)C(C)(C)C

> <Tanimoto ROCS sim>
0.3387896418571472

> <Custom alerts>
1.0

> <Linker Num Aromatic Rings>
1.0

> <Linker Effective Length>
1.0

> <ADV>
0.9964624047279358

> <PostDock Tanimoto ROCS sim>
0.9904526472091675

> <raw_Linker Num Aromatic Rings>
0.0

> <raw_Linker Effective Length>
8.0

> <raw_ADV>
-14.798999786376953

> <total_score>
0.996728777885437

> <ID>
default_job_42

> <PostDock Tanimoto ROCS sim (re-score)>
0.9825418

> <raw_ADV (re-score)>
-14.797

> <Final Intermolecular Energy>
-29.936

> <Final Total Internal Energy>
-2.851

> <Torsional Free Energy>
15.138

> <Unbound System's Energy>
-2.851

$$$$
default_job_43
     RDKit          3D

 94102  0  0  1  0  0  0  0  0999 V2000
  -27.9410  -20.5990   19.2880 C   0  0  0  0  0  3  0  0  0  0  0  0
  -28.4780  -19.3080   19.4770 C   0  0  0  0  0  0  0  0  0  0  0  0
  -29.7560  -19.1710   20.0740 C   0  0  0  0  0  0  0  0  0  0  0  0
  -30.4000  -20.3750   20.4810 C   0  0  0  0  0  0  0  0  0  0  0  0
  -28.6600  -21.7300   19.7060 C   0  0  0  0  0  0  0  0  0  0  0  0
  -27.6860  -18.1080   18.9910 C   0  0  0  0  0  1  0  0  0  0  0  0
  -31.7870  -20.3770   21.0980 C   0  0  0  0  0  1  0  0  0  0  0  0
  -29.8580  -21.6120   20.3110 N   0  0  0  0  0  0  0  0  0  0  0  0
  -28.1480  -23.0060   19.4110 N   0  0  0  0  0  0  0  0  0  0  0  0
  -27.2810  -23.0100   18.8840 H   0  0  0  0  0  0  0  0  0  0  0  0
  -30.4240  -17.7740   20.1760 C   0  0  0  0  0  2  0  0  0  0  0  0
  -30.9300  -17.0670   22.6180 C   0  0  0  0  0  1  0  0  0  0  0  0
  -30.0040  -16.9030   21.4020 C   0  0  0  0  0  3  0  0  0  0  0  0
  -30.5800  -14.5230   20.5380 C   0  0  0  0  0  0  0  0  0  0  0  0
  -30.3560  -12.3720   19.3330 C   0  0  0  0  0  2  0  0  0  0  0  0
  -29.4010  -12.5750   18.1360 C   0  0  0  0  0  2  0  0  0  0  0  0
  -27.9270  -12.4110   18.5660 C   0  0  0  0  0  2  0  0  0  0  0  0
  -27.5830  -13.2180   19.8460 C   0  0  0  0  0  3  0  0  0  0  0  0
  -28.6410  -12.9680   20.9420 C   0  0  0  0  0  2  0  0  0  0  0  0
  -29.9590  -13.3210   20.3840 N   0  0  0  0  0  0  0  0  0  0  0  0
  -31.6990  -14.7710   20.0780 O   0  0  0  0  0  0  0  0  0  0  0  0
  -29.8040  -15.4670   21.1120 N   0  0  0  0  0  0  0  0  0  0  0  0
  -28.9050  -15.1100   21.3990 H   0  0  0  0  0  0  0  0  0  0  0  0
  -25.1750  -13.8010   20.5530 C   0  0  0  0  0  0  0  0  0  0  0  0
  -24.1150  -13.0170   20.9210 C   0  0  0  0  0  0  0  0  0  0  0  0
  -24.5900  -11.6700   20.8870 C   0  0  0  0  0  0  0  0  0  0  0  0
  -26.2300  -12.9310   20.3200 N   0  0  0  0  0  0  0  0  0  0  0  0
  -25.8800  -11.6450   20.5770 N   0  0  0  0  0  0  0  0  0  0  0  0
  -23.8780  -10.4000   21.0770 C   0  0  0  0  0  0  0  0  0  0  0  0
  -24.3250   -9.4340   22.0040 C   0  0  0  0  0  3  0  0  0  0  0  0
  -23.6150   -8.2270   22.1810 C   0  0  0  0  0  3  0  0  0  0  0  0
  -22.4440   -7.9780   21.4290 C   0  0  0  0  0  0  0  0  0  0  0  0
  -22.0140   -8.9330   20.4900 C   0  0  0  0  0  3  0  0  0  0  0  0
  -22.7260  -10.1310   20.3110 C   0  0  0  0  0  3  0  0  0  0  0  0
  -21.7020   -6.8240   21.5160 O   0  0  0  0  0  0  0  0  0  0  0  0
  -21.6730   -6.0710   22.6600 C   0  0  0  0  0  0  0  0  0  0  0  0
  -21.2460   -6.6090   23.8940 C   0  0  0  0  0  3  0  0  0  0  0  0
  -21.1660   -5.7810   25.0330 C   0  0  0  0  0  3  0  0  0  0  0  0
  -21.5020   -4.4170   24.9370 C   0  0  0  0  0  0  0  0  0  0  0  0
  -21.9220   -3.8790   23.7070 C   0  0  0  0  0  3  0  0  0  0  0  0
  -22.0040   -4.7040   22.5720 C   0  0  0  0  0  0  0  0  0  0  0  0
  -22.3900   -4.1760   21.3850 F   0  0  0  0  0  0  0  0  0  0  0  0
  -21.4160   -3.6200   26.0270 F   0  0  0  0  0  0  0  0  0  0  0  0
  -22.7120  -13.4780   21.1920 C   0  0  0  0  0  0  0  0  0  0  0  0
  -21.9890  -12.7730   22.0550 N   0  0  0  0  0  0  0  0  0  0  0  0
  -22.2630  -14.5000   20.6730 O   0  0  0  0  0  0  0  0  0  0  0  0
  -22.3650  -11.9490   22.5000 H   0  0  0  0  0  0  0  0  0  0  0  0
  -21.0460  -13.0610   22.2740 H   0  0  0  0  0  0  0  0  0  0  0  0
  -25.3230  -15.1730   20.3790 N   0  0  0  0  0  0  0  0  0  0  0  0
  -24.5450  -15.8140   20.4840 H   0  0  0  0  0  0  0  0  0  0  0  0
  -26.1640  -15.6190   20.0400 H   0  0  0  0  0  0  0  0  0  0  0  0
  -28.3480  -24.1910   20.2580 C   0  0  0  0  0  2  0  0  0  0  0  0
  -28.5420  -25.4960   19.4310 C   0  0  0  0  0  2  0  0  0  0  0  0
  -28.3930  -26.7160   20.1910 O   0  0  0  0  0  0  0  0  0  0  0  0
  -24.5630  -31.9100   23.2630 C   0  0  0  0  0  0  0  0  0  0  0  0
  -27.1980  -27.4230   20.1890 C   0  0  0  0  0  0  0  0  0  0  0  0
  -23.3570  -30.5050   21.6270 C   0  0  0  0  0  3  0  0  0  0  0  0
  -24.8050  -28.9560   20.2100 C   0  0  0  0  0  0  0  0  0  0  0  0
  -25.8900  -30.8410   21.4410 C   0  0  0  0  0  2  0  0  0  0  0  0
  -25.9670  -29.4690   20.7980 C   0  0  0  0  0  0  0  0  0  0  0  0
  -27.1610  -28.7090   20.7850 C   0  0  0  0  0  3  0  0  0  0  0  0
  -26.0020  -26.9190   19.6220 C   0  0  0  0  0  3  0  0  0  0  0  0
  -24.8190  -27.6800   19.6230 C   0  0  0  0  0  3  0  0  0  0  0  0
  -23.5660  -29.8230   20.2490 C   0  0  0  0  0  2  0  0  0  0  0  0
  -24.6220  -31.0980   22.1690 N   0  0  0  0  0  0  0  0  0  0  0  0
  -23.4760  -32.2110   23.7750 O   0  0  0  0  0  0  0  0  0  0  0  0
  -22.6970  -29.4880   22.5860 C   0  0  0  0  0  0  0  0  0  0  0  0
  -21.3720  -29.3100   22.4560 N   0  0  0  0  0  0  0  0  0  0  0  0
  -23.3770  -28.8610   23.4040 O   0  0  0  0  0  0  0  0  0  0  0  0
  -20.8860  -29.8700   21.7690 H   0  0  0  0  0  0  0  0  0  0  0  0
  -17.9890  -28.1370   22.9490 C   0  0  0  0  0  0  0  0  0  0  0  0
  -20.5490  -28.3750   23.2230 C   0  0  0  0  0  3  0  0  0  0  0  0
  -20.6410  -26.9450   22.6420 C   0  0  0  0  0  2  0  0  0  0  0  0
  -19.5360  -26.6340   21.6270 C   0  0  0  0  0  2  0  0  0  0  0  0
  -18.1560  -26.7870   22.2710 C   0  0  0  0  0  2  0  0  0  0  0  0
  -19.1130  -28.8890   23.3820 C   0  0  0  0  0  0  0  0  0  0  0  0
  -18.9030  -30.1520   23.9760 C   0  0  0  0  0  3  0  0  0  0  0  0
  -17.6020  -30.6630   24.1400 C   0  0  0  0  0  3  0  0  0  0  0  0
  -16.4930  -29.9070   23.7240 C   0  0  0  0  0  3  0  0  0  0  0  0
  -16.6870  -28.6460   23.1340 C   0  0  0  0  0  3  0  0  0  0  0  0
  -25.8500  -32.5280   23.8950 C   0  0  0  0  0  3  0  0  0  0  0  0
  -26.3500  -31.7590   25.1800 C   0  0  1  0  0  0  0  0  0  0  0  0
  -25.2460  -31.5370   26.2390 C   0  0  0  0  0  1  0  0  0  0  0  0
  -26.9260  -30.3760   24.8010 C   0  0  0  0  0  1  0  0  0  0  0  0
  -27.5020  -32.5500   25.8460 C   0  0  0  0  0  1  0  0  0  0  0  0
  -25.5540  -33.9310   24.2140 N   0  0  0  0  0  0  0  0  0  0  0  0
  -25.8970  -34.9730   23.4470 C   0  0  0  0  0  0  0  0  0  0  0  0
  -26.5720  -34.8550   22.4200 O   0  0  0  0  0  0  0  0  0  0  0  0
  -24.9570  -34.0970   25.0110 H   0  0  0  0  0  0  0  0  0  0  0  0
  -24.1880  -36.7770   23.0600 C   0  0  0  0  0  1  0  0  0  0  0  0
  -25.4160  -36.3690   23.8890 C   0  0  0  0  0  3  0  0  0  0  0  0
  -27.5500  -37.2410   24.7360 C   0  0  0  0  0  1  0  0  0  0  0  0
  -26.4600  -37.4110   23.7790 N   0  0  0  0  0  0  0  0  0  0  0  0
  -26.0610  -38.3360   23.9130 H   0  0  0  0  0  0  0  0  0  0  0  0
  1  2  2  0
  1  5  1  0
  2  3  1  0
  3 11  1  0
  3  4  2  0
  4  7  1  0
  5  8  2  0
  6  2  1  0
  8  4  1  0
  9  5  1  0
  9 52  1  0
 10  9  1  0
 11 13  1  0
 13 12  1  0
 14 22  1  0
 15 20  1  0
 16 17  1  0
 16 15  1  0
 18 17  1  0
 18 27  1  0
 18 19  1  0
 20 14  1  0
 20 19  1  0
 21 14  2  0
 22 23  1  0
 22 13  1  0
 24 25  2  0
 25 44  1  0
 26 25  1  0
 26 29  1  0
 27 24  1  0
 27 28  1  0
 28 26  2  0
 29 30  1  0
 30 31  2  0
 32 35  1  0
 32 31  1  0
 33 32  2  0
 34 33  1  0
 34 29  2  0
 35 36  1  0
 36 37  1  0
 37 38  2  0
 39 38  1  0
 39 43  1  0
 40 39  2  0
 41 36  2  0
 41 40  1  0
 42 41  1  0
 44 45  1  0
 45 48  1  0
 45 47  1  0
 46 44  2  0
 49 50  1  0
 49 24  1  0
 51 49  1  0
 53 54  1  0
 53 52  1  0
 55 66  2  0
 56 54  1  0
 56 61  1  0
 57 65  1  0
 57 67  1  0
 58 64  1  0
 58 60  1  0
 59 65  1  0
 60 59  1  0
 61 60  2  0
 62 63  1  0
 62 56  2  0
 63 58  2  0
 64 57  1  0
 65 55  1  0
 67 69  2  0
 68 67  1  0
 70 68  1  0
 71 80  2  0
 71 76  1  0
 72 68  1  0
 72 76  1  0
 73 72  1  0
 74 75  1  0
 74 73  1  0
 75 71  1  0
 76 77  2  0
 77 78  1  0
 79 78  2  0
 80 79  1  0
 81 55  1  0
 81 86  1  0
 81 82  1  0
 82 85  1  1
 82 83  1  0
 84 82  1  0
 86 89  1  0
 87 91  1  0
 87 86  1  0
 88 87  2  0
 91 90  1  0
 93 91  1  0
 93 94  1  0
 93 92  1  0
M  ISO  4  14 100  22 100  53 101  54 101
M  END
>  <TORSDO>  (44) 
F 20

>  <SCORE>  (44) 
-14.158

>  <name>  (44) 
43

>  <ligand_id>  (44) 
43

>  <original_smiles>  (44) 
[H]c1c([H])c([H])c2c(c1[H])C([H])([H])C([H])([H])C([H])([H])C2([H])N([H])C(=O)C1([H])N(C(=O)C([H])(N([H])C(=O)C([H])(N([H])C([H])([H])[H])C([H])([H])[H])C(C([H])([H])[H])(C([H])([H])[H])C([H])([H])[H])C([H])([H])c2c([H])c(OC([H])([H])C([H])([H])N([H])c3nc(C([H])([H])[H])c(C([H])([H])C([H])(N([H])C(=O)N4C([H])([H])C([H])([H])C([H])([H])C([H])(n5nc(-c6c([H])c([H])c(Oc7c([H])c([H])c(F)c([H])c7F)c([H])c6[H])c(C(=O)N([H])[H])c5N([H])[H])C4([H])[H])C([H])([H])[H])c(C([H])([H])[H])c3[H])c([H])c([H])c2C1([H])[H]

>  <smiles>  (44) 
[H]c1c([H])c([H])c2c(c1[H])C([H])([H])C([H])([H])C([H])([H])C2([H])N([H])C(=O)C1([H])N(C(=O)C([H])(N([H])C(=O)C([H])(N([H])C([H])([H])[H])C([H])([H])[H])C(C([H])([H])[H])(C([H])([H])[H])C([H])([H])[H])C([H])([H])c2c([H])c(OC([H])([H])C([H])([H])N([H])c3nc(C([H])([H])[H])c(C([H])([H])C([H])(N([H])C(=O)N4C([H])([H])C([H])([H])C([H])([H])C([H])(n5nc(-c6c([H])c([H])c(Oc7c([H])c([H])c(F)c([H])c7F)c([H])c6[H])c(C(=O)N([H])[H])c5N([H])[H])C4([H])[H])C([H])([H])[H])c(C([H])([H])[H])c3[H])c([H])c([H])c2C1([H])[H]

> <Step>
132.0

> <Scaffold>
O=C(NC1CCCc2ccccc21)C1Cc2ccc(OCCNc3ccc(CCNC(=O)N4CCCC(n5ccc(-c6ccc(Oc7ccccc7)cc6)n5)C4)cn3)cc2CN1

> <SMILES>
CNC(C)C(=O)NC(C(=O)N1Cc2cc(OCCNc3cc(C)c(CC(C)NC(=O)N4CCCC(n5nc(-c6ccc(Oc7ccc(F)cc7F)cc6)c(C(N)=O)c5N)C4)c(C)n3)ccc2CC1C(=O)NC1CCCc2ccccc21)C(C)(C)C

> <Tanimoto ROCS sim>
0.22685019671916962

> <Custom alerts>
1.0

> <Linker Num Aromatic Rings>
1.0

> <Linker Effective Length>
1.0

> <ADV>
0.9949092268943787

> <PostDock Tanimoto ROCS sim>
0.9919905066490173

> <raw_Linker Num Aromatic Rings>
1.0

> <raw_Linker Effective Length>
9.0

> <raw_ADV>
-14.163999557495117

> <total_score>
0.9967249631881714

> <ID>
default_job_43

> <PostDock Tanimoto ROCS sim (re-score)>
0.9853886

> <raw_ADV (re-score)>
-14.158

> <Final Intermolecular Energy>
-30.298

> <Final Total Internal Energy>
-3.087

> <Torsional Free Energy>
16.14

> <Unbound System's Energy>
-3.087

$$$$
default_job_44
     RDKit          3D

 92100  0  0  1  0  0  0  0  0999 V2000
  -29.3800  -21.8000   20.7640 C   0  0  0  0  0  0  0  0  0  0  0  0
  -29.7130  -23.0590   20.3930 N   0  0  0  0  0  0  0  0  0  0  0  0
  -28.4050  -21.5600   21.4770 O   0  0  0  0  0  0  0  0  0  0  0  0
  -30.5220  -23.1340   19.7890 H   0  0  0  0  0  0  0  0  0  0  0  0
  -30.3290  -20.6560   20.3140 C   0  0  0  0  0  2  0  0  0  0  0  0
  -30.4370  -18.1350   20.6110 C   0  0  0  0  0  0  0  0  0  0  0  0
  -28.4830  -17.4270   19.5240 C   0  0  0  0  0  2  0  0  0  0  0  0
  -28.6630  -18.9470   19.3730 C   0  0  0  0  0  2  0  0  0  0  0  0
  -29.8790  -16.8960   19.8850 C   0  0  0  0  0  3  0  0  0  0  0  0
  -29.8070  -19.2660   20.2170 N   0  0  0  0  0  0  0  0  0  0  0  0
  -31.4010  -18.0760   21.3790 O   0  0  0  0  0  0  0  0  0  0  0  0
  -30.6280  -14.5590   20.4110 C   0  0  0  0  0  0  0  0  0  0  0  0
  -30.3820  -12.3510   19.3500 C   0  0  0  0  0  2  0  0  0  0  0  0
  -29.4460  -12.5400   18.1350 C   0  0  0  0  0  2  0  0  0  0  0  0
  -27.9660  -12.4130   18.5520 C   0  0  0  0  0  2  0  0  0  0  0  0
  -27.6210  -13.2490   19.8130 C   0  0  0  0  0  3  0  0  0  0  0  0
  -28.6770  -13.0470   20.9270 C   0  0  0  0  0  2  0  0  0  0  0  0
  -30.0010  -13.3500   20.3620 N   0  0  0  0  0  0  0  0  0  0  0  0
  -31.7820  -14.7270   20.0050 O   0  0  0  0  0  0  0  0  0  0  0  0
  -29.8020  -15.6090   20.6210 N   0  0  0  0  0  0  0  0  0  0  0  0
  -28.9050  -15.3820   21.0230 H   0  0  0  0  0  0  0  0  0  0  0  0
  -25.2210  -13.8570   20.5130 C   0  0  0  0  0  0  0  0  0  0  0  0
  -24.1520  -13.0860   20.8850 C   0  0  0  0  0  0  0  0  0  0  0  0
  -24.6160  -11.7340   20.8630 C   0  0  0  0  0  0  0  0  0  0  0  0
  -26.2670  -12.9750   20.2890 N   0  0  0  0  0  0  0  0  0  0  0  0
  -25.9060  -11.6940   20.5580 N   0  0  0  0  0  0  0  0  0  0  0  0
  -23.8890  -10.4740   21.0560 C   0  0  0  0  0  0  0  0  0  0  0  0
  -24.3280   -9.5010   21.9810 C   0  0  0  0  0  3  0  0  0  0  0  0
  -23.6010   -8.3050   22.1620 C   0  0  0  0  0  3  0  0  0  0  0  0
  -22.4210   -8.0710   21.4180 C   0  0  0  0  0  0  0  0  0  0  0  0
  -22.0020   -9.0320   20.4810 C   0  0  0  0  0  3  0  0  0  0  0  0
  -22.7290  -10.2200   20.2980 C   0  0  0  0  0  3  0  0  0  0  0  0
  -21.6640   -6.9290   21.5100 O   0  0  0  0  0  0  0  0  0  0  0  0
  -21.6380   -6.1730   22.6550 C   0  0  0  0  0  0  0  0  0  0  0  0
  -21.2510   -6.7180   23.8990 C   0  0  0  0  0  3  0  0  0  0  0  0
  -21.1690   -5.8890   25.0360 C   0  0  0  0  0  3  0  0  0  0  0  0
  -21.4650   -4.5180   24.9310 C   0  0  0  0  0  0  0  0  0  0  0  0
  -21.8470   -3.9720   23.6920 C   0  0  0  0  0  3  0  0  0  0  0  0
  -21.9290   -4.7980   22.5580 C   0  0  0  0  0  0  0  0  0  0  0  0
  -22.2750   -4.2630   21.3620 F   0  0  0  0  0  0  0  0  0  0  0  0
  -21.3810   -3.7200   26.0210 F   0  0  0  0  0  0  0  0  0  0  0  0
  -22.7540  -13.5640   21.1500 C   0  0  0  0  0  0  0  0  0  0  0  0
  -22.0240  -12.8740   22.0180 N   0  0  0  0  0  0  0  0  0  0  0  0
  -22.3180  -14.5850   20.6220 O   0  0  0  0  0  0  0  0  0  0  0  0
  -22.3880  -12.0480   22.4690 H   0  0  0  0  0  0  0  0  0  0  0  0
  -21.0860  -13.1770   22.2370 H   0  0  0  0  0  0  0  0  0  0  0  0
  -25.3830  -15.2260   20.3250 N   0  0  0  0  0  0  0  0  0  0  0  0
  -24.6070  -15.8730   20.4160 H   0  0  0  0  0  0  0  0  0  0  0  0
  -26.2110  -15.6570   19.9370 H   0  0  0  0  0  0  0  0  0  0  0  0
  -29.1970  -24.3530   20.9060 C   0  0  0  0  0  2  0  0  0  0  0  0
  -28.3840  -25.2140   19.8890 C   0  0  0  0  0  2  0  0  0  0  0  0
  -28.3800  -26.6360   20.2170 O   0  0  0  0  0  0  0  0  0  0  0  0
  -24.5990  -31.8910   23.2530 C   0  0  0  0  0  0  0  0  0  0  0  0
  -27.2080  -27.3870   20.1700 C   0  0  0  0  0  0  0  0  0  0  0  0
  -23.3840  -30.4890   21.6230 C   0  0  0  0  0  3  0  0  0  0  0  0
  -24.8240  -28.9460   20.1890 C   0  0  0  0  0  0  0  0  0  0  0  0
  -25.9160  -30.8200   21.4240 C   0  0  0  0  0  2  0  0  0  0  0  0
  -25.9900  -29.4490   20.7780 C   0  0  0  0  0  0  0  0  0  0  0  0
  -27.1810  -28.6780   20.7620 C   0  0  0  0  0  3  0  0  0  0  0  0
  -26.0200  -26.9220   19.5540 C   0  0  0  0  0  3  0  0  0  0  0  0
  -24.8380  -27.6840   19.5730 C   0  0  0  0  0  3  0  0  0  0  0  0
  -23.5850  -29.8140   20.2410 C   0  0  0  0  0  2  0  0  0  0  0  0
  -24.6520  -31.0800   22.1590 N   0  0  0  0  0  0  0  0  0  0  0  0
  -23.5160  -32.1900   23.7730 O   0  0  0  0  0  0  0  0  0  0  0  0
  -22.7310  -29.4690   22.5840 C   0  0  0  0  0  0  0  0  0  0  0  0
  -21.4050  -29.2890   22.4600 N   0  0  0  0  0  0  0  0  0  0  0  0
  -23.4150  -28.8430   23.3980 O   0  0  0  0  0  0  0  0  0  0  0  0
  -20.9150  -29.8470   21.7750 H   0  0  0  0  0  0  0  0  0  0  0  0
  -18.0330  -28.0880   22.9600 C   0  0  0  0  0  0  0  0  0  0  0  0
  -20.5900  -28.3520   23.2330 C   0  0  0  0  0  3  0  0  0  0  0  0
  -20.6960  -26.9190   22.6630 C   0  0  0  0  0  2  0  0  0  0  0  0
  -19.5960  -26.5900   21.6480 C   0  0  0  0  0  2  0  0  0  0  0  0
  -18.2130  -26.7360   22.2890 C   0  0  0  0  0  2  0  0  0  0  0  0
  -19.1490  -28.8530   23.3890 C   0  0  0  0  0  0  0  0  0  0  0  0
  -18.9260  -30.1180   23.9760 C   0  0  0  0  0  3  0  0  0  0  0  0
  -17.6210  -30.6170   24.1380 C   0  0  0  0  0  3  0  0  0  0  0  0
  -16.5180  -29.8480   23.7240 C   0  0  0  0  0  3  0  0  0  0  0  0
  -16.7260  -28.5860   23.1400 C   0  0  0  0  0  3  0  0  0  0  0  0
  -25.8900  -32.5100   23.8770 C   0  0  0  0  0  3  0  0  0  0  0  0
  -26.4030  -31.7370   25.1530 C   0  0  1  0  0  0  0  0  0  0  0  0
  -25.3100  -31.5090   26.2240 C   0  0  0  0  0  1  0  0  0  0  0  0
  -26.9780  -30.3540   24.7630 C   0  0  0  0  0  1  0  0  0  0  0  0
  -27.5590  -32.5250   25.8140 C   0  0  0  0  0  1  0  0  0  0  0  0
  -25.5910  -33.9090   24.2070 N   0  0  0  0  0  0  0  0  0  0  0  0
  -25.9190  -34.9590   23.4410 C   0  0  0  0  0  0  0  0  0  0  0  0
  -26.5810  -34.8490   22.4050 O   0  0  0  0  0  0  0  0  0  0  0  0
  -25.0020  -34.0690   25.0110 H   0  0  0  0  0  0  0  0  0  0  0  0
  -24.1890  -36.7530   23.0980 C   0  0  0  0  0  1  0  0  0  0  0  0
  -25.4380  -36.3490   23.8980 C   0  0  0  0  0  3  0  0  0  0  0  0
  -27.5860  -37.2330   24.7000 C   0  0  0  0  0  1  0  0  0  0  0  0
  -26.4720  -37.4000   23.7700 N   0  0  0  0  0  0  0  0  0  0  0  0
  -26.0690  -38.3210   23.9190 H   0  0  0  0  0  0  0  0  0  0  0  0
  1  3  2  0
  2  1  1  0
  2 50  1  0
  4  2  1  0
  5  1  1  0
  6 11  2  0
  7  9  1  0
  8  7  1  0
  8 10  1  0
  9  6  1  0
  9 20  1  0
 10  5  1  0
 10  6  1  0
 12 20  1  0
 13 18  1  0
 14 15  1  0
 14 13  1  0
 16 15  1  0
 16 25  1  0
 16 17  1  0
 18 12  1  0
 18 17  1  0
 19 12  2  0
 20 21  1  0
 22 23  2  0
 23 42  1  0
 24 23  1  0
 24 27  1  0
 25 22  1  0
 25 26  1  0
 26 24  2  0
 27 28  1  0
 28 29  2  0
 30 33  1  0
 30 29  1  0
 31 30  2  0
 32 31  1  0
 32 27  2  0
 33 34  1  0
 34 35  1  0
 35 36  2  0
 37 36  1  0
 37 41  1  0
 38 37  2  0
 39 34  2  0
 39 38  1  0
 40 39  1  0
 42 43  1  0
 43 46  1  0
 43 45  1  0
 44 42  2  0
 47 48  1  0
 47 22  1  0
 49 47  1  0
 51 52  1  0
 51 50  1  0
 53 64  2  0
 54 52  1  0
 54 59  1  0
 55 63  1  0
 55 65  1  0
 56 62  1  0
 56 58  1  0
 57 63  1  0
 58 57  1  0
 59 58  2  0
 60 61  1  0
 60 54  2  0
 61 56  2  0
 62 55  1  0
 63 53  1  0
 65 67  2  0
 66 65  1  0
 68 66  1  0
 69 78  2  0
 69 74  1  0
 70 66  1  0
 70 74  1  0
 71 70  1  0
 72 73  1  0
 72 71  1  0
 73 69  1  0
 74 75  2  0
 75 76  1  0
 77 76  2  0
 78 77  1  0
 79 53  1  0
 79 84  1  0
 79 80  1  0
 80 83  1  1
 80 81  1  0
 82 80  1  0
 84 87  1  0
 85 89  1  0
 85 84  1  0
 86 85  2  0
 89 88  1  0
 91 89  1  0
 91 92  1  0
 91 90  1  0
M  ISO  4  12 100  20 100  51 101  52 101
M  END
>  <TORSDO>  (45) 
F 20

>  <SCORE>  (45) 
-14.106

>  <name>  (45) 
44

>  <ligand_id>  (45) 
44

>  <original_smiles>  (45) 
[H]c1c([H])c([H])c2c(c1[H])C([H])([H])C([H])([H])C([H])([H])C2([H])N([H])C(=O)C1([H])N(C(=O)C([H])(N([H])C(=O)C([H])(N([H])C([H])([H])[H])C([H])([H])[H])C(C([H])([H])[H])(C([H])([H])[H])C([H])([H])[H])C([H])([H])c2c([H])c(OC([H])([H])C([H])([H])N([H])C(=O)C([H])([H])N3C(=O)C([H])(N([H])C(=O)N4C([H])([H])C([H])([H])C([H])([H])C([H])(n5nc(-c6c([H])c([H])c(Oc7c([H])c([H])c(F)c([H])c7F)c([H])c6[H])c(C(=O)N([H])[H])c5N([H])[H])C4([H])[H])C([H])([H])C3([H])[H])c([H])c([H])c2C1([H])[H]

>  <smiles>  (45) 
[H]c1c([H])c([H])c2c(c1[H])C([H])([H])C([H])([H])C([H])([H])C2([H])N([H])C(=O)C1([H])N(C(=O)C([H])(N([H])C(=O)C([H])(N([H])C([H])([H])[H])C([H])([H])[H])C(C([H])([H])[H])(C([H])([H])[H])C([H])([H])[H])C([H])([H])c2c([H])c(OC([H])([H])C([H])([H])N([H])C(=O)C([H])([H])N3C(=O)C([H])(N([H])C(=O)N4C([H])([H])C([H])([H])C([H])([H])C([H])(n5nc(-c6c([H])c([H])c(Oc7c([H])c([H])c(F)c([H])c7F)c([H])c6[H])c(C(=O)N([H])[H])c5N([H])[H])C4([H])[H])C([H])([H])C3([H])[H])c([H])c([H])c2C1([H])[H]

> <Step>
196.0

> <Scaffold>
O=C(CN1CCC(NC(=O)N2CCCC(n3ccc(-c4ccc(Oc5ccccc5)cc4)n3)C2)C1=O)NCCOc1ccc2c(c1)CNC(C(=O)NC1CCCc3ccccc31)C2

> <SMILES>
CNC(C)C(=O)NC(C(=O)N1Cc2cc(OCCNC(=O)CN3CCC(NC(=O)N4CCCC(n5nc(-c6ccc(Oc7ccc(F)cc7F)cc6)c(C(N)=O)c5N)C4)C3=O)ccc2CC1C(=O)NC1CCCc2ccccc21)C(C)(C)C

> <Tanimoto ROCS sim>
0.17521880567073822

> <Custom alerts>
1.0

> <Linker Num Aromatic Rings>
1.0

> <Linker Effective Length>
1.0

> <ADV>
0.9949237704277039

> <PostDock Tanimoto ROCS sim>
0.991972804069519

> <raw_Linker Num Aromatic Rings>
0.0

> <raw_Linker Effective Length>
8.0

> <raw_ADV>
-14.168999671936035

> <total_score>
0.9967241287231445

> <ID>
default_job_44

> <PostDock Tanimoto ROCS sim (re-score)>
0.9845654

> <raw_ADV (re-score)>
-14.106

> <Final Intermolecular Energy>
-30.186

> <Final Total Internal Energy>
-2.969

> <Torsional Free Energy>
16.08

> <Unbound System's Energy>
-2.969

$$$$
default_job_45
     RDKit          3D

 93101  0  0  1  0  0  0  0  0999 V2000
  -27.5850  -20.9210   18.3950 C   0  0  0  0  0  3  0  0  0  0  0  0
  -28.1060  -19.8970   19.2030 C   0  0  0  0  0  3  0  0  0  0  0  0
  -28.2220  -22.1740   18.3940 C   0  0  0  0  0  3  0  0  0  0  0  0
  -29.2370  -20.1610   20.0000 C   0  0  0  0  0  0  0  0  0  0  0  0
  -29.3390  -22.3610   19.2220 C   0  0  0  0  0  0  0  0  0  0  0  0
  -29.8250  -21.3820   20.0240 N   0  0  0  0  0  0  0  0  0  0  0  0
  -29.8330  -19.1720   20.8000 N   0  0  0  0  0  0  0  0  0  0  0  0
  -30.6980  -19.4130   21.2720 H   0  0  0  0  0  0  0  0  0  0  0  0
  -30.0450  -23.5660   19.1700 N   0  0  0  0  0  0  0  0  0  0  0  0
  -30.0220  -23.9580   18.2340 H   0  0  0  0  0  0  0  0  0  0  0  0
  -29.6480  -24.6060   20.1200 C   0  0  0  0  0  2  0  0  0  0  0  0
  -28.3920  -25.3880   19.6740 C   0  0  0  0  0  2  0  0  0  0  0  0
  -28.3790  -26.7180   20.2080 O   0  0  0  0  0  0  0  0  0  0  0  0
  -24.5820  -31.9190   23.2420 C   0  0  0  0  0  0  0  0  0  0  0  0
  -27.1980  -27.4370   20.1740 C   0  0  0  0  0  0  0  0  0  0  0  0
  -23.3660  -30.5120   21.6130 C   0  0  0  0  0  3  0  0  0  0  0  0
  -24.8080  -28.9630   20.1910 C   0  0  0  0  0  0  0  0  0  0  0  0
  -25.8960  -30.8500   21.4170 C   0  0  0  0  0  2  0  0  0  0  0  0
  -25.9690  -29.4770   20.7790 C   0  0  0  0  0  0  0  0  0  0  0  0
  -27.1640  -28.7200   20.7700 C   0  0  0  0  0  3  0  0  0  0  0  0
  -26.0120  -26.9430   19.5760 C   0  0  0  0  0  3  0  0  0  0  0  0
  -24.8230  -27.6940   19.5920 C   0  0  0  0  0  3  0  0  0  0  0  0
  -23.5700  -29.8280   20.2360 C   0  0  0  0  0  2  0  0  0  0  0  0
  -24.6340  -31.1050   22.1510 N   0  0  0  0  0  0  0  0  0  0  0  0
  -23.4980  -32.2220   23.7610 O   0  0  0  0  0  0  0  0  0  0  0  0
  -22.7090  -29.4970   22.5770 C   0  0  0  0  0  0  0  0  0  0  0  0
  -21.3850  -29.3180   22.4480 N   0  0  0  0  0  0  0  0  0  0  0  0
  -23.3900  -28.8730   23.3950 O   0  0  0  0  0  0  0  0  0  0  0  0
  -20.8980  -29.8740   21.7590 H   0  0  0  0  0  0  0  0  0  0  0  0
  -18.0040  -28.1460   22.9480 C   0  0  0  0  0  0  0  0  0  0  0  0
  -20.5630  -28.3860   23.2190 C   0  0  0  0  0  3  0  0  0  0  0  0
  -20.6540  -26.9540   22.6440 C   0  0  0  0  0  2  0  0  0  0  0  0
  -19.5510  -26.6380   21.6310 C   0  0  0  0  0  2  0  0  0  0  0  0
  -18.1700  -26.7940   22.2750 C   0  0  0  0  0  2  0  0  0  0  0  0
  -19.1280  -28.9000   23.3770 C   0  0  0  0  0  0  0  0  0  0  0  0
  -18.9180  -30.1660   23.9650 C   0  0  0  0  0  3  0  0  0  0  0  0
  -17.6170  -30.6790   24.1290 C   0  0  0  0  0  3  0  0  0  0  0  0
  -16.5080  -29.9210   23.7180 C   0  0  0  0  0  3  0  0  0  0  0  0
  -16.7010  -28.6560   23.1330 C   0  0  0  0  0  3  0  0  0  0  0  0
  -25.8740  -32.5340   23.8680 C   0  0  0  0  0  3  0  0  0  0  0  0
  -25.5780  -33.9330   24.1980 N   0  0  0  0  0  0  0  0  0  0  0  0
  -25.9120  -34.9810   23.4330 C   0  0  0  0  0  0  0  0  0  0  0  0
  -26.5750  -34.8710   22.3990 O   0  0  0  0  0  0  0  0  0  0  0  0
  -24.9890  -34.0930   25.0020 H   0  0  0  0  0  0  0  0  0  0  0  0
  -24.1920  -36.7810   23.0780 C   0  0  0  0  0  1  0  0  0  0  0  0
  -25.4320  -36.3720   23.8890 C   0  0  0  0  0  3  0  0  0  0  0  0
  -27.5720  -37.2470   24.7150 C   0  0  0  0  0  1  0  0  0  0  0  0
  -26.4710  -37.4190   23.7720 N   0  0  0  0  0  0  0  0  0  0  0  0
  -26.0710  -38.3410   23.9190 H   0  0  0  0  0  0  0  0  0  0  0  0
  -26.3880  -31.7580   25.1430 C   0  0  1  0  0  0  0  0  0  0  0  0
  -25.2930  -31.5270   26.2090 C   0  0  0  0  0  1  0  0  0  0  0  0
  -26.9630  -30.3770   24.7490 C   0  0  0  0  0  1  0  0  0  0  0  0
  -27.5430  -32.5450   25.8050 C   0  0  0  0  0  1  0  0  0  0  0  0
  -29.5580  -17.7540   20.5490 C   0  0  0  0  0  2  0  0  0  0  0  0
  -30.3820  -16.8070   21.4510 C   0  0  0  0  0  2  0  0  0  0  0  0
  -30.6680  -14.4680   20.5580 C   0  0  0  0  0  0  0  0  0  0  0  0
  -30.3810  -12.3430   19.3340 C   0  0  0  0  0  2  0  0  0  0  0  0
  -29.4240  -12.5630   18.1440 C   0  0  0  0  0  2  0  0  0  0  0  0
  -27.9550  -12.4060   18.5810 C   0  0  0  0  0  2  0  0  0  0  0  0
  -27.6230  -13.2150   19.8630 C   0  0  0  0  0  3  0  0  0  0  0  0
  -28.6840  -12.9620   20.9580 C   0  0  0  0  0  2  0  0  0  0  0  0
  -30.0060  -13.2910   20.3940 N   0  0  0  0  0  0  0  0  0  0  0  0
  -31.7570  -14.7100   20.0280 O   0  0  0  0  0  0  0  0  0  0  0  0
  -30.0020  -15.4030   21.2560 N   0  0  0  0  0  0  0  0  0  0  0  0
  -29.1220  -15.1090   21.6520 H   0  0  0  0  0  0  0  0  0  0  0  0
  -25.2220  -13.8060   20.5730 C   0  0  0  0  0  0  0  0  0  0  0  0
  -24.1590  -13.0240   20.9420 C   0  0  0  0  0  0  0  0  0  0  0  0
  -24.6270  -11.6760   20.9030 C   0  0  0  0  0  0  0  0  0  0  0  0
  -26.2710  -12.9310   20.3390 N   0  0  0  0  0  0  0  0  0  0  0  0
  -25.9170  -11.6450   20.5920 N   0  0  0  0  0  0  0  0  0  0  0  0
  -23.9100  -10.4080   21.0880 C   0  0  0  0  0  0  0  0  0  0  0  0
  -24.3580   -9.4360   22.0090 C   0  0  0  0  0  3  0  0  0  0  0  0
  -23.6430   -8.2320   22.1830 C   0  0  0  0  0  3  0  0  0  0  0  0
  -22.4660   -7.9920   21.4360 C   0  0  0  0  0  0  0  0  0  0  0  0
  -22.0360   -8.9540   20.5050 C   0  0  0  0  0  3  0  0  0  0  0  0
  -22.7510  -10.1490   20.3290 C   0  0  0  0  0  3  0  0  0  0  0  0
  -21.7210   -6.8400   21.5190 O   0  0  0  0  0  0  0  0  0  0  0  0
  -21.6950   -6.0800   22.6610 C   0  0  0  0  0  0  0  0  0  0  0  0
  -21.2740   -6.6130   23.8990 C   0  0  0  0  0  3  0  0  0  0  0  0
  -21.1950   -5.7810   25.0340 C   0  0  0  0  0  3  0  0  0  0  0  0
  -21.5270   -4.4160   24.9310 C   0  0  0  0  0  0  0  0  0  0  0  0
  -21.9410   -3.8820   23.6970 C   0  0  0  0  0  3  0  0  0  0  0  0
  -22.0220   -4.7130   22.5660 C   0  0  0  0  0  0  0  0  0  0  0  0
  -22.4000   -4.1900   21.3740 F   0  0  0  0  0  0  0  0  0  0  0  0
  -21.4440   -3.6150   26.0170 F   0  0  0  0  0  0  0  0  0  0  0  0
  -22.7590  -13.4910   21.2220 C   0  0  0  0  0  0  0  0  0  0  0  0
  -22.0400  -12.7850   22.0890 N   0  0  0  0  0  0  0  0  0  0  0  0
  -22.3110  -14.5150   20.7100 O   0  0  0  0  0  0  0  0  0  0  0  0
  -22.4150  -11.9570   22.5250 H   0  0  0  0  0  0  0  0  0  0  0  0
  -21.1020  -13.0800   22.3200 H   0  0  0  0  0  0  0  0  0  0  0  0
  -25.3770  -15.1770   20.4010 N   0  0  0  0  0  0  0  0  0  0  0  0
  -24.6050  -15.8260   20.5100 H   0  0  0  0  0  0  0  0  0  0  0  0
  -26.2230  -15.6230   20.0690 H   0  0  0  0  0  0  0  0  0  0  0  0
  1  2  1  0
  2  4  2  0
  3  1  2  0
  3  5  1  0
  4  6  1  0
  4  7  1  0
  5  6  2  0
  7  8  1  0
  9  5  1  0
  9 11  1  0
 10  9  1  0
 12 11  1  0
 12 13  1  0
 14 25  2  0
 15 13  1  0
 15 20  1  0
 16 24  1  0
 16 26  1  0
 17 23  1  0
 17 19  1  0
 18 24  1  0
 19 18  1  0
 20 19  2  0
 21 22  1  0
 21 15  2  0
 22 17  2  0
 23 16  1  0
 24 14  1  0
 26 28  2  0
 27 26  1  0
 29 27  1  0
 30 39  2  0
 30 35  1  0
 31 27  1  0
 31 35  1  0
 32 31  1  0
 33 34  1  0
 33 32  1  0
 34 30  1  0
 35 36  2  0
 36 37  1  0
 38 37  2  0
 39 38  1  0
 40 14  1  0
 40 41  1  0
 40 50  1  0
 41 44  1  0
 42 46  1  0
 42 41  1  0
 43 42  2  0
 46 45  1  0
 48 46  1  0
 48 49  1  0
 48 47  1  0
 50 53  1  1
 50 51  1  0
 52 50  1  0
 54  7  1  0
 54 55  1  0
 56 64  1  0
 57 62  1  0
 58 59  1  0
 58 57  1  0
 60 59  1  0
 60 69  1  0
 60 61  1  0
 62 56  1  0
 62 61  1  0
 63 56  2  0
 64 55  1  0
 64 65  1  0
 66 67  2  0
 67 86  1  0
 68 67  1  0
 68 71  1  0
 69 66  1  0
 69 70  1  0
 70 68  2  0
 71 72  1  0
 72 73  2  0
 74 77  1  0
 74 73  1  0
 75 74  2  0
 76 75  1  0
 76 71  2  0
 77 78  1  0
 78 79  1  0
 79 80  2  0
 81 80  1  0
 81 85  1  0
 82 81  2  0
 83 78  2  0
 83 82  1  0
 84 83  1  0
 86 87  1  0
 87 90  1  0
 87 89  1  0
 88 86  2  0
 91 92  1  0
 91 66  1  0
 93 91  1  0
M  ISO  4  12 101  13 101  56 100  64 100
M  END
>  <TORSDO>  (46) 
F 21

>  <SCORE>  (46) 
-13.719

>  <name>  (46) 
45

>  <ligand_id>  (46) 
45

>  <original_smiles>  (46) 
[H]c1c(N([H])C([H])([H])C([H])([H])Oc2c([H])c([H])c3c(c2[H])C([H])([H])N(C(=O)C([H])(N([H])C(=O)C([H])(N([H])C([H])([H])[H])C([H])([H])[H])C(C([H])([H])[H])(C([H])([H])[H])C([H])([H])[H])C([H])(C(=O)N([H])C2([H])c4c([H])c([H])c([H])c([H])c4C([H])([H])C([H])([H])C2([H])[H])C3([H])[H])nc(N([H])C([H])([H])C([H])([H])N([H])C(=O)N2C([H])([H])C([H])([H])C([H])([H])C([H])(n3nc(-c4c([H])c([H])c(Oc5c([H])c([H])c(F)c([H])c5F)c([H])c4[H])c(C(=O)N([H])[H])c3N([H])[H])C2([H])[H])c([H])c1[H]

>  <smiles>  (46) 
[H]c1c(N([H])C([H])([H])C([H])([H])Oc2c([H])c([H])c3c(c2[H])C([H])([H])N(C(=O)C([H])(N([H])C(=O)C([H])(N([H])C([H])([H])[H])C([H])([H])[H])C(C([H])([H])[H])(C([H])([H])[H])C([H])([H])[H])C([H])(C(=O)N([H])C2([H])c4c([H])c([H])c([H])c([H])c4C([H])([H])C([H])([H])C2([H])[H])C3([H])[H])nc(N([H])C([H])([H])C([H])([H])N([H])C(=O)N2C([H])([H])C([H])([H])C([H])([H])C([H])(n3nc(-c4c([H])c([H])c(Oc5c([H])c([H])c(F)c([H])c5F)c([H])c4[H])c(C(=O)N([H])[H])c3N([H])[H])C2([H])[H])c([H])c1[H]

> <Step>
129.0

> <Scaffold>
O=C(NC1CCCc2ccccc21)C1Cc2ccc(OCCNc3cccc(NCCNC(=O)N4CCCC(n5ccc(-c6ccc(Oc7ccccc7)cc6)n5)C4)n3)cc2CN1

> <SMILES>
CNC(C)C(=O)NC(C(=O)N1Cc2cc(OCCNc3cccc(NCCNC(=O)N4CCCC(n5nc(-c6ccc(Oc7ccc(F)cc7F)cc6)c(C(N)=O)c5N)C4)n3)ccc2CC1C(=O)NC1CCCc2ccccc21)C(C)(C)C

> <Tanimoto ROCS sim>
0.2258884161710739

> <Custom alerts>
1.0

> <Linker Num Aromatic Rings>
1.0

> <Linker Effective Length>
1.0

> <ADV>
0.9935628175735474

> <PostDock Tanimoto ROCS sim>
0.9932143688201904

> <raw_Linker Num Aromatic Rings>
1.0

> <raw_Linker Effective Length>
9.0

> <raw_ADV>
-13.753999710083008

> <total_score>
0.9966942667961121

> <ID>
default_job_45

> <PostDock Tanimoto ROCS sim (re-score)>
0.98726726

> <raw_ADV (re-score)>
-13.719

> <Final Intermolecular Energy>
-30.161

> <Final Total Internal Energy>
-2.767

> <Torsional Free Energy>
16.442

> <Unbound System's Energy>
-2.767

$$$$
default_job_46
     RDKit          3D

100110  0  0  1  0  0  0  0  0999 V2000
  -29.3500  -23.1220   19.3050 C   0  0  0  0  0  3  0  0  0  0  0  0
  -31.7170  -23.7440   20.6400 C   0  0  0  0  0  3  0  0  0  0  0  0
  -29.4520  -24.3680   19.9630 C   0  0  0  0  0  0  0  0  0  0  0  0
  -30.4150  -22.1970   19.2750 C   0  0  0  0  0  0  0  0  0  0  0  0
  -30.6460  -24.6690   20.6630 C   0  0  0  0  0  0  0  0  0  0  0  0
  -31.6230  -22.5150   19.9360 C   0  0  0  0  0  0  0  0  0  0  0  0
  -30.8140  -25.9600   21.4480 C   0  0  0  0  0  1  0  0  0  0  0  0
  -33.9350  -21.9830   20.3210 C   0  0  0  0  0  1  0  0  0  0  0  0
  -32.6490  -21.5960   19.8560 O   0  0  0  0  0  0  0  0  0  0  0  0
  -28.2140  -25.2660   19.8950 C   0  0  0  0  0  2  0  0  0  0  0  0
  -28.3750  -26.6760   20.1220 O   0  0  0  0  0  0  0  0  0  0  0  0
  -24.6270  -31.8880   23.2420 C   0  0  0  0  0  0  0  0  0  0  0  0
  -27.2040  -27.4190   20.1230 C   0  0  0  0  0  0  0  0  0  0  0  0
  -23.3940  -30.4880   21.6230 C   0  0  0  0  0  3  0  0  0  0  0  0
  -24.8190  -28.9510   20.1780 C   0  0  0  0  0  0  0  0  0  0  0  0
  -25.9230  -30.8270   21.3970 C   0  0  0  0  0  2  0  0  0  0  0  0
  -25.9910  -29.4590   20.7520 C   0  0  0  0  0  0  0  0  0  0  0  0
  -27.1860  -28.7000   20.7210 C   0  0  0  0  0  3  0  0  0  0  0  0
  -26.0020  -26.9330   19.5450 C   0  0  0  0  0  3  0  0  0  0  0  0
  -24.8200  -27.6860   19.5740 C   0  0  0  0  0  3  0  0  0  0  0  0
  -23.5820  -29.8150   20.2390 C   0  0  0  0  0  2  0  0  0  0  0  0
  -24.6680  -31.0780   22.1470 N   0  0  0  0  0  0  0  0  0  0  0  0
  -23.5490  -32.1890   23.7730 O   0  0  0  0  0  0  0  0  0  0  0  0
  -22.7500  -29.4660   22.5880 C   0  0  0  0  0  0  0  0  0  0  0  0
  -21.4260  -29.2760   22.4630 N   0  0  0  0  0  0  0  0  0  0  0  0
  -23.4380  -28.8460   23.4030 O   0  0  0  0  0  0  0  0  0  0  0  0
  -20.9320  -29.8300   21.7750 H   0  0  0  0  0  0  0  0  0  0  0  0
  -18.0590  -28.0620   22.9570 C   0  0  0  0  0  0  0  0  0  0  0  0
  -20.6130  -28.3400   23.2390 C   0  0  0  0  0  3  0  0  0  0  0  0
  -20.7290  -26.9050   22.6770 C   0  0  0  0  0  2  0  0  0  0  0  0
  -19.6350  -26.5640   21.6600 C   0  0  0  0  0  2  0  0  0  0  0  0
  -18.2480  -26.7070   22.2950 C   0  0  0  0  0  2  0  0  0  0  0  0
  -19.1700  -28.8350   23.3850 C   0  0  0  0  0  0  0  0  0  0  0  0
  -18.9400  -30.1030   23.9620 C   0  0  0  0  0  3  0  0  0  0  0  0
  -17.6310  -30.5980   24.1150 C   0  0  0  0  0  3  0  0  0  0  0  0
  -16.5350  -29.8210   23.7030 C   0  0  0  0  0  3  0  0  0  0  0  0
  -16.7490  -28.5550   23.1310 C   0  0  0  0  0  3  0  0  0  0  0  0
  -25.9250  -32.5020   23.8540 C   0  0  0  0  0  3  0  0  0  0  0  0
  -25.6290  -33.8960   24.2030 N   0  0  0  0  0  0  0  0  0  0  0  0
  -25.9380  -34.9520   23.4380 C   0  0  0  0  0  0  0  0  0  0  0  0
  -26.5780  -34.8540   22.3880 O   0  0  0  0  0  0  0  0  0  0  0  0
  -25.0580  -34.0470   25.0210 H   0  0  0  0  0  0  0  0  0  0  0  0
  -24.1930  -36.7380   23.1420 C   0  0  0  0  0  1  0  0  0  0  0  0
  -25.4600  -36.3370   23.9140 C   0  0  0  0  0  3  0  0  0  0  0  0
  -27.6180  -37.2220   24.6800 C   0  0  0  0  0  1  0  0  0  0  0  0
  -26.4860  -37.3920   23.7720 N   0  0  0  0  0  0  0  0  0  0  0  0
  -26.0830  -38.3110   23.9370 H   0  0  0  0  0  0  0  0  0  0  0  0
  -26.4600  -31.7130   25.1120 C   0  0  1  0  0  0  0  0  0  0  0  0
  -25.3830  -31.4690   26.1940 C   0  0  0  0  0  1  0  0  0  0  0  0
  -27.0300  -30.3380   24.6950 C   0  0  0  0  0  1  0  0  0  0  0  0
  -27.6250  -32.4960   25.7640 C   0  0  0  0  0  1  0  0  0  0  0  0
  -30.2650  -20.9300   18.4190 C   0  0  0  0  0  3  0  0  0  0  0  0
  -30.1770  -18.0330   21.0420 C   0  0  0  0  0  2  0  0  0  0  0  0
  -30.7860  -17.1160   18.8240 C   0  0  0  0  0  2  0  0  0  0  0  0
  -29.8910  -19.4160   20.3880 C   0  0  0  0  0  2  0  0  0  0  0  0
  -30.4990  -18.4770   18.1700 C   0  0  0  0  0  2  0  0  0  0  0  0
  -29.8820  -16.8970   20.0500 C   0  0  0  0  0  3  0  0  0  0  0  0
  -30.6260  -19.6410   19.1030 N   0  0  1  0  0  4  0  0  0  0  0  0
  -31.6040  -19.7340   19.3440 H   0  0  0  0  0  0  0  0  0  0  0  0
  -30.6600  -14.4830   20.3660 C   0  0  0  0  0  0  0  0  0  0  0  0
  -30.3680  -12.3050   19.2750 C   0  0  0  0  0  2  0  0  0  0  0  0
  -29.4270  -12.5170   18.0690 C   0  0  0  0  0  2  0  0  0  0  0  0
  -27.9540  -12.3790   18.5010 C   0  0  0  0  0  2  0  0  0  0  0  0
  -27.6150  -13.2230   19.7590 C   0  0  0  0  0  3  0  0  0  0  0  0
  -28.6740  -13.0160   20.8690 C   0  0  0  0  0  2  0  0  0  0  0  0
  -30.0020  -13.2970   20.2970 N   0  0  0  0  0  0  0  0  0  0  0  0
  -31.8140  -14.6340   19.9580 O   0  0  0  0  0  0  0  0  0  0  0  0
  -29.8630  -15.5360   20.6330 N   0  0  0  0  0  0  0  0  0  0  0  0
  -28.9750  -15.2640   21.0270 H   0  0  0  0  0  0  0  0  0  0  0  0
  -25.2170  -13.8350   20.4650 C   0  0  0  0  0  0  0  0  0  0  0  0
  -24.1490  -13.0640   20.8410 C   0  0  0  0  0  0  0  0  0  0  0  0
  -24.6110  -11.7120   20.8170 C   0  0  0  0  0  0  0  0  0  0  0  0
  -26.2620  -12.9520   20.2400 N   0  0  0  0  0  0  0  0  0  0  0  0
  -25.9010  -11.6710   20.5100 N   0  0  0  0  0  0  0  0  0  0  0  0
  -23.8860  -10.4500   21.0150 C   0  0  0  0  0  0  0  0  0  0  0  0
  -24.3250   -9.4870   21.9510 C   0  0  0  0  0  3  0  0  0  0  0  0
  -23.6020   -8.2890   22.1360 C   0  0  0  0  0  3  0  0  0  0  0  0
  -22.4280   -8.0470   21.3870 C   0  0  0  0  0  0  0  0  0  0  0  0
  -22.0070   -8.9990   20.4410 C   0  0  0  0  0  3  0  0  0  0  0  0
  -22.7300  -10.1890   20.2540 C   0  0  0  0  0  3  0  0  0  0  0  0
  -21.6760   -6.9000   21.4810 O   0  0  0  0  0  0  0  0  0  0  0  0
  -21.6370   -6.1570   22.6340 C   0  0  0  0  0  0  0  0  0  0  0  0
  -21.2190   -6.7110   23.8630 C   0  0  0  0  0  3  0  0  0  0  0  0
  -21.1280   -5.8960   25.0080 C   0  0  0  0  0  3  0  0  0  0  0  0
  -21.4440   -4.5270   24.9250 C   0  0  0  0  0  0  0  0  0  0  0  0
  -21.8540   -3.9710   23.7010 C   0  0  0  0  0  3  0  0  0  0  0  0
  -21.9470   -4.7850   22.5580 C   0  0  0  0  0  0  0  0  0  0  0  0
  -22.3230   -4.2400   21.3740 F   0  0  0  0  0  0  0  0  0  0  0  0
  -21.3470   -3.7400   26.0230 F   0  0  0  0  0  0  0  0  0  0  0  0
  -22.7510  -13.5420   21.1100 C   0  0  0  0  0  0  0  0  0  0  0  0
  -22.0220  -12.8520   21.9800 N   0  0  0  0  0  0  0  0  0  0  0  0
  -22.3120  -14.5650   20.5850 O   0  0  0  0  0  0  0  0  0  0  0  0
  -22.3880  -12.0260   22.4290 H   0  0  0  0  0  0  0  0  0  0  0  0
  -21.0850  -13.1570   22.2000 H   0  0  0  0  0  0  0  0  0  0  0  0
  -25.3810  -15.2040   20.2780 N   0  0  0  0  0  0  0  0  0  0  0  0
  -24.6120  -15.8590   20.3790 H   0  0  0  0  0  0  0  0  0  0  0  0
  -26.2250  -15.6380   19.9280 H   0  0  0  0  0  0  0  0  0  0  0  0
  -30.4360  -20.7970   15.7640 C   0  0  0  0  0  2  0  0  0  0  0  0
  -30.6230  -22.2400   16.1530 C   0  0  0  0  0  2  0  0  0  0  0  0
  -31.0350  -21.1410   17.1140 C   0  0  0  0  0  3  0  0  0  0  0  0
  1  3  1  0
  2  5  1  0
  3  5  2  0
  4  1  2  0
  4  6  1  0
  5  7  1  0
  6  2  2  0
  9  6  1  0
  9  8  1  0
 10  3  1  0
 10 11  1  0
 11 13  1  0
 12 23  2  0
 13 18  1  0
 14 22  1  0
 14 24  1  0
 15 21  1  0
 15 17  1  0
 16 22  1  0
 17 16  1  0
 18 17  2  0
 19 20  1  0
 19 13  2  0
 20 15  2  0
 21 14  1  0
 22 12  1  0
 24 26  2  0
 25 24  1  0
 27 25  1  0
 28 37  2  0
 28 33  1  0
 29 25  1  0
 29 33  1  0
 30 29  1  0
 31 32  1  0
 31 30  1  0
 32 28  1  0
 33 34  2  0
 34 35  1  0
 36 35  2  0
 37 36  1  0
 38 12  1  0
 38 39  1  0
 38 48  1  0
 39 42  1  0
 40 44  1  0
 40 39  1  0
 41 40  2  0
 44 43  1  0
 46 44  1  0
 46 47  1  0
 46 45  1  0
 48 51  1  1
 48 49  1  0
 50 48  1  0
 52100  1  0
 52 58  1  0
 52  4  1  0
 54 57  1  0
 55 53  1  0
 56 54  1  0
 56 58  1  0
 57 68  1  0
 57 53  1  0
 58 59  1  1
 58 55  1  0
 60 68  1  0
 61 66  1  0
 62 63  1  0
 62 61  1  0
 64 63  1  0
 64 73  1  0
 64 65  1  0
 66 60  1  0
 66 65  1  0
 67 60  2  0
 68 69  1  0
 70 71  2  0
 71 90  1  0
 72 71  1  0
 72 75  1  0
 73 70  1  0
 73 74  1  0
 74 72  2  0
 75 76  1  0
 76 77  2  0
 78 81  1  0
 78 77  1  0
 79 78  2  0
 80 79  1  0
 80 75  2  0
 81 82  1  0
 82 83  1  0
 83 84  2  0
 85 84  1  0
 85 89  1  0
 86 85  2  0
 87 82  2  0
 87 86  1  0
 88 87  1  0
 90 91  1  0
 91 94  1  0
 91 93  1  0
 92 90  2  0
 95 96  1  0
 95 70  1  0
 97 95  1  0
 98 99  1  0
 98100  1  0
 99100  1  0
M  ISO  4  10 101  11 101  60 100  68 100
M  END
>  <TORSDO>  (47) 
F 21

>  <SCORE>  (47) 
-13.665

>  <name>  (47) 
46

>  <ligand_id>  (47) 
46

>  <original_smiles>  (47) 
[H]c1c([H])c([H])c2c(c1[H])C([H])([H])C([H])([H])C([H])([H])C2([H])N([H])C(=O)C1([H])N(C(=O)C([H])(N([H])C(=O)C([H])(N([H])C([H])([H])[H])C([H])([H])[H])C(C([H])([H])[H])(C([H])([H])[H])C([H])([H])[H])C([H])([H])c2c([H])c(OC([H])([H])c3c([H])c(C([H])(C4([H])C([H])([H])C4([H])[H])[N+]4([H])C([H])([H])C([H])([H])C([H])(N([H])C(=O)N5C([H])([H])C([H])([H])C([H])([H])C([H])(n6nc(-c7c([H])c([H])c(Oc8c([H])c([H])c(F)c([H])c8F)c([H])c7[H])c(C(=O)N([H])[H])c6N([H])[H])C5([H])[H])C([H])([H])C4([H])[H])c(OC([H])([H])[H])c([H])c3C([H])([H])[H])c([H])c([H])c2C1([H])[H]

>  <smiles>  (47) 
[H]c1c([H])c([H])c2c(c1[H])C([H])([H])C([H])([H])C([H])([H])C2([H])N([H])C(=O)C1([H])N(C(=O)C([H])(N([H])C(=O)C([H])(N([H])C([H])([H])[H])C([H])([H])[H])C(C([H])([H])[H])(C([H])([H])[H])C([H])([H])[H])C([H])([H])c2c([H])c(OC([H])([H])c3c([H])c(C([H])(C4([H])C([H])([H])C4([H])[H])[N+]4([H])C([H])([H])C([H])([H])C([H])(N([H])C(=O)N5C([H])([H])C([H])([H])C([H])([H])C([H])(n6nc(-c7c([H])c([H])c(Oc8c([H])c([H])c(F)c([H])c8F)c([H])c7[H])c(C(=O)N([H])[H])c6N([H])[H])C5([H])[H])C([H])([H])C4([H])[H])c(OC([H])([H])[H])c([H])c3C([H])([H])[H])c([H])c([H])c2C1([H])[H]

> <Step>
159.0

> <Scaffold>
O=C(NC1CCCc2ccccc21)C1Cc2ccc(OCc3cccc(C(C4CC4)N4CCC(NC(=O)N5CCCC(n6ccc(-c7ccc(Oc8ccccc8)cc7)n6)C5)CC4)c3)cc2CN1

> <SMILES>
CNC(C)C(=O)NC(C(=O)N1Cc2cc(OCc3cc(C(C4CC4)N4CCC(NC(=O)N5CCCC(n6nc(-c7ccc(Oc8ccc(F)cc8F)cc7)c(C(N)=O)c6N)C5)CC4)c(OC)cc3C)ccc2CC1C(=O)NC1CCCc2ccccc21)C(C)(C)C

> <Tanimoto ROCS sim>
0.30203497409820557

> <Custom alerts>
1.0

> <Linker Num Aromatic Rings>
1.0

> <Linker Effective Length>
1.0

> <ADV>
0.993319034576416

> <PostDock Tanimoto ROCS sim>
0.9934341311454773

> <raw_Linker Num Aromatic Rings>
1.0

> <raw_Linker Effective Length>
9.0

> <raw_ADV>
-13.689000129699707

> <total_score>
0.9966883063316345

> <ID>
default_job_46

> <PostDock Tanimoto ROCS sim (re-score)>
0.9841897

> <raw_ADV (re-score)>
-13.665

> <Final Intermolecular Energy>
-30.042

> <Final Total Internal Energy>
-2.944

> <Torsional Free Energy>
16.377

> <Unbound System's Energy>
-2.944

$$$$
default_job_47
     RDKit          3D

 99109  0  0  1  0  0  0  0  0999 V2000
  -29.9140  -21.6550   19.8050 C   0  0  0  0  0  0  0  0  0  0  0  0
  -29.0990  -22.7580   19.3330 C   0  0  0  0  0  0  0  0  0  0  0  0
  -29.0360  -23.9980   20.0600 C   0  0  0  0  0  0  0  0  0  0  0  0
  -30.5490  -21.8700   21.0610 C   0  0  0  0  0  0  0  0  0  0  0  0
  -29.7520  -24.0570   21.2690 C   0  0  0  0  0  0  0  0  0  0  0  0
  -28.2380  -22.6330   18.0710 C   0  0  0  0  0  1  0  0  0  0  0  0
  -31.3770  -20.8610   21.8300 C   0  0  0  0  0  1  0  0  0  0  0  0
  -29.7400  -25.2460   22.2100 C   0  0  0  0  0  1  0  0  0  0  0  0
  -30.4730  -23.0270   21.7360 N   0  0  0  0  0  0  0  0  0  0  0  0
  -30.8700  -20.7010   17.6430 C   0  0  0  0  0  2  0  0  0  0  0  0
  -31.3580  -19.3900   17.0610 C   0  0  0  0  0  2  0  0  0  0  0  0
  -30.1120  -20.3500   18.9300 C   0  0  0  0  0  3  0  0  0  0  0  0
  -30.8180  -18.9910   19.4220 C   0  0  0  0  0  3  0  0  0  0  0  0
  -32.8000  -17.8500   18.3640 C   0  0  0  0  0  1  0  0  0  0  0  0
  -31.4420  -18.4310   18.1820 N   0  0  2  0  0  4  0  0  0  0  0  0
  -30.8600  -17.6650   17.8820 H   0  0  0  0  0  0  0  0  0  0  0  0
  -30.7140  -14.5390   20.4320 C   0  0  0  0  0  0  0  0  0  0  0  0
  -30.3680  -12.3400   19.3760 C   0  0  0  0  0  2  0  0  0  0  0  0
  -29.4540  -12.5000   18.1460 C   0  0  0  0  0  2  0  0  0  0  0  0
  -27.9790  -12.3770   18.5640 C   0  0  0  0  0  2  0  0  0  0  0  0
  -27.6180  -13.2560   19.7950 C   0  0  0  0  0  3  0  0  0  0  0  0
  -28.6630  -13.1390   20.9270 C   0  0  0  0  0  2  0  0  0  0  0  0
  -29.9910  -13.3860   20.3430 N   0  0  0  0  0  0  0  0  0  0  0  0
  -31.9040  -14.5930   20.1020 O   0  0  0  0  0  0  0  0  0  0  0  0
  -29.7360  -16.4950   19.4040 C   0  0  0  0  0  2  0  0  0  0  0  0
  -30.7170  -16.9020   21.1680 C   0  0  0  0  0  2  0  0  0  0  0  0
  -29.9690  -17.8330   20.1620 C   0  0  1  0  0  0  0  0  0  0  0  0
  -28.6930  -18.4140   20.8080 C   0  0  0  0  0  1  0  0  0  0  0  0
  -30.0380  -15.7040   20.6100 N   0  0  0  0  0  0  0  0  0  0  0  0
  -25.2100  -13.8560   20.4610 C   0  0  0  0  0  0  0  0  0  0  0  0
  -24.1400  -13.0830   20.8240 C   0  0  0  0  0  0  0  0  0  0  0  0
  -24.6100  -11.7360   20.8250 C   0  0  0  0  0  0  0  0  0  0  0  0
  -26.2630  -12.9770   20.2640 N   0  0  0  0  0  0  0  0  0  0  0  0
  -25.9030  -11.6980   20.5410 N   0  0  0  0  0  0  0  0  0  0  0  0
  -23.8840  -10.4730   21.0240 C   0  0  0  0  0  0  0  0  0  0  0  0
  -24.3180   -9.5100   21.9630 C   0  0  0  0  0  3  0  0  0  0  0  0
  -23.5960   -8.3130   22.1480 C   0  0  0  0  0  3  0  0  0  0  0  0
  -22.4210   -8.0700   21.3950 C   0  0  0  0  0  0  0  0  0  0  0  0
  -22.0050   -9.0190   20.4440 C   0  0  0  0  0  3  0  0  0  0  0  0
  -22.7300  -10.2090   20.2590 C   0  0  0  0  0  3  0  0  0  0  0  0
  -21.6690   -6.9230   21.4920 O   0  0  0  0  0  0  0  0  0  0  0  0
  -21.6390   -6.1750   22.6410 C   0  0  0  0  0  0  0  0  0  0  0  0
  -21.2490   -6.7290   23.8800 C   0  0  0  0  0  3  0  0  0  0  0  0
  -21.1700   -5.9100   25.0240 C   0  0  0  0  0  3  0  0  0  0  0  0
  -21.4650   -4.5360   24.9270 C   0  0  0  0  0  0  0  0  0  0  0  0
  -21.8400   -3.9800   23.6920 C   0  0  0  0  0  3  0  0  0  0  0  0
  -21.9240   -4.7970   22.5520 C   0  0  0  0  0  0  0  0  0  0  0  0
  -22.2710   -4.2540   21.3590 F   0  0  0  0  0  0  0  0  0  0  0  0
  -21.3790   -3.7450   26.0220 F   0  0  0  0  0  0  0  0  0  0  0  0
  -22.7360  -13.5570   21.0650 C   0  0  0  0  0  0  0  0  0  0  0  0
  -21.9990  -12.8720   21.9350 N   0  0  0  0  0  0  0  0  0  0  0  0
  -22.3000  -14.5690   20.5190 O   0  0  0  0  0  0  0  0  0  0  0  0
  -22.3630  -12.0500   22.3930 H   0  0  0  0  0  0  0  0  0  0  0  0
  -21.0580  -13.1750   22.1440 H   0  0  0  0  0  0  0  0  0  0  0  0
  -25.3700  -15.2250   20.2650 N   0  0  0  0  0  0  0  0  0  0  0  0
  -24.6060  -15.8840   20.3610 H   0  0  0  0  0  0  0  0  0  0  0  0
  -26.2360  -15.6620   19.9810 H   0  0  0  0  0  0  0  0  0  0  0  0
  -28.0710  -25.1470   19.6340 C   0  0  0  0  0  2  0  0  0  0  0  0
  -28.2960  -26.5270   20.0790 O   0  0  0  0  0  0  0  0  0  0  0  0
  -24.6350  -31.9010   23.2430 C   0  0  0  0  0  0  0  0  0  0  0  0
  -27.1730  -27.3670   20.0840 C   0  0  0  0  0  0  0  0  0  0  0  0
  -23.4020  -30.5070   21.6330 C   0  0  0  0  0  3  0  0  0  0  0  0
  -24.8150  -28.9720   20.1700 C   0  0  0  0  0  0  0  0  0  0  0  0
  -25.9430  -30.8130   21.4120 C   0  0  0  0  0  2  0  0  0  0  0  0
  -25.9990  -29.4460   20.7500 C   0  0  0  0  0  0  0  0  0  0  0  0
  -27.1810  -28.6550   20.7050 C   0  0  0  0  0  3  0  0  0  0  0  0
  -25.9540  -26.9460   19.4940 C   0  0  0  0  0  3  0  0  0  0  0  0
  -24.7900  -27.7270   19.5410 C   0  0  0  0  0  3  0  0  0  0  0  0
  -23.5880  -29.8510   20.2450 C   0  0  0  0  0  2  0  0  0  0  0  0
  -24.6830  -31.0840   22.1530 N   0  0  0  0  0  0  0  0  0  0  0  0
  -23.5570  -32.2090   23.7700 O   0  0  0  0  0  0  0  0  0  0  0  0
  -22.7590  -29.4760   22.5900 C   0  0  0  0  0  0  0  0  0  0  0  0
  -21.4350  -29.2850   22.4660 N   0  0  0  0  0  0  0  0  0  0  0  0
  -23.4450  -28.8570   23.4090 O   0  0  0  0  0  0  0  0  0  0  0  0
  -20.9440  -29.8320   21.7740 H   0  0  0  0  0  0  0  0  0  0  0  0
  -18.0630  -28.0630   22.9630 C   0  0  0  0  0  0  0  0  0  0  0  0
  -20.6180  -28.3500   23.2430 C   0  0  0  0  0  3  0  0  0  0  0  0
  -20.7390  -26.9140   22.6860 C   0  0  0  0  0  2  0  0  0  0  0  0
  -19.6440  -26.5670   21.6720 C   0  0  0  0  0  2  0  0  0  0  0  0
  -18.2560  -26.7080   22.3060 C   0  0  0  0  0  2  0  0  0  0  0  0
  -19.1720  -28.8420   23.3890 C   0  0  0  0  0  0  0  0  0  0  0  0
  -18.9390  -30.1080   23.9670 C   0  0  0  0  0  3  0  0  0  0  0  0
  -17.6300  -30.6010   24.1190 C   0  0  0  0  0  3  0  0  0  0  0  0
  -16.5340  -29.8210   23.7090 C   0  0  0  0  0  3  0  0  0  0  0  0
  -16.7520  -28.5530   23.1400 C   0  0  0  0  0  3  0  0  0  0  0  0
  -25.9310  -32.5170   23.8540 C   0  0  0  0  0  3  0  0  0  0  0  0
  -25.6290  -33.9120   24.2010 N   0  0  0  0  0  0  0  0  0  0  0  0
  -25.9330  -34.9670   23.4370 C   0  0  0  0  0  0  0  0  0  0  0  0
  -26.5740  -34.8700   22.3860 O   0  0  0  0  0  0  0  0  0  0  0  0
  -25.0570  -34.0560   25.0230 H   0  0  0  0  0  0  0  0  0  0  0  0
  -24.1830  -36.7460   23.1450 C   0  0  0  0  0  1  0  0  0  0  0  0
  -25.4570  -36.3530   23.9120 C   0  0  0  0  0  3  0  0  0  0  0  0
  -27.6160  -37.2430   24.6700 C   0  0  0  0  0  1  0  0  0  0  0  0
  -26.4800  -37.4120   23.7660 N   0  0  0  0  0  0  0  0  0  0  0  0
  -26.0760  -38.3300   23.9320 H   0  0  0  0  0  0  0  0  0  0  0  0
  -26.4630  -31.7310   25.1150 C   0  0  1  0  0  0  0  0  0  0  0  0
  -25.3830  -31.4880   26.1950 C   0  0  0  0  0  1  0  0  0  0  0  0
  -27.0360  -30.3550   24.7050 C   0  0  0  0  0  1  0  0  0  0  0  0
  -27.6260  -32.5200   25.7670 C   0  0  0  0  0  1  0  0  0  0  0  0
  1  4  1  0
  2  1  2  0
  2  3  1  0
  3  5  2  0
  4  9  2  0
  4  7  1  0
  5  9  1  0
  5  8  1  0
  6  2  1  0
 10 12  1  0
 11 10  1  0
 11 15  1  0
 12 13  1  0
 12  1  1  0
 13 15  1  0
 13 27  1  0
 15 14  1  0
 15 16  1  6
 17 29  1  0
 18 23  1  0
 19 20  1  0
 19 18  1  0
 21 20  1  0
 21 33  1  0
 21 22  1  0
 23 17  1  0
 23 22  1  0
 24 17  2  0
 25 27  1  0
 25 29  1  0
 27 28  1  1
 27 26  1  0
 29 26  1  0
 30 31  2  0
 31 32  1  0
 31 50  1  0
 32 35  1  0
 33 30  1  0
 33 34  1  0
 34 32  2  0
 35 36  1  0
 36 37  2  0
 38 41  1  0
 38 37  1  0
 39 38  2  0
 40 39  1  0
 40 35  2  0
 41 42  1  0
 42 43  1  0
 43 44  2  0
 45 44  1  0
 45 49  1  0
 46 45  2  0
 47 42  2  0
 47 46  1  0
 48 47  1  0
 50 51  1  0
 51 54  1  0
 51 53  1  0
 52 50  2  0
 55 56  1  0
 55 30  1  0
 57 55  1  0
 58  3  1  0
 58 59  1  0
 59 61  1  0
 60 71  2  0
 61 66  1  0
 62 70  1  0
 62 72  1  0
 63 69  1  0
 63 65  1  0
 64 70  1  0
 65 64  1  0
 66 65  2  0
 67 68  1  0
 67 61  2  0
 68 63  2  0
 69 62  1  0
 70 60  1  0
 72 74  2  0
 73 72  1  0
 75 73  1  0
 76 85  2  0
 76 81  1  0
 77 73  1  0
 77 81  1  0
 78 77  1  0
 79 80  1  0
 79 78  1  0
 80 76  1  0
 81 82  2  0
 82 83  1  0
 84 83  2  0
 85 84  1  0
 86 60  1  0
 86 87  1  0
 86 96  1  0
 87 90  1  0
 88 92  1  0
 88 87  1  0
 89 88  2  0
 92 91  1  0
 94 92  1  0
 94 95  1  0
 94 93  1  0
 96 99  1  1
 96 97  1  0
 98 96  1  0
M  ISO  4  17 100  29 100  58 101  59 101
M  END
>  <TORSDO>  (48) 
F 18

>  <SCORE>  (48) 
-15.054

>  <name>  (48) 
47

>  <ligand_id>  (48) 
47

>  <original_smiles>  (48) 
[H]c1c([H])c([H])c2c(c1[H])C([H])([H])C([H])([H])C([H])([H])C2([H])N([H])C(=O)C1([H])N(C(=O)C([H])(N([H])C(=O)C([H])(N([H])C([H])([H])[H])C([H])([H])[H])C(C([H])([H])[H])(C([H])([H])[H])C([H])([H])[H])C([H])([H])c2c([H])c(OC([H])([H])c3c(C([H])([H])[H])nc(C([H])([H])[H])c(C4([H])C([H])([H])C([H])([H])[N+]([H])(C([H])([H])[H])C4([H])C4(C([H])([H])[H])C([H])([H])N(C(=O)N5C([H])([H])C([H])([H])C([H])([H])C([H])(n6nc(-c7c([H])c([H])c(Oc8c([H])c([H])c(F)c([H])c8F)c([H])c7[H])c(C(=O)N([H])[H])c6N([H])[H])C5([H])[H])C4([H])[H])c3C([H])([H])[H])c([H])c([H])c2C1([H])[H]

>  <smiles>  (48) 
[H]c1c([H])c([H])c2c(c1[H])C([H])([H])C([H])([H])C([H])([H])C2([H])N([H])C(=O)C1([H])N(C(=O)C([H])(N([H])C(=O)C([H])(N([H])C([H])([H])[H])C([H])([H])[H])C(C([H])([H])[H])(C([H])([H])[H])C([H])([H])[H])C([H])([H])c2c([H])c(OC([H])([H])c3c(C([H])([H])[H])nc(C([H])([H])[H])c(C4([H])C([H])([H])C([H])([H])[N+]([H])(C([H])([H])[H])C4([H])C4(C([H])([H])[H])C([H])([H])N(C(=O)N5C([H])([H])C([H])([H])C([H])([H])C([H])(n6nc(-c7c([H])c([H])c(Oc8c([H])c([H])c(F)c([H])c8F)c([H])c7[H])c(C(=O)N([H])[H])c6N([H])[H])C5([H])[H])C4([H])[H])c3C([H])([H])[H])c([H])c([H])c2C1([H])[H]

> <Step>
166.0

> <Scaffold>
O=C(NC1CCCc2ccccc21)C1Cc2ccc(OCc3cncc(C4CCNC4C4CN(C(=O)N5CCCC(n6ccc(-c7ccc(Oc8ccccc8)cc7)n6)C5)C4)c3)cc2CN1

> <SMILES>
CNC(C)C(=O)NC(C(=O)N1Cc2cc(OCc3c(C)nc(C)c(C4CCN(C)C4C4(C)CN(C(=O)N5CCCC(n6nc(-c7ccc(Oc8ccc(F)cc8F)cc7)c(C(N)=O)c6N)C5)C4)c3C)ccc2CC1C(=O)NC1CCCc2ccccc21)C(C)(C)C

> <Tanimoto ROCS sim>
0.20295333862304688

> <Custom alerts>
1.0

> <Linker Num Aromatic Rings>
1.0

> <Linker Effective Length>
1.0

> <ADV>
0.9969543814659119

> <PostDock Tanimoto ROCS sim>
0.989730715751648

> <raw_Linker Num Aromatic Rings>
1.0

> <raw_Linker Effective Length>
8.0

> <raw_ADV>
-15.0600004196167

> <total_score>
0.9966713190078735

> <ID>
default_job_47

> <PostDock Tanimoto ROCS sim (re-score)>
0.9842312

> <raw_ADV (re-score)>
-15.054

> <Final Intermolecular Energy>
-30.456

> <Final Total Internal Energy>
-2.663

> <Torsional Free Energy>
15.401

> <Unbound System's Energy>
-2.663

$$$$
default_job_48
     RDKit          3D

 92101  0  0  1  0  0  0  0  0999 V2000
  -30.3690  -21.8980   18.7620 C   0  0  0  0  0  1  0  0  0  0  0  0
  -29.8750  -21.7770   20.2180 C   0  0  0  0  0  3  0  0  0  0  0  0
  -28.7000  -17.9400   20.0050 C   0  0  0  0  0  2  0  0  0  0  0  0
  -30.5920  -18.0720   21.5370 C   0  0  0  0  0  2  0  0  0  0  0  0
  -28.8910  -19.4520   19.6020 C   0  0  0  0  0  2  0  0  0  0  0  0
  -30.7810  -19.5920   21.1590 C   0  0  0  0  0  2  0  0  0  0  0  0
  -30.0160  -17.2000   20.3920 C   0  0  0  0  0  3  0  0  0  0  0  0
  -29.5660  -20.3190   20.6310 N   0  0  1  0  0  4  0  0  0  0  0  0
  -28.9350  -20.3830   21.4160 H   0  0  0  0  0  0  0  0  0  0  0  0
  -30.6130  -14.6510   20.4130 C   0  0  0  0  0  0  0  0  0  0  0  0
  -30.4040  -12.4070   19.3600 C   0  0  0  0  0  2  0  0  0  0  0  0
  -29.4670  -12.5350   18.1390 C   0  0  0  0  0  2  0  0  0  0  0  0
  -27.9930  -12.3790   18.5610 C   0  0  0  0  0  2  0  0  0  0  0  0
  -27.6290  -13.2370   19.8020 C   0  0  0  0  0  3  0  0  0  0  0  0
  -28.6860  -13.0930   20.9220 C   0  0  0  0  0  2  0  0  0  0  0  0
  -29.9940  -13.4290   20.3470 N   0  0  0  0  0  0  0  0  0  0  0  0
  -31.7700  -14.8040   20.0120 O   0  0  0  0  0  0  0  0  0  0  0  0
  -29.8200  -15.7310   20.7150 N   0  0  0  0  0  0  0  0  0  0  0  0
  -28.8990  -15.4800   21.0450 H   0  0  0  0  0  0  0  0  0  0  0  0
  -25.2330  -13.8280   20.5150 C   0  0  0  0  0  0  0  0  0  0  0  0
  -24.1680  -13.0510   20.8820 C   0  0  0  0  0  0  0  0  0  0  0  0
  -24.6350  -11.7010   20.8540 C   0  0  0  0  0  0  0  0  0  0  0  0
  -26.2800  -12.9510   20.2830 N   0  0  0  0  0  0  0  0  0  0  0  0
  -25.9260  -11.6670   20.5460 N   0  0  0  0  0  0  0  0  0  0  0  0
  -23.9110  -10.4380   21.0450 C   0  0  0  0  0  0  0  0  0  0  0  0
  -24.3470   -9.4700   21.9770 C   0  0  0  0  0  3  0  0  0  0  0  0
  -23.6240   -8.2700   22.1550 C   0  0  0  0  0  3  0  0  0  0  0  0
  -22.4510   -8.0290   21.4000 C   0  0  0  0  0  0  0  0  0  0  0  0
  -22.0340   -8.9860   20.4580 C   0  0  0  0  0  3  0  0  0  0  0  0
  -22.7580  -10.1760   20.2770 C   0  0  0  0  0  3  0  0  0  0  0  0
  -21.6990   -6.8810   21.4870 O   0  0  0  0  0  0  0  0  0  0  0  0
  -21.6570   -6.1370   22.6380 C   0  0  0  0  0  0  0  0  0  0  0  0
  -21.2300   -6.6850   23.8660 C   0  0  0  0  0  3  0  0  0  0  0  0
  -21.1330   -5.8660   25.0080 C   0  0  0  0  0  3  0  0  0  0  0  0
  -21.4540   -4.4970   24.9240 C   0  0  0  0  0  0  0  0  0  0  0  0
  -21.8740   -3.9470   23.6990 C   0  0  0  0  0  3  0  0  0  0  0  0
  -21.9720   -4.7640   22.5590 C   0  0  0  0  0  0  0  0  0  0  0  0
  -22.3570   -4.2250   21.3770 F   0  0  0  0  0  0  0  0  0  0  0  0
  -21.3550   -3.7080   26.0180 F   0  0  0  0  0  0  0  0  0  0  0  0
  -22.7680  -13.5260   21.1530 C   0  0  0  0  0  0  0  0  0  0  0  0
  -22.0400  -12.8290   22.0170 N   0  0  0  0  0  0  0  0  0  0  0  0
  -22.3300  -14.5500   20.6310 O   0  0  0  0  0  0  0  0  0  0  0  0
  -22.4060  -12.0000   22.4620 H   0  0  0  0  0  0  0  0  0  0  0  0
  -21.1010  -13.1300   22.2390 H   0  0  0  0  0  0  0  0  0  0  0  0
  -25.3950  -15.1990   20.3400 N   0  0  0  0  0  0  0  0  0  0  0  0
  -24.6300  -15.8550   20.4570 H   0  0  0  0  0  0  0  0  0  0  0  0
  -26.2440  -15.6410   20.0140 H   0  0  0  0  0  0  0  0  0  0  0  0
  -28.1610  -23.9120   19.5610 C   0  0  0  0  0  2  0  0  0  0  0  0
  -29.3810  -24.3020   21.1720 C   0  0  0  0  0  2  0  0  0  0  0  0
  -28.8490  -22.9440   20.5970 C   0  0  0  0  0  3  0  0  0  0  0  0
  -28.1500  -25.0660   20.6110 C   0  0  0  0  0  3  0  0  0  0  0  0
  -28.3580  -26.4810   20.2250 O   0  0  0  0  0  0  0  0  0  0  0  0
  -24.6240  -31.8730   23.2320 C   0  0  0  0  0  0  0  0  0  0  0  0
  -27.2340  -27.3160   20.1880 C   0  0  0  0  0  0  0  0  0  0  0  0
  -23.4160  -30.4650   21.6040 C   0  0  0  0  0  3  0  0  0  0  0  0
  -24.8650  -28.9120   20.1760 C   0  0  0  0  0  0  0  0  0  0  0  0
  -25.9540  -30.7870   21.4140 C   0  0  0  0  0  2  0  0  0  0  0  0
  -26.0320  -29.4090   20.7700 C   0  0  0  0  0  0  0  0  0  0  0  0
  -27.2220  -28.6240   20.7610 C   0  0  0  0  0  3  0  0  0  0  0  0
  -26.0480  -26.8670   19.5720 C   0  0  0  0  0  3  0  0  0  0  0  0
  -24.8740  -27.6480   19.5630 C   0  0  0  0  0  3  0  0  0  0  0  0
  -23.6280  -29.7850   20.2240 C   0  0  0  0  0  2  0  0  0  0  0  0
  -24.6850  -31.0550   22.1430 N   0  0  0  0  0  0  0  0  0  0  0  0
  -23.5360  -32.1750   23.7410 O   0  0  0  0  0  0  0  0  0  0  0  0
  -22.7530  -29.4510   22.5650 C   0  0  0  0  0  0  0  0  0  0  0  0
  -21.4280  -29.2750   22.4400 N   0  0  0  0  0  0  0  0  0  0  0  0
  -23.4320  -28.8230   23.3830 O   0  0  0  0  0  0  0  0  0  0  0  0
  -20.9380  -29.8320   21.7520 H   0  0  0  0  0  0  0  0  0  0  0  0
  -18.0470  -28.0880   22.9460 C   0  0  0  0  0  0  0  0  0  0  0  0
  -20.6080  -28.3380   23.2120 C   0  0  0  0  0  3  0  0  0  0  0  0
  -20.7020  -26.9070   22.6320 C   0  0  0  0  0  2  0  0  0  0  0  0
  -19.5970  -26.5920   21.6190 C   0  0  0  0  0  2  0  0  0  0  0  0
  -18.2170  -26.7400   22.2670 C   0  0  0  0  0  2  0  0  0  0  0  0
  -19.1700  -28.8440   23.3770 C   0  0  0  0  0  0  0  0  0  0  0  0
  -18.9540  -30.1060   23.9740 C   0  0  0  0  0  3  0  0  0  0  0  0
  -17.6530  -30.6110   24.1440 C   0  0  0  0  0  3  0  0  0  0  0  0
  -16.5450  -29.8510   23.7310 C   0  0  0  0  0  3  0  0  0  0  0  0
  -16.7430  -28.5910   23.1380 C   0  0  0  0  0  3  0  0  0  0  0  0
  -25.9090  -32.4940   23.8660 C   0  0  0  0  0  3  0  0  0  0  0  0
  -25.6050  -33.8920   24.2060 N   0  0  0  0  0  0  0  0  0  0  0  0
  -25.9220  -34.9450   23.4420 C   0  0  0  0  0  0  0  0  0  0  0  0
  -26.5740  -34.8420   22.4000 O   0  0  0  0  0  0  0  0  0  0  0  0
  -25.0290  -34.0440   25.0210 H   0  0  0  0  0  0  0  0  0  0  0  0
  -24.1800  -36.7300   23.1230 C   0  0  0  0  0  1  0  0  0  0  0  0
  -25.4410  -36.3330   23.9070 C   0  0  0  0  0  3  0  0  0  0  0  0
  -27.5910  -37.2270   24.6870 C   0  0  0  0  0  1  0  0  0  0  0  0
  -26.4680  -37.3880   23.7680 N   0  0  0  0  0  0  0  0  0  0  0  0
  -26.0620  -38.3080   23.9180 H   0  0  0  0  0  0  0  0  0  0  0  0
  -26.4240  -31.7120   25.1380 C   0  0  1  0  0  0  0  0  0  0  0  0
  -25.3290  -31.4730   26.2040 C   0  0  0  0  0  1  0  0  0  0  0  0
  -27.0000  -30.3340   24.7400 C   0  0  0  0  0  1  0  0  0  0  0  0
  -27.5810  -32.4970   25.8030 C   0  0  0  0  0  1  0  0  0  0  0  0
  2  1  1  0
  2  8  1  0
  3  7  1  0
  5  3  1  0
  5  8  1  0
  6  4  1  0
  7 18  1  0
  7  4  1  0
  8  6  1  0
  8  9  1  1
 10 18  1  0
 11 16  1  0
 12 13  1  0
 12 11  1  0
 14 13  1  0
 14 23  1  0
 14 15  1  0
 16 10  1  0
 16 15  1  0
 17 10  2  0
 18 19  1  0
 20 21  2  0
 21 40  1  0
 22 21  1  0
 22 25  1  0
 23 20  1  0
 23 24  1  0
 24 22  2  0
 25 26  1  0
 26 27  2  0
 28 31  1  0
 28 27  1  0
 29 28  2  0
 30 29  1  0
 30 25  2  0
 31 32  1  0
 32 33  1  0
 33 34  2  0
 35 34  1  0
 35 39  1  0
 36 35  2  0
 37 32  2  0
 37 36  1  0
 38 37  1  0
 40 41  1  0
 41 44  1  0
 41 43  1  0
 42 40  2  0
 45 46  1  0
 45 20  1  0
 47 45  1  0
 48 50  1  0
 48 51  1  0
 50  2  1  0
 50 49  1  0
 51 52  1  0
 51 49  1  0
 53 64  2  0
 54 52  1  0
 54 59  1  0
 55 63  1  0
 55 65  1  0
 56 62  1  0
 56 58  1  0
 57 63  1  0
 58 57  1  0
 59 58  2  0
 60 54  2  0
 61 60  1  0
 61 56  2  0
 62 55  1  0
 63 53  1  0
 65 67  2  0
 66 65  1  0
 68 66  1  0
 69 78  2  0
 69 74  1  0
 70 66  1  0
 70 74  1  0
 71 70  1  0
 72 73  1  0
 72 71  1  0
 73 69  1  0
 74 75  2  0
 75 76  1  0
 77 76  2  0
 78 77  1  0
 79 53  1  0
 79 80  1  0
 79 89  1  0
 80 83  1  0
 81 85  1  0
 81 80  1  0
 82 81  2  0
 85 84  1  0
 87 85  1  0
 87 88  1  0
 87 86  1  0
 89 92  1  1
 89 90  1  0
 91 89  1  0
M  ISO  4  10 100  18 100  51 101  52 101
M  END
>  <TORSDO>  (49) 
F 18

>  <SCORE>  (49) 
-14.775

>  <name>  (49) 
48

>  <ligand_id>  (49) 
48

>  <original_smiles>  (49) 
[H]c1c([H])c([H])c2c(c1[H])C([H])([H])C([H])([H])C([H])([H])C2([H])N([H])C(=O)C1([H])N(C(=O)C([H])(N([H])C(=O)C([H])(N([H])C([H])([H])[H])C([H])([H])[H])C(C([H])([H])[H])(C([H])([H])[H])C([H])([H])[H])C([H])([H])c2c([H])c(OC3([H])C([H])([H])C([H])(C([H])(C([H])([H])[H])[N+]4([H])C([H])([H])C([H])([H])C([H])(N([H])C(=O)N5C([H])([H])C([H])([H])C([H])([H])C([H])(n6nc(-c7c([H])c([H])c(Oc8c([H])c([H])c(F)c([H])c8F)c([H])c7[H])c(C(=O)N([H])[H])c6N([H])[H])C5([H])[H])C([H])([H])C4([H])[H])C3([H])[H])c([H])c([H])c2C1([H])[H]

>  <smiles>  (49) 
[H]c1c([H])c([H])c2c(c1[H])C([H])([H])C([H])([H])C([H])([H])C2([H])N([H])C(=O)C1([H])N(C(=O)C([H])(N([H])C(=O)C([H])(N([H])C([H])([H])[H])C([H])([H])[H])C(C([H])([H])[H])(C([H])([H])[H])C([H])([H])[H])C([H])([H])c2c([H])c(OC3([H])C([H])([H])C([H])(C([H])(C([H])([H])[H])[N+]4([H])C([H])([H])C([H])([H])C([H])(N([H])C(=O)N5C([H])([H])C([H])([H])C([H])([H])C([H])(n6nc(-c7c([H])c([H])c(Oc8c([H])c([H])c(F)c([H])c8F)c([H])c7[H])c(C(=O)N([H])[H])c6N([H])[H])C5([H])[H])C([H])([H])C4([H])[H])C3([H])[H])c([H])c([H])c2C1([H])[H]

> <Step>
124.0

> <Scaffold>
O=C(NC1CCCc2ccccc21)C1Cc2ccc(OC3CC(CN4CCC(NC(=O)N5CCCC(n6ccc(-c7ccc(Oc8ccccc8)cc7)n6)C5)CC4)C3)cc2CN1

> <SMILES>
CNC(C)C(=O)NC(C(=O)N1Cc2cc(OC3CC(C(C)N4CCC(NC(=O)N5CCCC(n6nc(-c7ccc(Oc8ccc(F)cc8F)cc7)c(C(N)=O)c6N)C5)CC4)C3)ccc2CC1C(=O)NC1CCCc2ccccc21)C(C)(C)C

> <Tanimoto ROCS sim>
0.27408337593078613

> <Custom alerts>
1.0

> <Linker Num Aromatic Rings>
1.0

> <Linker Effective Length>
1.0

> <ADV>
0.9963906407356262

> <PostDock Tanimoto ROCS sim>
0.9902282357215881

> <raw_Linker Num Aromatic Rings>
0.0

> <raw_Linker Effective Length>
8.0

> <raw_ADV>
-14.763999938964844

> <total_score>
0.9966546893119812

> <ID>
default_job_48

> <PostDock Tanimoto ROCS sim (re-score)>
0.9834777

> <raw_ADV (re-score)>
-14.775

> <Final Intermolecular Energy>
-29.891

> <Final Total Internal Energy>
-3.042

> <Torsional Free Energy>
15.116

> <Unbound System's Energy>
-3.042

$$$$
default_job_49
     RDKit          3D

 90 99  0  0  1  0  0  0  0  0999 V2000
  -30.3900  -22.1220   20.6810 C   0  0  0  0  0  3  0  0  0  0  0  0
  -28.2670  -21.5690   19.7040 C   0  0  0  0  0  3  0  0  0  0  0  0
  -29.9690  -23.4670   20.8670 C   0  0  0  0  0  3  0  0  0  0  0  0
  -27.8390  -22.9200   19.8900 C   0  0  0  0  0  3  0  0  0  0  0  0
  -29.5500  -21.1230   20.1190 C   0  0  0  0  0  0  0  0  0  0  0  0
  -28.6710  -23.8990   20.5000 C   0  0  0  0  0  0  0  0  0  0  0  0
  -29.4860  -18.6980   18.9560 C   0  0  0  0  0  2  0  0  0  0  0  0
  -30.1030  -19.6820   19.9280 C   0  0  0  0  0  3  0  0  0  0  0  0
  -29.5220  -18.3220   20.4200 C   0  0  0  0  0  3  0  0  0  0  0  0
  -30.4230  -17.1380   20.8980 C   0  0  0  0  0  2  0  0  0  0  0  0
  -30.6480  -14.6270   20.4360 C   0  0  0  0  0  0  0  0  0  0  0  0
  -30.3760  -12.4180   19.3460 C   0  0  0  0  0  2  0  0  0  0  0  0
  -29.4390  -12.5670   18.1300 C   0  0  0  0  0  2  0  0  0  0  0  0
  -27.9620  -12.4260   18.5500 C   0  0  0  0  0  2  0  0  0  0  0  0
  -27.6120  -13.2670   19.8050 C   0  0  0  0  0  3  0  0  0  0  0  0
  -28.6720  -13.1160   20.9210 C   0  0  0  0  0  2  0  0  0  0  0  0
  -29.9830  -13.4360   20.3390 N   0  0  0  0  0  0  0  0  0  0  0  0
  -31.8100  -14.7470   20.0360 O   0  0  0  0  0  0  0  0  0  0  0  0
  -29.9320  -15.7230   20.8190 N   0  0  0  0  0  0  0  0  0  0  0  0
  -28.9840  -15.5550   21.1210 H   0  0  0  0  0  0  0  0  0  0  0  0
  -25.2140  -13.8560   20.5110 C   0  0  0  0  0  0  0  0  0  0  0  0
  -24.1490  -13.0800   20.8800 C   0  0  0  0  0  0  0  0  0  0  0  0
  -24.6170  -11.7300   20.8580 C   0  0  0  0  0  0  0  0  0  0  0  0
  -26.2650  -12.9790   20.2880 N   0  0  0  0  0  0  0  0  0  0  0  0
  -25.9100  -11.6970   20.5570 N   0  0  0  0  0  0  0  0  0  0  0  0
  -23.8960  -10.4640   21.0510 C   0  0  0  0  0  0  0  0  0  0  0  0
  -24.3360   -9.4950   21.9810 C   0  0  0  0  0  3  0  0  0  0  0  0
  -23.6120   -8.2970   22.1610 C   0  0  0  0  0  3  0  0  0  0  0  0
  -22.4370   -8.0560   21.4120 C   0  0  0  0  0  0  0  0  0  0  0  0
  -22.0170   -9.0130   20.4700 C   0  0  0  0  0  3  0  0  0  0  0  0
  -22.7410  -10.2040   20.2890 C   0  0  0  0  0  3  0  0  0  0  0  0
  -21.6840   -6.9100   21.5010 O   0  0  0  0  0  0  0  0  0  0  0  0
  -21.6520   -6.1580   22.6470 C   0  0  0  0  0  0  0  0  0  0  0  0
  -21.2490   -6.7040   23.8850 C   0  0  0  0  0  3  0  0  0  0  0  0
  -21.1630   -5.8800   25.0250 C   0  0  0  0  0  3  0  0  0  0  0  0
  -21.4710   -4.5090   24.9280 C   0  0  0  0  0  0  0  0  0  0  0  0
  -21.8660   -3.9620   23.6950 C   0  0  0  0  0  3  0  0  0  0  0  0
  -21.9530   -4.7840   22.5580 C   0  0  0  0  0  0  0  0  0  0  0  0
  -22.3130   -4.2460   21.3670 F   0  0  0  0  0  0  0  0  0  0  0  0
  -21.3830   -3.7150   26.0200 F   0  0  0  0  0  0  0  0  0  0  0  0
  -22.7470  -13.5500   21.1470 C   0  0  0  0  0  0  0  0  0  0  0  0
  -22.0220  -12.8510   22.0130 N   0  0  0  0  0  0  0  0  0  0  0  0
  -22.3060  -14.5720   20.6230 O   0  0  0  0  0  0  0  0  0  0  0  0
  -22.3910  -12.0170   22.4460 H   0  0  0  0  0  0  0  0  0  0  0  0
  -21.0830  -13.1450   22.2400 H   0  0  0  0  0  0  0  0  0  0  0  0
  -25.3780  -15.2260   20.3250 N   0  0  0  0  0  0  0  0  0  0  0  0
  -24.6200  -15.8920   20.4280 H   0  0  0  0  0  0  0  0  0  0  0  0
  -26.2380  -15.6600   20.0150 H   0  0  0  0  0  0  0  0  0  0  0  0
  -28.1050  -25.2740   20.9770 C   0  0  0  0  0  2  0  0  0  0  0  0
  -28.3330  -26.5140   20.2210 O   0  0  0  0  0  0  0  0  0  0  0  0
  -24.6170  -31.9030   23.2460 C   0  0  0  0  0  0  0  0  0  0  0  0
  -27.2330  -27.3710   20.1970 C   0  0  0  0  0  0  0  0  0  0  0  0
  -23.4090  -30.4920   21.6200 C   0  0  0  0  0  3  0  0  0  0  0  0
  -24.8610  -28.9500   20.1870 C   0  0  0  0  0  0  0  0  0  0  0  0
  -25.9430  -30.8350   21.4130 C   0  0  0  0  0  2  0  0  0  0  0  0
  -26.0280  -29.4550   20.7750 C   0  0  0  0  0  0  0  0  0  0  0  0
  -27.2200  -28.6750   20.7770 C   0  0  0  0  0  3  0  0  0  0  0  0
  -26.0490  -26.9140   19.5830 C   0  0  0  0  0  3  0  0  0  0  0  0
  -24.8730  -27.6830   19.5820 C   0  0  0  0  0  3  0  0  0  0  0  0
  -23.6180  -29.8140   20.2380 C   0  0  0  0  0  2  0  0  0  0  0  0
  -24.6790  -31.0870   22.1530 N   0  0  0  0  0  0  0  0  0  0  0  0
  -23.5310  -32.2000   23.7590 O   0  0  0  0  0  0  0  0  0  0  0  0
  -22.7570  -29.4710   22.5810 C   0  0  0  0  0  0  0  0  0  0  0  0
  -21.4320  -29.2830   22.4550 N   0  0  0  0  0  0  0  0  0  0  0  0
  -23.4400  -28.8520   23.4010 O   0  0  0  0  0  0  0  0  0  0  0  0
  -20.9360  -29.8380   21.7700 H   0  0  0  0  0  0  0  0  0  0  0  0
  -18.0620  -28.0630   22.9380 C   0  0  0  0  0  0  0  0  0  0  0  0
  -20.6170  -28.3430   23.2280 C   0  0  0  0  0  3  0  0  0  0  0  0
  -20.7340  -26.9070   22.6630 C   0  0  0  0  0  2  0  0  0  0  0  0
  -19.6400  -26.5710   21.6440 C   0  0  0  0  0  2  0  0  0  0  0  0
  -18.2530  -26.7090   22.2760 C   0  0  0  0  0  2  0  0  0  0  0  0
  -19.1720  -28.8360   23.3730 C   0  0  0  0  0  0  0  0  0  0  0  0
  -18.9360  -30.1010   23.9520 C   0  0  0  0  0  3  0  0  0  0  0  0
  -17.6260  -30.5930   24.1030 C   0  0  0  0  0  3  0  0  0  0  0  0
  -16.5310  -29.8150   23.6890 C   0  0  0  0  0  3  0  0  0  0  0  0
  -16.7490  -28.5530   23.1120 C   0  0  0  0  0  3  0  0  0  0  0  0
  -25.9010  -32.5300   23.8720 C   0  0  0  0  0  3  0  0  0  0  0  0
  -26.4190  -31.7600   25.1480 C   0  0  1  0  0  0  0  0  0  0  0  0
  -25.3270  -31.5240   26.2180 C   0  0  0  0  0  1  0  0  0  0  0  0
  -27.0020  -30.3850   24.7510 C   0  0  0  0  0  1  0  0  0  0  0  0
  -27.5750  -32.5520   25.8050 C   0  0  0  0  0  1  0  0  0  0  0  0
  -25.5940  -33.9300   24.2020 N   0  0  0  0  0  0  0  0  0  0  0  0
  -25.9210  -34.9780   23.4360 C   0  0  0  0  0  0  0  0  0  0  0  0
  -26.5840  -34.8680   22.4000 O   0  0  0  0  0  0  0  0  0  0  0  0
  -25.0090  -34.0890   25.0100 H   0  0  0  0  0  0  0  0  0  0  0  0
  -24.1810  -36.7560   23.0870 C   0  0  0  0  0  1  0  0  0  0  0  0
  -25.4330  -36.3680   23.8870 C   0  0  0  0  0  3  0  0  0  0  0  0
  -27.5740  -37.2560   24.6890 C   0  0  0  0  0  1  0  0  0  0  0  0
  -26.4630  -37.4210   23.7560 N   0  0  0  0  0  0  0  0  0  0  0  0
  -26.0580  -38.3420   23.9070 H   0  0  0  0  0  0  0  0  0  0  0  0
  1  3  1  0
  2  4  2  0
  2  5  1  0
  4  6  1  0
  5  1  2  0
  6  3  2  0
  6 49  1  0
  7  8  1  0
  7  9  1  0
  8  5  1  0
  8  9  1  0
  9 10  1  0
 11 19  1  0
 12 17  1  0
 13 14  1  0
 13 12  1  0
 15 14  1  0
 15 24  1  0
 15 16  1  0
 17 11  1  0
 17 16  1  0
 18 11  2  0
 19 10  1  0
 19 20  1  0
 21 22  2  0
 22 41  1  0
 23 22  1  0
 23 26  1  0
 24 21  1  0
 24 25  1  0
 25 23  2  0
 26 27  1  0
 27 28  2  0
 29 32  1  0
 29 28  1  0
 30 29  2  0
 31 30  1  0
 31 26  2  0
 32 33  1  0
 33 34  1  0
 34 35  2  0
 36 35  1  0
 36 40  1  0
 37 36  2  0
 38 33  2  0
 38 37  1  0
 39 38  1  0
 41 42  1  0
 42 45  1  0
 42 44  1  0
 43 41  2  0
 46 47  1  0
 46 21  1  0
 48 46  1  0
 50 49  1  0
 51 62  2  0
 52 50  1  0
 52 57  1  0
 53 61  1  0
 53 63  1  0
 54 60  1  0
 54 56  1  0
 55 61  1  0
 56 57  2  0
 56 55  1  0
 58 52  2  0
 59 58  1  0
 59 54  2  0
 60 53  1  0
 61 51  1  0
 63 65  2  0
 64 63  1  0
 66 64  1  0
 67 76  2  0
 67 72  1  0
 68 64  1  0
 68 72  1  0
 69 68  1  0
 70 71  1  0
 70 69  1  0
 71 67  1  0
 72 73  2  0
 73 74  1  0
 75 74  2  0
 76 75  1  0
 77 51  1  0
 77 82  1  0
 77 78  1  0
 78 81  1  1
 78 79  1  0
 80 78  1  0
 82 85  1  0
 83 87  1  0
 83 82  1  0
 84 83  2  0
 87 86  1  0
 89 87  1  0
 89 90  1  0
 89 88  1  0
M  ISO  4  11 100  19 100  49 101  50 101
M  END
>  <TORSDO>  (50) 
F 19

>  <SCORE>  (50) 
-14.265

>  <name>  (50) 
49

>  <ligand_id>  (50) 
49

>  <original_smiles>  (50) 
[H]c1c([H])c([H])c2c(c1[H])C([H])([H])C([H])([H])C([H])([H])C2([H])N([H])C(=O)C1([H])N(C(=O)C([H])(N([H])C(=O)C([H])(N([H])C([H])([H])[H])C([H])([H])[H])C(C([H])([H])[H])(C([H])([H])[H])C([H])([H])[H])C([H])([H])c2c([H])c(OC([H])([H])c3c([H])c([H])c(C4([H])C([H])([H])C4([H])C([H])([H])N([H])C(=O)N4C([H])([H])C([H])([H])C([H])([H])C([H])(n5nc(-c6c([H])c([H])c(Oc7c([H])c([H])c(F)c([H])c7F)c([H])c6[H])c(C(=O)N([H])[H])c5N([H])[H])C4([H])[H])c([H])c3[H])c([H])c([H])c2C1([H])[H]

>  <smiles>  (50) 
[H]c1c([H])c([H])c2c(c1[H])C([H])([H])C([H])([H])C([H])([H])C2([H])N([H])C(=O)C1([H])N(C(=O)C([H])(N([H])C(=O)C([H])(N([H])C([H])([H])[H])C([H])([H])[H])C(C([H])([H])[H])(C([H])([H])[H])C([H])([H])[H])C([H])([H])c2c([H])c(OC([H])([H])c3c([H])c([H])c(C4([H])C([H])([H])C4([H])C([H])([H])N([H])C(=O)N4C([H])([H])C([H])([H])C([H])([H])C([H])(n5nc(-c6c([H])c([H])c(Oc7c([H])c([H])c(F)c([H])c7F)c([H])c6[H])c(C(=O)N([H])[H])c5N([H])[H])C4([H])[H])c([H])c3[H])c([H])c([H])c2C1([H])[H]

> <Step>
125.0

> <Scaffold>
O=C(NC1CCCc2ccccc21)C1Cc2ccc(OCc3ccc(C4CC4CNC(=O)N4CCCC(n5ccc(-c6ccc(Oc7ccccc7)cc6)n5)C4)cc3)cc2CN1

> <SMILES>
CNC(C)C(=O)NC(C(=O)N1Cc2cc(OCc3ccc(C4CC4CNC(=O)N4CCCC(n5nc(-c6ccc(Oc7ccc(F)cc7F)cc6)c(C(N)=O)c5N)C4)cc3)ccc2CC1C(=O)NC1CCCc2ccccc21)C(C)(C)C

> <Tanimoto ROCS sim>
0.20718617737293243

> <Custom alerts>
1.0

> <Linker Num Aromatic Rings>
1.0

> <Linker Effective Length>
1.0

> <ADV>
0.9952636957168579

> <PostDock Tanimoto ROCS sim>
0.9913217425346375

> <raw_Linker Num Aromatic Rings>
1.0

> <raw_Linker Effective Length>
8.0

> <raw_ADV>
-14.289999961853027

> <total_score>
0.9966463446617126

> <ID>
default_job_49

> <PostDock Tanimoto ROCS sim (re-score)>
0.98350275

> <raw_ADV (re-score)>
-14.265

> <Final Intermolecular Energy>
-29.693

> <Final Total Internal Energy>
-2.938

> <Torsional Free Energy>
15.428

> <Unbound System's Energy>
-2.938

$$$$
default_job_50
     RDKit          3D

 95103  0  0  1  0  0  0  0  0999 V2000
  -30.3830  -23.5710   18.8990 C   0  0  0  0  0  1  0  0  0  0  0  0
  -29.8120  -22.9030   20.1650 C   0  0  0  0  0  3  0  0  0  0  0  0
  -30.5680  -21.5700   20.4560 C   0  0  0  0  0  0  0  0  0  0  0  0
  -28.3310  -18.7600   19.2530 C   0  0  0  0  0  2  0  0  0  0  0  0
  -28.6730  -17.6940   20.2900 C   0  0  0  0  0  2  0  0  0  0  0  0
  -28.6290  -20.1890   19.7400 C   0  0  0  0  0  2  0  0  0  0  0  0
  -30.4870  -19.2180   21.1740 C   0  0  0  0  0  2  0  0  0  0  0  0
  -30.1600  -17.8000   20.6450 C   0  0  0  0  0  3  0  0  0  0  0  0
  -29.9440  -20.3600   20.3880 N   0  0  0  0  0  0  0  0  0  0  0  0
  -31.7420  -21.6620   20.8300 O   0  0  0  0  0  0  0  0  0  0  0  0
  -30.6330  -16.7080   21.6440 C   0  0  0  0  0  2  0  0  0  0  0  0
  -30.7040  -14.4580   20.5150 C   0  0  0  0  0  0  0  0  0  0  0  0
  -30.3610  -12.3350   19.2970 C   0  0  0  0  0  2  0  0  0  0  0  0
  -29.4290  -12.5490   18.0890 C   0  0  0  0  0  2  0  0  0  0  0  0
  -27.9540  -12.4270   18.5180 C   0  0  0  0  0  2  0  0  0  0  0  0
  -27.6140  -13.2560   19.7870 C   0  0  0  0  0  3  0  0  0  0  0  0
  -28.6600  -13.0190   20.8970 C   0  0  0  0  0  2  0  0  0  0  0  0
  -29.9990  -13.3070   20.3420 N   0  0  0  0  0  0  0  0  0  0  0  0
  -31.7680  -14.6980   19.9380 O   0  0  0  0  0  0  0  0  0  0  0  0
  -30.1430  -15.3590   21.3350 N   0  0  0  0  0  0  0  0  0  0  0  0
  -29.2760  -15.0880   21.7740 H   0  0  0  0  0  0  0  0  0  0  0  0
  -25.2080  -13.8520   20.4940 C   0  0  0  0  0  0  0  0  0  0  0  0
  -24.1460  -13.0750   20.8700 C   0  0  0  0  0  0  0  0  0  0  0  0
  -24.6160  -11.7260   20.8430 C   0  0  0  0  0  0  0  0  0  0  0  0
  -26.2590  -12.9760   20.2640 N   0  0  0  0  0  0  0  0  0  0  0  0
  -25.9040  -11.6930   20.5300 N   0  0  0  0  0  0  0  0  0  0  0  0
  -23.8980  -10.4610   21.0410 C   0  0  0  0  0  0  0  0  0  0  0  0
  -24.3430   -9.4960   21.9720 C   0  0  0  0  0  3  0  0  0  0  0  0
  -23.6230   -8.2970   22.1600 C   0  0  0  0  0  3  0  0  0  0  0  0
  -22.4430   -8.0540   21.4160 C   0  0  0  0  0  0  0  0  0  0  0  0
  -22.0160   -9.0090   20.4760 C   0  0  0  0  0  3  0  0  0  0  0  0
  -22.7360  -10.1990   20.2880 C   0  0  0  0  0  3  0  0  0  0  0  0
  -21.6940   -6.9070   21.5130 O   0  0  0  0  0  0  0  0  0  0  0  0
  -21.6670   -6.1580   22.6620 C   0  0  0  0  0  0  0  0  0  0  0  0
  -21.2590   -6.7040   23.8980 C   0  0  0  0  0  3  0  0  0  0  0  0
  -21.1770   -5.8810   25.0400 C   0  0  0  0  0  3  0  0  0  0  0  0
  -21.4960   -4.5130   24.9440 C   0  0  0  0  0  0  0  0  0  0  0  0
  -21.8970   -3.9660   23.7120 C   0  0  0  0  0  3  0  0  0  0  0  0
  -21.9790   -4.7870   22.5740 C   0  0  0  0  0  0  0  0  0  0  0  0
  -22.3470   -4.2500   21.3850 F   0  0  0  0  0  0  0  0  0  0  0  0
  -21.4110   -3.7200   26.0370 F   0  0  0  0  0  0  0  0  0  0  0  0
  -22.7500  -13.5490   21.1470 C   0  0  0  0  0  0  0  0  0  0  0  0
  -22.0280  -12.8520   22.0180 N   0  0  0  0  0  0  0  0  0  0  0  0
  -22.3060  -14.5720   20.6310 O   0  0  0  0  0  0  0  0  0  0  0  0
  -22.3990  -12.0270   22.4660 H   0  0  0  0  0  0  0  0  0  0  0  0
  -21.0910  -13.1540   22.2430 H   0  0  0  0  0  0  0  0  0  0  0  0
  -25.3580  -15.2220   20.3180 N   0  0  0  0  0  0  0  0  0  0  0  0
  -24.5810  -15.8600   20.4530 H   0  0  0  0  0  0  0  0  0  0  0  0
  -26.1970  -15.6840   19.9890 H   0  0  0  0  0  0  0  0  0  0  0  0
  -29.9220  -23.8510   21.4040 C   0  0  0  0  0  2  0  0  0  0  0  0
  -28.7630  -24.8340   21.7600 C   0  0  0  0  0  3  0  0  0  0  0  0
  -26.2680  -24.9150   22.4220 C   0  0  0  0  0  1  0  0  0  0  0  0
  -27.3430  -24.2600   21.5450 C   0  0  0  0  0  2  0  0  0  0  0  0
  -28.9660  -26.3240   21.3420 C   0  0  0  0  0  2  0  0  0  0  0  0
  -28.4080  -26.6900   20.0730 O   0  0  0  0  0  0  0  0  0  0  0  0
  -24.6130  -31.8840   23.2370 C   0  0  0  0  0  0  0  0  0  0  0  0
  -27.2740  -27.4740   20.1170 C   0  0  0  0  0  0  0  0  0  0  0  0
  -23.4160  -30.4900   21.5820 C   0  0  0  0  0  3  0  0  0  0  0  0
  -24.8780  -28.9750   20.1400 C   0  0  0  0  0  0  0  0  0  0  0  0
  -25.9410  -30.8560   21.3960 C   0  0  0  0  0  2  0  0  0  0  0  0
  -26.0310  -29.4890   20.7470 C   0  0  0  0  0  0  0  0  0  0  0  0
  -27.2320  -28.7430   20.7420 C   0  0  0  0  0  3  0  0  0  0  0  0
  -26.1120  -26.9830   19.4880 C   0  0  0  0  0  3  0  0  0  0  0  0
  -24.9130  -27.7190   19.5110 C   0  0  0  0  0  3  0  0  0  0  0  0
  -23.6290  -29.8250   20.1960 C   0  0  0  0  0  2  0  0  0  0  0  0
  -24.6750  -31.0890   22.1320 N   0  0  0  0  0  0  0  0  0  0  0  0
  -23.5260  -32.1720   23.7540 O   0  0  0  0  0  0  0  0  0  0  0  0
  -22.7670  -29.4550   22.5300 C   0  0  0  0  0  0  0  0  0  0  0  0
  -21.4400  -29.2810   22.4060 N   0  0  0  0  0  0  0  0  0  0  0  0
  -23.4510  -28.8130   23.3300 O   0  0  0  0  0  0  0  0  0  0  0  0
  -20.9510  -29.8510   21.7310 H   0  0  0  0  0  0  0  0  0  0  0  0
  -18.0600  -28.1040   22.9020 C   0  0  0  0  0  0  0  0  0  0  0  0
  -20.6230  -28.3350   23.1620 C   0  0  0  0  0  3  0  0  0  0  0  0
  -20.7090  -26.9150   22.5540 C   0  0  0  0  0  2  0  0  0  0  0  0
  -19.5980  -26.6250   21.5400 C   0  0  0  0  0  2  0  0  0  0  0  0
  -18.2220  -26.7670   22.1980 C   0  0  0  0  0  2  0  0  0  0  0  0
  -19.1880  -28.8470   23.3420 C   0  0  0  0  0  0  0  0  0  0  0  0
  -18.9850  -30.0990   23.9580 C   0  0  0  0  0  3  0  0  0  0  0  0
  -17.6860  -30.6090   24.1430 C   0  0  0  0  0  3  0  0  0  0  0  0
  -16.5730  -29.8610   23.7220 C   0  0  0  0  0  3  0  0  0  0  0  0
  -16.7600  -28.6120   23.1060 C   0  0  0  0  0  3  0  0  0  0  0  0
  -25.8980  -32.5020   23.8760 C   0  0  0  0  0  3  0  0  0  0  0  0
  -25.5950  -33.8990   24.2110 N   0  0  0  0  0  0  0  0  0  0  0  0
  -25.9280  -34.9500   23.4520 C   0  0  0  0  0  0  0  0  0  0  0  0
  -26.5980  -34.8450   22.4200 O   0  0  0  0  0  0  0  0  0  0  0  0
  -25.0000  -34.0530   25.0120 H   0  0  0  0  0  0  0  0  0  0  0  0
  -24.1980  -36.7430   23.1010 C   0  0  0  0  0  1  0  0  0  0  0  0
  -25.4420  -36.3380   23.9080 C   0  0  0  0  0  3  0  0  0  0  0  0
  -27.5800  -37.2250   24.7320 C   0  0  0  0  0  1  0  0  0  0  0  0
  -26.4750  -37.3910   23.7910 N   0  0  0  0  0  0  0  0  0  0  0  0
  -26.0690  -38.3110   23.9390 H   0  0  0  0  0  0  0  0  0  0  0  0
  -26.4030  -31.7200   25.1510 C   0  0  1  0  0  0  0  0  0  0  0  0
  -25.3010  -31.4820   26.2110 C   0  0  0  0  0  1  0  0  0  0  0  0
  -26.9830  -30.3420   24.7510 C   0  0  0  0  0  1  0  0  0  0  0  0
  -27.5520  -32.5050   25.8270 C   0  0  0  0  0  1  0  0  0  0  0  0
  2  1  1  0
  2  3  1  0
  2 50  1  0
  3 10  2  0
  4  6  1  0
  4  5  1  0
  5  8  1  0
  6  9  1  0
  8  7  1  0
  8 11  1  0
  9  3  1  0
  9  7  1  0
 12 20  1  0
 13 18  1  0
 14 15  1  0
 14 13  1  0
 16 15  1  0
 16 25  1  0
 16 17  1  0
 18 12  1  0
 18 17  1  0
 19 12  2  0
 20 11  1  0
 20 21  1  0
 22 23  2  0
 23 42  1  0
 24 23  1  0
 24 27  1  0
 25 22  1  0
 25 26  1  0
 26 24  2  0
 27 28  1  0
 28 29  2  0
 30 33  1  0
 30 29  1  0
 31 30  2  0
 32 31  1  0
 32 27  2  0
 33 34  1  0
 34 35  1  0
 35 36  2  0
 37 36  1  0
 37 41  1  0
 38 37  2  0
 39 34  2  0
 39 38  1  0
 40 39  1  0
 42 43  1  0
 43 46  1  0
 43 45  1  0
 44 42  2  0
 47 48  1  0
 47 22  1  0
 49 47  1  0
 50 51  1  0
 51 54  1  0
 53 51  1  0
 53 52  1  0
 55 57  1  0
 55 54  1  0
 56 67  2  0
 57 62  1  0
 58 66  1  0
 58 68  1  0
 59 65  1  0
 59 61  1  0
 60 66  1  0
 61 60  1  0
 62 61  2  0
 63 64  1  0
 63 57  2  0
 64 59  2  0
 65 58  1  0
 66 56  1  0
 68 70  2  0
 69 68  1  0
 71 69  1  0
 72 81  2  0
 72 77  1  0
 73 69  1  0
 73 77  1  0
 74 73  1  0
 75 76  1  0
 75 74  1  0
 76 72  1  0
 77 78  2  0
 78 79  1  0
 80 79  2  0
 81 80  1  0
 82 56  1  0
 82 83  1  0
 82 92  1  0
 83 86  1  0
 84 88  1  0
 84 83  1  0
 85 84  2  0
 88 87  1  0
 90 88  1  0
 90 91  1  0
 90 89  1  0
 92 95  1  1
 92 93  1  0
 94 92  1  0
M  ISO  4  12 100  20 100  54 101  55 101
M  END
>  <TORSDO>  (51) 
F 22

>  <SCORE>  (51) 
-13.644

>  <name>  (51) 
50

>  <ligand_id>  (51) 
50

>  <original_smiles>  (51) 
[H]c1c([H])c([H])c2c(c1[H])C([H])([H])C([H])([H])C([H])([H])C2([H])N([H])C(=O)C1([H])N(C(=O)C([H])(N([H])C(=O)C([H])(N([H])C([H])([H])[H])C([H])([H])[H])C(C([H])([H])[H])(C([H])([H])[H])C([H])([H])[H])C([H])([H])c2c([H])c(OC([H])([H])C([H])(C([H])([H])C([H])([H])[H])C([H])([H])C([H])(C(=O)N3C([H])([H])C([H])([H])C([H])([H])C([H])(C([H])([H])N([H])C(=O)N4C([H])([H])C([H])([H])C([H])([H])C([H])(n5nc(-c6c([H])c([H])c(Oc7c([H])c([H])c(F)c([H])c7F)c([H])c6[H])c(C(=O)N([H])[H])c5N([H])[H])C4([H])[H])C3([H])[H])C([H])([H])[H])c([H])c([H])c2C1([H])[H]

>  <smiles>  (51) 
[H]c1c([H])c([H])c2c(c1[H])C([H])([H])C([H])([H])C([H])([H])C2([H])N([H])C(=O)C1([H])N(C(=O)C([H])(N([H])C(=O)C([H])(N([H])C([H])([H])[H])C([H])([H])[H])C(C([H])([H])[H])(C([H])([H])[H])C([H])([H])[H])C([H])([H])c2c([H])c(OC([H])([H])C([H])(C([H])([H])C([H])([H])[H])C([H])([H])C([H])(C(=O)N3C([H])([H])C([H])([H])C([H])([H])C([H])(C([H])([H])N([H])C(=O)N4C([H])([H])C([H])([H])C([H])([H])C([H])(n5nc(-c6c([H])c([H])c(Oc7c([H])c([H])c(F)c([H])c7F)c([H])c6[H])c(C(=O)N([H])[H])c5N([H])[H])C4([H])[H])C3([H])[H])C([H])([H])[H])c([H])c([H])c2C1([H])[H]

> <Step>
111.0

> <Scaffold>
O=C(NC1CCCc2ccccc21)C1Cc2ccc(OCCCCC(=O)N3CCCC(CNC(=O)N4CCCC(n5ccc(-c6ccc(Oc7ccccc7)cc6)n5)C4)C3)cc2CN1

> <SMILES>
CCC(COc1ccc2c(c1)CN(C(=O)C(NC(=O)C(C)NC)C(C)(C)C)C(C(=O)NC1CCCc3ccccc31)C2)CC(C)C(=O)N1CCCC(CNC(=O)N2CCCC(n3nc(-c4ccc(Oc5ccc(F)cc5F)cc4)c(C(N)=O)c3N)C2)C1

> <Tanimoto ROCS sim>
0.23237325251102448

> <Custom alerts>
1.0

> <Linker Num Aromatic Rings>
1.0

> <Linker Effective Length>
1.0

> <ADV>
0.9931488633155823

> <PostDock Tanimoto ROCS sim>
0.9934318661689758

> <raw_Linker Num Aromatic Rings>
0.0

> <raw_Linker Effective Length>
9.0

> <raw_ADV>
-13.645000457763672

> <total_score>
0.9966451525688171

> <ID>
default_job_50

> <PostDock Tanimoto ROCS sim (re-score)>
0.98625267

> <raw_ADV (re-score)>
-13.644

> <Final Intermolecular Energy>
-30.792

> <Final Total Internal Energy>
-3.799

> <Torsional Free Energy>
17.148

> <Unbound System's Energy>
-3.799

$$$$
default_job_51
     RDKit          3D

 95104  0  0  1  0  0  0  0  0999 V2000
  -27.0680  -21.3720   18.9010 C   0  0  0  0  0  2  0  0  0  0  0  0
  -28.0850  -20.2340   19.0780 C   0  0  0  0  0  2  0  0  0  0  0  0
  -27.7550  -22.7460   18.9540 C   0  0  0  0  0  2  0  0  0  0  0  0
  -29.5000  -21.8330   20.4510 C   0  0  0  0  0  2  0  0  0  0  0  0
  -28.8590  -20.4070   20.3960 C   0  0  0  0  0  3  0  0  0  0  0  0
  -28.5270  -22.9440   20.2130 N   0  0  1  0  0  4  0  0  0  0  0  0
  -27.8690  -22.8970   20.9780 H   0  0  0  0  0  0  0  0  0  0  0  0
  -30.7090  -14.4690   20.4890 C   0  0  0  0  0  0  0  0  0  0  0  0
  -30.3510  -12.3060   19.3700 C   0  0  0  0  0  2  0  0  0  0  0  0
  -29.4320  -12.5220   18.1520 C   0  0  0  0  0  2  0  0  0  0  0  0
  -27.9550  -12.3980   18.5690 C   0  0  0  0  0  2  0  0  0  0  0  0
  -27.6120  -13.2480   19.8220 C   0  0  0  0  0  3  0  0  0  0  0  0
  -28.6600  -13.0530   20.9440 C   0  0  0  0  0  2  0  0  0  0  0  0
  -29.9900  -13.3180   20.3790 N   0  0  0  0  0  0  0  0  0  0  0  0
  -31.8550  -14.5430   20.0350 O   0  0  0  0  0  0  0  0  0  0  0  0
  -29.4620  -17.9280   20.8260 C   0  0  0  0  0  3  0  0  0  0  0  0
  -29.8660  -19.2630   20.5980 C   0  0  0  0  0  0  0  0  0  0  0  0
  -30.4560  -16.9230   20.8510 C   0  0  0  0  0  0  0  0  0  0  0  0
  -32.0420  -18.5750   20.5100 C   0  0  0  0  0  0  0  0  0  0  0  0
  -33.4980  -18.9250   20.3050 C   0  0  0  0  0  1  0  0  0  0  0  0
  -31.1630  -19.5590   20.4050 N   0  0  0  0  0  0  0  0  0  0  0  0
  -31.7470  -17.3040   20.7380 N   0  0  0  0  0  0  0  0  0  0  0  0
  -30.0520  -15.5530   20.9620 N   0  0  0  0  0  0  0  0  0  0  0  0
  -29.1060  -15.3870   21.2630 H   0  0  0  0  0  0  0  0  0  0  0  0
  -25.2100  -13.8600   20.5070 C   0  0  0  0  0  0  0  0  0  0  0  0
  -24.1380  -13.0900   20.8700 C   0  0  0  0  0  0  0  0  0  0  0  0
  -24.5970  -11.7370   20.8510 C   0  0  0  0  0  0  0  0  0  0  0  0
  -26.2560  -12.9760   20.2920 N   0  0  0  0  0  0  0  0  0  0  0  0
  -25.8900  -11.6950   20.5570 N   0  0  0  0  0  0  0  0  0  0  0  0
  -23.8660  -10.4770   21.0390 C   0  0  0  0  0  0  0  0  0  0  0  0
  -24.2830   -9.5150   21.9850 C   0  0  0  0  0  3  0  0  0  0  0  0
  -23.5520   -8.3210   22.1610 C   0  0  0  0  0  3  0  0  0  0  0  0
  -22.3900   -8.0790   21.3890 C   0  0  0  0  0  0  0  0  0  0  0  0
  -21.9930   -9.0300   20.4320 C   0  0  0  0  0  3  0  0  0  0  0  0
  -22.7250  -10.2160   20.2550 C   0  0  0  0  0  3  0  0  0  0  0  0
  -21.6320   -6.9360   21.4730 O   0  0  0  0  0  0  0  0  0  0  0  0
  -21.5600   -6.2040   22.6320 C   0  0  0  0  0  0  0  0  0  0  0  0
  -21.0940   -6.7670   23.8410 C   0  0  0  0  0  3  0  0  0  0  0  0
  -20.9700   -5.9610   24.9900 C   0  0  0  0  0  3  0  0  0  0  0  0
  -21.3010   -4.5930   24.9310 C   0  0  0  0  0  0  0  0  0  0  0  0
  -21.7600   -4.0300   23.7270 C   0  0  0  0  0  3  0  0  0  0  0  0
  -21.8850   -4.8340   22.5800 C   0  0  0  0  0  0  0  0  0  0  0  0
  -22.3070   -4.2820   21.4160 F   0  0  0  0  0  0  0  0  0  0  0  0
  -21.1750   -3.8170   26.0330 F   0  0  0  0  0  0  0  0  0  0  0  0
  -22.7390  -13.5720   21.1260 C   0  0  0  0  0  0  0  0  0  0  0  0
  -22.0000  -12.8810   21.9870 N   0  0  0  0  0  0  0  0  0  0  0  0
  -22.3090  -14.5960   20.5980 O   0  0  0  0  0  0  0  0  0  0  0  0
  -22.3610  -12.0510   22.4360 H   0  0  0  0  0  0  0  0  0  0  0  0
  -21.0620  -13.1860   22.2020 H   0  0  0  0  0  0  0  0  0  0  0  0
  -25.3800  -15.2290   20.3190 N   0  0  0  0  0  0  0  0  0  0  0  0
  -24.6070  -15.8800   20.4020 H   0  0  0  0  0  0  0  0  0  0  0  0
  -26.2200  -15.6570   19.9550 H   0  0  0  0  0  0  0  0  0  0  0  0
  -29.1570  -24.3040   20.2610 C   0  0  0  0  0  2  0  0  0  0  0  0
  -28.2150  -25.3870   20.8410 C   0  0  0  0  0  2  0  0  0  0  0  0
  -28.3940  -26.6800   20.2230 O   0  0  0  0  0  0  0  0  0  0  0  0
  -24.5930  -31.8950   23.2400 C   0  0  0  0  0  0  0  0  0  0  0  0
  -27.2490  -27.4450   20.1870 C   0  0  0  0  0  0  0  0  0  0  0  0
  -23.3950  -30.4820   21.6030 C   0  0  0  0  0  3  0  0  0  0  0  0
  -24.8570  -28.9500   20.1800 C   0  0  0  0  0  0  0  0  0  0  0  0
  -25.9230  -30.8440   21.4150 C   0  0  0  0  0  2  0  0  0  0  0  0
  -26.0130  -29.4750   20.7730 C   0  0  0  0  0  0  0  0  0  0  0  0
  -27.2160  -28.7310   20.7720 C   0  0  0  0  0  3  0  0  0  0  0  0
  -26.0820  -26.9460   19.5630 C   0  0  0  0  0  3  0  0  0  0  0  0
  -24.8870  -27.6870   19.5690 C   0  0  0  0  0  3  0  0  0  0  0  0
  -23.6110  -29.8050   20.2250 C   0  0  0  0  0  2  0  0  0  0  0  0
  -24.6560  -31.0860   22.1460 N   0  0  0  0  0  0  0  0  0  0  0  0
  -23.5050  -32.1860   23.7560 O   0  0  0  0  0  0  0  0  0  0  0  0
  -22.7450  -29.4580   22.5620 C   0  0  0  0  0  0  0  0  0  0  0  0
  -21.4210  -29.2750   22.4350 N   0  0  0  0  0  0  0  0  0  0  0  0
  -23.4290  -28.8320   23.3750 O   0  0  0  0  0  0  0  0  0  0  0  0
  -20.9320  -29.8340   21.7490 H   0  0  0  0  0  0  0  0  0  0  0  0
  -18.0420  -28.0970   22.9400 C   0  0  0  0  0  0  0  0  0  0  0  0
  -20.6020  -28.3350   23.2010 C   0  0  0  0  0  3  0  0  0  0  0  0
  -20.6920  -26.9090   22.6110 C   0  0  0  0  0  2  0  0  0  0  0  0
  -19.5830  -26.6020   21.6010 C   0  0  0  0  0  2  0  0  0  0  0  0
  -18.2060  -26.7520   22.2540 C   0  0  0  0  0  2  0  0  0  0  0  0
  -19.1680  -28.8480   23.3700 C   0  0  0  0  0  0  0  0  0  0  0  0
  -18.9610  -30.1090   23.9720 C   0  0  0  0  0  3  0  0  0  0  0  0
  -17.6620  -30.6200   24.1470 C   0  0  0  0  0  3  0  0  0  0  0  0
  -16.5500  -29.8650   23.7340 C   0  0  0  0  0  3  0  0  0  0  0  0
  -16.7410  -28.6060   23.1360 C   0  0  0  0  0  3  0  0  0  0  0  0
  -25.8770  -32.5200   23.8710 C   0  0  0  0  0  3  0  0  0  0  0  0
  -25.5710  -33.9170   24.1980 N   0  0  0  0  0  0  0  0  0  0  0  0
  -25.8970  -34.9650   23.4300 C   0  0  0  0  0  0  0  0  0  0  0  0
  -26.5630  -34.8570   22.3970 O   0  0  0  0  0  0  0  0  0  0  0  0
  -24.9780  -34.0740   25.0000 H   0  0  0  0  0  0  0  0  0  0  0  0
  -24.1640  -36.7500   23.0680 C   0  0  0  0  0  1  0  0  0  0  0  0
  -25.4070  -36.3530   23.8810 C   0  0  0  0  0  3  0  0  0  0  0  0
  -27.5380  -37.2480   24.7090 C   0  0  0  0  0  1  0  0  0  0  0  0
  -26.4380  -37.4080   23.7620 N   0  0  0  0  0  0  0  0  0  0  0  0
  -26.0300  -38.3280   23.9000 H   0  0  0  0  0  0  0  0  0  0  0  0
  -26.3880  -31.7470   25.1490 C   0  0  1  0  0  0  0  0  0  0  0  0
  -25.2890  -31.5100   26.2100 C   0  0  0  0  0  1  0  0  0  0  0  0
  -26.9740  -30.3710   24.7580 C   0  0  0  0  0  1  0  0  0  0  0  0
  -27.5360  -32.5410   25.8170 C   0  0  0  0  0  1  0  0  0  0  0  0
  1  3  1  0
  1  2  1  0
  2  5  1  0
  3  6  1  0
  5  4  1  0
  5 17  1  0
  6 53  1  0
  6  4  1  0
  6  7  1  1
  8 23  1  0
  9 14  1  0
 10 11  1  0
 10  9  1  0
 12 11  1  0
 12 28  1  0
 12 13  1  0
 14  8  1  0
 14 13  1  0
 15  8  2  0
 16 18  1  0
 17 16  2  0
 18 23  1  0
 19 22  1  0
 20 19  1  0
 21 19  2  0
 21 17  1  0
 22 18  2  0
 23 24  1  0
 25 26  2  0
 26 45  1  0
 27 26  1  0
 27 30  1  0
 28 25  1  0
 28 29  1  0
 29 27  2  0
 30 31  1  0
 31 32  2  0
 33 36  1  0
 33 32  1  0
 34 33  2  0
 35 34  1  0
 35 30  2  0
 36 37  1  0
 37 38  1  0
 38 39  2  0
 40 39  1  0
 40 44  1  0
 41 40  2  0
 42 37  2  0
 42 41  1  0
 43 42  1  0
 45 46  1  0
 46 49  1  0
 46 48  1  0
 47 45  2  0
 50 51  1  0
 50 25  1  0
 52 50  1  0
 53 54  1  0
 55 54  1  0
 56 67  2  0
 57 55  1  0
 57 62  1  0
 58 66  1  0
 58 68  1  0
 59 65  1  0
 59 61  1  0
 60 66  1  0
 61 60  1  0
 62 61  2  0
 63 64  1  0
 63 57  2  0
 64 59  2  0
 65 58  1  0
 66 56  1  0
 68 70  2  0
 69 68  1  0
 71 69  1  0
 72 81  2  0
 72 77  1  0
 73 69  1  0
 73 77  1  0
 74 73  1  0
 75 76  1  0
 75 74  1  0
 76 72  1  0
 77 78  2  0
 78 79  1  0
 80 79  2  0
 81 80  1  0
 82 56  1  0
 82 83  1  0
 82 92  1  0
 83 86  1  0
 84 88  1  0
 84 83  1  0
 85 84  2  0
 88 87  1  0
 90 88  1  0
 90 91  1  0
 90 89  1  0
 92 95  1  1
 92 93  1  0
 94 92  1  0
M  ISO  4   8 100  23 100  54 101  55 101
M  END
>  <TORSDO>  (52) 
F 18

>  <SCORE>  (52) 
-15.083

>  <name>  (52) 
51

>  <ligand_id>  (52) 
51

>  <original_smiles>  (52) 
[H]c1c(N([H])C(=O)N2C([H])([H])C([H])([H])C([H])([H])C([H])(n3nc(-c4c([H])c([H])c(Oc5c([H])c([H])c(F)c([H])c5F)c([H])c4[H])c(C(=O)N([H])[H])c3N([H])[H])C2([H])[H])nc(C([H])([H])[H])nc1C1([H])C([H])([H])C([H])([H])C([H])([H])[N+]([H])(C([H])([H])C([H])([H])Oc2c([H])c([H])c3c(c2[H])C([H])([H])N(C(=O)C([H])(N([H])C(=O)C([H])(N([H])C([H])([H])[H])C([H])([H])[H])C(C([H])([H])[H])(C([H])([H])[H])C([H])([H])[H])C([H])(C(=O)N([H])C2([H])c4c([H])c([H])c([H])c([H])c4C([H])([H])C([H])([H])C2([H])[H])C3([H])[H])C1([H])[H]

>  <smiles>  (52) 
[H]c1c(N([H])C(=O)N2C([H])([H])C([H])([H])C([H])([H])C([H])(n3nc(-c4c([H])c([H])c(Oc5c([H])c([H])c(F)c([H])c5F)c([H])c4[H])c(C(=O)N([H])[H])c3N([H])[H])C2([H])[H])nc(C([H])([H])[H])nc1C1([H])C([H])([H])C([H])([H])C([H])([H])[N+]([H])(C([H])([H])C([H])([H])Oc2c([H])c([H])c3c(c2[H])C([H])([H])N(C(=O)C([H])(N([H])C(=O)C([H])(N([H])C([H])([H])[H])C([H])([H])[H])C(C([H])([H])[H])(C([H])([H])[H])C([H])([H])[H])C([H])(C(=O)N([H])C2([H])c4c([H])c([H])c([H])c([H])c4C([H])([H])C([H])([H])C2([H])[H])C3([H])[H])C1([H])[H]

> <Step>
190.0

> <Scaffold>
O=C(NC1CCCc2ccccc21)C1Cc2ccc(OCCN3CCCC(c4cc(NC(=O)N5CCCC(n6ccc(-c7ccc(Oc8ccccc8)cc7)n6)C5)ncn4)C3)cc2CN1

> <SMILES>
CNC(C)C(=O)NC(C(=O)N1Cc2cc(OCCN3CCCC(c4cc(NC(=O)N5CCCC(n6nc(-c7ccc(Oc8ccc(F)cc8F)cc7)c(C(N)=O)c6N)C5)nc(C)n4)C3)ccc2CC1C(=O)NC1CCCc2ccccc21)C(C)(C)C

> <Tanimoto ROCS sim>
0.2467803806066513

> <Custom alerts>
1.0

> <Linker Num Aromatic Rings>
1.0

> <Linker Effective Length>
1.0

> <ADV>
0.9969925880432129

> <PostDock Tanimoto ROCS sim>
0.9895702004432678

> <raw_Linker Num Aromatic Rings>
1.0

> <raw_Linker Effective Length>
8.0

> <raw_ADV>
-15.081999778747559

> <total_score>
0.996640682220459

> <ID>
default_job_51

> <PostDock Tanimoto ROCS sim (re-score)>
0.98178476

> <raw_ADV (re-score)>
-15.083

> <Final Intermolecular Energy>
-30.513

> <Final Total Internal Energy>
-2.903

> <Torsional Free Energy>
15.43

> <Unbound System's Energy>
-2.903

$$$$
default_job_52
     RDKit          3D

 93102  0  0  1  0  0  0  0  0999 V2000
  -28.0350  -19.7440   18.8770 C   0  0  0  0  0  2  0  0  0  0  0  0
  -29.3430  -20.5500   20.6750 C   0  0  0  0  0  2  0  0  0  0  0  0
  -27.8840  -21.2880   18.9260 C   0  0  0  0  0  3  0  0  0  0  0  0
  -28.2750  -21.6690   20.3680 C   0  0  0  0  0  3  0  0  0  0  0  0
  -26.4850  -21.7480   18.4650 C   0  0  0  0  0  1  0  0  0  0  0  0
  -28.7650  -19.2920   20.0930 N   0  0  2  0  0  4  0  0  0  0  0  0
  -28.0310  -19.0210   20.7300 H   0  0  0  0  0  0  0  0  0  0  0  0
  -29.2250  -23.6560   21.6940 C   0  0  0  0  0  2  0  0  0  0  0  0
  -28.4580  -25.2560   20.6390 C   0  0  0  0  0  0  0  0  0  0  0  0
  -29.2120  -24.9930   21.7450 N   0  0  0  0  0  0  0  0  0  0  0  0
  -28.0980  -24.1840   19.9070 N   0  0  0  0  0  0  0  0  0  0  0  0
  -28.6120  -23.1140   20.6280 N   0  0  0  0  0  0  0  0  0  0  0  0
  -28.3800  -26.5760   20.1700 O   0  0  0  0  0  0  0  0  0  0  0  0
  -24.6080  -31.8940   23.2650 C   0  0  0  0  0  0  0  0  0  0  0  0
  -27.2150  -27.3400   20.2300 C   0  0  0  0  0  0  0  0  0  0  0  0
  -23.3960  -30.4860   21.6360 C   0  0  0  0  0  3  0  0  0  0  0  0
  -24.8410  -28.9160   20.2250 C   0  0  0  0  0  0  0  0  0  0  0  0
  -25.9330  -30.8000   21.4510 C   0  0  0  0  0  2  0  0  0  0  0  0
  -26.0060  -29.4170   20.8190 C   0  0  0  0  0  0  0  0  0  0  0  0
  -27.1940  -28.6370   20.8200 C   0  0  0  0  0  3  0  0  0  0  0  0
  -26.0320  -26.8730   19.6220 C   0  0  0  0  0  3  0  0  0  0  0  0
  -24.8520  -27.6450   19.6250 C   0  0  0  0  0  3  0  0  0  0  0  0
  -23.6070  -29.7940   20.2610 C   0  0  0  0  0  2  0  0  0  0  0  0
  -24.6650  -31.0740   22.1760 N   0  0  0  0  0  0  0  0  0  0  0  0
  -23.5220  -32.1980   23.7750 O   0  0  0  0  0  0  0  0  0  0  0  0
  -22.7320  -29.4770   22.6010 C   0  0  0  0  0  0  0  0  0  0  0  0
  -21.4070  -29.2990   22.4700 N   0  0  0  0  0  0  0  0  0  0  0  0
  -23.4080  -28.8530   23.4240 O   0  0  0  0  0  0  0  0  0  0  0  0
  -20.9200  -29.8530   21.7800 H   0  0  0  0  0  0  0  0  0  0  0  0
  -18.0260  -28.1090   22.9570 C   0  0  0  0  0  0  0  0  0  0  0  0
  -20.5840  -28.3660   23.2420 C   0  0  0  0  0  3  0  0  0  0  0  0
  -20.6870  -26.9320   22.6750 C   0  0  0  0  0  2  0  0  0  0  0  0
  -19.5910  -26.6050   21.6570 C   0  0  0  0  0  2  0  0  0  0  0  0
  -18.2050  -26.7570   22.2890 C   0  0  0  0  0  2  0  0  0  0  0  0
  -19.1450  -28.8730   23.3900 C   0  0  0  0  0  0  0  0  0  0  0  0
  -18.9220  -30.1400   23.9730 C   0  0  0  0  0  3  0  0  0  0  0  0
  -17.6170  -30.6430   24.1280 C   0  0  0  0  0  3  0  0  0  0  0  0
  -16.5140  -29.8760   23.7130 C   0  0  0  0  0  3  0  0  0  0  0  0
  -16.7210  -28.6120   23.1330 C   0  0  0  0  0  3  0  0  0  0  0  0
  -25.8970  -32.5130   23.8940 C   0  0  0  0  0  3  0  0  0  0  0  0
  -26.4080  -31.7400   25.1710 C   0  0  1  0  0  0  0  0  0  0  0  0
  -25.3140  -31.5070   26.2380 C   0  0  0  0  0  1  0  0  0  0  0  0
  -26.9860  -30.3590   24.7800 C   0  0  0  0  0  1  0  0  0  0  0  0
  -27.5620  -32.5280   25.8340 C   0  0  0  0  0  1  0  0  0  0  0  0
  -25.5980  -33.9130   24.2260 N   0  0  0  0  0  0  0  0  0  0  0  0
  -25.9190  -34.9610   23.4580 C   0  0  0  0  0  0  0  0  0  0  0  0
  -26.5720  -34.8550   22.4180 O   0  0  0  0  0  0  0  0  0  0  0  0
  -25.0220  -34.0700   25.0400 H   0  0  0  0  0  0  0  0  0  0  0  0
  -24.1820  -36.7490   23.1310 C   0  0  0  0  0  1  0  0  0  0  0  0
  -25.4400  -36.3510   23.9190 C   0  0  0  0  0  3  0  0  0  0  0  0
  -27.5910  -37.2390   24.7020 C   0  0  0  0  0  1  0  0  0  0  0  0
  -26.4690  -37.4040   23.7810 N   0  0  0  0  0  0  0  0  0  0  0  0
  -26.0650  -38.3240   23.9360 H   0  0  0  0  0  0  0  0  0  0  0  0
  -29.5820  -18.0280   19.8610 C   0  0  0  0  0  2  0  0  0  0  0  0
  -29.8650  -17.0810   21.0940 C   0  0  0  0  0  2  0  0  0  0  0  0
  -30.5610  -14.6010   20.4820 C   0  0  0  0  0  0  0  0  0  0  0  0
  -30.3800  -12.3900   19.3600 C   0  0  0  0  0  2  0  0  0  0  0  0
  -29.4300  -12.5310   18.1490 C   0  0  0  0  0  2  0  0  0  0  0  0
  -27.9550  -12.3690   18.5750 C   0  0  0  0  0  2  0  0  0  0  0  0
  -27.5980  -13.2190   19.8230 C   0  0  0  0  0  3  0  0  0  0  0  0
  -28.6490  -13.0230   20.9370 C   0  0  0  0  0  2  0  0  0  0  0  0
  -29.9620  -13.3770   20.3700 N   0  0  0  0  0  0  0  0  0  0  0  0
  -31.7170  -14.8100   20.1040 O   0  0  0  0  0  0  0  0  0  0  0  0
  -29.7200  -15.6030   20.8660 N   0  0  0  0  0  0  0  0  0  0  0  0
  -28.8020  -15.2520   21.0950 H   0  0  0  0  0  0  0  0  0  0  0  0
  -25.2000  -13.8360   20.5220 C   0  0  0  0  0  0  0  0  0  0  0  0
  -24.1300  -13.0670   20.8910 C   0  0  0  0  0  0  0  0  0  0  0  0
  -24.5890  -11.7150   20.8690 C   0  0  0  0  0  0  0  0  0  0  0  0
  -26.2430  -12.9500   20.2980 N   0  0  0  0  0  0  0  0  0  0  0  0
  -25.8790  -11.6710   20.5660 N   0  0  0  0  0  0  0  0  0  0  0  0
  -23.8610  -10.4560   21.0600 C   0  0  0  0  0  0  0  0  0  0  0  0
  -24.2970   -9.4850   21.9890 C   0  0  0  0  0  3  0  0  0  0  0  0
  -23.5710   -8.2880   22.1690 C   0  0  0  0  0  3  0  0  0  0  0  0
  -22.3940   -8.0550   21.4180 C   0  0  0  0  0  0  0  0  0  0  0  0
  -21.9770   -9.0130   20.4770 C   0  0  0  0  0  3  0  0  0  0  0  0
  -22.7050  -10.2010   20.2970 C   0  0  0  0  0  3  0  0  0  0  0  0
  -21.6380   -6.9100   21.5060 O   0  0  0  0  0  0  0  0  0  0  0  0
  -21.6030   -6.1580   22.6520 C   0  0  0  0  0  0  0  0  0  0  0  0
  -21.1990   -6.7050   23.8900 C   0  0  0  0  0  3  0  0  0  0  0  0
  -21.1110   -5.8800   25.0280 C   0  0  0  0  0  3  0  0  0  0  0  0
  -21.4160   -4.5090   24.9310 C   0  0  0  0  0  0  0  0  0  0  0  0
  -21.8120   -3.9610   23.6970 C   0  0  0  0  0  3  0  0  0  0  0  0
  -21.9020   -4.7840   22.5620 C   0  0  0  0  0  0  0  0  0  0  0  0
  -22.2640   -4.2490   21.3700 F   0  0  0  0  0  0  0  0  0  0  0  0
  -21.3240   -3.7130   26.0220 F   0  0  0  0  0  0  0  0  0  0  0  0
  -22.7320  -13.5470   21.1540 C   0  0  0  0  0  0  0  0  0  0  0  0
  -21.9970  -12.8530   22.0170 N   0  0  0  0  0  0  0  0  0  0  0  0
  -22.2980  -14.5730   20.6280 O   0  0  0  0  0  0  0  0  0  0  0  0
  -22.3610  -12.0240   22.4620 H   0  0  0  0  0  0  0  0  0  0  0  0
  -21.0570  -13.1530   22.2310 H   0  0  0  0  0  0  0  0  0  0  0  0
  -25.3660  -15.2060   20.3370 N   0  0  0  0  0  0  0  0  0  0  0  0
  -24.5870  -15.8510   20.4210 H   0  0  0  0  0  0  0  0  0  0  0  0
  -26.1950  -15.6370   19.9510 H   0  0  0  0  0  0  0  0  0  0  0  0
  1  3  1  0
  1  6  1  0
  3  5  1  0
  3  4  1  0
  4 12  1  0
  4  2  1  0
  6  2  1  0
  6  7  1  1
  8 10  1  0
  9 10  2  0
 11 12  1  0
 11  9  2  0
 12  8  1  0
 13 15  1  0
 13  9  1  0
 14 25  2  0
 15 20  1  0
 16 24  1  0
 16 26  1  0
 17 23  1  0
 17 19  1  0
 18 24  1  0
 19 20  2  0
 19 18  1  0
 21 22  1  0
 21 15  2  0
 22 17  2  0
 23 16  1  0
 24 14  1  0
 26 28  2  0
 27 26  1  0
 29 27  1  0
 30 39  2  0
 30 35  1  0
 31 27  1  0
 31 35  1  0
 32 31  1  0
 33 34  1  0
 33 32  1  0
 34 30  1  0
 35 36  2  0
 36 37  1  0
 38 37  2  0
 39 38  1  0
 40 14  1  0
 40 45  1  0
 40 41  1  0
 41 44  1  1
 41 42  1  0
 43 41  1  0
 45 48  1  0
 46 50  1  0
 46 45  1  0
 47 46  2  0
 50 49  1  0
 52 50  1  0
 52 53  1  0
 52 51  1  0
 54  6  1  0
 54 55  1  0
 56 64  1  0
 57 62  1  0
 58 59  1  0
 58 57  1  0
 60 59  1  0
 60 69  1  0
 60 61  1  0
 62 56  1  0
 62 61  1  0
 63 56  2  0
 64 55  1  0
 64 65  1  0
 66 67  2  0
 67 86  1  0
 68 67  1  0
 68 71  1  0
 69 66  1  0
 69 70  1  0
 70 68  2  0
 71 72  1  0
 72 73  2  0
 74 77  1  0
 74 73  1  0
 75 74  2  0
 76 75  1  0
 76 71  2  0
 77 78  1  0
 78 79  1  0
 79 80  2  0
 81 80  1  0
 81 85  1  0
 82 81  2  0
 83 78  2  0
 83 82  1  0
 84 83  1  0
 86 87  1  0
 87 90  1  0
 87 89  1  0
 88 86  2  0
 91 92  1  0
 91 66  1  0
 93 91  1  0
M  ISO  4   9 101  13 101  56 100  64 100
M  END
>  <TORSDO>  (53) 
F 19

>  <SCORE>  (53) 
-14.592

>  <name>  (53) 
52

>  <ligand_id>  (53) 
52

>  <original_smiles>  (53) 
[H]c1c([H])c([H])c2c(c1[H])C([H])([H])C([H])([H])C([H])([H])C2([H])N([H])C(=O)C1([H])N(C(=O)C([H])(N([H])C(=O)C([H])(N([H])C([H])([H])[H])C([H])([H])[H])C(C([H])([H])[H])(C([H])([H])[H])C([H])([H])[H])C([H])([H])c2c([H])c(Oc3nc([H])n(C4([H])C([H])(C([H])([H])[H])C([H])([H])[N+]([H])(C([H])([H])C([H])([H])N([H])C(=O)N5C([H])([H])C([H])([H])C([H])([H])C([H])(n6nc(-c7c([H])c([H])c(Oc8c([H])c([H])c(F)c([H])c8F)c([H])c7[H])c(C(=O)N([H])[H])c6N([H])[H])C5([H])[H])C4([H])[H])n3)c([H])c([H])c2C1([H])[H]

>  <smiles>  (53) 
[H]c1c([H])c([H])c2c(c1[H])C([H])([H])C([H])([H])C([H])([H])C2([H])N([H])C(=O)C1([H])N(C(=O)C([H])(N([H])C(=O)C([H])(N([H])C([H])([H])[H])C([H])([H])[H])C(C([H])([H])[H])(C([H])([H])[H])C([H])([H])[H])C([H])([H])c2c([H])c(Oc3nc([H])n(C4([H])C([H])(C([H])([H])[H])C([H])([H])[N+]([H])(C([H])([H])C([H])([H])N([H])C(=O)N5C([H])([H])C([H])([H])C([H])([H])C([H])(n6nc(-c7c([H])c([H])c(Oc8c([H])c([H])c(F)c([H])c8F)c([H])c7[H])c(C(=O)N([H])[H])c6N([H])[H])C5([H])[H])C4([H])[H])n3)c([H])c([H])c2C1([H])[H]

> <Step>
183.0

> <Scaffold>
O=C(NC1CCCc2ccccc21)C1Cc2ccc(Oc3ncn(C4CCN(CCNC(=O)N5CCCC(n6ccc(-c7ccc(Oc8ccccc8)cc7)n6)C5)C4)n3)cc2CN1

> <SMILES>
CNC(C)C(=O)NC(C(=O)N1Cc2cc(Oc3ncn(C4CN(CCNC(=O)N5CCCC(n6nc(-c7ccc(Oc8ccc(F)cc8F)cc7)c(C(N)=O)c6N)C5)CC4C)n3)ccc2CC1C(=O)NC1CCCc2ccccc21)C(C)(C)C

> <Tanimoto ROCS sim>
0.2761864960193634

> <Custom alerts>
1.0

> <Linker Num Aromatic Rings>
1.0

> <Linker Effective Length>
1.0

> <ADV>
0.996021032333374

> <PostDock Tanimoto ROCS sim>
0.9905152916908264

> <raw_Linker Num Aromatic Rings>
1.0

> <raw_Linker Effective Length>
8.0

> <raw_ADV>
-14.593999862670898

> <total_score>
0.9966340661048889

> <ID>
default_job_52

> <PostDock Tanimoto ROCS sim (re-score)>
0.9825934

> <raw_ADV (re-score)>
-14.592

> <Final Intermolecular Energy>
-30.373

> <Final Total Internal Energy>
-2.69

> <Torsional Free Energy>
15.781

> <Unbound System's Energy>
-2.69

$$$$
default_job_53
     RDKit          3D

 95104  0  0  1  0  0  0  0  0999 V2000
  -30.9690  -24.4390   19.5390 C   0  0  0  0  0  2  0  0  0  0  0  0
  -30.5660  -22.9660   19.4070 C   0  0  0  0  0  2  0  0  0  0  0  0
  -29.9560  -25.3230   18.8080 C   0  0  0  0  0  2  0  0  0  0  0  0
  -28.1380  -23.7410   19.8880 C   0  0  0  0  0  3  0  0  0  0  0  0
  -29.2950  -22.6420   20.2150 C   0  0  0  0  0  3  0  0  0  0  0  0
  -28.5300  -25.2460   19.3880 C   0  0  0  0  0  3  0  0  0  0  0  0
  -27.1550  -23.1310   18.8620 C   0  0  0  0  0  1  0  0  0  0  0  0
  -28.8780  -21.1490   20.1820 N   0  0  0  0  0  4  0  0  0  0  0  0
  -28.3920  -20.9960   21.0510 H   0  0  0  0  0  0  0  0  0  0  0  0
  -28.1840  -21.0500   19.4590 H   0  0  0  0  0  0  0  0  0  0  0  0
  -31.3250  -18.7030   18.3170 C   0  0  0  0  0  2  0  0  0  0  0  0
  -30.7330  -17.3390   18.6780 C   0  0  0  0  0  2  0  0  0  0  0  0
  -30.3050  -19.8270   18.5350 C   0  0  0  0  0  2  0  0  0  0  0  0
  -29.3730  -18.5080   20.4920 C   0  0  0  0  0  2  0  0  0  0  0  0
  -30.3480  -17.2610   20.1720 C   0  0  0  0  0  3  0  0  0  0  0  0
  -29.8680  -19.9780   20.0160 C   0  0  0  0  0  3  0  0  0  0  0  0
  -30.6230  -14.6840   20.3660 C   0  0  0  0  0  0  0  0  0  0  0  0
  -30.3670  -12.4320   19.3560 C   0  0  0  0  0  2  0  0  0  0  0  0
  -29.4340  -12.5310   18.1300 C   0  0  0  0  0  2  0  0  0  0  0  0
  -27.9640  -12.3660   18.5640 C   0  0  0  0  0  2  0  0  0  0  0  0
  -27.5950  -13.2590   19.7790 C   0  0  0  0  0  3  0  0  0  0  0  0
  -28.6530  -13.1720   20.9010 C   0  0  0  0  0  2  0  0  0  0  0  0
  -29.9550  -13.4880   20.3060 N   0  0  0  0  0  0  0  0  0  0  0  0
  -31.8170  -14.7430   20.0730 O   0  0  0  0  0  0  0  0  0  0  0  0
  -29.8870  -15.8450   20.4960 N   0  0  0  0  0  0  0  0  0  0  0  0
  -28.9080  -15.7260   20.7090 H   0  0  0  0  0  0  0  0  0  0  0  0
  -25.2080  -13.8510   20.5140 C   0  0  0  0  0  0  0  0  0  0  0  0
  -24.1420  -13.0770   20.8880 C   0  0  0  0  0  0  0  0  0  0  0  0
  -24.6070  -11.7260   20.8610 C   0  0  0  0  0  0  0  0  0  0  0  0
  -26.2510  -12.9730   20.2730 N   0  0  0  0  0  0  0  0  0  0  0  0
  -25.8960  -11.6900   20.5460 N   0  0  0  0  0  0  0  0  0  0  0  0
  -23.8830  -10.4640   21.0570 C   0  0  0  0  0  0  0  0  0  0  0  0
  -24.3320   -9.4910   21.9770 C   0  0  0  0  0  3  0  0  0  0  0  0
  -23.6070   -8.2940   22.1590 C   0  0  0  0  0  3  0  0  0  0  0  0
  -22.4210   -8.0610   21.4230 C   0  0  0  0  0  0  0  0  0  0  0  0
  -21.9930   -9.0230   20.4910 C   0  0  0  0  0  3  0  0  0  0  0  0
  -22.7180  -10.2110   20.3060 C   0  0  0  0  0  3  0  0  0  0  0  0
  -21.6680   -6.9150   21.5150 O   0  0  0  0  0  0  0  0  0  0  0  0
  -21.6500   -6.1570   22.6580 C   0  0  0  0  0  0  0  0  0  0  0  0
  -21.2690   -6.6970   23.9060 C   0  0  0  0  0  3  0  0  0  0  0  0
  -21.1960   -5.8650   25.0400 C   0  0  0  0  0  3  0  0  0  0  0  0
  -21.4940   -4.4940   24.9300 C   0  0  0  0  0  0  0  0  0  0  0  0
  -21.8700   -3.9530   23.6870 C   0  0  0  0  0  3  0  0  0  0  0  0
  -21.9440   -4.7820   22.5540 C   0  0  0  0  0  0  0  0  0  0  0  0
  -22.2870   -4.2520   21.3560 F   0  0  0  0  0  0  0  0  0  0  0  0
  -21.4170   -3.6930   26.0190 F   0  0  0  0  0  0  0  0  0  0  0  0
  -22.7450  -13.5540   21.1600 C   0  0  0  0  0  0  0  0  0  0  0  0
  -22.0200  -12.8610   22.0310 N   0  0  0  0  0  0  0  0  0  0  0  0
  -22.3070  -14.5780   20.6380 O   0  0  0  0  0  0  0  0  0  0  0  0
  -22.3860  -12.0340   22.4800 H   0  0  0  0  0  0  0  0  0  0  0  0
  -21.0810  -13.1630   22.2520 H   0  0  0  0  0  0  0  0  0  0  0  0
  -25.3680  -15.2220   20.3350 N   0  0  0  0  0  0  0  0  0  0  0  0
  -24.5960  -15.8690   20.4430 H   0  0  0  0  0  0  0  0  0  0  0  0
  -26.2060  -15.6630   19.9770 H   0  0  0  0  0  0  0  0  0  0  0  0
  -28.3540  -26.4780   20.2030 O   0  0  0  0  0  0  0  0  0  0  0  0
  -24.6420  -31.8880   23.2140 C   0  0  0  0  0  0  0  0  0  0  0  0
  -27.2210  -27.3130   20.1290 C   0  0  0  0  0  0  0  0  0  0  0  0
  -23.4190  -30.4810   21.5980 C   0  0  0  0  0  3  0  0  0  0  0  0
  -24.8520  -28.9320   20.1500 C   0  0  0  0  0  0  0  0  0  0  0  0
  -25.9580  -30.7930   21.3880 C   0  0  0  0  0  2  0  0  0  0  0  0
  -26.0270  -29.4170   20.7360 C   0  0  0  0  0  0  0  0  0  0  0  0
  -27.2090  -28.6170   20.7200 C   0  0  0  0  0  3  0  0  0  0  0  0
  -26.0150  -26.8780   19.5350 C   0  0  0  0  0  3  0  0  0  0  0  0
  -24.8490  -27.6680   19.5420 C   0  0  0  0  0  3  0  0  0  0  0  0
  -23.6150  -29.8050   20.2140 C   0  0  0  0  0  2  0  0  0  0  0  0
  -24.6930  -31.0690   22.1230 N   0  0  0  0  0  0  0  0  0  0  0  0
  -23.5590  -32.1910   23.7330 O   0  0  0  0  0  0  0  0  0  0  0  0
  -22.7690  -29.4630   22.5670 C   0  0  0  0  0  0  0  0  0  0  0  0
  -21.4430  -29.2810   22.4520 N   0  0  0  0  0  0  0  0  0  0  0  0
  -23.4570  -28.8400   23.3790 O   0  0  0  0  0  0  0  0  0  0  0  0
  -20.9470  -29.8360   21.7680 H   0  0  0  0  0  0  0  0  0  0  0  0
  -18.0740  -28.0680   22.9740 C   0  0  0  0  0  0  0  0  0  0  0  0
  -20.6320  -28.3430   23.2310 C   0  0  0  0  0  3  0  0  0  0  0  0
  -20.7390  -26.9090   22.6610 C   0  0  0  0  0  2  0  0  0  0  0  0
  -19.6340  -26.5760   21.6540 C   0  0  0  0  0  2  0  0  0  0  0  0
  -18.2550  -26.7170   22.3030 C   0  0  0  0  0  2  0  0  0  0  0  0
  -19.1900  -28.8390   23.3960 C   0  0  0  0  0  0  0  0  0  0  0  0
  -18.9670  -30.1020   23.9840 C   0  0  0  0  0  3  0  0  0  0  0  0
  -17.6590  -30.5960   24.1540 C   0  0  0  0  0  3  0  0  0  0  0  0
  -16.5580  -29.8240   23.7470 C   0  0  0  0  0  3  0  0  0  0  0  0
  -16.7650  -28.5610   23.1640 C   0  0  0  0  0  3  0  0  0  0  0  0
  -25.9320  -32.5100   23.8320 C   0  0  0  0  0  3  0  0  0  0  0  0
  -25.6250  -33.9040   24.1820 N   0  0  0  0  0  0  0  0  0  0  0  0
  -25.9330  -34.9650   23.4230 C   0  0  0  0  0  0  0  0  0  0  0  0
  -26.5780  -34.8720   22.3750 O   0  0  0  0  0  0  0  0  0  0  0  0
  -25.0480  -34.0490   24.9970 H   0  0  0  0  0  0  0  0  0  0  0  0
  -24.1790  -36.7450   23.1370 C   0  0  0  0  0  1  0  0  0  0  0  0
  -25.4500  -36.3470   23.9050 C   0  0  0  0  0  3  0  0  0  0  0  0
  -27.6050  -37.2410   24.6690 C   0  0  0  0  0  1  0  0  0  0  0  0
  -26.4700  -37.4080   23.7650 N   0  0  0  0  0  0  0  0  0  0  0  0
  -26.0630  -38.3240   23.9350 H   0  0  0  0  0  0  0  0  0  0  0  0
  -26.4650  -31.7280   25.0960 C   0  0  1  0  0  0  0  0  0  0  0  0
  -25.3860  -31.4850   26.1760 C   0  0  0  0  0  1  0  0  0  0  0  0
  -27.0420  -30.3530   24.6890 C   0  0  0  0  0  1  0  0  0  0  0  0
  -27.6260  -32.5180   25.7480 C   0  0  0  0  0  1  0  0  0  0  0  0
  2  1  1  0
  2  5  1  0
  3  6  1  0
  3  1  1  0
  4  7  1  0
  4  5  1  0
  5  8  1  0
  6  4  1  0
  6 55  1  0
  8  9  1  0
 10  8  1  0
 11 13  1  0
 11 12  1  0
 12 15  1  0
 13 16  1  0
 15 14  1  0
 15 25  1  0
 16  8  1  0
 16 14  1  0
 17 25  1  0
 18 23  1  0
 19 20  1  0
 19 18  1  0
 21 20  1  0
 21 30  1  0
 21 22  1  0
 23 17  1  0
 23 22  1  0
 24 17  2  0
 25 26  1  0
 27 28  2  0
 28 47  1  0
 29 28  1  0
 29 32  1  0
 30 27  1  0
 30 31  1  0
 31 29  2  0
 32 33  1  0
 33 34  2  0
 35 38  1  0
 35 34  1  0
 36 35  2  0
 37 36  1  0
 37 32  2  0
 38 39  1  0
 39 40  1  0
 40 41  2  0
 42 41  1  0
 42 46  1  0
 43 42  2  0
 44 39  2  0
 44 43  1  0
 45 44  1  0
 47 48  1  0
 48 51  1  0
 48 50  1  0
 49 47  2  0
 52 53  1  0
 52 27  1  0
 54 52  1  0
 56 67  2  0
 57 55  1  0
 57 62  1  0
 58 66  1  0
 58 68  1  0
 59 65  1  0
 59 61  1  0
 60 66  1  0
 61 60  1  0
 62 61  2  0
 63 64  1  0
 63 57  2  0
 64 59  2  0
 65 58  1  0
 66 56  1  0
 68 70  2  0
 69 68  1  0
 71 69  1  0
 72 81  2  0
 72 77  1  0
 73 69  1  0
 73 77  1  0
 74 73  1  0
 75 76  1  0
 75 74  1  0
 76 72  1  0
 77 78  2  0
 78 79  1  0
 80 79  2  0
 81 80  1  0
 82 56  1  0
 82 83  1  0
 82 92  1  0
 83 86  1  0
 84 88  1  0
 84 83  1  0
 85 84  2  0
 88 87  1  0
 90 88  1  0
 90 91  1  0
 90 89  1  0
 92 95  1  1
 92 93  1  0
 94 92  1  0
M  ISO  4   6 101  17 100  25 100  55 101
M  END
>  <TORSDO>  (54) 
F 18

>  <SCORE>  (54) 
-14.658

>  <name>  (54) 
53

>  <ligand_id>  (54) 
53

>  <original_smiles>  (54) 
[H]c1c([H])c([H])c2c(c1[H])C([H])([H])C([H])([H])C([H])([H])C2([H])N([H])C(=O)C1([H])N(C(=O)C([H])(N([H])C(=O)C([H])(N([H])C([H])([H])[H])C([H])([H])[H])C(C([H])([H])[H])(C([H])([H])[H])C([H])([H])[H])C([H])([H])c2c([H])c(OC3([H])C([H])([H])C([H])([H])C([H])([H])C([H])([N+]([H])([H])C4([H])C([H])([H])C([H])([H])C([H])([H])C([H])(N([H])C(=O)N5C([H])([H])C([H])([H])C([H])([H])C([H])(n6nc(-c7c([H])c([H])c(Oc8c([H])c([H])c(F)c([H])c8F)c([H])c7[H])c(C(=O)N([H])[H])c6N([H])[H])C5([H])[H])C4([H])[H])C3([H])C([H])([H])[H])c([H])c([H])c2C1([H])[H]

>  <smiles>  (54) 
[H]c1c([H])c([H])c2c(c1[H])C([H])([H])C([H])([H])C([H])([H])C2([H])N([H])C(=O)C1([H])N(C(=O)C([H])(N([H])C(=O)C([H])(N([H])C([H])([H])[H])C([H])([H])[H])C(C([H])([H])[H])(C([H])([H])[H])C([H])([H])[H])C([H])([H])c2c([H])c(OC3([H])C([H])([H])C([H])([H])C([H])([H])C([H])([N+]([H])([H])C4([H])C([H])([H])C([H])([H])C([H])([H])C([H])(N([H])C(=O)N5C([H])([H])C([H])([H])C([H])([H])C([H])(n6nc(-c7c([H])c([H])c(Oc8c([H])c([H])c(F)c([H])c8F)c([H])c7[H])c(C(=O)N([H])[H])c6N([H])[H])C5([H])[H])C4([H])[H])C3([H])C([H])([H])[H])c([H])c([H])c2C1([H])[H]

> <Step>
132.0

> <Scaffold>
O=C(NC1CCCc2ccccc21)C1Cc2ccc(OC3CCCC(NC4CCCC(NC(=O)N5CCCC(n6ccc(-c7ccc(Oc8ccccc8)cc7)n6)C5)C4)C3)cc2CN1

> <SMILES>
CNC(C)C(=O)NC(C(=O)N1Cc2cc(OC3CCCC(NC4CCCC(NC(=O)N5CCCC(n6nc(-c7ccc(Oc8ccc(F)cc8F)cc7)c(C(N)=O)c6N)C5)C4)C3C)ccc2CC1C(=O)NC1CCCc2ccccc21)C(C)(C)C

> <Tanimoto ROCS sim>
0.22421815991401672

> <Custom alerts>
1.0

> <Linker Num Aromatic Rings>
1.0

> <Linker Effective Length>
1.0

> <ADV>
0.996177613735199

> <PostDock Tanimoto ROCS sim>
0.9903412461280823

> <raw_Linker Num Aromatic Rings>
0.0

> <raw_Linker Effective Length>
7.0

> <raw_ADV>
-14.663999557495117

> <total_score>
0.9966297149658203

> <ID>
default_job_53

> <PostDock Tanimoto ROCS sim (re-score)>
0.982593

> <raw_ADV (re-score)>
-14.658

> <Final Intermolecular Energy>
-29.653

> <Final Total Internal Energy>
-2.816

> <Torsional Free Energy>
14.996

> <Unbound System's Energy>
-2.816

$$$$
default_job_54
     RDKit          3D

 91 99  0  0  1  0  0  0  0  0999 V2000
  -29.1840  -24.2450   20.7370 C   0  0  0  0  0  0  0  0  0  0  0  0
  -30.6190  -22.1850   20.8310 C   0  0  0  0  0  2  0  0  0  0  0  0
  -28.5320  -21.8070   20.6380 C   0  0  0  0  0  2  0  0  0  0  0  0
  -29.7290  -20.9550   21.1420 C   0  0  0  0  0  3  0  0  0  0  0  0
  -29.4500  -22.9100   20.3100 N   0  0  0  0  0  0  0  0  0  0  0  0
  -29.7860  -24.7310   21.6980 O   0  0  0  0  0  0  0  0  0  0  0  0
  -30.1010  -19.7070   20.3750 N   0  0  0  0  0  4  0  0  0  0  0  0
  -31.1050  -19.6430   20.4370 H   0  0  0  0  0  0  0  0  0  0  0  0
  -29.8900  -19.8330   19.3960 H   0  0  0  0  0  0  0  0  0  0  0  0
  -29.5740  -18.3700   20.8510 C   0  0  0  0  0  2  0  0  0  0  0  0
  -30.4450  -17.1260   20.3950 C   0  0  0  0  0  2  0  0  0  0  0  0
  -30.6500  -14.6070   20.3660 C   0  0  0  0  0  0  0  0  0  0  0  0
  -30.3370  -12.3930   19.3050 C   0  0  0  0  0  2  0  0  0  0  0  0
  -29.3910  -12.5360   18.0960 C   0  0  0  0  0  2  0  0  0  0  0  0
  -27.9280  -12.3840   18.5440 C   0  0  0  0  0  2  0  0  0  0  0  0
  -27.5860  -13.2650   19.7740 C   0  0  0  0  0  3  0  0  0  0  0  0
  -28.6520  -13.1390   20.8870 C   0  0  0  0  0  2  0  0  0  0  0  0
  -29.9620  -13.4280   20.2890 N   0  0  0  0  0  0  0  0  0  0  0  0
  -31.8070  -14.7040   19.9520 O   0  0  0  0  0  0  0  0  0  0  0  0
  -29.9570  -15.7360   20.6930 N   0  0  0  0  0  0  0  0  0  0  0  0
  -29.0050  -15.6150   21.0060 H   0  0  0  0  0  0  0  0  0  0  0  0
  -25.1980  -13.8750   20.5090 C   0  0  0  0  0  0  0  0  0  0  0  0
  -24.1310  -13.1060   20.8850 C   0  0  0  0  0  0  0  0  0  0  0  0
  -24.5890  -11.7530   20.8540 C   0  0  0  0  0  0  0  0  0  0  0  0
  -26.2380  -12.9920   20.2710 N   0  0  0  0  0  0  0  0  0  0  0  0
  -25.8770  -11.7100   20.5400 N   0  0  0  0  0  0  0  0  0  0  0  0
  -23.8590  -10.4930   21.0490 C   0  0  0  0  0  0  0  0  0  0  0  0
  -24.3030   -9.5130   21.9630 C   0  0  0  0  0  3  0  0  0  0  0  0
  -23.5740   -8.3190   22.1430 C   0  0  0  0  0  3  0  0  0  0  0  0
  -22.3840   -8.0960   21.4110 C   0  0  0  0  0  0  0  0  0  0  0  0
  -21.9590   -9.0660   20.4850 C   0  0  0  0  0  3  0  0  0  0  0  0
  -22.6890  -10.2520   20.3020 C   0  0  0  0  0  3  0  0  0  0  0  0
  -21.6220   -6.9580   21.5030 O   0  0  0  0  0  0  0  0  0  0  0  0
  -21.6080   -6.1910   22.6420 C   0  0  0  0  0  0  0  0  0  0  0  0
  -21.2460   -6.7290   23.8970 C   0  0  0  0  0  3  0  0  0  0  0  0
  -21.1800   -5.8920   25.0280 C   0  0  0  0  0  3  0  0  0  0  0  0
  -21.4610   -4.5180   24.9070 C   0  0  0  0  0  0  0  0  0  0  0  0
  -21.8180   -3.9800   23.6570 C   0  0  0  0  0  3  0  0  0  0  0  0
  -21.8870   -4.8140   22.5270 C   0  0  0  0  0  0  0  0  0  0  0  0
  -22.2090   -4.2870   21.3220 F   0  0  0  0  0  0  0  0  0  0  0  0
  -21.3890   -3.7120   25.9910 F   0  0  0  0  0  0  0  0  0  0  0  0
  -22.7360  -13.5890   21.1590 C   0  0  0  0  0  0  0  0  0  0  0  0
  -22.0080  -12.8980   22.0300 N   0  0  0  0  0  0  0  0  0  0  0  0
  -22.3020  -14.6160   20.6390 O   0  0  0  0  0  0  0  0  0  0  0  0
  -22.3730  -12.0630   22.4660 H   0  0  0  0  0  0  0  0  0  0  0  0
  -21.0750  -13.2080   22.2600 H   0  0  0  0  0  0  0  0  0  0  0  0
  -25.3660  -15.2460   20.3290 N   0  0  0  0  0  0  0  0  0  0  0  0
  -24.5930  -15.8940   20.4340 H   0  0  0  0  0  0  0  0  0  0  0  0
  -26.2030  -15.6820   19.9610 H   0  0  0  0  0  0  0  0  0  0  0  0
  -28.2290  -25.1430   19.8940 C   0  0  0  0  0  2  0  0  0  0  0  0
  -28.3510  -26.5770   20.1880 O   0  0  0  0  0  0  0  0  0  0  0  0
  -24.6160  -31.8840   23.2330 C   0  0  0  0  0  0  0  0  0  0  0  0
  -27.2070  -27.3730   20.1350 C   0  0  0  0  0  0  0  0  0  0  0  0
  -23.3950  -30.4850   21.6050 C   0  0  0  0  0  3  0  0  0  0  0  0
  -24.8300  -28.9460   20.1630 C   0  0  0  0  0  0  0  0  0  0  0  0
  -25.9290  -30.8110   21.4020 C   0  0  0  0  0  2  0  0  0  0  0  0
  -26.0010  -29.4400   20.7530 C   0  0  0  0  0  0  0  0  0  0  0  0
  -27.1880  -28.6620   20.7360 C   0  0  0  0  0  3  0  0  0  0  0  0
  -26.0180  -26.9270   19.5090 C   0  0  0  0  0  3  0  0  0  0  0  0
  -24.8380  -27.6940   19.5340 C   0  0  0  0  0  3  0  0  0  0  0  0
  -23.5920  -29.8140   20.2220 C   0  0  0  0  0  2  0  0  0  0  0  0
  -24.6650  -31.0750   22.1380 N   0  0  0  0  0  0  0  0  0  0  0  0
  -23.5340  -32.1860   23.7560 O   0  0  0  0  0  0  0  0  0  0  0  0
  -22.7440  -29.4650   22.5680 C   0  0  0  0  0  0  0  0  0  0  0  0
  -21.4190  -29.2830   22.4470 N   0  0  0  0  0  0  0  0  0  0  0  0
  -23.4300  -28.8380   23.3800 O   0  0  0  0  0  0  0  0  0  0  0  0
  -20.9240  -29.8450   21.7700 H   0  0  0  0  0  0  0  0  0  0  0  0
  -18.0510  -28.0740   22.9530 C   0  0  0  0  0  0  0  0  0  0  0  0
  -20.6080  -28.3440   23.2230 C   0  0  0  0  0  3  0  0  0  0  0  0
  -20.7130  -26.9110   22.6540 C   0  0  0  0  0  2  0  0  0  0  0  0
  -19.6140  -26.5790   21.6400 C   0  0  0  0  0  2  0  0  0  0  0  0
  -18.2310  -26.7220   22.2840 C   0  0  0  0  0  2  0  0  0  0  0  0
  -19.1660  -28.8420   23.3810 C   0  0  0  0  0  0  0  0  0  0  0  0
  -18.9440  -30.1060   23.9670 C   0  0  0  0  0  3  0  0  0  0  0  0
  -17.6380  -30.6050   24.1300 C   0  0  0  0  0  3  0  0  0  0  0  0
  -16.5360  -29.8360   23.7210 C   0  0  0  0  0  3  0  0  0  0  0  0
  -16.7440  -28.5720   23.1390 C   0  0  0  0  0  3  0  0  0  0  0  0
  -25.9090  -32.5040   23.8500 C   0  0  0  0  0  3  0  0  0  0  0  0
  -26.4390  -31.7230   25.1150 C   0  0  1  0  0  0  0  0  0  0  0  0
  -25.3570  -31.4790   26.1910 C   0  0  0  0  0  1  0  0  0  0  0  0
  -27.0190  -30.3480   24.7080 C   0  0  0  0  0  1  0  0  0  0  0  0
  -27.5980  -32.5110   25.7730 C   0  0  0  0  0  1  0  0  0  0  0  0
  -25.6090  -33.9000   24.1970 N   0  0  0  0  0  0  0  0  0  0  0  0
  -25.9200  -34.9550   23.4330 C   0  0  0  0  0  0  0  0  0  0  0  0
  -26.5670  -34.8560   22.3860 O   0  0  0  0  0  0  0  0  0  0  0  0
  -25.0380  -34.0500   25.0140 H   0  0  0  0  0  0  0  0  0  0  0  0
  -24.1700  -36.7370   23.1370 C   0  0  0  0  0  1  0  0  0  0  0  0
  -25.4390  -36.3400   23.9070 C   0  0  0  0  0  3  0  0  0  0  0  0
  -27.5950  -37.2360   24.6710 C   0  0  0  0  0  1  0  0  0  0  0  0
  -26.4610  -37.4000   23.7650 N   0  0  0  0  0  0  0  0  0  0  0  0
  -26.0520  -38.3160   23.9310 H   0  0  0  0  0  0  0  0  0  0  0  0
  1  6  2  0
  2  4  1  0
  3  4  1  0
  4  7  1  0
  5  3  1  0
  5  1  1  0
  5  2  1  0
  7  8  1  0
  7 10  1  0
  9  7  1  0
 11 20  1  0
 11 10  1  0
 12 20  1  0
 13 18  1  0
 14 15  1  0
 14 13  1  0
 16 15  1  0
 16 25  1  0
 16 17  1  0
 18 12  1  0
 18 17  1  0
 19 12  2  0
 20 21  1  0
 22 23  2  0
 23 42  1  0
 24 23  1  0
 24 27  1  0
 25 22  1  0
 25 26  1  0
 26 24  2  0
 27 28  1  0
 28 29  2  0
 30 33  1  0
 30 29  1  0
 31 30  2  0
 32 31  1  0
 32 27  2  0
 33 34  1  0
 34 35  1  0
 35 36  2  0
 37 36  1  0
 37 41  1  0
 38 37  2  0
 39 34  2  0
 39 38  1  0
 40 39  1  0
 42 43  1  0
 43 46  1  0
 43 45  1  0
 44 42  2  0
 47 48  1  0
 47 22  1  0
 49 47  1  0
 50 51  1  0
 50  1  1  0
 52 63  2  0
 53 51  1  0
 53 58  1  0
 54 62  1  0
 54 64  1  0
 55 61  1  0
 55 57  1  0
 56 62  1  0
 57 56  1  0
 58 57  2  0
 59 60  1  0
 59 53  2  0
 60 55  2  0
 61 54  1  0
 62 52  1  0
 64 66  2  0
 65 64  1  0
 67 65  1  0
 68 77  2  0
 68 73  1  0
 69 65  1  0
 69 73  1  0
 70 69  1  0
 71 72  1  0
 71 70  1  0
 72 68  1  0
 73 74  2  0
 74 75  1  0
 76 75  2  0
 77 76  1  0
 78 52  1  0
 78 83  1  0
 78 79  1  0
 79 82  1  1
 79 80  1  0
 81 79  1  0
 83 86  1  0
 84 88  1  0
 84 83  1  0
 85 84  2  0
 88 87  1  0
 90 88  1  0
 90 91  1  0
 90 89  1  0
M  ISO  4  12 100  20 100  50 101  51 101
M  END
>  <TORSDO>  (55) 
F 20

>  <SCORE>  (55) 
-13.738

>  <name>  (55) 
54

>  <ligand_id>  (55) 
54

>  <original_smiles>  (55) 
[H]c1c([H])c([H])c2c(c1[H])C([H])([H])C([H])([H])C([H])([H])C2([H])N([H])C(=O)C1([H])N(C(=O)C([H])(N([H])C(=O)C([H])(N([H])C([H])([H])[H])C([H])([H])[H])C(C([H])([H])[H])(C([H])([H])[H])C([H])([H])[H])C([H])([H])c2c([H])c(OC([H])([H])C(=O)N3C([H])([H])C([H])([N+]([H])([H])C([H])([H])C([H])([H])N([H])C(=O)N4C([H])([H])C([H])([H])C([H])([H])C([H])(n5nc(-c6c([H])c([H])c(Oc7c([H])c([H])c(F)c([H])c7F)c([H])c6[H])c(C(=O)N([H])[H])c5N([H])[H])C4([H])[H])C3([H])[H])c([H])c([H])c2C1([H])[H]

>  <smiles>  (55) 
[H]c1c([H])c([H])c2c(c1[H])C([H])([H])C([H])([H])C([H])([H])C2([H])N([H])C(=O)C1([H])N(C(=O)C([H])(N([H])C(=O)C([H])(N([H])C([H])([H])[H])C([H])([H])[H])C(C([H])([H])[H])(C([H])([H])[H])C([H])([H])[H])C([H])([H])c2c([H])c(OC([H])([H])C(=O)N3C([H])([H])C([H])([N+]([H])([H])C([H])([H])C([H])([H])N([H])C(=O)N4C([H])([H])C([H])([H])C([H])([H])C([H])(n5nc(-c6c([H])c([H])c(Oc7c([H])c([H])c(F)c([H])c7F)c([H])c6[H])c(C(=O)N([H])[H])c5N([H])[H])C4([H])[H])C3([H])[H])c([H])c([H])c2C1([H])[H]

> <Step>
138.0

> <Scaffold>
O=C(NC1CCCc2ccccc21)C1Cc2ccc(OCC(=O)N3CC(NCCNC(=O)N4CCCC(n5ccc(-c6ccc(Oc7ccccc7)cc6)n5)C4)C3)cc2CN1

> <SMILES>
CNC(C)C(=O)NC(C(=O)N1Cc2cc(OCC(=O)N3CC(NCCNC(=O)N4CCCC(n5nc(-c6ccc(Oc7ccc(F)cc7F)cc6)c(C(N)=O)c5N)C4)C3)ccc2CC1C(=O)NC1CCCc2ccccc21)C(C)(C)C

> <Tanimoto ROCS sim>
0.2269061803817749

> <Custom alerts>
1.0

> <Linker Num Aromatic Rings>
1.0

> <Linker Effective Length>
1.0

> <ADV>
0.993253767490387

> <PostDock Tanimoto ROCS sim>
0.9932619333267212

> <raw_Linker Num Aromatic Rings>
0.0

> <raw_Linker Effective Length>
8.0

> <raw_ADV>
-13.67199993133545

> <total_score>
0.9966288805007935

> <ID>
default_job_54

> <PostDock Tanimoto ROCS sim (re-score)>
0.9834322

> <raw_ADV (re-score)>
-13.738

> <Final Intermolecular Energy>
-29.398

> <Final Total Internal Energy>
-2.599

> <Torsional Free Energy>
15.66

> <Unbound System's Energy>
-2.599

$$$$
default_job_55
     RDKit          3D

 91 99  0  0  1  0  0  0  0  0999 V2000
  -29.2610  -24.4750   21.3050 C   0  0  0  0  0  2  0  0  0  0  0  0
  -28.1030  -24.0470   19.6960 C   0  0  0  0  0  2  0  0  0  0  0  0
  -28.0740  -25.2350   20.6860 C   0  0  0  0  0  3  0  0  0  0  0  0
  -28.6360  -23.2330   20.8080 N   0  0  1  0  0  4  0  0  0  0  0  0
  -27.8960  -22.9730   21.4420 H   0  0  0  0  0  0  0  0  0  0  0  0
  -28.3290  -26.5940   20.2140 O   0  0  0  0  0  0  0  0  0  0  0  0
  -24.6020  -31.9100   23.2400 C   0  0  0  0  0  0  0  0  0  0  0  0
  -27.2030  -27.4060   20.1660 C   0  0  0  0  0  0  0  0  0  0  0  0
  -23.3840  -30.5000   21.6190 C   0  0  0  0  0  3  0  0  0  0  0  0
  -24.8240  -28.9580   20.1800 C   0  0  0  0  0  0  0  0  0  0  0  0
  -25.9140  -30.8410   21.4050 C   0  0  0  0  0  2  0  0  0  0  0  0
  -25.9920  -29.4680   20.7610 C   0  0  0  0  0  0  0  0  0  0  0  0
  -27.1880  -28.7030   20.7430 C   0  0  0  0  0  3  0  0  0  0  0  0
  -26.0180  -26.9280   19.5650 C   0  0  0  0  0  3  0  0  0  0  0  0
  -24.8350  -27.6900   19.5730 C   0  0  0  0  0  3  0  0  0  0  0  0
  -23.5830  -29.8210   20.2370 C   0  0  0  0  0  2  0  0  0  0  0  0
  -24.6540  -31.0950   22.1480 N   0  0  0  0  0  0  0  0  0  0  0  0
  -23.5200  -32.2090   23.7630 O   0  0  0  0  0  0  0  0  0  0  0  0
  -22.7360  -29.4820   22.5860 C   0  0  0  0  0  0  0  0  0  0  0  0
  -21.4090  -29.3000   22.4680 N   0  0  0  0  0  0  0  0  0  0  0  0
  -23.4230  -28.8580   23.3990 O   0  0  0  0  0  0  0  0  0  0  0  0
  -20.9140  -29.8570   21.7850 H   0  0  0  0  0  0  0  0  0  0  0  0
  -18.0400  -28.0900   22.9740 C   0  0  0  0  0  0  0  0  0  0  0  0
  -20.5970  -28.3620   23.2440 C   0  0  0  0  0  3  0  0  0  0  0  0
  -20.7070  -26.9280   22.6760 C   0  0  0  0  0  2  0  0  0  0  0  0
  -19.6060  -26.5940   21.6640 C   0  0  0  0  0  2  0  0  0  0  0  0
  -18.2230  -26.7380   22.3070 C   0  0  0  0  0  2  0  0  0  0  0  0
  -19.1550  -28.8590   23.4000 C   0  0  0  0  0  0  0  0  0  0  0  0
  -18.9320  -30.1240   23.9830 C   0  0  0  0  0  3  0  0  0  0  0  0
  -17.6250  -30.6220   24.1460 C   0  0  0  0  0  3  0  0  0  0  0  0
  -16.5240  -29.8500   23.7380 C   0  0  0  0  0  3  0  0  0  0  0  0
  -16.7320  -28.5860   23.1570 C   0  0  0  0  0  3  0  0  0  0  0  0
  -25.8940  -32.5320   23.8590 C   0  0  0  0  0  3  0  0  0  0  0  0
  -26.4230  -31.7530   25.1260 C   0  0  1  0  0  0  0  0  0  0  0  0
  -25.3400  -31.5100   26.2020 C   0  0  0  0  0  1  0  0  0  0  0  0
  -27.0010  -30.3780   24.7160 C   0  0  0  0  0  1  0  0  0  0  0  0
  -27.5810  -32.5430   25.7800 C   0  0  0  0  0  1  0  0  0  0  0  0
  -25.5890  -33.9270   24.2020 N   0  0  0  0  0  0  0  0  0  0  0  0
  -25.9000  -34.9820   23.4380 C   0  0  0  0  0  0  0  0  0  0  0  0
  -26.5450  -34.8830   22.3910 O   0  0  0  0  0  0  0  0  0  0  0  0
  -25.0140  -34.0800   25.0170 H   0  0  0  0  0  0  0  0  0  0  0  0
  -24.1470  -36.7610   23.1370 C   0  0  0  0  0  1  0  0  0  0  0  0
  -25.4160  -36.3670   23.9090 C   0  0  0  0  0  3  0  0  0  0  0  0
  -27.5710  -37.2660   24.6680 C   0  0  0  0  0  1  0  0  0  0  0  0
  -26.4380  -37.4280   23.7620 N   0  0  0  0  0  0  0  0  0  0  0  0
  -26.0310  -38.3440   23.9230 H   0  0  0  0  0  0  0  0  0  0  0  0
  -29.5330  -22.0530   20.5360 C   0  0  0  0  0  2  0  0  0  0  0  0
  -28.8190  -20.6500   20.5960 C   0  0  0  0  0  2  0  0  0  0  0  0
  -29.3410  -18.1580   20.6010 C   0  0  0  0  0  0  0  0  0  0  0  0
  -29.7150  -19.4610   20.5190 N   0  0  0  0  0  0  0  0  0  0  0  0
  -28.1590  -17.8240   20.6990 O   0  0  0  0  0  0  0  0  0  0  0  0
  -30.7080  -19.6390   20.4330 H   0  0  0  0  0  0  0  0  0  0  0  0
  -30.4400  -17.0620   20.5830 C   0  0  0  0  0  2  0  0  0  0  0  0
  -30.6590  -14.5710   20.3100 C   0  0  0  0  0  0  0  0  0  0  0  0
  -30.3580  -12.3670   19.2360 C   0  0  0  0  0  2  0  0  0  0  0  0
  -29.4040  -12.5250   18.0350 C   0  0  0  0  0  2  0  0  0  0  0  0
  -27.9380  -12.3830   18.4880 C   0  0  0  0  0  2  0  0  0  0  0  0
  -27.6070  -13.2490   19.7340 C   0  0  0  0  0  3  0  0  0  0  0  0
  -28.6800  -13.0870   20.8340 C   0  0  0  0  0  2  0  0  0  0  0  0
  -29.9860  -13.3870   20.2320 N   0  0  0  0  0  0  0  0  0  0  0  0
  -31.8090  -14.6990   19.8820 O   0  0  0  0  0  0  0  0  0  0  0  0
  -29.9540  -15.6600   20.6920 N   0  0  0  0  0  0  0  0  0  0  0  0
  -28.9930  -15.5390   20.9750 H   0  0  0  0  0  0  0  0  0  0  0  0
  -25.2220  -13.8530   20.4830 C   0  0  0  0  0  0  0  0  0  0  0  0
  -24.1610  -13.0790   20.8670 C   0  0  0  0  0  0  0  0  0  0  0  0
  -24.6230  -11.7280   20.8310 C   0  0  0  0  0  0  0  0  0  0  0  0
  -26.2650  -12.9720   20.2380 N   0  0  0  0  0  0  0  0  0  0  0  0
  -25.9090  -11.6900   20.5070 N   0  0  0  0  0  0  0  0  0  0  0  0
  -23.8990  -10.4650   21.0340 C   0  0  0  0  0  0  0  0  0  0  0  0
  -24.3520   -9.4930   21.9520 C   0  0  0  0  0  3  0  0  0  0  0  0
  -23.6290   -8.2960   22.1410 C   0  0  0  0  0  3  0  0  0  0  0  0
  -22.4380   -8.0630   21.4130 C   0  0  0  0  0  0  0  0  0  0  0  0
  -22.0040   -9.0240   20.4830 C   0  0  0  0  0  3  0  0  0  0  0  0
  -22.7280  -10.2120   20.2910 C   0  0  0  0  0  3  0  0  0  0  0  0
  -21.6840   -6.9180   21.5120 O   0  0  0  0  0  0  0  0  0  0  0  0
  -21.6710   -6.1630   22.6580 C   0  0  0  0  0  0  0  0  0  0  0  0
  -21.2980   -6.7080   23.9050 C   0  0  0  0  0  3  0  0  0  0  0  0
  -21.2300   -5.8800   25.0440 C   0  0  0  0  0  3  0  0  0  0  0  0
  -21.5260   -4.5080   24.9360 C   0  0  0  0  0  0  0  0  0  0  0  0
  -21.8920   -3.9630   23.6930 C   0  0  0  0  0  3  0  0  0  0  0  0
  -21.9610   -4.7870   22.5560 C   0  0  0  0  0  0  0  0  0  0  0  0
  -22.2940   -4.2520   21.3570 F   0  0  0  0  0  0  0  0  0  0  0  0
  -21.4530   -3.7100   26.0270 F   0  0  0  0  0  0  0  0  0  0  0  0
  -22.7670  -13.5570   21.1580 C   0  0  0  0  0  0  0  0  0  0  0  0
  -22.0540  -12.8620   22.0390 N   0  0  0  0  0  0  0  0  0  0  0  0
  -22.3190  -14.5790   20.6410 O   0  0  0  0  0  0  0  0  0  0  0  0
  -22.4300  -12.0340   22.4770 H   0  0  0  0  0  0  0  0  0  0  0  0
  -21.1210  -13.1640   22.2800 H   0  0  0  0  0  0  0  0  0  0  0  0
  -25.3840  -15.2240   20.3060 N   0  0  0  0  0  0  0  0  0  0  0  0
  -24.6220  -15.8780   20.4510 H   0  0  0  0  0  0  0  0  0  0  0  0
  -26.2410  -15.6780   20.0150 H   0  0  0  0  0  0  0  0  0  0  0  0
  2  3  1  0
  2  4  1  0
  3  6  1  0
  3  1  1  0
  4  1  1  0
  4  5  1  1
  7 18  2  0
  8  6  1  0
  8 13  1  0
  9 17  1  0
  9 19  1  0
 10 16  1  0
 10 12  1  0
 11 17  1  0
 12 11  1  0
 13 12  2  0
 14 15  1  0
 14  8  2  0
 15 10  2  0
 16  9  1  0
 17  7  1  0
 19 21  2  0
 20 19  1  0
 22 20  1  0
 23 32  2  0
 23 28  1  0
 24 20  1  0
 24 28  1  0
 25 24  1  0
 26 27  1  0
 26 25  1  0
 27 23  1  0
 28 29  2  0
 29 30  1  0
 31 30  2  0
 32 31  1  0
 33  7  1  0
 33 38  1  0
 33 34  1  0
 34 37  1  1
 34 35  1  0
 36 34  1  0
 38 41  1  0
 39 43  1  0
 39 38  1  0
 40 39  2  0
 43 42  1  0
 45 43  1  0
 45 46  1  0
 45 44  1  0
 47 48  1  0
 47  4  1  0
 49 51  2  0
 50 48  1  0
 50 49  1  0
 52 50  1  0
 53 49  1  0
 53 62  1  0
 54 62  1  0
 55 60  1  0
 56 57  1  0
 56 55  1  0
 58 57  1  0
 58 67  1  0
 58 59  1  0
 60 54  1  0
 60 59  1  0
 61 54  2  0
 62 63  1  0
 64 65  2  0
 65 84  1  0
 66 65  1  0
 66 69  1  0
 67 64  1  0
 67 68  1  0
 68 66  2  0
 69 70  1  0
 70 71  2  0
 72 75  1  0
 72 71  1  0
 73 72  2  0
 74 73  1  0
 74 69  2  0
 75 76  1  0
 76 77  1  0
 77 78  2  0
 79 78  1  0
 79 83  1  0
 80 79  2  0
 81 76  2  0
 81 80  1  0
 82 81  1  0
 84 85  1  0
 85 88  1  0
 85 87  1  0
 86 84  2  0
 89 90  1  0
 89 64  1  0
 91 89  1  0
M  ISO  4   3 101   6 101  54 100  62 100
M  END
>  <TORSDO>  (56) 
F 20

>  <SCORE>  (56) 
-13.87

>  <name>  (56) 
55

>  <ligand_id>  (56) 
55

>  <original_smiles>  (56) 
[H]c1c([H])c([H])c2c(c1[H])C([H])([H])C([H])([H])C([H])([H])C2([H])N([H])C(=O)C1([H])N(C(=O)C([H])(N([H])C(=O)C([H])(N([H])C([H])([H])[H])C([H])([H])[H])C(C([H])([H])[H])(C([H])([H])[H])C([H])([H])[H])C([H])([H])c2c([H])c(OC3([H])C([H])([H])[N+]([H])(C([H])([H])C([H])([H])N([H])C(=O)C([H])([H])N([H])C(=O)N4C([H])([H])C([H])([H])C([H])([H])C([H])(n5nc(-c6c([H])c([H])c(Oc7c([H])c([H])c(F)c([H])c7F)c([H])c6[H])c(C(=O)N([H])[H])c5N([H])[H])C4([H])[H])C3([H])[H])c([H])c([H])c2C1([H])[H]

>  <smiles>  (56) 
[H]c1c([H])c([H])c2c(c1[H])C([H])([H])C([H])([H])C([H])([H])C2([H])N([H])C(=O)C1([H])N(C(=O)C([H])(N([H])C(=O)C([H])(N([H])C([H])([H])[H])C([H])([H])[H])C(C([H])([H])[H])(C([H])([H])[H])C([H])([H])[H])C([H])([H])c2c([H])c(OC3([H])C([H])([H])[N+]([H])(C([H])([H])C([H])([H])N([H])C(=O)C([H])([H])N([H])C(=O)N4C([H])([H])C([H])([H])C([H])([H])C([H])(n5nc(-c6c([H])c([H])c(Oc7c([H])c([H])c(F)c([H])c7F)c([H])c6[H])c(C(=O)N([H])[H])c5N([H])[H])C4([H])[H])C3([H])[H])c([H])c([H])c2C1([H])[H]

> <Step>
124.0

> <Scaffold>
O=C(CNC(=O)N1CCCC(n2ccc(-c3ccc(Oc4ccccc4)cc3)n2)C1)NCCN1CC(Oc2ccc3c(c2)CNC(C(=O)NC2CCCc4ccccc42)C3)C1

> <SMILES>
CNC(C)C(=O)NC(C(=O)N1Cc2cc(OC3CN(CCNC(=O)CNC(=O)N4CCCC(n5nc(-c6ccc(Oc7ccc(F)cc7F)cc6)c(C(N)=O)c5N)C4)C3)ccc2CC1C(=O)NC1CCCc2ccccc21)C(C)(C)C

> <Tanimoto ROCS sim>
0.2145567238330841

> <Custom alerts>
1.0

> <Linker Num Aromatic Rings>
1.0

> <Linker Effective Length>
1.0

> <ADV>
0.9941191673278809

> <PostDock Tanimoto ROCS sim>
0.992350161075592

> <raw_Linker Num Aromatic Rings>
0.0

> <raw_Linker Effective Length>
8.0

> <raw_ADV>
-13.911999702453613

> <total_score>
0.996617317199707

> <ID>
default_job_55

> <PostDock Tanimoto ROCS sim (re-score)>
0.98296016

> <raw_ADV (re-score)>
-13.87

> <Final Intermolecular Energy>
-29.682

> <Final Total Internal Energy>
-2.733

> <Torsional Free Energy>
15.812

> <Unbound System's Energy>
-2.733

$$$$
default_job_56
     RDKit          3D

 96105  0  0  1  0  0  0  0  0999 V2000
  -28.6840  -23.2380   18.8790 C   0  0  0  0  0  3  0  0  0  0  0  0
  -29.0520  -21.9490   19.3150 C   0  0  0  0  0  3  0  0  0  0  0  0
  -29.7050  -24.1970   20.8580 C   0  0  0  0  0  3  0  0  0  0  0  0
  -29.0080  -24.3770   19.6460 C   0  0  0  0  0  0  0  0  0  0  0  0
  -30.0890  -22.9070   21.2990 C   0  0  0  0  0  0  0  0  0  0  0  0
  -29.7670  -21.7590   20.5240 C   0  0  0  0  0  0  0  0  0  0  0  0
  -29.9520  -22.4890   23.8010 C   0  0  0  0  0  1  0  0  0  0  0  0
  -30.8620  -22.8020   22.6080 C   0  0  0  0  0  2  0  0  0  0  0  0
  -30.1600  -20.4800   20.9770 N   0  0  0  0  0  0  0  0  0  0  0  0
  -30.6810  -20.4190   21.8440 H   0  0  0  0  0  0  0  0  0  0  0  0
  -31.1050  -17.7340   18.4540 C   0  0  0  0  0  2  0  0  0  0  0  0
  -30.9360  -19.1680   19.0010 C   0  0  0  0  0  2  0  0  0  0  0  0
  -29.8740  -16.8530   18.7210 C   0  0  0  0  0  2  0  0  0  0  0  0
  -30.0770  -17.9590   21.0550 C   0  0  0  0  0  2  0  0  0  0  0  0
  -29.9650  -19.2500   20.2030 C   0  0  0  0  0  3  0  0  0  0  0  0
  -29.5370  -16.7530   20.2390 C   0  0  0  0  0  3  0  0  0  0  0  0
  -30.5730  -14.4320   20.4770 C   0  0  0  0  0  0  0  0  0  0  0  0
  -30.3310  -12.2680   19.3350 C   0  0  0  0  0  2  0  0  0  0  0  0
  -29.3790  -12.4890   18.1370 C   0  0  0  0  0  2  0  0  0  0  0  0
  -27.9040  -12.3480   18.5630 C   0  0  0  0  0  2  0  0  0  0  0  0
  -27.5690  -13.1620   19.8410 C   0  0  0  0  0  3  0  0  0  0  0  0
  -28.6270  -12.9050   20.9420 C   0  0  0  0  0  2  0  0  0  0  0  0
  -29.9540  -13.2250   20.3860 N   0  0  0  0  0  0  0  0  0  0  0  0
  -31.6990  -14.6550   20.0250 O   0  0  0  0  0  0  0  0  0  0  0  0
  -29.7380  -15.4220   20.8490 N   0  0  0  0  0  0  0  0  0  0  0  0
  -28.9180  -15.0720   21.3210 H   0  0  0  0  0  0  0  0  0  0  0  0
  -25.1610  -13.7650   20.5300 C   0  0  0  0  0  0  0  0  0  0  0  0
  -24.0960  -12.9890   20.8990 C   0  0  0  0  0  0  0  0  0  0  0  0
  -24.5660  -11.6390   20.8760 C   0  0  0  0  0  0  0  0  0  0  0  0
  -26.2130  -12.8870   20.3110 N   0  0  0  0  0  0  0  0  0  0  0  0
  -25.8560  -11.6050   20.5750 N   0  0  0  0  0  0  0  0  0  0  0  0
  -23.8450  -10.3750   21.0680 C   0  0  0  0  0  0  0  0  0  0  0  0
  -24.2920   -9.4050   21.9910 C   0  0  0  0  0  3  0  0  0  0  0  0
  -23.5740   -8.2030   22.1730 C   0  0  0  0  0  3  0  0  0  0  0  0
  -22.3950   -7.9640   21.4300 C   0  0  0  0  0  0  0  0  0  0  0  0
  -21.9670   -8.9220   20.4940 C   0  0  0  0  0  3  0  0  0  0  0  0
  -22.6860  -10.1150   20.3110 C   0  0  0  0  0  3  0  0  0  0  0  0
  -21.6460   -6.8150   21.5220 O   0  0  0  0  0  0  0  0  0  0  0  0
  -21.6290   -6.0570   22.6640 C   0  0  0  0  0  0  0  0  0  0  0  0
  -21.2450   -6.5960   23.9120 C   0  0  0  0  0  3  0  0  0  0  0  0
  -21.1750   -5.7630   25.0470 C   0  0  0  0  0  3  0  0  0  0  0  0
  -21.4790   -4.3930   24.9350 C   0  0  0  0  0  0  0  0  0  0  0  0
  -21.8560   -3.8530   23.6930 C   0  0  0  0  0  3  0  0  0  0  0  0
  -21.9280   -4.6830   22.5600 C   0  0  0  0  0  0  0  0  0  0  0  0
  -22.2710   -4.1540   21.3610 F   0  0  0  0  0  0  0  0  0  0  0  0
  -21.4030   -3.5910   26.0230 F   0  0  0  0  0  0  0  0  0  0  0  0
  -22.6940  -13.4580   21.1650 C   0  0  0  0  0  0  0  0  0  0  0  0
  -21.9710  -12.7630   22.0360 N   0  0  0  0  0  0  0  0  0  0  0  0
  -22.2490  -14.4760   20.6370 O   0  0  0  0  0  0  0  0  0  0  0  0
  -22.3430  -11.9380   22.4830 H   0  0  0  0  0  0  0  0  0  0  0  0
  -21.0300  -13.0570   22.2560 H   0  0  0  0  0  0  0  0  0  0  0  0
  -25.3170  -15.1360   20.3420 N   0  0  0  0  0  0  0  0  0  0  0  0
  -24.5410  -15.7820   20.4310 H   0  0  0  0  0  0  0  0  0  0  0  0
  -26.1580  -15.5760   19.9920 H   0  0  0  0  0  0  0  0  0  0  0  0
  -28.6930  -25.7770   19.1230 C   0  0  0  0  0  2  0  0  0  0  0  0
  -28.3990  -26.7320   20.1510 O   0  0  0  0  0  0  0  0  0  0  0  0
  -24.5780  -31.8880   23.2250 C   0  0  0  0  0  0  0  0  0  0  0  0
  -27.2010  -27.4210   20.1370 C   0  0  0  0  0  0  0  0  0  0  0  0
  -23.3590  -30.4770   21.5990 C   0  0  0  0  0  3  0  0  0  0  0  0
  -24.8000  -28.9260   20.1750 C   0  0  0  0  0  0  0  0  0  0  0  0
  -25.8860  -30.8200   21.3950 C   0  0  0  0  0  2  0  0  0  0  0  0
  -25.9600  -29.4460   20.7590 C   0  0  0  0  0  0  0  0  0  0  0  0
  -27.1580  -28.6970   20.7470 C   0  0  0  0  0  3  0  0  0  0  0  0
  -26.0130  -26.9020   19.5730 C   0  0  0  0  0  3  0  0  0  0  0  0
  -24.8200  -27.6510   19.5850 C   0  0  0  0  0  3  0  0  0  0  0  0
  -23.5590  -29.7870   20.2230 C   0  0  0  0  0  2  0  0  0  0  0  0
  -24.6280  -31.0730   22.1330 N   0  0  0  0  0  0  0  0  0  0  0  0
  -23.4960  -32.1930   23.7430 O   0  0  0  0  0  0  0  0  0  0  0  0
  -22.7080  -29.4650   22.5680 C   0  0  0  0  0  0  0  0  0  0  0  0
  -21.3810  -29.2910   22.4480 N   0  0  0  0  0  0  0  0  0  0  0  0
  -23.3910  -28.8360   23.3800 O   0  0  0  0  0  0  0  0  0  0  0  0
  -20.8920  -29.8510   21.7630 H   0  0  0  0  0  0  0  0  0  0  0  0
  -18.0000  -28.1270   22.9610 C   0  0  0  0  0  0  0  0  0  0  0  0
  -20.5610  -28.3620   23.2220 C   0  0  0  0  0  3  0  0  0  0  0  0
  -20.6490  -26.9290   22.6460 C   0  0  0  0  0  2  0  0  0  0  0  0
  -19.5390  -26.6170   21.6360 C   0  0  0  0  0  2  0  0  0  0  0  0
  -18.1620  -26.7750   22.2860 C   0  0  0  0  0  2  0  0  0  0  0  0
  -19.1280  -28.8790   23.3870 C   0  0  0  0  0  0  0  0  0  0  0  0
  -18.9240  -30.1440   23.9770 C   0  0  0  0  0  3  0  0  0  0  0  0
  -17.6240  -30.6580   24.1470 C   0  0  0  0  0  3  0  0  0  0  0  0
  -16.5110  -29.9020   23.7390 C   0  0  0  0  0  3  0  0  0  0  0  0
  -16.7000  -28.6390   23.1520 C   0  0  0  0  0  3  0  0  0  0  0  0
  -25.8720  -32.5030   23.8470 C   0  0  0  0  0  3  0  0  0  0  0  0
  -26.3930  -31.7230   25.1170 C   0  0  1  0  0  0  0  0  0  0  0  0
  -25.3030  -31.4870   26.1880 C   0  0  0  0  0  1  0  0  0  0  0  0
  -26.9660  -30.3440   24.7140 C   0  0  0  0  0  1  0  0  0  0  0  0
  -27.5520  -32.5070   25.7740 C   0  0  0  0  0  1  0  0  0  0  0  0
  -25.5750  -33.9020   24.1840 N   0  0  0  0  0  0  0  0  0  0  0  0
  -25.9110  -34.9530   23.4250 C   0  0  0  0  0  0  0  0  0  0  0  0
  -26.5790  -34.8480   22.3920 O   0  0  0  0  0  0  0  0  0  0  0  0
  -24.9820  -34.0580   24.9850 H   0  0  0  0  0  0  0  0  0  0  0  0
  -24.1900  -36.7520   23.0770 C   0  0  0  0  0  1  0  0  0  0  0  0
  -25.4310  -36.3420   23.8860 C   0  0  0  0  0  3  0  0  0  0  0  0
  -27.5730  -37.2120   24.7110 C   0  0  0  0  0  1  0  0  0  0  0  0
  -26.4660  -37.3900   23.7750 N   0  0  0  0  0  0  0  0  0  0  0  0
  -26.0660  -38.3110   23.9310 H   0  0  0  0  0  0  0  0  0  0  0  0
  1  2  2  0
  1  4  1  0
  2  6  1  0
  3  5  1  0
  4  3  2  0
  5  8  1  0
  6  9  1  0
  6  5  2  0
  8  7  1  0
  9 10  1  0
 11 13  1  0
 11 12  1  0
 12 15  1  0
 13 16  1  0
 15  9  1  0
 15 14  1  0
 16 25  1  0
 16 14  1  0
 17 25  1  0
 18 23  1  0
 19 20  1  0
 19 18  1  0
 21 20  1  0
 21 30  1  0
 21 22  1  0
 23 17  1  0
 23 22  1  0
 24 17  2  0
 25 26  1  0
 27 28  2  0
 28 47  1  0
 29 28  1  0
 29 32  1  0
 30 27  1  0
 30 31  1  0
 31 29  2  0
 32 33  1  0
 33 34  2  0
 35 38  1  0
 35 34  1  0
 36 35  2  0
 37 36  1  0
 37 32  2  0
 38 39  1  0
 39 40  1  0
 40 41  2  0
 42 41  1  0
 42 46  1  0
 43 42  2  0
 44 39  2  0
 44 43  1  0
 45 44  1  0
 47 48  1  0
 48 51  1  0
 48 50  1  0
 49 47  2  0
 52 53  1  0
 52 27  1  0
 54 52  1  0
 55  4  1  0
 55 56  1  0
 57 68  2  0
 58 56  1  0
 58 63  1  0
 59 67  1  0
 59 69  1  0
 60 66  1  0
 60 62  1  0
 61 67  1  0
 62 61  1  0
 63 62  2  0
 64 65  1  0
 64 58  2  0
 65 60  2  0
 66 59  1  0
 67 57  1  0
 69 71  2  0
 70 69  1  0
 72 70  1  0
 73 82  2  0
 73 78  1  0
 74 70  1  0
 74 78  1  0
 75 74  1  0
 76 77  1  0
 76 75  1  0
 77 73  1  0
 78 79  2  0
 79 80  1  0
 81 80  2  0
 82 81  1  0
 83 57  1  0
 83 88  1  0
 83 84  1  0
 84 87  1  1
 84 85  1  0
 86 84  1  0
 88 91  1  0
 89 93  1  0
 89 88  1  0
 90 89  2  0
 93 92  1  0
 95 93  1  0
 95 96  1  0
 95 94  1  0
M  ISO  4  17 100  25 100  55 101  56 101
M  END
>  <TORSDO>  (57) 
F 20

>  <SCORE>  (57) 
-13.802

>  <name>  (57) 
56

>  <ligand_id>  (57) 
56

>  <original_smiles>  (57) 
[H]c1c([H])c([H])c2c(c1[H])C([H])([H])C([H])([H])C([H])([H])C2([H])N([H])C(=O)C1([H])N(C(=O)C([H])(N([H])C(=O)C([H])(N([H])C([H])([H])[H])C([H])([H])[H])C(C([H])([H])[H])(C([H])([H])[H])C([H])([H])[H])C([H])([H])c2c([H])c(OC([H])([H])c3c([H])c([H])c(N([H])C4([H])C([H])([H])C([H])([H])C([H])([H])C([H])(N([H])C(=O)N5C([H])([H])C([H])([H])C([H])([H])C([H])(n6nc(-c7c([H])c([H])c(Oc8c([H])c([H])c(F)c([H])c8F)c([H])c7[H])c(C(=O)N([H])[H])c6N([H])[H])C5([H])[H])C4([H])[H])c(C([H])([H])C([H])([H])[H])c3[H])c([H])c([H])c2C1([H])[H]

>  <smiles>  (57) 
[H]c1c([H])c([H])c2c(c1[H])C([H])([H])C([H])([H])C([H])([H])C2([H])N([H])C(=O)C1([H])N(C(=O)C([H])(N([H])C(=O)C([H])(N([H])C([H])([H])[H])C([H])([H])[H])C(C([H])([H])[H])(C([H])([H])[H])C([H])([H])[H])C([H])([H])c2c([H])c(OC([H])([H])c3c([H])c([H])c(N([H])C4([H])C([H])([H])C([H])([H])C([H])([H])C([H])(N([H])C(=O)N5C([H])([H])C([H])([H])C([H])([H])C([H])(n6nc(-c7c([H])c([H])c(Oc8c([H])c([H])c(F)c([H])c8F)c([H])c7[H])c(C(=O)N([H])[H])c6N([H])[H])C5([H])[H])C4([H])[H])c(C([H])([H])C([H])([H])[H])c3[H])c([H])c([H])c2C1([H])[H]

> <Step>
124.0

> <Scaffold>
O=C(NC1CCCc2ccccc21)C1Cc2ccc(OCc3ccc(NC4CCCC(NC(=O)N5CCCC(n6ccc(-c7ccc(Oc8ccccc8)cc7)n6)C5)C4)cc3)cc2CN1

> <SMILES>
CCc1cc(COc2ccc3c(c2)CN(C(=O)C(NC(=O)C(C)NC)C(C)(C)C)C(C(=O)NC2CCCc4ccccc42)C3)ccc1NC1CCCC(NC(=O)N2CCCC(n3nc(-c4ccc(Oc5ccc(F)cc5F)cc4)c(C(N)=O)c3N)C2)C1

> <Tanimoto ROCS sim>
0.2989445626735687

> <Custom alerts>
1.0

> <Linker Num Aromatic Rings>
1.0

> <Linker Effective Length>
1.0

> <ADV>
0.993808388710022

> <PostDock Tanimoto ROCS sim>
0.9926178455352783

> <raw_Linker Num Aromatic Rings>
1.0

> <raw_Linker Effective Length>
9.0

> <raw_ADV>
-13.821999549865723

> <total_score>
0.9966065287590027

> <ID>
default_job_56

> <PostDock Tanimoto ROCS sim (re-score)>
0.9867916

> <raw_ADV (re-score)>
-13.802

> <Final Intermolecular Energy>
-29.536

> <Final Total Internal Energy>
-3.204

> <Torsional Free Energy>
15.734

> <Unbound System's Energy>
-3.204

$$$$
default_job_57
     RDKit          3D

 94102  0  0  1  0  0  0  0  0999 V2000
  -29.3220  -21.1980   19.6260 C   0  0  0  0  0  2  0  0  0  0  0  0
  -30.0870  -21.6270   21.9900 C   0  0  0  0  0  2  0  0  0  0  0  0
  -29.7810  -19.7060   19.7160 C   0  0  0  0  0  2  0  0  0  0  0  0
  -30.8020  -20.2510   21.9000 C   0  0  0  0  0  2  0  0  0  0  0  0
  -28.9070  -21.7640   21.0000 C   0  0  0  0  0  3  0  0  0  0  0  0
  -30.0340  -19.2440   21.1170 N   0  0  2  0  0  4  0  0  0  0  0  0
  -29.1290  -19.1930   21.5640 H   0  0  0  0  0  0  0  0  0  0  0  0
  -28.2600  -23.1090   21.0060 N   0  0  0  0  0  4  0  0  0  0  0  0
  -28.0620  -23.3280   21.9710 H   0  0  0  0  0  0  0  0  0  0  0  0
  -27.3600  -23.0200   20.5620 H   0  0  0  0  0  0  0  0  0  0  0  0
  -28.9440  -24.2840   20.3960 C   0  0  0  0  0  2  0  0  0  0  0  0
  -29.4180  -25.9880   22.2360 C   0  0  0  0  0  1  0  0  0  0  0  0
  -28.4820  -25.6040   21.0820 C   0  0  0  0  0  3  0  0  0  0  0  0
  -28.4470  -26.7260   20.1830 O   0  0  0  0  0  0  0  0  0  0  0  0
  -24.5940  -31.9080   23.2620 C   0  0  0  0  0  0  0  0  0  0  0  0
  -27.2810  -27.4640   20.2120 C   0  0  0  0  0  0  0  0  0  0  0  0
  -23.4020  -30.4890   21.6250 C   0  0  0  0  0  3  0  0  0  0  0  0
  -24.8730  -28.9460   20.2190 C   0  0  0  0  0  0  0  0  0  0  0  0
  -25.9290  -30.8530   21.4430 C   0  0  0  0  0  2  0  0  0  0  0  0
  -26.0250  -29.4810   20.8090 C   0  0  0  0  0  0  0  0  0  0  0  0
  -27.2360  -28.7480   20.8010 C   0  0  0  0  0  3  0  0  0  0  0  0
  -26.1140  -26.9390   19.6210 C   0  0  0  0  0  3  0  0  0  0  0  0
  -24.9100  -27.6730   19.6230 C   0  0  0  0  0  3  0  0  0  0  0  0
  -23.6230  -29.7980   20.2520 C   0  0  0  0  0  2  0  0  0  0  0  0
  -24.6600  -31.0950   22.1710 N   0  0  0  0  0  0  0  0  0  0  0  0
  -23.5030  -32.2020   23.7710 O   0  0  0  0  0  0  0  0  0  0  0  0
  -22.7490  -29.4700   22.5880 C   0  0  0  0  0  0  0  0  0  0  0  0
  -21.4250  -29.2870   22.4540 N   0  0  0  0  0  0  0  0  0  0  0  0
  -23.4310  -28.8480   23.4050 O   0  0  0  0  0  0  0  0  0  0  0  0
  -20.9380  -29.8410   21.7640 H   0  0  0  0  0  0  0  0  0  0  0  0
  -18.0470  -28.1010   22.9520 C   0  0  0  0  0  0  0  0  0  0  0  0
  -20.6060  -28.3490   23.2220 C   0  0  0  0  0  3  0  0  0  0  0  0
  -20.7030  -26.9200   22.6400 C   0  0  0  0  0  2  0  0  0  0  0  0
  -19.5990  -26.6070   21.6240 C   0  0  0  0  0  2  0  0  0  0  0  0
  -18.2180  -26.7530   22.2700 C   0  0  0  0  0  2  0  0  0  0  0  0
  -19.1690  -28.8570   23.3830 C   0  0  0  0  0  0  0  0  0  0  0  0
  -18.9540  -30.1190   23.9790 C   0  0  0  0  0  3  0  0  0  0  0  0
  -17.6510  -30.6260   24.1450 C   0  0  0  0  0  3  0  0  0  0  0  0
  -16.5440  -29.8670   23.7280 C   0  0  0  0  0  3  0  0  0  0  0  0
  -16.7440  -28.6050   23.1390 C   0  0  0  0  0  3  0  0  0  0  0  0
  -25.8760  -32.5350   23.8950 C   0  0  0  0  0  3  0  0  0  0  0  0
  -25.5680  -33.9360   24.2130 N   0  0  0  0  0  0  0  0  0  0  0  0
  -25.9050  -34.9780   23.4440 C   0  0  0  0  0  0  0  0  0  0  0  0
  -26.5800  -34.8640   22.4170 O   0  0  0  0  0  0  0  0  0  0  0  0
  -24.9640  -34.0980   25.0060 H   0  0  0  0  0  0  0  0  0  0  0  0
  -24.1790  -36.7660   23.0610 C   0  0  0  0  0  1  0  0  0  0  0  0
  -25.4160  -36.3730   23.8830 C   0  0  0  0  0  3  0  0  0  0  0  0
  -27.5480  -37.2650   24.7160 C   0  0  0  0  0  1  0  0  0  0  0  0
  -26.4500  -37.4240   23.7630 N   0  0  0  0  0  0  0  0  0  0  0  0
  -26.0450  -38.3470   23.8960 H   0  0  0  0  0  0  0  0  0  0  0  0
  -26.3790  -31.7700   25.1810 C   0  0  1  0  0  0  0  0  0  0  0  0
  -25.2740  -31.5390   26.2400 C   0  0  0  0  0  1  0  0  0  0  0  0
  -26.9650  -30.3900   24.8030 C   0  0  0  0  0  1  0  0  0  0  0  0
  -27.5240  -32.5680   25.8490 C   0  0  0  0  0  1  0  0  0  0  0  0
  -30.5700  -17.8560   21.2760 C   0  0  0  0  0  2  0  0  0  0  0  0
  -29.7020  -16.7800   20.5830 C   0  0  0  0  0  2  0  0  0  0  0  0
  -30.6620  -14.4670   20.5200 C   0  0  0  0  0  0  0  0  0  0  0  0
  -30.4130  -12.3230   19.3360 C   0  0  0  0  0  2  0  0  0  0  0  0
  -29.4650  -12.5620   18.1390 C   0  0  0  0  0  2  0  0  0  0  0  0
  -27.9880  -12.4220   18.5630 C   0  0  0  0  0  2  0  0  0  0  0  0
  -27.6550  -13.2220   19.8500 C   0  0  0  0  0  3  0  0  0  0  0  0
  -28.7070  -12.9390   20.9480 C   0  0  0  0  0  2  0  0  0  0  0  0
  -30.0400  -13.2640   20.4020 N   0  0  0  0  0  0  0  0  0  0  0  0
  -31.7460  -14.7380   19.9910 O   0  0  0  0  0  0  0  0  0  0  0  0
  -29.8960  -15.4110   21.0790 N   0  0  0  0  0  0  0  0  0  0  0  0
  -29.1160  -15.0370   21.6010 H   0  0  0  0  0  0  0  0  0  0  0  0
  -25.2470  -13.8310   20.5450 C   0  0  0  0  0  0  0  0  0  0  0  0
  -24.1800  -13.0570   20.9140 C   0  0  0  0  0  0  0  0  0  0  0  0
  -24.6430  -11.7050   20.8810 C   0  0  0  0  0  0  0  0  0  0  0  0
  -26.2950  -12.9510   20.3180 N   0  0  0  0  0  0  0  0  0  0  0  0
  -25.9330  -11.6680   20.5750 N   0  0  0  0  0  0  0  0  0  0  0  0
  -23.9210  -10.4420   21.0690 C   0  0  0  0  0  0  0  0  0  0  0  0
  -24.3560   -9.4730   22.0000 C   0  0  0  0  0  3  0  0  0  0  0  0
  -23.6360   -8.2720   22.1750 C   0  0  0  0  0  3  0  0  0  0  0  0
  -22.4640   -8.0330   21.4160 C   0  0  0  0  0  0  0  0  0  0  0  0
  -22.0480   -8.9900   20.4740 C   0  0  0  0  0  3  0  0  0  0  0  0
  -22.7710  -10.1810   20.2980 C   0  0  0  0  0  3  0  0  0  0  0  0
  -21.7170   -6.8830   21.4990 O   0  0  0  0  0  0  0  0  0  0  0  0
  -21.6720   -6.1340   22.6470 C   0  0  0  0  0  0  0  0  0  0  0  0
  -21.2370   -6.6770   23.8750 C   0  0  0  0  0  3  0  0  0  0  0  0
  -21.1410   -5.8540   25.0150 C   0  0  0  0  0  3  0  0  0  0  0  0
  -21.4690   -4.4880   24.9270 C   0  0  0  0  0  0  0  0  0  0  0  0
  -21.8990   -3.9440   23.7040 C   0  0  0  0  0  3  0  0  0  0  0  0
  -21.9980   -4.7650   22.5670 C   0  0  0  0  0  0  0  0  0  0  0  0
  -22.3900   -4.2300   21.3860 F   0  0  0  0  0  0  0  0  0  0  0  0
  -21.3710   -3.6950   26.0210 F   0  0  0  0  0  0  0  0  0  0  0  0
  -22.7810  -13.5310   21.1870 C   0  0  0  0  0  0  0  0  0  0  0  0
  -22.0510  -12.8290   22.0470 N   0  0  0  0  0  0  0  0  0  0  0  0
  -22.3390  -14.5570   20.6710 O   0  0  0  0  0  0  0  0  0  0  0  0
  -22.4190  -12.0010   22.4890 H   0  0  0  0  0  0  0  0  0  0  0  0
  -21.1110  -13.1300   22.2680 H   0  0  0  0  0  0  0  0  0  0  0  0
  -25.4100  -15.2030   20.3670 N   0  0  0  0  0  0  0  0  0  0  0  0
  -24.6320  -15.8500   20.4450 H   0  0  0  0  0  0  0  0  0  0  0  0
  -26.2400  -15.6270   19.9780 H   0  0  0  0  0  0  0  0  0  0  0  0
  1  3  1  0
  1  5  1  0
  3  6  1  0
  4  2  1  0
  5  8  1  0
  5  2  1  0
  6 55  1  0
  6  7  1  1
  6  4  1  0
  8  9  1  0
 10  8  1  0
 11  8  1  0
 11 13  1  0
 13 12  1  0
 14 16  1  0
 14 13  1  0
 15 26  2  0
 16 21  1  0
 17 25  1  0
 17 27  1  0
 18 24  1  0
 18 20  1  0
 19 25  1  0
 20 19  1  0
 21 20  2  0
 22 23  1  0
 22 16  2  0
 23 18  2  0
 24 17  1  0
 25 15  1  0
 27 29  2  0
 28 27  1  0
 30 28  1  0
 31 40  2  0
 31 36  1  0
 32 28  1  0
 32 36  1  0
 33 32  1  0
 34 35  1  0
 34 33  1  0
 35 31  1  0
 36 37  2  0
 37 38  1  0
 39 38  2  0
 40 39  1  0
 41 15  1  0
 41 42  1  0
 41 51  1  0
 42 45  1  0
 43 47  1  0
 43 42  1  0
 44 43  2  0
 47 46  1  0
 49 47  1  0
 49 50  1  0
 49 48  1  0
 51 54  1  1
 51 52  1  0
 53 51  1  0
 56 65  1  0
 56 55  1  0
 57 65  1  0
 58 63  1  0
 59 60  1  0
 59 58  1  0
 61 60  1  0
 61 70  1  0
 61 62  1  0
 63 57  1  0
 63 62  1  0
 64 57  2  0
 65 66  1  0
 67 68  2  0
 68 87  1  0
 69 68  1  0
 69 72  1  0
 70 67  1  0
 70 71  1  0
 71 69  2  0
 72 73  1  0
 73 74  2  0
 75 78  1  0
 75 74  1  0
 76 75  2  0
 77 76  1  0
 77 72  2  0
 78 79  1  0
 79 80  1  0
 80 81  2  0
 82 81  1  0
 82 86  1  0
 83 82  2  0
 84 79  2  0
 84 83  1  0
 85 84  1  0
 87 88  1  0
 88 91  1  0
 88 90  1  0
 89 87  2  0
 92 93  1  0
 92 67  1  0
 94 92  1  0
M  ISO  4  13 101  14 101  57 100  65 100
M  END
>  <TORSDO>  (58) 
F 21

>  <SCORE>  (58) 
-13.819

>  <name>  (58) 
57

>  <ligand_id>  (58) 
57

>  <original_smiles>  (58) 
[H]c1c([H])c([H])c2c(c1[H])C([H])([H])C([H])([H])C([H])([H])C2([H])N([H])C(=O)C1([H])N(C(=O)C([H])(N([H])C(=O)C([H])(N([H])C([H])([H])[H])C([H])([H])[H])C(C([H])([H])[H])(C([H])([H])[H])C([H])([H])[H])C([H])([H])c2c([H])c(OC([H])(C([H])([H])[H])C([H])([H])[N+]([H])([H])C3([H])C([H])([H])C([H])([H])[N+]([H])(C([H])([H])C([H])([H])N([H])C(=O)N4C([H])([H])C([H])([H])C([H])([H])C([H])(n5nc(-c6c([H])c([H])c(Oc7c([H])c([H])c(F)c([H])c7F)c([H])c6[H])c(C(=O)N([H])[H])c5N([H])[H])C4([H])[H])C([H])([H])C3([H])[H])c([H])c([H])c2C1([H])[H]

>  <smiles>  (58) 
[H]c1c([H])c([H])c2c(c1[H])C([H])([H])C([H])([H])C([H])([H])C2([H])N([H])C(=O)C1([H])N(C(=O)C([H])(N([H])C(=O)C([H])(N([H])C([H])([H])[H])C([H])([H])[H])C(C([H])([H])[H])(C([H])([H])[H])C([H])([H])[H])C([H])([H])c2c([H])c(OC([H])(C([H])([H])[H])C([H])([H])[N+]([H])([H])C3([H])C([H])([H])C([H])([H])[N+]([H])(C([H])([H])C([H])([H])N([H])C(=O)N4C([H])([H])C([H])([H])C([H])([H])C([H])(n5nc(-c6c([H])c([H])c(Oc7c([H])c([H])c(F)c([H])c7F)c([H])c6[H])c(C(=O)N([H])[H])c5N([H])[H])C4([H])[H])C([H])([H])C3([H])[H])c([H])c([H])c2C1([H])[H]

> <Step>
111.0

> <Scaffold>
O=C(NC1CCCc2ccccc21)C1Cc2ccc(OCCNC3CCN(CCNC(=O)N4CCCC(n5ccc(-c6ccc(Oc7ccccc7)cc6)n5)C4)CC3)cc2CN1

> <SMILES>
CNC(C)C(=O)NC(C(=O)N1Cc2cc(OC(C)CNC3CCN(CCNC(=O)N4CCCC(n5nc(-c6ccc(Oc7ccc(F)cc7F)cc6)c(C(N)=O)c5N)C4)CC3)ccc2CC1C(=O)NC1CCCc2ccccc21)C(C)(C)C

> <Tanimoto ROCS sim>
0.22520624101161957

> <Custom alerts>
1.0

> <Linker Num Aromatic Rings>
1.0

> <Linker Effective Length>
1.0

> <ADV>
0.9938437342643738

> <PostDock Tanimoto ROCS sim>
0.9925523996353149

> <raw_Linker Num Aromatic Rings>
0.0

> <raw_Linker Effective Length>
9.0

> <raw_ADV>
-13.831999778747559

> <total_score>
0.9965990781784058

> <ID>
default_job_57

> <PostDock Tanimoto ROCS sim (re-score)>
0.98501617

> <raw_ADV (re-score)>
-13.819

> <Final Intermolecular Energy>
-30.38

> <Final Total Internal Energy>
-3.071

> <Torsional Free Energy>
16.561

> <Unbound System's Energy>
-3.071

$$$$
default_job_58
     RDKit          3D

 93102  0  0  1  0  0  0  0  0999 V2000
  -29.1340  -22.3810   20.2750 C   0  0  0  0  0  0  0  0  0  0  0  0
  -29.9360  -23.4490   20.1520 N   0  0  0  0  0  0  0  0  0  0  0  0
  -27.9990  -22.4570   20.7480 O   0  0  0  0  0  0  0  0  0  0  0  0
  -30.8430  -23.3250   19.7160 H   0  0  0  0  0  0  0  0  0  0  0  0
  -29.2510  -20.6590   18.4090 C   0  0  0  0  0  2  0  0  0  0  0  0
  -29.7220  -21.1010   19.7780 C   0  0  0  0  0  3  0  0  0  0  0  0
  -28.8340  -19.8640   19.6310 C   0  0  0  0  0  3  0  0  0  0  0  0
  -30.7270  -14.5250   20.3490 C   0  0  0  0  0  0  0  0  0  0  0  0
  -30.3570  -12.3270   19.3270 C   0  0  0  0  0  2  0  0  0  0  0  0
  -29.4240  -12.4830   18.1110 C   0  0  0  0  0  2  0  0  0  0  0  0
  -27.9470  -12.4130   18.5470 C   0  0  0  0  0  2  0  0  0  0  0  0
  -27.6170  -13.2950   19.7840 C   0  0  0  0  0  3  0  0  0  0  0  0
  -28.6840  -13.1510   20.8930 C   0  0  0  0  0  2  0  0  0  0  0  0
  -30.0000  -13.3800   20.2840 N   0  0  0  0  0  0  0  0  0  0  0  0
  -31.9300  -14.5660   20.0920 O   0  0  0  0  0  0  0  0  0  0  0  0
  -30.1050  -16.3180   18.9200 C   0  0  0  0  0  2  0  0  0  0  0  0
  -30.2050  -16.6670   21.3330 C   0  0  0  0  0  2  0  0  0  0  0  0
  -29.2100  -17.5590   18.7650 C   0  0  0  0  0  2  0  0  0  0  0  0
  -29.3740  -17.9670   21.1520 C   0  0  0  0  0  2  0  0  0  0  0  0
  -30.0170  -15.6780   20.2540 N   0  0  0  0  0  0  0  0  0  0  0  0
  -29.5410  -18.5620   19.8040 N   0  0  2  0  0  4  0  0  0  0  0  0
  -30.5260  -18.7570   19.6980 H   0  0  0  0  0  0  0  0  0  0  0  0
  -25.2340  -13.9120   20.5300 C   0  0  0  0  0  0  0  0  0  0  0  0
  -24.1620  -13.1460   20.9000 C   0  0  0  0  0  0  0  0  0  0  0  0
  -24.6120  -11.7900   20.8620 C   0  0  0  0  0  0  0  0  0  0  0  0
  -26.2720  -13.0260   20.2860 N   0  0  0  0  0  0  0  0  0  0  0  0
  -25.9020  -11.7440   20.5480 N   0  0  0  0  0  0  0  0  0  0  0  0
  -23.8760  -10.5330   21.0460 C   0  0  0  0  0  0  0  0  0  0  0  0
  -24.2960   -9.5610   21.9800 C   0  0  0  0  0  3  0  0  0  0  0  0
  -23.5590   -8.3680   22.1540 C   0  0  0  0  0  3  0  0  0  0  0  0
  -22.3880   -8.1400   21.3920 C   0  0  0  0  0  0  0  0  0  0  0  0
  -21.9870   -9.1010   20.4480 C   0  0  0  0  0  3  0  0  0  0  0  0
  -22.7240  -10.2850   20.2720 C   0  0  0  0  0  3  0  0  0  0  0  0
  -21.6240   -7.0030   21.4760 O   0  0  0  0  0  0  0  0  0  0  0  0
  -21.5560   -6.2650   22.6310 C   0  0  0  0  0  0  0  0  0  0  0  0
  -21.1040   -6.8240   23.8470 C   0  0  0  0  0  3  0  0  0  0  0  0
  -20.9820   -6.0130   24.9930 C   0  0  0  0  0  3  0  0  0  0  0  0
  -21.3020   -4.6440   24.9250 C   0  0  0  0  0  0  0  0  0  0  0  0
  -21.7470   -4.0840   23.7140 C   0  0  0  0  0  3  0  0  0  0  0  0
  -21.8690   -4.8920   22.5700 C   0  0  0  0  0  0  0  0  0  0  0  0
  -22.2780   -4.3430   21.4010 F   0  0  0  0  0  0  0  0  0  0  0  0
  -21.1760   -3.8630   26.0240 F   0  0  0  0  0  0  0  0  0  0  0  0
  -22.7700  -13.6350   21.1730 C   0  0  0  0  0  0  0  0  0  0  0  0
  -22.0320  -12.9450   22.0380 N   0  0  0  0  0  0  0  0  0  0  0  0
  -22.3420  -14.6650   20.6550 O   0  0  0  0  0  0  0  0  0  0  0  0
  -22.3910  -12.1150   22.4850 H   0  0  0  0  0  0  0  0  0  0  0  0
  -21.0990  -13.2600   22.2640 H   0  0  0  0  0  0  0  0  0  0  0  0
  -25.4040  -15.2830   20.3560 N   0  0  0  0  0  0  0  0  0  0  0  0
  -24.6360  -15.9370   20.4590 H   0  0  0  0  0  0  0  0  0  0  0  0
  -26.2500  -15.7180   20.0130 H   0  0  0  0  0  0  0  0  0  0  0  0
  -29.6290  -24.7950   20.6320 C   0  0  0  0  0  2  0  0  0  0  0  0
  -28.5800  -25.5010   19.7570 C   0  0  0  0  0  2  0  0  0  0  0  0
  -28.4700  -26.8530   20.1990 O   0  0  0  0  0  0  0  0  0  0  0  0
  -24.5540  -31.9080   23.2440 C   0  0  0  0  0  0  0  0  0  0  0  0
  -27.2560  -27.5030   20.1650 C   0  0  0  0  0  0  0  0  0  0  0  0
  -23.3660  -30.5050   21.5890 C   0  0  0  0  0  3  0  0  0  0  0  0
  -24.8380  -28.9750   20.1760 C   0  0  0  0  0  0  0  0  0  0  0  0
  -25.8910  -30.8720   21.4180 C   0  0  0  0  0  2  0  0  0  0  0  0
  -25.9860  -29.5060   20.7760 C   0  0  0  0  0  0  0  0  0  0  0  0
  -27.1900  -28.7750   20.7730 C   0  0  0  0  0  3  0  0  0  0  0  0
  -26.0890  -26.9830   19.5500 C   0  0  0  0  0  3  0  0  0  0  0  0
  -24.8840  -27.7090   19.5670 C   0  0  0  0  0  3  0  0  0  0  0  0
  -23.5880  -29.8250   20.2120 C   0  0  0  0  0  2  0  0  0  0  0  0
  -24.6220  -31.1040   22.1460 N   0  0  0  0  0  0  0  0  0  0  0  0
  -23.4640  -32.2040   23.7510 O   0  0  0  0  0  0  0  0  0  0  0  0
  -22.7080  -29.4800   22.5400 C   0  0  0  0  0  0  0  0  0  0  0  0
  -21.3850  -29.3000   22.3990 N   0  0  0  0  0  0  0  0  0  0  0  0
  -23.3850  -28.8470   23.3560 O   0  0  0  0  0  0  0  0  0  0  0  0
  -20.9030  -29.8590   21.7100 H   0  0  0  0  0  0  0  0  0  0  0  0
  -18.0020  -28.1320   22.8730 C   0  0  0  0  0  0  0  0  0  0  0  0
  -20.5600  -28.3590   23.1550 C   0  0  0  0  0  3  0  0  0  0  0  0
  -20.6520  -26.9370   22.5560 C   0  0  0  0  0  2  0  0  0  0  0  0
  -19.5490  -26.6420   21.5340 C   0  0  0  0  0  2  0  0  0  0  0  0
  -18.1670  -26.7910   22.1790 C   0  0  0  0  0  2  0  0  0  0  0  0
  -19.1280  -28.8760   23.3180 C   0  0  0  0  0  0  0  0  0  0  0  0
  -18.9230  -30.1320   23.9260 C   0  0  0  0  0  3  0  0  0  0  0  0
  -17.6240  -30.6470   24.0980 C   0  0  0  0  0  3  0  0  0  0  0  0
  -16.5110  -29.9000   23.6720 C   0  0  0  0  0  3  0  0  0  0  0  0
  -16.7020  -28.6450   23.0660 C   0  0  0  0  0  3  0  0  0  0  0  0
  -25.8370  -32.5240   23.8880 C   0  0  0  0  0  3  0  0  0  0  0  0
  -26.3330  -31.7470   25.1690 C   0  0  1  0  0  0  0  0  0  0  0  0
  -25.2240  -31.5100   26.2190 C   0  0  0  0  0  1  0  0  0  0  0  0
  -26.9200  -30.3690   24.7800 C   0  0  0  0  0  1  0  0  0  0  0  0
  -27.4770  -32.5370   25.8500 C   0  0  0  0  0  1  0  0  0  0  0  0
  -25.5350  -33.9220   24.2160 N   0  0  0  0  0  0  0  0  0  0  0  0
  -25.8780  -34.9700   23.4560 C   0  0  0  0  0  0  0  0  0  0  0  0
  -26.5550  -34.8600   22.4300 O   0  0  0  0  0  0  0  0  0  0  0  0
  -24.9280  -34.0830   25.0060 H   0  0  0  0  0  0  0  0  0  0  0  0
  -24.1570  -36.7620   23.0790 C   0  0  0  0  0  1  0  0  0  0  0  0
  -25.3900  -36.3600   23.9030 C   0  0  0  0  0  3  0  0  0  0  0  0
  -27.5170  -37.2440   24.7510 C   0  0  0  0  0  1  0  0  0  0  0  0
  -26.4270  -37.4100   23.7940 N   0  0  0  0  0  0  0  0  0  0  0  0
  -26.0210  -38.3320   23.9320 H   0  0  0  0  0  0  0  0  0  0  0  0
  1  3  2  0
  2  1  1  0
  2 51  1  0
  4  2  1  0
  5  6  1  0
  6  1  1  0
  7  5  1  0
  7  6  1  0
  7 21  1  0
  9 14  1  0
 10 11  1  0
 10  9  1  0
 12 11  1  0
 12 26  1  0
 12 13  1  0
 14  8  1  0
 14 13  1  0
 15  8  2  0
 16 20  1  0
 18 16  1  0
 18 21  1  0
 19 17  1  0
 20  8  1  0
 20 17  1  0
 21 22  1  6
 21 19  1  0
 23 24  2  0
 24 43  1  0
 25 24  1  0
 25 28  1  0
 26 23  1  0
 26 27  1  0
 27 25  2  0
 28 29  1  0
 29 30  2  0
 31 34  1  0
 31 30  1  0
 32 31  2  0
 33 32  1  0
 33 28  2  0
 34 35  1  0
 35 36  1  0
 36 37  2  0
 38 37  1  0
 38 42  1  0
 39 38  2  0
 40 35  2  0
 40 39  1  0
 41 40  1  0
 43 44  1  0
 44 47  1  0
 44 46  1  0
 45 43  2  0
 48 49  1  0
 48 23  1  0
 50 48  1  0
 52 53  1  0
 52 51  1  0
 54 65  2  0
 55 53  1  0
 55 60  1  0
 56 64  1  0
 56 66  1  0
 57 63  1  0
 57 59  1  0
 58 64  1  0
 59 58  1  0
 60 59  2  0
 61 62  1  0
 61 55  2  0
 62 57  2  0
 63 56  1  0
 64 54  1  0
 66 68  2  0
 67 66  1  0
 69 67  1  0
 70 79  2  0
 70 75  1  0
 71 67  1  0
 71 75  1  0
 72 71  1  0
 73 74  1  0
 73 72  1  0
 74 70  1  0
 75 76  2  0
 76 77  1  0
 78 77  2  0
 79 78  1  0
 80 54  1  0
 80 85  1  0
 80 81  1  0
 81 84  1  1
 81 82  1  0
 83 81  1  0
 85 88  1  0
 86 90  1  0
 86 85  1  0
 87 86  2  0
 90 89  1  0
 92 90  1  0
 92 93  1  0
 92 91  1  0
M  ISO  4   8 100  20 100  52 101  53 101
M  END
>  <TORSDO>  (59) 
F 19

>  <SCORE>  (59) 
-14.154

>  <name>  (59) 
58

>  <ligand_id>  (59) 
58

>  <original_smiles>  (59) 
[H]c1c([H])c([H])c2c(c1[H])C([H])([H])C([H])([H])C([H])([H])C2([H])N([H])C(=O)C1([H])N(C(=O)C([H])(N([H])C(=O)C([H])(N([H])C([H])([H])[H])C([H])([H])[H])C(C([H])([H])[H])(C([H])([H])[H])C([H])([H])[H])C([H])([H])c2c([H])c(OC([H])([H])C([H])([H])N([H])C(=O)C3([H])C([H])([H])C3([H])[N+]3([H])C([H])([H])C([H])([H])N(C(=O)N4C([H])([H])C([H])([H])C([H])([H])C([H])(n5nc(-c6c([H])c([H])c(Oc7c([H])c([H])c(F)c([H])c7F)c([H])c6[H])c(C(=O)N([H])[H])c5N([H])[H])C4([H])[H])C([H])([H])C3([H])[H])c([H])c([H])c2C1([H])[H]

>  <smiles>  (59) 
[H]c1c([H])c([H])c2c(c1[H])C([H])([H])C([H])([H])C([H])([H])C2([H])N([H])C(=O)C1([H])N(C(=O)C([H])(N([H])C(=O)C([H])(N([H])C([H])([H])[H])C([H])([H])[H])C(C([H])([H])[H])(C([H])([H])[H])C([H])([H])[H])C([H])([H])c2c([H])c(OC([H])([H])C([H])([H])N([H])C(=O)C3([H])C([H])([H])C3([H])[N+]3([H])C([H])([H])C([H])([H])N(C(=O)N4C([H])([H])C([H])([H])C([H])([H])C([H])(n5nc(-c6c([H])c([H])c(Oc7c([H])c([H])c(F)c([H])c7F)c([H])c6[H])c(C(=O)N([H])[H])c5N([H])[H])C4([H])[H])C([H])([H])C3([H])[H])c([H])c([H])c2C1([H])[H]

> <Step>
188.0

> <Scaffold>
O=C(NC1CCCc2ccccc21)C1Cc2ccc(OCCNC(=O)C3CC3N3CCN(C(=O)N4CCCC(n5ccc(-c6ccc(Oc7ccccc7)cc6)n5)C4)CC3)cc2CN1

> <SMILES>
CNC(C)C(=O)NC(C(=O)N1Cc2cc(OCCNC(=O)C3CC3N3CCN(C(=O)N4CCCC(n5nc(-c6ccc(Oc7ccc(F)cc7F)cc6)c(C(N)=O)c5N)C4)CC3)ccc2CC1C(=O)NC1CCCc2ccccc21)C(C)(C)C

> <Tanimoto ROCS sim>
0.254988431930542

> <Custom alerts>
1.0

> <Linker Num Aromatic Rings>
1.0

> <Linker Effective Length>
1.0

> <ADV>
0.9949959516525269

> <PostDock Tanimoto ROCS sim>
0.9913859963417053

> <raw_Linker Num Aromatic Rings>
0.0

> <raw_Linker Effective Length>
9.0

> <raw_ADV>
-14.194000244140625

> <total_score>
0.9965955018997192

> <ID>
default_job_58

> <PostDock Tanimoto ROCS sim (re-score)>
0.9806394

> <raw_ADV (re-score)>
-14.154

> <Final Intermolecular Energy>
-29.461

> <Final Total Internal Energy>
-2.346

> <Torsional Free Energy>
15.307

> <Unbound System's Energy>
-2.346

$$$$
default_job_59
     RDKit          3D

 94102  0  0  1  0  0  0  0  0999 V2000
  -28.9370  -20.0320   18.7820 C   0  0  0  0  0  3  0  0  0  0  0  0
  -28.8380  -22.3070   18.4440 C   0  0  0  0  0  0  0  0  0  0  0  0
  -29.4310  -20.2310   20.0990 C   0  0  0  0  0  0  0  0  0  0  0  0
  -29.3110  -22.5300   19.7640 C   0  0  0  0  0  0  0  0  0  0  0  0
  -28.5310  -23.4560   17.5010 C   0  0  0  0  0  1  0  0  0  0  0  0
  -28.6390  -21.0620   17.9550 N   0  0  0  0  0  0  0  0  0  0  0  0
  -29.5950  -21.4890   20.5950 N   0  0  0  0  0  0  0  0  0  0  0  0
  -29.5370  -23.8350   20.2280 N   0  0  0  0  0  0  0  0  0  0  0  0
  -29.6720  -24.4780   19.4530 H   0  0  0  0  0  0  0  0  0  0  0  0
  -29.8000  -19.1670   20.9470 N   0  0  0  0  0  0  0  0  0  0  0  0
  -30.1820  -19.3780   21.8620 H   0  0  0  0  0  0  0  0  0  0  0  0
  -29.7240  -17.7690   20.5010 C   0  0  0  0  0  2  0  0  0  0  0  0
  -30.3880  -16.7750   21.4830 C   0  0  0  0  0  2  0  0  0  0  0  0
  -30.6490  -14.4480   20.5280 C   0  0  0  0  0  0  0  0  0  0  0  0
  -30.3500  -12.3290   19.2920 C   0  0  0  0  0  2  0  0  0  0  0  0
  -29.4030  -12.5650   18.0970 C   0  0  0  0  0  2  0  0  0  0  0  0
  -27.9290  -12.4160   18.5270 C   0  0  0  0  0  2  0  0  0  0  0  0
  -27.5980  -13.2230   19.8110 C   0  0  0  0  0  3  0  0  0  0  0  0
  -28.6520  -12.9540   20.9090 C   0  0  0  0  0  2  0  0  0  0  0  0
  -29.9780  -13.2770   20.3530 N   0  0  0  0  0  0  0  0  0  0  0  0
  -31.7450  -14.6820   20.0110 O   0  0  0  0  0  0  0  0  0  0  0  0
  -29.9830  -15.3860   21.2250 N   0  0  0  0  0  0  0  0  0  0  0  0
  -29.0870  -15.1030   21.5930 H   0  0  0  0  0  0  0  0  0  0  0  0
  -25.1940  -13.8310   20.5040 C   0  0  0  0  0  0  0  0  0  0  0  0
  -24.1260  -13.0580   20.8730 C   0  0  0  0  0  0  0  0  0  0  0  0
  -24.5890  -11.7080   20.8490 C   0  0  0  0  0  0  0  0  0  0  0  0
  -26.2420  -12.9500   20.2820 N   0  0  0  0  0  0  0  0  0  0  0  0
  -25.8800  -11.6680   20.5440 N   0  0  0  0  0  0  0  0  0  0  0  0
  -23.8650  -10.4450   21.0420 C   0  0  0  0  0  0  0  0  0  0  0  0
  -24.3030   -9.4790   21.9740 C   0  0  0  0  0  3  0  0  0  0  0  0
  -23.5800   -8.2790   22.1550 C   0  0  0  0  0  3  0  0  0  0  0  0
  -22.4050   -8.0390   21.4030 C   0  0  0  0  0  0  0  0  0  0  0  0
  -21.9860   -8.9940   20.4600 C   0  0  0  0  0  3  0  0  0  0  0  0
  -22.7090  -10.1850   20.2780 C   0  0  0  0  0  3  0  0  0  0  0  0
  -21.6530   -6.8940   21.4940 O   0  0  0  0  0  0  0  0  0  0  0  0
  -21.6170   -6.1440   22.6420 C   0  0  0  0  0  0  0  0  0  0  0  0
  -21.2040   -6.6920   23.8760 C   0  0  0  0  0  3  0  0  0  0  0  0
  -21.1160   -5.8690   25.0180 C   0  0  0  0  0  3  0  0  0  0  0  0
  -21.4300   -4.5000   24.9250 C   0  0  0  0  0  0  0  0  0  0  0  0
  -21.8360   -3.9510   23.6960 C   0  0  0  0  0  3  0  0  0  0  0  0
  -21.9260   -4.7710   22.5570 C   0  0  0  0  0  0  0  0  0  0  0  0
  -22.2970   -4.2340   21.3700 F   0  0  0  0  0  0  0  0  0  0  0  0
  -21.3380   -3.7070   26.0180 F   0  0  0  0  0  0  0  0  0  0  0  0
  -22.7270  -13.5350   21.1400 C   0  0  0  0  0  0  0  0  0  0  0  0
  -21.9980  -12.8410   22.0070 N   0  0  0  0  0  0  0  0  0  0  0  0
  -22.2890  -14.5570   20.6140 O   0  0  0  0  0  0  0  0  0  0  0  0
  -22.3630  -12.0140   22.4560 H   0  0  0  0  0  0  0  0  0  0  0  0
  -21.0590  -13.1420   22.2260 H   0  0  0  0  0  0  0  0  0  0  0  0
  -25.3580  -15.2000   20.3210 N   0  0  0  0  0  0  0  0  0  0  0  0
  -24.5910  -15.8550   20.4240 H   0  0  0  0  0  0  0  0  0  0  0  0
  -26.2100  -15.6370   19.9890 H   0  0  0  0  0  0  0  0  0  0  0  0
  -28.4880  -24.3680   21.0980 C   0  0  0  0  0  2  0  0  0  0  0  0
  -28.6600  -25.8840   21.3690 C   0  0  0  0  0  2  0  0  0  0  0  0
  -28.4340  -26.6800   20.1990 O   0  0  0  0  0  0  0  0  0  0  0  0
  -24.5960  -31.8820   23.2470 C   0  0  0  0  0  0  0  0  0  0  0  0
  -27.2780  -27.4270   20.2190 C   0  0  0  0  0  0  0  0  0  0  0  0
  -23.4080  -30.4640   21.6050 C   0  0  0  0  0  3  0  0  0  0  0  0
  -24.8800  -28.9200   20.2010 C   0  0  0  0  0  0  0  0  0  0  0  0
  -25.9350  -30.8250   21.4320 C   0  0  0  0  0  2  0  0  0  0  0  0
  -26.0290  -29.4500   20.8030 C   0  0  0  0  0  0  0  0  0  0  0  0
  -27.2330  -28.7080   20.8150 C   0  0  0  0  0  3  0  0  0  0  0  0
  -26.1190  -26.9100   19.6080 C   0  0  0  0  0  3  0  0  0  0  0  0
  -24.9190  -27.6480   19.6010 C   0  0  0  0  0  3  0  0  0  0  0  0
  -23.6330  -29.7740   20.2310 C   0  0  0  0  0  2  0  0  0  0  0  0
  -24.6640  -31.0690   22.1560 N   0  0  0  0  0  0  0  0  0  0  0  0
  -23.5060  -32.1780   23.7540 O   0  0  0  0  0  0  0  0  0  0  0  0
  -22.7500  -29.4460   22.5660 C   0  0  0  0  0  0  0  0  0  0  0  0
  -21.4240  -29.2730   22.4370 N   0  0  0  0  0  0  0  0  0  0  0  0
  -23.4290  -28.8160   23.3810 O   0  0  0  0  0  0  0  0  0  0  0  0
  -20.9390  -29.8330   21.7500 H   0  0  0  0  0  0  0  0  0  0  0  0
  -18.0390  -28.1100   22.9370 C   0  0  0  0  0  0  0  0  0  0  0  0
  -20.6010  -28.3380   23.2030 C   0  0  0  0  0  3  0  0  0  0  0  0
  -20.6860  -26.9110   22.6160 C   0  0  0  0  0  2  0  0  0  0  0  0
  -19.5780  -26.6070   21.6030 C   0  0  0  0  0  2  0  0  0  0  0  0
  -18.2000  -26.7630   22.2520 C   0  0  0  0  0  2  0  0  0  0  0  0
  -19.1670  -28.8560   23.3690 C   0  0  0  0  0  0  0  0  0  0  0  0
  -18.9640  -30.1180   23.9700 C   0  0  0  0  0  3  0  0  0  0  0  0
  -17.6660  -30.6340   24.1410 C   0  0  0  0  0  3  0  0  0  0  0  0
  -16.5520  -29.8830   23.7240 C   0  0  0  0  0  3  0  0  0  0  0  0
  -16.7400  -28.6240   23.1280 C   0  0  0  0  0  3  0  0  0  0  0  0
  -25.8770  -32.5070   23.8850 C   0  0  0  0  0  3  0  0  0  0  0  0
  -25.5700  -33.9060   24.2100 N   0  0  0  0  0  0  0  0  0  0  0  0
  -25.9050  -34.9540   23.4450 C   0  0  0  0  0  0  0  0  0  0  0  0
  -26.5790  -34.8450   22.4170 O   0  0  0  0  0  0  0  0  0  0  0  0
  -24.9720  -34.0650   25.0070 H   0  0  0  0  0  0  0  0  0  0  0  0
  -24.1740  -36.7410   23.0730 C   0  0  0  0  0  1  0  0  0  0  0  0
  -25.4140  -36.3430   23.8920 C   0  0  0  0  0  3  0  0  0  0  0  0
  -27.5450  -37.2360   24.7230 C   0  0  0  0  0  1  0  0  0  0  0  0
  -26.4450  -37.3970   23.7750 N   0  0  0  0  0  0  0  0  0  0  0  0
  -26.0380  -38.3180   23.9150 H   0  0  0  0  0  0  0  0  0  0  0  0
  -26.3830  -31.7360   25.1670 C   0  0  1  0  0  0  0  0  0  0  0  0
  -25.2800  -31.5000   26.2240 C   0  0  0  0  0  1  0  0  0  0  0  0
  -26.9700  -30.3580   24.7800 C   0  0  0  0  0  1  0  0  0  0  0  0
  -27.5290  -32.5300   25.8390 C   0  0  0  0  0  1  0  0  0  0  0  0
  1  3  1  0
  2  4  2  0
  3  7  2  0
  3 10  1  0
  4  8  1  0
  4  7  1  0
  5  2  1  0
  6  2  1  0
  6  1  2  0
  8 52  1  0
  9  8  1  0
 10 11  1  0
 12 10  1  0
 12 13  1  0
 14 22  1  0
 15 20  1  0
 16 17  1  0
 16 15  1  0
 18 17  1  0
 18 27  1  0
 18 19  1  0
 20 14  1  0
 20 19  1  0
 21 14  2  0
 22 13  1  0
 22 23  1  0
 24 25  2  0
 25 44  1  0
 26 25  1  0
 26 29  1  0
 27 24  1  0
 27 28  1  0
 28 26  2  0
 29 30  1  0
 30 31  2  0
 32 35  1  0
 32 31  1  0
 33 32  2  0
 34 33  1  0
 34 29  2  0
 35 36  1  0
 36 37  1  0
 37 38  2  0
 39 38  1  0
 39 43  1  0
 40 39  2  0
 41 36  2  0
 41 40  1  0
 42 41  1  0
 44 45  1  0
 45 48  1  0
 45 47  1  0
 46 44  2  0
 49 50  1  0
 49 24  1  0
 51 49  1  0
 52 53  1  0
 54 56  1  0
 54 53  1  0
 55 66  2  0
 56 61  1  0
 57 65  1  0
 57 67  1  0
 58 64  1  0
 58 60  1  0
 59 65  1  0
 60 61  2  0
 60 59  1  0
 62 56  2  0
 63 62  1  0
 63 58  2  0
 64 57  1  0
 65 55  1  0
 67 69  2  0
 68 67  1  0
 70 68  1  0
 71 80  2  0
 71 76  1  0
 72 68  1  0
 72 76  1  0
 73 72  1  0
 74 75  1  0
 74 73  1  0
 75 71  1  0
 76 77  2  0
 77 78  1  0
 79 78  2  0
 80 79  1  0
 81 55  1  0
 81 82  1  0
 81 91  1  0
 82 85  1  0
 83 87  1  0
 83 82  1  0
 84 83  2  0
 87 86  1  0
 89 87  1  0
 89 90  1  0
 89 88  1  0
 91 94  1  1
 91 92  1  0
 93 91  1  0
M  ISO  4  14 100  22 100  53 101  54 101
M  END
>  <TORSDO>  (60) 
F 21

>  <SCORE>  (60) 
-13.785

>  <name>  (60) 
59

>  <ligand_id>  (60) 
59

>  <original_smiles>  (60) 
[H]c1nc(C([H])([H])[H])c(N([H])C([H])([H])C([H])([H])Oc2c([H])c([H])c3c(c2[H])C([H])([H])N(C(=O)C([H])(N([H])C(=O)C([H])(N([H])C([H])([H])[H])C([H])([H])[H])C(C([H])([H])[H])(C([H])([H])[H])C([H])([H])[H])C([H])(C(=O)N([H])C2([H])c4c([H])c([H])c([H])c([H])c4C([H])([H])C([H])([H])C2([H])[H])C3([H])[H])nc1N([H])C([H])([H])C([H])([H])N([H])C(=O)N1C([H])([H])C([H])([H])C([H])([H])C([H])(n2nc(-c3c([H])c([H])c(Oc4c([H])c([H])c(F)c([H])c4F)c([H])c3[H])c(C(=O)N([H])[H])c2N([H])[H])C1([H])[H]

>  <smiles>  (60) 
[H]c1nc(C([H])([H])[H])c(N([H])C([H])([H])C([H])([H])Oc2c([H])c([H])c3c(c2[H])C([H])([H])N(C(=O)C([H])(N([H])C(=O)C([H])(N([H])C([H])([H])[H])C([H])([H])[H])C(C([H])([H])[H])(C([H])([H])[H])C([H])([H])[H])C([H])(C(=O)N([H])C2([H])c4c([H])c([H])c([H])c([H])c4C([H])([H])C([H])([H])C2([H])[H])C3([H])[H])nc1N([H])C([H])([H])C([H])([H])N([H])C(=O)N1C([H])([H])C([H])([H])C([H])([H])C([H])(n2nc(-c3c([H])c([H])c(Oc4c([H])c([H])c(F)c([H])c4F)c([H])c3[H])c(C(=O)N([H])[H])c2N([H])[H])C1([H])[H]

> <Step>
189.0

> <Scaffold>
O=C(NC1CCCc2ccccc21)C1Cc2ccc(OCCNc3cncc(NCCNC(=O)N4CCCC(n5ccc(-c6ccc(Oc7ccccc7)cc6)n5)C4)n3)cc2CN1

> <SMILES>
CNC(C)C(=O)NC(C(=O)N1Cc2cc(OCCNc3nc(NCCNC(=O)N4CCCC(n5nc(-c6ccc(Oc7ccc(F)cc7F)cc6)c(C(N)=O)c5N)C4)cnc3C)ccc2CC1C(=O)NC1CCCc2ccccc21)C(C)(C)C

> <Tanimoto ROCS sim>
0.19724410772323608

> <Custom alerts>
1.0

> <Linker Num Aromatic Rings>
1.0

> <Linker Effective Length>
1.0

> <ADV>
0.993675947189331

> <PostDock Tanimoto ROCS sim>
0.992705762386322

> <raw_Linker Num Aromatic Rings>
1.0

> <raw_Linker Effective Length>
9.0

> <raw_ADV>
-13.78499984741211

> <total_score>
0.9965954422950745

> <ID>
default_job_59

> <PostDock Tanimoto ROCS sim (re-score)>
0.9847003

> <raw_ADV (re-score)>
-13.785

> <Final Intermolecular Energy>
-30.305

> <Final Total Internal Energy>
-2.98

> <Torsional Free Energy>
16.52

> <Unbound System's Energy>
-2.98

$$$$
default_job_60
     RDKit          3D

 97106  0  0  1  0  0  0  0  0999 V2000
  -31.7090  -23.7430   19.5510 C   0  0  0  0  0  3  0  0  0  0  0  0
  -30.7380  -24.6820   19.9480 C   0  0  0  0  0  0  0  0  0  0  0  0
  -29.1610  -22.8350   20.2690 C   0  0  0  0  0  0  0  0  0  0  0  0
  -29.4250  -24.2540   20.2810 C   0  0  0  0  0  0  0  0  0  0  0  0
  -30.1430  -21.8810   19.8240 C   0  0  0  0  0  0  0  0  0  0  0  0
  -31.4240  -22.3620   19.4500 C   0  0  0  0  0  0  0  0  0  0  0  0
  -31.1650  -26.1420   20.0020 C   0  0  0  0  0  1  0  0  0  0  0  0
  -27.7950  -22.3210   20.7110 C   0  0  0  0  0  1  0  0  0  0  0  0
  -33.5980  -21.9330   18.4890 C   0  0  0  0  0  1  0  0  0  0  0  0
  -32.3450  -21.4520   18.9700 O   0  0  0  0  0  0  0  0  0  0  0  0
  -29.8070  -20.3730   19.5650 C   0  0  0  0  0  2  0  0  0  0  0  0
  -31.5800  -17.5820   21.2330 C   0  0  0  0  0  2  0  0  0  0  0  0
  -31.3790  -19.1160   21.1370 C   0  0  0  0  0  2  0  0  0  0  0  0
  -29.4060  -18.0160   20.3970 C   0  0  0  0  0  2  0  0  0  0  0  0
  -30.1540  -17.0210   21.3180 C   0  0  0  0  0  3  0  0  0  0  0  0
  -29.9890  -19.3680   20.6710 N   0  0  2  0  0  4  0  0  0  0  0  0
  -29.4900  -19.7290   21.4700 H   0  0  0  0  0  0  0  0  0  0  0  0
  -30.6160  -14.5660   20.5110 C   0  0  0  0  0  0  0  0  0  0  0  0
  -30.3490  -12.3920   19.3500 C   0  0  0  0  0  2  0  0  0  0  0  0
  -29.4020  -12.5730   18.1430 C   0  0  0  0  0  2  0  0  0  0  0  0
  -27.9270  -12.4210   18.5670 C   0  0  0  0  0  2  0  0  0  0  0  0
  -27.5800  -13.2510   19.8310 C   0  0  0  0  0  3  0  0  0  0  0  0
  -28.6400  -13.0450   20.9410 C   0  0  0  0  0  2  0  0  0  0  0  0
  -29.9590  -13.3760   20.3730 N   0  0  0  0  0  0  0  0  0  0  0  0
  -31.7390  -14.7540   20.0360 O   0  0  0  0  0  0  0  0  0  0  0  0
  -29.8970  -15.5650   21.0780 N   0  0  0  0  0  0  0  0  0  0  0  0
  -29.0000  -15.2450   21.4160 H   0  0  0  0  0  0  0  0  0  0  0  0
  -25.1750  -13.8490   20.5250 C   0  0  0  0  0  0  0  0  0  0  0  0
  -24.1090  -13.0720   20.8920 C   0  0  0  0  0  0  0  0  0  0  0  0
  -24.5760  -11.7240   20.8710 C   0  0  0  0  0  0  0  0  0  0  0  0
  -26.2270  -12.9700   20.3050 N   0  0  0  0  0  0  0  0  0  0  0  0
  -25.8690  -11.6870   20.5710 N   0  0  0  0  0  0  0  0  0  0  0  0
  -23.8540  -10.4580   21.0610 C   0  0  0  0  0  0  0  0  0  0  0  0
  -24.2960   -9.4900   21.9900 C   0  0  0  0  0  3  0  0  0  0  0  0
  -23.5760   -8.2890   22.1690 C   0  0  0  0  0  3  0  0  0  0  0  0
  -22.4000   -8.0480   21.4210 C   0  0  0  0  0  0  0  0  0  0  0  0
  -21.9780   -9.0050   20.4810 C   0  0  0  0  0  3  0  0  0  0  0  0
  -22.6980  -10.1970   20.3000 C   0  0  0  0  0  3  0  0  0  0  0  0
  -21.6500   -6.9000   21.5100 O   0  0  0  0  0  0  0  0  0  0  0  0
  -21.6230   -6.1450   22.6540 C   0  0  0  0  0  0  0  0  0  0  0  0
  -21.2170   -6.6840   23.8950 C   0  0  0  0  0  3  0  0  0  0  0  0
  -21.1380   -5.8550   25.0320 C   0  0  0  0  0  3  0  0  0  0  0  0
  -21.4550   -4.4870   24.9300 C   0  0  0  0  0  0  0  0  0  0  0  0
  -21.8540   -3.9470   23.6940 C   0  0  0  0  0  3  0  0  0  0  0  0
  -21.9340   -4.7740   22.5600 C   0  0  0  0  0  0  0  0  0  0  0  0
  -22.2990   -4.2430   21.3680 F   0  0  0  0  0  0  0  0  0  0  0  0
  -21.3730   -3.6890   26.0190 F   0  0  0  0  0  0  0  0  0  0  0  0
  -22.7070  -13.5450   21.1560 C   0  0  0  0  0  0  0  0  0  0  0  0
  -21.9760  -12.8480   22.0190 N   0  0  0  0  0  0  0  0  0  0  0  0
  -22.2680  -14.5660   20.6300 O   0  0  0  0  0  0  0  0  0  0  0  0
  -22.3430  -12.0210   22.4690 H   0  0  0  0  0  0  0  0  0  0  0  0
  -21.0340  -13.1440   22.2310 H   0  0  0  0  0  0  0  0  0  0  0  0
  -25.3370  -15.2180   20.3380 N   0  0  0  0  0  0  0  0  0  0  0  0
  -24.5720  -15.8760   20.4330 H   0  0  0  0  0  0  0  0  0  0  0  0
  -26.1840  -15.6480   19.9890 H   0  0  0  0  0  0  0  0  0  0  0  0
  -28.3200  -25.2810   20.6920 C   0  0  0  0  0  2  0  0  0  0  0  0
  -28.4240  -26.6530   20.2070 O   0  0  0  0  0  0  0  0  0  0  0  0
  -24.6290  -31.9300   23.2560 C   0  0  0  0  0  0  0  0  0  0  0  0
  -27.2660  -27.4200   20.2160 C   0  0  0  0  0  0  0  0  0  0  0  0
  -23.4230  -30.5130   21.6300 C   0  0  0  0  0  3  0  0  0  0  0  0
  -24.8760  -28.9620   20.2140 C   0  0  0  0  0  0  0  0  0  0  0  0
  -25.9570  -30.8520   21.4390 C   0  0  0  0  0  2  0  0  0  0  0  0
  -26.0390  -29.4770   20.8010 C   0  0  0  0  0  0  0  0  0  0  0  0
  -27.2380  -28.7170   20.7940 C   0  0  0  0  0  3  0  0  0  0  0  0
  -26.0850  -26.9390   19.6060 C   0  0  0  0  0  3  0  0  0  0  0  0
  -24.8980  -27.6930   19.6110 C   0  0  0  0  0  3  0  0  0  0  0  0
  -23.6320  -29.8220   20.2570 C   0  0  0  0  0  2  0  0  0  0  0  0
  -24.6880  -31.1130   22.1660 N   0  0  0  0  0  0  0  0  0  0  0  0
  -23.5430  -32.2300   23.7700 O   0  0  0  0  0  0  0  0  0  0  0  0
  -22.7670  -29.5020   22.5980 C   0  0  0  0  0  0  0  0  0  0  0  0
  -21.4450  -29.3090   22.4600 N   0  0  0  0  0  0  0  0  0  0  0  0
  -23.4470  -28.8910   23.4270 O   0  0  0  0  0  0  0  0  0  0  0  0
  -20.9590  -29.8530   21.7600 H   0  0  0  0  0  0  0  0  0  0  0  0
  -18.0750  -28.0840   22.9270 C   0  0  0  0  0  0  0  0  0  0  0  0
  -20.6260  -28.3730   23.2300 C   0  0  0  0  0  3  0  0  0  0  0  0
  -20.7520  -26.9360   22.6740 C   0  0  0  0  0  2  0  0  0  0  0  0
  -19.6680  -26.5880   21.6490 C   0  0  0  0  0  2  0  0  0  0  0  0
  -18.2750  -26.7280   22.2710 C   0  0  0  0  0  2  0  0  0  0  0  0
  -19.1800  -28.8630   23.3630 C   0  0  0  0  0  0  0  0  0  0  0  0
  -18.9390  -30.1320   23.9330 C   0  0  0  0  0  3  0  0  0  0  0  0
  -17.6270  -30.6210   24.0730 C   0  0  0  0  0  3  0  0  0  0  0  0
  -16.5370  -29.8390   23.6560 C   0  0  0  0  0  3  0  0  0  0  0  0
  -16.7620  -28.5720   23.0900 C   0  0  0  0  0  3  0  0  0  0  0  0
  -25.9160  -32.5530   23.8840 C   0  0  0  0  0  3  0  0  0  0  0  0
  -26.4320  -31.7800   25.1610 C   0  0  1  0  0  0  0  0  0  0  0  0
  -25.3370  -31.5460   26.2260 C   0  0  0  0  0  1  0  0  0  0  0  0
  -27.0140  -30.4020   24.7720 C   0  0  0  0  0  1  0  0  0  0  0  0
  -27.5830  -32.5740   25.8230 C   0  0  0  0  0  1  0  0  0  0  0  0
  -25.6130  -33.9520   24.2130 N   0  0  0  0  0  0  0  0  0  0  0  0
  -25.9380  -35.0010   23.4460 C   0  0  0  0  0  0  0  0  0  0  0  0
  -26.5980  -34.8910   22.4090 O   0  0  0  0  0  0  0  0  0  0  0  0
  -25.0250  -34.1100   25.0190 H   0  0  0  0  0  0  0  0  0  0  0  0
  -24.2020  -36.7880   23.1020 C   0  0  0  0  0  1  0  0  0  0  0  0
  -25.4540  -36.3900   23.9010 C   0  0  0  0  0  3  0  0  0  0  0  0
  -27.5950  -37.2830   24.7030 C   0  0  0  0  0  1  0  0  0  0  0  0
  -26.4830  -37.4430   23.7690 N   0  0  0  0  0  0  0  0  0  0  0  0
  -26.0770  -38.3640   23.9130 H   0  0  0  0  0  0  0  0  0  0  0  0
  1  2  1  0
  2  7  1  0
  2  4  2  0
  3  4  1  0
  3  8  1  0
  4 56  1  0
  5  3  2  0
  6  1  2  0
  6  5  1  0
  9 10  1  0
 10  6  1  0
 11  5  1  0
 11 16  1  0
 12 15  1  0
 13 12  1  0
 14 16  1  0
 14 15  1  0
 15 26  1  0
 16 13  1  0
 16 17  1  1
 18 26  1  0
 19 24  1  0
 20 21  1  0
 20 19  1  0
 22 21  1  0
 22 31  1  0
 22 23  1  0
 24 18  1  0
 24 23  1  0
 25 18  2  0
 26 27  1  0
 28 29  2  0
 29 48  1  0
 30 29  1  0
 30 33  1  0
 31 28  1  0
 31 32  1  0
 32 30  2  0
 33 34  1  0
 34 35  2  0
 36 39  1  0
 36 35  1  0
 37 36  2  0
 38 37  1  0
 38 33  2  0
 39 40  1  0
 40 41  1  0
 41 42  2  0
 43 42  1  0
 43 47  1  0
 44 43  2  0
 45 40  2  0
 45 44  1  0
 46 45  1  0
 48 49  1  0
 49 52  1  0
 49 51  1  0
 50 48  2  0
 53 54  1  0
 53 28  1  0
 55 53  1  0
 57 59  1  0
 57 56  1  0
 58 69  2  0
 59 64  1  0
 60 68  1  0
 60 70  1  0
 61 67  1  0
 61 63  1  0
 62 68  1  0
 63 62  1  0
 64 63  2  0
 65 66  1  0
 65 59  2  0
 66 61  2  0
 67 60  1  0
 68 58  1  0
 70 72  2  0
 71 70  1  0
 73 71  1  0
 74 83  2  0
 74 79  1  0
 75 71  1  0
 75 79  1  0
 76 75  1  0
 77 78  1  0
 77 76  1  0
 78 74  1  0
 79 80  2  0
 80 81  1  0
 82 81  2  0
 83 82  1  0
 84 58  1  0
 84 89  1  0
 84 85  1  0
 85 88  1  1
 85 86  1  0
 87 85  1  0
 89 92  1  0
 90 94  1  0
 90 89  1  0
 91 90  2  0
 94 93  1  0
 96 94  1  0
 96 97  1  0
 96 95  1  0
M  ISO  4  18 100  26 100  56 101  57 101
M  END
>  <TORSDO>  (61) 
F 20

>  <SCORE>  (61) 
-14.247

>  <name>  (61) 
60

>  <ligand_id>  (61) 
60

>  <original_smiles>  (61) 
[H]c1c([H])c([H])c2c(c1[H])C([H])([H])C([H])([H])C([H])([H])C2([H])N([H])C(=O)C1([H])N(C(=O)C([H])(N([H])C(=O)C([H])(N([H])C([H])([H])[H])C([H])([H])[H])C(C([H])([H])[H])(C([H])([H])[H])C([H])([H])[H])C([H])([H])c2c([H])c(OC([H])([H])c3c(C([H])([H])[H])c([H])c(OC([H])([H])[H])c(C([H])([H])[N+]4([H])C([H])([H])C([H])([H])C([H])(N([H])C(=O)N5C([H])([H])C([H])([H])C([H])([H])C([H])(n6nc(-c7c([H])c([H])c(Oc8c([H])c([H])c(F)c([H])c8F)c([H])c7[H])c(C(=O)N([H])[H])c6N([H])[H])C5([H])[H])C4([H])[H])c3C([H])([H])[H])c([H])c([H])c2C1([H])[H]

>  <smiles>  (61) 
[H]c1c([H])c([H])c2c(c1[H])C([H])([H])C([H])([H])C([H])([H])C2([H])N([H])C(=O)C1([H])N(C(=O)C([H])(N([H])C(=O)C([H])(N([H])C([H])([H])[H])C([H])([H])[H])C(C([H])([H])[H])(C([H])([H])[H])C([H])([H])[H])C([H])([H])c2c([H])c(OC([H])([H])c3c(C([H])([H])[H])c([H])c(OC([H])([H])[H])c(C([H])([H])[N+]4([H])C([H])([H])C([H])([H])C([H])(N([H])C(=O)N5C([H])([H])C([H])([H])C([H])([H])C([H])(n6nc(-c7c([H])c([H])c(Oc8c([H])c([H])c(F)c([H])c8F)c([H])c7[H])c(C(=O)N([H])[H])c6N([H])[H])C5([H])[H])C4([H])[H])c3C([H])([H])[H])c([H])c([H])c2C1([H])[H]

> <Step>
162.0

> <Scaffold>
O=C(NC1CCCc2ccccc21)C1Cc2ccc(OCc3cccc(CN4CCC(NC(=O)N5CCCC(n6ccc(-c7ccc(Oc8ccccc8)cc7)n6)C5)C4)c3)cc2CN1

> <SMILES>
CNC(C)C(=O)NC(C(=O)N1Cc2cc(OCc3c(C)cc(OC)c(CN4CCC(NC(=O)N5CCCC(n6nc(-c7ccc(Oc8ccc(F)cc8F)cc7)c(C(N)=O)c6N)C5)C4)c3C)ccc2CC1C(=O)NC1CCCc2ccccc21)C(C)(C)C

> <Tanimoto ROCS sim>
0.24515166878700256

> <Custom alerts>
1.0

> <Linker Num Aromatic Rings>
1.0

> <Linker Effective Length>
1.0

> <ADV>
0.994874119758606

> <PostDock Tanimoto ROCS sim>
0.9914781451225281

> <raw_Linker Num Aromatic Rings>
1.0

> <raw_Linker Effective Length>
8.0

> <raw_ADV>
-14.152000427246094

> <total_score>
0.9965880513191223

> <ID>
default_job_60

> <PostDock Tanimoto ROCS sim (re-score)>
0.9838105

> <raw_ADV (re-score)>
-14.247

> <Final Intermolecular Energy>
-30.489

> <Final Total Internal Energy>
-2.434

> <Torsional Free Energy>
16.241

> <Unbound System's Energy>
-2.434

$$$$
default_job_61
     RDKit          3D

 93101  0  0  1  0  0  0  0  0999 V2000
  -30.1110  -22.0460   18.7260 C   0  0  0  0  0  0  0  0  0  0  0  0
  -31.2520  -20.2640   17.5640 C   0  0  0  0  0  1  0  0  0  0  0  0
  -30.4580  -20.7140   18.7210 N   0  0  0  0  0  0  0  0  0  0  0  0
  -30.4800  -22.7640   17.7870 O   0  0  0  0  0  0  0  0  0  0  0  0
  -28.8540  -17.5950   19.9940 C   0  0  0  0  0  3  0  0  0  0  0  0
  -28.9630  -18.9270   19.5210 C   0  0  0  0  0  3  0  0  0  0  0  0
  -31.1300  -17.6860   20.8120 C   0  0  0  0  0  3  0  0  0  0  0  0
  -31.2440  -19.0260   20.3570 C   0  0  0  0  0  0  0  0  0  0  0  0
  -29.9590  -16.9300   20.5770 C   0  0  0  0  0  0  0  0  0  0  0  0
  -30.1760  -19.6440   19.6450 C   0  0  0  0  0  0  0  0  0  0  0  0
  -32.5650  -19.7470   20.5600 C   0  0  0  0  0  1  0  0  0  0  0  0
  -30.6250  -14.5210   20.4700 C   0  0  0  0  0  0  0  0  0  0  0  0
  -30.3740  -12.3380   19.3420 C   0  0  0  0  0  2  0  0  0  0  0  0
  -29.4280  -12.5340   18.1370 C   0  0  0  0  0  2  0  0  0  0  0  0
  -27.9550  -12.3850   18.5650 C   0  0  0  0  0  2  0  0  0  0  0  0
  -27.6130  -13.2190   19.8290 C   0  0  0  0  0  3  0  0  0  0  0  0
  -28.6690  -13.0000   20.9370 C   0  0  0  0  0  2  0  0  0  0  0  0
  -29.9890  -13.3200   20.3690 N   0  0  0  0  0  0  0  0  0  0  0  0
  -31.7700  -14.7000   20.0420 O   0  0  0  0  0  0  0  0  0  0  0  0
  -29.8520  -15.5400   20.9230 N   0  0  0  0  0  0  0  0  0  0  0  0
  -28.9380  -15.2340   21.2200 H   0  0  0  0  0  0  0  0  0  0  0  0
  -25.2140  -13.8260   20.5290 C   0  0  0  0  0  0  0  0  0  0  0  0
  -24.1450  -13.0540   20.8980 C   0  0  0  0  0  0  0  0  0  0  0  0
  -24.6080  -11.7030   20.8710 C   0  0  0  0  0  0  0  0  0  0  0  0
  -26.2600  -12.9460   20.3050 N   0  0  0  0  0  0  0  0  0  0  0  0
  -25.8990  -11.6640   20.5680 N   0  0  0  0  0  0  0  0  0  0  0  0
  -23.8830  -10.4400   21.0620 C   0  0  0  0  0  0  0  0  0  0  0  0
  -24.3240   -9.4700   21.9880 C   0  0  0  0  0  3  0  0  0  0  0  0
  -23.6010   -8.2720   22.1680 C   0  0  0  0  0  3  0  0  0  0  0  0
  -22.4210   -8.0370   21.4210 C   0  0  0  0  0  0  0  0  0  0  0  0
  -22.0000   -8.9970   20.4860 C   0  0  0  0  0  3  0  0  0  0  0  0
  -22.7240  -10.1870   20.3040 C   0  0  0  0  0  3  0  0  0  0  0  0
  -21.6660   -6.8920   21.5110 O   0  0  0  0  0  0  0  0  0  0  0  0
  -21.6390   -6.1360   22.6550 C   0  0  0  0  0  0  0  0  0  0  0  0
  -21.2400   -6.6790   23.8960 C   0  0  0  0  0  3  0  0  0  0  0  0
  -21.1600   -5.8500   25.0320 C   0  0  0  0  0  3  0  0  0  0  0  0
  -21.4670   -4.4800   24.9300 C   0  0  0  0  0  0  0  0  0  0  0  0
  -21.8580   -3.9380   23.6930 C   0  0  0  0  0  3  0  0  0  0  0  0
  -21.9420   -4.7630   22.5590 C   0  0  0  0  0  0  0  0  0  0  0  0
  -22.3010   -4.2320   21.3650 F   0  0  0  0  0  0  0  0  0  0  0  0
  -21.3830   -3.6820   26.0190 F   0  0  0  0  0  0  0  0  0  0  0  0
  -22.7470  -13.5300   21.1670 C   0  0  0  0  0  0  0  0  0  0  0  0
  -22.0190  -12.8330   22.0330 N   0  0  0  0  0  0  0  0  0  0  0  0
  -22.3090  -14.5580   20.6500 O   0  0  0  0  0  0  0  0  0  0  0  0
  -22.3870  -12.0010   22.4710 H   0  0  0  0  0  0  0  0  0  0  0  0
  -21.0820  -13.1330   22.2590 H   0  0  0  0  0  0  0  0  0  0  0  0
  -25.3770  -15.1970   20.3490 N   0  0  0  0  0  0  0  0  0  0  0  0
  -24.6060  -15.8490   20.4500 H   0  0  0  0  0  0  0  0  0  0  0  0
  -26.2200  -15.6350   20.0060 H   0  0  0  0  0  0  0  0  0  0  0  0
  -29.2870  -22.7660   19.8310 C   0  0  0  0  0  2  0  0  0  0  0  0
  -29.1840  -24.3250   19.5590 C   0  0  0  0  0  2  0  0  0  0  0  0
  -28.3250  -25.2140   20.5030 C   0  0  0  0  0  2  0  0  0  0  0  0
  -28.4170  -26.6310   20.1760 O   0  0  0  0  0  0  0  0  0  0  0  0
  -24.6320  -31.8920   23.2440 C   0  0  0  0  0  0  0  0  0  0  0  0
  -27.2540  -27.3900   20.1790 C   0  0  0  0  0  0  0  0  0  0  0  0
  -23.4230  -30.4820   21.6140 C   0  0  0  0  0  3  0  0  0  0  0  0
  -24.8700  -28.9360   20.1870 C   0  0  0  0  0  0  0  0  0  0  0  0
  -25.9540  -30.8200   21.4180 C   0  0  0  0  0  2  0  0  0  0  0  0
  -26.0330  -29.4470   20.7760 C   0  0  0  0  0  0  0  0  0  0  0  0
  -27.2290  -28.6830   20.7620 C   0  0  0  0  0  3  0  0  0  0  0  0
  -26.0740  -26.9110   19.5690 C   0  0  0  0  0  3  0  0  0  0  0  0
  -24.8880  -27.6700   19.5760 C   0  0  0  0  0  3  0  0  0  0  0  0
  -23.6290  -29.8020   20.2360 C   0  0  0  0  0  2  0  0  0  0  0  0
  -24.6900  -31.0760   22.1520 N   0  0  0  0  0  0  0  0  0  0  0  0
  -23.5470  -32.1940   23.7580 O   0  0  0  0  0  0  0  0  0  0  0  0
  -22.7680  -29.4640   22.5770 C   0  0  0  0  0  0  0  0  0  0  0  0
  -21.4430  -29.2830   22.4500 N   0  0  0  0  0  0  0  0  0  0  0  0
  -23.4510  -28.8420   23.3960 O   0  0  0  0  0  0  0  0  0  0  0  0
  -20.9550  -29.8380   21.7630 H   0  0  0  0  0  0  0  0  0  0  0  0
  -18.0690  -28.0820   22.9400 C   0  0  0  0  0  0  0  0  0  0  0  0
  -20.6250  -28.3440   23.2200 C   0  0  0  0  0  3  0  0  0  0  0  0
  -20.7310  -26.9120   22.6460 C   0  0  0  0  0  2  0  0  0  0  0  0
  -19.6330  -26.5860   21.6290 C   0  0  0  0  0  2  0  0  0  0  0  0
  -18.2480  -26.7320   22.2680 C   0  0  0  0  0  2  0  0  0  0  0  0
  -19.1850  -28.8470   23.3720 C   0  0  0  0  0  0  0  0  0  0  0  0
  -18.9630  -30.1110   23.9590 C   0  0  0  0  0  3  0  0  0  0  0  0
  -17.6570  -30.6120   24.1190 C   0  0  0  0  0  3  0  0  0  0  0  0
  -16.5560  -29.8450   23.7030 C   0  0  0  0  0  3  0  0  0  0  0  0
  -16.7620  -28.5810   23.1190 C   0  0  0  0  0  3  0  0  0  0  0  0
  -25.9200  -32.5120   23.8720 C   0  0  0  0  0  3  0  0  0  0  0  0
  -26.4330  -31.7370   25.1490 C   0  0  1  0  0  0  0  0  0  0  0  0
  -25.3380  -31.5040   26.2160 C   0  0  0  0  0  1  0  0  0  0  0  0
  -27.0110  -30.3570   24.7550 C   0  0  0  0  0  1  0  0  0  0  0  0
  -27.5900  -32.5240   25.8100 C   0  0  0  0  0  1  0  0  0  0  0  0
  -25.6200  -33.9100   24.2040 N   0  0  0  0  0  0  0  0  0  0  0  0
  -25.9500  -34.9600   23.4390 C   0  0  0  0  0  0  0  0  0  0  0  0
  -26.6130  -34.8510   22.4030 O   0  0  0  0  0  0  0  0  0  0  0  0
  -25.0320  -34.0690   25.0070 H   0  0  0  0  0  0  0  0  0  0  0  0
  -24.2220  -36.7530   23.0880 C   0  0  0  0  0  1  0  0  0  0  0  0
  -25.4670  -36.3500   23.8940 C   0  0  0  0  0  3  0  0  0  0  0  0
  -27.6090  -37.2310   24.7090 C   0  0  0  0  0  1  0  0  0  0  0  0
  -26.5010  -37.4010   23.7720 N   0  0  0  0  0  0  0  0  0  0  0  0
  -26.0980  -38.3220   23.9220 H   0  0  0  0  0  0  0  0  0  0  0  0
  1 50  1  0
  2  3  1  0
  3  1  1  0
  3 10  1  0
  4  1  2  0
  5  9  1  0
  6 10  1  0
  6  5  2  0
  8 11  1  0
  8  7  1  0
  9  7  2  0
  9 20  1  0
 10  8  2  0
 12 20  1  0
 13 18  1  0
 14 15  1  0
 14 13  1  0
 16 15  1  0
 16 25  1  0
 16 17  1  0
 18 12  1  0
 18 17  1  0
 19 12  2  0
 20 21  1  0
 22 23  2  0
 23 42  1  0
 24 23  1  0
 24 27  1  0
 25 22  1  0
 25 26  1  0
 26 24  2  0
 27 28  1  0
 28 29  2  0
 30 33  1  0
 30 29  1  0
 31 30  2  0
 32 31  1  0
 32 27  2  0
 33 34  1  0
 34 35  1  0
 35 36  2  0
 37 36  1  0
 37 41  1  0
 38 37  2  0
 39 34  2  0
 39 38  1  0
 40 39  1  0
 42 43  1  0
 43 46  1  0
 43 45  1  0
 44 42  2  0
 47 48  1  0
 47 22  1  0
 49 47  1  0
 51 50  1  0
 51 52  1  0
 53 55  1  0
 53 52  1  0
 54 65  2  0
 55 60  1  0
 56 64  1  0
 56 66  1  0
 57 63  1  0
 57 59  1  0
 58 64  1  0
 59 58  1  0
 60 59  2  0
 61 62  1  0
 61 55  2  0
 62 57  2  0
 63 56  1  0
 64 54  1  0
 66 68  2  0
 67 66  1  0
 69 67  1  0
 70 79  2  0
 70 75  1  0
 71 67  1  0
 71 75  1  0
 72 71  1  0
 73 74  1  0
 73 72  1  0
 74 70  1  0
 75 76  2  0
 76 77  1  0
 78 77  2  0
 79 78  1  0
 80 54  1  0
 80 85  1  0
 80 81  1  0
 81 84  1  1
 81 82  1  0
 83 81  1  0
 85 88  1  0
 86 90  1  0
 86 85  1  0
 87 86  2  0
 90 89  1  0
 92 90  1  0
 92 93  1  0
 92 91  1  0
M  ISO  4  12 100  20 100  52 101  53 101
M  END
>  <TORSDO>  (62) 
F 20

>  <SCORE>  (62) 
-14.007

>  <name>  (62) 
61

>  <ligand_id>  (62) 
61

>  <original_smiles>  (62) 
[H]c1c([H])c([H])c2c(c1[H])C([H])([H])C([H])([H])C([H])([H])C2([H])N([H])C(=O)C1([H])N(C(=O)C([H])(N([H])C(=O)C([H])(N([H])C([H])([H])[H])C([H])([H])[H])C(C([H])([H])[H])(C([H])([H])[H])C([H])([H])[H])C([H])([H])c2c([H])c(OC([H])([H])C([H])([H])C([H])([H])C(=O)N(c3c([H])c([H])c(N([H])C(=O)N4C([H])([H])C([H])([H])C([H])([H])C([H])(n5nc(-c6c([H])c([H])c(Oc7c([H])c([H])c(F)c([H])c7F)c([H])c6[H])c(C(=O)N([H])[H])c5N([H])[H])C4([H])[H])c([H])c3C([H])([H])[H])C([H])([H])[H])c([H])c([H])c2C1([H])[H]

>  <smiles>  (62) 
[H]c1c([H])c([H])c2c(c1[H])C([H])([H])C([H])([H])C([H])([H])C2([H])N([H])C(=O)C1([H])N(C(=O)C([H])(N([H])C(=O)C([H])(N([H])C([H])([H])[H])C([H])([H])[H])C(C([H])([H])[H])(C([H])([H])[H])C([H])([H])[H])C([H])([H])c2c([H])c(OC([H])([H])C([H])([H])C([H])([H])C(=O)N(c3c([H])c([H])c(N([H])C(=O)N4C([H])([H])C([H])([H])C([H])([H])C([H])(n5nc(-c6c([H])c([H])c(Oc7c([H])c([H])c(F)c([H])c7F)c([H])c6[H])c(C(=O)N([H])[H])c5N([H])[H])C4([H])[H])c([H])c3C([H])([H])[H])C([H])([H])[H])c([H])c([H])c2C1([H])[H]

> <Step>
10.0

> <Scaffold>
O=C(CCCOc1ccc2c(c1)CNC(C(=O)NC1CCCc3ccccc31)C2)Nc1ccc(NC(=O)N2CCCC(n3ccc(-c4ccc(Oc5ccccc5)cc4)n3)C2)cc1

> <SMILES>
CNC(C)C(=O)NC(C(=O)N1Cc2cc(OCCCC(=O)N(C)c3ccc(NC(=O)N4CCCC(n5nc(-c6ccc(Oc7ccc(F)cc7F)cc6)c(C(N)=O)c5N)C4)cc3C)ccc2CC1C(=O)NC1CCCc2ccccc21)C(C)(C)C

> <Tanimoto ROCS sim>
0.26423901319503784

> <Custom alerts>
1.0

> <Linker Num Aromatic Rings>
1.0

> <Linker Effective Length>
1.0

> <ADV>
0.9944653511047363

> <PostDock Tanimoto ROCS sim>
0.9918838143348694

> <raw_Linker Num Aromatic Rings>
1.0

> <raw_Linker Effective Length>
9.0

> <raw_ADV>
-14.017999649047852

> <total_score>
0.9965872764587402

> <ID>
default_job_61

> <PostDock Tanimoto ROCS sim (re-score)>
0.98549086

> <raw_ADV (re-score)>
-14.007

> <Final Intermolecular Energy>
-29.974

> <Final Total Internal Energy>
-2.822

> <Torsional Free Energy>
15.967

> <Unbound System's Energy>
-2.822

$$$$
default_job_62
     RDKit          3D

 95104  0  0  1  0  0  0  0  0999 V2000
  -30.0000  -24.8980   19.6190 C   0  0  0  0  0  2  0  0  0  0  0  0
  -27.8860  -24.2180   20.6240 C   0  0  0  0  0  2  0  0  0  0  0  0
  -30.2060  -23.4680   19.0540 C   0  0  0  0  0  2  0  0  0  0  0  0
  -28.0790  -22.7620   20.0830 C   0  0  0  0  0  2  0  0  0  0  0  0
  -28.5150  -25.2870   19.7000 C   0  0  0  0  0  3  0  0  0  0  0  0
  -29.4990  -22.3740   19.7970 N   0  0  1  0  0  4  0  0  0  0  0  0
  -29.9710  -22.2570   20.6810 H   0  0  0  0  0  0  0  0  0  0  0  0
  -28.4270  -26.6580   20.1720 O   0  0  0  0  0  0  0  0  0  0  0  0
  -24.6130  -31.8670   23.2240 C   0  0  0  0  0  0  0  0  0  0  0  0
  -27.2400  -27.3820   20.1340 C   0  0  0  0  0  0  0  0  0  0  0  0
  -23.4000  -30.4640   21.5890 C   0  0  0  0  0  3  0  0  0  0  0  0
  -24.8460  -28.9210   20.1550 C   0  0  0  0  0  0  0  0  0  0  0  0
  -25.9310  -30.8050   21.3900 C   0  0  0  0  0  2  0  0  0  0  0  0
  -26.0090  -29.4330   20.7430 C   0  0  0  0  0  0  0  0  0  0  0  0
  -27.2020  -28.6700   20.7290 C   0  0  0  0  0  3  0  0  0  0  0  0
  -26.0540  -26.8940   19.5360 C   0  0  0  0  0  3  0  0  0  0  0  0
  -24.8670  -27.6540   19.5480 C   0  0  0  0  0  3  0  0  0  0  0  0
  -23.6050  -29.7860   20.2080 C   0  0  0  0  0  2  0  0  0  0  0  0
  -24.6670  -31.0570   22.1280 N   0  0  0  0  0  0  0  0  0  0  0  0
  -23.5290  -32.1640   23.7440 O   0  0  0  0  0  0  0  0  0  0  0  0
  -22.7480  -29.4430   22.5500 C   0  0  0  0  0  0  0  0  0  0  0  0
  -21.4220  -29.2680   22.4320 N   0  0  0  0  0  0  0  0  0  0  0  0
  -23.4330  -28.8130   23.3600 O   0  0  0  0  0  0  0  0  0  0  0  0
  -20.9300  -29.8300   21.7510 H   0  0  0  0  0  0  0  0  0  0  0  0
  -18.0470  -28.0800   22.9410 C   0  0  0  0  0  0  0  0  0  0  0  0
  -20.6060  -28.3300   23.2030 C   0  0  0  0  0  3  0  0  0  0  0  0
  -20.7020  -26.9010   22.6210 C   0  0  0  0  0  2  0  0  0  0  0  0
  -19.5960  -26.5860   21.6090 C   0  0  0  0  0  2  0  0  0  0  0  0
  -18.2170  -26.7330   22.2590 C   0  0  0  0  0  2  0  0  0  0  0  0
  -19.1700  -28.8370   23.3700 C   0  0  0  0  0  0  0  0  0  0  0  0
  -18.9570  -30.0970   23.9680 C   0  0  0  0  0  3  0  0  0  0  0  0
  -17.6540  -30.6020   24.1410 C   0  0  0  0  0  3  0  0  0  0  0  0
  -16.5460  -29.8420   23.7290 C   0  0  0  0  0  3  0  0  0  0  0  0
  -16.7430  -28.5830   23.1350 C   0  0  0  0  0  3  0  0  0  0  0  0
  -25.9030  -32.4850   23.8510 C   0  0  0  0  0  3  0  0  0  0  0  0
  -25.6030  -33.8810   24.1900 N   0  0  0  0  0  0  0  0  0  0  0  0
  -25.9340  -34.9360   23.4320 C   0  0  0  0  0  0  0  0  0  0  0  0
  -26.5980  -34.8340   22.3970 O   0  0  0  0  0  0  0  0  0  0  0  0
  -25.0130  -34.0360   24.9950 H   0  0  0  0  0  0  0  0  0  0  0  0
  -24.2050  -36.7310   23.0920 C   0  0  0  0  0  1  0  0  0  0  0  0
  -25.4500  -36.3240   23.8950 C   0  0  0  0  0  3  0  0  0  0  0  0
  -27.5930  -37.2010   24.7130 C   0  0  0  0  0  1  0  0  0  0  0  0
  -26.4850  -37.3750   23.7780 N   0  0  0  0  0  0  0  0  0  0  0  0
  -26.0810  -38.2950   23.9330 H   0  0  0  0  0  0  0  0  0  0  0  0
  -26.4220  -31.7050   25.1220 C   0  0  1  0  0  0  0  0  0  0  0  0
  -25.3330  -31.4680   26.1920 C   0  0  0  0  0  1  0  0  0  0  0  0
  -26.9970  -30.3270   24.7210 C   0  0  0  0  0  1  0  0  0  0  0  0
  -27.5800  -32.4900   25.7830 C   0  0  0  0  0  1  0  0  0  0  0  0
  -29.6420  -21.0730   19.0410 C   0  0  0  0  0  2  0  0  0  0  0  0
  -30.9820  -17.7800   20.6730 C   0  0  0  0  0  3  0  0  0  0  0  0
  -28.6300  -17.4980   20.2280 C   0  0  0  0  0  3  0  0  0  0  0  0
  -30.8960  -19.1450   20.2690 C   0  0  0  0  0  0  0  0  0  0  0  0
  -28.5300  -18.8410   19.7840 C   0  0  0  0  0  0  0  0  0  0  0  0
  -29.6710  -19.6940   19.7770 C   0  0  0  0  0  0  0  0  0  0  0  0
  -29.8550  -16.9280   20.6270 C   0  0  0  0  0  0  0  0  0  0  0  0
  -32.1670  -19.9770   20.3280 C   0  0  0  0  0  1  0  0  0  0  0  0
  -27.1810  -19.2990   19.2500 C   0  0  0  0  0  1  0  0  0  0  0  0
  -30.6230  -14.5350   20.4960 C   0  0  0  0  0  0  0  0  0  0  0  0
  -30.3690  -12.3430   19.3740 C   0  0  0  0  0  2  0  0  0  0  0  0
  -29.4400  -12.5310   18.1550 C   0  0  0  0  0  2  0  0  0  0  0  0
  -27.9580  -12.4020   18.5650 C   0  0  0  0  0  2  0  0  0  0  0  0
  -27.6070  -13.2410   19.8230 C   0  0  0  0  0  3  0  0  0  0  0  0
  -28.6510  -13.0190   20.9420 C   0  0  0  0  0  2  0  0  0  0  0  0
  -29.9800  -13.3340   20.3920 N   0  0  0  0  0  0  0  0  0  0  0  0
  -31.7600  -14.7190   20.0520 O   0  0  0  0  0  0  0  0  0  0  0  0
  -29.8730  -15.5390   21.0100 N   0  0  0  0  0  0  0  0  0  0  0  0
  -28.9990  -15.1990   21.3810 H   0  0  0  0  0  0  0  0  0  0  0  0
  -25.2010  -13.8620   20.4920 C   0  0  0  0  0  0  0  0  0  0  0  0
  -24.1260  -13.0980   20.8590 C   0  0  0  0  0  0  0  0  0  0  0  0
  -24.5820  -11.7450   20.8480 C   0  0  0  0  0  0  0  0  0  0  0  0
  -26.2460  -12.9750   20.2850 N   0  0  0  0  0  0  0  0  0  0  0  0
  -25.8760  -11.6970   20.5560 N   0  0  0  0  0  0  0  0  0  0  0  0
  -23.8480  -10.4880   21.0410 C   0  0  0  0  0  0  0  0  0  0  0  0
  -24.2780   -9.5170   21.9720 C   0  0  0  0  0  3  0  0  0  0  0  0
  -23.5440   -8.3250   22.1530 C   0  0  0  0  0  3  0  0  0  0  0  0
  -22.3670   -8.0940   21.4020 C   0  0  0  0  0  0  0  0  0  0  0  0
  -21.9550   -9.0540   20.4600 C   0  0  0  0  0  3  0  0  0  0  0  0
  -22.6900  -10.2380   20.2770 C   0  0  0  0  0  3  0  0  0  0  0  0
  -21.6050   -6.9540   21.4930 O   0  0  0  0  0  0  0  0  0  0  0  0
  -21.5710   -6.2020   22.6390 C   0  0  0  0  0  0  0  0  0  0  0  0
  -21.1820   -6.7520   23.8800 C   0  0  0  0  0  3  0  0  0  0  0  0
  -21.0910   -5.9260   25.0190 C   0  0  0  0  0  3  0  0  0  0  0  0
  -21.3810   -4.5520   24.9180 C   0  0  0  0  0  0  0  0  0  0  0  0
  -21.7640   -4.0020   23.6820 C   0  0  0  0  0  3  0  0  0  0  0  0
  -21.8550   -4.8240   22.5450 C   0  0  0  0  0  0  0  0  0  0  0  0
  -22.2030   -4.2850   21.3520 F   0  0  0  0  0  0  0  0  0  0  0  0
  -21.2860   -3.7570   26.0090 F   0  0  0  0  0  0  0  0  0  0  0  0
  -22.7280  -13.5840   21.1090 C   0  0  0  0  0  0  0  0  0  0  0  0
  -21.9870  -12.9030   21.9760 N   0  0  0  0  0  0  0  0  0  0  0  0
  -22.2980  -14.6040   20.5690 O   0  0  0  0  0  0  0  0  0  0  0  0
  -22.3460  -12.0780   22.4330 H   0  0  0  0  0  0  0  0  0  0  0  0
  -21.0480  -13.2120   22.1850 H   0  0  0  0  0  0  0  0  0  0  0  0
  -25.3680  -15.2290   20.2930 N   0  0  0  0  0  0  0  0  0  0  0  0
  -24.5880  -15.8740   20.3550 H   0  0  0  0  0  0  0  0  0  0  0  0
  -26.1870  -15.6350   19.8630 H   0  0  0  0  0  0  0  0  0  0  0  0
  1  5  1  0
  3  1  1  0
  3  6  1  0
  4  2  1  0
  5  8  1  0
  5  2  1  0
  6  4  1  0
  6  7  1  1
  9 20  2  0
 10  8  1  0
 10 15  1  0
 11 19  1  0
 11 21  1  0
 12 18  1  0
 12 14  1  0
 13 19  1  0
 14 13  1  0
 15 14  2  0
 16 17  1  0
 16 10  2  0
 17 12  2  0
 18 11  1  0
 19  9  1  0
 21 23  2  0
 22 21  1  0
 24 22  1  0
 25 34  2  0
 25 30  1  0
 26 22  1  0
 26 30  1  0
 27 26  1  0
 28 29  1  0
 28 27  1  0
 29 25  1  0
 30 31  2  0
 31 32  1  0
 33 32  2  0
 34 33  1  0
 35  9  1  0
 35 36  1  0
 35 45  1  0
 36 39  1  0
 37 41  1  0
 37 36  1  0
 38 37  2  0
 41 40  1  0
 43 41  1  0
 43 44  1  0
 43 42  1  0
 45 48  1  1
 45 46  1  0
 47 45  1  0
 49 54  1  0
 49  6  1  0
 51 55  2  0
 52 56  1  0
 52 50  2  0
 53 51  1  0
 54 53  2  0
 54 52  1  0
 55 50  1  0
 55 66  1  0
 57 53  1  0
 58 66  1  0
 59 64  1  0
 60 61  1  0
 60 59  1  0
 62 61  1  0
 62 71  1  0
 62 63  1  0
 64 58  1  0
 64 63  1  0
 65 58  2  0
 66 67  1  0
 68 69  2  0
 69 88  1  0
 70 69  1  0
 70 73  1  0
 71 68  1  0
 71 72  1  0
 72 70  2  0
 73 74  1  0
 74 75  2  0
 76 79  1  0
 76 75  1  0
 77 76  2  0
 78 77  1  0
 78 73  2  0
 79 80  1  0
 80 81  1  0
 81 82  2  0
 83 82  1  0
 83 87  1  0
 84 83  2  0
 85 80  2  0
 85 84  1  0
 86 85  1  0
 88 89  1  0
 89 92  1  0
 89 91  1  0
 90 88  2  0
 93 94  1  0
 93 68  1  0
 95 93  1  0
M  ISO  4   5 101   8 101  58 100  66 100
M  END
>  <TORSDO>  (63) 
F 18

>  <SCORE>  (63) 
-14.893

>  <name>  (63) 
62

>  <ligand_id>  (63) 
62

>  <original_smiles>  (63) 
[H]c1c([H])c([H])c2c(c1[H])C([H])([H])C([H])([H])C([H])([H])C2([H])N([H])C(=O)C1([H])N(C(=O)C([H])(N([H])C(=O)C([H])(N([H])C([H])([H])[H])C([H])([H])[H])C(C([H])([H])[H])(C([H])([H])[H])C([H])([H])[H])C([H])([H])c2c([H])c(OC3([H])C([H])([H])C([H])([H])[N+]([H])(C([H])([H])c4c(C([H])([H])[H])c([H])c(N([H])C(=O)N5C([H])([H])C([H])([H])C([H])([H])C([H])(n6nc(-c7c([H])c([H])c(Oc8c([H])c([H])c(F)c([H])c8F)c([H])c7[H])c(C(=O)N([H])[H])c6N([H])[H])C5([H])[H])c([H])c4C([H])([H])[H])C([H])([H])C3([H])[H])c([H])c([H])c2C1([H])[H]

>  <smiles>  (63) 
[H]c1c([H])c([H])c2c(c1[H])C([H])([H])C([H])([H])C([H])([H])C2([H])N([H])C(=O)C1([H])N(C(=O)C([H])(N([H])C(=O)C([H])(N([H])C([H])([H])[H])C([H])([H])[H])C(C([H])([H])[H])(C([H])([H])[H])C([H])([H])[H])C([H])([H])c2c([H])c(OC3([H])C([H])([H])C([H])([H])[N+]([H])(C([H])([H])c4c(C([H])([H])[H])c([H])c(N([H])C(=O)N5C([H])([H])C([H])([H])C([H])([H])C([H])(n6nc(-c7c([H])c([H])c(Oc8c([H])c([H])c(F)c([H])c8F)c([H])c7[H])c(C(=O)N([H])[H])c6N([H])[H])C5([H])[H])c([H])c4C([H])([H])[H])C([H])([H])C3([H])[H])c([H])c([H])c2C1([H])[H]

> <Step>
130.0

> <Scaffold>
O=C(NC1CCCc2ccccc21)C1Cc2ccc(OC3CCN(Cc4ccc(NC(=O)N5CCCC(n6ccc(-c7ccc(Oc8ccccc8)cc7)n6)C5)cc4)CC3)cc2CN1

> <SMILES>
CNC(C)C(=O)NC(C(=O)N1Cc2cc(OC3CCN(Cc4c(C)cc(NC(=O)N5CCCC(n6nc(-c7ccc(Oc8ccc(F)cc8F)cc7)c(C(N)=O)c6N)C5)cc4C)CC3)ccc2CC1C(=O)NC1CCCc2ccccc21)C(C)(C)C

> <Tanimoto ROCS sim>
0.2688583433628082

> <Custom alerts>
1.0

> <Linker Num Aromatic Rings>
1.0

> <Linker Effective Length>
1.0

> <ADV>
0.99665766954422

> <PostDock Tanimoto ROCS sim>
0.9896314144134521

> <raw_Linker Num Aromatic Rings>
1.0

> <raw_Linker Effective Length>
9.0

> <raw_ADV>
-14.89799976348877

> <total_score>
0.9965722560882568

> <ID>
default_job_62

> <PostDock Tanimoto ROCS sim (re-score)>
0.9834885

> <raw_ADV (re-score)>
-14.893

> <Final Intermolecular Energy>
-30.128

> <Final Total Internal Energy>
-3.105

> <Torsional Free Energy>
15.236

> <Unbound System's Energy>
-3.105

$$$$
default_job_63
     RDKit          3D

 94103  0  0  1  0  0  0  0  0999 V2000
  -29.6270  -22.5110   23.4900 C   0  0  0  0  0  2  0  0  0  0  0  0
  -29.0190  -23.7310   22.7920 C   0  0  0  0  0  2  0  0  0  0  0  0
  -30.2390  -22.6520   21.1620 C   0  0  0  0  0  2  0  0  0  0  0  0
  -30.4490  -21.7790   22.4170 C   0  0  0  0  0  3  0  0  0  0  0  0
  -29.9430  -23.9850   21.6940 N   0  0  0  0  0  0  0  0  0  0  0  0
  -29.9960  -20.3720   22.2510 N   0  0  0  0  0  4  0  0  0  0  0  0
  -29.2130  -20.3780   21.6180 H   0  0  0  0  0  0  0  0  0  0  0  0
  -29.6520  -20.0500   23.1410 H   0  0  0  0  0  0  0  0  0  0  0  0
  -32.1870  -19.2620   22.7430 C   0  0  0  0  0  1  0  0  0  0  0  0
  -30.9970  -19.3780   21.7660 C   0  0  0  0  0  3  0  0  0  0  0  0
  -31.0280  -14.6870   20.0200 C   0  0  0  0  0  0  0  0  0  0  0  0
  -30.6740  -12.4780   18.9660 C   0  0  0  0  0  2  0  0  0  0  0  0
  -29.6810  -12.5940   17.7920 C   0  0  0  0  0  2  0  0  0  0  0  0
  -28.2310  -12.4430   18.2890 C   0  0  0  0  0  2  0  0  0  0  0  0
  -27.9260  -13.3470   19.5110 C   0  0  0  0  0  3  0  0  0  0  0  0
  -29.0310  -13.2250   20.5880 C   0  0  0  0  0  2  0  0  0  0  0  0
  -30.3260  -13.5180   19.9500 N   0  0  0  0  0  0  0  0  0  0  0  0
  -32.1430  -14.8110   19.5040 O   0  0  0  0  0  0  0  0  0  0  0  0
  -29.4230  -17.9050   20.3390 C   0  0  0  0  0  2  0  0  0  0  0  0
  -29.2630  -16.4000   20.1150 C   0  0  0  0  0  2  0  0  0  0  0  0
  -31.2460  -16.7740   21.3510 C   0  0  0  0  0  2  0  0  0  0  0  0
  -30.3180  -17.9900   21.5660 C   0  0  0  0  0  3  0  0  0  0  0  0
  -30.4520  -15.7360   20.6680 N   0  0  0  0  0  0  0  0  0  0  0  0
  -25.5850  -13.9910   20.3610 C   0  0  0  0  0  0  0  0  0  0  0  0
  -24.5240  -13.2320   20.7720 C   0  0  0  0  0  0  0  0  0  0  0  0
  -24.9570  -11.8740   20.6940 C   0  0  0  0  0  0  0  0  0  0  0  0
  -26.5990  -13.0940   20.0590 N   0  0  0  0  0  0  0  0  0  0  0  0
  -26.2280  -11.8150   20.3200 N   0  0  0  0  0  0  0  0  0  0  0  0
  -24.2220  -10.6220   20.8980 C   0  0  0  0  0  0  0  0  0  0  0  0
  -24.6240   -9.6780   21.8690 C   0  0  0  0  0  3  0  0  0  0  0  0
  -23.8890   -8.4890   22.0580 C   0  0  0  0  0  3  0  0  0  0  0  0
  -22.7370   -8.2350   21.2770 C   0  0  0  0  0  0  0  0  0  0  0  0
  -22.3550   -9.1670   20.2950 C   0  0  0  0  0  3  0  0  0  0  0  0
  -23.0900  -10.3480   20.1040 C   0  0  0  0  0  3  0  0  0  0  0  0
  -21.9760   -7.0950   21.3730 O   0  0  0  0  0  0  0  0  0  0  0  0
  -21.8010   -6.4470   22.5690 C   0  0  0  0  0  0  0  0  0  0  0  0
  -21.2240   -7.0880   23.6870 C   0  0  0  0  0  3  0  0  0  0  0  0
  -21.0000   -6.3640   24.8750 C   0  0  0  0  0  3  0  0  0  0  0  0
  -21.3420   -5.0000   24.9440 C   0  0  0  0  0  0  0  0  0  0  0  0
  -21.9110   -4.3590   23.8300 C   0  0  0  0  0  3  0  0  0  0  0  0
  -22.1370   -5.0800   22.6450 C   0  0  0  0  0  0  0  0  0  0  0  0
  -22.6660   -4.4530   21.5670 F   0  0  0  0  0  0  0  0  0  0  0  0
  -21.1190   -4.3010   26.0820 F   0  0  0  0  0  0  0  0  0  0  0  0
  -23.1500  -13.7290   21.1250 C   0  0  0  0  0  0  0  0  0  0  0  0
  -22.4570  -13.0310   22.0170 N   0  0  0  0  0  0  0  0  0  0  0  0
  -22.7040  -14.7710   20.6450 O   0  0  0  0  0  0  0  0  0  0  0  0
  -22.8290  -12.1850   22.4240 H   0  0  0  0  0  0  0  0  0  0  0  0
  -21.5390  -13.3440   22.2960 H   0  0  0  0  0  0  0  0  0  0  0  0
  -25.7620  -15.3610   20.1940 N   0  0  0  0  0  0  0  0  0  0  0  0
  -25.0080  -16.0230   20.3500 H   0  0  0  0  0  0  0  0  0  0  0  0
  -26.5950  -15.7930   19.8150 H   0  0  0  0  0  0  0  0  0  0  0  0
  -29.4100  -24.9080   20.6850 C   0  0  0  0  0  2  0  0  0  0  0  0
  -29.2440  -26.3510   21.2210 C   0  0  0  0  0  2  0  0  0  0  0  0
  -28.9640  -27.2320   20.1330 O   0  0  0  0  0  0  0  0  0  0  0  0
  -24.7290  -31.9940   23.3450 C   0  0  0  0  0  0  0  0  0  0  0  0
  -27.7520  -27.8710   20.1900 C   0  0  0  0  0  0  0  0  0  0  0  0
  -23.6670  -30.5800   21.6140 C   0  0  0  0  0  3  0  0  0  0  0  0
  -25.2620  -29.1940   20.1830 C   0  0  0  0  0  0  0  0  0  0  0  0
  -26.1660  -31.1110   21.5130 C   0  0  0  0  0  2  0  0  0  0  0  0
  -26.3610  -29.7720   20.8340 C   0  0  0  0  0  0  0  0  0  0  0  0
  -27.6110  -29.1150   20.8420 C   0  0  0  0  0  3  0  0  0  0  0  0
  -26.6450  -27.2980   19.5360 C   0  0  0  0  0  3  0  0  0  0  0  0
  -25.3970  -27.9540   19.5340 C   0  0  0  0  0  3  0  0  0  0  0  0
  -23.9620  -29.9670   20.2180 C   0  0  0  0  0  2  0  0  0  0  0  0
  -24.8710  -31.2380   22.2200 N   0  0  0  0  0  0  0  0  0  0  0  0
  -23.6130  -32.1960   23.8400 O   0  0  0  0  0  0  0  0  0  0  0  0
  -23.0550  -29.4820   22.5130 C   0  0  0  0  0  0  0  0  0  0  0  0
  -21.7560  -29.2040   22.3170 N   0  0  0  0  0  0  0  0  0  0  0  0
  -23.7470  -28.8830   23.3400 O   0  0  0  0  0  0  0  0  0  0  0  0
  -21.2560  -29.7450   21.6250 H   0  0  0  0  0  0  0  0  0  0  0  0
  -18.4680  -27.7360   22.6020 C   0  0  0  0  0  0  0  0  0  0  0  0
  -20.9790  -28.1810   23.0170 C   0  0  0  0  0  3  0  0  0  0  0  0
  -21.2240  -26.7820   22.4080 C   0  0  0  0  0  2  0  0  0  0  0  0
  -20.2050  -26.4070   21.3270 C   0  0  0  0  0  2  0  0  0  0  0  0
  -18.7840  -26.4260   21.8990 C   0  0  0  0  0  2  0  0  0  0  0  0
  -19.4990  -28.5680   23.1120 C   0  0  0  0  0  0  0  0  0  0  0  0
  -19.1510  -29.7920   23.7230 C   0  0  0  0  0  3  0  0  0  0  0  0
  -17.8050  -30.1860   23.8300 C   0  0  0  0  0  3  0  0  0  0  0  0
  -16.7870  -29.3520   23.3390 C   0  0  0  0  0  3  0  0  0  0  0  0
  -17.1190  -28.1280   22.7290 C   0  0  0  0  0  3  0  0  0  0  0  0
  -25.9560  -32.6680   24.0390 C   0  0  0  0  0  3  0  0  0  0  0  0
  -26.4160  -31.9330   25.3560 C   0  0  1  0  0  0  0  0  0  0  0  0
  -25.2620  -31.6610   26.3490 C   0  0  0  0  0  1  0  0  0  0  0  0
  -27.0810  -30.5770   25.0190 C   0  0  0  0  0  1  0  0  0  0  0  0
  -27.4820  -32.7820   26.0880 C   0  0  0  0  0  1  0  0  0  0  0  0
  -25.5890  -34.0610   24.3230 N   0  0  0  0  0  0  0  0  0  0  0  0
  -25.9260  -35.1060   23.5550 C   0  0  0  0  0  0  0  0  0  0  0  0
  -26.6510  -35.0020   22.5620 O   0  0  0  0  0  0  0  0  0  0  0  0
  -24.9510  -34.2140   25.0890 H   0  0  0  0  0  0  0  0  0  0  0  0
  -24.1530  -36.8210   23.0730 C   0  0  0  0  0  1  0  0  0  0  0  0
  -25.3690  -36.4860   23.9520 C   0  0  0  0  0  3  0  0  0  0  0  0
  -27.4260  -37.4690   24.8610 C   0  0  0  0  0  1  0  0  0  0  0  0
  -26.3680  -37.5730   23.8590 N   0  0  0  0  0  0  0  0  0  0  0  0
  -25.9230  -38.4810   23.9610 H   0  0  0  0  0  0  0  0  0  0  0  0
  2  1  1  0
  3  5  1  0
  3  4  1  0
  4  6  1  0
  4  1  1  0
  5  2  1  0
  6  8  1  0
  7  6  1  0
 10  6  1  0
 10  9  1  0
 11 23  1  0
 12 17  1  0
 13 14  1  0
 13 12  1  0
 15 14  1  0
 15 27  1  0
 15 16  1  0
 17 11  1  0
 17 16  1  0
 18 11  2  0
 19 22  1  0
 20 19  1  0
 20 23  1  0
 21 22  1  0
 22 10  1  0
 23 21  1  0
 24 25  2  0
 25 44  1  0
 26 25  1  0
 26 29  1  0
 27 28  1  0
 27 24  1  0
 28 26  2  0
 29 30  1  0
 30 31  2  0
 32 35  1  0
 32 31  1  0
 33 32  2  0
 34 33  1  0
 34 29  2  0
 35 36  1  0
 36 41  2  0
 36 37  1  0
 37 38  2  0
 38 39  1  0
 39 43  1  0
 40 39  2  0
 41 40  1  0
 42 41  1  0
 44 45  1  0
 45 48  1  0
 45 47  1  0
 46 44  2  0
 49 50  1  0
 49 24  1  0
 51 49  1  0
 52 53  1  0
 52  5  1  0
 54 56  1  0
 54 53  1  0
 55 66  2  0
 56 61  1  0
 57 65  1  0
 57 67  1  0
 58 64  1  0
 58 60  1  0
 59 65  1  0
 60 61  2  0
 60 59  1  0
 62 56  2  0
 63 62  1  0
 63 58  2  0
 64 57  1  0
 65 55  1  0
 67 69  2  0
 68 67  1  0
 70 68  1  0
 71 80  2  0
 71 76  1  0
 72 68  1  0
 72 76  1  0
 73 72  1  0
 74 75  1  0
 74 73  1  0
 75 71  1  0
 76 77  2  0
 77 78  1  0
 79 78  2  0
 80 79  1  0
 81 55  1  0
 81 86  1  0
 81 82  1  0
 82 85  1  1
 82 83  1  0
 84 82  1  0
 86 89  1  0
 87 91  1  0
 87 86  1  0
 88 87  2  0
 91 90  1  0
 93 91  1  0
 93 94  1  0
 93 92  1  0
M  ISO  4  11 100  23 100  53 101  54 101
M  END
>  <TORSDO>  (64) 
F 20

>  <SCORE>  (64) 
-13.124

>  <name>  (64) 
63

>  <ligand_id>  (64) 
63

>  <original_smiles>  (64) 
[H]c1c([H])c([H])c2c(c1[H])C([H])([H])C([H])([H])C([H])([H])C2([H])N([H])C(=O)C1([H])N(C(=O)C([H])(N([H])C(=O)C([H])(N([H])C([H])([H])[H])C([H])([H])[H])C(C([H])([H])[H])(C([H])([H])[H])C([H])([H])[H])C([H])([H])c2c([H])c(OC([H])([H])C([H])([H])N3C([H])([H])C([H])([H])C([H])([N+]([H])([H])C([H])(C([H])([H])[H])C4([H])C([H])([H])N(C(=O)N5C([H])([H])C([H])([H])C([H])([H])C([H])(n6nc(-c7c([H])c([H])c(Oc8c([H])c([H])c(F)c([H])c8F)c([H])c7[H])c(C(=O)N([H])[H])c6N([H])[H])C5([H])[H])C([H])([H])C4([H])[H])C3([H])[H])c([H])c([H])c2C1([H])[H]

>  <smiles>  (64) 
[H]c1c([H])c([H])c2c(c1[H])C([H])([H])C([H])([H])C([H])([H])C2([H])N([H])C(=O)C1([H])N(C(=O)C([H])(N([H])C(=O)C([H])(N([H])C([H])([H])[H])C([H])([H])[H])C(C([H])([H])[H])(C([H])([H])[H])C([H])([H])[H])C([H])([H])c2c([H])c(OC([H])([H])C([H])([H])N3C([H])([H])C([H])([H])C([H])([N+]([H])([H])C([H])(C([H])([H])[H])C4([H])C([H])([H])N(C(=O)N5C([H])([H])C([H])([H])C([H])([H])C([H])(n6nc(-c7c([H])c([H])c(Oc8c([H])c([H])c(F)c([H])c8F)c([H])c7[H])c(C(=O)N([H])[H])c6N([H])[H])C5([H])[H])C([H])([H])C4([H])[H])C3([H])[H])c([H])c([H])c2C1([H])[H]

> <Step>
196.0

> <Scaffold>
O=C(NC1CCCc2ccccc21)C1Cc2ccc(OCCN3CCC(NCC4CCN(C(=O)N5CCCC(n6ccc(-c7ccc(Oc8ccccc8)cc7)n6)C5)C4)C3)cc2CN1

> <SMILES>
CNC(C)C(=O)NC(C(=O)N1Cc2cc(OCCN3CCC(NC(C)C4CCN(C(=O)N5CCCC(n6nc(-c7ccc(Oc8ccc(F)cc8F)cc7)c(C(N)=O)c6N)C5)C4)C3)ccc2CC1C(=O)NC1CCCc2ccccc21)C(C)(C)C

> <Tanimoto ROCS sim>
0.24822527170181274

> <Custom alerts>
1.0

> <Linker Num Aromatic Rings>
1.0

> <Linker Effective Length>
1.0

> <ADV>
0.9948505759239197

> <PostDock Tanimoto ROCS sim>
0.9913769960403442

> <raw_Linker Num Aromatic Rings>
0.0

> <raw_Linker Effective Length>
9.0

> <raw_ADV>
-14.144000053405762

> <total_score>
0.9965568780899048

> <ID>
default_job_63

> <PostDock Tanimoto ROCS sim (re-score)>
0.9239117

> <raw_ADV (re-score)>
-13.124

> <Final Intermolecular Energy>
-28.084

> <Final Total Internal Energy>
-3.109

> <Torsional Free Energy>
14.961

> <Unbound System's Energy>
-3.109

$$$$
default_job_64
     RDKit          3D

 89 98  0  0  1  0  0  0  0  0999 V2000
  -30.6090  -15.0210   20.4010 C   0  0  0  0  0  0  0  0  0  0  0  0
  -30.3880  -12.6690   19.4760 C   0  0  0  0  0  2  0  0  0  0  0  0
  -29.4970  -12.5840   18.2200 C   0  0  0  0  0  2  0  0  0  0  0  0
  -28.0320  -12.3700   18.6300 C   0  0  0  0  0  2  0  0  0  0  0  0
  -27.5920  -13.3210   19.7750 C   0  0  0  0  0  3  0  0  0  0  0  0
  -28.6250  -13.4190   20.9180 C   0  0  0  0  0  2  0  0  0  0  0  0
  -29.8960  -13.8190   20.3020 N   0  0  0  0  0  0  0  0  0  0  0  0
  -31.8250  -14.8990   20.2140 O   0  0  0  0  0  0  0  0  0  0  0  0
  -30.3650  -21.9790   21.0040 C   0  0  0  0  0  3  0  0  0  0  0  0
  -29.9680  -23.3050   20.8860 C   0  0  0  0  0  3  0  0  0  0  0  0
  -29.3190  -21.1430   20.4930 C   0  0  0  0  0  0  0  0  0  0  0  0
  -30.6960  -18.9480   20.8290 C   0  0  0  0  0  3  0  0  0  0  0  0
  -28.4200  -18.5780   20.1820 C   0  0  0  0  0  3  0  0  0  0  0  0
  -30.9790  -17.5480   20.1060 C   0  0  0  0  0  3  0  0  0  0  0  0
  -28.7220  -17.0080   20.6280 C   0  0  0  0  0  3  0  0  0  0  0  0
  -28.3250  -22.0280   20.0980 N   0  0  0  0  0  0  0  0  0  0  0  0
  -28.7050  -23.3980   20.3260 N   0  0  0  0  0  0  0  0  0  0  0  0
  -29.4410  -19.6480   20.4540 N   0  0  0  0  0  0  0  0  0  0  0  0
  -30.0800  -16.3690   20.4010 N   0  0  0  0  0  0  0  0  0  0  0  0
  -25.1970  -13.8800   20.4630 C   0  0  0  0  0  0  0  0  0  0  0  0
  -24.1320  -13.1010   20.8160 C   0  0  0  0  0  0  0  0  0  0  0  0
  -24.6110  -11.7540   20.8180 C   0  0  0  0  0  0  0  0  0  0  0  0
  -26.2540  -13.0110   20.2600 N   0  0  0  0  0  0  0  0  0  0  0  0
  -25.9090  -11.7270   20.5430 N   0  0  0  0  0  0  0  0  0  0  0  0
  -23.8890  -10.4880   21.0080 C   0  0  0  0  0  0  0  0  0  0  0  0
  -24.3040   -9.5370   21.9630 C   0  0  0  0  0  3  0  0  0  0  0  0
  -23.5810   -8.3370   22.1410 C   0  0  0  0  0  3  0  0  0  0  0  0
  -22.4280   -8.0820   21.3620 C   0  0  0  0  0  0  0  0  0  0  0  0
  -22.0320   -9.0240   20.3950 C   0  0  0  0  0  3  0  0  0  0  0  0
  -22.7550  -10.2130   20.2170 C   0  0  0  0  0  3  0  0  0  0  0  0
  -21.6770   -6.9340   21.4470 O   0  0  0  0  0  0  0  0  0  0  0  0
  -21.6020   -6.2100   22.6090 C   0  0  0  0  0  0  0  0  0  0  0  0
  -21.1360   -6.7790   23.8140 C   0  0  0  0  0  3  0  0  0  0  0  0
  -21.0080   -5.9800   24.9670 C   0  0  0  0  0  3  0  0  0  0  0  0
  -21.3350   -4.6110   24.9160 C   0  0  0  0  0  0  0  0  0  0  0  0
  -21.7930   -4.0410   23.7160 C   0  0  0  0  0  3  0  0  0  0  0  0
  -21.9230   -4.8370   22.5650 C   0  0  0  0  0  0  0  0  0  0  0  0
  -22.3450   -4.2780   21.4060 F   0  0  0  0  0  0  0  0  0  0  0  0
  -21.2060   -3.8410   26.0230 F   0  0  0  0  0  0  0  0  0  0  0  0
  -22.7250  -13.5710   21.0390 C   0  0  0  0  0  0  0  0  0  0  0  0
  -21.9800  -12.8900   21.9010 N   0  0  0  0  0  0  0  0  0  0  0  0
  -22.2930  -14.5800   20.4830 O   0  0  0  0  0  0  0  0  0  0  0  0
  -22.3410  -12.0750   22.3750 H   0  0  0  0  0  0  0  0  0  0  0  0
  -21.0350  -13.1900   22.0950 H   0  0  0  0  0  0  0  0  0  0  0  0
  -25.3490  -15.2500   20.2680 N   0  0  0  0  0  0  0  0  0  0  0  0
  -24.5710  -15.8950   20.3520 H   0  0  0  0  0  0  0  0  0  0  0  0
  -26.1960  -15.6910   19.9370 H   0  0  0  0  0  0  0  0  0  0  0  0
  -27.8190  -24.6650   19.9690 C   0  0  0  0  0  2  0  0  0  0  0  0
  -28.2100  -26.1210   20.2700 O   0  0  0  0  0  0  0  0  0  0  0  0
  -24.6380  -31.8860   23.2500 C   0  0  0  0  0  0  0  0  0  0  0  0
  -27.1920  -27.1540   20.1950 C   0  0  0  0  0  0  0  0  0  0  0  0
  -23.4360  -30.4950   21.6150 C   0  0  0  0  0  3  0  0  0  0  0  0
  -24.8800  -28.9330   20.1760 C   0  0  0  0  0  0  0  0  0  0  0  0
  -25.9970  -30.7430   21.4610 C   0  0  0  0  0  2  0  0  0  0  0  0
  -26.0630  -29.3570   20.7930 C   0  0  0  0  0  0  0  0  0  0  0  0
  -27.2200  -28.4830   20.7890 C   0  0  0  0  0  3  0  0  0  0  0  0
  -25.9840  -26.8520   19.5220 C   0  0  0  0  0  3  0  0  0  0  0  0
  -24.8550  -27.6950   19.5240 C   0  0  0  0  0  3  0  0  0  0  0  0
  -23.6560  -29.8330   20.2320 C   0  0  0  0  0  2  0  0  0  0  0  0
  -24.7120  -31.0580   22.1660 N   0  0  0  0  0  0  0  0  0  0  0  0
  -23.5460  -32.2010   23.7410 O   0  0  0  0  0  0  0  0  0  0  0  0
  -22.7540  -29.4810   22.5700 C   0  0  0  0  0  0  0  0  0  0  0  0
  -21.4240  -29.3110   22.4400 N   0  0  0  0  0  0  0  0  0  0  0  0
  -23.4220  -28.8480   23.3910 O   0  0  0  0  0  0  0  0  0  0  0  0
  -20.9400  -29.8720   21.7540 H   0  0  0  0  0  0  0  0  0  0  0  0
  -18.0410  -28.1080   22.9340 C   0  0  0  0  0  0  0  0  0  0  0  0
  -20.6010  -28.3700   23.2050 C   0  0  0  0  0  3  0  0  0  0  0  0
  -20.7020  -26.9400   22.6250 C   0  0  0  0  0  2  0  0  0  0  0  0
  -19.6020  -26.6230   21.6060 C   0  0  0  0  0  2  0  0  0  0  0  0
  -18.2190  -26.7630   22.2490 C   0  0  0  0  0  2  0  0  0  0  0  0
  -19.1600  -28.8690   23.3690 C   0  0  0  0  0  0  0  0  0  0  0  0
  -18.9370  -30.1260   23.9720 C   0  0  0  0  0  3  0  0  0  0  0  0
  -17.6310  -30.6240   24.1420 C   0  0  0  0  0  3  0  0  0  0  0  0
  -16.5290  -29.8610   23.7200 C   0  0  0  0  0  3  0  0  0  0  0  0
  -16.7340  -28.6040   23.1230 C   0  0  0  0  0  3  0  0  0  0  0  0
  -25.9140  -32.5040   23.8980 C   0  0  0  0  0  3  0  0  0  0  0  0
  -25.6100  -33.9050   24.2320 N   0  0  0  0  0  0  0  0  0  0  0  0
  -25.9320  -34.9580   23.4720 C   0  0  0  0  0  0  0  0  0  0  0  0
  -26.5870  -34.8550   22.4310 O   0  0  0  0  0  0  0  0  0  0  0  0
  -25.0250  -34.0580   25.0410 H   0  0  0  0  0  0  0  0  0  0  0  0
  -24.1940  -36.7510   23.1590 C   0  0  0  0  0  1  0  0  0  0  0  0
  -25.4550  -36.3480   23.9380 C   0  0  0  0  0  3  0  0  0  0  0  0
  -27.6090  -37.2380   24.7130 C   0  0  0  0  0  1  0  0  0  0  0  0
  -26.4840  -37.4020   23.7960 N   0  0  0  0  0  0  0  0  0  0  0  0
  -26.0800  -38.3220   23.9510 H   0  0  0  0  0  0  0  0  0  0  0  0
  -26.4060  -31.7300   25.1830 C   0  0  1  0  0  0  0  0  0  0  0  0
  -25.2960  -31.5080   26.2370 C   0  0  0  0  0  1  0  0  0  0  0  0
  -26.9820  -30.3450   24.8100 C   0  0  0  0  0  1  0  0  0  0  0  0
  -27.5570  -32.5150   25.8570 C   0  0  0  0  0  1  0  0  0  0  0  0
  1 19  1  0
  2  7  1  0
  3  4  1  0
  3  2  1  0
  5  4  1  0
  5 23  1  0
  5  6  1  0
  7  1  1  0
  7  6  1  0
  8  1  2  0
 10  9  2  0
 11  9  1  0
 13 18  1  0
 13 15  2  0
 14 19  1  0
 14 12  2  0
 16 17  1  0
 16 11  2  0
 17 10  1  0
 18 11  1  0
 18 12  1  0
 19 15  1  0
 20 21  2  0
 21 22  1  0
 21 40  1  0
 22 25  1  0
 23 20  1  0
 23 24  1  0
 24 22  2  0
 25 26  1  0
 26 27  2  0
 28 31  1  0
 28 27  1  0
 29 28  2  0
 30 29  1  0
 30 25  2  0
 31 32  1  0
 32 33  1  0
 33 34  2  0
 35 34  1  0
 35 39  1  0
 36 35  2  0
 37 32  2  0
 37 36  1  0
 38 37  1  0
 40 41  1  0
 41 44  1  0
 41 43  1  0
 42 40  2  0
 45 46  1  0
 45 20  1  0
 47 45  1  0
 48 49  1  0
 48 17  1  0
 50 61  2  0
 51 49  1  0
 51 56  1  0
 52 60  1  0
 52 62  1  0
 53 59  1  0
 53 55  1  0
 54 60  1  0
 55 54  1  0
 56 55  2  0
 57 58  1  0
 57 51  2  0
 58 53  2  0
 59 52  1  0
 60 50  1  0
 62 64  2  0
 63 62  1  0
 65 63  1  0
 66 75  2  0
 66 71  1  0
 67 63  1  0
 67 71  1  0
 68 67  1  0
 69 70  1  0
 69 68  1  0
 70 66  1  0
 71 72  2  0
 72 73  1  0
 74 73  2  0
 75 74  1  0
 76 50  1  0
 76 77  1  0
 76 86  1  0
 77 80  1  0
 78 82  1  0
 78 77  1  0
 79 78  2  0
 82 81  1  0
 84 82  1  0
 84 85  1  0
 84 83  1  0
 86 89  1  1
 86 87  1  0
 88 86  1  0
M  ISO  4   1 100  19 100  48 101  49 101
M  END
>  <TORSDO>  (65) 
F 16

>  <SCORE>  (65) 
-15.581

>  <name>  (65) 
64

>  <ligand_id>  (65) 
64

>  <original_smiles>  (65) 
[H]c1c([H])c([H])c2c(c1[H])C([H])([H])C([H])([H])C([H])([H])C2([H])N([H])C(=O)C1([H])N(C(=O)C([H])(N([H])C(=O)C([H])(N([H])C([H])([H])[H])C([H])([H])[H])C(C([H])([H])[H])(C([H])([H])[H])C([H])([H])[H])C([H])([H])c2c([H])c(OC([H])([H])n3nc(N4C([H])([H])C([H])([H])N(C(=O)N5C([H])([H])C([H])([H])C([H])([H])C([H])(n6nc(-c7c([H])c([H])c(Oc8c([H])c([H])c(F)c([H])c8F)c([H])c7[H])c(C(=O)N([H])[H])c6N([H])[H])C5([H])[H])C([H])([H])C4([H])[H])c([H])c3[H])c([H])c([H])c2C1([H])[H]

>  <smiles>  (65) 
[H]c1c([H])c([H])c2c(c1[H])C([H])([H])C([H])([H])C([H])([H])C2([H])N([H])C(=O)C1([H])N(C(=O)C([H])(N([H])C(=O)C([H])(N([H])C([H])([H])[H])C([H])([H])[H])C(C([H])([H])[H])(C([H])([H])[H])C([H])([H])[H])C([H])([H])c2c([H])c(OC([H])([H])n3nc(N4C([H])([H])C([H])([H])N(C(=O)N5C([H])([H])C([H])([H])C([H])([H])C([H])(n6nc(-c7c([H])c([H])c(Oc8c([H])c([H])c(F)c([H])c8F)c([H])c7[H])c(C(=O)N([H])[H])c6N([H])[H])C5([H])[H])C([H])([H])C4([H])[H])c([H])c3[H])c([H])c([H])c2C1([H])[H]

> <Step>
183.0

> <Scaffold>
O=C(NC1CCCc2ccccc21)C1Cc2ccc(OCn3ccc(N4CCN(C(=O)N5CCCC(n6ccc(-c7ccc(Oc8ccccc8)cc7)n6)C5)CC4)n3)cc2CN1

> <SMILES>
CNC(C)C(=O)NC(C(=O)N1Cc2cc(OCn3ccc(N4CCN(C(=O)N5CCCC(n6nc(-c7ccc(Oc8ccc(F)cc8F)cc7)c(C(N)=O)c6N)C5)CC4)n3)ccc2CC1C(=O)NC1CCCc2ccccc21)C(C)(C)C

> <Tanimoto ROCS sim>
0.3803393542766571

> <Custom alerts>
1.0

> <Linker Num Aromatic Rings>
1.0

> <Linker Effective Length>
1.0

> <ADV>
0.997665286064148

> <PostDock Tanimoto ROCS sim>
0.9885583519935608

> <raw_Linker Num Aromatic Rings>
1.0

> <raw_Linker Effective Length>
7.0

> <raw_ADV>
-15.52299976348877

> <total_score>
0.9965559244155884

> <ID>
default_job_64

> <PostDock Tanimoto ROCS sim (re-score)>
0.971225

> <raw_ADV (re-score)>
-15.581

> <Final Intermolecular Energy>
-29.7

> <Final Total Internal Energy>
-2.505

> <Torsional Free Energy>
14.119

> <Unbound System's Energy>
-2.505

$$$$
default_job_65
     RDKit          3D

 92101  0  0  1  0  0  0  0  0999 V2000
  -31.2510  -22.2620   20.4880 C   0  0  0  0  0  2  0  0  0  0  0  0
  -31.3360  -20.8610   19.8780 C   0  0  0  0  0  2  0  0  0  0  0  0
  -29.2900  -20.9160   20.9100 C   0  0  0  0  0  2  0  0  0  0  0  0
  -29.9090  -22.3000   21.2270 C   0  0  0  0  0  3  0  0  0  0  0  0
  -30.4510  -20.0410   20.7020 N   0  0  0  0  0  0  0  0  0  0  0  0
  -29.0620  -23.4690   20.8500 N   0  0  0  0  0  4  0  0  0  0  0  0
  -28.1700  -23.3390   21.3040 H   0  0  0  0  0  0  0  0  0  0  0  0
  -28.8900  -23.4690   19.8560 H   0  0  0  0  0  0  0  0  0  0  0  0
  -29.6080  -24.7960   21.2630 C   0  0  0  0  0  2  0  0  0  0  0  0
  -28.5480  -25.9180   21.3760 C   0  0  0  0  0  2  0  0  0  0  0  0
  -28.4010  -26.6820   20.1730 O   0  0  0  0  0  0  0  0  0  0  0  0
  -24.6130  -31.9000   23.2400 C   0  0  0  0  0  0  0  0  0  0  0  0
  -27.2630  -27.4530   20.1750 C   0  0  0  0  0  0  0  0  0  0  0  0
  -23.4070  -30.4820   21.6110 C   0  0  0  0  0  3  0  0  0  0  0  0
  -24.8650  -28.9440   20.1860 C   0  0  0  0  0  0  0  0  0  0  0  0
  -25.9320  -30.8460   21.4080 C   0  0  0  0  0  2  0  0  0  0  0  0
  -26.0210  -29.4740   20.7750 C   0  0  0  0  0  0  0  0  0  0  0  0
  -27.2250  -28.7330   20.7730 C   0  0  0  0  0  3  0  0  0  0  0  0
  -26.0950  -26.9370   19.5750 C   0  0  0  0  0  3  0  0  0  0  0  0
  -24.8950  -27.6730   19.5860 C   0  0  0  0  0  3  0  0  0  0  0  0
  -23.6170  -29.7980   20.2330 C   0  0  0  0  0  2  0  0  0  0  0  0
  -24.6700  -31.0870   22.1470 N   0  0  0  0  0  0  0  0  0  0  0  0
  -23.5280  -32.1940   23.7600 O   0  0  0  0  0  0  0  0  0  0  0  0
  -22.7620  -29.4620   22.5760 C   0  0  0  0  0  0  0  0  0  0  0  0
  -21.4380  -29.2760   22.4520 N   0  0  0  0  0  0  0  0  0  0  0  0
  -23.4480  -28.8390   23.3900 O   0  0  0  0  0  0  0  0  0  0  0  0
  -20.9450  -29.8290   21.7650 H   0  0  0  0  0  0  0  0  0  0  0  0
  -18.0670  -28.0780   22.9550 C   0  0  0  0  0  0  0  0  0  0  0  0
  -20.6240  -28.3380   23.2260 C   0  0  0  0  0  3  0  0  0  0  0  0
  -20.7280  -26.9070   22.6500 C   0  0  0  0  0  2  0  0  0  0  0  0
  -19.6260  -26.5820   21.6390 C   0  0  0  0  0  2  0  0  0  0  0  0
  -18.2430  -26.7270   22.2820 C   0  0  0  0  0  2  0  0  0  0  0  0
  -19.1850  -28.8420   23.3830 C   0  0  0  0  0  0  0  0  0  0  0  0
  -18.9650  -30.1070   23.9710 C   0  0  0  0  0  3  0  0  0  0  0  0
  -17.6600  -30.6080   24.1350 C   0  0  0  0  0  3  0  0  0  0  0  0
  -16.5570  -29.8410   23.7240 C   0  0  0  0  0  3  0  0  0  0  0  0
  -16.7610  -28.5780   23.1390 C   0  0  0  0  0  3  0  0  0  0  0  0
  -25.9010  -32.5230   23.8640 C   0  0  0  0  0  3  0  0  0  0  0  0
  -26.4220  -31.7500   25.1370 C   0  0  1  0  0  0  0  0  0  0  0  0
  -25.3330  -31.5120   26.2070 C   0  0  0  0  0  1  0  0  0  0  0  0
  -27.0040  -30.3740   24.7400 C   0  0  0  0  0  1  0  0  0  0  0  0
  -27.5750  -32.5440   25.7970 C   0  0  0  0  0  1  0  0  0  0  0  0
  -25.5960  -33.9210   24.1950 N   0  0  0  0  0  0  0  0  0  0  0  0
  -25.9220  -34.9710   23.4290 C   0  0  0  0  0  0  0  0  0  0  0  0
  -26.5870  -34.8650   22.3940 O   0  0  0  0  0  0  0  0  0  0  0  0
  -25.0040  -34.0780   24.9980 H   0  0  0  0  0  0  0  0  0  0  0  0
  -24.1850  -36.7530   23.0800 C   0  0  0  0  0  1  0  0  0  0  0  0
  -25.4340  -36.3590   23.8840 C   0  0  0  0  0  3  0  0  0  0  0  0
  -27.5750  -37.2500   24.6920 C   0  0  0  0  0  1  0  0  0  0  0  0
  -26.4630  -37.4140   23.7580 N   0  0  0  0  0  0  0  0  0  0  0  0
  -26.0550  -38.3330   23.9080 H   0  0  0  0  0  0  0  0  0  0  0  0
  -30.1490  -18.7700   20.0270 C   0  0  0  0  0  2  0  0  0  0  0  0
  -30.7000  -14.4860   20.4950 C   0  0  0  0  0  0  0  0  0  0  0  0
  -30.3540  -12.3340   19.3390 C   0  0  0  0  0  2  0  0  0  0  0  0
  -29.4110  -12.5420   18.1370 C   0  0  0  0  0  2  0  0  0  0  0  0
  -27.9410  -12.3940   18.5730 C   0  0  0  0  0  2  0  0  0  0  0  0
  -27.6060  -13.2340   19.8340 C   0  0  0  0  0  3  0  0  0  0  0  0
  -28.6690  -13.0410   20.9420 C   0  0  0  0  0  2  0  0  0  0  0  0
  -29.9930  -13.3270   20.3640 N   0  0  0  0  0  0  0  0  0  0  0  0
  -31.8280  -14.6240   20.0130 O   0  0  0  0  0  0  0  0  0  0  0  0
  -30.8230  -16.7170   21.5830 C   0  0  0  0  0  2  0  0  0  0  0  0
  -29.1330  -16.3710   20.3690 C   0  0  0  0  0  2  0  0  0  0  0  0
  -29.7500  -17.6270   20.9800 C   0  0  0  0  0  3  0  0  0  0  0  0
  -30.0850  -15.5270   21.1090 N   0  0  0  0  0  0  0  0  0  0  0  0
  -25.2110  -13.8420   20.5560 C   0  0  0  0  0  0  0  0  0  0  0  0
  -24.1460  -13.0700   20.9320 C   0  0  0  0  0  0  0  0  0  0  0  0
  -24.6080  -11.7190   20.9000 C   0  0  0  0  0  0  0  0  0  0  0  0
  -26.2570  -12.9610   20.3220 N   0  0  0  0  0  0  0  0  0  0  0  0
  -25.8970  -11.6790   20.5880 N   0  0  0  0  0  0  0  0  0  0  0  0
  -23.8840  -10.4560   21.0930 C   0  0  0  0  0  0  0  0  0  0  0  0
  -24.3340   -9.4790   22.0080 C   0  0  0  0  0  3  0  0  0  0  0  0
  -23.6110   -8.2820   22.1900 C   0  0  0  0  0  3  0  0  0  0  0  0
  -22.4220   -8.0520   21.4580 C   0  0  0  0  0  0  0  0  0  0  0  0
  -21.9900   -9.0190   20.5320 C   0  0  0  0  0  3  0  0  0  0  0  0
  -22.7140  -10.2080   20.3490 C   0  0  0  0  0  3  0  0  0  0  0  0
  -21.6680   -6.9080   21.5510 O   0  0  0  0  0  0  0  0  0  0  0  0
  -21.6600   -6.1410   22.6880 C   0  0  0  0  0  0  0  0  0  0  0  0
  -21.2960   -6.6740   23.9440 C   0  0  0  0  0  3  0  0  0  0  0  0
  -21.2350   -5.8350   25.0730 C   0  0  0  0  0  3  0  0  0  0  0  0
  -21.5260   -4.4630   24.9490 C   0  0  0  0  0  0  0  0  0  0  0  0
  -21.8840   -3.9290   23.6980 C   0  0  0  0  0  3  0  0  0  0  0  0
  -21.9470   -4.7660   22.5710 C   0  0  0  0  0  0  0  0  0  0  0  0
  -22.2720   -4.2430   21.3640 F   0  0  0  0  0  0  0  0  0  0  0  0
  -21.4600   -3.6550   26.0320 F   0  0  0  0  0  0  0  0  0  0  0  0
  -22.7500  -13.5480   21.2100 C   0  0  0  0  0  0  0  0  0  0  0  0
  -22.0260  -12.8530   22.0800 N   0  0  0  0  0  0  0  0  0  0  0  0
  -22.3080  -14.5710   20.6890 O   0  0  0  0  0  0  0  0  0  0  0  0
  -22.3950  -12.0250   22.5230 H   0  0  0  0  0  0  0  0  0  0  0  0
  -21.0880  -13.1530   22.3070 H   0  0  0  0  0  0  0  0  0  0  0  0
  -25.3710  -15.2120   20.3720 N   0  0  0  0  0  0  0  0  0  0  0  0
  -24.6000  -15.8630   20.4780 H   0  0  0  0  0  0  0  0  0  0  0  0
  -26.2130  -15.6480   20.0230 H   0  0  0  0  0  0  0  0  0  0  0  0
  1  4  1  0
  2  1  1  0
  2  5  1  0
  3  4  1  0
  4  6  1  0
  5  3  1  0
  6  9  1  0
  6  7  1  0
  8  6  1  0
  9 10  1  0
 11 13  1  0
 11 10  1  0
 12 23  2  0
 13 18  1  0
 14 22  1  0
 14 24  1  0
 15 21  1  0
 15 17  1  0
 16 22  1  0
 17 16  1  0
 18 17  2  0
 19 20  1  0
 19 13  2  0
 20 15  2  0
 21 14  1  0
 22 12  1  0
 24 26  2  0
 25 24  1  0
 27 25  1  0
 28 37  2  0
 28 33  1  0
 29 25  1  0
 29 33  1  0
 30 29  1  0
 31 32  1  0
 31 30  1  0
 32 28  1  0
 33 34  2  0
 34 35  1  0
 36 35  2  0
 37 36  1  0
 38 12  1  0
 38 43  1  0
 38 39  1  0
 39 42  1  1
 39 40  1  0
 41 39  1  0
 43 46  1  0
 44 48  1  0
 44 43  1  0
 45 44  2  0
 48 47  1  0
 50 48  1  0
 50 51  1  0
 50 49  1  0
 52  5  1  0
 53 64  1  0
 54 59  1  0
 55 56  1  0
 55 54  1  0
 57 56  1  0
 57 68  1  0
 57 58  1  0
 59 53  1  0
 59 58  1  0
 60 53  2  0
 62 63  1  0
 62 64  1  0
 63 52  1  0
 63 61  1  0
 64 61  1  0
 65 66  2  0
 66 85  1  0
 67 66  1  0
 67 70  1  0
 68 65  1  0
 68 69  1  0
 69 67  2  0
 70 71  1  0
 71 72  2  0
 73 76  1  0
 73 72  1  0
 74 73  2  0
 75 74  1  0
 75 70  2  0
 76 77  1  0
 77 78  1  0
 78 79  2  0
 80 79  1  0
 80 84  1  0
 81 80  2  0
 82 77  2  0
 82 81  1  0
 83 82  1  0
 85 86  1  0
 86 89  1  0
 86 88  1  0
 87 85  2  0
 90 91  1  0
 90 65  1  0
 92 90  1  0
M  ISO  4  10 101  11 101  53 100  64 100
M  END
>  <TORSDO>  (66) 
F 20

>  <SCORE>  (66) 
-14.117

>  <name>  (66) 
65

>  <ligand_id>  (66) 
65

>  <original_smiles>  (66) 
[H]c1c([H])c([H])c2c(c1[H])C([H])([H])C([H])([H])C([H])([H])C2([H])N([H])C(=O)C1([H])N(C(=O)C([H])(N([H])C(=O)C([H])(N([H])C([H])([H])[H])C([H])([H])[H])C(C([H])([H])[H])(C([H])([H])[H])C([H])([H])[H])C([H])([H])c2c([H])c(OC([H])([H])C([H])([H])[N+]([H])([H])C3([H])C([H])([H])N(C([H])([H])C4([H])C([H])([H])N(C(=O)N5C([H])([H])C([H])([H])C([H])([H])C([H])(n6nc(-c7c([H])c([H])c(Oc8c([H])c([H])c(F)c([H])c8F)c([H])c7[H])c(C(=O)N([H])[H])c6N([H])[H])C5([H])[H])C4([H])[H])C([H])([H])C3([H])[H])c([H])c([H])c2C1([H])[H]

>  <smiles>  (66) 
[H]c1c([H])c([H])c2c(c1[H])C([H])([H])C([H])([H])C([H])([H])C2([H])N([H])C(=O)C1([H])N(C(=O)C([H])(N([H])C(=O)C([H])(N([H])C([H])([H])[H])C([H])([H])[H])C(C([H])([H])[H])(C([H])([H])[H])C([H])([H])[H])C([H])([H])c2c([H])c(OC([H])([H])C([H])([H])[N+]([H])([H])C3([H])C([H])([H])N(C([H])([H])C4([H])C([H])([H])N(C(=O)N5C([H])([H])C([H])([H])C([H])([H])C([H])(n6nc(-c7c([H])c([H])c(Oc8c([H])c([H])c(F)c([H])c8F)c([H])c7[H])c(C(=O)N([H])[H])c6N([H])[H])C5([H])[H])C4([H])[H])C([H])([H])C3([H])[H])c([H])c([H])c2C1([H])[H]

> <Step>
196.0

> <Scaffold>
O=C(NC1CCCc2ccccc21)C1Cc2ccc(OCCNC3CCN(CC4CN(C(=O)N5CCCC(n6ccc(-c7ccc(Oc8ccccc8)cc7)n6)C5)C4)C3)cc2CN1

> <SMILES>
CNC(C)C(=O)NC(C(=O)N1Cc2cc(OCCNC3CCN(CC4CN(C(=O)N5CCCC(n6nc(-c7ccc(Oc8ccc(F)cc8F)cc7)c(C(N)=O)c6N)C5)C4)C3)ccc2CC1C(=O)NC1CCCc2ccccc21)C(C)(C)C

> <Tanimoto ROCS sim>
0.2914172112941742

> <Custom alerts>
1.0

> <Linker Num Aromatic Rings>
1.0

> <Linker Effective Length>
1.0

> <ADV>
0.9947853088378906

> <PostDock Tanimoto ROCS sim>
0.991434633731842

> <raw_Linker Num Aromatic Rings>
0.0

> <raw_Linker Effective Length>
9.0

> <raw_ADV>
-14.121999740600586

> <total_score>
0.996554970741272

> <ID>
default_job_65

> <PostDock Tanimoto ROCS sim (re-score)>
0.9858566

> <raw_ADV (re-score)>
-14.117

> <Final Intermolecular Energy>
-30.21

> <Final Total Internal Energy>
-2.708

> <Torsional Free Energy>
16.093

> <Unbound System's Energy>
-2.708

$$$$
default_job_66
     RDKit          3D

 90 99  0  0  1  0  0  0  0  0999 V2000
  -28.8270  -22.8530   20.6870 N   0  0  0  0  0  4  0  0  0  0  0  0
  -28.9000  -22.8780   21.6920 H   0  0  0  0  0  0  0  0  0  0  0  0
  -27.8700  -22.6220   20.4670 H   0  0  0  0  0  0  0  0  0  0  0  0
  -30.6200  -21.1640   21.2170 C   0  0  0  0  0  2  0  0  0  0  0  0
  -29.4380  -20.3430   20.7420 C   0  0  0  0  0  3  0  0  0  0  0  0
  -29.6950  -21.7490   20.1710 C   0  0  0  0  0  3  0  0  0  0  0  0
  -29.6630  -19.0820   19.8890 C   0  0  0  0  0  2  0  0  0  0  0  0
  -30.6540  -14.5490   20.4450 C   0  0  0  0  0  0  0  0  0  0  0  0
  -30.3630  -12.3470   19.3680 C   0  0  0  0  0  2  0  0  0  0  0  0
  -29.4360  -12.5170   18.1470 C   0  0  0  0  0  2  0  0  0  0  0  0
  -27.9620  -12.3620   18.5700 C   0  0  0  0  0  2  0  0  0  0  0  0
  -27.6010  -13.2280   19.8050 C   0  0  0  0  0  3  0  0  0  0  0  0
  -28.6510  -13.0820   20.9300 C   0  0  0  0  0  2  0  0  0  0  0  0
  -29.9730  -13.3700   20.3540 N   0  0  0  0  0  0  0  0  0  0  0  0
  -31.8280  -14.6540   20.0800 O   0  0  0  0  0  0  0  0  0  0  0  0
  -30.5700  -16.9110   21.2560 C   0  0  0  0  0  2  0  0  0  0  0  0
  -29.3280  -16.4700   19.6890 C   0  0  0  0  0  2  0  0  0  0  0  0
  -29.4490  -17.7070   20.5770 C   0  0  0  0  0  3  0  0  0  0  0  0
  -29.9340  -15.6590   20.7670 N   0  0  0  0  0  0  0  0  0  0  0  0
  -25.2040  -13.8510   20.4960 C   0  0  0  0  0  0  0  0  0  0  0  0
  -24.1310  -13.0840   20.8610 C   0  0  0  0  0  0  0  0  0  0  0  0
  -24.5910  -11.7310   20.8490 C   0  0  0  0  0  0  0  0  0  0  0  0
  -26.2480  -12.9640   20.2810 N   0  0  0  0  0  0  0  0  0  0  0  0
  -25.8840  -11.6860   20.5540 N   0  0  0  0  0  0  0  0  0  0  0  0
  -23.8630  -10.4720   21.0440 C   0  0  0  0  0  0  0  0  0  0  0  0
  -24.3020   -9.5020   21.9710 C   0  0  0  0  0  3  0  0  0  0  0  0
  -23.5760   -8.3060   22.1520 C   0  0  0  0  0  3  0  0  0  0  0  0
  -22.3950   -8.0730   21.4070 C   0  0  0  0  0  0  0  0  0  0  0  0
  -21.9750   -9.0310   20.4700 C   0  0  0  0  0  3  0  0  0  0  0  0
  -22.7020  -10.2190   20.2860 C   0  0  0  0  0  3  0  0  0  0  0  0
  -21.6390   -6.9290   21.5000 O   0  0  0  0  0  0  0  0  0  0  0  0
  -21.6170   -6.1710   22.6430 C   0  0  0  0  0  0  0  0  0  0  0  0
  -21.2450   -6.7160   23.8910 C   0  0  0  0  0  3  0  0  0  0  0  0
  -21.1690   -5.8850   25.0270 C   0  0  0  0  0  3  0  0  0  0  0  0
  -21.4540   -4.5110   24.9160 C   0  0  0  0  0  0  0  0  0  0  0  0
  -21.8210   -3.9670   23.6730 C   0  0  0  0  0  3  0  0  0  0  0  0
  -21.8990   -4.7940   22.5390 C   0  0  0  0  0  0  0  0  0  0  0  0
  -22.2320   -4.2610   21.3390 F   0  0  0  0  0  0  0  0  0  0  0  0
  -21.3750   -3.7110   26.0060 F   0  0  0  0  0  0  0  0  0  0  0  0
  -22.7310  -13.5650   21.1150 C   0  0  0  0  0  0  0  0  0  0  0  0
  -21.9940  -12.8810   21.9820 N   0  0  0  0  0  0  0  0  0  0  0  0
  -22.2990  -14.5850   20.5780 O   0  0  0  0  0  0  0  0  0  0  0  0
  -22.3550  -12.0580   22.4400 H   0  0  0  0  0  0  0  0  0  0  0  0
  -21.0540  -13.1860   22.1930 H   0  0  0  0  0  0  0  0  0  0  0  0
  -25.3740  -15.2200   20.3100 N   0  0  0  0  0  0  0  0  0  0  0  0
  -24.6140  -15.8810   20.4210 H   0  0  0  0  0  0  0  0  0  0  0  0
  -26.2460  -15.6550   20.0380 H   0  0  0  0  0  0  0  0  0  0  0  0
  -29.1160  -24.2180   20.1380 C   0  0  0  0  0  2  0  0  0  0  0  0
  -28.2140  -25.3280   20.7550 C   0  0  0  0  0  2  0  0  0  0  0  0
  -28.3620  -26.6400   20.1500 O   0  0  0  0  0  0  0  0  0  0  0  0
  -24.6100  -31.8950   23.2240 C   0  0  0  0  0  0  0  0  0  0  0  0
  -27.2170  -27.4150   20.1440 C   0  0  0  0  0  0  0  0  0  0  0  0
  -23.3890  -30.4850   21.6030 C   0  0  0  0  0  3  0  0  0  0  0  0
  -24.8290  -28.9450   20.1650 C   0  0  0  0  0  0  0  0  0  0  0  0
  -25.9180  -30.8330   21.3860 C   0  0  0  0  0  2  0  0  0  0  0  0
  -25.9960  -29.4600   20.7450 C   0  0  0  0  0  0  0  0  0  0  0  0
  -27.1950  -28.7050   20.7270 C   0  0  0  0  0  3  0  0  0  0  0  0
  -26.0360  -26.9300   19.5370 C   0  0  0  0  0  3  0  0  0  0  0  0
  -24.8460  -27.6790   19.5550 C   0  0  0  0  0  3  0  0  0  0  0  0
  -23.5870  -29.8050   20.2230 C   0  0  0  0  0  2  0  0  0  0  0  0
  -24.6590  -31.0830   22.1320 N   0  0  0  0  0  0  0  0  0  0  0  0
  -23.5280  -32.1940   23.7500 O   0  0  0  0  0  0  0  0  0  0  0  0
  -22.7450  -29.4660   22.5710 C   0  0  0  0  0  0  0  0  0  0  0  0
  -21.4200  -29.2820   22.4530 N   0  0  0  0  0  0  0  0  0  0  0  0
  -23.4350  -28.8430   23.3820 O   0  0  0  0  0  0  0  0  0  0  0  0
  -20.9240  -29.8350   21.7680 H   0  0  0  0  0  0  0  0  0  0  0  0
  -18.0520  -28.0730   22.9620 C   0  0  0  0  0  0  0  0  0  0  0  0
  -20.6080  -28.3440   23.2300 C   0  0  0  0  0  3  0  0  0  0  0  0
  -20.7170  -26.9100   22.6610 C   0  0  0  0  0  2  0  0  0  0  0  0
  -19.6150  -26.5760   21.6500 C   0  0  0  0  0  2  0  0  0  0  0  0
  -18.2340  -26.7200   22.2940 C   0  0  0  0  0  2  0  0  0  0  0  0
  -19.1670  -28.8420   23.3870 C   0  0  0  0  0  0  0  0  0  0  0  0
  -18.9430  -30.1080   23.9700 C   0  0  0  0  0  3  0  0  0  0  0  0
  -17.6360  -30.6050   24.1320 C   0  0  0  0  0  3  0  0  0  0  0  0
  -16.5360  -29.8330   23.7240 C   0  0  0  0  0  3  0  0  0  0  0  0
  -16.7440  -28.5680   23.1450 C   0  0  0  0  0  3  0  0  0  0  0  0
  -25.9040  -32.5160   23.8420 C   0  0  0  0  0  3  0  0  0  0  0  0
  -26.4370  -31.7330   25.1040 C   0  0  1  0  0  0  0  0  0  0  0  0
  -25.3570  -31.4870   26.1820 C   0  0  0  0  0  1  0  0  0  0  0  0
  -27.0150  -30.3590   24.6910 C   0  0  0  0  0  1  0  0  0  0  0  0
  -27.5960  -32.5210   25.7570 C   0  0  0  0  0  1  0  0  0  0  0  0
  -25.6000  -33.9110   24.1870 N   0  0  0  0  0  0  0  0  0  0  0  0
  -25.9160  -34.9670   23.4280 C   0  0  0  0  0  0  0  0  0  0  0  0
  -26.5700  -34.8710   22.3850 O   0  0  0  0  0  0  0  0  0  0  0  0
  -25.0200  -34.0600   25.0000 H   0  0  0  0  0  0  0  0  0  0  0  0
  -24.1730  -36.7520   23.1130 C   0  0  0  0  0  1  0  0  0  0  0  0
  -25.4320  -36.3510   23.9000 C   0  0  0  0  0  3  0  0  0  0  0  0
  -27.5800  -37.2380   24.6900 C   0  0  0  0  0  1  0  0  0  0  0  0
  -26.4570  -37.4080   23.7710 N   0  0  0  0  0  0  0  0  0  0  0  0
  -26.0510  -38.3260   23.9340 H   0  0  0  0  0  0  0  0  0  0  0  0
  1  2  1  0
  3  1  1  0
  5  7  1  0
  5  4  1  0
  6  1  1  0
  6  5  1  0
  6  4  1  0
  8 19  1  0
  9 14  1  0
 10 11  1  0
 10  9  1  0
 12 11  1  0
 12 23  1  0
 12 13  1  0
 14  8  1  0
 14 13  1  0
 15  8  2  0
 17 18  1  0
 17 19  1  0
 18  7  1  0
 18 16  1  0
 19 16  1  0
 20 21  2  0
 21 40  1  0
 22 21  1  0
 22 25  1  0
 23 20  1  0
 23 24  1  0
 24 22  2  0
 25 26  1  0
 26 27  2  0
 28 31  1  0
 28 27  1  0
 29 28  2  0
 30 29  1  0
 30 25  2  0
 31 32  1  0
 32 33  1  0
 33 34  2  0
 35 34  1  0
 35 39  1  0
 36 35  2  0
 37 32  2  0
 37 36  1  0
 38 37  1  0
 40 41  1  0
 41 44  1  0
 41 43  1  0
 42 40  2  0
 45 46  1  0
 45 20  1  0
 47 45  1  0
 48  1  1  0
 48 49  1  0
 50 49  1  0
 51 62  2  0
 52 50  1  0
 52 57  1  0
 53 61  1  0
 53 63  1  0
 54 60  1  0
 54 56  1  0
 55 61  1  0
 56 55  1  0
 57 56  2  0
 58 59  1  0
 58 52  2  0
 59 54  2  0
 60 53  1  0
 61 51  1  0
 63 65  2  0
 64 63  1  0
 66 64  1  0
 67 76  2  0
 67 72  1  0
 68 64  1  0
 68 72  1  0
 69 68  1  0
 70 71  1  0
 70 69  1  0
 71 67  1  0
 72 73  2  0
 73 74  1  0
 75 74  2  0
 76 75  1  0
 77 51  1  0
 77 82  1  0
 77 78  1  0
 78 81  1  1
 78 79  1  0
 80 78  1  0
 82 85  1  0
 83 87  1  0
 83 82  1  0
 84 83  2  0
 87 86  1  0
 89 87  1  0
 89 90  1  0
 89 88  1  0
M  ISO  4   8 100  19 100  49 101  50 101
M  END
>  <TORSDO>  (67) 
F 20

>  <SCORE>  (67) 
-13.872

>  <name>  (67) 
66

>  <ligand_id>  (67) 
66

>  <original_smiles>  (67) 
[H]c1c([H])c([H])c2c(c1[H])C([H])([H])C([H])([H])C([H])([H])C2([H])N([H])C(=O)C1([H])N(C(=O)C([H])(N([H])C(=O)C([H])(N([H])C([H])([H])[H])C([H])([H])[H])C(C([H])([H])[H])(C([H])([H])[H])C([H])([H])[H])C([H])([H])c2c([H])c(OC([H])([H])C([H])([H])[N+]([H])([H])C3([H])C([H])([H])C3([H])C([H])([H])C3([H])C([H])([H])N(C(=O)N4C([H])([H])C([H])([H])C([H])([H])C([H])(n5nc(-c6c([H])c([H])c(Oc7c([H])c([H])c(F)c([H])c7F)c([H])c6[H])c(C(=O)N([H])[H])c5N([H])[H])C4([H])[H])C3([H])[H])c([H])c([H])c2C1([H])[H]

>  <smiles>  (67) 
[H]c1c([H])c([H])c2c(c1[H])C([H])([H])C([H])([H])C([H])([H])C2([H])N([H])C(=O)C1([H])N(C(=O)C([H])(N([H])C(=O)C([H])(N([H])C([H])([H])[H])C([H])([H])[H])C(C([H])([H])[H])(C([H])([H])[H])C([H])([H])[H])C([H])([H])c2c([H])c(OC([H])([H])C([H])([H])[N+]([H])([H])C3([H])C([H])([H])C3([H])C([H])([H])C3([H])C([H])([H])N(C(=O)N4C([H])([H])C([H])([H])C([H])([H])C([H])(n5nc(-c6c([H])c([H])c(Oc7c([H])c([H])c(F)c([H])c7F)c([H])c6[H])c(C(=O)N([H])[H])c5N([H])[H])C4([H])[H])C3([H])[H])c([H])c([H])c2C1([H])[H]

> <Step>
188.0

> <Scaffold>
O=C(NC1CCCc2ccccc21)C1Cc2ccc(OCCNC3CC3CC3CN(C(=O)N4CCCC(n5ccc(-c6ccc(Oc7ccccc7)cc6)n5)C4)C3)cc2CN1

> <SMILES>
CNC(C)C(=O)NC(C(=O)N1Cc2cc(OCCNC3CC3CC3CN(C(=O)N4CCCC(n5nc(-c6ccc(Oc7ccc(F)cc7F)cc6)c(C(N)=O)c5N)C4)C3)ccc2CC1C(=O)NC1CCCc2ccccc21)C(C)(C)C

> <Tanimoto ROCS sim>
0.24535828828811646

> <Custom alerts>
1.0

> <Linker Num Aromatic Rings>
1.0

> <Linker Effective Length>
1.0

> <ADV>
0.9940820336341858

> <PostDock Tanimoto ROCS sim>
0.9921146035194397

> <raw_Linker Num Aromatic Rings>
0.0

> <raw_Linker Effective Length>
8.0

> <raw_ADV>
-13.901000022888184

> <total_score>
0.996549129486084

> <ID>
default_job_66

> <PostDock Tanimoto ROCS sim (re-score)>
0.98521453

> <raw_ADV (re-score)>
-13.872

> <Final Intermolecular Energy>
-29.686

> <Final Total Internal Energy>
-2.659

> <Torsional Free Energy>
15.814

> <Unbound System's Energy>
-2.659

$$$$
default_job_67
     RDKit          3D

 93101  0  0  1  0  0  0  0  0999 V2000
  -30.3510  -22.3970   19.4350 C   0  0  0  0  0  2  0  0  0  0  0  0
  -27.8490  -22.2630   19.8440 C   0  0  0  0  0  2  0  0  0  0  0  0
  -30.2740  -23.9360   19.5600 C   0  0  0  0  0  2  0  0  0  0  0  0
  -27.8100  -23.8000   19.9550 C   0  0  0  0  0  2  0  0  0  0  0  0
  -29.2290  -21.6610   20.1980 C   0  0  0  0  0  3  0  0  0  0  0  0
  -28.8990  -24.4610   19.0810 C   0  0  0  0  0  3  0  0  0  0  0  0
  -29.2430  -20.1660   19.8860 C   0  0  0  0  0  3  0  0  0  0  0  0
  -29.8310  -19.1920   20.6130 C   0  0  0  0  0  3  0  0  0  0  0  0
  -30.4810  -17.4580   18.8890 C   0  0  0  0  0  1  0  0  0  0  0  0
  -29.7850  -17.7100   20.2390 C   0  0  0  0  0  3  0  0  0  0  0  0
  -30.3490  -16.7930   21.3570 C   0  0  0  0  0  2  0  0  0  0  0  0
  -30.6840  -14.4280   20.5270 C   0  0  0  0  0  0  0  0  0  0  0  0
  -30.3760  -12.3060   19.3050 C   0  0  0  0  0  2  0  0  0  0  0  0
  -29.4330  -12.5350   18.1080 C   0  0  0  0  0  2  0  0  0  0  0  0
  -27.9540  -12.4120   18.5360 C   0  0  0  0  0  2  0  0  0  0  0  0
  -27.6280  -13.2300   19.8120 C   0  0  0  0  0  3  0  0  0  0  0  0
  -28.6750  -12.9550   20.9130 C   0  0  0  0  0  2  0  0  0  0  0  0
  -30.0070  -13.2620   20.3570 N   0  0  0  0  0  0  0  0  0  0  0  0
  -31.7960  -14.6470   20.0370 O   0  0  0  0  0  0  0  0  0  0  0  0
  -29.9890  -15.3840   21.1640 N   0  0  0  0  0  0  0  0  0  0  0  0
  -29.0770  -15.1060   21.4970 H   0  0  0  0  0  0  0  0  0  0  0  0
  -25.2250  -13.8610   20.4980 C   0  0  0  0  0  0  0  0  0  0  0  0
  -24.1490  -13.0990   20.8680 C   0  0  0  0  0  0  0  0  0  0  0  0
  -24.6020  -11.7440   20.8520 C   0  0  0  0  0  0  0  0  0  0  0  0
  -26.2670  -12.9710   20.2830 N   0  0  0  0  0  0  0  0  0  0  0  0
  -25.8940  -11.6930   20.5490 N   0  0  0  0  0  0  0  0  0  0  0  0
  -23.8660  -10.4880   21.0510 C   0  0  0  0  0  0  0  0  0  0  0  0
  -24.3050   -9.5150   21.9770 C   0  0  0  0  0  3  0  0  0  0  0  0
  -23.5740   -8.3220   22.1610 C   0  0  0  0  0  3  0  0  0  0  0  0
  -22.3890   -8.0940   21.4210 C   0  0  0  0  0  0  0  0  0  0  0  0
  -21.9700   -9.0560   20.4860 C   0  0  0  0  0  3  0  0  0  0  0  0
  -22.7020  -10.2390   20.2980 C   0  0  0  0  0  3  0  0  0  0  0  0
  -21.6280   -6.9540   21.5160 O   0  0  0  0  0  0  0  0  0  0  0  0
  -21.6080   -6.1980   22.6600 C   0  0  0  0  0  0  0  0  0  0  0  0
  -21.2380   -6.7440   23.9090 C   0  0  0  0  0  3  0  0  0  0  0  0
  -21.1610   -5.9140   25.0450 C   0  0  0  0  0  3  0  0  0  0  0  0
  -21.4420   -4.5390   24.9350 C   0  0  0  0  0  0  0  0  0  0  0  0
  -21.8050   -3.9930   23.6920 C   0  0  0  0  0  3  0  0  0  0  0  0
  -21.8840   -4.8190   22.5570 C   0  0  0  0  0  0  0  0  0  0  0  0
  -22.2120   -4.2820   21.3570 F   0  0  0  0  0  0  0  0  0  0  0  0
  -21.3630   -3.7410   26.0250 F   0  0  0  0  0  0  0  0  0  0  0  0
  -22.7530  -13.5880   21.1290 C   0  0  0  0  0  0  0  0  0  0  0  0
  -22.0150  -12.9060   21.9990 N   0  0  0  0  0  0  0  0  0  0  0  0
  -22.3220  -14.6110   20.5960 O   0  0  0  0  0  0  0  0  0  0  0  0
  -22.3700  -12.0790   22.4540 H   0  0  0  0  0  0  0  0  0  0  0  0
  -21.0780  -13.2160   22.2120 H   0  0  0  0  0  0  0  0  0  0  0  0
  -25.4010  -15.2280   20.3040 N   0  0  0  0  0  0  0  0  0  0  0  0
  -24.6410  -15.8940   20.4040 H   0  0  0  0  0  0  0  0  0  0  0  0
  -26.2580  -15.6540   19.9760 H   0  0  0  0  0  0  0  0  0  0  0  0
  -28.7380  -26.0120   18.9030 C   0  0  0  0  0  3  0  0  0  0  0  0
  -30.2510  -26.3860   16.8420 C   0  0  0  0  0  1  0  0  0  0  0  0
  -29.9600  -26.7440   18.3080 C   0  0  0  0  0  2  0  0  0  0  0  0
  -28.4090  -26.7130   20.1140 O   0  0  0  0  0  0  0  0  0  0  0  0
  -24.6090  -31.8940   23.2400 C   0  0  0  0  0  0  0  0  0  0  0  0
  -27.2340  -27.4410   20.1320 C   0  0  0  0  0  0  0  0  0  0  0  0
  -23.3940  -30.4860   21.6140 C   0  0  0  0  0  3  0  0  0  0  0  0
  -24.8350  -28.9520   20.1800 C   0  0  0  0  0  0  0  0  0  0  0  0
  -25.9230  -30.8330   21.4110 C   0  0  0  0  0  2  0  0  0  0  0  0
  -25.9990  -29.4620   20.7710 C   0  0  0  0  0  0  0  0  0  0  0  0
  -27.1950  -28.7070   20.7610 C   0  0  0  0  0  3  0  0  0  0  0  0
  -26.0390  -26.9410   19.5580 C   0  0  0  0  0  3  0  0  0  0  0  0
  -24.8510  -27.6850   19.5770 C   0  0  0  0  0  3  0  0  0  0  0  0
  -23.5920  -29.8100   20.2320 C   0  0  0  0  0  2  0  0  0  0  0  0
  -24.6600  -31.0840   22.1460 N   0  0  0  0  0  0  0  0  0  0  0  0
  -23.5270  -32.1880   23.7650 O   0  0  0  0  0  0  0  0  0  0  0  0
  -22.7490  -29.4620   22.5760 C   0  0  0  0  0  0  0  0  0  0  0  0
  -21.4230  -29.2780   22.4580 N   0  0  0  0  0  0  0  0  0  0  0  0
  -23.4390  -28.8340   23.3860 O   0  0  0  0  0  0  0  0  0  0  0  0
  -20.9280  -29.8440   21.7830 H   0  0  0  0  0  0  0  0  0  0  0  0
  -18.0520  -28.0830   22.9570 C   0  0  0  0  0  0  0  0  0  0  0  0
  -20.6080  -28.3420   23.2300 C   0  0  0  0  0  3  0  0  0  0  0  0
  -20.7100  -26.9090   22.6550 C   0  0  0  0  0  2  0  0  0  0  0  0
  -19.6100  -26.5840   21.6400 C   0  0  0  0  0  2  0  0  0  0  0  0
  -18.2280  -26.7320   22.2850 C   0  0  0  0  0  2  0  0  0  0  0  0
  -19.1710  -28.8470   23.3860 C   0  0  0  0  0  0  0  0  0  0  0  0
  -18.9520  -30.1130   23.9720 C   0  0  0  0  0  3  0  0  0  0  0  0
  -17.6470  -30.6100   24.1410 C   0  0  0  0  0  3  0  0  0  0  0  0
  -16.5430  -29.8430   23.7330 C   0  0  0  0  0  3  0  0  0  0  0  0
  -16.7470  -28.5840   23.1430 C   0  0  0  0  0  3  0  0  0  0  0  0
  -25.9030  -32.5120   23.8580 C   0  0  0  0  0  3  0  0  0  0  0  0
  -25.6000  -33.9080   24.1980 N   0  0  0  0  0  0  0  0  0  0  0  0
  -25.9220  -34.9620   23.4360 C   0  0  0  0  0  0  0  0  0  0  0  0
  -26.5790  -34.8610   22.3960 O   0  0  0  0  0  0  0  0  0  0  0  0
  -25.0220  -34.0580   25.0110 H   0  0  0  0  0  0  0  0  0  0  0  0
  -24.1820  -36.7510   23.1140 C   0  0  0  0  0  1  0  0  0  0  0  0
  -25.4370  -36.3490   23.9040 C   0  0  0  0  0  3  0  0  0  0  0  0
  -27.5870  -37.2360   24.6930 C   0  0  0  0  0  1  0  0  0  0  0  0
  -26.4650  -37.4050   23.7730 N   0  0  0  0  0  0  0  0  0  0  0  0
  -26.0570  -38.3220   23.9340 H   0  0  0  0  0  0  0  0  0  0  0  0
  -26.4290  -31.7350   25.1260 C   0  0  1  0  0  0  0  0  0  0  0  0
  -25.3460  -31.4990   26.2020 C   0  0  0  0  0  1  0  0  0  0  0  0
  -27.0040  -30.3580   24.7230 C   0  0  0  0  0  1  0  0  0  0  0  0
  -27.5890  -32.5230   25.7830 C   0  0  0  0  0  1  0  0  0  0  0  0
  1  3  1  0
  1  5  1  0
  2  4  1  0
  2  5  1  0
  5  7  1  0
  6 50  1  0
  6  3  1  0
  6  4  1  0
  7  8  2  0
 10  9  1  0
 10  8  1  0
 10 11  1  0
 12 20  1  0
 13 18  1  0
 14 15  1  0
 14 13  1  0
 16 15  1  0
 16 25  1  0
 16 17  1  0
 18 12  1  0
 18 17  1  0
 19 12  2  0
 20 11  1  0
 20 21  1  0
 22 23  2  0
 23 42  1  0
 24 23  1  0
 24 27  1  0
 25 22  1  0
 25 26  1  0
 26 24  2  0
 27 28  1  0
 28 29  2  0
 30 33  1  0
 30 29  1  0
 31 30  2  0
 32 31  1  0
 32 27  2  0
 33 34  1  0
 34 35  1  0
 35 36  2  0
 37 36  1  0
 37 41  1  0
 38 37  2  0
 39 34  2  0
 39 38  1  0
 40 39  1  0
 42 43  1  0
 43 46  1  0
 43 45  1  0
 44 42  2  0
 47 48  1  0
 47 22  1  0
 49 47  1  0
 50 52  1  0
 50 53  1  0
 51 52  1  0
 53 55  1  0
 54 65  2  0
 55 60  1  0
 56 64  1  0
 56 66  1  0
 57 63  1  0
 57 59  1  0
 58 64  1  0
 59 58  1  0
 60 59  2  0
 61 62  1  0
 61 55  2  0
 62 57  2  0
 63 56  1  0
 64 54  1  0
 66 68  2  0
 67 66  1  0
 69 67  1  0
 70 79  2  0
 70 75  1  0
 71 67  1  0
 71 75  1  0
 72 71  1  0
 73 74  1  0
 73 72  1  0
 74 70  1  0
 75 76  2  0
 76 77  1  0
 78 77  2  0
 79 78  1  0
 80 54  1  0
 80 81  1  0
 80 90  1  0
 81 84  1  0
 82 86  1  0
 82 81  1  0
 83 82  2  0
 86 85  1  0
 88 86  1  0
 88 89  1  0
 88 87  1  0
 90 93  1  1
 90 91  1  0
 92 90  1  0
M  ISO  4  12 100  20 100  50 101  53 101
M  END
>  <TORSDO>  (68) 
F 21

>  <SCORE>  (68) 
-13.61

>  <name>  (68) 
67

>  <ligand_id>  (68) 
67

>  <original_smiles>  (68) 
[H]C(=C([H])C1([H])C([H])([H])C([H])([H])C([H])(C([H])(Oc2c([H])c([H])c3c(c2[H])C([H])([H])N(C(=O)C([H])(N([H])C(=O)C([H])(N([H])C([H])([H])[H])C([H])([H])[H])C(C([H])([H])[H])(C([H])([H])[H])C([H])([H])[H])C([H])(C(=O)N([H])C2([H])c4c([H])c([H])c([H])c([H])c4C([H])([H])C([H])([H])C2([H])[H])C3([H])[H])C([H])([H])C([H])([H])[H])C([H])([H])C1([H])[H])C([H])(C([H])([H])[H])C([H])([H])N([H])C(=O)N1C([H])([H])C([H])([H])C([H])([H])C([H])(n2nc(-c3c([H])c([H])c(Oc4c([H])c([H])c(F)c([H])c4F)c([H])c3[H])c(C(=O)N([H])[H])c2N([H])[H])C1([H])[H]

>  <smiles>  (68) 
[H]C(=C([H])C1([H])C([H])([H])C([H])([H])C([H])(C([H])(Oc2c([H])c([H])c3c(c2[H])C([H])([H])N(C(=O)C([H])(N([H])C(=O)C([H])(N([H])C([H])([H])[H])C([H])([H])[H])C(C([H])([H])[H])(C([H])([H])[H])C([H])([H])[H])C([H])(C(=O)N([H])C2([H])c4c([H])c([H])c([H])c([H])c4C([H])([H])C([H])([H])C2([H])[H])C3([H])[H])C([H])([H])C([H])([H])[H])C([H])([H])C1([H])[H])C([H])(C([H])([H])[H])C([H])([H])N([H])C(=O)N1C([H])([H])C([H])([H])C([H])([H])C([H])(n2nc(-c3c([H])c([H])c(Oc4c([H])c([H])c(F)c([H])c4F)c([H])c3[H])c(C(=O)N([H])[H])c2N([H])[H])C1([H])[H]

> <Step>
120.0

> <Scaffold>
O=C(NC1CCCc2ccccc21)C1Cc2ccc(OCC3CCC(C=CCCNC(=O)N4CCCC(n5ccc(-c6ccc(Oc7ccccc7)cc6)n5)C4)CC3)cc2CN1

> <SMILES>
CCC(Oc1ccc2c(c1)CN(C(=O)C(NC(=O)C(C)NC)C(C)(C)C)C(C(=O)NC1CCCc3ccccc31)C2)C1CCC(C=CC(C)CNC(=O)N2CCCC(n3nc(-c4ccc(Oc5ccc(F)cc5F)cc4)c(C(N)=O)c3N)C2)CC1

> <Tanimoto ROCS sim>
0.2970285415649414

> <Custom alerts>
1.0

> <Linker Num Aromatic Rings>
1.0

> <Linker Effective Length>
1.0

> <ADV>
0.9930660724639893

> <PostDock Tanimoto ROCS sim>
0.9931169748306274

> <raw_Linker Num Aromatic Rings>
0.0

> <raw_Linker Effective Length>
9.0

> <raw_ADV>
-13.62399959564209

> <total_score>
0.9965457916259766

> <ID>
default_job_67

> <PostDock Tanimoto ROCS sim (re-score)>
0.98515666

> <raw_ADV (re-score)>
-13.61

> <Final Intermolecular Energy>
-29.922

> <Final Total Internal Energy>
-3.254

> <Torsional Free Energy>
16.311

> <Unbound System's Energy>
-3.254

$$$$
default_job_68
     RDKit          3D

 94103  0  0  1  0  0  0  0  0999 V2000
  -30.9380  -21.5170   22.1290 C   0  0  0  0  0  2  0  0  0  0  0  0
  -29.0460  -20.8430   20.5740 C   0  0  0  0  0  2  0  0  0  0  0  0
  -30.0870  -22.7430   22.5160 C   0  0  0  0  0  2  0  0  0  0  0  0
  -29.1710  -22.3490   20.2170 C   0  0  0  0  0  2  0  0  0  0  0  0
  -30.0380  -20.3570   21.6640 C   0  0  0  0  0  3  0  0  0  0  0  0
  -29.2120  -23.2450   21.4110 N   0  0  2  0  0  4  0  0  0  0  0  0
  -28.2810  -23.2220   21.8100 H   0  0  0  0  0  0  0  0  0  0  0  0
  -30.8280  -19.1620   21.2610 N   0  0  0  0  0  4  0  0  0  0  0  0
  -31.6580  -19.1200   21.8300 H   0  0  0  0  0  0  0  0  0  0  0  0
  -31.1420  -19.2670   20.3070 H   0  0  0  0  0  0  0  0  0  0  0  0
  -30.4970  -17.1620   22.6870 C   0  0  0  0  0  2  0  0  0  0  0  0
  -31.0070  -16.6240   21.3610 C   0  0  0  0  0  3  0  0  0  0  0  0
  -30.1200  -17.8650   21.4080 C   0  0  0  0  0  3  0  0  0  0  0  0
  -31.0140  -14.4610   20.1660 C   0  0  0  0  0  0  0  0  0  0  0  0
  -30.6180  -12.3640   18.9260 C   0  0  0  0  0  2  0  0  0  0  0  0
  -29.6070  -12.5990   17.7860 C   0  0  0  0  0  2  0  0  0  0  0  0
  -28.1590  -12.4610   18.2970 C   0  0  0  0  0  2  0  0  0  0  0  0
  -27.9020  -13.2760   19.5910 C   0  0  0  0  0  3  0  0  0  0  0  0
  -29.0090  -13.0030   20.6330 C   0  0  0  0  0  2  0  0  0  0  0  0
  -30.3100  -13.3090   20.0090 N   0  0  0  0  0  0  0  0  0  0  0  0
  -32.0500  -14.7170   19.5460 O   0  0  0  0  0  0  0  0  0  0  0  0
  -30.4660  -15.3450   21.0130 N   0  0  0  0  0  0  0  0  0  0  0  0
  -29.6170  -15.0530   21.4730 H   0  0  0  0  0  0  0  0  0  0  0  0
  -25.5580  -13.8990   20.4620 C   0  0  0  0  0  0  0  0  0  0  0  0
  -24.5000  -13.1310   20.8650 C   0  0  0  0  0  0  0  0  0  0  0  0
  -24.9320  -11.7740   20.7550 C   0  0  0  0  0  0  0  0  0  0  0  0
  -26.5720  -13.0100   20.1350 N   0  0  0  0  0  0  0  0  0  0  0  0
  -26.2000  -11.7250   20.3670 N   0  0  0  0  0  0  0  0  0  0  0  0
  -24.1970  -10.5170   20.9430 C   0  0  0  0  0  0  0  0  0  0  0  0
  -24.6140   -9.5530   21.8860 C   0  0  0  0  0  3  0  0  0  0  0  0
  -23.8820   -8.3600   22.0610 C   0  0  0  0  0  3  0  0  0  0  0  0
  -22.7180   -8.1220   21.2910 C   0  0  0  0  0  0  0  0  0  0  0  0
  -22.3200   -9.0740   20.3370 C   0  0  0  0  0  3  0  0  0  0  0  0
  -23.0530  -10.2600   20.1600 C   0  0  0  0  0  3  0  0  0  0  0  0
  -21.9590   -6.9800   21.3750 O   0  0  0  0  0  0  0  0  0  0  0  0
  -21.8070   -6.3010   22.5560 C   0  0  0  0  0  0  0  0  0  0  0  0
  -21.2410   -6.9110   23.6980 C   0  0  0  0  0  3  0  0  0  0  0  0
  -21.0390   -6.1560   24.8710 C   0  0  0  0  0  3  0  0  0  0  0  0
  -21.3900   -4.7930   24.9030 C   0  0  0  0  0  0  0  0  0  0  0  0
  -21.9460   -4.1840   23.7650 C   0  0  0  0  0  3  0  0  0  0  0  0
  -22.1520   -4.9350   22.5940 C   0  0  0  0  0  0  0  0  0  0  0  0
  -22.6690   -4.3380   21.4940 F   0  0  0  0  0  0  0  0  0  0  0  0
  -21.1880   -4.0660   26.0260 F   0  0  0  0  0  0  0  0  0  0  0  0
  -23.1300  -13.6190   21.2410 C   0  0  0  0  0  0  0  0  0  0  0  0
  -22.4450  -12.9010   22.1250 N   0  0  0  0  0  0  0  0  0  0  0  0
  -22.6790  -14.6690   20.7870 O   0  0  0  0  0  0  0  0  0  0  0  0
  -22.8260  -12.0530   22.5160 H   0  0  0  0  0  0  0  0  0  0  0  0
  -21.5250  -13.2040   22.4130 H   0  0  0  0  0  0  0  0  0  0  0  0
  -25.7370  -15.2720   20.3260 N   0  0  0  0  0  0  0  0  0  0  0  0
  -24.9860  -15.9320   20.4980 H   0  0  0  0  0  0  0  0  0  0  0  0
  -26.5700  -15.7100   19.9520 H   0  0  0  0  0  0  0  0  0  0  0  0
  -29.4710  -24.6810   21.0830 C   0  0  0  0  0  2  0  0  0  0  0  0
  -28.3640  -25.3330   20.2320 C   0  0  0  0  0  2  0  0  0  0  0  0
  -28.5010  -26.7630   20.2350 O   0  0  0  0  0  0  0  0  0  0  0  0
  -24.6160  -31.8990   23.2510 C   0  0  0  0  0  0  0  0  0  0  0  0
  -27.3260  -27.4850   20.1900 C   0  0  0  0  0  0  0  0  0  0  0  0
  -23.4370  -30.4800   21.6060 C   0  0  0  0  0  3  0  0  0  0  0  0
  -24.9180  -28.9630   20.1880 C   0  0  0  0  0  0  0  0  0  0  0  0
  -25.9620  -30.8640   21.4290 C   0  0  0  0  0  2  0  0  0  0  0  0
  -26.0660  -29.4970   20.7860 C   0  0  0  0  0  0  0  0  0  0  0  0
  -27.2750  -28.7660   20.7810 C   0  0  0  0  0  3  0  0  0  0  0  0
  -26.1630  -26.9720   19.5700 C   0  0  0  0  0  3  0  0  0  0  0  0
  -24.9610  -27.6990   19.5790 C   0  0  0  0  0  3  0  0  0  0  0  0
  -23.6630  -29.8070   20.2270 C   0  0  0  0  0  2  0  0  0  0  0  0
  -24.6910  -31.0900   22.1560 N   0  0  0  0  0  0  0  0  0  0  0  0
  -23.5220  -32.1820   23.7580 O   0  0  0  0  0  0  0  0  0  0  0  0
  -22.7920  -29.4480   22.5600 C   0  0  0  0  0  0  0  0  0  0  0  0
  -21.4720  -29.2430   22.4160 N   0  0  0  0  0  0  0  0  0  0  0  0
  -23.4770  -28.8360   23.3840 O   0  0  0  0  0  0  0  0  0  0  0  0
  -20.9800  -29.7900   21.7250 H   0  0  0  0  0  0  0  0  0  0  0  0
  -18.1100  -28.0100   22.8840 C   0  0  0  0  0  0  0  0  0  0  0  0
  -20.6610  -28.2940   23.1790 C   0  0  0  0  0  3  0  0  0  0  0  0
  -20.7840  -26.8650   22.6000 C   0  0  0  0  0  2  0  0  0  0  0  0
  -19.6940  -26.5340   21.5760 C   0  0  0  0  0  2  0  0  0  0  0  0
  -18.3060  -26.6640   22.2080 C   0  0  0  0  0  2  0  0  0  0  0  0
  -19.2150  -28.7810   23.3270 C   0  0  0  0  0  0  0  0  0  0  0  0
  -18.9800  -30.0430   23.9180 C   0  0  0  0  0  3  0  0  0  0  0  0
  -17.6690  -30.5310   24.0730 C   0  0  0  0  0  3  0  0  0  0  0  0
  -16.5750  -29.7560   23.6470 C   0  0  0  0  0  3  0  0  0  0  0  0
  -16.7970  -28.4990   23.0600 C   0  0  0  0  0  3  0  0  0  0  0  0
  -25.8900  -32.5350   23.8890 C   0  0  0  0  0  3  0  0  0  0  0  0
  -26.3980  -31.7680   25.1720 C   0  0  1  0  0  0  0  0  0  0  0  0
  -25.2910  -31.5050   26.2190 C   0  0  0  0  0  1  0  0  0  0  0  0
  -27.0160  -30.4050   24.7860 C   0  0  0  0  0  1  0  0  0  0  0  0
  -27.5200  -32.5840   25.8610 C   0  0  0  0  0  1  0  0  0  0  0  0
  -25.5710  -33.9310   24.2090 N   0  0  0  0  0  0  0  0  0  0  0  0
  -25.9070  -34.9800   23.4470 C   0  0  0  0  0  0  0  0  0  0  0  0
  -26.5920  -34.8730   22.4260 O   0  0  0  0  0  0  0  0  0  0  0  0
  -24.9610  -34.0860   24.9990 H   0  0  0  0  0  0  0  0  0  0  0  0
  -24.1770  -36.7600   23.0470 C   0  0  0  0  0  1  0  0  0  0  0  0
  -25.4040  -36.3680   23.8870 C   0  0  0  0  0  3  0  0  0  0  0  0
  -27.5120  -37.2670   24.7670 C   0  0  0  0  0  1  0  0  0  0  0  0
  -26.4340  -37.4250   23.7930 N   0  0  0  0  0  0  0  0  0  0  0  0
  -26.0210  -38.3440   23.9270 H   0  0  0  0  0  0  0  0  0  0  0  0
  1  3  1  0
  2  5  1  0
  4  2  1  0
  4  6  1  0
  5  8  1  0
  5  1  1  0
  6  7  1  1
  6  3  1  0
  8  9  1  0
 10  8  1  0
 12 22  1  0
 12 13  1  0
 12 11  1  0
 13  8  1  0
 13 11  1  0
 14 22  1  0
 15 20  1  0
 16 17  1  0
 16 15  1  0
 18 17  1  0
 18 27  1  0
 18 19  1  0
 20 14  1  0
 20 19  1  0
 21 14  2  0
 22 23  1  0
 24 25  2  0
 25 44  1  0
 26 25  1  0
 26 29  1  0
 27 28  1  0
 27 24  1  0
 28 26  2  0
 29 30  1  0
 30 31  2  0
 32 35  1  0
 32 31  1  0
 33 32  2  0
 34 33  1  0
 34 29  2  0
 35 36  1  0
 36 41  2  0
 36 37  1  0
 37 38  2  0
 38 39  1  0
 39 43  1  0
 40 39  2  0
 41 40  1  0
 42 41  1  0
 44 45  1  0
 45 48  1  0
 45 47  1  0
 46 44  2  0
 49 24  1  0
 49 50  1  0
 51 49  1  0
 52  6  1  0
 53 54  1  0
 53 52  1  0
 55 66  2  0
 56 54  1  0
 56 61  1  0
 57 65  1  0
 57 67  1  0
 58 64  1  0
 58 60  1  0
 59 65  1  0
 60 59  1  0
 61 60  2  0
 62 63  1  0
 62 56  2  0
 63 58  2  0
 64 57  1  0
 65 55  1  0
 67 69  2  0
 68 67  1  0
 70 68  1  0
 71 80  2  0
 71 76  1  0
 72 68  1  0
 72 76  1  0
 73 72  1  0
 74 75  1  0
 74 73  1  0
 75 71  1  0
 76 77  2  0
 77 78  1  0
 79 78  2  0
 80 79  1  0
 81 55  1  0
 81 86  1  0
 81 82  1  0
 82 85  1  1
 82 83  1  0
 84 82  1  0
 86 89  1  0
 87 91  1  0
 87 86  1  0
 88 87  2  0
 91 90  1  0
 93 91  1  0
 93 94  1  0
 93 92  1  0
M  ISO  4  14 100  22 100  53 101  54 101
M  END
>  <TORSDO>  (69) 
F 20

>  <SCORE>  (69) 
-13.648

>  <name>  (69) 
68

>  <ligand_id>  (69) 
68

>  <original_smiles>  (69) 
[H]c1c([H])c([H])c2c(c1[H])C([H])([H])C([H])([H])C([H])([H])C2([H])N([H])C(=O)C1([H])N(C(=O)C([H])(N([H])C(=O)C([H])(N([H])C([H])([H])[H])C([H])([H])[H])C(C([H])([H])[H])(C([H])([H])[H])C([H])([H])[H])C([H])([H])c2c([H])c(OC([H])([H])C([H])([H])[N+]3([H])C([H])([H])C([H])([H])C([H])([N+]([H])([H])C4([H])C([H])([H])C4([H])N([H])C(=O)N4C([H])([H])C([H])([H])C([H])([H])C([H])(n5nc(-c6c([H])c([H])c(Oc7c([H])c([H])c(F)c([H])c7F)c([H])c6[H])c(C(=O)N([H])[H])c5N([H])[H])C4([H])[H])C([H])([H])C3([H])[H])c([H])c([H])c2C1([H])[H]

>  <smiles>  (69) 
[H]c1c([H])c([H])c2c(c1[H])C([H])([H])C([H])([H])C([H])([H])C2([H])N([H])C(=O)C1([H])N(C(=O)C([H])(N([H])C(=O)C([H])(N([H])C([H])([H])[H])C([H])([H])[H])C(C([H])([H])[H])(C([H])([H])[H])C([H])([H])[H])C([H])([H])c2c([H])c(OC([H])([H])C([H])([H])[N+]3([H])C([H])([H])C([H])([H])C([H])([N+]([H])([H])C4([H])C([H])([H])C4([H])N([H])C(=O)N4C([H])([H])C([H])([H])C([H])([H])C([H])(n5nc(-c6c([H])c([H])c(Oc7c([H])c([H])c(F)c([H])c7F)c([H])c6[H])c(C(=O)N([H])[H])c5N([H])[H])C4([H])[H])C([H])([H])C3([H])[H])c([H])c([H])c2C1([H])[H]

> <Step>
192.0

> <Scaffold>
O=C(NC1CCCc2ccccc21)C1Cc2ccc(OCCN3CCC(NC4CC4NC(=O)N4CCCC(n5ccc(-c6ccc(Oc7ccccc7)cc6)n5)C4)CC3)cc2CN1

> <SMILES>
CNC(C)C(=O)NC(C(=O)N1Cc2cc(OCCN3CCC(NC4CC4NC(=O)N4CCCC(n5nc(-c6ccc(Oc7ccc(F)cc7F)cc6)c(C(N)=O)c5N)C4)CC3)ccc2CC1C(=O)NC1CCCc2ccccc21)C(C)(C)C

> <Tanimoto ROCS sim>
0.274913489818573

> <Custom alerts>
1.0

> <Linker Num Aromatic Rings>
1.0

> <Linker Effective Length>
1.0

> <ADV>
0.9946919083595276

> <PostDock Tanimoto ROCS sim>
0.9914844036102295

> <raw_Linker Num Aromatic Rings>
0.0

> <raw_Linker Effective Length>
9.0

> <raw_ADV>
-14.090999603271484

> <total_score>
0.9965440630912781

> <ID>
default_job_68

> <PostDock Tanimoto ROCS sim (re-score)>
0.9613528

> <raw_ADV (re-score)>
-13.648

> <Final Intermolecular Energy>
-29.206

> <Final Total Internal Energy>
-3.111

> <Torsional Free Energy>
15.558

> <Unbound System's Energy>
-3.111

$$$$
default_job_69
     RDKit          3D

 94103  0  0  1  0  0  0  0  0999 V2000
  -29.6980  -21.7110   19.0860 C   0  0  0  0  0  2  0  0  0  0  0  0
  -30.1560  -21.0850   20.3890 C   0  0  0  0  0  3  0  0  0  0  0  0
  -28.9130  -21.9530   20.3600 C   0  0  0  0  0  3  0  0  0  0  0  0
  -30.6500  -14.4530   20.5260 C   0  0  0  0  0  0  0  0  0  0  0  0
  -30.3590  -12.3130   19.3350 C   0  0  0  0  0  2  0  0  0  0  0  0
  -29.4180  -12.5480   18.1330 C   0  0  0  0  0  2  0  0  0  0  0  0
  -27.9410  -12.4180   18.5550 C   0  0  0  0  0  2  0  0  0  0  0  0
  -27.6070  -13.2320   19.8340 C   0  0  0  0  0  3  0  0  0  0  0  0
  -28.6580  -12.9640   20.9360 C   0  0  0  0  0  2  0  0  0  0  0  0
  -29.9890  -13.2720   20.3830 N   0  0  0  0  0  0  0  0  0  0  0  0
  -31.7670  -14.6570   20.0380 O   0  0  0  0  0  0  0  0  0  0  0  0
  -28.9720  -18.8410   20.1730 C   0  0  0  0  0  3  0  0  0  0  0  0
  -28.9470  -17.4500   20.3660 C   0  0  0  0  0  3  0  0  0  0  0  0
  -30.1000  -19.5820   20.5860 C   0  0  0  0  0  0  0  0  0  0  0  0
  -31.1540  -18.8550   21.1910 C   0  0  0  0  0  0  0  0  0  0  0  0
  -30.0520  -16.8030   20.9450 C   0  0  0  0  0  0  0  0  0  0  0  0
  -32.4040  -19.5400   21.7210 C   0  0  0  0  0  1  0  0  0  0  0  0
  -31.1300  -17.5110   21.3550 N   0  0  0  0  0  0  0  0  0  0  0  0
  -29.9330  -15.4090   21.1390 N   0  0  0  0  0  0  0  0  0  0  0  0
  -29.0330  -15.0920   21.4620 H   0  0  0  0  0  0  0  0  0  0  0  0
  -25.2010  -13.8480   20.5230 C   0  0  0  0  0  0  0  0  0  0  0  0
  -24.1310  -13.0790   20.8940 C   0  0  0  0  0  0  0  0  0  0  0  0
  -24.5890  -11.7270   20.8670 C   0  0  0  0  0  0  0  0  0  0  0  0
  -26.2470  -12.9650   20.3000 N   0  0  0  0  0  0  0  0  0  0  0  0
  -25.8800  -11.6830   20.5620 N   0  0  0  0  0  0  0  0  0  0  0  0
  -23.8580  -10.4690   21.0550 C   0  0  0  0  0  0  0  0  0  0  0  0
  -24.2860   -9.5010   21.9890 C   0  0  0  0  0  3  0  0  0  0  0  0
  -23.5590   -8.3040   22.1660 C   0  0  0  0  0  3  0  0  0  0  0  0
  -22.3880   -8.0680   21.4070 C   0  0  0  0  0  0  0  0  0  0  0  0
  -21.9790   -9.0250   20.4610 C   0  0  0  0  0  3  0  0  0  0  0  0
  -22.7080  -10.2120   20.2820 C   0  0  0  0  0  3  0  0  0  0  0  0
  -21.6320   -6.9250   21.4920 O   0  0  0  0  0  0  0  0  0  0  0  0
  -21.5790   -6.1800   22.6430 C   0  0  0  0  0  0  0  0  0  0  0  0
  -21.1420   -6.7290   23.8660 C   0  0  0  0  0  3  0  0  0  0  0  0
  -21.0390   -5.9110   25.0100 C   0  0  0  0  0  3  0  0  0  0  0  0
  -21.3620   -4.5440   24.9280 C   0  0  0  0  0  0  0  0  0  0  0  0
  -21.7950   -3.9940   23.7080 C   0  0  0  0  0  3  0  0  0  0  0  0
  -21.9000   -4.8090   22.5680 C   0  0  0  0  0  0  0  0  0  0  0  0
  -22.2960   -4.2680   21.3900 F   0  0  0  0  0  0  0  0  0  0  0  0
  -21.2560   -3.7550   26.0230 F   0  0  0  0  0  0  0  0  0  0  0  0
  -22.7340  -13.5610   21.1630 C   0  0  0  0  0  0  0  0  0  0  0  0
  -22.0060  -12.8640   22.0260 N   0  0  0  0  0  0  0  0  0  0  0  0
  -22.3010  -14.5880   20.6430 O   0  0  0  0  0  0  0  0  0  0  0  0
  -22.3760  -12.0330   22.4630 H   0  0  0  0  0  0  0  0  0  0  0  0
  -21.0680  -13.1620   22.2490 H   0  0  0  0  0  0  0  0  0  0  0  0
  -25.3650  -15.2180   20.3410 N   0  0  0  0  0  0  0  0  0  0  0  0
  -24.5800  -15.8550   20.4150 H   0  0  0  0  0  0  0  0  0  0  0  0
  -26.1880  -15.6510   19.9420 H   0  0  0  0  0  0  0  0  0  0  0  0
  -29.1110  -23.2890   20.9660 N   0  0  0  0  0  4  0  0  0  0  0  0
  -30.0830  -23.4220   21.1990 H   0  0  0  0  0  0  0  0  0  0  0  0
  -28.6050  -23.2930   21.8380 H   0  0  0  0  0  0  0  0  0  0  0  0
  -28.6400  -24.4280   20.1440 C   0  0  0  0  0  2  0  0  0  0  0  0
  -28.5570  -25.7190   20.9700 C   0  0  0  0  0  2  0  0  0  0  0  0
  -28.4320  -26.8300   20.0950 O   0  0  0  0  0  0  0  0  0  0  0  0
  -24.5650  -31.8970   23.2410 C   0  0  0  0  0  0  0  0  0  0  0  0
  -27.2390  -27.4980   20.1590 C   0  0  0  0  0  0  0  0  0  0  0  0
  -23.3620  -30.4870   21.6040 C   0  0  0  0  0  3  0  0  0  0  0  0
  -24.8250  -28.9470   20.1890 C   0  0  0  0  0  0  0  0  0  0  0  0
  -25.8820  -30.8610   21.4060 C   0  0  0  0  0  2  0  0  0  0  0  0
  -25.9760  -29.4910   20.7730 C   0  0  0  0  0  0  0  0  0  0  0  0
  -27.1880  -28.7730   20.7560 C   0  0  0  0  0  3  0  0  0  0  0  0
  -26.0750  -26.9460   19.5890 C   0  0  0  0  0  3  0  0  0  0  0  0
  -24.8630  -27.6700   19.6000 C   0  0  0  0  0  3  0  0  0  0  0  0
  -23.5740  -29.7950   20.2290 C   0  0  0  0  0  2  0  0  0  0  0  0
  -24.6220  -31.0900   22.1460 N   0  0  0  0  0  0  0  0  0  0  0  0
  -23.4810  -32.1920   23.7630 O   0  0  0  0  0  0  0  0  0  0  0  0
  -22.7150  -29.4660   22.5670 C   0  0  0  0  0  0  0  0  0  0  0  0
  -21.3920  -29.2810   22.4360 N   0  0  0  0  0  0  0  0  0  0  0  0
  -23.4000  -28.8420   23.3820 O   0  0  0  0  0  0  0  0  0  0  0  0
  -20.9010  -29.8380   21.7500 H   0  0  0  0  0  0  0  0  0  0  0  0
  -18.0200  -28.0940   22.9370 C   0  0  0  0  0  0  0  0  0  0  0  0
  -20.5780  -28.3410   23.2050 C   0  0  0  0  0  3  0  0  0  0  0  0
  -20.6760  -26.9130   22.6210 C   0  0  0  0  0  2  0  0  0  0  0  0
  -19.5710  -26.5990   21.6070 C   0  0  0  0  0  2  0  0  0  0  0  0
  -18.1910  -26.7470   22.2540 C   0  0  0  0  0  2  0  0  0  0  0  0
  -19.1410  -28.8490   23.3700 C   0  0  0  0  0  0  0  0  0  0  0  0
  -18.9310  -30.1100   23.9660 C   0  0  0  0  0  3  0  0  0  0  0  0
  -17.6300  -30.6180   24.1350 C   0  0  0  0  0  3  0  0  0  0  0  0
  -16.5210  -29.8610   23.7210 C   0  0  0  0  0  3  0  0  0  0  0  0
  -16.7160  -28.6000   23.1280 C   0  0  0  0  0  3  0  0  0  0  0  0
  -25.8560  -32.5180   23.8680 C   0  0  0  0  0  3  0  0  0  0  0  0
  -26.3700  -31.7520   25.1480 C   0  0  1  0  0  0  0  0  0  0  0  0
  -25.2740  -31.5250   26.2140 C   0  0  0  0  0  1  0  0  0  0  0  0
  -26.9550  -30.3700   24.7640 C   0  0  0  0  0  1  0  0  0  0  0  0
  -27.5170  -32.5530   25.8100 C   0  0  0  0  0  1  0  0  0  0  0  0
  -25.5580  -33.9200   24.1900 N   0  0  0  0  0  0  0  0  0  0  0  0
  -25.8960  -34.9640   23.4230 C   0  0  0  0  0  0  0  0  0  0  0  0
  -26.5670  -34.8460   22.3920 O   0  0  0  0  0  0  0  0  0  0  0  0
  -24.9590  -34.0850   24.9860 H   0  0  0  0  0  0  0  0  0  0  0  0
  -24.1790  -36.7620   23.0400 C   0  0  0  0  0  1  0  0  0  0  0  0
  -25.4120  -36.3570   23.8660 C   0  0  0  0  0  3  0  0  0  0  0  0
  -27.5430  -37.2400   24.7070 C   0  0  0  0  0  1  0  0  0  0  0  0
  -26.4490  -37.4060   23.7550 N   0  0  0  0  0  0  0  0  0  0  0  0
  -26.0460  -38.3300   23.8930 H   0  0  0  0  0  0  0  0  0  0  0  0
  1  3  1  0
  1  2  1  0
  2 14  1  0
  3  2  1  0
  3 49  1  0
  4 19  1  0
  5 10  1  0
  6  7  1  0
  6  5  1  0
  8  7  1  0
  8 24  1  0
  8  9  1  0
 10  4  1  0
 10  9  1  0
 11  4  2  0
 12 13  2  0
 12 14  1  0
 13 16  1  0
 14 15  2  0
 15 18  1  0
 15 17  1  0
 16 19  1  0
 16 18  2  0
 19 20  1  0
 21 22  2  0
 22 41  1  0
 23 22  1  0
 23 26  1  0
 24 21  1  0
 24 25  1  0
 25 23  2  0
 26 27  1  0
 27 28  2  0
 29 32  1  0
 29 28  1  0
 30 29  2  0
 31 30  1  0
 31 26  2  0
 32 33  1  0
 33 34  1  0
 34 35  2  0
 36 35  1  0
 36 40  1  0
 37 36  2  0
 38 33  2  0
 38 37  1  0
 39 38  1  0
 41 42  1  0
 42 45  1  0
 42 44  1  0
 43 41  2  0
 46 47  1  0
 46 21  1  0
 48 46  1  0
 49 50  1  0
 49 51  1  0
 52 49  1  0
 52 53  1  0
 54 56  1  0
 54 53  1  0
 55 66  2  0
 56 61  1  0
 57 65  1  0
 57 67  1  0
 58 64  1  0
 58 60  1  0
 59 65  1  0
 60 59  1  0
 61 60  2  0
 62 63  1  0
 62 56  2  0
 63 58  2  0
 64 57  1  0
 65 55  1  0
 67 69  2  0
 68 67  1  0
 70 68  1  0
 71 80  2  0
 71 76  1  0
 72 68  1  0
 72 76  1  0
 73 72  1  0
 74 75  1  0
 74 73  1  0
 75 71  1  0
 76 77  2  0
 77 78  1  0
 79 78  2  0
 80 79  1  0
 81 55  1  0
 81 86  1  0
 81 82  1  0
 82 85  1  1
 82 83  1  0
 84 82  1  0
 86 89  1  0
 87 91  1  0
 87 86  1  0
 88 87  2  0
 91 90  1  0
 93 91  1  0
 93 94  1  0
 93 92  1  0
M  ISO  4   4 100  19 100  53 101  54 101
M  END
>  <TORSDO>  (70) 
F 19

>  <SCORE>  (70) 
-14.603

>  <name>  (70) 
69

>  <ligand_id>  (70) 
69

>  <original_smiles>  (70) 
[H]c1c(N([H])C(=O)N2C([H])([H])C([H])([H])C([H])([H])C([H])(n3nc(-c4c([H])c([H])c(Oc5c([H])c([H])c(F)c([H])c5F)c([H])c4[H])c(C(=O)N([H])[H])c3N([H])[H])C2([H])[H])nc(C([H])([H])[H])c(C2([H])C([H])([H])C2([H])[N+]([H])([H])C([H])([H])C([H])([H])Oc2c([H])c([H])c3c(c2[H])C([H])([H])N(C(=O)C([H])(N([H])C(=O)C([H])(N([H])C([H])([H])[H])C([H])([H])[H])C(C([H])([H])[H])(C([H])([H])[H])C([H])([H])[H])C([H])(C(=O)N([H])C2([H])c4c([H])c([H])c([H])c([H])c4C([H])([H])C([H])([H])C2([H])[H])C3([H])[H])c1[H]

>  <smiles>  (70) 
[H]c1c(N([H])C(=O)N2C([H])([H])C([H])([H])C([H])([H])C([H])(n3nc(-c4c([H])c([H])c(Oc5c([H])c([H])c(F)c([H])c5F)c([H])c4[H])c(C(=O)N([H])[H])c3N([H])[H])C2([H])[H])nc(C([H])([H])[H])c(C2([H])C([H])([H])C2([H])[N+]([H])([H])C([H])([H])C([H])([H])Oc2c([H])c([H])c3c(c2[H])C([H])([H])N(C(=O)C([H])(N([H])C(=O)C([H])(N([H])C([H])([H])[H])C([H])([H])[H])C(C([H])([H])[H])(C([H])([H])[H])C([H])([H])[H])C([H])(C(=O)N([H])C2([H])c4c([H])c([H])c([H])c([H])c4C([H])([H])C([H])([H])C2([H])[H])C3([H])[H])c1[H]

> <Step>
153.0

> <Scaffold>
O=C(NC1CCCc2ccccc21)C1Cc2ccc(OCCNC3CC3c3ccc(NC(=O)N4CCCC(n5ccc(-c6ccc(Oc7ccccc7)cc6)n5)C4)nc3)cc2CN1

> <SMILES>
CNC(C)C(=O)NC(C(=O)N1Cc2cc(OCCNC3CC3c3ccc(NC(=O)N4CCCC(n5nc(-c6ccc(Oc7ccc(F)cc7F)cc6)c(C(N)=O)c5N)C4)nc3C)ccc2CC1C(=O)NC1CCCc2ccccc21)C(C)(C)C

> <Tanimoto ROCS sim>
0.28257399797439575

> <Custom alerts>
1.0

> <Linker Num Aromatic Rings>
1.0

> <Linker Effective Length>
1.0

> <ADV>
0.9960866570472717

> <PostDock Tanimoto ROCS sim>
0.9900434613227844

> <raw_Linker Num Aromatic Rings>
1.0

> <raw_Linker Effective Length>
9.0

> <raw_ADV>
-14.623000144958496

> <total_score>
0.9965324997901917

> <ID>
default_job_69

> <PostDock Tanimoto ROCS sim (re-score)>
0.98407674

> <raw_ADV (re-score)>
-14.603

> <Final Intermolecular Energy>
-30.396

> <Final Total Internal Energy>
-2.494

> <Torsional Free Energy>
15.793

> <Unbound System's Energy>
-2.494

$$$$
default_job_70
     RDKit          3D

 94102  0  0  1  0  0  0  0  0999 V2000
  -28.5310  -25.1970   18.1590 C   0  0  0  0  0  2  0  0  0  0  0  0
  -29.3490  -24.3240   20.3630 C   0  0  0  0  0  2  0  0  0  0  0  0
  -28.2910  -23.7700   17.6180 C   0  0  0  0  0  2  0  0  0  0  0  0
  -28.3270  -25.2750   19.6800 C   0  0  0  0  0  3  0  0  0  0  0  0
  -29.5130  -22.9320   19.6430 C   0  0  0  0  0  3  0  0  0  0  0  0
  -28.4250  -22.7090   18.6500 N   0  0  0  0  0  4  0  0  0  0  0  0
  -28.5710  -21.8470   18.1500 H   0  0  0  0  0  0  0  0  0  0  0  0
  -27.5420  -22.6200   19.1290 H   0  0  0  0  0  0  0  0  0  0  0  0
  -28.3840  -26.6520   20.1260 O   0  0  0  0  0  0  0  0  0  0  0  0
  -24.6320  -31.8910   23.2300 C   0  0  0  0  0  0  0  0  0  0  0  0
  -27.2120  -27.4050   20.1110 C   0  0  0  0  0  0  0  0  0  0  0  0
  -23.4010  -30.4880   21.6140 C   0  0  0  0  0  3  0  0  0  0  0  0
  -24.8270  -28.9500   20.1680 C   0  0  0  0  0  0  0  0  0  0  0  0
  -25.9320  -30.8230   21.3900 C   0  0  0  0  0  2  0  0  0  0  0  0
  -26.0000  -29.4530   20.7430 C   0  0  0  0  0  0  0  0  0  0  0  0
  -27.1930  -28.6870   20.7160 C   0  0  0  0  0  3  0  0  0  0  0  0
  -26.0120  -26.9360   19.5190 C   0  0  0  0  0  3  0  0  0  0  0  0
  -24.8290  -27.6900   19.5550 C   0  0  0  0  0  3  0  0  0  0  0  0
  -23.5900  -29.8150   20.2310 C   0  0  0  0  0  2  0  0  0  0  0  0
  -24.6760  -31.0780   22.1380 N   0  0  0  0  0  0  0  0  0  0  0  0
  -23.5540  -32.1910   23.7600 O   0  0  0  0  0  0  0  0  0  0  0  0
  -22.7600  -29.4640   22.5800 C   0  0  0  0  0  0  0  0  0  0  0  0
  -21.4350  -29.2790   22.4650 N   0  0  0  0  0  0  0  0  0  0  0  0
  -23.4510  -28.8410   23.3910 O   0  0  0  0  0  0  0  0  0  0  0  0
  -20.9370  -29.8360   21.7840 H   0  0  0  0  0  0  0  0  0  0  0  0
  -18.0660  -28.0680   22.9780 C   0  0  0  0  0  0  0  0  0  0  0  0
  -20.6240  -28.3420   23.2430 C   0  0  0  0  0  3  0  0  0  0  0  0
  -20.7330  -26.9070   22.6760 C   0  0  0  0  0  2  0  0  0  0  0  0
  -19.6310  -26.5710   21.6670 C   0  0  0  0  0  2  0  0  0  0  0  0
  -18.2490  -26.7130   22.3120 C   0  0  0  0  0  2  0  0  0  0  0  0
  -19.1820  -28.8380   23.4010 C   0  0  0  0  0  0  0  0  0  0  0  0
  -18.9580  -30.1060   23.9810 C   0  0  0  0  0  3  0  0  0  0  0  0
  -17.6510  -30.6020   24.1460 C   0  0  0  0  0  3  0  0  0  0  0  0
  -16.5500  -29.8280   23.7400 C   0  0  0  0  0  3  0  0  0  0  0  0
  -16.7580  -28.5640   23.1610 C   0  0  0  0  0  3  0  0  0  0  0  0
  -25.9290  -32.5080   23.8420 C   0  0  0  0  0  3  0  0  0  0  0  0
  -25.6280  -33.9020   24.1910 N   0  0  0  0  0  0  0  0  0  0  0  0
  -25.9410  -34.9600   23.4290 C   0  0  0  0  0  0  0  0  0  0  0  0
  -26.5880  -34.8640   22.3840 O   0  0  0  0  0  0  0  0  0  0  0  0
  -25.0520  -34.0510   25.0070 H   0  0  0  0  0  0  0  0  0  0  0  0
  -24.1970  -36.7460   23.1260 C   0  0  0  0  0  1  0  0  0  0  0  0
  -25.4590  -36.3440   23.9060 C   0  0  0  0  0  3  0  0  0  0  0  0
  -27.6130  -37.2270   24.6840 C   0  0  0  0  0  1  0  0  0  0  0  0
  -26.4840  -37.4020   23.7740 N   0  0  0  0  0  0  0  0  0  0  0  0
  -26.0800  -38.3190   23.9430 H   0  0  0  0  0  0  0  0  0  0  0  0
  -26.4650  -31.7230   25.1010 C   0  0  1  0  0  0  0  0  0  0  0  0
  -25.3890  -31.4770   26.1840 C   0  0  0  0  0  1  0  0  0  0  0  0
  -27.0400  -30.3490   24.6850 C   0  0  0  0  0  1  0  0  0  0  0  0
  -27.6290  -32.5090   25.7500 C   0  0  0  0  0  1  0  0  0  0  0  0
  -29.6630  -21.7350   20.6440 C   0  0  0  0  0  2  0  0  0  0  0  0
  -29.8840  -20.3180   20.0200 C   0  0  0  0  0  2  0  0  0  0  0  0
  -30.1790  -19.2480   21.0170 N   0  0  0  0  0  4  0  0  0  0  0  0
  -29.5960  -19.3930   21.8260 H   0  0  0  0  0  0  0  0  0  0  0  0
  -31.1380  -19.3430   21.3150 H   0  0  0  0  0  0  0  0  0  0  0  0
  -29.9550  -17.8510   20.5450 C   0  0  0  0  0  2  0  0  0  0  0  0
  -30.4260  -16.7780   21.5690 C   0  0  0  0  0  2  0  0  0  0  0  0
  -30.6620  -14.4620   20.5590 C   0  0  0  0  0  0  0  0  0  0  0  0
  -30.3680  -12.3260   19.3490 C   0  0  0  0  0  2  0  0  0  0  0  0
  -29.4220  -12.5340   18.1480 C   0  0  0  0  0  2  0  0  0  0  0  0
  -27.9480  -12.3920   18.5780 C   0  0  0  0  0  2  0  0  0  0  0  0
  -27.6100  -13.2210   19.8450 C   0  0  0  0  0  3  0  0  0  0  0  0
  -28.6620  -12.9740   20.9510 C   0  0  0  0  0  2  0  0  0  0  0  0
  -29.9890  -13.2900   20.3930 N   0  0  0  0  0  0  0  0  0  0  0  0
  -31.7590  -14.6920   20.0460 O   0  0  0  0  0  0  0  0  0  0  0  0
  -29.9960  -15.4070   21.2450 N   0  0  0  0  0  0  0  0  0  0  0  0
  -29.0970  -15.1220   21.6070 H   0  0  0  0  0  0  0  0  0  0  0  0
  -25.2080  -13.8380   20.5350 C   0  0  0  0  0  0  0  0  0  0  0  0
  -24.1360  -13.0680   20.9020 C   0  0  0  0  0  0  0  0  0  0  0  0
  -24.5950  -11.7160   20.8780 C   0  0  0  0  0  0  0  0  0  0  0  0
  -26.2530  -12.9530   20.3150 N   0  0  0  0  0  0  0  0  0  0  0  0
  -25.8860  -11.6730   20.5780 N   0  0  0  0  0  0  0  0  0  0  0  0
  -23.8660  -10.4560   21.0710 C   0  0  0  0  0  0  0  0  0  0  0  0
  -24.3110   -9.4770   21.9870 C   0  0  0  0  0  3  0  0  0  0  0  0
  -23.5840   -8.2820   22.1660 C   0  0  0  0  0  3  0  0  0  0  0  0
  -22.3970   -8.0550   21.4290 C   0  0  0  0  0  0  0  0  0  0  0  0
  -21.9710   -9.0220   20.5010 C   0  0  0  0  0  3  0  0  0  0  0  0
  -22.7000  -10.2100   20.3190 C   0  0  0  0  0  3  0  0  0  0  0  0
  -21.6400   -6.9120   21.5190 O   0  0  0  0  0  0  0  0  0  0  0  0
  -21.6280   -6.1440   22.6560 C   0  0  0  0  0  0  0  0  0  0  0  0
  -21.2680   -6.6800   23.9120 C   0  0  0  0  0  3  0  0  0  0  0  0
  -21.2010   -5.8400   25.0420 C   0  0  0  0  0  3  0  0  0  0  0  0
  -21.4840   -4.4660   24.9170 C   0  0  0  0  0  0  0  0  0  0  0  0
  -21.8360   -3.9300   23.6660 C   0  0  0  0  0  3  0  0  0  0  0  0
  -21.9050   -4.7680   22.5370 C   0  0  0  0  0  0  0  0  0  0  0  0
  -22.2240   -4.2430   21.3300 F   0  0  0  0  0  0  0  0  0  0  0  0
  -21.4110   -3.6580   26.0000 F   0  0  0  0  0  0  0  0  0  0  0  0
  -22.7380  -13.5490   21.1650 C   0  0  0  0  0  0  0  0  0  0  0  0
  -22.0050  -12.8590   22.0330 N   0  0  0  0  0  0  0  0  0  0  0  0
  -22.3030  -14.5720   20.6380 O   0  0  0  0  0  0  0  0  0  0  0  0
  -22.3700  -12.0300   22.4810 H   0  0  0  0  0  0  0  0  0  0  0  0
  -21.0680  -13.1620   22.2530 H   0  0  0  0  0  0  0  0  0  0  0  0
  -25.3760  -15.2060   20.3490 N   0  0  0  0  0  0  0  0  0  0  0  0
  -24.6080  -15.8630   20.4430 H   0  0  0  0  0  0  0  0  0  0  0  0
  -26.2250  -15.6370   20.0060 H   0  0  0  0  0  0  0  0  0  0  0  0
  1  4  1  0
  3  1  1  0
  3  6  1  0
  4  9  1  0
  4  2  1  0
  5  2  1  0
  5 50  1  0
  6  8  1  0
  6  5  1  0
  7  6  1  0
 10 21  2  0
 11  9  1  0
 11 16  1  0
 12 20  1  0
 12 22  1  0
 13 19  1  0
 13 15  1  0
 14 20  1  0
 15 14  1  0
 16 15  2  0
 17 18  1  0
 17 11  2  0
 18 13  2  0
 19 12  1  0
 20 10  1  0
 22 24  2  0
 23 22  1  0
 25 23  1  0
 26 35  2  0
 26 31  1  0
 27 23  1  0
 27 31  1  0
 28 27  1  0
 29 30  1  0
 29 28  1  0
 30 26  1  0
 31 32  2  0
 32 33  1  0
 34 33  2  0
 35 34  1  0
 36 10  1  0
 36 37  1  0
 36 46  1  0
 37 40  1  0
 38 42  1  0
 38 37  1  0
 39 38  2  0
 42 41  1  0
 44 42  1  0
 44 45  1  0
 44 43  1  0
 46 49  1  1
 46 47  1  0
 48 46  1  0
 51 50  1  0
 51 52  1  0
 52 54  1  0
 52 53  1  0
 55 52  1  0
 55 56  1  0
 57 65  1  0
 58 63  1  0
 59 60  1  0
 59 58  1  0
 61 60  1  0
 61 70  1  0
 61 62  1  0
 63 57  1  0
 63 62  1  0
 64 57  2  0
 65 56  1  0
 65 66  1  0
 67 68  2  0
 68 87  1  0
 69 68  1  0
 69 72  1  0
 70 67  1  0
 70 71  1  0
 71 69  2  0
 72 73  1  0
 73 74  2  0
 75 78  1  0
 75 74  1  0
 76 75  2  0
 77 76  1  0
 77 72  2  0
 78 79  1  0
 79 80  1  0
 80 81  2  0
 82 81  1  0
 82 86  1  0
 83 82  2  0
 84 79  2  0
 84 83  1  0
 85 84  1  0
 87 88  1  0
 88 91  1  0
 88 90  1  0
 89 87  2  0
 92 93  1  0
 92 67  1  0
 94 92  1  0
M  ISO  4   4 101   9 101  57 100  65 100
M  END
>  <TORSDO>  (71) 
F 21

>  <SCORE>  (71) 
-13.468

>  <name>  (71) 
70

>  <ligand_id>  (71) 
70

>  <original_smiles>  (71) 
[H]c1c([H])c([H])c2c(c1[H])C([H])([H])C([H])([H])C([H])([H])C2([H])N([H])C(=O)C1([H])N(C(=O)C([H])(N([H])C(=O)C([H])(N([H])C([H])([H])[H])C([H])([H])[H])C(C([H])([H])[H])(C([H])([H])[H])C([H])([H])[H])C([H])([H])c2c([H])c(OC3([H])C([H])([H])C([H])([H])[N+]([H])([H])C([H])(C([H])([H])C([H])([H])[N+]([H])([H])C([H])([H])C([H])([H])N([H])C(=O)N4C([H])([H])C([H])([H])C([H])([H])C([H])(n5nc(-c6c([H])c([H])c(Oc7c([H])c([H])c(F)c([H])c7F)c([H])c6[H])c(C(=O)N([H])[H])c5N([H])[H])C4([H])[H])C3([H])[H])c([H])c([H])c2C1([H])[H]

>  <smiles>  (71) 
[H]c1c([H])c([H])c2c(c1[H])C([H])([H])C([H])([H])C([H])([H])C2([H])N([H])C(=O)C1([H])N(C(=O)C([H])(N([H])C(=O)C([H])(N([H])C([H])([H])[H])C([H])([H])[H])C(C([H])([H])[H])(C([H])([H])[H])C([H])([H])[H])C([H])([H])c2c([H])c(OC3([H])C([H])([H])C([H])([H])[N+]([H])([H])C([H])(C([H])([H])C([H])([H])[N+]([H])([H])C([H])([H])C([H])([H])N([H])C(=O)N4C([H])([H])C([H])([H])C([H])([H])C([H])(n5nc(-c6c([H])c([H])c(Oc7c([H])c([H])c(F)c([H])c7F)c([H])c6[H])c(C(=O)N([H])[H])c5N([H])[H])C4([H])[H])C3([H])[H])c([H])c([H])c2C1([H])[H]

> <Step>
131.0

> <Scaffold>
O=C(NC1CCCc2ccccc21)C1Cc2ccc(OC3CCNC(CCNCCNC(=O)N4CCCC(n5ccc(-c6ccc(Oc7ccccc7)cc6)n5)C4)C3)cc2CN1

> <SMILES>
CNC(C)C(=O)NC(C(=O)N1Cc2cc(OC3CCNC(CCNCCNC(=O)N4CCCC(n5nc(-c6ccc(Oc7ccc(F)cc7F)cc6)c(C(N)=O)c5N)C4)C3)ccc2CC1C(=O)NC1CCCc2ccccc21)C(C)(C)C

> <Tanimoto ROCS sim>
0.26775240898132324

> <Custom alerts>
1.0

> <Linker Num Aromatic Rings>
1.0

> <Linker Effective Length>
1.0

> <ADV>
0.9925611019134521

> <PostDock Tanimoto ROCS sim>
0.9935346245765686

> <raw_Linker Num Aromatic Rings>
0.0

> <raw_Linker Effective Length>
8.0

> <raw_ADV>
-13.50100040435791

> <total_score>
0.996523916721344

> <ID>
default_job_70

> <PostDock Tanimoto ROCS sim (re-score)>
0.9865612

> <raw_ADV (re-score)>
-13.468

> <Final Intermolecular Energy>
-29.608

> <Final Total Internal Energy>
-2.651

> <Torsional Free Energy>
16.14

> <Unbound System's Energy>
-2.651

$$$$
default_job_71
     RDKit          3D

 92101  0  0  1  0  0  0  0  0999 V2000
  -29.7900  -21.5220   18.8230 C   0  0  0  0  0  2  0  0  0  0  0  0
  -29.3130  -20.4850   19.8340 C   0  0  0  0  0  3  0  0  0  0  0  0
  -29.9020  -21.8330   20.2880 C   0  0  0  0  0  3  0  0  0  0  0  0
  -30.7250  -17.2020   18.8990 C   0  0  0  0  0  2  0  0  0  0  0  0
  -30.1480  -18.5860   18.6070 C   0  0  0  0  0  2  0  0  0  0  0  0
  -29.5990  -18.1850   20.7800 C   0  0  0  0  0  2  0  0  0  0  0  0
  -30.4930  -16.9770   20.3990 C   0  0  0  0  0  3  0  0  0  0  0  0
  -30.1160  -19.2520   19.9080 N   0  0  0  0  0  0  0  0  0  0  0  0
  -30.6820  -14.5000   20.4570 C   0  0  0  0  0  0  0  0  0  0  0  0
  -30.3560  -12.3200   19.3720 C   0  0  0  0  0  2  0  0  0  0  0  0
  -29.4370  -12.5220   18.1490 C   0  0  0  0  0  2  0  0  0  0  0  0
  -27.9590  -12.3920   18.5640 C   0  0  0  0  0  2  0  0  0  0  0  0
  -27.6070  -13.2460   19.8140 C   0  0  0  0  0  3  0  0  0  0  0  0
  -28.6550  -13.0700   20.9370 C   0  0  0  0  0  2  0  0  0  0  0  0
  -29.9810  -13.3380   20.3660 N   0  0  0  0  0  0  0  0  0  0  0  0
  -31.8570  -14.5890   20.0940 O   0  0  0  0  0  0  0  0  0  0  0  0
  -29.9720  -15.6240   20.7040 N   0  0  0  0  0  0  0  0  0  0  0  0
  -29.0040  -15.5260   20.9670 H   0  0  0  0  0  0  0  0  0  0  0  0
  -25.2060  -13.8520   20.5060 C   0  0  0  0  0  0  0  0  0  0  0  0
  -24.1350  -13.0810   20.8680 C   0  0  0  0  0  0  0  0  0  0  0  0
  -24.5940  -11.7290   20.8440 C   0  0  0  0  0  0  0  0  0  0  0  0
  -26.2520  -12.9700   20.2850 N   0  0  0  0  0  0  0  0  0  0  0  0
  -25.8880  -11.6880   20.5480 N   0  0  0  0  0  0  0  0  0  0  0  0
  -23.8640  -10.4670   21.0300 C   0  0  0  0  0  0  0  0  0  0  0  0
  -24.2790   -9.5070   21.9780 C   0  0  0  0  0  3  0  0  0  0  0  0
  -23.5500   -8.3100   22.1520 C   0  0  0  0  0  3  0  0  0  0  0  0
  -22.3910   -8.0670   21.3770 C   0  0  0  0  0  0  0  0  0  0  0  0
  -21.9960   -9.0160   20.4170 C   0  0  0  0  0  3  0  0  0  0  0  0
  -22.7260  -10.2030   20.2420 C   0  0  0  0  0  3  0  0  0  0  0  0
  -21.6360   -6.9220   21.4580 O   0  0  0  0  0  0  0  0  0  0  0  0
  -21.5540   -6.1940   22.6180 C   0  0  0  0  0  0  0  0  0  0  0  0
  -21.0710   -6.7580   23.8190 C   0  0  0  0  0  3  0  0  0  0  0  0
  -20.9410   -5.9550   24.9690 C   0  0  0  0  0  3  0  0  0  0  0  0
  -21.2810   -4.5900   24.9200 C   0  0  0  0  0  0  0  0  0  0  0  0
  -21.7560   -4.0260   23.7240 C   0  0  0  0  0  3  0  0  0  0  0  0
  -21.8900   -4.8260   22.5740 C   0  0  0  0  0  0  0  0  0  0  0  0
  -22.3290   -4.2730   21.4180 F   0  0  0  0  0  0  0  0  0  0  0  0
  -21.1470   -3.8170   26.0230 F   0  0  0  0  0  0  0  0  0  0  0  0
  -22.7350  -13.5600   21.1260 C   0  0  0  0  0  0  0  0  0  0  0  0
  -21.9980  -12.8660   21.9860 N   0  0  0  0  0  0  0  0  0  0  0  0
  -22.3040  -14.5850   20.5980 O   0  0  0  0  0  0  0  0  0  0  0  0
  -22.3590  -12.0360   22.4340 H   0  0  0  0  0  0  0  0  0  0  0  0
  -21.0590  -13.1690   22.2010 H   0  0  0  0  0  0  0  0  0  0  0  0
  -25.3730  -15.2210   20.3250 N   0  0  0  0  0  0  0  0  0  0  0  0
  -24.6020  -15.8730   20.4230 H   0  0  0  0  0  0  0  0  0  0  0  0
  -26.2180  -15.6570   19.9800 H   0  0  0  0  0  0  0  0  0  0  0  0
  -28.9220  -22.8670   20.7220 N   0  0  0  0  0  4  0  0  0  0  0  0
  -28.7120  -22.7230   21.6980 H   0  0  0  0  0  0  0  0  0  0  0  0
  -28.0660  -22.7030   20.2170 H   0  0  0  0  0  0  0  0  0  0  0  0
  -29.3390  -24.2900   20.5190 C   0  0  0  0  0  2  0  0  0  0  0  0
  -28.1340  -25.1990   20.1660 C   0  0  0  0  0  2  0  0  0  0  0  0
  -28.3590  -26.6300   20.2130 O   0  0  0  0  0  0  0  0  0  0  0  0
  -24.5970  -31.8860   23.2720 C   0  0  0  0  0  0  0  0  0  0  0  0
  -27.2140  -27.4140   20.1720 C   0  0  0  0  0  0  0  0  0  0  0  0
  -23.3880  -30.4900   21.6320 C   0  0  0  0  0  3  0  0  0  0  0  0
  -24.8350  -28.9640   20.1920 C   0  0  0  0  0  0  0  0  0  0  0  0
  -25.9210  -30.8290   21.4420 C   0  0  0  0  0  2  0  0  0  0  0  0
  -26.0000  -29.4640   20.7870 C   0  0  0  0  0  0  0  0  0  0  0  0
  -27.1940  -28.6990   20.7710 C   0  0  0  0  0  3  0  0  0  0  0  0
  -26.0250  -26.9470   19.5570 C   0  0  0  0  0  3  0  0  0  0  0  0
  -24.8440  -27.7060   19.5730 C   0  0  0  0  0  3  0  0  0  0  0  0
  -23.5950  -29.8270   20.2470 C   0  0  0  0  0  2  0  0  0  0  0  0
  -24.6550  -31.0790   22.1750 N   0  0  0  0  0  0  0  0  0  0  0  0
  -23.5120  -32.1850   23.7880 O   0  0  0  0  0  0  0  0  0  0  0  0
  -22.7340  -29.4620   22.5840 C   0  0  0  0  0  0  0  0  0  0  0  0
  -21.4090  -29.2780   22.4490 N   0  0  0  0  0  0  0  0  0  0  0  0
  -23.4140  -28.8340   23.3980 O   0  0  0  0  0  0  0  0  0  0  0  0
  -20.9230  -29.8380   21.7630 H   0  0  0  0  0  0  0  0  0  0  0  0
  -18.0310  -28.0870   22.9290 C   0  0  0  0  0  0  0  0  0  0  0  0
  -20.5880  -28.3360   23.2100 C   0  0  0  0  0  3  0  0  0  0  0  0
  -20.6890  -26.9090   22.6230 C   0  0  0  0  0  2  0  0  0  0  0  0
  -19.5880  -26.5970   21.6040 C   0  0  0  0  0  2  0  0  0  0  0  0
  -18.2060  -26.7420   22.2450 C   0  0  0  0  0  2  0  0  0  0  0  0
  -19.1500  -28.8430   23.3680 C   0  0  0  0  0  0  0  0  0  0  0  0
  -18.9330  -30.1040   23.9660 C   0  0  0  0  0  3  0  0  0  0  0  0
  -17.6290  -30.6070   24.1310 C   0  0  0  0  0  3  0  0  0  0  0  0
  -16.5240  -29.8470   23.7100 C   0  0  0  0  0  3  0  0  0  0  0  0
  -16.7250  -28.5890   23.1150 C   0  0  0  0  0  3  0  0  0  0  0  0
  -25.8870  -32.4970   23.9060 C   0  0  0  0  0  3  0  0  0  0  0  0
  -26.3870  -31.7210   25.1860 C   0  0  1  0  0  0  0  0  0  0  0  0
  -25.2840  -31.4950   26.2450 C   0  0  0  0  0  1  0  0  0  0  0  0
  -26.9610  -30.3390   24.7980 C   0  0  0  0  0  1  0  0  0  0  0  0
  -27.5410  -32.5070   25.8550 C   0  0  0  0  0  1  0  0  0  0  0  0
  -25.5930  -33.8990   24.2300 N   0  0  0  0  0  0  0  0  0  0  0  0
  -25.9210  -34.9420   23.4550 C   0  0  0  0  0  0  0  0  0  0  0  0
  -26.5780  -34.8230   22.4170 O   0  0  0  0  0  0  0  0  0  0  0  0
  -25.0110  -34.0660   25.0380 H   0  0  0  0  0  0  0  0  0  0  0  0
  -24.1920  -36.7340   23.1080 C   0  0  0  0  0  1  0  0  0  0  0  0
  -25.4460  -36.3350   23.9040 C   0  0  0  0  0  3  0  0  0  0  0  0
  -27.5940  -37.2230   24.6940 C   0  0  0  0  0  1  0  0  0  0  0  0
  -26.4800  -37.3830   23.7630 N   0  0  0  0  0  0  0  0  0  0  0  0
  -26.0780  -38.3060   23.9060 H   0  0  0  0  0  0  0  0  0  0  0  0
  1  3  1  0
  2  1  1  0
  2  8  1  0
  2  3  1  0
  3 47  1  0
  4  7  1  0
  5  4  1  0
  7 17  1  0
  7  6  1  0
  8  5  1  0
  8  6  1  0
  9 17  1  0
 10 15  1  0
 11 12  1  0
 11 10  1  0
 13 12  1  0
 13 22  1  0
 13 14  1  0
 15  9  1  0
 15 14  1  0
 16  9  2  0
 17 18  1  0
 19 20  2  0
 20 39  1  0
 21 20  1  0
 21 24  1  0
 22 19  1  0
 22 23  1  0
 23 21  2  0
 24 25  1  0
 25 26  2  0
 27 30  1  0
 27 26  1  0
 28 27  2  0
 29 28  1  0
 29 24  2  0
 30 31  1  0
 31 32  1  0
 32 33  2  0
 34 33  1  0
 34 38  1  0
 35 34  2  0
 36 31  2  0
 36 35  1  0
 37 36  1  0
 39 40  1  0
 40 43  1  0
 40 42  1  0
 41 39  2  0
 44 45  1  0
 44 19  1  0
 46 44  1  0
 47 48  1  0
 49 47  1  0
 50 47  1  0
 51 52  1  0
 51 50  1  0
 53 64  2  0
 54 52  1  0
 54 59  1  0
 55 63  1  0
 55 65  1  0
 56 62  1  0
 56 58  1  0
 57 63  1  0
 58 57  1  0
 59 58  2  0
 60 61  1  0
 60 54  2  0
 61 56  2  0
 62 55  1  0
 63 53  1  0
 65 67  2  0
 66 65  1  0
 68 66  1  0
 69 78  2  0
 69 74  1  0
 70 66  1  0
 70 74  1  0
 71 70  1  0
 72 73  1  0
 72 71  1  0
 73 69  1  0
 74 75  2  0
 75 76  1  0
 77 76  2  0
 78 77  1  0
 79 53  1  0
 79 84  1  0
 79 80  1  0
 80 83  1  1
 80 81  1  0
 82 80  1  0
 84 87  1  0
 85 89  1  0
 85 84  1  0
 86 85  2  0
 89 88  1  0
 91 89  1  0
 91 92  1  0
 91 90  1  0
M  ISO  4   9 100  17 100  51 101  52 101
M  END
>  <TORSDO>  (72) 
F 20

>  <SCORE>  (72) 
-13.748

>  <name>  (72) 
71

>  <ligand_id>  (72) 
71

>  <original_smiles>  (72) 
[H]c1c([H])c([H])c2c(c1[H])C([H])([H])C([H])([H])C([H])([H])C2([H])N([H])C(=O)C1([H])N(C(=O)C([H])(N([H])C(=O)C([H])(N([H])C([H])([H])[H])C([H])([H])[H])C(C([H])([H])[H])(C([H])([H])[H])C([H])([H])[H])C([H])([H])c2c([H])c(OC([H])([H])C([H])([H])[N+]([H])([H])C3([H])C([H])([H])C3([H])N3C([H])([H])C([H])([H])C([H])(N([H])C(=O)N4C([H])([H])C([H])([H])C([H])([H])C([H])(n5nc(-c6c([H])c([H])c(Oc7c([H])c([H])c(F)c([H])c7F)c([H])c6[H])c(C(=O)N([H])[H])c5N([H])[H])C4([H])[H])C3([H])[H])c([H])c([H])c2C1([H])[H]

>  <smiles>  (72) 
[H]c1c([H])c([H])c2c(c1[H])C([H])([H])C([H])([H])C([H])([H])C2([H])N([H])C(=O)C1([H])N(C(=O)C([H])(N([H])C(=O)C([H])(N([H])C([H])([H])[H])C([H])([H])[H])C(C([H])([H])[H])(C([H])([H])[H])C([H])([H])[H])C([H])([H])c2c([H])c(OC([H])([H])C([H])([H])[N+]([H])([H])C3([H])C([H])([H])C3([H])N3C([H])([H])C([H])([H])C([H])(N([H])C(=O)N4C([H])([H])C([H])([H])C([H])([H])C([H])(n5nc(-c6c([H])c([H])c(Oc7c([H])c([H])c(F)c([H])c7F)c([H])c6[H])c(C(=O)N([H])[H])c5N([H])[H])C4([H])[H])C3([H])[H])c([H])c([H])c2C1([H])[H]

> <Step>
188.0

> <Scaffold>
O=C(NC1CCCc2ccccc21)C1Cc2ccc(OCCNC3CC3N3CCC(NC(=O)N4CCCC(n5ccc(-c6ccc(Oc7ccccc7)cc6)n5)C4)C3)cc2CN1

> <SMILES>
CNC(C)C(=O)NC(C(=O)N1Cc2cc(OCCNC3CC3N3CCC(NC(=O)N4CCCC(n5nc(-c6ccc(Oc7ccc(F)cc7F)cc6)c(C(N)=O)c5N)C4)C3)ccc2CC1C(=O)NC1CCCc2ccccc21)C(C)(C)C

> <Tanimoto ROCS sim>
0.2909911572933197

> <Custom alerts>
1.0

> <Linker Num Aromatic Rings>
1.0

> <Linker Effective Length>
1.0

> <ADV>
0.9936397075653076

> <PostDock Tanimoto ROCS sim>
0.9924359321594238

> <raw_Linker Num Aromatic Rings>
0.0

> <raw_Linker Effective Length>
8.0

> <raw_ADV>
-13.774999618530273

> <total_score>
0.9965189099311829

> <ID>
default_job_71

> <PostDock Tanimoto ROCS sim (re-score)>
0.9812396

> <raw_ADV (re-score)>
-13.748

> <Final Intermolecular Energy>
-29.42

> <Final Total Internal Energy>
-2.731

> <Torsional Free Energy>
15.672

> <Unbound System's Energy>
-2.731

$$$$
default_job_72
     RDKit          3D

 95103  0  0  1  0  0  0  0  0999 V2000
  -28.9080  -21.8650   18.6990 C   0  0  0  0  0  2  0  0  0  0  0  0
  -29.6300  -21.9430   21.0720 C   0  0  0  0  0  2  0  0  0  0  0  0
  -28.6630  -20.3410   18.8190 C   0  0  0  0  0  2  0  0  0  0  0  0
  -29.4140  -20.3910   21.1830 C   0  0  0  0  0  2  0  0  0  0  0  0
  -28.7180  -22.6440   20.0220 C   0  0  0  0  0  3  0  0  0  0  0  0
  -29.5850  -19.6140   19.8430 C   0  0  0  0  0  3  0  0  0  0  0  0
  -28.9270  -24.1990   19.7550 C   0  0  0  0  0  2  0  0  0  0  0  0
  -27.2180  -24.8960   21.5480 C   0  0  0  0  0  1  0  0  0  0  0  0
  -29.6230  -25.5000   21.8390 C   0  0  0  0  0  1  0  0  0  0  0  0
  -28.5070  -25.3070   20.7970 C   0  0  1  0  0  0  0  0  0  0  0  0
  -28.4580  -26.6320   20.1510 O   0  0  0  0  0  0  0  0  0  0  0  0
  -24.6180  -31.8650   23.2160 C   0  0  0  0  0  0  0  0  0  0  0  0
  -27.3000  -27.4030   20.1470 C   0  0  0  0  0  0  0  0  0  0  0  0
  -23.4370  -30.4680   21.5550 C   0  0  0  0  0  3  0  0  0  0  0  0
  -24.9110  -28.9450   20.1280 C   0  0  0  0  0  0  0  0  0  0  0  0
  -25.9690  -30.8200   21.3970 C   0  0  0  0  0  2  0  0  0  0  0  0
  -26.0640  -29.4530   20.7410 C   0  0  0  0  0  0  0  0  0  0  0  0
  -27.2620  -28.6920   20.7440 C   0  0  0  0  0  3  0  0  0  0  0  0
  -26.1380  -26.9380   19.4980 C   0  0  0  0  0  3  0  0  0  0  0  0
  -24.9470  -27.6880   19.4990 C   0  0  0  0  0  3  0  0  0  0  0  0
  -23.6660  -29.8040   20.1710 C   0  0  0  0  0  2  0  0  0  0  0  0
  -24.6930  -31.0640   22.1160 N   0  0  0  0  0  0  0  0  0  0  0  0
  -23.5240  -32.1550   23.7210 O   0  0  0  0  0  0  0  0  0  0  0  0
  -22.7760  -29.4360   22.4990 C   0  0  0  0  0  0  0  0  0  0  0  0
  -21.4480  -29.2710   22.3760 N   0  0  0  0  0  0  0  0  0  0  0  0
  -23.4560  -28.7870   23.2980 O   0  0  0  0  0  0  0  0  0  0  0  0
  -20.9600  -29.8470   21.7040 H   0  0  0  0  0  0  0  0  0  0  0  0
  -18.0600  -28.1200   22.8840 C   0  0  0  0  0  0  0  0  0  0  0  0
  -20.6250  -28.3260   23.1310 C   0  0  0  0  0  3  0  0  0  0  0  0
  -20.6960  -26.9100   22.5100 C   0  0  0  0  0  2  0  0  0  0  0  0
  -19.5750  -26.6360   21.5020 C   0  0  0  0  0  2  0  0  0  0  0  0
  -18.2050  -26.7880   22.1680 C   0  0  0  0  0  2  0  0  0  0  0  0
  -19.1970  -28.8490   23.3220 C   0  0  0  0  0  0  0  0  0  0  0  0
  -19.0090  -30.0970   23.9520 C   0  0  0  0  0  3  0  0  0  0  0  0
  -17.7160  -30.6170   24.1500 C   0  0  0  0  0  3  0  0  0  0  0  0
  -16.5920  -29.8840   23.7300 C   0  0  0  0  0  3  0  0  0  0  0  0
  -16.7660  -28.6370   23.1010 C   0  0  0  0  0  3  0  0  0  0  0  0
  -25.8950  -32.4860   23.8660 C   0  0  0  0  0  3  0  0  0  0  0  0
  -25.5870  -33.8830   24.1940 N   0  0  0  0  0  0  0  0  0  0  0  0
  -25.9210  -34.9330   23.4320 C   0  0  0  0  0  0  0  0  0  0  0  0
  -26.5930  -34.8270   22.4040 O   0  0  0  0  0  0  0  0  0  0  0  0
  -24.9910  -34.0400   24.9930 H   0  0  0  0  0  0  0  0  0  0  0  0
  -24.1890  -36.7190   23.0690 C   0  0  0  0  0  1  0  0  0  0  0  0
  -25.4300  -36.3220   23.8830 C   0  0  0  0  0  3  0  0  0  0  0  0
  -27.5600  -37.2140   24.7160 C   0  0  0  0  0  1  0  0  0  0  0  0
  -26.4610  -37.3760   23.7690 N   0  0  0  0  0  0  0  0  0  0  0  0
  -26.0520  -38.2950   23.9150 H   0  0  0  0  0  0  0  0  0  0  0  0
  -26.3870  -31.7100   25.1500 C   0  0  1  0  0  0  0  0  0  0  0  0
  -25.2720  -31.4750   26.1960 C   0  0  0  0  0  1  0  0  0  0  0  0
  -26.9760  -30.3340   24.7640 C   0  0  0  0  0  1  0  0  0  0  0  0
  -27.5250  -32.5020   25.8370 C   0  0  0  0  0  1  0  0  0  0  0  0
  -29.3030  -18.0440   19.8860 C   0  0  0  0  0  3  0  0  0  0  0  0
  -29.3460  -17.4930   18.5190 N   0  0  0  0  0  4  0  0  0  0  0  0
  -30.2880  -17.5010   18.1650 H   0  0  0  0  0  0  0  0  0  0  0  0
  -28.7740  -18.0490   17.9080 H   0  0  0  0  0  0  0  0  0  0  0  0
  -29.0060  -16.5510   18.5010 H   0  0  0  0  0  0  0  0  0  0  0  0
  -30.1990  -17.1260   20.8060 C   0  0  0  0  0  2  0  0  0  0  0  0
  -30.6410  -14.6110   20.3830 C   0  0  0  0  0  0  0  0  0  0  0  0
  -30.3960  -12.4120   19.2700 C   0  0  0  0  0  2  0  0  0  0  0  0
  -29.4380  -12.5710   18.0680 C   0  0  0  0  0  2  0  0  0  0  0  0
  -27.9690  -12.4160   18.5100 C   0  0  0  0  0  2  0  0  0  0  0  0
  -27.6260  -13.2560   19.7690 C   0  0  0  0  0  3  0  0  0  0  0  0
  -28.6960  -13.0760   20.8700 C   0  0  0  0  0  2  0  0  0  0  0  0
  -30.0040  -13.4080   20.2830 N   0  0  0  0  0  0  0  0  0  0  0  0
  -31.7880  -14.7850   19.9670 O   0  0  0  0  0  0  0  0  0  0  0  0
  -29.8650  -15.6640   20.7560 N   0  0  0  0  0  0  0  0  0  0  0  0
  -28.9480  -15.4100   21.0930 H   0  0  0  0  0  0  0  0  0  0  0  0
  -25.2320  -13.8440   20.5010 C   0  0  0  0  0  0  0  0  0  0  0  0
  -24.1720  -13.0640   20.8750 C   0  0  0  0  0  0  0  0  0  0  0  0
  -24.6410  -11.7150   20.8380 C   0  0  0  0  0  0  0  0  0  0  0  0
  -26.2810  -12.9690   20.2600 N   0  0  0  0  0  0  0  0  0  0  0  0
  -25.9290  -11.6850   20.5230 N   0  0  0  0  0  0  0  0  0  0  0  0
  -23.9240  -10.4490   21.0300 C   0  0  0  0  0  0  0  0  0  0  0  0
  -24.3570   -9.4890   21.9700 C   0  0  0  0  0  3  0  0  0  0  0  0
  -23.6390   -8.2860   22.1490 C   0  0  0  0  0  3  0  0  0  0  0  0
  -22.4730   -8.0380   21.3860 C   0  0  0  0  0  0  0  0  0  0  0  0
  -22.0580   -8.9870   20.4360 C   0  0  0  0  0  3  0  0  0  0  0  0
  -22.7770  -10.1800   20.2560 C   0  0  0  0  0  3  0  0  0  0  0  0
  -21.7270   -6.8870   21.4740 O   0  0  0  0  0  0  0  0  0  0  0  0
  -21.6670   -6.1540   22.6320 C   0  0  0  0  0  0  0  0  0  0  0  0
  -21.1930   -6.7070   23.8410 C   0  0  0  0  0  3  0  0  0  0  0  0
  -21.0830   -5.9000   24.9900 C   0  0  0  0  0  3  0  0  0  0  0  0
  -21.4390   -4.5390   24.9320 C   0  0  0  0  0  0  0  0  0  0  0  0
  -21.9060   -3.9840   23.7280 C   0  0  0  0  0  3  0  0  0  0  0  0
  -22.0170   -4.7900   22.5800 C   0  0  0  0  0  0  0  0  0  0  0  0
  -22.4480   -4.2450   21.4170 F   0  0  0  0  0  0  0  0  0  0  0  0
  -21.3260   -3.7600   26.0330 F   0  0  0  0  0  0  0  0  0  0  0  0
  -22.7730  -13.5340   21.1570 C   0  0  0  0  0  0  0  0  0  0  0  0
  -22.0520  -12.8260   22.0190 N   0  0  0  0  0  0  0  0  0  0  0  0
  -22.3290  -14.5620   20.6480 O   0  0  0  0  0  0  0  0  0  0  0  0
  -22.4250  -11.9940   22.4520 H   0  0  0  0  0  0  0  0  0  0  0  0
  -21.1140  -13.1220   22.2510 H   0  0  0  0  0  0  0  0  0  0  0  0
  -25.3850  -15.2160   20.3240 N   0  0  0  0  0  0  0  0  0  0  0  0
  -24.6070  -15.8570   20.4350 H   0  0  0  0  0  0  0  0  0  0  0  0
  -26.2150  -15.6640   19.9610 H   0  0  0  0  0  0  0  0  0  0  0  0
  1  3  1  0
  1  5  1  0
  2  4  1  0
  3  6  1  0
  5  7  1  0
  5  2  1  0
  6 52  1  0
  6  4  1  0
  7 10  1  0
 10  8  1  1
 10  9  1  0
 11 10  1  0
 12 23  2  0
 13 11  1  0
 13 18  1  0
 14 22  1  0
 14 24  1  0
 15 21  1  0
 15 17  1  0
 16 22  1  0
 17 18  2  0
 17 16  1  0
 19 20  1  0
 19 13  2  0
 20 15  2  0
 21 14  1  0
 22 12  1  0
 24 26  2  0
 25 24  1  0
 27 25  1  0
 28 37  2  0
 28 33  1  0
 29 25  1  0
 29 33  1  0
 30 29  1  0
 31 32  1  0
 31 30  1  0
 32 28  1  0
 33 34  2  0
 34 35  1  0
 36 35  2  0
 37 36  1  0
 38 12  1  0
 38 39  1  0
 38 48  1  0
 39 42  1  0
 40 44  1  0
 40 39  1  0
 41 40  2  0
 44 43  1  0
 46 44  1  0
 46 47  1  0
 46 45  1  0
 48 51  1  1
 48 49  1  0
 50 48  1  0
 52 57  1  0
 53 52  1  0
 54 53  1  0
 55 53  1  0
 56 53  1  0
 58 66  1  0
 59 64  1  0
 60 61  1  0
 60 59  1  0
 62 61  1  0
 62 71  1  0
 62 63  1  0
 64 58  1  0
 64 63  1  0
 65 58  2  0
 66 57  1  0
 66 67  1  0
 68 69  2  0
 69 88  1  0
 70 69  1  0
 70 73  1  0
 71 68  1  0
 71 72  1  0
 72 70  2  0
 73 74  1  0
 74 75  2  0
 76 79  1  0
 76 75  1  0
 77 76  2  0
 78 77  1  0
 78 73  2  0
 79 80  1  0
 80 81  1  0
 81 82  2  0
 83 82  1  0
 83 87  1  0
 84 83  2  0
 85 80  2  0
 85 84  1  0
 86 85  1  0
 88 89  1  0
 89 92  1  0
 89 91  1  0
 90 88  2  0
 93 94  1  0
 93 68  1  0
 95 93  1  0
M  ISO  4  10 101  11 101  58 100  66 100
M  END
>  <TORSDO>  (73) 
F 21

>  <SCORE>  (73) 
-13.942

>  <name>  (73) 
72

>  <ligand_id>  (73) 
72

>  <original_smiles>  (73) 
[H]c1c([H])c([H])c2c(c1[H])C([H])([H])C([H])([H])C([H])([H])C2([H])N([H])C(=O)C1([H])N(C(=O)C([H])(N([H])C(=O)C([H])(N([H])C([H])([H])[H])C([H])([H])[H])C(C([H])([H])[H])(C([H])([H])[H])C([H])([H])[H])C([H])([H])c2c([H])c(OC(C([H])([H])[H])(C([H])([H])[H])C([H])([H])C3([H])C([H])([H])C([H])([H])C([H])(C([H])(C([H])([H])N([H])C(=O)N4C([H])([H])C([H])([H])C([H])([H])C([H])(n5nc(-c6c([H])c([H])c(Oc7c([H])c([H])c(F)c([H])c7F)c([H])c6[H])c(C(=O)N([H])[H])c5N([H])[H])C4([H])[H])[N+]([H])([H])[H])C([H])([H])C3([H])[H])c([H])c([H])c2C1([H])[H]

>  <smiles>  (73) 
[H]c1c([H])c([H])c2c(c1[H])C([H])([H])C([H])([H])C([H])([H])C2([H])N([H])C(=O)C1([H])N(C(=O)C([H])(N([H])C(=O)C([H])(N([H])C([H])([H])[H])C([H])([H])[H])C(C([H])([H])[H])(C([H])([H])[H])C([H])([H])[H])C([H])([H])c2c([H])c(OC(C([H])([H])[H])(C([H])([H])[H])C([H])([H])C3([H])C([H])([H])C([H])([H])C([H])(C([H])(C([H])([H])N([H])C(=O)N4C([H])([H])C([H])([H])C([H])([H])C([H])(n5nc(-c6c([H])c([H])c(Oc7c([H])c([H])c(F)c([H])c7F)c([H])c6[H])c(C(=O)N([H])[H])c5N([H])[H])C4([H])[H])[N+]([H])([H])[H])C([H])([H])C3([H])[H])c([H])c([H])c2C1([H])[H]

> <Step>
111.0

> <Scaffold>
O=C(NC1CCCc2ccccc21)C1Cc2ccc(OCCC3CCC(CCNC(=O)N4CCCC(n5ccc(-c6ccc(Oc7ccccc7)cc6)n5)C4)CC3)cc2CN1

> <SMILES>
CNC(C)C(=O)NC(C(=O)N1Cc2cc(OC(C)(C)CC3CCC(C(N)CNC(=O)N4CCCC(n5nc(-c6ccc(Oc7ccc(F)cc7F)cc6)c(C(N)=O)c5N)C4)CC3)ccc2CC1C(=O)NC1CCCc2ccccc21)C(C)(C)C

> <Tanimoto ROCS sim>
0.1906743347644806

> <Custom alerts>
1.0

> <Linker Num Aromatic Rings>
1.0

> <Linker Effective Length>
1.0

> <ADV>
0.9940651059150696

> <PostDock Tanimoto ROCS sim>
0.9919940829277039

> <raw_Linker Num Aromatic Rings>
0.0

> <raw_Linker Effective Length>
8.0

> <raw_ADV>
-13.895999908447266

> <total_score>
0.9965147972106934

> <ID>
default_job_72

> <PostDock Tanimoto ROCS sim (re-score)>
0.9825614

> <raw_ADV (re-score)>
-13.942

> <Final Intermolecular Energy>
-30.242

> <Final Total Internal Energy>
-3.132

> <Torsional Free Energy>
16.301

> <Unbound System's Energy>
-3.132

$$$$
default_job_73
     RDKit          3D

 92102  0  0  1  0  0  0  0  0999 V2000
  -29.6540  -19.6740   18.2190 C   0  0  0  0  0  3  0  0  0  0  0  0
  -29.5060  -19.4510   19.5990 C   0  0  0  0  0  0  0  0  0  0  0  0
  -29.4530  -20.9620   17.7230 C   0  0  0  0  0  0  0  0  0  0  0  0
  -28.9520  -21.7790   19.8240 C   0  0  0  0  0  0  0  0  0  0  0  0
  -29.4600  -24.0990   20.6940 C   0  0  0  0  0  2  0  0  0  0  0  0
  -27.5760  -23.9010   19.9670 C   0  0  0  0  0  2  0  0  0  0  0  0
  -28.2290  -25.0530   20.7790 C   0  0  0  0  0  3  0  0  0  0  0  0
  -29.6390  -21.2900   16.2560 C   0  0  0  0  0  1  0  0  0  0  0  0
  -29.1530  -20.5420   20.3810 N   0  0  0  0  0  0  0  0  0  0  0  0
  -29.1110  -21.9790   18.5230 N   0  0  0  0  0  0  0  0  0  0  0  0
  -28.5300  -22.9500   20.6000 N   0  0  0  0  0  0  0  0  0  0  0  0
  -30.6310  -14.6690   20.3620 C   0  0  0  0  0  0  0  0  0  0  0  0
  -30.3510  -12.4180   19.3440 C   0  0  0  0  0  2  0  0  0  0  0  0
  -29.4130  -12.5120   18.1230 C   0  0  0  0  0  2  0  0  0  0  0  0
  -27.9440  -12.3590   18.5620 C   0  0  0  0  0  2  0  0  0  0  0  0
  -27.5850  -13.2520   19.7800 C   0  0  0  0  0  3  0  0  0  0  0  0
  -28.6500  -13.1740   20.8950 C   0  0  0  0  0  2  0  0  0  0  0  0
  -29.9410  -13.4870   20.2770 N   0  0  0  0  0  0  0  0  0  0  0  0
  -31.8440  -14.6760   20.1380 O   0  0  0  0  0  0  0  0  0  0  0  0
  -29.1060  -16.8360   20.7970 C   0  0  0  0  0  2  0  0  0  0  0  0
  -30.4410  -16.9150   19.1870 C   0  0  0  0  0  2  0  0  0  0  0  0
  -29.9250  -18.0120   20.1610 C   0  0  0  0  0  3  0  0  0  0  0  0
  -29.9400  -15.8330   20.0620 N   0  0  0  0  0  0  0  0  0  0  0  0
  -25.2040  -13.8480   20.5220 C   0  0  0  0  0  0  0  0  0  0  0  0
  -24.1370  -13.0780   20.8910 C   0  0  0  0  0  0  0  0  0  0  0  0
  -24.5960  -11.7240   20.8580 C   0  0  0  0  0  0  0  0  0  0  0  0
  -26.2450  -12.9670   20.2800 N   0  0  0  0  0  0  0  0  0  0  0  0
  -25.8860  -11.6840   20.5480 N   0  0  0  0  0  0  0  0  0  0  0  0
  -23.8650  -10.4640   21.0450 C   0  0  0  0  0  0  0  0  0  0  0  0
  -24.2930   -9.4930   21.9780 C   0  0  0  0  0  3  0  0  0  0  0  0
  -23.5620   -8.2990   22.1530 C   0  0  0  0  0  3  0  0  0  0  0  0
  -22.3890   -8.0660   21.3970 C   0  0  0  0  0  0  0  0  0  0  0  0
  -21.9800   -9.0250   20.4540 C   0  0  0  0  0  3  0  0  0  0  0  0
  -22.7110  -10.2120   20.2760 C   0  0  0  0  0  3  0  0  0  0  0  0
  -21.6300   -6.9240   21.4830 O   0  0  0  0  0  0  0  0  0  0  0  0
  -21.5750   -6.1800   22.6340 C   0  0  0  0  0  0  0  0  0  0  0  0
  -21.1380   -6.7340   23.8580 C   0  0  0  0  0  3  0  0  0  0  0  0
  -21.0300   -5.9170   25.0010 C   0  0  0  0  0  3  0  0  0  0  0  0
  -21.3500   -4.5480   24.9230 C   0  0  0  0  0  0  0  0  0  0  0  0
  -21.7800   -3.9950   23.7030 C   0  0  0  0  0  3  0  0  0  0  0  0
  -21.8890   -4.8080   22.5620 C   0  0  0  0  0  0  0  0  0  0  0  0
  -22.2840   -4.2660   21.3850 F   0  0  0  0  0  0  0  0  0  0  0  0
  -21.2400   -3.7610   26.0180 F   0  0  0  0  0  0  0  0  0  0  0  0
  -22.7420  -13.5580   21.1650 C   0  0  0  0  0  0  0  0  0  0  0  0
  -22.0110  -12.8610   22.0290 N   0  0  0  0  0  0  0  0  0  0  0  0
  -22.3080  -14.5870   20.6480 O   0  0  0  0  0  0  0  0  0  0  0  0
  -22.3770  -12.0300   22.4680 H   0  0  0  0  0  0  0  0  0  0  0  0
  -21.0750  -13.1660   22.2560 H   0  0  0  0  0  0  0  0  0  0  0  0
  -25.3710  -15.2190   20.3450 N   0  0  0  0  0  0  0  0  0  0  0  0
  -24.6070  -15.8760   20.4570 H   0  0  0  0  0  0  0  0  0  0  0  0
  -26.2200  -15.6490   20.0040 H   0  0  0  0  0  0  0  0  0  0  0  0
  -28.3710  -26.4470   20.2700 O   0  0  0  0  0  0  0  0  0  0  0  0
  -24.6350  -31.8810   23.2700 C   0  0  0  0  0  0  0  0  0  0  0  0
  -27.2490  -27.2880   20.2650 C   0  0  0  0  0  0  0  0  0  0  0  0
  -23.4350  -30.4690   21.6390 C   0  0  0  0  0  3  0  0  0  0  0  0
  -24.8890  -28.9040   20.2310 C   0  0  0  0  0  0  0  0  0  0  0  0
  -25.9780  -30.7790   21.4680 C   0  0  0  0  0  2  0  0  0  0  0  0
  -26.0570  -29.3970   20.8280 C   0  0  0  0  0  0  0  0  0  0  0  0
  -27.2430  -28.6040   20.8270 C   0  0  0  0  0  3  0  0  0  0  0  0
  -26.0620  -26.8450   19.6490 C   0  0  0  0  0  3  0  0  0  0  0  0
  -24.8940  -27.6350   19.6330 C   0  0  0  0  0  3  0  0  0  0  0  0
  -23.6530  -29.7820   20.2660 C   0  0  0  0  0  2  0  0  0  0  0  0
  -24.7020  -31.0570   22.1840 N   0  0  0  0  0  0  0  0  0  0  0  0
  -23.5450  -32.1900   23.7710 O   0  0  0  0  0  0  0  0  0  0  0  0
  -22.7660  -29.4600   22.6040 C   0  0  0  0  0  0  0  0  0  0  0  0
  -21.4400  -29.2830   22.4700 N   0  0  0  0  0  0  0  0  0  0  0  0
  -23.4370  -28.8370   23.4290 O   0  0  0  0  0  0  0  0  0  0  0  0
  -20.9570  -29.8350   21.7730 H   0  0  0  0  0  0  0  0  0  0  0  0
  -18.0540  -28.1020   22.9590 C   0  0  0  0  0  0  0  0  0  0  0  0
  -20.6130  -28.3510   23.2380 C   0  0  0  0  0  3  0  0  0  0  0  0
  -20.7110  -26.9190   22.6640 C   0  0  0  0  0  2  0  0  0  0  0  0
  -19.6110  -26.6000   21.6470 C   0  0  0  0  0  2  0  0  0  0  0  0
  -18.2270  -26.7520   22.2850 C   0  0  0  0  0  2  0  0  0  0  0  0
  -19.1750  -28.8600   23.3920 C   0  0  0  0  0  0  0  0  0  0  0  0
  -18.9590  -30.1240   23.9830 C   0  0  0  0  0  3  0  0  0  0  0  0
  -17.6560  -30.6320   24.1450 C   0  0  0  0  0  3  0  0  0  0  0  0
  -16.5500  -29.8710   23.7280 C   0  0  0  0  0  3  0  0  0  0  0  0
  -16.7500  -28.6090   23.1420 C   0  0  0  0  0  3  0  0  0  0  0  0
  -25.9170  -32.5020   23.9080 C   0  0  0  0  0  3  0  0  0  0  0  0
  -25.6130  -33.9020   24.2380 N   0  0  0  0  0  0  0  0  0  0  0  0
  -25.9310  -34.9500   23.4680 C   0  0  0  0  0  0  0  0  0  0  0  0
  -26.5840  -34.8410   22.4270 O   0  0  0  0  0  0  0  0  0  0  0  0
  -25.0310  -34.0590   25.0480 H   0  0  0  0  0  0  0  0  0  0  0  0
  -24.1830  -36.7300   23.1470 C   0  0  0  0  0  1  0  0  0  0  0  0
  -25.4500  -36.3410   23.9250 C   0  0  0  0  0  3  0  0  0  0  0  0
  -27.6010  -37.2460   24.6870 C   0  0  0  0  0  1  0  0  0  0  0  0
  -26.4730  -37.3980   23.7720 N   0  0  0  0  0  0  0  0  0  0  0  0
  -26.0670  -38.3170   23.9180 H   0  0  0  0  0  0  0  0  0  0  0  0
  -26.4190  -31.7300   25.1910 C   0  0  1  0  0  0  0  0  0  0  0  0
  -25.3160  -31.5010   26.2510 C   0  0  0  0  0  1  0  0  0  0  0  0
  -26.9980  -30.3470   24.8090 C   0  0  0  0  0  1  0  0  0  0  0  0
  -27.5700  -32.5190   25.8590 C   0  0  0  0  0  1  0  0  0  0  0  0
  1  2  2  0
  2  9  1  0
  3  1  1  0
  3 10  2  0
  4  9  2  0
  4 11  1  0
  5  7  1  0
  6 11  1  0
  6  7  1  0
  7 52  1  0
  8  3  1  0
 10  4  1  0
 11  5  1  0
 13 18  1  0
 14 15  1  0
 14 13  1  0
 16 15  1  0
 16 27  1  0
 16 17  1  0
 18 12  1  0
 18 17  1  0
 19 12  2  0
 21 23  1  0
 21 22  1  0
 22  2  1  0
 22 20  1  0
 23 12  1  0
 23 20  1  0
 24 25  2  0
 25 44  1  0
 26 25  1  0
 26 29  1  0
 27 24  1  0
 27 28  1  0
 28 26  2  0
 29 30  1  0
 30 31  2  0
 32 35  1  0
 32 31  1  0
 33 32  2  0
 34 33  1  0
 34 29  2  0
 35 36  1  0
 36 37  1  0
 37 38  2  0
 39 38  1  0
 39 43  1  0
 40 39  2  0
 41 36  2  0
 41 40  1  0
 42 41  1  0
 44 45  1  0
 45 48  1  0
 45 47  1  0
 46 44  2  0
 49 50  1  0
 49 24  1  0
 51 49  1  0
 53 64  2  0
 54 52  1  0
 54 59  1  0
 55 63  1  0
 55 65  1  0
 56 62  1  0
 56 58  1  0
 57 63  1  0
 58 57  1  0
 59 58  2  0
 60 54  2  0
 61 60  1  0
 61 56  2  0
 62 55  1  0
 63 53  1  0
 65 67  2  0
 66 65  1  0
 68 66  1  0
 69 78  2  0
 69 74  1  0
 70 66  1  0
 70 74  1  0
 71 70  1  0
 72 73  1  0
 72 71  1  0
 73 69  1  0
 74 75  2  0
 75 76  1  0
 77 76  2  0
 78 77  1  0
 79 53  1  0
 79 80  1  0
 79 89  1  0
 80 83  1  0
 81 85  1  0
 81 80  1  0
 82 81  2  0
 85 84  1  0
 87 88  1  0
 87 85  1  0
 87 86  1  0
 89 92  1  1
 89 90  1  0
 91 89  1  0
M  ISO  4   7 101  12 100  23 100  52 101
M  END
>  <TORSDO>  (74) 
F 16

>  <SCORE>  (74) 
-15.7

>  <name>  (74) 
73

>  <ligand_id>  (74) 
73

>  <original_smiles>  (74) 
[H]c1c(C([H])([H])[H])nc(N2C([H])([H])C([H])(Oc3c([H])c([H])c4c(c3[H])C([H])([H])N(C(=O)C([H])(N([H])C(=O)C([H])(N([H])C([H])([H])[H])C([H])([H])[H])C(C([H])([H])[H])(C([H])([H])[H])C([H])([H])[H])C([H])(C(=O)N([H])C3([H])c5c([H])c([H])c([H])c([H])c5C([H])([H])C([H])([H])C3([H])[H])C4([H])[H])C2([H])[H])nc1C1([H])C([H])([H])N(C(=O)N2C([H])([H])C([H])([H])C([H])([H])C([H])(n3nc(-c4c([H])c([H])c(Oc5c([H])c([H])c(F)c([H])c5F)c([H])c4[H])c(C(=O)N([H])[H])c3N([H])[H])C2([H])[H])C1([H])[H]

>  <smiles>  (74) 
[H]c1c(C([H])([H])[H])nc(N2C([H])([H])C([H])(Oc3c([H])c([H])c4c(c3[H])C([H])([H])N(C(=O)C([H])(N([H])C(=O)C([H])(N([H])C([H])([H])[H])C([H])([H])[H])C(C([H])([H])[H])(C([H])([H])[H])C([H])([H])[H])C([H])(C(=O)N([H])C3([H])c5c([H])c([H])c([H])c([H])c5C([H])([H])C([H])([H])C3([H])[H])C4([H])[H])C2([H])[H])nc1C1([H])C([H])([H])N(C(=O)N2C([H])([H])C([H])([H])C([H])([H])C([H])(n3nc(-c4c([H])c([H])c(Oc5c([H])c([H])c(F)c([H])c5F)c([H])c4[H])c(C(=O)N([H])[H])c3N([H])[H])C2([H])[H])C1([H])[H]

> <Step>
190.0

> <Scaffold>
O=C(NC1CCCc2ccccc21)C1Cc2ccc(OC3CN(c4nccc(C5CN(C(=O)N6CCCC(n7ccc(-c8ccc(Oc9ccccc9)cc8)n7)C6)C5)n4)C3)cc2CN1

> <SMILES>
CNC(C)C(=O)NC(C(=O)N1Cc2cc(OC3CN(c4nc(C)cc(C5CN(C(=O)N6CCCC(n7nc(-c8ccc(Oc9ccc(F)cc9F)cc8)c(C(N)=O)c7N)C6)C5)n4)C3)ccc2CC1C(=O)NC1CCCc2ccccc21)C(C)(C)C

> <Tanimoto ROCS sim>
0.22177068889141083

> <Custom alerts>
1.0

> <Linker Num Aromatic Rings>
1.0

> <Linker Effective Length>
1.0

> <ADV>
0.997936487197876

> <PostDock Tanimoto ROCS sim>
0.9881218075752258

> <raw_Linker Num Aromatic Rings>
1.0

> <raw_Linker Effective Length>
8.0

> <raw_ADV>
-15.73799991607666

> <total_score>
0.9965145587921143

> <ID>
default_job_73

> <PostDock Tanimoto ROCS sim (re-score)>
0.97840315

> <raw_ADV (re-score)>
-15.7

> <Final Intermolecular Energy>
-29.927

> <Final Total Internal Energy>
-2.576

> <Torsional Free Energy>
14.227

> <Unbound System's Energy>
-2.576

$$$$
default_job_74
     RDKit          3D

 96106  0  0  1  0  0  0  0  0999 V2000
  -29.5860  -23.2360   20.4810 C   0  0  0  0  0  0  0  0  0  0  0  0
  -28.9750  -21.9420   20.2680 C   0  0  0  0  0  0  0  0  0  0  0  0
  -28.5580  -24.1250   20.7650 C   0  0  0  0  0  0  0  0  0  0  0  0
  -26.0280  -23.7230   20.9730 C   0  0  0  0  0  1  0  0  0  0  0  0
  -27.6630  -22.0430   20.4340 N   0  0  0  0  0  0  0  0  0  0  0  0
  -27.4090  -23.3460   20.7260 N   0  0  0  0  0  0  0  0  0  0  0  0
  -31.5690  -24.7820   19.7250 C   0  0  0  0  0  2  0  0  0  0  0  0
  -31.8440  -23.4150   19.1450 C   0  0  0  0  0  2  0  0  0  0  0  0
  -31.0600  -23.5460   20.4300 C   0  0  0  0  0  3  0  0  0  0  0  0
  -29.5610  -20.5850   19.7940 C   0  0  0  0  0  2  0  0  0  0  0  0
  -31.3170  -17.7040   21.2620 C   0  0  0  0  0  2  0  0  0  0  0  0
  -31.0030  -19.2230   21.3850 C   0  0  0  0  0  2  0  0  0  0  0  0
  -29.1610  -18.1100   20.3760 C   0  0  0  0  0  2  0  0  0  0  0  0
  -29.9280  -17.0640   21.2410 C   0  0  0  0  0  3  0  0  0  0  0  0
  -29.6510  -19.4650   20.8040 N   0  0  2  0  0  4  0  0  0  0  0  0
  -29.0510  -19.7580   21.5600 H   0  0  0  0  0  0  0  0  0  0  0  0
  -30.5710  -14.6000   20.4710 C   0  0  0  0  0  0  0  0  0  0  0  0
  -30.3590  -12.3980   19.3340 C   0  0  0  0  0  2  0  0  0  0  0  0
  -29.4040  -12.5520   18.1290 C   0  0  0  0  0  2  0  0  0  0  0  0
  -27.9300  -12.4020   18.5560 C   0  0  0  0  0  2  0  0  0  0  0  0
  -27.5830  -13.2380   19.8160 C   0  0  0  0  0  3  0  0  0  0  0  0
  -28.6440  -13.0350   20.9220 C   0  0  0  0  0  2  0  0  0  0  0  0
  -29.9540  -13.3870   20.3490 N   0  0  0  0  0  0  0  0  0  0  0  0
  -31.7220  -14.7960   20.0690 O   0  0  0  0  0  0  0  0  0  0  0  0
  -29.7620  -15.6050   20.9140 N   0  0  0  0  0  0  0  0  0  0  0  0
  -28.8430  -15.2540   21.1390 H   0  0  0  0  0  0  0  0  0  0  0  0
  -25.1850  -13.8410   20.5180 C   0  0  0  0  0  0  0  0  0  0  0  0
  -24.1190  -13.0670   20.8900 C   0  0  0  0  0  0  0  0  0  0  0  0
  -24.5850  -11.7180   20.8710 C   0  0  0  0  0  0  0  0  0  0  0  0
  -26.2330  -12.9610   20.2970 N   0  0  0  0  0  0  0  0  0  0  0  0
  -25.8760  -11.6790   20.5660 N   0  0  0  0  0  0  0  0  0  0  0  0
  -23.8620  -10.4540   21.0640 C   0  0  0  0  0  0  0  0  0  0  0  0
  -24.3060   -9.4830   21.9880 C   0  0  0  0  0  3  0  0  0  0  0  0
  -23.5830   -8.2850   22.1710 C   0  0  0  0  0  3  0  0  0  0  0  0
  -22.4010   -8.0500   21.4290 C   0  0  0  0  0  0  0  0  0  0  0  0
  -21.9760   -9.0100   20.4930 C   0  0  0  0  0  3  0  0  0  0  0  0
  -22.7000  -10.1980   20.3080 C   0  0  0  0  0  3  0  0  0  0  0  0
  -21.6460   -6.9060   21.5240 O   0  0  0  0  0  0  0  0  0  0  0  0
  -21.6270   -6.1480   22.6670 C   0  0  0  0  0  0  0  0  0  0  0  0
  -21.2480   -6.6900   23.9140 C   0  0  0  0  0  3  0  0  0  0  0  0
  -21.1750   -5.8580   25.0500 C   0  0  0  0  0  3  0  0  0  0  0  0
  -21.4740   -4.4870   24.9390 C   0  0  0  0  0  0  0  0  0  0  0  0
  -21.8480   -3.9450   23.6970 C   0  0  0  0  0  3  0  0  0  0  0  0
  -21.9210   -4.7730   22.5630 C   0  0  0  0  0  0  0  0  0  0  0  0
  -22.2620   -4.2410   21.3650 F   0  0  0  0  0  0  0  0  0  0  0  0
  -21.3980   -3.6860   26.0290 F   0  0  0  0  0  0  0  0  0  0  0  0
  -22.7200  -13.5410   21.1570 C   0  0  0  0  0  0  0  0  0  0  0  0
  -21.9940  -12.8490   22.0270 N   0  0  0  0  0  0  0  0  0  0  0  0
  -22.2800  -14.5610   20.6280 O   0  0  0  0  0  0  0  0  0  0  0  0
  -22.3640  -12.0230   22.4750 H   0  0  0  0  0  0  0  0  0  0  0  0
  -21.0540  -13.1480   22.2490 H   0  0  0  0  0  0  0  0  0  0  0  0
  -25.3460  -15.2110   20.3300 N   0  0  0  0  0  0  0  0  0  0  0  0
  -24.5750  -15.8630   20.4270 H   0  0  0  0  0  0  0  0  0  0  0  0
  -26.1760  -15.6400   19.9460 H   0  0  0  0  0  0  0  0  0  0  0  0
  -28.5580  -25.6070   21.2150 C   0  0  0  0  0  2  0  0  0  0  0  0
  -28.3920  -26.5730   20.1370 O   0  0  0  0  0  0  0  0  0  0  0  0
  -24.6200  -31.8860   23.2360 C   0  0  0  0  0  0  0  0  0  0  0  0
  -27.2610  -27.3790   20.1840 C   0  0  0  0  0  0  0  0  0  0  0  0
  -23.4190  -30.4760   21.6010 C   0  0  0  0  0  3  0  0  0  0  0  0
  -24.8780  -28.9310   20.1800 C   0  0  0  0  0  0  0  0  0  0  0  0
  -25.9520  -30.8150   21.4180 C   0  0  0  0  0  2  0  0  0  0  0  0
  -26.0380  -29.4380   20.7820 C   0  0  0  0  0  0  0  0  0  0  0  0
  -27.2350  -28.6690   20.7830 C   0  0  0  0  0  3  0  0  0  0  0  0
  -26.0900  -26.9100   19.5590 C   0  0  0  0  0  3  0  0  0  0  0  0
  -24.9020  -27.6670   19.5650 C   0  0  0  0  0  3  0  0  0  0  0  0
  -23.6340  -29.7940   20.2250 C   0  0  0  0  0  2  0  0  0  0  0  0
  -24.6820  -31.0740   22.1440 N   0  0  0  0  0  0  0  0  0  0  0  0
  -23.5310  -32.1860   23.7480 O   0  0  0  0  0  0  0  0  0  0  0  0
  -22.7610  -29.4590   22.5630 C   0  0  0  0  0  0  0  0  0  0  0  0
  -21.4350  -29.2800   22.4370 N   0  0  0  0  0  0  0  0  0  0  0  0
  -23.4420  -28.8320   23.3780 O   0  0  0  0  0  0  0  0  0  0  0  0
  -20.9440  -29.8390   21.7520 H   0  0  0  0  0  0  0  0  0  0  0  0
  -18.0610  -28.0790   22.9300 C   0  0  0  0  0  0  0  0  0  0  0  0
  -20.6170  -28.3410   23.2060 C   0  0  0  0  0  3  0  0  0  0  0  0
  -20.7230  -26.9100   22.6280 C   0  0  0  0  0  2  0  0  0  0  0  0
  -19.6230  -26.5870   21.6110 C   0  0  0  0  0  2  0  0  0  0  0  0
  -18.2400  -26.7310   22.2530 C   0  0  0  0  0  2  0  0  0  0  0  0
  -19.1780  -28.8420   23.3630 C   0  0  0  0  0  0  0  0  0  0  0  0
  -18.9550  -30.1040   23.9540 C   0  0  0  0  0  3  0  0  0  0  0  0
  -17.6490  -30.6040   24.1190 C   0  0  0  0  0  3  0  0  0  0  0  0
  -16.5480  -29.8370   23.7030 C   0  0  0  0  0  3  0  0  0  0  0  0
  -16.7540  -28.5770   23.1130 C   0  0  0  0  0  3  0  0  0  0  0  0
  -25.9030  -32.5100   23.8710 C   0  0  0  0  0  3  0  0  0  0  0  0
  -26.4150  -31.7350   25.1470 C   0  0  1  0  0  0  0  0  0  0  0  0
  -25.3190  -31.4990   26.2110 C   0  0  0  0  0  1  0  0  0  0  0  0
  -26.9950  -30.3550   24.7550 C   0  0  0  0  0  1  0  0  0  0  0  0
  -27.5680  -32.5230   25.8100 C   0  0  0  0  0  1  0  0  0  0  0  0
  -25.5990  -33.9080   24.2030 N   0  0  0  0  0  0  0  0  0  0  0  0
  -25.9240  -34.9590   23.4400 C   0  0  0  0  0  0  0  0  0  0  0  0
  -26.5860  -34.8540   22.4030 O   0  0  0  0  0  0  0  0  0  0  0  0
  -25.0180  -34.0660   25.0130 H   0  0  0  0  0  0  0  0  0  0  0  0
  -24.1860  -36.7430   23.1010 C   0  0  0  0  0  1  0  0  0  0  0  0
  -25.4380  -36.3470   23.8990 C   0  0  0  0  0  3  0  0  0  0  0  0
  -27.5840  -37.2380   24.6960 C   0  0  0  0  0  1  0  0  0  0  0  0
  -26.4660  -37.4030   23.7690 N   0  0  0  0  0  0  0  0  0  0  0  0
  -26.0590  -38.3210   23.9240 H   0  0  0  0  0  0  0  0  0  0  0  0
  1  3  2  0
  2  5  2  0
  2  1  1  0
  3 55  1  0
  5  6  1  0
  6  3  1  0
  6  4  1  0
  7  9  1  0
  8  7  1  0
  8  9  1  0
  9  1  1  0
 10  2  1  0
 10 15  1  0
 11 12  1  0
 13 15  1  0
 13 14  1  0
 14 25  1  0
 14 11  1  0
 15 12  1  0
 15 16  1  1
 17 25  1  0
 18 23  1  0
 19 20  1  0
 19 18  1  0
 21 20  1  0
 21 30  1  0
 21 22  1  0
 23 17  1  0
 23 22  1  0
 24 17  2  0
 25 26  1  0
 27 28  2  0
 28 47  1  0
 29 28  1  0
 29 32  1  0
 30 27  1  0
 30 31  1  0
 31 29  2  0
 32 33  1  0
 33 34  2  0
 35 38  1  0
 35 34  1  0
 36 35  2  0
 37 36  1  0
 37 32  2  0
 38 39  1  0
 39 40  1  0
 40 41  2  0
 42 41  1  0
 42 46  1  0
 43 42  2  0
 44 39  2  0
 44 43  1  0
 45 44  1  0
 47 48  1  0
 48 51  1  0
 48 50  1  0
 49 47  2  0
 52 53  1  0
 52 27  1  0
 54 52  1  0
 56 58  1  0
 56 55  1  0
 57 68  2  0
 58 63  1  0
 59 67  1  0
 59 69  1  0
 60 66  1  0
 60 62  1  0
 61 67  1  0
 62 63  2  0
 62 61  1  0
 64 65  1  0
 64 58  2  0
 65 60  2  0
 66 59  1  0
 67 57  1  0
 69 71  2  0
 70 69  1  0
 72 70  1  0
 73 82  2  0
 73 78  1  0
 74 70  1  0
 74 78  1  0
 75 74  1  0
 76 77  1  0
 76 75  1  0
 77 73  1  0
 78 79  2  0
 79 80  1  0
 81 80  2  0
 82 81  1  0
 83 57  1  0
 83 88  1  0
 83 84  1  0
 84 87  1  1
 84 85  1  0
 86 84  1  0
 88 91  1  0
 89 93  1  0
 89 88  1  0
 90 89  2  0
 93 92  1  0
 95 93  1  0
 95 96  1  0
 95 94  1  0
M  ISO  4  17 100  25 100  55 101  56 101
M  END
>  <TORSDO>  (75) 
F 20

>  <SCORE>  (75) 
-14.422

>  <name>  (75) 
74

>  <ligand_id>  (75) 
74

>  <original_smiles>  (75) 
[H]c1c([H])c([H])c2c(c1[H])C([H])([H])C([H])([H])C([H])([H])C2([H])N([H])C(=O)C1([H])N(C(=O)C([H])(N([H])C(=O)C([H])(N([H])C([H])([H])[H])C([H])([H])[H])C(C([H])([H])[H])(C([H])([H])[H])C([H])([H])[H])C([H])([H])c2c([H])c(OC([H])([H])c3c(C4([H])C([H])([H])C4([H])[H])c(C([H])([H])[N+]4([H])C([H])([H])C([H])([H])C([H])(N([H])C(=O)N5C([H])([H])C([H])([H])C([H])([H])C([H])(n6nc(-c7c([H])c([H])c(Oc8c([H])c([H])c(F)c([H])c8F)c([H])c7[H])c(C(=O)N([H])[H])c6N([H])[H])C5([H])[H])C4([H])[H])nn3C([H])([H])[H])c([H])c([H])c2C1([H])[H]

>  <smiles>  (75) 
[H]c1c([H])c([H])c2c(c1[H])C([H])([H])C([H])([H])C([H])([H])C2([H])N([H])C(=O)C1([H])N(C(=O)C([H])(N([H])C(=O)C([H])(N([H])C([H])([H])[H])C([H])([H])[H])C(C([H])([H])[H])(C([H])([H])[H])C([H])([H])[H])C([H])([H])c2c([H])c(OC([H])([H])c3c(C4([H])C([H])([H])C4([H])[H])c(C([H])([H])[N+]4([H])C([H])([H])C([H])([H])C([H])(N([H])C(=O)N5C([H])([H])C([H])([H])C([H])([H])C([H])(n6nc(-c7c([H])c([H])c(Oc8c([H])c([H])c(F)c([H])c8F)c([H])c7[H])c(C(=O)N([H])[H])c6N([H])[H])C5([H])[H])C4([H])[H])nn3C([H])([H])[H])c([H])c([H])c2C1([H])[H]

> <Step>
194.0

> <Scaffold>
O=C(NC1CCCc2ccccc21)C1Cc2ccc(OCc3[nH]nc(CN4CCC(NC(=O)N5CCCC(n6ccc(-c7ccc(Oc8ccccc8)cc7)n6)C5)C4)c3C3CC3)cc2CN1

> <SMILES>
CNC(C)C(=O)NC(C(=O)N1Cc2cc(OCc3c(C4CC4)c(CN4CCC(NC(=O)N5CCCC(n6nc(-c7ccc(Oc8ccc(F)cc8F)cc7)c(C(N)=O)c6N)C5)C4)nn3C)ccc2CC1C(=O)NC1CCCc2ccccc21)C(C)(C)C

> <Tanimoto ROCS sim>
0.2775014638900757

> <Custom alerts>
1.0

> <Linker Num Aromatic Rings>
1.0

> <Linker Effective Length>
1.0

> <ADV>
0.9956363439559937

> <PostDock Tanimoto ROCS sim>
0.9903706908226013

> <raw_Linker Num Aromatic Rings>
1.0

> <raw_Linker Effective Length>
8.0

> <raw_ADV>
-14.432999610900879

> <total_score>
0.9965018033981323

> <ID>
default_job_74

> <PostDock Tanimoto ROCS sim (re-score)>
0.984174

> <raw_ADV (re-score)>
-14.422

> <Final Intermolecular Energy>
-30.863

> <Final Total Internal Energy>
-2.792

> <Torsional Free Energy>
16.441

> <Unbound System's Energy>
-2.792

$$$$
default_job_75
     RDKit          3D

 96105  0  0  1  0  0  0  0  0999 V2000
  -31.7220  -20.1560   17.9170 C   0  0  0  0  0  2  0  0  0  0  0  0
  -32.9180  -20.7190   18.6870 C   0  0  0  0  0  2  0  0  0  0  0  0
  -30.4720  -20.8430   18.4910 C   0  0  0  0  0  2  0  0  0  0  0  0
  -32.3500  -21.5590   19.8490 C   0  0  0  0  0  2  0  0  0  0  0  0
  -30.7950  -21.4170   19.9050 C   0  0  1  0  0  0  0  0  0  0  0  0
  -28.5910  -22.8810   20.0680 C   0  0  0  0  0  2  0  0  0  0  0  0
  -30.5640  -23.7300   21.2670 C   0  0  0  0  0  2  0  0  0  0  0  0
  -28.0390  -24.3100   19.8290 C   0  0  0  0  0  2  0  0  0  0  0  0
  -30.1210  -25.2060   21.0550 C   0  0  0  0  0  2  0  0  0  0  0  0
  -30.1350  -22.8530   20.0580 C   0  0  0  0  0  3  0  0  0  0  0  0
  -28.6080  -25.4170   20.7630 C   0  0  0  0  0  3  0  0  0  0  0  0
  -28.4950  -26.7360   20.1770 O   0  0  0  0  0  0  0  0  0  0  0  0
  -24.6300  -31.8860   23.2390 C   0  0  0  0  0  0  0  0  0  0  0  0
  -27.2920  -27.4180   20.2050 C   0  0  0  0  0  0  0  0  0  0  0  0
  -23.4250  -30.4700   21.6050 C   0  0  0  0  0  3  0  0  0  0  0  0
  -24.8850  -28.9170   20.2020 C   0  0  0  0  0  0  0  0  0  0  0  0
  -25.9520  -30.8260   21.4080 C   0  0  0  0  0  2  0  0  0  0  0  0
  -26.0400  -29.4470   20.7860 C   0  0  0  0  0  0  0  0  0  0  0  0
  -27.2430  -28.7080   20.7880 C   0  0  0  0  0  3  0  0  0  0  0  0
  -26.1260  -26.9170   19.5860 C   0  0  0  0  0  3  0  0  0  0  0  0
  -24.9220  -27.6480   19.6000 C   0  0  0  0  0  3  0  0  0  0  0  0
  -23.6380  -29.7710   20.2360 C   0  0  0  0  0  2  0  0  0  0  0  0
  -24.6870  -31.0730   22.1450 N   0  0  0  0  0  0  0  0  0  0  0  0
  -23.5460  -32.1890   23.7550 O   0  0  0  0  0  0  0  0  0  0  0  0
  -22.7710  -29.4580   22.5730 C   0  0  0  0  0  0  0  0  0  0  0  0
  -21.4480  -29.2780   22.4480 N   0  0  0  0  0  0  0  0  0  0  0  0
  -23.4550  -28.8310   23.3880 O   0  0  0  0  0  0  0  0  0  0  0  0
  -20.9540  -29.8380   21.7670 H   0  0  0  0  0  0  0  0  0  0  0  0
  -18.0730  -28.0820   22.9480 C   0  0  0  0  0  0  0  0  0  0  0  0
  -20.6320  -28.3410   23.2210 C   0  0  0  0  0  3  0  0  0  0  0  0
  -20.7330  -26.9090   22.6460 C   0  0  0  0  0  2  0  0  0  0  0  0
  -19.6310  -26.5860   21.6330 C   0  0  0  0  0  2  0  0  0  0  0  0
  -18.2470  -26.7330   22.2710 C   0  0  0  0  0  2  0  0  0  0  0  0
  -19.1930  -28.8450   23.3780 C   0  0  0  0  0  0  0  0  0  0  0  0
  -18.9760  -30.1090   23.9680 C   0  0  0  0  0  3  0  0  0  0  0  0
  -17.6720  -30.6120   24.1360 C   0  0  0  0  0  3  0  0  0  0  0  0
  -16.5670  -29.8510   23.7210 C   0  0  0  0  0  3  0  0  0  0  0  0
  -16.7700  -28.5870   23.1350 C   0  0  0  0  0  3  0  0  0  0  0  0
  -25.9180  -32.5060   23.8670 C   0  0  0  0  0  3  0  0  0  0  0  0
  -25.6160  -33.9030   24.2010 N   0  0  0  0  0  0  0  0  0  0  0  0
  -25.9430  -34.9540   23.4370 C   0  0  0  0  0  0  0  0  0  0  0  0
  -26.6100  -34.8460   22.4040 O   0  0  0  0  0  0  0  0  0  0  0  0
  -25.0350  -34.0630   25.0110 H   0  0  0  0  0  0  0  0  0  0  0  0
  -24.2120  -36.7450   23.0920 C   0  0  0  0  0  1  0  0  0  0  0  0
  -25.4590  -36.3430   23.8940 C   0  0  0  0  0  3  0  0  0  0  0  0
  -27.5990  -37.2300   24.7070 C   0  0  0  0  0  1  0  0  0  0  0  0
  -26.4880  -37.3990   23.7750 N   0  0  0  0  0  0  0  0  0  0  0  0
  -26.0790  -38.3170   23.9340 H   0  0  0  0  0  0  0  0  0  0  0  0
  -26.4380  -31.7320   25.1410 C   0  0  1  0  0  0  0  0  0  0  0  0
  -25.3470  -31.4940   26.2120 C   0  0  0  0  0  1  0  0  0  0  0  0
  -27.0230  -30.3560   24.7450 C   0  0  0  0  0  1  0  0  0  0  0  0
  -27.5950  -32.5250   25.7940 C   0  0  0  0  0  1  0  0  0  0  0  0
  -30.2790  -20.4280   21.0190 C   0  0  0  0  0  2  0  0  0  0  0  0
  -30.9270  -19.0890   21.0360 N   0  0  0  0  0  4  0  0  0  0  0  0
  -31.5040  -19.0590   21.8660 H   0  0  0  0  0  0  0  0  0  0  0  0
  -31.5460  -19.0220   20.2440 H   0  0  0  0  0  0  0  0  0  0  0  0
  -30.0430  -17.8810   21.0520 C   0  0  0  0  0  2  0  0  0  0  0  0
  -30.8170  -16.6610   21.6350 C   0  0  0  0  0  2  0  0  0  0  0  0
  -30.7010  -14.4330   20.5180 C   0  0  0  0  0  0  0  0  0  0  0  0
  -30.3320  -12.3460   19.2570 C   0  0  0  0  0  2  0  0  0  0  0  0
  -29.3820  -12.6150   18.0720 C   0  0  0  0  0  2  0  0  0  0  0  0
  -27.9130  -12.4760   18.5110 C   0  0  0  0  0  2  0  0  0  0  0  0
  -27.6030  -13.2640   19.8110 C   0  0  0  0  0  3  0  0  0  0  0  0
  -28.6620  -12.9800   20.9020 C   0  0  0  0  0  2  0  0  0  0  0  0
  -29.9900  -13.2840   20.3420 N   0  0  0  0  0  0  0  0  0  0  0  0
  -31.7310  -14.6760   19.8870 O   0  0  0  0  0  0  0  0  0  0  0  0
  -30.2160  -15.3290   21.3980 N   0  0  0  0  0  0  0  0  0  0  0  0
  -29.4480  -15.0380   21.9850 H   0  0  0  0  0  0  0  0  0  0  0  0
  -25.2060  -13.8750   20.5210 C   0  0  0  0  0  0  0  0  0  0  0  0
  -24.1380  -13.1010   20.8960 C   0  0  0  0  0  0  0  0  0  0  0  0
  -24.5990  -11.7520   20.8630 C   0  0  0  0  0  0  0  0  0  0  0  0
  -26.2490  -12.9920   20.2890 N   0  0  0  0  0  0  0  0  0  0  0  0
  -25.8860  -11.7100   20.5460 N   0  0  0  0  0  0  0  0  0  0  0  0
  -23.8740  -10.4880   21.0580 C   0  0  0  0  0  0  0  0  0  0  0  0
  -24.3200   -9.5140   21.9780 C   0  0  0  0  0  3  0  0  0  0  0  0
  -23.5960   -8.3170   22.1600 C   0  0  0  0  0  3  0  0  0  0  0  0
  -22.4100   -8.0850   21.4230 C   0  0  0  0  0  0  0  0  0  0  0  0
  -21.9810   -9.0490   20.4940 C   0  0  0  0  0  3  0  0  0  0  0  0
  -22.7060  -10.2390   20.3090 C   0  0  0  0  0  3  0  0  0  0  0  0
  -21.6540   -6.9410   21.5160 O   0  0  0  0  0  0  0  0  0  0  0  0
  -21.6370   -6.1810   22.6590 C   0  0  0  0  0  0  0  0  0  0  0  0
  -21.2560   -6.7190   23.9060 C   0  0  0  0  0  3  0  0  0  0  0  0
  -21.1840   -5.8870   25.0400 C   0  0  0  0  0  3  0  0  0  0  0  0
  -21.4850   -4.5160   24.9290 C   0  0  0  0  0  0  0  0  0  0  0  0
  -21.8610   -3.9770   23.6850 C   0  0  0  0  0  3  0  0  0  0  0  0
  -21.9320   -4.8070   22.5530 C   0  0  0  0  0  0  0  0  0  0  0  0
  -22.2750   -4.2790   21.3540 F   0  0  0  0  0  0  0  0  0  0  0  0
  -21.4080   -3.7140   26.0170 F   0  0  0  0  0  0  0  0  0  0  0  0
  -22.7450  -13.5820   21.1780 C   0  0  0  0  0  0  0  0  0  0  0  0
  -22.0210  -12.8820   22.0480 N   0  0  0  0  0  0  0  0  0  0  0  0
  -22.3030  -14.6080   20.6670 O   0  0  0  0  0  0  0  0  0  0  0  0
  -22.3890  -12.0490   22.4820 H   0  0  0  0  0  0  0  0  0  0  0  0
  -21.0850  -13.1810   22.2790 H   0  0  0  0  0  0  0  0  0  0  0  0
  -25.3700  -15.2440   20.3430 N   0  0  0  0  0  0  0  0  0  0  0  0
  -24.6040  -15.9020   20.4430 H   0  0  0  0  0  0  0  0  0  0  0  0
  -26.2180  -15.6760   19.9980 H   0  0  0  0  0  0  0  0  0  0  0  0
  1  3  1  0
  1  2  1  0
  2  4  1  0
  3  5  1  0
  4  5  1  0
  5 53  1  1
  8  6  1  0
  8 11  1  0
  9  7  1  0
 10  5  1  0
 10  6  1  0
 10  7  1  0
 11 12  1  0
 11  9  1  0
 12 14  1  0
 13 24  2  0
 14 19  1  0
 15 23  1  0
 15 25  1  0
 16 22  1  0
 16 18  1  0
 17 23  1  0
 18 19  2  0
 18 17  1  0
 20 21  1  0
 20 14  2  0
 21 16  2  0
 22 15  1  0
 23 13  1  0
 25 27  2  0
 26 25  1  0
 28 26  1  0
 29 38  2  0
 29 34  1  0
 30 26  1  0
 30 34  1  0
 31 30  1  0
 32 33  1  0
 32 31  1  0
 33 29  1  0
 34 35  2  0
 35 36  1  0
 37 36  2  0
 38 37  1  0
 39 13  1  0
 39 40  1  0
 39 49  1  0
 40 43  1  0
 41 45  1  0
 41 40  1  0
 42 41  2  0
 45 44  1  0
 47 45  1  0
 47 48  1  0
 47 46  1  0
 49 52  1  1
 49 50  1  0
 51 49  1  0
 53 54  1  0
 54 57  1  0
 54 55  1  0
 56 54  1  0
 57 58  1  0
 59 67  1  0
 60 65  1  0
 61 62  1  0
 61 60  1  0
 63 62  1  0
 63 72  1  0
 63 64  1  0
 65 59  1  0
 65 64  1  0
 66 59  2  0
 67 58  1  0
 67 68  1  0
 69 70  2  0
 70 89  1  0
 71 70  1  0
 71 74  1  0
 72 69  1  0
 72 73  1  0
 73 71  2  0
 74 75  1  0
 75 76  2  0
 77 80  1  0
 77 76  1  0
 78 77  2  0
 79 78  1  0
 79 74  2  0
 80 81  1  0
 81 82  1  0
 82 83  2  0
 84 83  1  0
 84 88  1  0
 85 84  2  0
 86 81  2  0
 86 85  1  0
 87 86  1  0
 89 90  1  0
 90 93  1  0
 90 92  1  0
 91 89  2  0
 94 95  1  0
 94 69  1  0
 96 94  1  0
M  ISO  4  11 101  12 101  59 100  67 100
M  END
>  <TORSDO>  (76) 
F 21

>  <SCORE>  (76) 
-13.744

>  <name>  (76) 
75

>  <ligand_id>  (76) 
75

>  <original_smiles>  (76) 
[H]c1c([H])c([H])c2c(c1[H])C([H])([H])C([H])([H])C([H])([H])C2([H])N([H])C(=O)C1([H])N(C(=O)C([H])(N([H])C(=O)C([H])(N([H])C([H])([H])[H])C([H])([H])[H])C(C([H])([H])[H])(C([H])([H])[H])C([H])([H])[H])C([H])([H])c2c([H])c(OC3([H])C([H])([H])C([H])([H])C([H])(C4(C([H])([H])[N+]([H])([H])C([H])([H])C([H])([H])N([H])C(=O)N5C([H])([H])C([H])([H])C([H])([H])C([H])(n6nc(-c7c([H])c([H])c(Oc8c([H])c([H])c(F)c([H])c8F)c([H])c7[H])c(C(=O)N([H])[H])c6N([H])[H])C5([H])[H])C([H])([H])C([H])([H])C([H])([H])C4([H])[H])C([H])([H])C3([H])[H])c([H])c([H])c2C1([H])[H]

>  <smiles>  (76) 
[H]c1c([H])c([H])c2c(c1[H])C([H])([H])C([H])([H])C([H])([H])C2([H])N([H])C(=O)C1([H])N(C(=O)C([H])(N([H])C(=O)C([H])(N([H])C([H])([H])[H])C([H])([H])[H])C(C([H])([H])[H])(C([H])([H])[H])C([H])([H])[H])C([H])([H])c2c([H])c(OC3([H])C([H])([H])C([H])([H])C([H])(C4(C([H])([H])[N+]([H])([H])C([H])([H])C([H])([H])N([H])C(=O)N5C([H])([H])C([H])([H])C([H])([H])C([H])(n6nc(-c7c([H])c([H])c(Oc8c([H])c([H])c(F)c([H])c8F)c([H])c7[H])c(C(=O)N([H])[H])c6N([H])[H])C5([H])[H])C([H])([H])C([H])([H])C([H])([H])C4([H])[H])C([H])([H])C3([H])[H])c([H])c([H])c2C1([H])[H]

> <Step>
133.0

> <Scaffold>
O=C(NC1CCCc2ccccc21)C1Cc2ccc(OC3CCC(C4(CNCCNC(=O)N5CCCC(n6ccc(-c7ccc(Oc8ccccc8)cc7)n6)C5)CCCC4)CC3)cc2CN1

> <SMILES>
CNC(C)C(=O)NC(C(=O)N1Cc2cc(OC3CCC(C4(CNCCNC(=O)N5CCCC(n6nc(-c7ccc(Oc8ccc(F)cc8F)cc7)c(C(N)=O)c6N)C5)CCCC4)CC3)ccc2CC1C(=O)NC1CCCc2ccccc21)C(C)(C)C

> <Tanimoto ROCS sim>
0.2826366126537323

> <Custom alerts>
1.0

> <Linker Num Aromatic Rings>
1.0

> <Linker Effective Length>
1.0

> <ADV>
0.9934924840927124

> <PostDock Tanimoto ROCS sim>
0.9924981594085693

> <raw_Linker Num Aromatic Rings>
0.0

> <raw_Linker Effective Length>
9.0

> <raw_ADV>
-13.734999656677246

> <total_score>
0.9964976906776428

> <ID>
default_job_75

> <PostDock Tanimoto ROCS sim (re-score)>
0.98412955

> <raw_ADV (re-score)>
-13.744

> <Final Intermolecular Energy>
-30.215

> <Final Total Internal Energy>
-2.933

> <Torsional Free Energy>
16.471

> <Unbound System's Energy>
-2.933

$$$$
default_job_76
     RDKit          3D

 94103  0  0  1  0  0  0  0  0999 V2000
  -30.1780  -19.4190   20.6760 C   0  0  0  0  0  3  0  0  0  0  0  0
  -29.1970  -18.5350   18.2400 C   0  0  0  0  0  3  0  0  0  0  0  0
  -29.8820  -20.3770   19.6720 C   0  0  0  0  0  0  0  0  0  0  0  0
  -29.4210  -19.9070   18.4500 C   0  0  0  0  0  0  0  0  0  0  0  0
  -29.9770  -18.0360   20.3820 C   0  0  0  0  0  0  0  0  0  0  0  0
  -29.3500  -21.0000   17.4200 C   0  0  0  0  0  2  0  0  0  0  0  0
  -30.1590  -22.1420   18.0760 C   0  0  0  0  0  2  0  0  0  0  0  0
  -30.1600  -21.8950   19.6130 C   0  0  0  0  0  3  0  0  0  0  0  0
  -29.4660  -17.6190   19.1950 N   0  0  0  0  0  0  0  0  0  0  0  0
  -29.1300  -22.7650   20.2590 N   0  0  0  0  0  4  0  0  0  0  0  0
  -29.0000  -22.4290   21.2000 H   0  0  0  0  0  0  0  0  0  0  0  0
  -28.2650  -22.5970   19.7710 H   0  0  0  0  0  0  0  0  0  0  0  0
  -29.4220  -24.2490   20.3020 C   0  0  0  0  0  2  0  0  0  0  0  0
  -28.1690  -25.1540   20.0750 C   0  0  0  0  0  2  0  0  0  0  0  0
  -28.3570  -26.5970   20.2050 O   0  0  0  0  0  0  0  0  0  0  0  0
  -24.5990  -31.9050   23.2450 C   0  0  0  0  0  0  0  0  0  0  0  0
  -27.2100  -27.3900   20.1720 C   0  0  0  0  0  0  0  0  0  0  0  0
  -23.3880  -30.5050   21.6110 C   0  0  0  0  0  3  0  0  0  0  0  0
  -24.8340  -28.9630   20.1830 C   0  0  0  0  0  0  0  0  0  0  0  0
  -25.9260  -30.8310   21.4220 C   0  0  0  0  0  2  0  0  0  0  0  0
  -26.0020  -29.4590   20.7740 C   0  0  0  0  0  0  0  0  0  0  0  0
  -27.1930  -28.6850   20.7620 C   0  0  0  0  0  3  0  0  0  0  0  0
  -26.0150  -26.9300   19.5670 C   0  0  0  0  0  3  0  0  0  0  0  0
  -24.8390  -27.7000   19.5730 C   0  0  0  0  0  3  0  0  0  0  0  0
  -23.5970  -29.8320   20.2300 C   0  0  0  0  0  2  0  0  0  0  0  0
  -24.6570  -31.0930   22.1520 N   0  0  0  0  0  0  0  0  0  0  0  0
  -23.5120  -32.2080   23.7570 O   0  0  0  0  0  0  0  0  0  0  0  0
  -22.7280  -29.4850   22.5690 C   0  0  0  0  0  0  0  0  0  0  0  0
  -21.4030  -29.3090   22.4400 N   0  0  0  0  0  0  0  0  0  0  0  0
  -23.4070  -28.8560   23.3850 O   0  0  0  0  0  0  0  0  0  0  0  0
  -20.9170  -29.8690   21.7530 H   0  0  0  0  0  0  0  0  0  0  0  0
  -18.0190  -28.1370   22.9430 C   0  0  0  0  0  0  0  0  0  0  0  0
  -20.5800  -28.3740   23.2080 C   0  0  0  0  0  3  0  0  0  0  0  0
  -20.6690  -26.9450   22.6240 C   0  0  0  0  0  2  0  0  0  0  0  0
  -19.5600  -26.6350   21.6120 C   0  0  0  0  0  2  0  0  0  0  0  0
  -18.1820  -26.7900   22.2610 C   0  0  0  0  0  2  0  0  0  0  0  0
  -19.1460  -28.8870   23.3740 C   0  0  0  0  0  0  0  0  0  0  0  0
  -18.9390  -30.1490   23.9730 C   0  0  0  0  0  3  0  0  0  0  0  0
  -17.6390  -30.6610   24.1450 C   0  0  0  0  0  3  0  0  0  0  0  0
  -16.5270  -29.9070   23.7320 C   0  0  0  0  0  3  0  0  0  0  0  0
  -16.7180  -28.6470   23.1370 C   0  0  0  0  0  3  0  0  0  0  0  0
  -25.8860  -32.5220   23.8750 C   0  0  0  0  0  3  0  0  0  0  0  0
  -26.3950  -31.7450   25.1510 C   0  0  1  0  0  0  0  0  0  0  0  0
  -25.2970  -31.5120   26.2150 C   0  0  0  0  0  1  0  0  0  0  0  0
  -26.9720  -30.3650   24.7590 C   0  0  0  0  0  1  0  0  0  0  0  0
  -27.5500  -32.5300   25.8170 C   0  0  0  0  0  1  0  0  0  0  0  0
  -25.5860  -33.9210   24.2080 N   0  0  0  0  0  0  0  0  0  0  0  0
  -25.9140  -34.9710   23.4430 C   0  0  0  0  0  0  0  0  0  0  0  0
  -26.5740  -34.8630   22.4060 O   0  0  0  0  0  0  0  0  0  0  0  0
  -25.0010  -34.0790   25.0140 H   0  0  0  0  0  0  0  0  0  0  0  0
  -24.1830  -36.7620   23.1020 C   0  0  0  0  0  1  0  0  0  0  0  0
  -25.4330  -36.3610   23.9020 C   0  0  0  0  0  3  0  0  0  0  0  0
  -27.5790  -37.2440   24.7050 C   0  0  0  0  0  1  0  0  0  0  0  0
  -26.4660  -37.4120   23.7740 N   0  0  0  0  0  0  0  0  0  0  0  0
  -26.0630  -38.3340   23.9240 H   0  0  0  0  0  0  0  0  0  0  0  0
  -30.3920  -16.9270   21.3730 C   0  0  0  0  0  2  0  0  0  0  0  0
  -30.6480  -14.5430   20.5150 C   0  0  0  0  0  0  0  0  0  0  0  0
  -30.3750  -12.3750   19.3440 C   0  0  0  0  0  2  0  0  0  0  0  0
  -29.4300  -12.5560   18.1380 C   0  0  0  0  0  2  0  0  0  0  0  0
  -27.9570  -12.4070   18.5670 C   0  0  0  0  0  2  0  0  0  0  0  0
  -27.6110  -13.2510   19.8220 C   0  0  0  0  0  3  0  0  0  0  0  0
  -28.6640  -13.0360   20.9320 C   0  0  0  0  0  2  0  0  0  0  0  0
  -29.9830  -13.3600   20.3670 N   0  0  0  0  0  0  0  0  0  0  0  0
  -31.7870  -14.7210   20.0740 O   0  0  0  0  0  0  0  0  0  0  0  0
  -29.9430  -15.5450   21.0780 N   0  0  0  0  0  0  0  0  0  0  0  0
  -28.9900  -15.3340   21.3300 H   0  0  0  0  0  0  0  0  0  0  0  0
  -25.2100  -13.8630   20.5140 C   0  0  0  0  0  0  0  0  0  0  0  0
  -24.1400  -13.0930   20.8810 C   0  0  0  0  0  0  0  0  0  0  0  0
  -24.6000  -11.7410   20.8620 C   0  0  0  0  0  0  0  0  0  0  0  0
  -26.2560  -12.9800   20.2960 N   0  0  0  0  0  0  0  0  0  0  0  0
  -25.8930  -11.6990   20.5640 N   0  0  0  0  0  0  0  0  0  0  0  0
  -23.8720  -10.4800   21.0550 C   0  0  0  0  0  0  0  0  0  0  0  0
  -24.3070   -9.5100   21.9850 C   0  0  0  0  0  3  0  0  0  0  0  0
  -23.5800   -8.3140   22.1650 C   0  0  0  0  0  3  0  0  0  0  0  0
  -22.4030   -8.0800   21.4150 C   0  0  0  0  0  0  0  0  0  0  0  0
  -21.9880   -9.0380   20.4740 C   0  0  0  0  0  3  0  0  0  0  0  0
  -22.7150  -10.2250   20.2920 C   0  0  0  0  0  3  0  0  0  0  0  0
  -21.6480   -6.9350   21.5040 O   0  0  0  0  0  0  0  0  0  0  0  0
  -21.6130   -6.1830   22.6510 C   0  0  0  0  0  0  0  0  0  0  0  0
  -21.2120   -6.7310   23.8880 C   0  0  0  0  0  3  0  0  0  0  0  0
  -21.1240   -5.9060   25.0280 C   0  0  0  0  0  3  0  0  0  0  0  0
  -21.4260   -4.5350   24.9300 C   0  0  0  0  0  0  0  0  0  0  0  0
  -21.8200   -3.9860   23.6970 C   0  0  0  0  0  3  0  0  0  0  0  0
  -21.9100   -4.8090   22.5600 C   0  0  0  0  0  0  0  0  0  0  0  0
  -22.2700   -4.2710   21.3700 F   0  0  0  0  0  0  0  0  0  0  0  0
  -21.3340   -3.7400   26.0230 F   0  0  0  0  0  0  0  0  0  0  0  0
  -22.7400  -13.5730   21.1410 C   0  0  0  0  0  0  0  0  0  0  0  0
  -22.0060  -12.8800   22.0060 N   0  0  0  0  0  0  0  0  0  0  0  0
  -22.3060  -14.5950   20.6130 O   0  0  0  0  0  0  0  0  0  0  0  0
  -22.3700  -12.0530   22.4550 H   0  0  0  0  0  0  0  0  0  0  0  0
  -21.0670  -13.1840   22.2230 H   0  0  0  0  0  0  0  0  0  0  0  0
  -25.3780  -15.2320   20.3280 N   0  0  0  0  0  0  0  0  0  0  0  0
  -24.6100  -15.8880   20.4230 H   0  0  0  0  0  0  0  0  0  0  0  0
  -26.2270  -15.6650   19.9870 H   0  0  0  0  0  0  0  0  0  0  0  0
  2  4  2  0
  2  9  1  0
  3  1  2  0
  4  3  1  0
  5  1  1  0
  5 56  1  0
  6  7  1  0
  6  4  1  0
  7  8  1  0
  8  3  1  0
  8 10  1  0
  9  5  2  0
 10 13  1  0
 10 11  1  0
 12 10  1  0
 14 15  1  0
 14 13  1  0
 16 27  2  0
 17 15  1  0
 17 22  1  0
 18 26  1  0
 18 28  1  0
 19 25  1  0
 19 21  1  0
 20 26  1  0
 21 20  1  0
 22 21  2  0
 23 24  1  0
 23 17  2  0
 24 19  2  0
 25 18  1  0
 26 16  1  0
 28 30  2  0
 29 28  1  0
 31 29  1  0
 32 41  2  0
 32 37  1  0
 33 29  1  0
 33 37  1  0
 34 33  1  0
 35 36  1  0
 35 34  1  0
 36 32  1  0
 37 38  2  0
 38 39  1  0
 40 39  2  0
 41 40  1  0
 42 16  1  0
 42 47  1  0
 42 43  1  0
 43 46  1  1
 43 44  1  0
 45 43  1  0
 47 50  1  0
 48 52  1  0
 48 47  1  0
 49 48  2  0
 52 51  1  0
 54 52  1  0
 54 55  1  0
 54 53  1  0
 57 65  1  0
 58 63  1  0
 59 60  1  0
 59 58  1  0
 61 60  1  0
 61 70  1  0
 61 62  1  0
 63 57  1  0
 63 62  1  0
 64 57  2  0
 65 66  1  0
 65 56  1  0
 67 68  2  0
 68 87  1  0
 69 68  1  0
 69 72  1  0
 70 67  1  0
 70 71  1  0
 71 69  2  0
 72 73  1  0
 73 74  2  0
 75 78  1  0
 75 74  1  0
 76 75  2  0
 77 76  1  0
 77 72  2  0
 78 79  1  0
 79 80  1  0
 80 81  2  0
 82 81  1  0
 82 86  1  0
 83 82  2  0
 84 79  2  0
 84 83  1  0
 85 84  1  0
 87 88  1  0
 88 91  1  0
 88 90  1  0
 89 87  2  0
 92 93  1  0
 92 67  1  0
 94 92  1  0
M  ISO  4  14 101  15 101  57 100  65 100
M  END
>  <TORSDO>  (77) 
F 20

>  <SCORE>  (77) 
-14.05

>  <name>  (77) 
76

>  <ligand_id>  (77) 
76

>  <original_smiles>  (77) 
[H]c1nc(C([H])([H])N([H])C(=O)N2C([H])([H])C([H])([H])C([H])([H])C([H])(n3nc(-c4c([H])c([H])c(Oc5c([H])c([H])c(F)c([H])c5F)c([H])c4[H])c(C(=O)N([H])[H])c3N([H])[H])C2([H])[H])c([H])c2c1C([H])([H])C([H])([H])C2([H])[N+]([H])([H])C([H])([H])C([H])([H])Oc1c([H])c([H])c2c(c1[H])C([H])([H])N(C(=O)C([H])(N([H])C(=O)C([H])(N([H])C([H])([H])[H])C([H])([H])[H])C(C([H])([H])[H])(C([H])([H])[H])C([H])([H])[H])C([H])(C(=O)N([H])C1([H])c3c([H])c([H])c([H])c([H])c3C([H])([H])C([H])([H])C1([H])[H])C2([H])[H]

>  <smiles>  (77) 
[H]c1nc(C([H])([H])N([H])C(=O)N2C([H])([H])C([H])([H])C([H])([H])C([H])(n3nc(-c4c([H])c([H])c(Oc5c([H])c([H])c(F)c([H])c5F)c([H])c4[H])c(C(=O)N([H])[H])c3N([H])[H])C2([H])[H])c([H])c2c1C([H])([H])C([H])([H])C2([H])[N+]([H])([H])C([H])([H])C([H])([H])Oc1c([H])c([H])c2c(c1[H])C([H])([H])N(C(=O)C([H])(N([H])C(=O)C([H])(N([H])C([H])([H])[H])C([H])([H])[H])C(C([H])([H])[H])(C([H])([H])[H])C([H])([H])[H])C([H])(C(=O)N([H])C1([H])c3c([H])c([H])c([H])c([H])c3C([H])([H])C([H])([H])C1([H])[H])C2([H])[H]

> <Step>
192.0

> <Scaffold>
O=C(NC1CCCc2ccccc21)C1Cc2ccc(OCCNC3CCc4cnc(CNC(=O)N5CCCC(n6ccc(-c7ccc(Oc8ccccc8)cc7)n6)C5)cc43)cc2CN1

> <SMILES>
CNC(C)C(=O)NC(C(=O)N1Cc2cc(OCCNC3CCc4cnc(CNC(=O)N5CCCC(n6nc(-c7ccc(Oc8ccc(F)cc8F)cc7)c(C(N)=O)c6N)C5)cc43)ccc2CC1C(=O)NC1CCCc2ccccc21)C(C)(C)C

> <Tanimoto ROCS sim>
0.20913220942020416

> <Custom alerts>
1.0

> <Linker Num Aromatic Rings>
1.0

> <Linker Effective Length>
1.0

> <ADV>
0.9945999383926392

> <PostDock Tanimoto ROCS sim>
0.9913721680641174

> <raw_Linker Num Aromatic Rings>
1.0

> <raw_Linker Effective Length>
8.0

> <raw_ADV>
-14.060999870300293

> <total_score>
0.9964929819107056

> <ID>
default_job_76

> <PostDock Tanimoto ROCS sim (re-score)>
0.984797

> <raw_ADV (re-score)>
-14.05

> <Final Intermolecular Energy>
-30.067

> <Final Total Internal Energy>
-2.91

> <Torsional Free Energy>
16.017

> <Unbound System's Energy>
-2.91

$$$$
default_job_77
     RDKit          3D

 95103  0  0  1  0  0  0  0  0999 V2000
  -29.4200  -22.4390   18.9420 C   0  0  0  0  0  3  0  0  0  0  0  0
  -29.8750  -21.8640   21.0200 C   0  0  0  0  0  3  0  0  0  0  0  0
  -29.5550  -22.9630   20.2570 C   0  0  0  0  0  0  0  0  0  0  0  0
  -29.7610  -21.1050   18.9050 C   0  0  0  0  0  0  0  0  0  0  0  0
  -30.0350  -20.7200   20.2310 N   0  0  0  0  0  0  0  0  0  0  0  0
  -29.8560  -21.1340   16.3900 C   0  0  0  0  0  1  0  0  0  0  0  0
  -28.6360  -19.3160   17.5210 C   0  0  0  0  0  1  0  0  0  0  0  0
  -31.1850  -19.4470   17.5640 C   0  0  0  0  0  1  0  0  0  0  0  0
  -29.8630  -20.2400   17.6520 C   0  0  2  0  0  0  0  0  0  0  0  0
  -30.8390  -25.0910   20.3280 C   0  0  0  0  0  1  0  0  0  0  0  0
  -29.2480  -24.5580   22.1980 C   0  0  0  0  0  1  0  0  0  0  0  0
  -29.4800  -24.4520   20.6780 C   0  0  2  0  0  0  0  0  0  0  0  0
  -28.3420  -25.2510   19.9530 C   0  0  0  0  0  2  0  0  0  0  0  0
  -28.3950  -26.6770   20.2230 O   0  0  0  0  0  0  0  0  0  0  0  0
  -24.5500  -31.8840   23.2370 C   0  0  0  0  0  0  0  0  0  0  0  0
  -27.2260  -27.4230   20.1680 C   0  0  0  0  0  0  0  0  0  0  0  0
  -23.3670  -30.4870   21.5790 C   0  0  0  0  0  3  0  0  0  0  0  0
  -24.8360  -28.9580   20.1580 C   0  0  0  0  0  0  0  0  0  0  0  0
  -25.8990  -30.8340   21.4210 C   0  0  0  0  0  2  0  0  0  0  0  0
  -25.9900  -29.4670   20.7680 C   0  0  0  0  0  0  0  0  0  0  0  0
  -27.1860  -28.7070   20.7670 C   0  0  0  0  0  3  0  0  0  0  0  0
  -26.0540  -26.9440   19.5370 C   0  0  0  0  0  3  0  0  0  0  0  0
  -24.8660  -27.6990   19.5370 C   0  0  0  0  0  3  0  0  0  0  0  0
  -23.5930  -29.8190   20.1970 C   0  0  0  0  0  2  0  0  0  0  0  0
  -24.6240  -31.0790   22.1390 N   0  0  0  0  0  0  0  0  0  0  0  0
  -23.4560  -32.1780   23.7390 O   0  0  0  0  0  0  0  0  0  0  0  0
  -22.7010  -29.4600   22.5240 C   0  0  0  0  0  0  0  0  0  0  0  0
  -21.3740  -29.2900   22.3890 N   0  0  0  0  0  0  0  0  0  0  0  0
  -23.3740  -28.8180   23.3340 O   0  0  0  0  0  0  0  0  0  0  0  0
  -20.8920  -29.8620   21.7090 H   0  0  0  0  0  0  0  0  0  0  0  0
  -17.9820  -28.1460   22.8860 C   0  0  0  0  0  0  0  0  0  0  0  0
  -20.5460  -28.3490   23.1430 C   0  0  0  0  0  3  0  0  0  0  0  0
  -20.6160  -26.9300   22.5310 C   0  0  0  0  0  2  0  0  0  0  0  0
  -19.4990  -26.6540   21.5180 C   0  0  0  0  0  2  0  0  0  0  0  0
  -18.1270  -26.8100   22.1770 C   0  0  0  0  0  2  0  0  0  0  0  0
  -19.1180  -28.8750   23.3270 C   0  0  0  0  0  0  0  0  0  0  0  0
  -18.9280  -30.1270   23.9510 C   0  0  0  0  0  3  0  0  0  0  0  0
  -17.6360  -30.6510   24.1360 C   0  0  0  0  0  3  0  0  0  0  0  0
  -16.5130  -29.9190   23.7110 C   0  0  0  0  0  3  0  0  0  0  0  0
  -16.6880  -28.6670   23.0930 C   0  0  0  0  0  3  0  0  0  0  0  0
  -25.8270  -32.5020   23.8890 C   0  0  0  0  0  3  0  0  0  0  0  0
  -25.5230  -33.9020   24.2090 N   0  0  0  0  0  0  0  0  0  0  0  0
  -25.8630  -34.9470   23.4430 C   0  0  0  0  0  0  0  0  0  0  0  0
  -26.5370  -34.8330   22.4160 O   0  0  0  0  0  0  0  0  0  0  0  0
  -24.9240  -34.0640   25.0050 H   0  0  0  0  0  0  0  0  0  0  0  0
  -24.1420  -36.7420   23.0670 C   0  0  0  0  0  1  0  0  0  0  0  0
  -25.3780  -36.3400   23.8880 C   0  0  0  0  0  3  0  0  0  0  0  0
  -27.5070  -37.2290   24.7300 C   0  0  0  0  0  1  0  0  0  0  0  0
  -26.4160  -37.3890   23.7720 N   0  0  0  0  0  0  0  0  0  0  0  0
  -26.0120  -38.3120   23.9020 H   0  0  0  0  0  0  0  0  0  0  0  0
  -26.3120  -31.7300   25.1780 C   0  0  1  0  0  0  0  0  0  0  0  0
  -25.1930  -31.4950   26.2190 C   0  0  0  0  0  1  0  0  0  0  0  0
  -26.9000  -30.3510   24.7980 C   0  0  0  0  0  1  0  0  0  0  0  0
  -27.4500  -32.5210   25.8640 C   0  0  0  0  0  1  0  0  0  0  0  0
  -30.6030  -19.4620   20.7900 C   0  0  0  0  0  2  0  0  0  0  0  0
  -29.8230  -18.1070   20.6870 C   0  0  0  0  0  2  0  0  0  0  0  0
  -30.5810  -16.9350   21.3850 C   0  0  0  0  0  2  0  0  0  0  0  0
  -30.7100  -14.5590   20.5190 C   0  0  0  0  0  0  0  0  0  0  0  0
  -30.4180  -12.4100   19.3340 C   0  0  0  0  0  2  0  0  0  0  0  0
  -29.4670  -12.6080   18.1360 C   0  0  0  0  0  2  0  0  0  0  0  0
  -27.9990  -12.4370   18.5740 C   0  0  0  0  0  2  0  0  0  0  0  0
  -27.6540  -13.2570   19.8480 C   0  0  0  0  0  3  0  0  0  0  0  0
  -28.7200  -13.0530   20.9480 C   0  0  0  0  0  2  0  0  0  0  0  0
  -30.0340  -13.3840   20.3720 N   0  0  0  0  0  0  0  0  0  0  0  0
  -31.8300  -14.7370   20.0340 O   0  0  0  0  0  0  0  0  0  0  0  0
  -30.0500  -15.5740   21.1240 N   0  0  0  0  0  0  0  0  0  0  0  0
  -29.1260  -15.3650   21.4710 H   0  0  0  0  0  0  0  0  0  0  0  0
  -25.2510  -13.8210   20.5810 C   0  0  0  0  0  0  0  0  0  0  0  0
  -24.1960  -13.0290   20.9470 C   0  0  0  0  0  0  0  0  0  0  0  0
  -24.6740  -11.6850   20.8970 C   0  0  0  0  0  0  0  0  0  0  0  0
  -26.3070  -12.9560   20.3310 N   0  0  0  0  0  0  0  0  0  0  0  0
  -25.9640  -11.6650   20.5810 N   0  0  0  0  0  0  0  0  0  0  0  0
  -23.9650  -10.4120   21.0790 C   0  0  0  0  0  0  0  0  0  0  0  0
  -24.4050   -9.4470   22.0110 C   0  0  0  0  0  3  0  0  0  0  0  0
  -23.6930   -8.2390   22.1810 C   0  0  0  0  0  3  0  0  0  0  0  0
  -22.5280   -7.9890   21.4200 C   0  0  0  0  0  0  0  0  0  0  0  0
  -22.1060   -8.9420   20.4760 C   0  0  0  0  0  3  0  0  0  0  0  0
  -22.8180  -10.1410   20.3050 C   0  0  0  0  0  3  0  0  0  0  0  0
  -21.7900   -6.8320   21.4970 O   0  0  0  0  0  0  0  0  0  0  0  0
  -21.7380   -6.0880   22.6470 C   0  0  0  0  0  0  0  0  0  0  0  0
  -21.2510   -6.6220   23.8610 C   0  0  0  0  0  3  0  0  0  0  0  0
  -21.1490   -5.8020   25.0020 C   0  0  0  0  0  3  0  0  0  0  0  0
  -21.5260   -4.4470   24.9320 C   0  0  0  0  0  0  0  0  0  0  0  0
  -22.0060   -3.9100   23.7240 C   0  0  0  0  0  3  0  0  0  0  0  0
  -22.1080   -4.7280   22.5840 C   0  0  0  0  0  0  0  0  0  0  0  0
  -22.5510   -4.2010   21.4180 F   0  0  0  0  0  0  0  0  0  0  0  0
  -21.4200   -3.6580   26.0260 F   0  0  0  0  0  0  0  0  0  0  0  0
  -22.7960  -13.4870   21.2360 C   0  0  0  0  0  0  0  0  0  0  0  0
  -22.0810  -12.7690   22.0950 N   0  0  0  0  0  0  0  0  0  0  0  0
  -22.3420  -14.5140   20.7340 O   0  0  0  0  0  0  0  0  0  0  0  0
  -22.4640  -11.9410   22.5270 H   0  0  0  0  0  0  0  0  0  0  0  0
  -21.1400  -13.0530   22.3300 H   0  0  0  0  0  0  0  0  0  0  0  0
  -25.3910  -15.1960   20.4190 N   0  0  0  0  0  0  0  0  0  0  0  0
  -24.6030  -15.8250   20.5410 H   0  0  0  0  0  0  0  0  0  0  0  0
  -26.2210  -15.6640   20.0760 H   0  0  0  0  0  0  0  0  0  0  0  0
  1  3  1  0
  3 12  1  0
  3  2  2  0
  4  1  2  0
  4  5  1  0
  5 55  1  0
  5  2  1  0
  9  6  1  6
  7  9  1  0
  8  9  1  0
  9  4  1  0
 12 10  1  1
 12 11  1  0
 13 14  1  0
 13 12  1  0
 15 26  2  0
 16 14  1  0
 16 21  1  0
 17 25  1  0
 17 27  1  0
 18 24  1  0
 18 20  1  0
 19 25  1  0
 20 19  1  0
 21 20  2  0
 22 16  2  0
 23 22  1  0
 23 18  2  0
 24 17  1  0
 25 15  1  0
 27 29  2  0
 28 27  1  0
 30 28  1  0
 31 40  2  0
 31 36  1  0
 32 28  1  0
 32 36  1  0
 33 32  1  0
 34 35  1  0
 34 33  1  0
 35 31  1  0
 36 37  2  0
 37 38  1  0
 39 38  2  0
 40 39  1  0
 41 15  1  0
 41 42  1  0
 41 51  1  0
 42 45  1  0
 43 47  1  0
 43 42  1  0
 44 43  2  0
 47 46  1  0
 49 47  1  0
 49 50  1  0
 49 48  1  0
 51 54  1  1
 51 52  1  0
 53 51  1  0
 56 55  1  0
 56 57  1  0
 58 66  1  0
 59 64  1  0
 60 61  1  0
 60 59  1  0
 62 61  1  0
 62 71  1  0
 62 63  1  0
 64 58  1  0
 64 63  1  0
 65 58  2  0
 66 57  1  0
 66 67  1  0
 68 69  2  0
 69 88  1  0
 70 69  1  0
 70 73  1  0
 71 72  1  0
 71 68  1  0
 72 70  2  0
 73 74  1  0
 74 75  2  0
 76 79  1  0
 76 75  1  0
 77 76  2  0
 78 77  1  0
 78 73  2  0
 79 80  1  0
 80 81  1  0
 81 82  2  0
 83 82  1  0
 83 87  1  0
 84 83  2  0
 85 80  2  0
 85 84  1  0
 86 85  1  0
 88 89  1  0
 89 92  1  0
 89 91  1  0
 90 88  2  0
 93 94  1  0
 93 68  1  0
 95 93  1  0
M  ISO  4  13 101  14 101  58 100  66 100
M  END
>  <TORSDO>  (78) 
F 22

>  <SCORE>  (78) 
-13.518

>  <name>  (78) 
77

>  <ligand_id>  (78) 
77

>  <original_smiles>  (78) 
[H]c1c([H])c([H])c2c(c1[H])C([H])([H])C([H])([H])C([H])([H])C2([H])N([H])C(=O)C1([H])N(C(=O)C([H])(N([H])C(=O)C([H])(N([H])C([H])([H])[H])C([H])([H])[H])C(C([H])([H])[H])(C([H])([H])[H])C([H])([H])[H])C([H])([H])c2c([H])c(OC([H])([H])C(c3c([H])c(C(C([H])([H])[H])(C([H])([H])[H])C([H])([H])[H])n(C([H])([H])C([H])([H])C([H])([H])N([H])C(=O)N4C([H])([H])C([H])([H])C([H])([H])C([H])(n5nc(-c6c([H])c([H])c(Oc7c([H])c([H])c(F)c([H])c7F)c([H])c6[H])c(C(=O)N([H])[H])c5N([H])[H])C4([H])[H])c3[H])(C([H])([H])[H])C([H])([H])[H])c([H])c([H])c2C1([H])[H]

>  <smiles>  (78) 
[H]c1c([H])c([H])c2c(c1[H])C([H])([H])C([H])([H])C([H])([H])C2([H])N([H])C(=O)C1([H])N(C(=O)C([H])(N([H])C(=O)C([H])(N([H])C([H])([H])[H])C([H])([H])[H])C(C([H])([H])[H])(C([H])([H])[H])C([H])([H])[H])C([H])([H])c2c([H])c(OC([H])([H])C(c3c([H])c(C(C([H])([H])[H])(C([H])([H])[H])C([H])([H])[H])n(C([H])([H])C([H])([H])C([H])([H])N([H])C(=O)N4C([H])([H])C([H])([H])C([H])([H])C([H])(n5nc(-c6c([H])c([H])c(Oc7c([H])c([H])c(F)c([H])c7F)c([H])c6[H])c(C(=O)N([H])[H])c5N([H])[H])C4([H])[H])c3[H])(C([H])([H])[H])C([H])([H])[H])c([H])c([H])c2C1([H])[H]

> <Step>
78.0

> <Scaffold>
O=C(NC1CCCc2ccccc21)C1Cc2ccc(OCCc3ccn(CCCNC(=O)N4CCCC(n5ccc(-c6ccc(Oc7ccccc7)cc6)n5)C4)c3)cc2CN1

> <SMILES>
CNC(C)C(=O)NC(C(=O)N1Cc2cc(OCC(C)(C)c3cc(C(C)(C)C)n(CCCNC(=O)N4CCCC(n5nc(-c6ccc(Oc7ccc(F)cc7F)cc6)c(C(N)=O)c5N)C4)c3)ccc2CC1C(=O)NC1CCCc2ccccc21)C(C)(C)C

> <Tanimoto ROCS sim>
0.2244558036327362

> <Custom alerts>
1.0

> <Linker Num Aromatic Rings>
1.0

> <Linker Effective Length>
1.0

> <ADV>
0.9924541115760803

> <PostDock Tanimoto ROCS sim>
0.9935145378112793

> <raw_Linker Num Aromatic Rings>
1.0

> <raw_Linker Effective Length>
8.0

> <raw_ADV>
-13.47599983215332

> <total_score>
0.9964921474456787

> <ID>
default_job_77

> <PostDock Tanimoto ROCS sim (re-score)>
0.9848266

> <raw_ADV (re-score)>
-13.518

> <Final Intermolecular Energy>
-30.509

> <Final Total Internal Energy>
-3.346

> <Torsional Free Energy>
16.991

> <Unbound System's Energy>
-3.346

$$$$
default_job_78
     RDKit          3D

 93101  0  0  1  0  0  0  0  0999 V2000
  -30.0300  -21.3690   20.8480 C   0  0  0  0  0  2  0  0  0  0  0  0
  -29.1400  -19.1010   20.0160 C   0  0  0  0  0  3  0  0  0  0  0  0
  -30.9920  -17.6660   21.5630 C   0  0  0  0  0  3  0  0  0  0  0  0
  -30.0740  -19.8250   20.7910 C   0  0  0  0  0  0  0  0  0  0  0  0
  -30.0320  -16.9480   20.8130 C   0  0  0  0  0  0  0  0  0  0  0  0
  -31.0120  -19.0850   21.5550 C   0  0  0  0  0  0  0  0  0  0  0  0
  -29.1170  -17.6890   20.0220 C   0  0  0  0  0  0  0  0  0  0  0  0
  -31.9240  -19.7330   22.3190 F   0  0  0  0  0  0  0  0  0  0  0  0
  -27.9370  -16.8920   19.0480 Cl  0  0  0  0  0  0  0  0  0  0  0  0
  -30.6280  -14.5410   20.4290 C   0  0  0  0  0  0  0  0  0  0  0  0
  -30.3590  -12.3750   19.2650 C   0  0  0  0  0  2  0  0  0  0  0  0
  -29.3920  -12.5720   18.0780 C   0  0  0  0  0  2  0  0  0  0  0  0
  -27.9240  -12.4180   18.5280 C   0  0  0  0  0  2  0  0  0  0  0  0
  -27.6000  -13.2400   19.8030 C   0  0  0  0  0  3  0  0  0  0  0  0
  -28.6730  -13.0100   20.8910 C   0  0  0  0  0  2  0  0  0  0  0  0
  -29.9860  -13.3430   20.3080 N   0  0  0  0  0  0  0  0  0  0  0  0
  -31.7580  -14.7440   19.9780 O   0  0  0  0  0  0  0  0  0  0  0  0
  -29.8710  -15.5280   20.9510 N   0  0  0  0  0  0  0  0  0  0  0  0
  -28.9380  -15.2260   21.1890 H   0  0  0  0  0  0  0  0  0  0  0  0
  -25.2110  -13.8560   20.5390 C   0  0  0  0  0  0  0  0  0  0  0  0
  -24.1450  -13.0850   20.9180 C   0  0  0  0  0  0  0  0  0  0  0  0
  -24.6040  -11.7340   20.8780 C   0  0  0  0  0  0  0  0  0  0  0  0
  -26.2520  -12.9730   20.2940 N   0  0  0  0  0  0  0  0  0  0  0  0
  -25.8900  -11.6910   20.5550 N   0  0  0  0  0  0  0  0  0  0  0  0
  -23.8780  -10.4730   21.0710 C   0  0  0  0  0  0  0  0  0  0  0  0
  -24.3280   -9.4980   21.9890 C   0  0  0  0  0  3  0  0  0  0  0  0
  -23.6040   -8.3000   22.1710 C   0  0  0  0  0  3  0  0  0  0  0  0
  -22.4180   -8.0690   21.4330 C   0  0  0  0  0  0  0  0  0  0  0  0
  -21.9880   -9.0330   20.5050 C   0  0  0  0  0  3  0  0  0  0  0  0
  -22.7120  -10.2220   20.3210 C   0  0  0  0  0  3  0  0  0  0  0  0
  -21.6650   -6.9240   21.5250 O   0  0  0  0  0  0  0  0  0  0  0  0
  -21.6440   -6.1660   22.6680 C   0  0  0  0  0  0  0  0  0  0  0  0
  -21.2530   -6.7050   23.9130 C   0  0  0  0  0  3  0  0  0  0  0  0
  -21.1800   -5.8720   25.0480 C   0  0  0  0  0  3  0  0  0  0  0  0
  -21.4890   -4.5030   24.9400 C   0  0  0  0  0  0  0  0  0  0  0  0
  -21.8750   -3.9640   23.7000 C   0  0  0  0  0  3  0  0  0  0  0  0
  -21.9500   -4.7930   22.5670 C   0  0  0  0  0  0  0  0  0  0  0  0
  -22.3010   -4.2640   21.3700 F   0  0  0  0  0  0  0  0  0  0  0  0
  -21.4120   -3.7020   26.0280 F   0  0  0  0  0  0  0  0  0  0  0  0
  -22.7520  -13.5650   21.2050 C   0  0  0  0  0  0  0  0  0  0  0  0
  -22.0300  -12.8670   22.0770 N   0  0  0  0  0  0  0  0  0  0  0  0
  -22.3090  -14.5930   20.6940 O   0  0  0  0  0  0  0  0  0  0  0  0
  -22.4010  -12.0360   22.5130 H   0  0  0  0  0  0  0  0  0  0  0  0
  -21.0960  -13.1700   22.3110 H   0  0  0  0  0  0  0  0  0  0  0  0
  -25.3720  -15.2260   20.3660 N   0  0  0  0  0  0  0  0  0  0  0  0
  -24.5990  -15.8730   20.4700 H   0  0  0  0  0  0  0  0  0  0  0  0
  -26.2000  -15.6630   19.9770 H   0  0  0  0  0  0  0  0  0  0  0  0
  -29.4370  -23.2240   19.3950 C   0  0  0  0  0  0  0  0  0  0  0  0
  -29.0910  -23.6920   17.9950 C   0  0  0  0  0  1  0  0  0  0  0  0
  -29.6460  -21.9670   19.5680 N   0  0  0  0  0  0  0  0  0  0  0  0
  -29.5060  -24.3760   20.4250 C   0  0  0  0  0  2  0  0  0  0  0  0
  -28.2110  -25.2460   20.5170 C   0  0  0  0  0  2  0  0  0  0  0  0
  -28.3810  -26.6530   20.2000 O   0  0  0  0  0  0  0  0  0  0  0  0
  -24.5970  -31.9110   23.2470 C   0  0  0  0  0  0  0  0  0  0  0  0
  -27.2230  -27.4190   20.1850 C   0  0  0  0  0  0  0  0  0  0  0  0
  -23.3870  -30.5000   21.6190 C   0  0  0  0  0  3  0  0  0  0  0  0
  -24.8350  -28.9570   20.1950 C   0  0  0  0  0  0  0  0  0  0  0  0
  -25.9190  -30.8430   21.4220 C   0  0  0  0  0  2  0  0  0  0  0  0
  -25.9990  -29.4700   20.7810 C   0  0  0  0  0  0  0  0  0  0  0  0
  -27.1970  -28.7110   20.7700 C   0  0  0  0  0  3  0  0  0  0  0  0
  -26.0400  -26.9390   19.5770 C   0  0  0  0  0  3  0  0  0  0  0  0
  -24.8520  -27.6930   19.5880 C   0  0  0  0  0  3  0  0  0  0  0  0
  -23.5950  -29.8210   20.2410 C   0  0  0  0  0  2  0  0  0  0  0  0
  -24.6530  -31.0970   22.1560 N   0  0  0  0  0  0  0  0  0  0  0  0
  -23.5120  -32.2090   23.7630 O   0  0  0  0  0  0  0  0  0  0  0  0
  -22.7350  -29.4820   22.5820 C   0  0  0  0  0  0  0  0  0  0  0  0
  -21.4090  -29.2980   22.4550 N   0  0  0  0  0  0  0  0  0  0  0  0
  -23.4160  -28.8590   23.4000 O   0  0  0  0  0  0  0  0  0  0  0  0
  -20.9200  -29.8520   21.7660 H   0  0  0  0  0  0  0  0  0  0  0  0
  -18.0340  -28.1050   22.9560 C   0  0  0  0  0  0  0  0  0  0  0  0
  -20.5920  -28.3620   23.2270 C   0  0  0  0  0  3  0  0  0  0  0  0
  -20.6940  -26.9290   22.6530 C   0  0  0  0  0  2  0  0  0  0  0  0
  -19.5910  -26.6060   21.6400 C   0  0  0  0  0  2  0  0  0  0  0  0
  -18.2100  -26.7540   22.2840 C   0  0  0  0  0  2  0  0  0  0  0  0
  -19.1530  -28.8660   23.3850 C   0  0  0  0  0  0  0  0  0  0  0  0
  -18.9360  -30.1310   23.9730 C   0  0  0  0  0  3  0  0  0  0  0  0
  -17.6310  -30.6350   24.1370 C   0  0  0  0  0  3  0  0  0  0  0  0
  -16.5260  -29.8700   23.7230 C   0  0  0  0  0  3  0  0  0  0  0  0
  -16.7290  -28.6060   23.1400 C   0  0  0  0  0  3  0  0  0  0  0  0
  -25.8850  -32.5320   23.8730 C   0  0  0  0  0  3  0  0  0  0  0  0
  -26.4000  -31.7590   25.1490 C   0  0  1  0  0  0  0  0  0  0  0  0
  -25.3060  -31.5260   26.2160 C   0  0  0  0  0  1  0  0  0  0  0  0
  -26.9790  -30.3800   24.7560 C   0  0  0  0  0  1  0  0  0  0  0  0
  -27.5530  -32.5490   25.8100 C   0  0  0  0  0  1  0  0  0  0  0  0
  -25.5820  -33.9300   24.2030 N   0  0  0  0  0  0  0  0  0  0  0  0
  -25.9120  -34.9790   23.4370 C   0  0  0  0  0  0  0  0  0  0  0  0
  -26.5760  -34.8720   22.4030 O   0  0  0  0  0  0  0  0  0  0  0  0
  -24.9900  -34.0890   25.0050 H   0  0  0  0  0  0  0  0  0  0  0  0
  -24.1830  -36.7710   23.0840 C   0  0  0  0  0  1  0  0  0  0  0  0
  -25.4270  -36.3700   23.8910 C   0  0  0  0  0  3  0  0  0  0  0  0
  -27.5660  -37.2530   24.7100 C   0  0  0  0  0  1  0  0  0  0  0  0
  -26.4600  -37.4210   23.7710 N   0  0  0  0  0  0  0  0  0  0  0  0
  -26.0560  -38.3410   23.9190 H   0  0  0  0  0  0  0  0  0  0  0  0
  2  7  2  0
  2  4  1  0
  4  1  1  0
  4  6  2  0
  5 18  1  0
  5  3  2  0
  6  3  1  0
  6  8  1  0
  7  5  1  0
  9  7  1  0
 10 18  1  0
 11 16  1  0
 12 13  1  0
 12 11  1  0
 14 13  1  0
 14 23  1  0
 14 15  1  0
 16 10  1  0
 16 15  1  0
 17 10  2  0
 18 19  1  0
 20 21  2  0
 21 40  1  0
 22 21  1  0
 22 25  1  0
 23 20  1  0
 23 24  1  0
 24 22  2  0
 25 26  1  0
 26 27  2  0
 28 31  1  0
 28 27  1  0
 29 28  2  0
 30 29  1  0
 30 25  2  0
 31 32  1  0
 32 33  1  0
 33 34  2  0
 35 34  1  0
 35 39  1  0
 36 35  2  0
 37 32  2  0
 37 36  1  0
 38 37  1  0
 40 41  1  0
 41 44  1  0
 41 43  1  0
 42 40  2  0
 45 46  1  0
 45 20  1  0
 47 45  1  0
 48 50  2  0
 48 51  1  0
 49 48  1  0
 50  1  1  0
 51 52  1  0
 53 52  1  0
 54 65  2  0
 55 53  1  0
 55 60  1  0
 56 64  1  0
 56 66  1  0
 57 63  1  0
 57 59  1  0
 58 64  1  0
 59 58  1  0
 60 59  2  0
 61 62  1  0
 61 55  2  0
 62 57  2  0
 63 56  1  0
 64 54  1  0
 66 68  2  0
 67 66  1  0
 69 67  1  0
 70 79  2  0
 70 75  1  0
 71 67  1  0
 71 75  1  0
 72 71  1  0
 73 74  1  0
 73 72  1  0
 74 70  1  0
 75 76  2  0
 76 77  1  0
 78 77  2  0
 79 78  1  0
 80 54  1  0
 80 85  1  0
 80 81  1  0
 81 84  1  1
 81 82  1  0
 83 81  1  0
 85 88  1  0
 86 90  1  0
 86 85  1  0
 87 86  2  0
 90 89  1  0
 92 90  1  0
 92 93  1  0
 92 91  1  0
M  ISO  4  10 100  18 100  52 101  53 101
M  END
>  <TORSDO>  (79) 
F 20

>  <SCORE>  (79) 
-14.448

>  <name>  (79) 
78

>  <ligand_id>  (79) 
78

>  <original_smiles>  (79) 
[H]c1c([H])c([H])c2c(c1[H])C([H])([H])C([H])([H])C([H])([H])C2([H])N([H])C(=O)C1([H])N(C(=O)C([H])(N([H])C(=O)C([H])(N([H])C([H])([H])[H])C([H])([H])[H])C(C([H])([H])[H])(C([H])([H])[H])C([H])([H])[H])C([H])([H])c2c([H])c(OC([H])([H])C([H])([H])C(=NC([H])([H])c3c([H])c(Cl)c(N([H])C(=O)N4C([H])([H])C([H])([H])C([H])([H])C([H])(n5nc(-c6c([H])c([H])c(Oc7c([H])c([H])c(F)c([H])c7F)c([H])c6[H])c(C(=O)N([H])[H])c5N([H])[H])C4([H])[H])c([H])c3F)C([H])([H])[H])c([H])c([H])c2C1([H])[H]

>  <smiles>  (79) 
[H]c1c([H])c([H])c2c(c1[H])C([H])([H])C([H])([H])C([H])([H])C2([H])N([H])C(=O)C1([H])N(C(=O)C([H])(N([H])C(=O)C([H])(N([H])C([H])([H])[H])C([H])([H])[H])C(C([H])([H])[H])(C([H])([H])[H])C([H])([H])[H])C([H])([H])c2c([H])c(OC([H])([H])C([H])([H])C(=NC([H])([H])c3c([H])c(Cl)c(N([H])C(=O)N4C([H])([H])C([H])([H])C([H])([H])C([H])(n5nc(-c6c([H])c([H])c(Oc7c([H])c([H])c(F)c([H])c7F)c([H])c6[H])c(C(=O)N([H])[H])c5N([H])[H])C4([H])[H])c([H])c3F)C([H])([H])[H])c([H])c([H])c2C1([H])[H]

> <Step>
11.0

> <Scaffold>
O=C(NC1CCCc2ccccc21)C1Cc2ccc(OCC=CNCc3ccc(NC(=O)N4CCCC(n5ccc(-c6ccc(Oc7ccccc7)cc6)n5)C4)cc3)cc2CN1

> <SMILES>
CNC(C)C(=O)NC(C(=O)N1Cc2cc(OCC=C(C)NCc3cc(Cl)c(NC(=O)N4CCCC(n5nc(-c6ccc(Oc7ccc(F)cc7F)cc6)c(C(N)=O)c5N)C4)cc3F)ccc2CC1C(=O)NC1CCCc2ccccc21)C(C)(C)C

> <Tanimoto ROCS sim>
0.2443789392709732

> <Custom alerts>
1.0

> <Linker Num Aromatic Rings>
1.0

> <Linker Effective Length>
1.0

> <ADV>
0.9957107305526733

> <PostDock Tanimoto ROCS sim>
0.9902348518371582

> <raw_Linker Num Aromatic Rings>
1.0

> <raw_Linker Effective Length>
9.0

> <raw_ADV>
-14.463000297546387

> <total_score>
0.9964864253997803

> <ID>
default_job_78

> <PostDock Tanimoto ROCS sim (re-score)>
0.98431075

> <raw_ADV (re-score)>
-14.448

> <Final Intermolecular Energy>
-30.919

> <Final Total Internal Energy>
-3.192

> <Torsional Free Energy>
16.471

> <Unbound System's Energy>
-3.192

$$$$
default_job_79
     RDKit          3D

 91 99  0  0  1  0  0  0  0  0999 V2000
  -28.4720  -22.5340   18.5440 C   0  0  0  0  0  3  0  0  0  0  0  0
  -29.0770  -21.7450   20.7400 C   0  0  0  0  0  3  0  0  0  0  0  0
  -28.5740  -22.7960   19.9260 C   0  0  0  0  0  0  0  0  0  0  0  0
  -28.9270  -21.3060   18.0350 C   0  0  0  0  0  0  0  0  0  0  0  0
  -29.4970  -20.5250   20.1460 C   0  0  0  0  0  0  0  0  0  0  0  0
  -28.8400  -21.0020   16.5550 C   0  0  0  0  0  1  0  0  0  0  0  0
  -29.4490  -20.3350   18.8100 N   0  0  0  0  0  0  0  0  0  0  0  0
  -28.1530  -24.1640   20.5020 C   0  0  0  0  0  2  0  0  0  0  0  0
  -28.5680  -25.3920   19.6300 C   0  0  0  0  0  2  0  0  0  0  0  0
  -28.4200  -26.6940   20.2340 O   0  0  0  0  0  0  0  0  0  0  0  0
  -24.5800  -31.8700   23.2430 C   0  0  0  0  0  0  0  0  0  0  0  0
  -27.2240  -27.3930   20.1920 C   0  0  0  0  0  0  0  0  0  0  0  0
  -23.3740  -30.4600   21.6090 C   0  0  0  0  0  3  0  0  0  0  0  0
  -24.8260  -28.9110   20.1920 C   0  0  0  0  0  0  0  0  0  0  0  0
  -25.9030  -30.8080   21.4170 C   0  0  0  0  0  2  0  0  0  0  0  0
  -25.9840  -29.4340   20.7800 C   0  0  0  0  0  0  0  0  0  0  0  0
  -27.1800  -28.6810   20.7760 C   0  0  0  0  0  3  0  0  0  0  0  0
  -26.0440  -26.8830   19.6010 C   0  0  0  0  0  3  0  0  0  0  0  0
  -24.8530  -27.6350   19.6010 C   0  0  0  0  0  3  0  0  0  0  0  0
  -23.5880  -29.7780   20.2310 C   0  0  0  0  0  2  0  0  0  0  0  0
  -24.6380  -31.0600   22.1480 N   0  0  0  0  0  0  0  0  0  0  0  0
  -23.4930  -32.1670   23.7580 O   0  0  0  0  0  0  0  0  0  0  0  0
  -22.7200  -29.4440   22.5720 C   0  0  0  0  0  0  0  0  0  0  0  0
  -21.3940  -29.2690   22.4480 N   0  0  0  0  0  0  0  0  0  0  0  0
  -23.4010  -28.8160   23.3880 O   0  0  0  0  0  0  0  0  0  0  0  0
  -20.9050  -29.8300   21.7660 H   0  0  0  0  0  0  0  0  0  0  0  0
  -18.0130  -28.0930   22.9500 C   0  0  0  0  0  0  0  0  0  0  0  0
  -20.5730  -28.3340   23.2180 C   0  0  0  0  0  3  0  0  0  0  0  0
  -20.6650  -26.9030   22.6380 C   0  0  0  0  0  2  0  0  0  0  0  0
  -19.5600  -26.5910   21.6250 C   0  0  0  0  0  2  0  0  0  0  0  0
  -18.1790  -26.7430   22.2720 C   0  0  0  0  0  2  0  0  0  0  0  0
  -19.1370  -28.8450   23.3800 C   0  0  0  0  0  0  0  0  0  0  0  0
  -18.9300  -30.1090   23.9750 C   0  0  0  0  0  3  0  0  0  0  0  0
  -17.6290  -30.6190   24.1460 C   0  0  0  0  0  3  0  0  0  0  0  0
  -16.5190  -29.8640   23.7320 C   0  0  0  0  0  3  0  0  0  0  0  0
  -16.7110  -28.6030   23.1390 C   0  0  0  0  0  3  0  0  0  0  0  0
  -25.8680  -32.4910   23.8720 C   0  0  0  0  0  3  0  0  0  0  0  0
  -25.5670  -33.8910   24.1960 N   0  0  0  0  0  0  0  0  0  0  0  0
  -25.9000  -34.9390   23.4330 C   0  0  0  0  0  0  0  0  0  0  0  0
  -26.5680  -34.8300   22.4000 O   0  0  0  0  0  0  0  0  0  0  0  0
  -24.9780  -34.0530   25.0010 H   0  0  0  0  0  0  0  0  0  0  0  0
  -24.1710  -36.7310   23.0840 C   0  0  0  0  0  1  0  0  0  0  0  0
  -25.4170  -36.3290   23.8880 C   0  0  0  0  0  3  0  0  0  0  0  0
  -27.5560  -37.2150   24.7040 C   0  0  0  0  0  1  0  0  0  0  0  0
  -26.4480  -37.3820   23.7670 N   0  0  0  0  0  0  0  0  0  0  0  0
  -26.0420  -38.3010   23.9160 H   0  0  0  0  0  0  0  0  0  0  0  0
  -26.3790  -31.7200   25.1520 C   0  0  1  0  0  0  0  0  0  0  0  0
  -25.2850  -31.4910   26.2180 C   0  0  0  0  0  1  0  0  0  0  0  0
  -26.9560  -30.3380   24.7630 C   0  0  0  0  0  1  0  0  0  0  0  0
  -27.5280  -32.5150   25.8190 C   0  0  0  0  0  1  0  0  0  0  0  0
  -30.1590  -19.3980   20.9570 C   0  0  0  0  0  2  0  0  0  0  0  0
  -29.7310  -17.9410   20.5860 C   0  0  0  0  0  2  0  0  0  0  0  0
  -30.4740  -16.8370   21.3940 C   0  0  0  0  0  2  0  0  0  0  0  0
  -30.6700  -14.4640   20.5250 C   0  0  0  0  0  0  0  0  0  0  0  0
  -30.3630  -12.3180   19.3360 C   0  0  0  0  0  2  0  0  0  0  0  0
  -29.4190  -12.5300   18.1350 C   0  0  0  0  0  2  0  0  0  0  0  0
  -27.9460  -12.3930   18.5670 C   0  0  0  0  0  2  0  0  0  0  0  0
  -27.6110  -13.2140   19.8420 C   0  0  0  0  0  3  0  0  0  0  0  0
  -28.6670  -12.9830   20.9440 C   0  0  0  0  0  2  0  0  0  0  0  0
  -29.9880  -13.2940   20.3720 N   0  0  0  0  0  0  0  0  0  0  0  0
  -31.7930  -14.6480   20.0500 O   0  0  0  0  0  0  0  0  0  0  0  0
  -29.9960  -15.4650   21.1260 N   0  0  0  0  0  0  0  0  0  0  0  0
  -29.0650  -15.2330   21.4440 H   0  0  0  0  0  0  0  0  0  0  0  0
  -25.2080  -13.8120   20.5370 C   0  0  0  0  0  0  0  0  0  0  0  0
  -24.1430  -13.0360   20.9050 C   0  0  0  0  0  0  0  0  0  0  0  0
  -24.6100  -11.6860   20.8870 C   0  0  0  0  0  0  0  0  0  0  0  0
  -26.2580  -12.9340   20.3180 N   0  0  0  0  0  0  0  0  0  0  0  0
  -25.9020  -11.6510   20.5850 N   0  0  0  0  0  0  0  0  0  0  0  0
  -23.8880  -10.4230   21.0840 C   0  0  0  0  0  0  0  0  0  0  0  0
  -24.3260   -9.4600   22.0170 C   0  0  0  0  0  3  0  0  0  0  0  0
  -23.6050   -8.2600   22.2000 C   0  0  0  0  0  3  0  0  0  0  0  0
  -22.4310   -8.0150   21.4490 C   0  0  0  0  0  0  0  0  0  0  0  0
  -22.0110   -8.9680   20.5050 C   0  0  0  0  0  3  0  0  0  0  0  0
  -22.7330  -10.1590   20.3200 C   0  0  0  0  0  3  0  0  0  0  0  0
  -21.6790   -6.8700   21.5440 O   0  0  0  0  0  0  0  0  0  0  0  0
  -21.6420   -6.1260   22.6960 C   0  0  0  0  0  0  0  0  0  0  0  0
  -21.2220   -6.6800   23.9260 C   0  0  0  0  0  3  0  0  0  0  0  0
  -21.1320   -5.8630   25.0700 C   0  0  0  0  0  3  0  0  0  0  0  0
  -21.4500   -4.4930   24.9880 C   0  0  0  0  0  0  0  0  0  0  0  0
  -21.8610   -3.9410   23.7610 C   0  0  0  0  0  3  0  0  0  0  0  0
  -21.9550   -4.7540   22.6200 C   0  0  0  0  0  0  0  0  0  0  0  0
  -22.3320   -4.2120   21.4370 F   0  0  0  0  0  0  0  0  0  0  0  0
  -21.3550   -3.7070   26.0840 F   0  0  0  0  0  0  0  0  0  0  0  0
  -22.7420  -13.5090   21.1700 C   0  0  0  0  0  0  0  0  0  0  0  0
  -22.0140  -12.8130   22.0370 N   0  0  0  0  0  0  0  0  0  0  0  0
  -22.3030  -14.5320   20.6440 O   0  0  0  0  0  0  0  0  0  0  0  0
  -22.3860  -11.9880   22.4870 H   0  0  0  0  0  0  0  0  0  0  0  0
  -21.0740  -13.1090   22.2550 H   0  0  0  0  0  0  0  0  0  0  0  0
  -25.3680  -15.1810   20.3490 N   0  0  0  0  0  0  0  0  0  0  0  0
  -24.5950  -15.8310   20.4400 H   0  0  0  0  0  0  0  0  0  0  0  0
  -26.2150  -15.6200   20.0120 H   0  0  0  0  0  0  0  0  0  0  0  0
  1  3  1  0
  3  8  1  0
  3  2  2  0
  4  1  2  0
  4  7  1  0
  5  2  1  0
  5 51  1  0
  6  4  1  0
  7  5  2  0
  9 10  1  0
  9  8  1  0
 11 22  2  0
 12 10  1  0
 12 17  1  0
 13 21  1  0
 13 23  1  0
 14 20  1  0
 14 16  1  0
 15 21  1  0
 16 15  1  0
 17 16  2  0
 18 12  2  0
 19 18  1  0
 19 14  2  0
 20 13  1  0
 21 11  1  0
 23 25  2  0
 24 23  1  0
 26 24  1  0
 27 36  2  0
 27 32  1  0
 28 24  1  0
 28 32  1  0
 29 28  1  0
 30 31  1  0
 30 29  1  0
 31 27  1  0
 32 33  2  0
 33 34  1  0
 35 34  2  0
 36 35  1  0
 37 11  1  0
 37 38  1  0
 37 47  1  0
 38 41  1  0
 39 43  1  0
 39 38  1  0
 40 39  2  0
 43 42  1  0
 45 43  1  0
 45 46  1  0
 45 44  1  0
 47 50  1  1
 47 48  1  0
 49 47  1  0
 52 51  1  0
 52 53  1  0
 54 62  1  0
 55 60  1  0
 56 57  1  0
 56 55  1  0
 58 57  1  0
 58 67  1  0
 58 59  1  0
 60 54  1  0
 60 59  1  0
 61 54  2  0
 62 53  1  0
 62 63  1  0
 64 65  2  0
 65 84  1  0
 66 65  1  0
 66 69  1  0
 67 64  1  0
 67 68  1  0
 68 66  2  0
 69 70  1  0
 70 71  2  0
 72 75  1  0
 72 71  1  0
 73 72  2  0
 74 73  1  0
 74 69  2  0
 75 76  1  0
 76 77  1  0
 77 78  2  0
 79 78  1  0
 79 83  1  0
 80 79  2  0
 81 76  2  0
 81 80  1  0
 82 81  1  0
 84 85  1  0
 85 88  1  0
 85 87  1  0
 86 84  2  0
 89 90  1  0
 89 64  1  0
 91 89  1  0
M  ISO  4   9 101  10 101  54 100  62 100
M  END
>  <TORSDO>  (80) 
F 21

>  <SCORE>  (80) 
-13.429

>  <name>  (80) 
79

>  <ligand_id>  (80) 
79

>  <original_smiles>  (80) 
[H]c1c([H])c([H])c2c(c1[H])C([H])([H])C([H])([H])C([H])([H])C2([H])N([H])C(=O)C1([H])N(C(=O)C([H])(N([H])C(=O)C([H])(N([H])C([H])([H])[H])C([H])([H])[H])C(C([H])([H])[H])(C([H])([H])[H])C([H])([H])[H])C([H])([H])c2c([H])c(OC([H])([H])C([H])([H])c3c([H])c(C([H])([H])[H])nc(C([H])([H])C([H])([H])C([H])([H])N([H])C(=O)N4C([H])([H])C([H])([H])C([H])([H])C([H])(n5nc(-c6c([H])c([H])c(Oc7c([H])c([H])c(F)c([H])c7F)c([H])c6[H])c(C(=O)N([H])[H])c5N([H])[H])C4([H])[H])c3[H])c([H])c([H])c2C1([H])[H]

>  <smiles>  (80) 
[H]c1c([H])c([H])c2c(c1[H])C([H])([H])C([H])([H])C([H])([H])C2([H])N([H])C(=O)C1([H])N(C(=O)C([H])(N([H])C(=O)C([H])(N([H])C([H])([H])[H])C([H])([H])[H])C(C([H])([H])[H])(C([H])([H])[H])C([H])([H])[H])C([H])([H])c2c([H])c(OC([H])([H])C([H])([H])c3c([H])c(C([H])([H])[H])nc(C([H])([H])C([H])([H])C([H])([H])N([H])C(=O)N4C([H])([H])C([H])([H])C([H])([H])C([H])(n5nc(-c6c([H])c([H])c(Oc7c([H])c([H])c(F)c([H])c7F)c([H])c6[H])c(C(=O)N([H])[H])c5N([H])[H])C4([H])[H])c3[H])c([H])c([H])c2C1([H])[H]

> <Step>
41.0

> <Scaffold>
O=C(NC1CCCc2ccccc21)C1Cc2ccc(OCCc3ccnc(CCCNC(=O)N4CCCC(n5ccc(-c6ccc(Oc7ccccc7)cc6)n5)C4)c3)cc2CN1

> <SMILES>
CNC(C)C(=O)NC(C(=O)N1Cc2cc(OCCc3cc(C)nc(CCCNC(=O)N4CCCC(n5nc(-c6ccc(Oc7ccc(F)cc7F)cc6)c(C(N)=O)c5N)C4)c3)ccc2CC1C(=O)NC1CCCc2ccccc21)C(C)(C)C

> <Tanimoto ROCS sim>
0.23653806746006012

> <Custom alerts>
1.0

> <Linker Num Aromatic Rings>
1.0

> <Linker Effective Length>
1.0

> <ADV>
0.9922043681144714

> <PostDock Tanimoto ROCS sim>
0.9937407374382019

> <raw_Linker Num Aromatic Rings>
1.0

> <raw_Linker Effective Length>
8.0

> <raw_ADV>
-13.418999671936035

> <total_score>
0.9964863061904907

> <ID>
default_job_79

> <PostDock Tanimoto ROCS sim (re-score)>
0.98468775

> <raw_ADV (re-score)>
-13.429

> <Final Intermolecular Energy>
-29.523

> <Final Total Internal Energy>
-2.899

> <Torsional Free Energy>
16.094

> <Unbound System's Energy>
-2.899

$$$$
default_job_80
     RDKit          3D

 97106  0  0  1  0  0  0  0  0999 V2000
  -31.2230  -21.9690   18.8810 C   0  0  0  0  0  1  0  0  0  0  0  0
  -30.4510  -21.5000   20.1210 C   0  0  0  0  0  3  0  0  0  0  0  0
  -31.0570  -17.7720   21.2580 C   0  0  0  0  0  2  0  0  0  0  0  0
  -29.1730  -19.3470   19.6350 C   0  0  0  0  0  2  0  0  0  0  0  0
  -29.7700  -17.1030   20.7250 C   0  0  0  0  0  3  0  0  0  0  0  0
  -30.8810  -19.3130   21.4470 C   0  0  0  0  0  3  0  0  0  0  0  0
  -29.3390  -17.8060   19.3900 C   0  0  2  0  0  0  0  0  0  0  0  0
  -32.2060  -19.8970   22.0000 C   0  0  0  0  0  1  0  0  0  0  0  0
  -30.3650  -17.5560   18.2640 C   0  0  0  0  0  1  0  0  0  0  0  0
  -27.9780  -17.2790   18.8940 C   0  0  0  0  0  1  0  0  0  0  0  0
  -30.4070  -19.9830   20.1780 N   0  0  2  0  0  4  0  0  0  0  0  0
  -31.1150  -19.7320   19.5020 H   0  0  0  0  0  0  0  0  0  0  0  0
  -30.5820  -14.6000   20.4550 C   0  0  0  0  0  0  0  0  0  0  0  0
  -30.3860  -12.3840   19.3760 C   0  0  0  0  0  2  0  0  0  0  0  0
  -29.4220  -12.5320   18.1760 C   0  0  0  0  0  2  0  0  0  0  0  0
  -27.9450  -12.3960   18.6090 C   0  0  0  0  0  2  0  0  0  0  0  0
  -27.6020  -13.2230   19.8810 C   0  0  0  0  0  3  0  0  0  0  0  0
  -28.6780  -13.0340   20.9770 C   0  0  0  0  0  2  0  0  0  0  0  0
  -29.9830  -13.3790   20.3810 N   0  0  0  0  0  0  0  0  0  0  0  0
  -31.7470  -14.7990   20.0990 O   0  0  0  0  0  0  0  0  0  0  0  0
  -29.7180  -15.6090   20.7340 N   0  0  0  0  0  0  0  0  0  0  0  0
  -28.7950  -15.2380   20.9110 H   0  0  0  0  0  0  0  0  0  0  0  0
  -25.2030  -13.8430   20.5740 C   0  0  0  0  0  0  0  0  0  0  0  0
  -24.1330  -13.0780   20.9400 C   0  0  0  0  0  0  0  0  0  0  0  0
  -24.5910  -11.7220   20.9180 C   0  0  0  0  0  0  0  0  0  0  0  0
  -26.2510  -12.9570   20.3630 N   0  0  0  0  0  0  0  0  0  0  0  0
  -25.8830  -11.6760   20.6200 N   0  0  0  0  0  0  0  0  0  0  0  0
  -23.8630  -10.4660   21.1090 C   0  0  0  0  0  0  0  0  0  0  0  0
  -24.3090   -9.4850   22.0210 C   0  0  0  0  0  3  0  0  0  0  0  0
  -23.5840   -8.2870   22.1980 C   0  0  0  0  0  3  0  0  0  0  0  0
  -22.3970   -8.0650   21.4600 C   0  0  0  0  0  0  0  0  0  0  0  0
  -21.9710   -9.0350   20.5340 C   0  0  0  0  0  3  0  0  0  0  0  0
  -22.6990  -10.2210   20.3580 C   0  0  0  0  0  3  0  0  0  0  0  0
  -21.6390   -6.9220   21.5440 O   0  0  0  0  0  0  0  0  0  0  0  0
  -21.6230   -6.1560   22.6810 C   0  0  0  0  0  0  0  0  0  0  0  0
  -21.2470   -6.6840   23.9350 C   0  0  0  0  0  3  0  0  0  0  0  0
  -21.1810   -5.8440   25.0650 C   0  0  0  0  0  3  0  0  0  0  0  0
  -21.4850   -4.4740   24.9380 C   0  0  0  0  0  0  0  0  0  0  0  0
  -21.8500   -3.9450   23.6880 C   0  0  0  0  0  3  0  0  0  0  0  0
  -21.9170   -4.7830   22.5620 C   0  0  0  0  0  0  0  0  0  0  0  0
  -22.2520   -4.2650   21.3560 F   0  0  0  0  0  0  0  0  0  0  0  0
  -21.4160   -3.6620   26.0180 F   0  0  0  0  0  0  0  0  0  0  0  0
  -22.7360  -13.5620   21.2020 C   0  0  0  0  0  0  0  0  0  0  0  0
  -21.9950  -12.8730   22.0590 N   0  0  0  0  0  0  0  0  0  0  0  0
  -22.3050  -14.5870   20.6740 O   0  0  0  0  0  0  0  0  0  0  0  0
  -22.3560  -12.0430   22.5080 H   0  0  0  0  0  0  0  0  0  0  0  0
  -21.0570  -13.1860   22.2690 H   0  0  0  0  0  0  0  0  0  0  0  0
  -25.3580  -15.2120   20.3850 N   0  0  0  0  0  0  0  0  0  0  0  0
  -24.5530  -15.8280   20.3820 H   0  0  0  0  0  0  0  0  0  0  0  0
  -26.1950  -15.6590   20.0400 H   0  0  0  0  0  0  0  0  0  0  0  0
  -29.4260  -23.5090   21.4030 C   0  0  0  0  0  2  0  0  0  0  0  0
  -28.3310  -22.8750   19.2010 C   0  0  0  0  0  2  0  0  0  0  0  0
  -29.8110  -24.8430   20.7050 C   0  0  0  0  0  2  0  0  0  0  0  0
  -27.6920  -24.2830   19.4000 C   0  0  0  0  0  2  0  0  0  0  0  0
  -29.1340  -22.3270   20.4330 C   0  0  0  0  0  3  0  0  0  0  0  0
  -28.7480  -25.3910   19.7020 C   0  0  0  0  0  3  0  0  0  0  0  0
  -28.4070  -26.7180   20.1990 O   0  0  0  0  0  0  0  0  0  0  0  0
  -24.6170  -31.8850   23.2350 C   0  0  0  0  0  0  0  0  0  0  0  0
  -27.2060  -27.4120   20.1090 C   0  0  0  0  0  0  0  0  0  0  0  0
  -23.3840  -30.4920   21.6080 C   0  0  0  0  0  3  0  0  0  0  0  0
  -24.8110  -28.9550   20.1510 C   0  0  0  0  0  0  0  0  0  0  0  0
  -25.9130  -30.8260   21.3880 C   0  0  0  0  0  2  0  0  0  0  0  0
  -25.9770  -29.4610   20.7350 C   0  0  0  0  0  0  0  0  0  0  0  0
  -27.1650  -28.6940   20.7160 C   0  0  0  0  0  3  0  0  0  0  0  0
  -26.0180  -26.9390   19.5040 C   0  0  0  0  0  3  0  0  0  0  0  0
  -24.8310  -27.6950   19.5330 C   0  0  0  0  0  3  0  0  0  0  0  0
  -23.5680  -29.8140   20.2230 C   0  0  0  0  0  2  0  0  0  0  0  0
  -24.6570  -31.0840   22.1350 N   0  0  0  0  0  0  0  0  0  0  0  0
  -23.5390  -32.1790   23.7710 O   0  0  0  0  0  0  0  0  0  0  0  0
  -22.7410  -29.4710   22.5730 C   0  0  0  0  0  0  0  0  0  0  0  0
  -21.4140  -29.2910   22.4540 N   0  0  0  0  0  0  0  0  0  0  0  0
  -23.4300  -28.8450   23.3800 O   0  0  0  0  0  0  0  0  0  0  0  0
  -20.9170  -29.8460   21.7710 H   0  0  0  0  0  0  0  0  0  0  0  0
  -18.0530  -28.0720   22.9520 C   0  0  0  0  0  0  0  0  0  0  0  0
  -20.6070  -28.3500   23.2280 C   0  0  0  0  0  3  0  0  0  0  0  0
  -20.7240  -26.9180   22.6580 C   0  0  0  0  0  2  0  0  0  0  0  0
  -19.6280  -26.5820   21.6420 C   0  0  0  0  0  2  0  0  0  0  0  0
  -18.2430  -26.7210   22.2810 C   0  0  0  0  0  2  0  0  0  0  0  0
  -19.1650  -28.8430   23.3830 C   0  0  0  0  0  0  0  0  0  0  0  0
  -18.9400  -30.1080   23.9670 C   0  0  0  0  0  3  0  0  0  0  0  0
  -17.6330  -30.6000   24.1330 C   0  0  0  0  0  3  0  0  0  0  0  0
  -16.5330  -29.8270   23.7230 C   0  0  0  0  0  3  0  0  0  0  0  0
  -16.7440  -28.5660   23.1370 C   0  0  0  0  0  3  0  0  0  0  0  0
  -25.9140  -32.5030   23.8510 C   0  0  0  0  0  3  0  0  0  0  0  0
  -25.6100  -33.8980   24.2020 N   0  0  0  0  0  0  0  0  0  0  0  0
  -25.9130  -34.9580   23.4410 C   0  0  0  0  0  0  0  0  0  0  0  0
  -26.5530  -34.8670   22.3900 O   0  0  0  0  0  0  0  0  0  0  0  0
  -25.0370  -34.0420   25.0200 H   0  0  0  0  0  0  0  0  0  0  0  0
  -24.1550  -36.7410   23.1700 C   0  0  0  0  0  1  0  0  0  0  0  0
  -25.4330  -36.3410   23.9260 C   0  0  0  0  0  3  0  0  0  0  0  0
  -27.5920  -37.2460   24.6660 C   0  0  0  0  0  1  0  0  0  0  0  0
  -26.4490  -37.4030   23.7710 N   0  0  0  0  0  0  0  0  0  0  0  0
  -26.0400  -38.3190   23.9340 H   0  0  0  0  0  0  0  0  0  0  0  0
  -26.4450  -31.7210   25.1160 C   0  0  1  0  0  0  0  0  0  0  0  0
  -25.3620  -31.4840   26.1940 C   0  0  0  0  0  1  0  0  0  0  0  0
  -27.0320  -30.3480   24.7130 C   0  0  0  0  0  1  0  0  0  0  0  0
  -27.6040  -32.5090   25.7740 C   0  0  0  0  0  1  0  0  0  0  0  0
  2  1  1  0
  2 11  1  0
  3  6  1  0
  4 11  1  0
  5 21  1  0
  5  3  1  0
  6  8  1  0
  7  4  1  0
  7  5  1  0
  7  9  1  6
 10  7  1  0
 11  6  1  0
 11 12  1  6
 13 21  1  0
 14 19  1  0
 15 16  1  0
 15 14  1  0
 17 16  1  0
 17 26  1  0
 17 18  1  0
 19 13  1  0
 19 18  1  0
 20 13  2  0
 21 22  1  0
 23 24  2  0
 24 43  1  0
 25 24  1  0
 25 28  1  0
 26 23  1  0
 26 27  1  0
 27 25  2  0
 28 29  1  0
 29 30  2  0
 31 34  1  0
 31 30  1  0
 32 31  2  0
 33 32  1  0
 33 28  2  0
 34 35  1  0
 35 36  1  0
 36 37  2  0
 38 37  1  0
 38 42  1  0
 39 38  2  0
 40 35  2  0
 40 39  1  0
 41 40  1  0
 43 44  1  0
 44 47  1  0
 44 46  1  0
 45 43  2  0
 48 23  1  0
 49 48  1  0
 50 48  1  0
 52 54  1  0
 52 55  1  0
 53 51  1  0
 54 56  1  0
 55  2  1  0
 55 51  1  0
 56 57  1  0
 56 53  1  0
 58 69  2  0
 59 57  1  0
 59 64  1  0
 60 68  1  0
 60 70  1  0
 61 67  1  0
 61 63  1  0
 62 68  1  0
 63 62  1  0
 64 63  2  0
 65 66  1  0
 65 59  2  0
 66 61  2  0
 67 60  1  0
 68 58  1  0
 70 72  2  0
 71 70  1  0
 73 71  1  0
 74 83  2  0
 74 79  1  0
 75 71  1  0
 75 79  1  0
 76 75  1  0
 77 78  1  0
 77 76  1  0
 78 74  1  0
 79 80  2  0
 80 81  1  0
 82 81  2  0
 83 82  1  0
 84 58  1  0
 84 85  1  0
 84 94  1  0
 85 88  1  0
 86 90  1  0
 86 85  1  0
 87 86  2  0
 90 89  1  0
 92 90  1  0
 92 93  1  0
 92 91  1  0
 94 97  1  1
 94 95  1  0
 96 94  1  0
M  ISO  4  13 100  21 100  56 101  57 101
M  END
>  <TORSDO>  (81) 
F 18

>  <SCORE>  (81) 
-15.225

>  <name>  (81) 
80

>  <ligand_id>  (81) 
80

>  <original_smiles>  (81) 
[H]c1c([H])c([H])c2c(c1[H])C([H])([H])C([H])([H])C([H])([H])C2([H])N([H])C(=O)C1([H])N(C(=O)C([H])(N([H])C(=O)C([H])(N([H])C([H])([H])[H])C([H])([H])[H])C(C([H])([H])[H])(C([H])([H])[H])C([H])([H])[H])C([H])([H])c2c([H])c(OC3([H])C([H])([H])C([H])([H])C([H])(C([H])(C([H])([H])[H])[N+]4([H])C([H])([H])C(C([H])([H])[H])(C([H])([H])[H])C([H])(N([H])C(=O)N5C([H])([H])C([H])([H])C([H])([H])C([H])(n6nc(-c7c([H])c([H])c(Oc8c([H])c([H])c(F)c([H])c8F)c([H])c7[H])c(C(=O)N([H])[H])c6N([H])[H])C5([H])[H])C([H])([H])C4([H])C([H])([H])[H])C([H])([H])C3([H])[H])c([H])c([H])c2C1([H])[H]

>  <smiles>  (81) 
[H]c1c([H])c([H])c2c(c1[H])C([H])([H])C([H])([H])C([H])([H])C2([H])N([H])C(=O)C1([H])N(C(=O)C([H])(N([H])C(=O)C([H])(N([H])C([H])([H])[H])C([H])([H])[H])C(C([H])([H])[H])(C([H])([H])[H])C([H])([H])[H])C([H])([H])c2c([H])c(OC3([H])C([H])([H])C([H])([H])C([H])(C([H])(C([H])([H])[H])[N+]4([H])C([H])([H])C(C([H])([H])[H])(C([H])([H])[H])C([H])(N([H])C(=O)N5C([H])([H])C([H])([H])C([H])([H])C([H])(n6nc(-c7c([H])c([H])c(Oc8c([H])c([H])c(F)c([H])c8F)c([H])c7[H])c(C(=O)N([H])[H])c6N([H])[H])C5([H])[H])C([H])([H])C4([H])C([H])([H])[H])C([H])([H])C3([H])[H])c([H])c([H])c2C1([H])[H]

> <Step>
161.0

> <Scaffold>
O=C(NC1CCCc2ccccc21)C1Cc2ccc(OC3CCC(CN4CCC(NC(=O)N5CCCC(n6ccc(-c7ccc(Oc8ccccc8)cc7)n6)C5)CC4)CC3)cc2CN1

> <SMILES>
CNC(C)C(=O)NC(C(=O)N1Cc2cc(OC3CCC(C(C)N4CC(C)(C)C(NC(=O)N5CCCC(n6nc(-c7ccc(Oc8ccc(F)cc8F)cc7)c(C(N)=O)c6N)C5)CC4C)CC3)ccc2CC1C(=O)NC1CCCc2ccccc21)C(C)(C)C

> <Tanimoto ROCS sim>
0.20918287336826324

> <Custom alerts>
1.0

> <Linker Num Aromatic Rings>
1.0

> <Linker Effective Length>
1.0

> <ADV>
0.9973387122154236

> <PostDock Tanimoto ROCS sim>
0.9885241389274597

> <raw_Linker Num Aromatic Rings>
0.0

> <raw_Linker Effective Length>
9.0

> <raw_ADV>
-15.295000076293945

> <total_score>
0.9964657425880432

> <ID>
default_job_80

> <PostDock Tanimoto ROCS sim (re-score)>
0.98555726

> <raw_ADV (re-score)>
-15.225

> <Final Intermolecular Energy>
-30.801

> <Final Total Internal Energy>
-3.31

> <Torsional Free Energy>
15.576

> <Unbound System's Energy>
-3.31

$$$$
default_job_81
     RDKit          3D

 93101  0  0  1  0  0  0  0  0999 V2000
  -29.1730  -20.5870   20.2640 C   0  0  0  0  0  3  0  0  0  0  0  0
  -29.6680  -21.8610   19.8690 C   0  0  0  0  0  0  0  0  0  0  0  0
  -30.9800  -21.9030   19.3290 C   0  0  0  0  0  0  0  0  0  0  0  0
  -29.9710  -19.4230   20.1090 C   0  0  0  0  0  0  0  0  0  0  0  0
  -31.7240  -20.7010   19.2590 C   0  0  0  0  0  0  0  0  0  0  0  0
  -31.5860  -23.1990   18.7930 C   0  0  0  0  0  1  0  0  0  0  0  0
  -33.1480  -20.6590   18.7340 C   0  0  0  0  0  1  0  0  0  0  0  0
  -31.2240  -19.5020   19.6160 N   0  0  0  0  0  0  0  0  0  0  0  0
  -28.9720  -17.4390   18.9070 C   0  0  0  0  0  1  0  0  0  0  0  0
  -29.4090  -17.9880   20.2780 C   0  0  0  0  0  3  0  0  0  0  0  0
  -30.3580  -16.9920   21.0350 C   0  0  0  0  0  2  0  0  0  0  0  0
  -30.6460  -14.5260   20.5100 C   0  0  0  0  0  0  0  0  0  0  0  0
  -30.3580  -12.3650   19.3510 C   0  0  0  0  0  2  0  0  0  0  0  0
  -29.4200  -12.5720   18.1440 C   0  0  0  0  0  2  0  0  0  0  0  0
  -27.9450  -12.4200   18.5690 C   0  0  0  0  0  2  0  0  0  0  0  0
  -27.6010  -13.2470   19.8370 C   0  0  0  0  0  3  0  0  0  0  0  0
  -28.6560  -13.0330   20.9470 C   0  0  0  0  0  2  0  0  0  0  0  0
  -29.9760  -13.3460   20.3800 N   0  0  0  0  0  0  0  0  0  0  0  0
  -31.7820  -14.6910   20.0590 O   0  0  0  0  0  0  0  0  0  0  0  0
  -29.9370  -15.5630   21.0100 N   0  0  0  0  0  0  0  0  0  0  0  0
  -29.0070  -15.3530   21.3390 H   0  0  0  0  0  0  0  0  0  0  0  0
  -25.1990  -13.8400   20.5370 C   0  0  0  0  0  0  0  0  0  0  0  0
  -24.1330  -13.0620   20.9030 C   0  0  0  0  0  0  0  0  0  0  0  0
  -24.6010  -11.7130   20.8760 C   0  0  0  0  0  0  0  0  0  0  0  0
  -26.2490  -12.9640   20.3120 N   0  0  0  0  0  0  0  0  0  0  0  0
  -25.8940  -11.6800   20.5730 N   0  0  0  0  0  0  0  0  0  0  0  0
  -23.8810  -10.4470   21.0640 C   0  0  0  0  0  0  0  0  0  0  0  0
  -24.3170   -9.4810   21.9970 C   0  0  0  0  0  3  0  0  0  0  0  0
  -23.5970   -8.2790   22.1730 C   0  0  0  0  0  3  0  0  0  0  0  0
  -22.4260   -8.0360   21.4150 C   0  0  0  0  0  0  0  0  0  0  0  0
  -22.0110   -8.9910   20.4710 C   0  0  0  0  0  3  0  0  0  0  0  0
  -22.7310  -10.1840   20.2940 C   0  0  0  0  0  3  0  0  0  0  0  0
  -21.6780   -6.8880   21.5000 O   0  0  0  0  0  0  0  0  0  0  0  0
  -21.6350   -6.1400   22.6490 C   0  0  0  0  0  0  0  0  0  0  0  0
  -21.2090   -6.6870   23.8800 C   0  0  0  0  0  3  0  0  0  0  0  0
  -21.1150   -5.8650   25.0210 C   0  0  0  0  0  3  0  0  0  0  0  0
  -21.4370   -4.4960   24.9320 C   0  0  0  0  0  0  0  0  0  0  0  0
  -21.8550   -3.9500   23.7060 C   0  0  0  0  0  3  0  0  0  0  0  0
  -21.9510   -4.7690   22.5680 C   0  0  0  0  0  0  0  0  0  0  0  0
  -22.3350   -4.2310   21.3850 F   0  0  0  0  0  0  0  0  0  0  0  0
  -21.3380   -3.7050   26.0250 F   0  0  0  0  0  0  0  0  0  0  0  0
  -22.7320  -13.5330   21.1680 C   0  0  0  0  0  0  0  0  0  0  0  0
  -22.0030  -12.8340   22.0300 N   0  0  0  0  0  0  0  0  0  0  0  0
  -22.2910  -14.5570   20.6460 O   0  0  0  0  0  0  0  0  0  0  0  0
  -22.3710  -12.0060   22.4760 H   0  0  0  0  0  0  0  0  0  0  0  0
  -21.0630  -13.1320   22.2510 H   0  0  0  0  0  0  0  0  0  0  0  0
  -25.3570  -15.2110   20.3580 N   0  0  0  0  0  0  0  0  0  0  0  0
  -24.5820  -15.8590   20.4570 H   0  0  0  0  0  0  0  0  0  0  0  0
  -26.2010  -15.6550   20.0190 H   0  0  0  0  0  0  0  0  0  0  0  0
  -28.7610  -23.1140   19.9310 C   0  0  0  0  0  3  0  0  0  0  0  0
  -29.2390  -24.2890   20.8400 C   0  0  0  0  0  3  0  0  0  0  0  0
  -28.2080  -25.4370   21.0550 C   0  0  0  0  0  2  0  0  0  0  0  0
  -28.3780  -26.6210   20.2390 O   0  0  0  0  0  0  0  0  0  0  0  0
  -24.6000  -31.9030   23.2350 C   0  0  0  0  0  0  0  0  0  0  0  0
  -27.2490  -27.4180   20.2020 C   0  0  0  0  0  0  0  0  0  0  0  0
  -23.4010  -30.4810   21.6070 C   0  0  0  0  0  3  0  0  0  0  0  0
  -24.8610  -28.9390   20.1900 C   0  0  0  0  0  0  0  0  0  0  0  0
  -25.9300  -30.8360   21.4150 C   0  0  0  0  0  2  0  0  0  0  0  0
  -26.0200  -29.4620   20.7800 C   0  0  0  0  0  0  0  0  0  0  0  0
  -27.2210  -28.7110   20.7800 C   0  0  0  0  0  3  0  0  0  0  0  0
  -26.0790  -26.9210   19.5930 C   0  0  0  0  0  3  0  0  0  0  0  0
  -24.8860  -27.6690   19.5890 C   0  0  0  0  0  3  0  0  0  0  0  0
  -23.6150  -29.7960   20.2310 C   0  0  0  0  0  2  0  0  0  0  0  0
  -24.6630  -31.0850   22.1460 N   0  0  0  0  0  0  0  0  0  0  0  0
  -23.5120  -32.2000   23.7470 O   0  0  0  0  0  0  0  0  0  0  0  0
  -22.7490  -29.4640   22.5730 C   0  0  0  0  0  0  0  0  0  0  0  0
  -21.4260  -29.2750   22.4420 N   0  0  0  0  0  0  0  0  0  0  0  0
  -23.4310  -28.8480   23.3950 O   0  0  0  0  0  0  0  0  0  0  0  0
  -20.9350  -29.8240   21.7490 H   0  0  0  0  0  0  0  0  0  0  0  0
  -18.0530  -28.0710   22.9340 C   0  0  0  0  0  0  0  0  0  0  0  0
  -20.6100  -28.3400   23.2150 C   0  0  0  0  0  3  0  0  0  0  0  0
  -20.7180  -26.9050   22.6470 C   0  0  0  0  0  2  0  0  0  0  0  0
  -19.6220  -26.5740   21.6300 C   0  0  0  0  0  2  0  0  0  0  0  0
  -18.2370  -26.7190   22.2670 C   0  0  0  0  0  2  0  0  0  0  0  0
  -19.1680  -28.8390   23.3640 C   0  0  0  0  0  0  0  0  0  0  0  0
  -18.9430  -30.1060   23.9460 C   0  0  0  0  0  3  0  0  0  0  0  0
  -17.6360  -30.6050   24.1030 C   0  0  0  0  0  3  0  0  0  0  0  0
  -16.5360  -29.8340   23.6890 C   0  0  0  0  0  3  0  0  0  0  0  0
  -16.7450  -28.5690   23.1100 C   0  0  0  0  0  3  0  0  0  0  0  0
  -25.8840  -32.5300   23.8630 C   0  0  0  0  0  3  0  0  0  0  0  0
  -25.5790  -33.9320   24.1820 N   0  0  0  0  0  0  0  0  0  0  0  0
  -25.9090  -34.9750   23.4100 C   0  0  0  0  0  0  0  0  0  0  0  0
  -26.5760  -34.8610   22.3790 O   0  0  0  0  0  0  0  0  0  0  0  0
  -24.9840  -34.0940   24.9810 H   0  0  0  0  0  0  0  0  0  0  0  0
  -24.1760  -36.7600   23.0400 C   0  0  0  0  0  1  0  0  0  0  0  0
  -25.4190  -36.3670   23.8530 C   0  0  0  0  0  3  0  0  0  0  0  0
  -27.5540  -37.2630   24.6690 C   0  0  0  0  0  1  0  0  0  0  0  0
  -26.4510  -37.4200   23.7260 N   0  0  0  0  0  0  0  0  0  0  0  0
  -26.0440  -38.3420   23.8630 H   0  0  0  0  0  0  0  0  0  0  0  0
  -26.3960  -31.7670   25.1460 C   0  0  1  0  0  0  0  0  0  0  0  0
  -25.2980  -31.5370   26.2100 C   0  0  0  0  0  1  0  0  0  0  0  0
  -26.9810  -30.3860   24.7650 C   0  0  0  0  0  1  0  0  0  0  0  0
  -27.5450  -32.5640   25.8080 C   0  0  0  0  0  1  0  0  0  0  0  0
  2 50  1  0
  2  1  2  0
  3  2  1  0
  4  1  1  0
  4 10  1  0
  5  3  2  0
  5  8  1  0
  6  3  1  0
  7  5  1  0
  8  4  2  0
 10  9  1  0
 10 11  1  0
 12 20  1  0
 13 18  1  0
 14 15  1  0
 14 13  1  0
 16 15  1  0
 16 25  1  0
 16 17  1  0
 18 12  1  0
 18 17  1  0
 19 12  2  0
 20 11  1  0
 20 21  1  0
 22 23  2  0
 23 42  1  0
 24 23  1  0
 24 27  1  0
 25 22  1  0
 25 26  1  0
 26 24  2  0
 27 28  1  0
 28 29  2  0
 30 33  1  0
 30 29  1  0
 31 30  2  0
 32 31  1  0
 32 27  2  0
 33 34  1  0
 34 35  1  0
 35 36  2  0
 37 36  1  0
 37 41  1  0
 38 37  2  0
 39 34  2  0
 39 38  1  0
 40 39  1  0
 42 43  1  0
 43 46  1  0
 43 45  1  0
 44 42  2  0
 47 48  1  0
 47 22  1  0
 49 47  1  0
 50 51  2  0
 51 52  1  0
 53 52  1  0
 54 65  2  0
 55 53  1  0
 55 60  1  0
 56 64  1  0
 56 66  1  0
 57 63  1  0
 57 59  1  0
 58 64  1  0
 59 58  1  0
 60 59  2  0
 61 55  2  0
 62 61  1  0
 62 57  2  0
 63 56  1  0
 64 54  1  0
 66 68  2  0
 67 66  1  0
 69 67  1  0
 70 79  2  0
 70 75  1  0
 71 67  1  0
 71 75  1  0
 72 71  1  0
 73 74  1  0
 73 72  1  0
 74 70  1  0
 75 76  2  0
 76 77  1  0
 78 77  2  0
 79 78  1  0
 80 54  1  0
 80 81  1  0
 80 90  1  0
 81 84  1  0
 82 86  1  0
 82 81  1  0
 83 82  2  0
 86 85  1  0
 88 86  1  0
 88 89  1  0
 88 87  1  0
 90 93  1  1
 90 91  1  0
 92 90  1  0
M  ISO  4  12 100  20 100  52 101  53 101
M  END
>  <TORSDO>  (82) 
F 21

>  <SCORE>  (82) 
-13.666

>  <name>  (82) 
81

>  <ligand_id>  (82) 
81

>  <original_smiles>  (82) 
[H]c1c([H])c([H])c2c(c1[H])C([H])([H])C([H])([H])C([H])([H])C2([H])N([H])C(=O)C1([H])N(C(=O)C([H])(N([H])C(=O)C([H])(N([H])C([H])([H])[H])C([H])([H])[H])C(C([H])([H])[H])(C([H])([H])[H])C([H])([H])[H])C([H])([H])c2c([H])c(OC([H])([H])C([H])([H])C([H])([H])c3c([H])c(C([H])(C([H])([H])[H])C([H])([H])N([H])C(=O)N4C([H])([H])C([H])([H])C([H])([H])C([H])(n5nc(-c6c([H])c([H])c(Oc7c([H])c([H])c(F)c([H])c7F)c([H])c6[H])c(C(=O)N([H])[H])c5N([H])[H])C4([H])[H])nc(C([H])([H])[H])c3C([H])([H])[H])c([H])c([H])c2C1([H])[H]

>  <smiles>  (82) 
[H]c1c([H])c([H])c2c(c1[H])C([H])([H])C([H])([H])C([H])([H])C2([H])N([H])C(=O)C1([H])N(C(=O)C([H])(N([H])C(=O)C([H])(N([H])C([H])([H])[H])C([H])([H])[H])C(C([H])([H])[H])(C([H])([H])[H])C([H])([H])[H])C([H])([H])c2c([H])c(OC([H])([H])C([H])([H])C([H])([H])c3c([H])c(C([H])(C([H])([H])[H])C([H])([H])N([H])C(=O)N4C([H])([H])C([H])([H])C([H])([H])C([H])(n5nc(-c6c([H])c([H])c(Oc7c([H])c([H])c(F)c([H])c7F)c([H])c6[H])c(C(=O)N([H])[H])c5N([H])[H])C4([H])[H])nc(C([H])([H])[H])c3C([H])([H])[H])c([H])c([H])c2C1([H])[H]

> <Step>
79.0

> <Scaffold>
O=C(NC1CCCc2ccccc21)C1Cc2ccc(OCCCc3ccnc(CCNC(=O)N4CCCC(n5ccc(-c6ccc(Oc7ccccc7)cc6)n5)C4)c3)cc2CN1

> <SMILES>
CNC(C)C(=O)NC(C(=O)N1Cc2cc(OCCCc3cc(C(C)CNC(=O)N4CCCC(n5nc(-c6ccc(Oc7ccc(F)cc7F)cc6)c(C(N)=O)c5N)C4)nc(C)c3C)ccc2CC1C(=O)NC1CCCc2ccccc21)C(C)(C)C

> <Tanimoto ROCS sim>
0.22442784905433655

> <Custom alerts>
1.0

> <Linker Num Aromatic Rings>
1.0

> <Linker Effective Length>
1.0

> <ADV>
0.9933647513389587

> <PostDock Tanimoto ROCS sim>
0.9924507737159729

> <raw_Linker Num Aromatic Rings>
1.0

> <raw_Linker Effective Length>
8.0

> <raw_ADV>
-13.701000213623047

> <total_score>
0.9964538812637329

> <ID>
default_job_81

> <PostDock Tanimoto ROCS sim (re-score)>
0.98434186

> <raw_ADV (re-score)>
-13.666

> <Final Intermolecular Energy>
-30.044

> <Final Total Internal Energy>
-2.925

> <Torsional Free Energy>
16.378

> <Unbound System's Energy>
-2.925

$$$$
default_job_82
     RDKit          3D

 96106  0  0  1  0  0  0  0  0999 V2000
  -29.6090  -21.9050   21.5100 C   0  0  0  0  0  0  0  0  0  0  0  0
  -29.2260  -23.2800   21.2440 C   0  0  0  0  0  0  0  0  0  0  0  0
  -28.9260  -23.7150   19.9190 C   0  0  0  0  0  0  0  0  0  0  0  0
  -29.5780  -20.9260   20.4560 C   0  0  0  0  0  0  0  0  0  0  0  0
  -29.0110  -22.6700   18.9430 C   0  0  0  0  0  0  0  0  0  0  0  0
  -28.6890  -22.9200   17.4790 C   0  0  0  0  0  1  0  0  0  0  0  0
  -29.3090  -21.3590   19.2020 N   0  0  0  0  0  0  0  0  0  0  0  0
  -30.8790  -14.9050   20.1020 C   0  0  0  0  0  0  0  0  0  0  0  0
  -30.4670  -12.6610   19.0860 C   0  0  0  0  0  2  0  0  0  0  0  0
  -29.5110  -12.7160   17.8800 C   0  0  0  0  0  2  0  0  0  0  0  0
  -28.0580  -12.5580   18.3570 C   0  0  0  0  0  2  0  0  0  0  0  0
  -27.7250  -13.4740   19.5640 C   0  0  0  0  0  3  0  0  0  0  0  0
  -28.8200  -13.4420   20.6560 C   0  0  0  0  0  2  0  0  0  0  0  0
  -30.0880  -13.7750   19.9970 N   0  0  0  0  0  0  0  0  0  0  0  0
  -32.0700  -14.7640   19.8110 O   0  0  0  0  0  0  0  0  0  0  0  0
  -28.7440  -18.2990   20.4640 C   0  0  0  0  0  2  0  0  0  0  0  0
  -30.9970  -18.7880   19.7510 C   0  0  0  0  0  2  0  0  0  0  0  0
  -29.1310  -16.7760   20.7750 C   0  0  0  0  0  2  0  0  0  0  0  0
  -31.4380  -17.3270   20.1100 C   0  0  0  0  0  2  0  0  0  0  0  0
  -29.8810  -19.3570   20.6430 C   0  0  0  0  0  3  0  0  0  0  0  0
  -30.4070  -16.2320   20.2140 N   0  0  0  0  0  0  0  0  0  0  0  0
  -25.3710  -14.0880   20.3650 C   0  0  0  0  0  0  0  0  0  0  0  0
  -24.3070  -13.3250   20.7590 C   0  0  0  0  0  0  0  0  0  0  0  0
  -24.7540  -11.9690   20.7140 C   0  0  0  0  0  0  0  0  0  0  0  0
  -26.3980  -13.1980   20.1010 N   0  0  0  0  0  0  0  0  0  0  0  0
  -26.0360  -11.9180   20.3770 N   0  0  0  0  0  0  0  0  0  0  0  0
  -24.0170  -10.7140   20.9150 C   0  0  0  0  0  0  0  0  0  0  0  0
  -24.4300   -9.7590   21.8700 C   0  0  0  0  0  3  0  0  0  0  0  0
  -23.6910   -8.5710   22.0600 C   0  0  0  0  0  3  0  0  0  0  0  0
  -22.5260   -8.3300   21.2930 C   0  0  0  0  0  0  0  0  0  0  0  0
  -22.1320   -9.2720   20.3280 C   0  0  0  0  0  3  0  0  0  0  0  0
  -22.8710  -10.4520   20.1360 C   0  0  0  0  0  3  0  0  0  0  0  0
  -21.7610   -7.1930   21.3920 O   0  0  0  0  0  0  0  0  0  0  0  0
  -21.6660   -6.4880   22.5650 C   0  0  0  0  0  0  0  0  0  0  0  0
  -21.1360   -7.0650   23.7400 C   0  0  0  0  0  3  0  0  0  0  0  0
  -20.9920   -6.2850   24.9040 C   0  0  0  0  0  3  0  0  0  0  0  0
  -21.3670   -4.9280   24.8950 C   0  0  0  0  0  0  0  0  0  0  0  0
  -21.8910   -4.3510   23.7250 C   0  0  0  0  0  3  0  0  0  0  0  0
  -22.0360   -5.1280   22.5620 C   0  0  0  0  0  0  0  0  0  0  0  0
  -22.5210   -4.5610   21.4310 F   0  0  0  0  0  0  0  0  0  0  0  0
  -21.2230   -4.1760   26.0110 F   0  0  0  0  0  0  0  0  0  0  0  0
  -22.9220  -13.8180   21.0600 C   0  0  0  0  0  0  0  0  0  0  0  0
  -22.2070  -13.1340   21.9460 N   0  0  0  0  0  0  0  0  0  0  0  0
  -22.4830  -14.8470   20.5460 O   0  0  0  0  0  0  0  0  0  0  0  0
  -22.5750  -12.3020   22.3830 H   0  0  0  0  0  0  0  0  0  0  0  0
  -21.2780  -13.4470   22.1920 H   0  0  0  0  0  0  0  0  0  0  0  0
  -25.5420  -15.4560   20.1820 N   0  0  0  0  0  0  0  0  0  0  0  0
  -24.7820  -16.1150   20.3110 H   0  0  0  0  0  0  0  0  0  0  0  0
  -26.3820  -15.8880   19.8170 H   0  0  0  0  0  0  0  0  0  0  0  0
  -31.1300  -22.1470   23.6750 C   0  0  0  0  0  2  0  0  0  0  0  0
  -31.2820  -20.7310   23.2140 C   0  0  0  0  0  2  0  0  0  0  0  0
  -29.9940  -21.4840   22.9140 C   0  0  0  0  0  3  0  0  0  0  0  0
  -27.5410  -24.4960   22.7010 C   0  0  0  0  0  1  0  0  0  0  0  0
  -29.0250  -24.2820   22.3820 C   0  0  0  0  0  2  0  0  0  0  0  0
  -28.2400  -25.1130   19.5290 C   0  0  0  0  0  2  0  0  0  0  0  0
  -28.5110  -26.4970   20.0610 O   0  0  0  0  0  0  0  0  0  0  0  0
  -24.5980  -31.7780   23.2090 C   0  0  0  0  0  0  0  0  0  0  0  0
  -27.4190  -27.4070   19.9960 C   0  0  0  0  0  0  0  0  0  0  0  0
  -23.4790  -30.4000   21.5020 C   0  0  0  0  0  3  0  0  0  0  0  0
  -25.0110  -28.9880   20.0250 C   0  0  0  0  0  0  0  0  0  0  0  0
  -26.0180  -30.8050   21.3890 C   0  0  0  0  0  2  0  0  0  0  0  0
  -26.1580  -29.4630   20.6750 C   0  0  0  0  0  0  0  0  0  0  0  0
  -27.3640  -28.6830   20.6590 C   0  0  0  0  0  3  0  0  0  0  0  0
  -26.2470  -27.0380   19.2860 C   0  0  0  0  0  3  0  0  0  0  0  0
  -25.0620  -27.7840   19.3210 C   0  0  0  0  0  3  0  0  0  0  0  0
  -23.7430  -29.8120   20.0950 C   0  0  0  0  0  2  0  0  0  0  0  0
  -24.7170  -31.0060   22.0910 N   0  0  0  0  0  0  0  0  0  0  0  0
  -23.4890  -32.0180   23.7060 O   0  0  0  0  0  0  0  0  0  0  0  0
  -22.8450  -29.3100   22.4000 C   0  0  0  0  0  0  0  0  0  0  0  0
  -21.5310  -29.0750   22.2370 N   0  0  0  0  0  0  0  0  0  0  0  0
  -23.5340  -28.6810   23.2080 O   0  0  0  0  0  0  0  0  0  0  0  0
  -21.0310  -29.6390   21.5630 H   0  0  0  0  0  0  0  0  0  0  0  0
  -18.1960  -27.7240   22.6380 C   0  0  0  0  0  0  0  0  0  0  0  0
  -20.7400  -28.0690   22.9500 C   0  0  0  0  0  3  0  0  0  0  0  0
  -20.9030  -26.6730   22.3070 C   0  0  0  0  0  2  0  0  0  0  0  0
  -19.8250  -26.3580   21.2660 C   0  0  0  0  0  2  0  0  0  0  0  0
  -18.4330  -26.4170   21.9000 C   0  0  0  0  0  2  0  0  0  0  0  0
  -19.2800  -28.5070   23.1180 C   0  0  0  0  0  0  0  0  0  0  0  0
  -19.0050  -29.7280   23.7690 C   0  0  0  0  0  3  0  0  0  0  0  0
  -17.6800  -30.1690   23.9460 C   0  0  0  0  0  3  0  0  0  0  0  0
  -16.6100  -29.3830   23.4810 C   0  0  0  0  0  3  0  0  0  0  0  0
  -16.8700  -28.1620   22.8330 C   0  0  0  0  0  3  0  0  0  0  0  0
  -25.8420  -32.4250   23.8910 C   0  0  0  0  0  3  0  0  0  0  0  0
  -26.3010  -31.6750   25.2020 C   0  0  1  0  0  0  0  0  0  0  0  0
  -25.1540  -31.4300   26.2100 C   0  0  0  0  0  1  0  0  0  0  0  0
  -26.9280  -30.3030   24.8630 C   0  0  0  0  0  1  0  0  0  0  0  0
  -27.4010  -32.4960   25.9160 C   0  0  0  0  0  1  0  0  0  0  0  0
  -25.5030  -33.8240   24.1900 N   0  0  0  0  0  0  0  0  0  0  0  0
  -25.8070  -34.8650   23.4050 C   0  0  0  0  0  0  0  0  0  0  0  0
  -26.4760  -34.7520   22.3740 O   0  0  0  0  0  0  0  0  0  0  0  0
  -24.9070  -33.9830   24.9890 H   0  0  0  0  0  0  0  0  0  0  0  0
  -24.0190  -36.5960   23.0370 C   0  0  0  0  0  1  0  0  0  0  0  0
  -25.2890  -36.2520   23.8320 C   0  0  0  0  0  3  0  0  0  0  0  0
  -27.4020  -37.2360   24.6020 C   0  0  0  0  0  1  0  0  0  0  0  0
  -26.2880  -37.3310   23.6640 N   0  0  0  0  0  0  0  0  0  0  0  0
  -25.8550  -38.2430   23.7760 H   0  0  0  0  0  0  0  0  0  0  0  0
  1 52  1  0
  2  1  1  0
  2 54  1  0
  3  2  2  0
  4  1  2  0
  5  7  2  0
  5  3  1  0
  6  5  1  0
  7  4  1  0
  8 21  1  0
  9 14  1  0
 10 11  1  0
 10  9  1  0
 12 11  1  0
 12 25  1  0
 12 13  1  0
 14  8  1  0
 14 13  1  0
 15  8  2  0
 16 20  1  0
 16 18  1  0
 17 19  1  0
 17 20  1  0
 19 21  1  0
 20  4  1  0
 21 18  1  0
 22 23  2  0
 23 42  1  0
 24 23  1  0
 24 27  1  0
 25 22  1  0
 25 26  1  0
 26 24  2  0
 27 28  1  0
 28 29  2  0
 30 33  1  0
 30 29  1  0
 31 30  2  0
 32 31  1  0
 32 27  2  0
 33 34  1  0
 34 35  1  0
 35 36  2  0
 37 36  1  0
 37 41  1  0
 38 37  2  0
 39 34  2  0
 39 38  1  0
 40 39  1  0
 42 43  1  0
 43 46  1  0
 43 45  1  0
 44 42  2  0
 47 48  1  0
 47 22  1  0
 49 47  1  0
 51 50  1  0
 52 51  1  0
 52 50  1  0
 54 53  1  0
 55  3  1  0
 55 56  1  0
 57 68  2  0
 58 56  1  0
 58 63  1  0
 59 67  1  0
 59 69  1  0
 60 66  1  0
 60 62  1  0
 61 67  1  0
 62 61  1  0
 63 62  2  0
 64 65  1  0
 64 58  2  0
 65 60  2  0
 66 59  1  0
 67 57  1  0
 69 71  2  0
 70 69  1  0
 72 70  1  0
 73 82  2  0
 73 78  1  0
 74 70  1  0
 74 78  1  0
 75 74  1  0
 76 77  1  0
 76 75  1  0
 77 73  1  0
 78 79  2  0
 79 80  1  0
 81 80  2  0
 82 81  1  0
 83 57  1  0
 83 88  1  0
 83 84  1  0
 84 87  1  1
 84 85  1  0
 86 84  1  0
 88 91  1  0
 89 93  1  0
 89 88  1  0
 90 89  2  0
 93 92  1  0
 95 96  1  0
 95 93  1  0
 95 94  1  0
M  ISO  4   8 100  21 100  55 101  56 101
M  END
>  <TORSDO>  (83) 
F 19

>  <SCORE>  (83) 
-14.095

>  <name>  (83) 
82

>  <ligand_id>  (83) 
82

>  <original_smiles>  (83) 
[H]c1c([H])c([H])c2c(c1[H])C([H])([H])C([H])([H])C([H])([H])C2([H])N([H])C(=O)C1([H])N(C(=O)C([H])(N([H])C(=O)C([H])(N([H])C([H])([H])[H])C([H])([H])[H])C(C([H])([H])[H])(C([H])([H])[H])C([H])([H])[H])C([H])([H])c2c([H])c(OC([H])([H])c3c(C([H])([H])[H])nc(C4([H])C([H])([H])C([H])([H])N(C(=O)N5C([H])([H])C([H])([H])C([H])([H])C([H])(n6nc(-c7c([H])c([H])c(Oc8c([H])c([H])c(F)c([H])c8F)c([H])c7[H])c(C(=O)N([H])[H])c6N([H])[H])C5([H])[H])C([H])([H])C4([H])[H])c(C4([H])C([H])([H])C4([H])[H])c3C([H])([H])C([H])([H])[H])c([H])c([H])c2C1([H])[H]

>  <smiles>  (83) 
[H]c1c([H])c([H])c2c(c1[H])C([H])([H])C([H])([H])C([H])([H])C2([H])N([H])C(=O)C1([H])N(C(=O)C([H])(N([H])C(=O)C([H])(N([H])C([H])([H])[H])C([H])([H])[H])C(C([H])([H])[H])(C([H])([H])[H])C([H])([H])[H])C([H])([H])c2c([H])c(OC([H])([H])c3c(C([H])([H])[H])nc(C4([H])C([H])([H])C([H])([H])N(C(=O)N5C([H])([H])C([H])([H])C([H])([H])C([H])(n6nc(-c7c([H])c([H])c(Oc8c([H])c([H])c(F)c([H])c8F)c([H])c7[H])c(C(=O)N([H])[H])c6N([H])[H])C5([H])[H])C([H])([H])C4([H])[H])c(C4([H])C([H])([H])C4([H])[H])c3C([H])([H])C([H])([H])[H])c([H])c([H])c2C1([H])[H]

> <Step>
171.0

> <Scaffold>
O=C(NC1CCCc2ccccc21)C1Cc2ccc(OCc3cnc(C4CCN(C(=O)N5CCCC(n6ccc(-c7ccc(Oc8ccccc8)cc7)n6)C5)CC4)c(C4CC4)c3)cc2CN1

> <SMILES>
CCc1c(COc2ccc3c(c2)CN(C(=O)C(NC(=O)C(C)NC)C(C)(C)C)C(C(=O)NC2CCCc4ccccc42)C3)c(C)nc(C2CCN(C(=O)N3CCCC(n4nc(-c5ccc(Oc6ccc(F)cc6F)cc5)c(C(N)=O)c4N)C3)CC2)c1C1CC1

> <Tanimoto ROCS sim>
0.3240048885345459

> <Custom alerts>
1.0

> <Linker Num Aromatic Rings>
1.0

> <Linker Effective Length>
1.0

> <ADV>
0.990631639957428

> <PostDock Tanimoto ROCS sim>
0.9951789975166321

> <raw_Linker Num Aromatic Rings>
1.0

> <raw_Linker Effective Length>
8.0

> <raw_ADV>
-13.097000122070312

> <total_score>
0.9964526295661926

> <ID>
default_job_82

> <PostDock Tanimoto ROCS sim (re-score)>
0.9423168

> <raw_ADV (re-score)>
-14.095

> <Final Intermolecular Energy>
-29.339

> <Final Total Internal Energy>
-2.948

> <Torsional Free Energy>
15.244

> <Unbound System's Energy>
-2.948

$$$$
default_job_83
     RDKit          3D

 91100  0  0  1  0  0  0  0  0999 V2000
  -30.3160  -20.5740   18.4100 C   0  0  0  0  0  3  0  0  0  0  0  0
  -29.7800  -21.7520   18.9580 C   0  0  0  0  0  3  0  0  0  0  0  0
  -30.5810  -19.4900   19.2610 C   0  0  0  0  0  3  0  0  0  0  0  0
  -29.5420  -21.8090   20.3450 C   0  0  0  0  0  0  0  0  0  0  0  0
  -30.2960  -19.6190   20.6370 C   0  0  0  0  0  0  0  0  0  0  0  0
  -29.8000  -20.7600   21.1610 N   0  0  0  0  0  0  0  0  0  0  0  0
  -28.9480  -23.0420   21.0230 C   0  0  0  0  0  2  0  0  0  0  0  0
  -28.9800  -24.3550   20.2070 C   0  0  0  0  0  2  0  0  0  0  0  0
  -28.4340  -25.5500   21.0080 C   0  0  0  0  0  2  0  0  0  0  0  0
  -28.4840  -26.7560   20.2430 O   0  0  0  0  0  0  0  0  0  0  0  0
  -24.5960  -31.8920   23.2600 C   0  0  0  0  0  0  0  0  0  0  0  0
  -27.3120  -27.4710   20.2360 C   0  0  0  0  0  0  0  0  0  0  0  0
  -23.4200  -30.4720   21.6110 C   0  0  0  0  0  3  0  0  0  0  0  0
  -24.9030  -28.9380   20.2140 C   0  0  0  0  0  0  0  0  0  0  0  0
  -25.9430  -30.8520   21.4430 C   0  0  0  0  0  2  0  0  0  0  0  0
  -26.0480  -29.4800   20.8120 C   0  0  0  0  0  0  0  0  0  0  0  0
  -27.2590  -28.7550   20.8180 C   0  0  0  0  0  3  0  0  0  0  0  0
  -26.1530  -26.9310   19.6390 C   0  0  0  0  0  3  0  0  0  0  0  0
  -24.9480  -27.6600   19.6260 C   0  0  0  0  0  3  0  0  0  0  0  0
  -23.6520  -29.7860   20.2380 C   0  0  0  0  0  2  0  0  0  0  0  0
  -24.6720  -31.0820   22.1670 N   0  0  0  0  0  0  0  0  0  0  0  0
  -23.5020  -32.1840   23.7610 O   0  0  0  0  0  0  0  0  0  0  0  0
  -22.7610  -29.4510   22.5650 C   0  0  0  0  0  0  0  0  0  0  0  0
  -21.4390  -29.2660   22.4210 N   0  0  0  0  0  0  0  0  0  0  0  0
  -23.4360  -28.8270   23.3880 O   0  0  0  0  0  0  0  0  0  0  0  0
  -20.9570  -29.8200   21.7270 H   0  0  0  0  0  0  0  0  0  0  0  0
  -18.0590  -28.0780   22.8750 C   0  0  0  0  0  0  0  0  0  0  0  0
  -20.6130  -28.3270   23.1800 C   0  0  0  0  0  3  0  0  0  0  0  0
  -20.7210  -26.8980   22.5980 C   0  0  0  0  0  2  0  0  0  0  0  0
  -19.6290  -26.5820   21.5700 C   0  0  0  0  0  2  0  0  0  0  0  0
  -18.2400  -26.7290   22.1980 C   0  0  0  0  0  2  0  0  0  0  0  0
  -19.1740  -28.8340   23.3220 C   0  0  0  0  0  0  0  0  0  0  0  0
  -18.9520  -30.0970   23.9130 C   0  0  0  0  0  3  0  0  0  0  0  0
  -17.6480  -30.6020   24.0650 C   0  0  0  0  0  3  0  0  0  0  0  0
  -16.5460  -29.8410   23.6360 C   0  0  0  0  0  3  0  0  0  0  0  0
  -16.7520  -28.5810   23.0470 C   0  0  0  0  0  3  0  0  0  0  0  0
  -25.8730  -32.5180   23.9060 C   0  0  0  0  0  3  0  0  0  0  0  0
  -26.3690  -31.7500   25.1920 C   0  0  1  0  0  0  0  0  0  0  0  0
  -25.2570  -31.5130   26.2390 C   0  0  0  0  0  1  0  0  0  0  0  0
  -26.9610  -30.3730   24.8090 C   0  0  0  0  0  1  0  0  0  0  0  0
  -27.5080  -32.5460   25.8730 C   0  0  0  0  0  1  0  0  0  0  0  0
  -25.5620  -33.9170   24.2240 N   0  0  0  0  0  0  0  0  0  0  0  0
  -25.9000  -34.9620   23.4580 C   0  0  0  0  0  0  0  0  0  0  0  0
  -26.5800  -34.8510   22.4340 O   0  0  0  0  0  0  0  0  0  0  0  0
  -24.9550  -34.0780   25.0150 H   0  0  0  0  0  0  0  0  0  0  0  0
  -24.1680  -36.7440   23.0730 C   0  0  0  0  0  1  0  0  0  0  0  0
  -25.4040  -36.3530   23.8980 C   0  0  0  0  0  3  0  0  0  0  0  0
  -27.5280  -37.2520   24.7380 C   0  0  0  0  0  1  0  0  0  0  0  0
  -26.4340  -37.4080   23.7830 N   0  0  0  0  0  0  0  0  0  0  0  0
  -26.0230  -38.3280   23.9180 H   0  0  0  0  0  0  0  0  0  0  0  0
  -30.4790  -18.6200   21.5720 O   0  0  0  0  0  0  0  0  0  0  0  0
  -30.7010  -14.4060   20.4460 C   0  0  0  0  0  0  0  0  0  0  0  0
  -30.3380  -12.3170   19.1900 C   0  0  0  0  0  2  0  0  0  0  0  0
  -29.3850  -12.5840   18.0080 C   0  0  0  0  0  2  0  0  0  0  0  0
  -27.9160  -12.4540   18.4530 C   0  0  0  0  0  2  0  0  0  0  0  0
  -27.6060  -13.2600   19.7430 C   0  0  0  0  0  3  0  0  0  0  0  0
  -28.6650  -12.9710   20.8300 C   0  0  0  0  0  2  0  0  0  0  0  0
  -29.9940  -13.2610   20.2640 N   0  0  0  0  0  0  0  0  0  0  0  0
  -31.7930  -14.6210   19.9110 O   0  0  0  0  0  0  0  0  0  0  0  0
  -30.7900  -16.2220   22.1410 C   0  0  0  0  0  2  0  0  0  0  0  0
  -29.5860  -16.5760   20.5090 C   0  0  0  0  0  2  0  0  0  0  0  0
  -30.7900  -17.3170   21.0820 C   0  0  0  0  0  3  0  0  0  0  0  0
  -30.0830  -15.3600   21.1750 N   0  0  0  0  0  0  0  0  0  0  0  0
  -25.2160  -13.8900   20.4640 C   0  0  0  0  0  0  0  0  0  0  0  0
  -24.1430  -13.1280   20.8390 C   0  0  0  0  0  0  0  0  0  0  0  0
  -24.5920  -11.7720   20.8060 C   0  0  0  0  0  0  0  0  0  0  0  0
  -26.2520  -13.0000   20.2270 N   0  0  0  0  0  0  0  0  0  0  0  0
  -25.8790  -11.7210   20.4860 N   0  0  0  0  0  0  0  0  0  0  0  0
  -23.8580  -10.5150   21.0050 C   0  0  0  0  0  0  0  0  0  0  0  0
  -24.2890   -9.5500   21.9410 C   0  0  0  0  0  3  0  0  0  0  0  0
  -23.5580   -8.3570   22.1270 C   0  0  0  0  0  3  0  0  0  0  0  0
  -22.3830   -8.1210   21.3770 C   0  0  0  0  0  0  0  0  0  0  0  0
  -21.9700   -9.0750   20.4310 C   0  0  0  0  0  3  0  0  0  0  0  0
  -22.7010  -10.2600   20.2430 C   0  0  0  0  0  3  0  0  0  0  0  0
  -21.6230   -6.9790   21.4700 O   0  0  0  0  0  0  0  0  0  0  0  0
  -21.5760   -6.2400   22.6250 C   0  0  0  0  0  0  0  0  0  0  0  0
  -21.1540   -6.7990   23.8510 C   0  0  0  0  0  3  0  0  0  0  0  0
  -21.0510   -5.9870   24.9980 C   0  0  0  0  0  3  0  0  0  0  0  0
  -21.3600   -4.6160   24.9200 C   0  0  0  0  0  0  0  0  0  0  0  0
  -21.7770   -4.0560   23.6990 C   0  0  0  0  0  3  0  0  0  0  0  0
  -21.8820   -4.8660   22.5550 C   0  0  0  0  0  0  0  0  0  0  0  0
  -22.2620   -4.3170   21.3760 F   0  0  0  0  0  0  0  0  0  0  0  0
  -21.2550   -3.8340   26.0200 F   0  0  0  0  0  0  0  0  0  0  0  0
  -22.7510  -13.6160   21.1220 C   0  0  0  0  0  0  0  0  0  0  0  0
  -22.0230  -12.9250   21.9920 N   0  0  0  0  0  0  0  0  0  0  0  0
  -22.3160  -14.6440   20.6050 O   0  0  0  0  0  0  0  0  0  0  0  0
  -22.3890  -12.0980   22.4380 H   0  0  0  0  0  0  0  0  0  0  0  0
  -21.0890  -13.2360   22.2200 H   0  0  0  0  0  0  0  0  0  0  0  0
  -25.3910  -15.2590   20.2850 N   0  0  0  0  0  0  0  0  0  0  0  0
  -24.6330  -15.9220   20.4020 H   0  0  0  0  0  0  0  0  0  0  0  0
  -26.2490  -15.6910   19.9660 H   0  0  0  0  0  0  0  0  0  0  0  0
  1  2  1  0
  1  3  2  0
  2  4  2  0
  3  5  1  0
  4  7  1  0
  4  6  1  0
  5  6  2  0
  5 51  1  0
  8  9  1  0
  8  7  1  0
 10  9  1  0
 11 22  2  0
 12 10  1  0
 12 17  1  0
 13 21  1  0
 13 23  1  0
 14 20  1  0
 14 16  1  0
 15 21  1  0
 16 17  2  0
 16 15  1  0
 18 12  2  0
 19 18  1  0
 19 14  2  0
 20 13  1  0
 21 11  1  0
 23 25  2  0
 24 23  1  0
 26 24  1  0
 27 36  2  0
 27 32  1  0
 28 24  1  0
 28 32  1  0
 29 28  1  0
 30 31  1  0
 30 29  1  0
 31 27  1  0
 32 33  2  0
 33 34  1  0
 35 34  2  0
 36 35  1  0
 37 11  1  0
 37 42  1  0
 37 38  1  0
 38 41  1  1
 38 39  1  0
 40 38  1  0
 42 45  1  0
 43 47  1  0
 43 42  1  0
 44 43  2  0
 47 46  1  0
 49 47  1  0
 49 50  1  0
 49 48  1  0
 52 63  1  0
 53 58  1  0
 54 55  1  0
 54 53  1  0
 56 55  1  0
 56 67  1  0
 56 57  1  0
 58 52  1  0
 58 57  1  0
 59 52  2  0
 61 62  1  0
 61 63  1  0
 62 51  1  0
 62 60  1  0
 63 60  1  0
 64 65  2  0
 65 84  1  0
 66 65  1  0
 66 69  1  0
 67 64  1  0
 67 68  1  0
 68 66  2  0
 69 70  1  0
 70 71  2  0
 72 75  1  0
 72 71  1  0
 73 72  2  0
 74 73  1  0
 74 69  2  0
 75 76  1  0
 76 77  1  0
 77 78  2  0
 79 78  1  0
 79 83  1  0
 80 79  2  0
 81 76  2  0
 81 80  1  0
 82 81  1  0
 84 85  1  0
 85 88  1  0
 85 87  1  0
 86 84  2  0
 89 90  1  0
 89 64  1  0
 91 89  1  0
M  ISO  4   9 101  10 101  52 100  63 100
M  END
>  <TORSDO>  (84) 
F 20

>  <SCORE>  (84) 
-14.075

>  <name>  (84) 
83

>  <ligand_id>  (84) 
83

>  <original_smiles>  (84) 
[H]c1c(OC2([H])C([H])([H])N(C(=O)N3C([H])([H])C([H])([H])C([H])([H])C([H])(n4nc(-c5c([H])c([H])c(Oc6c([H])c([H])c(F)c([H])c6F)c([H])c5[H])c(C(=O)N([H])[H])c4N([H])[H])C3([H])[H])C2([H])[H])nc(C([H])([H])C([H])([H])C([H])([H])Oc2c([H])c([H])c3c(c2[H])C([H])([H])N(C(=O)C([H])(N([H])C(=O)C([H])(N([H])C([H])([H])[H])C([H])([H])[H])C(C([H])([H])[H])(C([H])([H])[H])C([H])([H])[H])C([H])(C(=O)N([H])C2([H])c4c([H])c([H])c([H])c([H])c4C([H])([H])C([H])([H])C2([H])[H])C3([H])[H])c([H])c1[H]

>  <smiles>  (84) 
[H]c1c(OC2([H])C([H])([H])N(C(=O)N3C([H])([H])C([H])([H])C([H])([H])C([H])(n4nc(-c5c([H])c([H])c(Oc6c([H])c([H])c(F)c([H])c6F)c([H])c5[H])c(C(=O)N([H])[H])c4N([H])[H])C3([H])[H])C2([H])[H])nc(C([H])([H])C([H])([H])C([H])([H])Oc2c([H])c([H])c3c(c2[H])C([H])([H])N(C(=O)C([H])(N([H])C(=O)C([H])(N([H])C([H])([H])[H])C([H])([H])[H])C(C([H])([H])[H])(C([H])([H])[H])C([H])([H])[H])C([H])(C(=O)N([H])C2([H])c4c([H])c([H])c([H])c([H])c4C([H])([H])C([H])([H])C2([H])[H])C3([H])[H])c([H])c1[H]

> <Step>
199.0

> <Scaffold>
O=C(NC1CCCc2ccccc21)C1Cc2ccc(OCCCc3cccc(OC4CN(C(=O)N5CCCC(n6ccc(-c7ccc(Oc8ccccc8)cc7)n6)C5)C4)n3)cc2CN1

> <SMILES>
CNC(C)C(=O)NC(C(=O)N1Cc2cc(OCCCc3cccc(OC4CN(C(=O)N5CCCC(n6nc(-c7ccc(Oc8ccc(F)cc8F)cc7)c(C(N)=O)c6N)C5)C4)n3)ccc2CC1C(=O)NC1CCCc2ccccc21)C(C)(C)C

> <Tanimoto ROCS sim>
0.22475363314151764

> <Custom alerts>
1.0

> <Linker Num Aromatic Rings>
1.0

> <Linker Effective Length>
1.0

> <ADV>
0.9946399927139282

> <PostDock Tanimoto ROCS sim>
0.9911631941795349

> <raw_Linker Num Aromatic Rings>
1.0

> <raw_Linker Effective Length>
9.0

> <raw_ADV>
-14.074000358581543

> <total_score>
0.9964507818222046

> <ID>
default_job_83

> <PostDock Tanimoto ROCS sim (re-score)>
0.980312

> <raw_ADV (re-score)>
-14.075

> <Final Intermolecular Energy>
-30.119

> <Final Total Internal Energy>
-2.841

> <Torsional Free Energy>
16.045

> <Unbound System's Energy>
-2.841

$$$$
default_job_84
     RDKit          3D

 93102  0  0  1  0  0  0  0  0999 V2000
  -29.9580  -24.8700   19.5530 C   0  0  0  0  0  2  0  0  0  0  0  0
  -27.8580  -24.2300   20.6290 C   0  0  0  0  0  2  0  0  0  0  0  0
  -30.1040  -23.4400   18.9680 C   0  0  0  0  0  2  0  0  0  0  0  0
  -27.9930  -22.7810   20.0630 C   0  0  0  0  0  2  0  0  0  0  0  0
  -28.4850  -25.2910   19.6920 C   0  0  0  0  0  3  0  0  0  0  0  0
  -29.3950  -22.3650   19.7330 N   0  0  1  0  0  4  0  0  0  0  0  0
  -29.8990  -22.2290   20.5970 H   0  0  0  0  0  0  0  0  0  0  0  0
  -28.4240  -26.6590   20.1780 O   0  0  0  0  0  0  0  0  0  0  0  0
  -24.6290  -31.8840   23.2380 C   0  0  0  0  0  0  0  0  0  0  0  0
  -27.2410  -27.3910   20.1490 C   0  0  0  0  0  0  0  0  0  0  0  0
  -23.4110  -30.4800   21.6090 C   0  0  0  0  0  3  0  0  0  0  0  0
  -24.8510  -28.9350   20.1740 C   0  0  0  0  0  0  0  0  0  0  0  0
  -25.9410  -30.8160   21.4050 C   0  0  0  0  0  2  0  0  0  0  0  0
  -26.0160  -29.4450   20.7590 C   0  0  0  0  0  0  0  0  0  0  0  0
  -27.2100  -28.6810   20.7410 C   0  0  0  0  0  3  0  0  0  0  0  0
  -26.0520  -26.9060   19.5560 C   0  0  0  0  0  3  0  0  0  0  0  0
  -24.8660  -27.6670   19.5690 C   0  0  0  0  0  3  0  0  0  0  0  0
  -23.6110  -29.7990   20.2290 C   0  0  0  0  0  2  0  0  0  0  0  0
  -24.6800  -31.0720   22.1440 N   0  0  0  0  0  0  0  0  0  0  0  0
  -23.5450  -32.1830   23.7590 O   0  0  0  0  0  0  0  0  0  0  0  0
  -22.7590  -29.4620   22.5740 C   0  0  0  0  0  0  0  0  0  0  0  0
  -21.4360  -29.2720   22.4420 N   0  0  0  0  0  0  0  0  0  0  0  0
  -23.4420  -28.8450   23.3960 O   0  0  0  0  0  0  0  0  0  0  0  0
  -20.9460  -29.8230   21.7500 H   0  0  0  0  0  0  0  0  0  0  0  0
  -18.0680  -28.0440   22.9130 C   0  0  0  0  0  0  0  0  0  0  0  0
  -20.6200  -28.3330   23.2120 C   0  0  0  0  0  3  0  0  0  0  0  0
  -20.7440  -26.8970   22.6490 C   0  0  0  0  0  2  0  0  0  0  0  0
  -19.6590  -26.5540   21.6260 C   0  0  0  0  0  2  0  0  0  0  0  0
  -18.2670  -26.6900   22.2520 C   0  0  0  0  0  2  0  0  0  0  0  0
  -19.1740  -28.8220   23.3490 C   0  0  0  0  0  0  0  0  0  0  0  0
  -18.9350  -30.0880   23.9250 C   0  0  0  0  0  3  0  0  0  0  0  0
  -17.6230  -30.5770   24.0710 C   0  0  0  0  0  3  0  0  0  0  0  0
  -16.5320  -29.7960   23.6520 C   0  0  0  0  0  3  0  0  0  0  0  0
  -16.7550  -28.5320   23.0790 C   0  0  0  0  0  3  0  0  0  0  0  0
  -25.9200  -32.5010   23.8620 C   0  0  0  0  0  3  0  0  0  0  0  0
  -25.6190  -33.8970   24.2060 N   0  0  0  0  0  0  0  0  0  0  0  0
  -25.9380  -34.9530   23.4450 C   0  0  0  0  0  0  0  0  0  0  0  0
  -26.5900  -34.8530   22.4020 O   0  0  0  0  0  0  0  0  0  0  0  0
  -25.0370  -34.0480   25.0160 H   0  0  0  0  0  0  0  0  0  0  0  0
  -24.1980  -36.7420   23.1310 C   0  0  0  0  0  1  0  0  0  0  0  0
  -25.4560  -36.3390   23.9150 C   0  0  0  0  0  3  0  0  0  0  0  0
  -27.6040  -37.2270   24.7050 C   0  0  0  0  0  1  0  0  0  0  0  0
  -26.4830  -37.3940   23.7850 N   0  0  0  0  0  0  0  0  0  0  0  0
  -26.0770  -38.3130   23.9440 H   0  0  0  0  0  0  0  0  0  0  0  0
  -26.4430  -31.7180   25.1300 C   0  0  1  0  0  0  0  0  0  0  0  0
  -25.3530  -31.4720   26.1990 C   0  0  0  0  0  1  0  0  0  0  0  0
  -27.0250  -30.3450   24.7240 C   0  0  0  0  0  1  0  0  0  0  0  0
  -27.5970  -32.5070   25.7930 C   0  0  0  0  0  1  0  0  0  0  0  0
  -29.4620  -21.0610   18.9780 C   0  0  0  0  0  2  0  0  0  0  0  0
  -30.8810  -19.0440   19.7150 C   0  0  0  0  0  3  0  0  0  0  0  0
  -28.5210  -19.0080   20.2430 C   0  0  0  0  0  3  0  0  0  0  0  0
  -31.0000  -17.6890   20.1170 C   0  0  0  0  0  3  0  0  0  0  0  0
  -28.6420  -17.6560   20.6570 C   0  0  0  0  0  3  0  0  0  0  0  0
  -29.6320  -19.7150   19.7270 C   0  0  0  0  0  0  0  0  0  0  0  0
  -29.8690  -16.9540   20.5550 C   0  0  0  0  0  0  0  0  0  0  0  0
  -30.6360  -14.5380   20.3790 C   0  0  0  0  0  0  0  0  0  0  0  0
  -30.3690  -12.3540   19.2510 C   0  0  0  0  0  2  0  0  0  0  0  0
  -29.4180  -12.5590   18.0500 C   0  0  0  0  0  2  0  0  0  0  0  0
  -27.9450  -12.4230   18.4840 C   0  0  0  0  0  2  0  0  0  0  0  0
  -27.6170  -13.2530   19.7540 C   0  0  0  0  0  3  0  0  0  0  0  0
  -28.6770  -13.0190   20.8550 C   0  0  0  0  0  2  0  0  0  0  0  0
  -29.9970  -13.3350   20.2850 N   0  0  0  0  0  0  0  0  0  0  0  0
  -31.7720  -14.7120   19.9260 O   0  0  0  0  0  0  0  0  0  0  0  0
  -29.8830  -15.5480   20.8860 N   0  0  0  0  0  0  0  0  0  0  0  0
  -29.0290  -15.2100   21.3000 H   0  0  0  0  0  0  0  0  0  0  0  0
  -25.2240  -13.8750   20.4650 C   0  0  0  0  0  0  0  0  0  0  0  0
  -24.1540  -13.1100   20.8430 C   0  0  0  0  0  0  0  0  0  0  0  0
  -24.6070  -11.7550   20.8150 C   0  0  0  0  0  0  0  0  0  0  0  0
  -26.2630  -12.9870   20.2360 N   0  0  0  0  0  0  0  0  0  0  0  0
  -25.8960  -11.7080   20.5020 N   0  0  0  0  0  0  0  0  0  0  0  0
  -23.8730  -10.4980   21.0110 C   0  0  0  0  0  0  0  0  0  0  0  0
  -24.2990   -9.5340   21.9520 C   0  0  0  0  0  3  0  0  0  0  0  0
  -23.5670   -8.3400   22.1340 C   0  0  0  0  0  3  0  0  0  0  0  0
  -22.3960   -8.1030   21.3760 C   0  0  0  0  0  0  0  0  0  0  0  0
  -21.9900   -9.0550   20.4240 C   0  0  0  0  0  3  0  0  0  0  0  0
  -22.7220  -10.2400   20.2410 C   0  0  0  0  0  3  0  0  0  0  0  0
  -21.6360   -6.9620   21.4690 O   0  0  0  0  0  0  0  0  0  0  0  0
  -21.5740   -6.2300   22.6270 C   0  0  0  0  0  0  0  0  0  0  0  0
  -21.1300   -6.7940   23.8430 C   0  0  0  0  0  3  0  0  0  0  0  0
  -21.0180   -5.9880   24.9940 C   0  0  0  0  0  3  0  0  0  0  0  0
  -21.3380   -4.6190   24.9290 C   0  0  0  0  0  0  0  0  0  0  0  0
  -21.7750   -4.0540   23.7180 C   0  0  0  0  0  3  0  0  0  0  0  0
  -21.8900   -4.8570   22.5690 C   0  0  0  0  0  0  0  0  0  0  0  0
  -22.2910   -4.3040   21.4000 F   0  0  0  0  0  0  0  0  0  0  0  0
  -21.2230   -3.8420   26.0310 F   0  0  0  0  0  0  0  0  0  0  0  0
  -22.7600  -13.5950   21.1180 C   0  0  0  0  0  0  0  0  0  0  0  0
  -22.0290  -12.9060   21.9890 N   0  0  0  0  0  0  0  0  0  0  0  0
  -22.3260  -14.6220   20.5970 O   0  0  0  0  0  0  0  0  0  0  0  0
  -22.3910  -12.0750   22.4330 H   0  0  0  0  0  0  0  0  0  0  0  0
  -21.0950  -13.2160   22.2150 H   0  0  0  0  0  0  0  0  0  0  0  0
  -25.3960  -15.2430   20.2790 N   0  0  0  0  0  0  0  0  0  0  0  0
  -24.6260  -15.8960   20.3710 H   0  0  0  0  0  0  0  0  0  0  0  0
  -26.2310  -15.6640   19.8920 H   0  0  0  0  0  0  0  0  0  0  0  0
  1  5  1  0
  3  1  1  0
  3  6  1  0
  4  2  1  0
  5  8  1  0
  5  2  1  0
  6  4  1  0
  6  7  1  1
  9 20  2  0
 10  8  1  0
 10 15  1  0
 11 19  1  0
 11 21  1  0
 12 18  1  0
 12 14  1  0
 13 19  1  0
 14 13  1  0
 15 14  2  0
 16 17  1  0
 16 10  2  0
 17 12  2  0
 18 11  1  0
 19  9  1  0
 21 23  2  0
 22 21  1  0
 24 22  1  0
 25 34  2  0
 25 30  1  0
 26 22  1  0
 26 30  1  0
 27 26  1  0
 28 29  1  0
 28 27  1  0
 29 25  1  0
 30 31  2  0
 31 32  1  0
 33 32  2  0
 34 33  1  0
 35  9  1  0
 35 36  1  0
 35 45  1  0
 36 39  1  0
 37 41  1  0
 37 36  1  0
 38 37  2  0
 41 40  1  0
 43 41  1  0
 43 44  1  0
 43 42  1  0
 45 48  1  1
 45 46  1  0
 47 45  1  0
 49 54  1  0
 49  6  1  0
 50 54  2  0
 50 52  1  0
 51 53  2  0
 52 55  2  0
 54 51  1  0
 55 53  1  0
 55 64  1  0
 56 64  1  0
 57 62  1  0
 58 59  1  0
 58 57  1  0
 60 59  1  0
 60 69  1  0
 60 61  1  0
 62 56  1  0
 62 61  1  0
 63 56  2  0
 64 65  1  0
 66 67  2  0
 67 86  1  0
 68 67  1  0
 68 71  1  0
 69 66  1  0
 69 70  1  0
 70 68  2  0
 71 72  1  0
 72 73  2  0
 74 77  1  0
 74 73  1  0
 75 74  2  0
 76 75  1  0
 76 71  2  0
 77 78  1  0
 78 79  1  0
 79 80  2  0
 81 80  1  0
 81 85  1  0
 82 81  2  0
 83 78  2  0
 83 82  1  0
 84 83  1  0
 86 87  1  0
 87 90  1  0
 87 89  1  0
 88 86  2  0
 91 92  1  0
 91 66  1  0
 93 91  1  0
M  ISO  4   5 101   8 101  56 100  64 100
M  END
>  <TORSDO>  (85) 
F 18

>  <SCORE>  (85) 
-14.761

>  <name>  (85) 
84

>  <ligand_id>  (85) 
84

>  <original_smiles>  (85) 
[H]c1c([H])c([H])c2c(c1[H])C([H])([H])C([H])([H])C([H])([H])C2([H])N([H])C(=O)C1([H])N(C(=O)C([H])(N([H])C(=O)C([H])(N([H])C([H])([H])[H])C([H])([H])[H])C(C([H])([H])[H])(C([H])([H])[H])C([H])([H])[H])C([H])([H])c2c([H])c(OC3([H])C([H])([H])C([H])([H])[N+]([H])(C([H])([H])c4c([H])c([H])c(N([H])C(=O)N5C([H])([H])C([H])([H])C([H])([H])C([H])(n6nc(-c7c([H])c([H])c(Oc8c([H])c([H])c(F)c([H])c8F)c([H])c7[H])c(C(=O)N([H])[H])c6N([H])[H])C5([H])[H])c([H])c4[H])C([H])([H])C3([H])[H])c([H])c([H])c2C1([H])[H]

>  <smiles>  (85) 
[H]c1c([H])c([H])c2c(c1[H])C([H])([H])C([H])([H])C([H])([H])C2([H])N([H])C(=O)C1([H])N(C(=O)C([H])(N([H])C(=O)C([H])(N([H])C([H])([H])[H])C([H])([H])[H])C(C([H])([H])[H])(C([H])([H])[H])C([H])([H])[H])C([H])([H])c2c([H])c(OC3([H])C([H])([H])C([H])([H])[N+]([H])(C([H])([H])c4c([H])c([H])c(N([H])C(=O)N5C([H])([H])C([H])([H])C([H])([H])C([H])(n6nc(-c7c([H])c([H])c(Oc8c([H])c([H])c(F)c([H])c8F)c([H])c7[H])c(C(=O)N([H])[H])c6N([H])[H])C5([H])[H])c([H])c4[H])C([H])([H])C3([H])[H])c([H])c([H])c2C1([H])[H]

> <Step>
127.0

> <Scaffold>
O=C(NC1CCCc2ccccc21)C1Cc2ccc(OC3CCN(Cc4ccc(NC(=O)N5CCCC(n6ccc(-c7ccc(Oc8ccccc8)cc7)n6)C5)cc4)CC3)cc2CN1

> <SMILES>
CNC(C)C(=O)NC(C(=O)N1Cc2cc(OC3CCN(Cc4ccc(NC(=O)N5CCCC(n6nc(-c7ccc(Oc8ccc(F)cc8F)cc7)c(C(N)=O)c6N)C5)cc4)CC3)ccc2CC1C(=O)NC1CCCc2ccccc21)C(C)(C)C

> <Tanimoto ROCS sim>
0.25435808300971985

> <Custom alerts>
1.0

> <Linker Num Aromatic Rings>
1.0

> <Linker Effective Length>
1.0

> <ADV>
0.9963300824165344

> <PostDock Tanimoto ROCS sim>
0.9894541501998901

> <raw_Linker Num Aromatic Rings>
1.0

> <raw_Linker Effective Length>
9.0

> <raw_ADV>
-14.734999656677246

> <total_score>
0.9964460134506226

> <ID>
default_job_84

> <PostDock Tanimoto ROCS sim (re-score)>
0.9803636

> <raw_ADV (re-score)>
-14.761

> <Final Intermolecular Energy>
-29.862

> <Final Total Internal Energy>
-2.776

> <Torsional Free Energy>
15.101

> <Unbound System's Energy>
-2.776

$$$$
default_job_85
     RDKit          3D

 97106  0  0  1  0  0  0  0  0999 V2000
  -29.5580  -21.4570   20.8390 C   0  0  0  0  0  3  0  0  0  0  0  0
  -28.6620  -22.1890   18.9490 C   0  0  0  0  0  3  0  0  0  0  0  0
  -29.1500  -22.6540   20.1370 C   0  0  0  0  0  0  0  0  0  0  0  0
  -29.3590  -20.3280   20.0590 C   0  0  0  0  0  0  0  0  0  0  0  0
  -28.7810  -20.8060   18.8800 N   0  0  0  0  0  0  0  0  0  0  0  0
  -30.6940  -14.6530   20.4390 C   0  0  0  0  0  0  0  0  0  0  0  0
  -30.3390  -12.4360   19.3760 C   0  0  0  0  0  2  0  0  0  0  0  0
  -29.4100  -12.5460   18.1530 C   0  0  0  0  0  2  0  0  0  0  0  0
  -27.9440  -12.3740   18.5830 C   0  0  0  0  0  2  0  0  0  0  0  0
  -27.5790  -13.2600   19.8010 C   0  0  0  0  0  3  0  0  0  0  0  0
  -28.6430  -13.1780   20.9240 C   0  0  0  0  0  2  0  0  0  0  0  0
  -29.9450  -13.5020   20.3270 N   0  0  0  0  0  0  0  0  0  0  0  0
  -31.8770  -14.6200   20.0930 O   0  0  0  0  0  0  0  0  0  0  0  0
  -30.6490  -18.4300   21.3610 C   0  0  0  0  0  2  0  0  0  0  0  0
  -28.4930  -17.8830   20.4860 C   0  0  0  0  0  2  0  0  0  0  0  0
  -31.1200  -16.9400   21.2720 C   0  0  0  0  0  2  0  0  0  0  0  0
  -28.8360  -16.3630   20.3530 C   0  0  0  0  0  2  0  0  0  0  0  0
  -29.6870  -18.8230   20.2340 C   0  0  0  0  0  3  0  0  0  0  0  0
  -30.1530  -15.8720   20.8420 N   0  0  0  0  0  0  0  0  0  0  0  0
  -25.1960  -13.8760   20.5260 C   0  0  0  0  0  0  0  0  0  0  0  0
  -24.1260  -13.1090   20.8960 C   0  0  0  0  0  0  0  0  0  0  0  0
  -24.5830  -11.7550   20.8670 C   0  0  0  0  0  0  0  0  0  0  0  0
  -26.2360  -12.9880   20.2940 N   0  0  0  0  0  0  0  0  0  0  0  0
  -25.8730  -11.7090   20.5620 N   0  0  0  0  0  0  0  0  0  0  0  0
  -23.8510  -10.4980   21.0530 C   0  0  0  0  0  0  0  0  0  0  0  0
  -24.2760   -9.5290   21.9870 C   0  0  0  0  0  3  0  0  0  0  0  0
  -23.5440   -8.3340   22.1600 C   0  0  0  0  0  3  0  0  0  0  0  0
  -22.3740   -8.1010   21.3970 C   0  0  0  0  0  0  0  0  0  0  0  0
  -21.9710   -9.0600   20.4510 C   0  0  0  0  0  3  0  0  0  0  0  0
  -22.7030  -10.2450   20.2760 C   0  0  0  0  0  3  0  0  0  0  0  0
  -21.6130   -6.9610   21.4820 O   0  0  0  0  0  0  0  0  0  0  0  0
  -21.5510   -6.2210   22.6350 C   0  0  0  0  0  0  0  0  0  0  0  0
  -21.1000   -6.7770   23.8520 C   0  0  0  0  0  3  0  0  0  0  0  0
  -20.9860   -5.9630   24.9980 C   0  0  0  0  0  3  0  0  0  0  0  0
  -21.3120   -4.5960   24.9260 C   0  0  0  0  0  0  0  0  0  0  0  0
  -21.7580   -4.0400   23.7130 C   0  0  0  0  0  3  0  0  0  0  0  0
  -21.8740   -4.8510   22.5700 C   0  0  0  0  0  0  0  0  0  0  0  0
  -22.2830   -4.3060   21.3990 F   0  0  0  0  0  0  0  0  0  0  0  0
  -21.1950   -3.8120   26.0230 F   0  0  0  0  0  0  0  0  0  0  0  0
  -22.7310  -13.5930   21.1620 C   0  0  0  0  0  0  0  0  0  0  0  0
  -21.9970  -12.9030   22.0280 N   0  0  0  0  0  0  0  0  0  0  0  0
  -22.2990  -14.6200   20.6390 O   0  0  0  0  0  0  0  0  0  0  0  0
  -22.3620  -12.0730   22.4730 H   0  0  0  0  0  0  0  0  0  0  0  0
  -21.0610  -13.2080   22.2510 H   0  0  0  0  0  0  0  0  0  0  0  0
  -25.3610  -15.2460   20.3440 N   0  0  0  0  0  0  0  0  0  0  0  0
  -24.5900  -15.8960   20.4530 H   0  0  0  0  0  0  0  0  0  0  0  0
  -26.2050  -15.6880   20.0070 H   0  0  0  0  0  0  0  0  0  0  0  0
  -29.2910  -20.3690   16.5030 C   0  0  0  0  0  1  0  0  0  0  0  0
  -26.9020  -20.2360   17.3760 C   0  0  0  0  0  1  0  0  0  0  0  0
  -28.3900  -20.0330   17.7000 C   0  0  0  0  0  3  0  0  0  0  0  0
  -29.2800  -24.1510   20.5560 C   0  0  0  0  0  3  0  0  0  0  0  0
  -30.6260  -24.6190   20.1900 N   0  0  0  0  0  4  0  0  0  0  0  0
  -30.7620  -24.5800   19.1950 H   0  0  0  0  0  0  0  0  0  0  0  0
  -31.3240  -24.0460   20.6290 H   0  0  0  0  0  0  0  0  0  0  0  0
  -30.7520  -25.5690   20.4930 H   0  0  0  0  0  0  0  0  0  0  0  0
  -28.1950  -25.1360   19.9740 C   0  0  0  0  0  2  0  0  0  0  0  0
  -28.3580  -26.5670   20.2700 O   0  0  0  0  0  0  0  0  0  0  0  0
  -24.6230  -31.9150   23.2670 C   0  0  0  0  0  0  0  0  0  0  0  0
  -27.2250  -27.3840   20.2000 C   0  0  0  0  0  0  0  0  0  0  0  0
  -23.4120  -30.5140   21.6330 C   0  0  0  0  0  3  0  0  0  0  0  0
  -24.8570  -28.9710   20.1980 C   0  0  0  0  0  0  0  0  0  0  0  0
  -25.9490  -30.8350   21.4460 C   0  0  0  0  0  2  0  0  0  0  0  0
  -26.0240  -29.4630   20.7960 C   0  0  0  0  0  0  0  0  0  0  0  0
  -27.2100  -28.6780   20.7910 C   0  0  0  0  0  3  0  0  0  0  0  0
  -26.0390  -26.9430   19.5650 C   0  0  0  0  0  3  0  0  0  0  0  0
  -24.8640  -27.7150   19.5750 C   0  0  0  0  0  3  0  0  0  0  0  0
  -23.6200  -29.8420   20.2510 C   0  0  0  0  0  2  0  0  0  0  0  0
  -24.6800  -31.1000   22.1740 N   0  0  0  0  0  0  0  0  0  0  0  0
  -23.5360  -32.2190   23.7780 O   0  0  0  0  0  0  0  0  0  0  0  0
  -22.7520  -29.4940   22.5910 C   0  0  0  0  0  0  0  0  0  0  0  0
  -21.4270  -29.3150   22.4610 N   0  0  0  0  0  0  0  0  0  0  0  0
  -23.4310  -28.8670   23.4090 O   0  0  0  0  0  0  0  0  0  0  0  0
  -20.9390  -29.8730   21.7730 H   0  0  0  0  0  0  0  0  0  0  0  0
  -18.0470  -28.1280   22.9560 C   0  0  0  0  0  0  0  0  0  0  0  0
  -20.6060  -28.3770   23.2290 C   0  0  0  0  0  3  0  0  0  0  0  0
  -20.7030  -26.9480   22.6490 C   0  0  0  0  0  2  0  0  0  0  0  0
  -19.6000  -26.6310   21.6330 C   0  0  0  0  0  2  0  0  0  0  0  0
  -18.2180  -26.7800   22.2780 C   0  0  0  0  0  2  0  0  0  0  0  0
  -19.1680  -28.8850   23.3880 C   0  0  0  0  0  0  0  0  0  0  0  0
  -18.9530  -30.1470   23.9830 C   0  0  0  0  0  3  0  0  0  0  0  0
  -17.6500  -30.6530   24.1510 C   0  0  0  0  0  3  0  0  0  0  0  0
  -16.5430  -29.8930   23.7340 C   0  0  0  0  0  3  0  0  0  0  0  0
  -16.7420  -28.6320   23.1430 C   0  0  0  0  0  3  0  0  0  0  0  0
  -25.9110  -32.5300   23.8980 C   0  0  0  0  0  3  0  0  0  0  0  0
  -26.4200  -31.7500   25.1720 C   0  0  1  0  0  0  0  0  0  0  0  0
  -25.3220  -31.5140   26.2350 C   0  0  0  0  0  1  0  0  0  0  0  0
  -27.0000  -30.3730   24.7770 C   0  0  0  0  0  1  0  0  0  0  0  0
  -27.5720  -32.5370   25.8400 C   0  0  0  0  0  1  0  0  0  0  0  0
  -25.6110  -33.9280   24.2330 N   0  0  0  0  0  0  0  0  0  0  0  0
  -25.9240  -34.9780   23.4620 C   0  0  0  0  0  0  0  0  0  0  0  0
  -26.5690  -34.8710   22.4160 O   0  0  0  0  0  0  0  0  0  0  0  0
  -25.0370  -34.0860   25.0470 H   0  0  0  0  0  0  0  0  0  0  0  0
  -24.1760  -36.7600   23.1540 C   0  0  0  0  0  1  0  0  0  0  0  0
  -25.4460  -36.3670   23.9260 C   0  0  0  0  0  3  0  0  0  0  0  0
  -27.6010  -37.2680   24.6810 C   0  0  0  0  0  1  0  0  0  0  0  0
  -26.4690  -37.4230   23.7710 N   0  0  0  0  0  0  0  0  0  0  0  0
  -26.0640  -38.3430   23.9240 H   0  0  0  0  0  0  0  0  0  0  0  0
  2  3  2  0
  3 51  1  0
  3  1  1  0
  4  1  2  0
  5  2  1  0
  5  4  1  0
  6 19  1  0
  7 12  1  0
  8  9  1  0
  8  7  1  0
 10  9  1  0
 10 23  1  0
 10 11  1  0
 12  6  1  0
 12 11  1  0
 13  6  2  0
 16 14  1  0
 17 15  1  0
 17 19  1  0
 18  4  1  0
 18 15  1  0
 18 14  1  0
 19 16  1  0
 20 21  2  0
 21 40  1  0
 22 21  1  0
 22 25  1  0
 23 20  1  0
 23 24  1  0
 24 22  2  0
 25 26  1  0
 26 27  2  0
 28 31  1  0
 28 27  1  0
 29 28  2  0
 30 29  1  0
 30 25  2  0
 31 32  1  0
 32 33  1  0
 33 34  2  0
 35 34  1  0
 35 39  1  0
 36 35  2  0
 37 32  2  0
 37 36  1  0
 38 37  1  0
 40 41  1  0
 41 44  1  0
 41 43  1  0
 42 40  2  0
 45 46  1  0
 45 20  1  0
 47 45  1  0
 48 50  1  0
 49 50  1  0
 50  5  1  0
 51 56  1  0
 52 55  1  0
 52 51  1  0
 52 54  1  0
 53 52  1  0
 56 57  1  0
 58 69  2  0
 59 57  1  0
 59 64  1  0
 60 68  1  0
 60 70  1  0
 61 67  1  0
 61 63  1  0
 62 68  1  0
 63 62  1  0
 64 63  2  0
 65 66  1  0
 65 59  2  0
 66 61  2  0
 67 60  1  0
 68 58  1  0
 70 72  2  0
 71 70  1  0
 73 71  1  0
 74 83  2  0
 74 79  1  0
 75 71  1  0
 75 79  1  0
 76 75  1  0
 77 78  1  0
 77 76  1  0
 78 74  1  0
 79 80  2  0
 80 81  1  0
 82 81  2  0
 83 82  1  0
 84 58  1  0
 84 89  1  0
 84 85  1  0
 85 88  1  1
 85 86  1  0
 87 85  1  0
 89 92  1  0
 90 94  1  0
 90 89  1  0
 91 90  2  0
 94 93  1  0
 96 97  1  0
 96 94  1  0
 96 95  1  0
M  ISO  4   6 100  19 100  56 101  57 101
M  END
>  <TORSDO>  (86) 
F 20

>  <SCORE>  (86) 
-14.572

>  <name>  (86) 
85

>  <ligand_id>  (86) 
85

>  <original_smiles>  (86) 
[H]c1c([H])c([H])c2c(c1[H])C([H])([H])C([H])([H])C([H])([H])C2([H])N([H])C(=O)C1([H])N(C(=O)C([H])(N([H])C(=O)C([H])(N([H])C([H])([H])[H])C([H])([H])[H])C(C([H])([H])[H])(C([H])([H])[H])C([H])([H])[H])C([H])([H])c2c([H])c(OC([H])([H])C([H])(c3c([H])c(C4([H])C([H])([H])C([H])([H])N(C(=O)N5C([H])([H])C([H])([H])C([H])([H])C([H])(n6nc(-c7c([H])c([H])c(Oc8c([H])c([H])c(F)c([H])c8F)c([H])c7[H])c(C(=O)N([H])[H])c6N([H])[H])C5([H])[H])C([H])([H])C4([H])[H])n(C([H])(C([H])([H])[H])C([H])([H])[H])c3[H])[N+]([H])([H])[H])c([H])c([H])c2C1([H])[H]

>  <smiles>  (86) 
[H]c1c([H])c([H])c2c(c1[H])C([H])([H])C([H])([H])C([H])([H])C2([H])N([H])C(=O)C1([H])N(C(=O)C([H])(N([H])C(=O)C([H])(N([H])C([H])([H])[H])C([H])([H])[H])C(C([H])([H])[H])(C([H])([H])[H])C([H])([H])[H])C([H])([H])c2c([H])c(OC([H])([H])C([H])(c3c([H])c(C4([H])C([H])([H])C([H])([H])N(C(=O)N5C([H])([H])C([H])([H])C([H])([H])C([H])(n6nc(-c7c([H])c([H])c(Oc8c([H])c([H])c(F)c([H])c8F)c([H])c7[H])c(C(=O)N([H])[H])c6N([H])[H])C5([H])[H])C([H])([H])C4([H])[H])n(C([H])(C([H])([H])[H])C([H])([H])[H])c3[H])[N+]([H])([H])[H])c([H])c([H])c2C1([H])[H]

> <Step>
116.0

> <Scaffold>
O=C(NC1CCCc2ccccc21)C1Cc2ccc(OCCc3c[nH]c(C4CCN(C(=O)N5CCCC(n6ccc(-c7ccc(Oc8ccccc8)cc7)n6)C5)CC4)c3)cc2CN1

> <SMILES>
CNC(C)C(=O)NC(C(=O)N1Cc2cc(OCC(N)c3cc(C4CCN(C(=O)N5CCCC(n6nc(-c7ccc(Oc8ccc(F)cc8F)cc7)c(C(N)=O)c6N)C5)CC4)n(C(C)C)c3)ccc2CC1C(=O)NC1CCCc2ccccc21)C(C)(C)C

> <Tanimoto ROCS sim>
0.23042480647563934

> <Custom alerts>
1.0

> <Linker Num Aromatic Rings>
1.0

> <Linker Effective Length>
1.0

> <ADV>
0.9960483312606812

> <PostDock Tanimoto ROCS sim>
0.9897227883338928

> <raw_Linker Num Aromatic Rings>
1.0

> <raw_Linker Effective Length>
8.0

> <raw_ADV>
-14.605999946594238

> <total_score>
0.9964427947998047

> <ID>
default_job_85

> <PostDock Tanimoto ROCS sim (re-score)>
0.9795161

> <raw_ADV (re-score)>
-14.572

> <Final Intermolecular Energy>
-30.758

> <Final Total Internal Energy>
-3.385

> <Torsional Free Energy>
16.186

> <Unbound System's Energy>
-3.385

$$$$
default_job_86
     RDKit          3D

 93101  0  0  1  0  0  0  0  0999 V2000
  -31.0410  -20.6410   19.2420 C   0  0  0  0  0  3  0  0  0  0  0  0
  -30.0760  -19.9000   19.9630 C   0  0  0  0  0  0  0  0  0  0  0  0
  -32.1600  -19.9980   18.6940 C   0  0  0  0  0  0  0  0  0  0  0  0
  -30.3590  -18.4470   20.0620 C   0  0  0  0  0  0  0  0  0  0  0  0
  -32.3460  -18.6680   18.8000 N   0  0  0  0  0  0  0  0  0  0  0  0
  -31.4590  -17.9250   19.4610 N   0  0  0  0  0  0  0  0  0  0  0  0
  -33.3590  -20.4760   16.4960 C   0  0  0  0  0  1  0  0  0  0  0  0
  -33.2560  -20.7860   17.9960 C   0  0  0  0  0  2  0  0  0  0  0  0
  -28.8600  -20.7750   20.4890 C   0  0  0  0  0  2  0  0  0  0  0  0
  -29.0320  -22.3640   20.8750 C   0  0  0  0  0  2  0  0  0  0  0  0
  -29.3870  -23.8890   18.7940 C   0  0  0  0  0  1  0  0  0  0  0  0
  -28.5010  -23.6540   20.0230 C   0  0  0  0  0  3  0  0  0  0  0  0
  -28.3040  -25.0590   20.8240 C   0  0  0  0  0  2  0  0  0  0  0  0
  -28.3580  -26.4220   20.2000 O   0  0  0  0  0  0  0  0  0  0  0  0
  -24.6110  -31.8780   23.2270 C   0  0  0  0  0  0  0  0  0  0  0  0
  -27.2350  -27.2730   20.2240 C   0  0  0  0  0  0  0  0  0  0  0  0
  -23.4160  -30.4610   21.5980 C   0  0  0  0  0  3  0  0  0  0  0  0
  -24.8740  -28.8960   20.1910 C   0  0  0  0  0  0  0  0  0  0  0  0
  -25.9580  -30.7760   21.4230 C   0  0  0  0  0  2  0  0  0  0  0  0
  -26.0430  -29.3920   20.7820 C   0  0  0  0  0  0  0  0  0  0  0  0
  -27.2310  -28.5960   20.7770 C   0  0  0  0  0  3  0  0  0  0  0  0
  -26.0420  -26.8250   19.6250 C   0  0  0  0  0  3  0  0  0  0  0  0
  -24.8760  -27.6190   19.6030 C   0  0  0  0  0  3  0  0  0  0  0  0
  -23.6370  -29.7740   20.2250 C   0  0  0  0  0  2  0  0  0  0  0  0
  -24.6810  -31.0540   22.1400 N   0  0  0  0  0  0  0  0  0  0  0  0
  -23.5180  -32.1780   23.7280 O   0  0  0  0  0  0  0  0  0  0  0  0
  -22.7480  -29.4510   22.5620 C   0  0  0  0  0  0  0  0  0  0  0  0
  -21.4220  -29.2740   22.4350 N   0  0  0  0  0  0  0  0  0  0  0  0
  -23.4240  -28.8270   23.3840 O   0  0  0  0  0  0  0  0  0  0  0  0
  -20.9340  -29.8290   21.7440 H   0  0  0  0  0  0  0  0  0  0  0  0
  -18.0430  -28.0800   22.9360 C   0  0  0  0  0  0  0  0  0  0  0  0
  -20.6010  -28.3380   23.2070 C   0  0  0  0  0  3  0  0  0  0  0  0
  -20.7010  -26.9050   22.6340 C   0  0  0  0  0  2  0  0  0  0  0  0
  -19.6000  -26.5830   21.6180 C   0  0  0  0  0  2  0  0  0  0  0  0
  -18.2180  -26.7300   22.2610 C   0  0  0  0  0  2  0  0  0  0  0  0
  -19.1610  -28.8420   23.3660 C   0  0  0  0  0  0  0  0  0  0  0  0
  -18.9430  -30.1070   23.9550 C   0  0  0  0  0  3  0  0  0  0  0  0
  -17.6370  -30.6070   24.1210 C   0  0  0  0  0  3  0  0  0  0  0  0
  -16.5330  -29.8420   23.7090 C   0  0  0  0  0  3  0  0  0  0  0  0
  -16.7360  -28.5800   23.1220 C   0  0  0  0  0  3  0  0  0  0  0  0
  -25.8870  -32.5080   23.8650 C   0  0  0  0  0  3  0  0  0  0  0  0
  -25.5750  -33.9060   24.1950 N   0  0  0  0  0  0  0  0  0  0  0  0
  -25.9030  -34.9600   23.4350 C   0  0  0  0  0  0  0  0  0  0  0  0
  -26.5720  -34.8560   22.4020 O   0  0  0  0  0  0  0  0  0  0  0  0
  -24.9820  -34.0600   24.9970 H   0  0  0  0  0  0  0  0  0  0  0  0
  -24.1660  -36.7450   23.0870 C   0  0  0  0  0  1  0  0  0  0  0  0
  -25.4130  -36.3470   23.8910 C   0  0  0  0  0  3  0  0  0  0  0  0
  -27.5510  -37.2400   24.7060 C   0  0  0  0  0  1  0  0  0  0  0  0
  -26.4420  -37.4030   23.7700 N   0  0  0  0  0  0  0  0  0  0  0  0
  -26.0330  -38.3230   23.9210 H   0  0  0  0  0  0  0  0  0  0  0  0
  -26.3960  -31.7420   25.1480 C   0  0  1  0  0  0  0  0  0  0  0  0
  -25.2970  -31.5090   26.2110 C   0  0  0  0  0  1  0  0  0  0  0  0
  -26.9810  -30.3630   24.7680 C   0  0  0  0  0  1  0  0  0  0  0  0
  -27.5430  -32.5370   25.8150 C   0  0  0  0  0  1  0  0  0  0  0  0
  -29.6660  -17.3240   20.9260 C   0  0  0  0  0  2  0  0  0  0  0  0
  -30.5350  -14.7630   20.4210 C   0  0  0  0  0  0  0  0  0  0  0  0
  -30.4050  -12.4840   19.3790 C   0  0  0  0  0  2  0  0  0  0  0  0
  -29.4580  -12.5490   18.1590 C   0  0  0  0  0  2  0  0  0  0  0  0
  -27.9860  -12.3700   18.5880 C   0  0  0  0  0  2  0  0  0  0  0  0
  -27.6080  -13.2540   19.8060 C   0  0  0  0  0  3  0  0  0  0  0  0
  -28.6630  -13.1380   20.9250 C   0  0  0  0  0  2  0  0  0  0  0  0
  -29.9550  -13.5180   20.3370 N   0  0  0  0  0  0  0  0  0  0  0  0
  -31.7360  -14.9030   20.1850 O   0  0  0  0  0  0  0  0  0  0  0  0
  -29.6520  -15.8200   20.5830 N   0  0  0  0  0  0  0  0  0  0  0  0
  -28.7090  -15.4690   20.5980 H   0  0  0  0  0  0  0  0  0  0  0  0
  -25.2170  -13.8580   20.5170 C   0  0  0  0  0  0  0  0  0  0  0  0
  -24.1470  -13.0880   20.8870 C   0  0  0  0  0  0  0  0  0  0  0  0
  -24.6090  -11.7360   20.8690 C   0  0  0  0  0  0  0  0  0  0  0  0
  -26.2600  -12.9750   20.2910 N   0  0  0  0  0  0  0  0  0  0  0  0
  -25.9000  -11.6950   20.5660 N   0  0  0  0  0  0  0  0  0  0  0  0
  -23.8810  -10.4750   21.0610 C   0  0  0  0  0  0  0  0  0  0  0  0
  -24.3190   -9.5050   21.9900 C   0  0  0  0  0  3  0  0  0  0  0  0
  -23.5910   -8.3090   22.1710 C   0  0  0  0  0  3  0  0  0  0  0  0
  -22.4140   -8.0760   21.4230 C   0  0  0  0  0  0  0  0  0  0  0  0
  -21.9930   -9.0350   20.4850 C   0  0  0  0  0  3  0  0  0  0  0  0
  -22.7210  -10.2230   20.3030 C   0  0  0  0  0  3  0  0  0  0  0  0
  -21.6570   -6.9320   21.5140 O   0  0  0  0  0  0  0  0  0  0  0  0
  -21.6300   -6.1750   22.6580 C   0  0  0  0  0  0  0  0  0  0  0  0
  -21.2450   -6.7200   23.9020 C   0  0  0  0  0  3  0  0  0  0  0  0
  -21.1650   -5.8910   25.0390 C   0  0  0  0  0  3  0  0  0  0  0  0
  -21.4580   -4.5180   24.9330 C   0  0  0  0  0  0  0  0  0  0  0  0
  -21.8360   -3.9730   23.6930 C   0  0  0  0  0  3  0  0  0  0  0  0
  -21.9170   -4.7990   22.5590 C   0  0  0  0  0  0  0  0  0  0  0  0
  -22.2630   -4.2650   21.3630 F   0  0  0  0  0  0  0  0  0  0  0  0
  -21.3720   -3.7190   26.0220 F   0  0  0  0  0  0  0  0  0  0  0  0
  -22.7480  -13.5690   21.1420 C   0  0  0  0  0  0  0  0  0  0  0  0
  -22.0110  -12.8820   22.0090 N   0  0  0  0  0  0  0  0  0  0  0  0
  -22.3160  -14.5910   20.6100 O   0  0  0  0  0  0  0  0  0  0  0  0
  -22.3730  -12.0580   22.4660 H   0  0  0  0  0  0  0  0  0  0  0  0
  -21.0720  -13.1880   22.2190 H   0  0  0  0  0  0  0  0  0  0  0  0
  -25.3810  -15.2280   20.3310 N   0  0  0  0  0  0  0  0  0  0  0  0
  -24.5980  -15.8690   20.4140 H   0  0  0  0  0  0  0  0  0  0  0  0
  -26.2000  -15.6570   19.9230 H   0  0  0  0  0  0  0  0  0  0  0  0
  1  2  1  0
  2  4  2  0
  2  9  1  0
  3  5  1  0
  3  1  2  0
  4 55  1  0
  5  6  2  0
  6  4  1  0
  7  8  1  0
  8  3  1  0
  9 10  1  0
 12 11  1  0
 12 13  1  0
 12 10  1  0
 14 16  1  0
 14 13  1  0
 15 26  2  0
 16 21  1  0
 17 25  1  0
 17 27  1  0
 18 24  1  0
 18 20  1  0
 19 25  1  0
 20 19  1  0
 21 20  2  0
 22 16  2  0
 23 22  1  0
 23 18  2  0
 24 17  1  0
 25 15  1  0
 27 29  2  0
 28 27  1  0
 30 28  1  0
 31 40  2  0
 31 36  1  0
 32 28  1  0
 32 36  1  0
 33 32  1  0
 34 35  1  0
 34 33  1  0
 35 31  1  0
 36 37  2  0
 37 38  1  0
 39 38  2  0
 40 39  1  0
 41 15  1  0
 41 42  1  0
 41 51  1  0
 42 45  1  0
 43 47  1  0
 43 42  1  0
 44 43  2  0
 47 46  1  0
 49 47  1  0
 49 50  1  0
 49 48  1  0
 51 54  1  1
 51 52  1  0
 53 51  1  0
 56 64  1  0
 57 62  1  0
 58 59  1  0
 58 57  1  0
 60 59  1  0
 60 69  1  0
 60 61  1  0
 62 56  1  0
 62 61  1  0
 63 56  2  0
 64 65  1  0
 64 55  1  0
 66 67  2  0
 67 86  1  0
 68 67  1  0
 68 71  1  0
 69 66  1  0
 69 70  1  0
 70 68  2  0
 71 72  1  0
 72 73  2  0
 74 77  1  0
 74 73  1  0
 75 74  2  0
 76 75  1  0
 76 71  2  0
 77 78  1  0
 78 79  1  0
 79 80  2  0
 81 80  1  0
 81 85  1  0
 82 81  2  0
 83 78  2  0
 83 82  1  0
 84 83  1  0
 86 87  1  0
 87 90  1  0
 87 89  1  0
 88 86  2  0
 91 92  1  0
 91 66  1  0
 93 91  1  0
M  ISO  4  13 101  14 101  56 100  64 100
M  END
>  <TORSDO>  (87) 
F 22

>  <SCORE>  (87) 
-13.226

>  <name>  (87) 
86

>  <ligand_id>  (87) 
86

>  <original_smiles>  (87) 
[H]c1c([H])c([H])c2c(c1[H])C([H])([H])C([H])([H])C([H])([H])C2([H])N([H])C(=O)C1([H])N(C(=O)C([H])(N([H])C(=O)C([H])(N([H])C([H])([H])[H])C([H])([H])[H])C(C([H])([H])[H])(C([H])([H])[H])C([H])([H])[H])C([H])([H])c2c([H])c(OC([H])([H])C([H])(C([H])([H])[H])C([H])([H])C([H])([H])c3c(C([H])([H])N([H])C(=O)N4C([H])([H])C([H])([H])C([H])([H])C([H])(n5nc(-c6c([H])c([H])c(Oc7c([H])c([H])c(F)c([H])c7F)c([H])c6[H])c(C(=O)N([H])[H])c5N([H])[H])C4([H])[H])nnc(C([H])([H])C([H])([H])[H])c3[H])c([H])c([H])c2C1([H])[H]

>  <smiles>  (87) 
[H]c1c([H])c([H])c2c(c1[H])C([H])([H])C([H])([H])C([H])([H])C2([H])N([H])C(=O)C1([H])N(C(=O)C([H])(N([H])C(=O)C([H])(N([H])C([H])([H])[H])C([H])([H])[H])C(C([H])([H])[H])(C([H])([H])[H])C([H])([H])[H])C([H])([H])c2c([H])c(OC([H])([H])C([H])(C([H])([H])[H])C([H])([H])C([H])([H])c3c(C([H])([H])N([H])C(=O)N4C([H])([H])C([H])([H])C([H])([H])C([H])(n5nc(-c6c([H])c([H])c(Oc7c([H])c([H])c(F)c([H])c7F)c([H])c6[H])c(C(=O)N([H])[H])c5N([H])[H])C4([H])[H])nnc(C([H])([H])C([H])([H])[H])c3[H])c([H])c([H])c2C1([H])[H]

> <Step>
90.0

> <Scaffold>
O=C(NC1CCCc2ccccc21)C1Cc2ccc(OCCCCc3ccnnc3CNC(=O)N3CCCC(n4ccc(-c5ccc(Oc6ccccc6)cc5)n4)C3)cc2CN1

> <SMILES>
CCc1cc(CCC(C)COc2ccc3c(c2)CN(C(=O)C(NC(=O)C(C)NC)C(C)(C)C)C(C(=O)NC2CCCc4ccccc42)C3)c(CNC(=O)N2CCCC(n3nc(-c4ccc(Oc5ccc(F)cc5F)cc4)c(C(N)=O)c3N)C2)nn1

> <Tanimoto ROCS sim>
0.22247152030467987

> <Custom alerts>
1.0

> <Linker Num Aromatic Rings>
1.0

> <Linker Effective Length>
1.0

> <ADV>
0.9905295968055725

> <PostDock Tanimoto ROCS sim>
0.9952243566513062

> <raw_Linker Num Aromatic Rings>
1.0

> <raw_Linker Effective Length>
7.0

> <raw_ADV>
-13.07800006866455

> <total_score>
0.9964385032653809

> <ID>
default_job_86

> <PostDock Tanimoto ROCS sim (re-score)>
0.9805418

> <raw_ADV (re-score)>
-13.226

> <Final Intermolecular Energy>
-29.849

> <Final Total Internal Energy>
-3.023

> <Torsional Free Energy>
16.623

> <Unbound System's Energy>
-3.023

$$$$
default_job_87
     RDKit          3D

 93102  0  0  1  0  0  0  0  0999 V2000
  -29.7470  -23.1400   20.5260 C   0  0  0  0  0  2  0  0  0  0  0  0
  -27.3470  -23.0300   20.1110 C   0  0  0  0  0  2  0  0  0  0  0  0
  -29.5740  -24.5100   21.2830 C   0  0  0  0  0  2  0  0  0  0  0  0
  -27.0740  -24.2950   20.9690 C   0  0  0  0  0  2  0  0  0  0  0  0
  -28.5350  -22.1680   20.6460 C   0  0  0  0  0  3  0  0  0  0  0  0
  -28.2450  -25.3210   21.0940 C   0  0  0  0  0  3  0  0  0  0  0  0
  -28.3310  -26.4810   20.1880 O   0  0  0  0  0  0  0  0  0  0  0  0
  -24.6190  -31.8760   23.2270 C   0  0  0  0  0  0  0  0  0  0  0  0
  -27.2400  -27.3480   20.1720 C   0  0  0  0  0  0  0  0  0  0  0  0
  -23.4200  -30.4700   21.5890 C   0  0  0  0  0  3  0  0  0  0  0  0
  -24.8770  -28.9360   20.1580 C   0  0  0  0  0  0  0  0  0  0  0  0
  -25.9580  -30.7990   21.4150 C   0  0  0  0  0  2  0  0  0  0  0  0
  -26.0390  -29.4240   20.7700 C   0  0  0  0  0  0  0  0  0  0  0  0
  -27.2270  -28.6360   20.7800 C   0  0  0  0  0  3  0  0  0  0  0  0
  -26.0800  -26.9310   19.4920 C   0  0  0  0  0  3  0  0  0  0  0  0
  -24.8970  -27.6910   19.5110 C   0  0  0  0  0  3  0  0  0  0  0  0
  -23.6350  -29.8010   20.2070 C   0  0  0  0  0  2  0  0  0  0  0  0
  -24.6830  -31.0630   22.1350 N   0  0  0  0  0  0  0  0  0  0  0  0
  -23.5290  -32.1720   23.7360 O   0  0  0  0  0  0  0  0  0  0  0  0
  -22.7620  -29.4480   22.5460 C   0  0  0  0  0  0  0  0  0  0  0  0
  -21.4360  -29.2740   22.4250 N   0  0  0  0  0  0  0  0  0  0  0  0
  -23.4450  -28.8140   23.3560 O   0  0  0  0  0  0  0  0  0  0  0  0
  -20.9470  -29.8390   21.7430 H   0  0  0  0  0  0  0  0  0  0  0  0
  -18.0540  -28.0960   22.9370 C   0  0  0  0  0  0  0  0  0  0  0  0
  -20.6160  -28.3350   23.1930 C   0  0  0  0  0  3  0  0  0  0  0  0
  -20.7020  -26.9080   22.6020 C   0  0  0  0  0  2  0  0  0  0  0  0
  -19.5900  -26.6040   21.5930 C   0  0  0  0  0  2  0  0  0  0  0  0
  -18.2150  -26.7520   22.2490 C   0  0  0  0  0  2  0  0  0  0  0  0
  -19.1810  -28.8450   23.3670 C   0  0  0  0  0  0  0  0  0  0  0  0
  -18.9730  -30.1050   23.9720 C   0  0  0  0  0  3  0  0  0  0  0  0
  -17.6730  -30.6120   24.1540 C   0  0  0  0  0  3  0  0  0  0  0  0
  -16.5610  -29.8580   23.7400 C   0  0  0  0  0  3  0  0  0  0  0  0
  -16.7520  -28.6020   23.1380 C   0  0  0  0  0  3  0  0  0  0  0  0
  -25.9010  -32.4970   23.8620 C   0  0  0  0  0  3  0  0  0  0  0  0
  -26.4090  -31.7210   25.1400 C   0  0  1  0  0  0  0  0  0  0  0  0
  -25.3110  -31.4830   26.2000 C   0  0  0  0  0  1  0  0  0  0  0  0
  -26.9950  -30.3440   24.7520 C   0  0  0  0  0  1  0  0  0  0  0  0
  -27.5600  -32.5130   25.8060 C   0  0  0  0  0  1  0  0  0  0  0  0
  -25.5950  -33.8960   24.1930 N   0  0  0  0  0  0  0  0  0  0  0  0
  -25.9250  -34.9480   23.4340 C   0  0  0  0  0  0  0  0  0  0  0  0
  -26.5950  -34.8440   22.4020 O   0  0  0  0  0  0  0  0  0  0  0  0
  -25.0000  -34.0520   24.9950 H   0  0  0  0  0  0  0  0  0  0  0  0
  -24.1930  -36.7380   23.0810 C   0  0  0  0  0  1  0  0  0  0  0  0
  -25.4370  -36.3360   23.8910 C   0  0  0  0  0  3  0  0  0  0  0  0
  -27.5750  -37.2220   24.7110 C   0  0  0  0  0  1  0  0  0  0  0  0
  -26.4660  -37.3910   23.7760 N   0  0  0  0  0  0  0  0  0  0  0  0
  -26.0570  -38.3100   23.9310 H   0  0  0  0  0  0  0  0  0  0  0  0
  -28.6760  -20.7370   19.9390 C   0  0  0  0  0  3  0  0  0  0  0  0
  -30.8740  -19.2790   19.7390 C   0  0  0  0  0  2  0  0  0  0  0  0
  -31.2230  -17.7720   19.8990 C   0  0  0  0  0  2  0  0  0  0  0  0
  -29.0200  -18.1440   20.7590 C   0  0  0  0  0  2  0  0  0  0  0  0
  -29.6050  -19.5940   20.5650 C   0  0  0  0  0  3  0  0  0  0  0  0
  -30.2200  -17.1520   20.8940 C   0  0  0  0  0  3  0  0  0  0  0  0
  -30.6250  -14.6120   20.3890 C   0  0  0  0  0  0  0  0  0  0  0  0
  -30.3560  -12.3860   19.3200 C   0  0  0  0  0  2  0  0  0  0  0  0
  -29.4170  -12.5300   18.1050 C   0  0  0  0  0  2  0  0  0  0  0  0
  -27.9410  -12.3980   18.5310 C   0  0  0  0  0  2  0  0  0  0  0  0
  -27.5940  -13.2600   19.7740 C   0  0  0  0  0  3  0  0  0  0  0  0
  -28.6540  -13.1030   20.8870 C   0  0  0  0  0  2  0  0  0  0  0  0
  -29.9650  -13.4140   20.3010 N   0  0  0  0  0  0  0  0  0  0  0  0
  -31.7980  -14.7290   20.0310 O   0  0  0  0  0  0  0  0  0  0  0  0
  -29.8630  -15.7010   20.7050 N   0  0  0  0  0  0  0  0  0  0  0  0
  -28.9020  -15.4720   20.9120 H   0  0  0  0  0  0  0  0  0  0  0  0
  -25.2050  -13.8810   20.4860 C   0  0  0  0  0  0  0  0  0  0  0  0
  -24.1310  -13.1180   20.8550 C   0  0  0  0  0  0  0  0  0  0  0  0
  -24.5810  -11.7630   20.8310 C   0  0  0  0  0  0  0  0  0  0  0  0
  -26.2430  -12.9910   20.2590 N   0  0  0  0  0  0  0  0  0  0  0  0
  -25.8730  -11.7130   20.5260 N   0  0  0  0  0  0  0  0  0  0  0  0
  -23.8430  -10.5080   21.0230 C   0  0  0  0  0  0  0  0  0  0  0  0
  -24.2680   -9.5380   21.9570 C   0  0  0  0  0  3  0  0  0  0  0  0
  -23.5310   -8.3480   22.1400 C   0  0  0  0  0  3  0  0  0  0  0  0
  -22.3530   -8.1200   21.3910 C   0  0  0  0  0  0  0  0  0  0  0  0
  -21.9470   -9.0780   20.4440 C   0  0  0  0  0  3  0  0  0  0  0  0
  -22.6850  -10.2590   20.2590 C   0  0  0  0  0  3  0  0  0  0  0  0
  -21.5880   -6.9820   21.4820 O   0  0  0  0  0  0  0  0  0  0  0  0
  -21.5380   -6.2410   22.6350 C   0  0  0  0  0  0  0  0  0  0  0  0
  -21.1310   -6.8010   23.8670 C   0  0  0  0  0  3  0  0  0  0  0  0
  -21.0280   -5.9850   25.0100 C   0  0  0  0  0  3  0  0  0  0  0  0
  -21.3220   -4.6110   24.9250 C   0  0  0  0  0  0  0  0  0  0  0  0
  -21.7220   -4.0520   23.6990 C   0  0  0  0  0  3  0  0  0  0  0  0
  -21.8270   -4.8640   22.5570 C   0  0  0  0  0  0  0  0  0  0  0  0
  -22.1920   -4.3160   21.3730 F   0  0  0  0  0  0  0  0  0  0  0  0
  -21.2160   -3.8260   26.0220 F   0  0  0  0  0  0  0  0  0  0  0  0
  -22.7370  -13.6090   21.1230 C   0  0  0  0  0  0  0  0  0  0  0  0
  -22.0030  -12.9210   21.9910 N   0  0  0  0  0  0  0  0  0  0  0  0
  -22.3080  -14.6340   20.5970 O   0  0  0  0  0  0  0  0  0  0  0  0
  -22.3650  -12.0900   22.4370 H   0  0  0  0  0  0  0  0  0  0  0  0
  -21.0660  -13.2270   22.2110 H   0  0  0  0  0  0  0  0  0  0  0  0
  -25.3800  -15.2500   20.2980 N   0  0  0  0  0  0  0  0  0  0  0  0
  -24.6120  -15.9060   20.3850 H   0  0  0  0  0  0  0  0  0  0  0  0
  -26.2230  -15.6810   19.9410 H   0  0  0  0  0  0  0  0  0  0  0  0
  -27.3740  -20.1830   19.8590 O   0  0  0  0  0  0  0  0  0  0  0  0
  -27.0810  -20.0030   20.7450 H   0  0  0  0  0  0  0  0  0  0  0  0
  1  5  1  0
  1  3  1  0
  2  5  1  0
  2  4  1  0
  4  6  1  0
  5 48  1  0
  6  7  1  0
  6  3  1  0
  8 19  2  0
  9  7  1  0
  9 14  1  0
 10 18  1  0
 10 20  1  0
 11 17  1  0
 11 13  1  0
 12 18  1  0
 13 14  2  0
 13 12  1  0
 15 16  1  0
 15  9  2  0
 16 11  2  0
 17 10  1  0
 18  8  1  0
 20 22  2  0
 21 20  1  0
 23 21  1  0
 24 33  2  0
 24 29  1  0
 25 21  1  0
 25 29  1  0
 26 25  1  0
 27 28  1  0
 27 26  1  0
 28 24  1  0
 29 30  2  0
 30 31  1  0
 32 31  2  0
 33 32  1  0
 34  8  1  0
 34 39  1  0
 34 35  1  0
 35 38  1  1
 35 36  1  0
 37 35  1  0
 39 42  1  0
 40 44  1  0
 40 39  1  0
 41 40  2  0
 44 43  1  0
 46 44  1  0
 46 47  1  0
 46 45  1  0
 48 92  1  0
 49 50  1  0
 49 52  1  0
 50 53  1  0
 51 53  1  0
 52 48  1  0
 52 51  1  0
 53 62  1  0
 54 62  1  0
 55 60  1  0
 56 57  1  0
 56 55  1  0
 58 57  1  0
 58 67  1  0
 58 59  1  0
 60 54  1  0
 60 59  1  0
 61 54  2  0
 62 63  1  0
 64 65  2  0
 65 84  1  0
 66 65  1  0
 66 69  1  0
 67 64  1  0
 67 68  1  0
 68 66  2  0
 69 70  1  0
 70 71  2  0
 72 75  1  0
 72 71  1  0
 73 72  2  0
 74 73  1  0
 74 69  2  0
 75 76  1  0
 76 77  1  0
 77 78  2  0
 79 78  1  0
 79 83  1  0
 80 79  2  0
 81 76  2  0
 81 80  1  0
 82 81  1  0
 84 85  1  0
 85 88  1  0
 85 87  1  0
 86 84  2  0
 89 90  1  0
 89 64  1  0
 91 89  1  0
 92 93  1  0
M  ISO  4   6 101   7 101  54 100  62 100
M  END
>  <TORSDO>  (88) 
F 19

>  <SCORE>  (88) 
-14.684

>  <name>  (88) 
87

>  <ligand_id>  (88) 
87

>  <original_smiles>  (88) 
[H]OC([H])(C1([H])C([H])([H])C([H])([H])C([H])(Oc2c([H])c([H])c3c(c2[H])C([H])([H])N(C(=O)C([H])(N([H])C(=O)C([H])(N([H])C([H])([H])[H])C([H])([H])[H])C(C([H])([H])[H])(C([H])([H])[H])C([H])([H])[H])C([H])(C(=O)N([H])C2([H])c4c([H])c([H])c([H])c([H])c4C([H])([H])C([H])([H])C2([H])[H])C3([H])[H])C([H])([H])C1([H])[H])C1([H])C([H])([H])C([H])([H])C([H])(N([H])C(=O)N2C([H])([H])C([H])([H])C([H])([H])C([H])(n3nc(-c4c([H])c([H])c(Oc5c([H])c([H])c(F)c([H])c5F)c([H])c4[H])c(C(=O)N([H])[H])c3N([H])[H])C2([H])[H])C1([H])[H]

>  <smiles>  (88) 
[H]OC([H])(C1([H])C([H])([H])C([H])([H])C([H])(Oc2c([H])c([H])c3c(c2[H])C([H])([H])N(C(=O)C([H])(N([H])C(=O)C([H])(N([H])C([H])([H])[H])C([H])([H])[H])C(C([H])([H])[H])(C([H])([H])[H])C([H])([H])[H])C([H])(C(=O)N([H])C2([H])c4c([H])c([H])c([H])c([H])c4C([H])([H])C([H])([H])C2([H])[H])C3([H])[H])C([H])([H])C1([H])[H])C1([H])C([H])([H])C([H])([H])C([H])(N([H])C(=O)N2C([H])([H])C([H])([H])C([H])([H])C([H])(n3nc(-c4c([H])c([H])c(Oc5c([H])c([H])c(F)c([H])c5F)c([H])c4[H])c(C(=O)N([H])[H])c3N([H])[H])C2([H])[H])C1([H])[H]

> <Step>
144.0

> <Scaffold>
O=C(NC1CCCc2ccccc21)C1Cc2ccc(OC3CCC(CC4CCC(NC(=O)N5CCCC(n6ccc(-c7ccc(Oc8ccccc8)cc7)n6)C5)C4)CC3)cc2CN1

> <SMILES>
CNC(C)C(=O)NC(C(=O)N1Cc2cc(OC3CCC(C(O)C4CCC(NC(=O)N5CCCC(n6nc(-c7ccc(Oc8ccc(F)cc8F)cc7)c(C(N)=O)c6N)C5)C4)CC3)ccc2CC1C(=O)NC1CCCc2ccccc21)C(C)(C)C

> <Tanimoto ROCS sim>
0.31720852851867676

> <Custom alerts>
1.0

> <Linker Num Aromatic Rings>
1.0

> <Linker Effective Length>
1.0

> <ADV>
0.9962962865829468

> <PostDock Tanimoto ROCS sim>
0.989449679851532

> <raw_Linker Num Aromatic Rings>
0.0

> <raw_Linker Effective Length>
8.0

> <raw_ADV>
-14.718999862670898

> <total_score>
0.9964365363121033

> <ID>
default_job_87

> <PostDock Tanimoto ROCS sim (re-score)>
0.9792321

> <raw_ADV (re-score)>
-14.684

> <Final Intermolecular Energy>
-30.135

> <Final Total Internal Energy>
-2.738

> <Torsional Free Energy>
15.451

> <Unbound System's Energy>
-2.738

$$$$
default_job_88
     RDKit          3D

 92100  0  0  1  0  0  0  0  0999 V2000
  -29.4540  -20.5530   20.9410 C   0  0  0  0  0  3  0  0  0  0  0  0
  -30.0820  -19.4480   20.3210 C   0  0  0  0  0  0  0  0  0  0  0  0
  -29.3720  -21.7530   20.2110 C   0  0  0  0  0  0  0  0  0  0  0  0
  -30.4290  -20.7400   18.4560 C   0  0  0  0  0  0  0  0  0  0  0  0
  -30.9230  -20.8390   17.0290 C   0  0  0  0  0  1  0  0  0  0  0  0
  -30.5870  -19.5730   19.0770 N   0  0  0  0  0  0  0  0  0  0  0  0
  -29.8530  -21.8270   18.9610 N   0  0  0  0  0  0  0  0  0  0  0  0
  -28.7940  -22.9140   20.7500 N   0  0  0  0  0  0  0  0  0  0  0  0
  -28.4600  -22.8910   21.7080 H   0  0  0  0  0  0  0  0  0  0  0  0
  -30.2850  -18.0860   21.0200 C   0  0  0  0  0  2  0  0  0  0  0  0
  -29.8830  -16.8650   20.1440 C   0  0  0  0  0  2  0  0  0  0  0  0
  -30.6480  -14.4980   20.4410 C   0  0  0  0  0  0  0  0  0  0  0  0
  -30.3670  -12.3230   19.3240 C   0  0  0  0  0  2  0  0  0  0  0  0
  -29.4300  -12.5480   18.1180 C   0  0  0  0  0  2  0  0  0  0  0  0
  -27.9530  -12.4140   18.5400 C   0  0  0  0  0  2  0  0  0  0  0  0
  -27.6160  -13.2420   19.8090 C   0  0  0  0  0  3  0  0  0  0  0  0
  -28.6690  -13.0080   20.9190 C   0  0  0  0  0  2  0  0  0  0  0  0
  -30.0000  -13.3030   20.3590 N   0  0  0  0  0  0  0  0  0  0  0  0
  -31.7800  -14.6820   19.9860 O   0  0  0  0  0  0  0  0  0  0  0  0
  -29.8690  -15.5360   20.8030 N   0  0  0  0  0  0  0  0  0  0  0  0
  -28.9940  -15.2720   21.2290 H   0  0  0  0  0  0  0  0  0  0  0  0
  -25.2150  -13.8570   20.5060 C   0  0  0  0  0  0  0  0  0  0  0  0
  -24.1450  -13.0870   20.8760 C   0  0  0  0  0  0  0  0  0  0  0  0
  -24.6060  -11.7350   20.8520 C   0  0  0  0  0  0  0  0  0  0  0  0
  -26.2600  -12.9730   20.2830 N   0  0  0  0  0  0  0  0  0  0  0  0
  -25.8960  -11.6920   20.5470 N   0  0  0  0  0  0  0  0  0  0  0  0
  -23.8780  -10.4740   21.0460 C   0  0  0  0  0  0  0  0  0  0  0  0
  -24.3170   -9.5040   21.9750 C   0  0  0  0  0  3  0  0  0  0  0  0
  -23.5910   -8.3070   22.1560 C   0  0  0  0  0  3  0  0  0  0  0  0
  -22.4130   -8.0710   21.4080 C   0  0  0  0  0  0  0  0  0  0  0  0
  -21.9940   -9.0300   20.4680 C   0  0  0  0  0  3  0  0  0  0  0  0
  -22.7210  -10.2190   20.2860 C   0  0  0  0  0  3  0  0  0  0  0  0
  -21.6570   -6.9280   21.4990 O   0  0  0  0  0  0  0  0  0  0  0  0
  -21.6240   -6.1760   22.6460 C   0  0  0  0  0  0  0  0  0  0  0  0
  -21.2270   -6.7240   23.8860 C   0  0  0  0  0  3  0  0  0  0  0  0
  -21.1400   -5.8990   25.0250 C   0  0  0  0  0  3  0  0  0  0  0  0
  -21.4430   -4.5270   24.9260 C   0  0  0  0  0  0  0  0  0  0  0  0
  -21.8330   -3.9790   23.6920 C   0  0  0  0  0  3  0  0  0  0  0  0
  -21.9200   -4.8000   22.5550 C   0  0  0  0  0  0  0  0  0  0  0  0
  -22.2770   -4.2630   21.3630 F   0  0  0  0  0  0  0  0  0  0  0  0
  -21.3530   -3.7320   26.0180 F   0  0  0  0  0  0  0  0  0  0  0  0
  -22.7470  -13.5660   21.1430 C   0  0  0  0  0  0  0  0  0  0  0  0
  -22.0150  -12.8730   22.0090 N   0  0  0  0  0  0  0  0  0  0  0  0
  -22.3100  -14.5890   20.6180 O   0  0  0  0  0  0  0  0  0  0  0  0
  -22.3810  -12.0460   22.4590 H   0  0  0  0  0  0  0  0  0  0  0  0
  -21.0770  -13.1750   22.2270 H   0  0  0  0  0  0  0  0  0  0  0  0
  -25.3820  -15.2270   20.3230 N   0  0  0  0  0  0  0  0  0  0  0  0
  -24.6150  -15.8830   20.4220 H   0  0  0  0  0  0  0  0  0  0  0  0
  -26.2340  -15.6610   19.9890 H   0  0  0  0  0  0  0  0  0  0  0  0
  -28.8430  -24.2080   20.0440 C   0  0  0  0  0  2  0  0  0  0  0  0
  -28.2780  -25.3920   20.8750 C   0  0  0  0  0  2  0  0  0  0  0  0
  -28.3930  -26.6710   20.2110 O   0  0  0  0  0  0  0  0  0  0  0  0
  -24.6000  -31.8960   23.2510 C   0  0  0  0  0  0  0  0  0  0  0  0
  -27.2420  -27.4320   20.1970 C   0  0  0  0  0  0  0  0  0  0  0  0
  -23.3960  -30.4840   21.6180 C   0  0  0  0  0  3  0  0  0  0  0  0
  -24.8520  -28.9450   20.1930 C   0  0  0  0  0  0  0  0  0  0  0  0
  -25.9230  -30.8410   21.4200 C   0  0  0  0  0  2  0  0  0  0  0  0
  -26.0100  -29.4700   20.7820 C   0  0  0  0  0  0  0  0  0  0  0  0
  -27.2120  -28.7230   20.7760 C   0  0  0  0  0  3  0  0  0  0  0  0
  -26.0730  -26.9270   19.5920 C   0  0  0  0  0  3  0  0  0  0  0  0
  -24.8790  -27.6740   19.5910 C   0  0  0  0  0  3  0  0  0  0  0  0
  -23.6060  -29.8020   20.2380 C   0  0  0  0  0  2  0  0  0  0  0  0
  -24.6590  -31.0850   22.1570 N   0  0  0  0  0  0  0  0  0  0  0  0
  -23.5120  -32.1920   23.7670 O   0  0  0  0  0  0  0  0  0  0  0  0
  -22.7470  -29.4630   22.5810 C   0  0  0  0  0  0  0  0  0  0  0  0
  -21.4220  -29.2800   22.4560 N   0  0  0  0  0  0  0  0  0  0  0  0
  -23.4310  -28.8370   23.3950 O   0  0  0  0  0  0  0  0  0  0  0  0
  -20.9300  -29.8370   21.7710 H   0  0  0  0  0  0  0  0  0  0  0  0
  -18.0490  -28.0820   22.9530 C   0  0  0  0  0  0  0  0  0  0  0  0
  -20.6060  -28.3400   23.2260 C   0  0  0  0  0  3  0  0  0  0  0  0
  -20.7100  -26.9100   22.6480 C   0  0  0  0  0  2  0  0  0  0  0  0
  -19.6080  -26.5870   21.6350 C   0  0  0  0  0  2  0  0  0  0  0  0
  -18.2250  -26.7330   22.2770 C   0  0  0  0  0  2  0  0  0  0  0  0
  -19.1670  -28.8440   23.3840 C   0  0  0  0  0  0  0  0  0  0  0  0
  -18.9470  -30.1080   23.9740 C   0  0  0  0  0  3  0  0  0  0  0  0
  -17.6420  -30.6100   24.1390 C   0  0  0  0  0  3  0  0  0  0  0  0
  -16.5390  -29.8440   23.7250 C   0  0  0  0  0  3  0  0  0  0  0  0
  -16.7430  -28.5830   23.1370 C   0  0  0  0  0  3  0  0  0  0  0  0
  -25.8860  -32.5210   23.8800 C   0  0  0  0  0  3  0  0  0  0  0  0
  -26.3990  -31.7500   25.1580 C   0  0  1  0  0  0  0  0  0  0  0  0
  -25.3030  -31.5180   26.2250 C   0  0  0  0  0  1  0  0  0  0  0  0
  -26.9810  -30.3720   24.7690 C   0  0  0  0  0  1  0  0  0  0  0  0
  -27.5510  -32.5440   25.8230 C   0  0  0  0  0  1  0  0  0  0  0  0
  -25.5800  -33.9200   24.2080 N   0  0  0  0  0  0  0  0  0  0  0  0
  -25.9130  -34.9690   23.4430 C   0  0  0  0  0  0  0  0  0  0  0  0
  -26.5820  -34.8590   22.4130 O   0  0  0  0  0  0  0  0  0  0  0  0
  -24.9860  -34.0790   25.0070 H   0  0  0  0  0  0  0  0  0  0  0  0
  -24.1830  -36.7570   23.0810 C   0  0  0  0  0  1  0  0  0  0  0  0
  -25.4240  -36.3580   23.8940 C   0  0  0  0  0  3  0  0  0  0  0  0
  -27.5610  -37.2450   24.7180 C   0  0  0  0  0  1  0  0  0  0  0  0
  -26.4570  -37.4100   23.7750 N   0  0  0  0  0  0  0  0  0  0  0  0
  -26.0500  -38.3310   23.9210 H   0  0  0  0  0  0  0  0  0  0  0  0
  2  1  2  0
  2 10  1  0
  3  8  1  0
  3  1  1  0
  4  7  1  0
  4  6  2  0
  5  4  1  0
  6  2  1  0
  7  3  2  0
  8  9  1  0
 11 20  1  0
 11 10  1  0
 12 20  1  0
 13 18  1  0
 14 15  1  0
 14 13  1  0
 16 15  1  0
 16 25  1  0
 16 17  1  0
 18 12  1  0
 18 17  1  0
 19 12  2  0
 20 21  1  0
 22 23  2  0
 23 42  1  0
 24 23  1  0
 24 27  1  0
 25 22  1  0
 25 26  1  0
 26 24  2  0
 27 28  1  0
 28 29  2  0
 30 33  1  0
 30 29  1  0
 31 30  2  0
 32 31  1  0
 32 27  2  0
 33 34  1  0
 34 35  1  0
 35 36  2  0
 37 36  1  0
 37 41  1  0
 38 37  2  0
 39 34  2  0
 39 38  1  0
 40 39  1  0
 42 43  1  0
 43 46  1  0
 43 45  1  0
 44 42  2  0
 47 48  1  0
 47 22  1  0
 49 47  1  0
 50  8  1  0
 50 51  1  0
 52 51  1  0
 53 64  2  0
 54 52  1  0
 54 59  1  0
 55 63  1  0
 55 65  1  0
 56 62  1  0
 56 58  1  0
 57 63  1  0
 58 57  1  0
 59 58  2  0
 60 54  2  0
 61 60  1  0
 61 56  2  0
 62 55  1  0
 63 53  1  0
 65 67  2  0
 66 65  1  0
 68 66  1  0
 69 78  2  0
 69 74  1  0
 70 66  1  0
 70 74  1  0
 71 70  1  0
 72 73  1  0
 72 71  1  0
 73 69  1  0
 74 75  2  0
 75 76  1  0
 77 76  2  0
 78 77  1  0
 79 53  1  0
 79 84  1  0
 79 80  1  0
 80 83  1  1
 80 81  1  0
 82 80  1  0
 84 87  1  0
 85 89  1  0
 85 84  1  0
 86 85  2  0
 89 88  1  0
 91 89  1  0
 91 92  1  0
 91 90  1  0
M  ISO  4  12 100  20 100  51 101  52 101
M  END
>  <TORSDO>  (89) 
F 20

>  <SCORE>  (89) 
-13.89

>  <name>  (89) 
88

>  <ligand_id>  (89) 
88

>  <original_smiles>  (89) 
[H]c1c(N([H])C([H])([H])C([H])([H])Oc2c([H])c([H])c3c(c2[H])C([H])([H])N(C(=O)C([H])(N([H])C(=O)C([H])(N([H])C([H])([H])[H])C([H])([H])[H])C(C([H])([H])[H])(C([H])([H])[H])C([H])([H])[H])C([H])(C(=O)N([H])C2([H])c4c([H])c([H])c([H])c([H])c4C([H])([H])C([H])([H])C2([H])[H])C3([H])[H])nc(C([H])([H])[H])nc1C([H])([H])C([H])([H])N([H])C(=O)N1C([H])([H])C([H])([H])C([H])([H])C([H])(n2nc(-c3c([H])c([H])c(Oc4c([H])c([H])c(F)c([H])c4F)c([H])c3[H])c(C(=O)N([H])[H])c2N([H])[H])C1([H])[H]

>  <smiles>  (89) 
[H]c1c(N([H])C([H])([H])C([H])([H])Oc2c([H])c([H])c3c(c2[H])C([H])([H])N(C(=O)C([H])(N([H])C(=O)C([H])(N([H])C([H])([H])[H])C([H])([H])[H])C(C([H])([H])[H])(C([H])([H])[H])C([H])([H])[H])C([H])(C(=O)N([H])C2([H])c4c([H])c([H])c([H])c([H])c4C([H])([H])C([H])([H])C2([H])[H])C3([H])[H])nc(C([H])([H])[H])nc1C([H])([H])C([H])([H])N([H])C(=O)N1C([H])([H])C([H])([H])C([H])([H])C([H])(n2nc(-c3c([H])c([H])c(Oc4c([H])c([H])c(F)c([H])c4F)c([H])c3[H])c(C(=O)N([H])[H])c2N([H])[H])C1([H])[H]

> <Step>
48.0

> <Scaffold>
O=C(NC1CCCc2ccccc21)C1Cc2ccc(OCCNc3cc(CCNC(=O)N4CCCC(n5ccc(-c6ccc(Oc7ccccc7)cc6)n5)C4)ncn3)cc2CN1

> <SMILES>
CNC(C)C(=O)NC(C(=O)N1Cc2cc(OCCNc3cc(CCNC(=O)N4CCCC(n5nc(-c6ccc(Oc7ccc(F)cc7F)cc6)c(C(N)=O)c5N)C4)nc(C)n3)ccc2CC1C(=O)NC1CCCc2ccccc21)C(C)(C)C

> <Tanimoto ROCS sim>
0.19058668613433838

> <Custom alerts>
1.0

> <Linker Num Aromatic Rings>
1.0

> <Linker Effective Length>
1.0

> <ADV>
0.9941393136978149

> <PostDock Tanimoto ROCS sim>
0.9915405511856079

> <raw_Linker Num Aromatic Rings>
1.0

> <raw_Linker Effective Length>
8.0

> <raw_ADV>
-13.918000221252441

> <total_score>
0.9964199066162109

> <ID>
default_job_88

> <PostDock Tanimoto ROCS sim (re-score)>
0.9844899

> <raw_ADV (re-score)>
-13.89

> <Final Intermolecular Energy>
-29.725

> <Final Total Internal Energy>
-2.816

> <Torsional Free Energy>
15.835

> <Unbound System's Energy>
-2.816

$$$$
default_job_89
     RDKit          3D

 91 99  0  0  1  0  0  0  0  0999 V2000
  -28.3350  -19.9610   19.8550 C   0  0  0  0  0  3  0  0  0  0  0  0
  -30.1580  -20.9230   21.0920 C   0  0  0  0  0  3  0  0  0  0  0  0
  -28.9740  -21.1260   20.3530 C   0  0  0  0  0  0  0  0  0  0  0  0
  -30.0170  -18.4340   20.8350 C   0  0  0  0  0  0  0  0  0  0  0  0
  -28.8320  -18.6480   20.0760 C   0  0  0  0  0  0  0  0  0  0  0  0
  -30.6680  -19.6140   21.3220 C   0  0  0  0  0  0  0  0  0  0  0  0
  -27.9570  -17.3390   19.3660 Cl  0  0  0  0  0  0  0  0  0  0  0  0
  -32.1440  -19.4900   22.2160 Cl  0  0  0  0  0  0  0  0  0  0  0  0
  -28.3300  -22.5140   20.0480 C   0  0  0  0  0  2  0  0  0  0  0  0
  -28.9440  -23.9020   20.4950 C   0  0  0  0  0  2  0  0  0  0  0  0
  -28.0080  -25.0890   20.0340 C   0  0  0  0  0  2  0  0  0  0  0  0
  -28.2880  -26.5140   20.2860 O   0  0  0  0  0  0  0  0  0  0  0  0
  -24.6100  -31.9370   23.2640 C   0  0  0  0  0  0  0  0  0  0  0  0
  -27.1830  -27.3760   20.2060 C   0  0  0  0  0  0  0  0  0  0  0  0
  -23.3920  -30.5370   21.6370 C   0  0  0  0  0  3  0  0  0  0  0  0
  -24.8280  -28.9910   20.2040 C   0  0  0  0  0  0  0  0  0  0  0  0
  -25.9330  -30.8440   21.4480 C   0  0  0  0  0  2  0  0  0  0  0  0
  -26.0010  -29.4700   20.8000 C   0  0  0  0  0  0  0  0  0  0  0  0
  -27.1820  -28.6730   20.7980 C   0  0  0  0  0  3  0  0  0  0  0  0
  -25.9890  -26.9600   19.5630 C   0  0  0  0  0  3  0  0  0  0  0  0
  -24.8210  -27.7390   19.5800 C   0  0  0  0  0  3  0  0  0  0  0  0
  -23.5960  -29.8680   20.2550 C   0  0  0  0  0  2  0  0  0  0  0  0
  -24.6640  -31.1180   22.1750 N   0  0  0  0  0  0  0  0  0  0  0  0
  -23.5250  -32.2460   23.7760 O   0  0  0  0  0  0  0  0  0  0  0  0
  -22.7300  -29.5190   22.5970 C   0  0  0  0  0  0  0  0  0  0  0  0
  -21.4040  -29.3440   22.4690 N   0  0  0  0  0  0  0  0  0  0  0  0
  -23.4070  -28.8910   23.4160 O   0  0  0  0  0  0  0  0  0  0  0  0
  -20.9170  -29.9020   21.7820 H   0  0  0  0  0  0  0  0  0  0  0  0
  -18.0220  -28.1620   22.9680 C   0  0  0  0  0  0  0  0  0  0  0  0
  -20.5810  -28.4110   23.2410 C   0  0  0  0  0  3  0  0  0  0  0  0
  -20.6790  -26.9780   22.6690 C   0  0  0  0  0  2  0  0  0  0  0  0
  -19.5760  -26.6560   21.6540 C   0  0  0  0  0  2  0  0  0  0  0  0
  -18.1940  -26.8090   22.2960 C   0  0  0  0  0  2  0  0  0  0  0  0
  -19.1440  -28.9190   23.3970 C   0  0  0  0  0  0  0  0  0  0  0  0
  -18.9290  -30.1850   23.9860 C   0  0  0  0  0  3  0  0  0  0  0  0
  -17.6280  -30.6930   24.1480 C   0  0  0  0  0  3  0  0  0  0  0  0
  -16.5200  -29.9330   23.7340 C   0  0  0  0  0  3  0  0  0  0  0  0
  -16.7180  -28.6690   23.1500 C   0  0  0  0  0  3  0  0  0  0  0  0
  -25.9000  -32.5490   23.8910 C   0  0  0  0  0  3  0  0  0  0  0  0
  -26.4090  -31.7710   25.1670 C   0  0  1  0  0  0  0  0  0  0  0  0
  -25.3110  -31.5410   26.2300 C   0  0  0  0  0  1  0  0  0  0  0  0
  -26.9830  -30.3900   24.7730 C   0  0  0  0  0  1  0  0  0  0  0  0
  -27.5650  -32.5550   25.8300 C   0  0  0  0  0  1  0  0  0  0  0  0
  -25.6050  -33.9500   24.2240 N   0  0  0  0  0  0  0  0  0  0  0  0
  -25.9250  -34.9960   23.4530 C   0  0  0  0  0  0  0  0  0  0  0  0
  -26.5750  -34.8860   22.4090 O   0  0  0  0  0  0  0  0  0  0  0  0
  -25.0250  -34.1090   25.0330 H   0  0  0  0  0  0  0  0  0  0  0  0
  -24.1890  -36.7870   23.1290 C   0  0  0  0  0  1  0  0  0  0  0  0
  -25.4500  -36.3880   23.9120 C   0  0  0  0  0  3  0  0  0  0  0  0
  -27.6050  -37.2750   24.6850 C   0  0  0  0  0  1  0  0  0  0  0  0
  -26.4800  -37.4390   23.7670 N   0  0  0  0  0  0  0  0  0  0  0  0
  -26.0790  -38.3610   23.9190 H   0  0  0  0  0  0  0  0  0  0  0  0
  -30.6830  -17.0390   21.1290 C   0  0  0  0  0  2  0  0  0  0  0  0
  -30.6790  -14.6010   20.4310 C   0  0  0  0  0  0  0  0  0  0  0  0
  -30.3530  -12.4020   19.3330 C   0  0  0  0  0  2  0  0  0  0  0  0
  -29.4030  -12.5480   18.1260 C   0  0  0  0  0  2  0  0  0  0  0  0
  -27.9390  -12.3950   18.5780 C   0  0  0  0  0  2  0  0  0  0  0  0
  -27.6000  -13.2650   19.8180 C   0  0  0  0  0  3  0  0  0  0  0  0
  -28.6720  -13.1250   20.9220 C   0  0  0  0  0  2  0  0  0  0  0  0
  -29.9760  -13.4330   20.3200 N   0  0  0  0  0  0  0  0  0  0  0  0
  -31.8310  -14.6920   20.0050 O   0  0  0  0  0  0  0  0  0  0  0  0
  -30.0320  -15.7090   20.8890 N   0  0  0  0  0  0  0  0  0  0  0  0
  -29.0660  -15.6060   21.1570 H   0  0  0  0  0  0  0  0  0  0  0  0
  -25.2160  -13.8540   20.5750 C   0  0  0  0  0  0  0  0  0  0  0  0
  -24.1540  -13.0760   20.9490 C   0  0  0  0  0  0  0  0  0  0  0  0
  -24.6160  -11.7260   20.9010 C   0  0  0  0  0  0  0  0  0  0  0  0
  -26.2590  -12.9770   20.3200 N   0  0  0  0  0  0  0  0  0  0  0  0
  -25.9040  -11.6920   20.5780 N   0  0  0  0  0  0  0  0  0  0  0  0
  -23.8930  -10.4620   21.0880 C   0  0  0  0  0  0  0  0  0  0  0  0
  -24.3420   -9.4810   21.9990 C   0  0  0  0  0  3  0  0  0  0  0  0
  -23.6190   -8.2820   22.1750 C   0  0  0  0  0  3  0  0  0  0  0  0
  -22.4310   -8.0560   21.4410 C   0  0  0  0  0  0  0  0  0  0  0  0
  -22.0000   -9.0250   20.5180 C   0  0  0  0  0  3  0  0  0  0  0  0
  -22.7240  -10.2160   20.3390 C   0  0  0  0  0  3  0  0  0  0  0  0
  -21.6770   -6.9100   21.5270 O   0  0  0  0  0  0  0  0  0  0  0  0
  -21.6520   -6.1480   22.6680 C   0  0  0  0  0  0  0  0  0  0  0  0
  -21.2410   -6.6810   23.9100 C   0  0  0  0  0  3  0  0  0  0  0  0
  -21.1640   -5.8470   25.0420 C   0  0  0  0  0  3  0  0  0  0  0  0
  -21.4870   -4.4800   24.9350 C   0  0  0  0  0  0  0  0  0  0  0  0
  -21.8890   -3.9470   23.6980 C   0  0  0  0  0  3  0  0  0  0  0  0
  -21.9690   -4.7790   22.5680 C   0  0  0  0  0  0  0  0  0  0  0  0
  -22.3390   -4.2560   21.3730 F   0  0  0  0  0  0  0  0  0  0  0  0
  -21.4050   -3.6760   26.0210 F   0  0  0  0  0  0  0  0  0  0  0  0
  -22.7600  -13.5510   21.2410 C   0  0  0  0  0  0  0  0  0  0  0  0
  -22.0430  -12.8490   22.1110 N   0  0  0  0  0  0  0  0  0  0  0  0
  -22.3150  -14.5780   20.7320 O   0  0  0  0  0  0  0  0  0  0  0  0
  -22.4170  -12.0180   22.5470 H   0  0  0  0  0  0  0  0  0  0  0  0
  -21.1090  -13.1480   22.3480 H   0  0  0  0  0  0  0  0  0  0  0  0
  -25.3740  -15.2260   20.4090 N   0  0  0  0  0  0  0  0  0  0  0  0
  -24.6010  -15.8700   20.5360 H   0  0  0  0  0  0  0  0  0  0  0  0
  -26.2110  -15.6810   20.0650 H   0  0  0  0  0  0  0  0  0  0  0  0
  1  5  2  0
  1  3  1  0
  2  6  1  0
  3  2  2  0
  4 53  1  0
  4  6  2  0
  5  4  1  0
  6  8  1  0
  7  5  1  0
  9  3  1  0
  9 10  1  0
 11 12  1  0
 11 10  1  0
 13 24  2  0
 14 12  1  0
 14 19  1  0
 15 23  1  0
 15 25  1  0
 16 22  1  0
 16 18  1  0
 17 23  1  0
 18 17  1  0
 19 18  2  0
 20 21  1  0
 20 14  2  0
 21 16  2  0
 22 15  1  0
 23 13  1  0
 25 27  2  0
 26 25  1  0
 28 26  1  0
 29 38  2  0
 29 34  1  0
 30 26  1  0
 30 34  1  0
 31 30  1  0
 32 33  1  0
 32 31  1  0
 33 29  1  0
 34 35  2  0
 35 36  1  0
 37 36  2  0
 38 37  1  0
 39 13  1  0
 39 44  1  0
 39 40  1  0
 40 43  1  1
 40 41  1  0
 42 40  1  0
 44 47  1  0
 45 49  1  0
 45 44  1  0
 46 45  2  0
 49 48  1  0
 51 49  1  0
 51 52  1  0
 51 50  1  0
 54 62  1  0
 55 60  1  0
 56 57  1  0
 56 55  1  0
 58 57  1  0
 58 67  1  0
 58 59  1  0
 60 54  1  0
 60 59  1  0
 61 54  2  0
 62 53  1  0
 62 63  1  0
 64 65  2  0
 65 84  1  0
 66 65  1  0
 66 69  1  0
 67 64  1  0
 67 68  1  0
 68 66  2  0
 69 70  1  0
 70 71  2  0
 72 75  1  0
 72 71  1  0
 73 72  2  0
 74 73  1  0
 74 69  2  0
 75 76  1  0
 76 77  1  0
 77 78  2  0
 79 78  1  0
 79 83  1  0
 80 79  2  0
 81 76  2  0
 81 80  1  0
 82 81  1  0
 84 85  1  0
 85 88  1  0
 85 87  1  0
 86 84  2  0
 89 90  1  0
 89 64  1  0
 91 89  1  0
M  ISO  4  11 101  12 101  54 100  62 100
M  END
>  <TORSDO>  (90) 
F 20

>  <SCORE>  (90) 
-14.225

>  <name>  (90) 
89

>  <ligand_id>  (90) 
89

>  <original_smiles>  (90) 
[H]c1c([H])c([H])c2c(c1[H])C([H])([H])C([H])([H])C([H])([H])C2([H])N([H])C(=O)C1([H])N(C(=O)C([H])(N([H])C(=O)C([H])(N([H])C([H])([H])[H])C([H])([H])[H])C(C([H])([H])[H])(C([H])([H])[H])C([H])([H])[H])C([H])([H])c2c([H])c(OC([H])([H])C([H])([H])C([H])([H])c3c([H])c(Cl)c(C([H])([H])N([H])C(=O)N4C([H])([H])C([H])([H])C([H])([H])C([H])(n5nc(-c6c([H])c([H])c(Oc7c([H])c([H])c(F)c([H])c7F)c([H])c6[H])c(C(=O)N([H])[H])c5N([H])[H])C4([H])[H])c(Cl)c3[H])c([H])c([H])c2C1([H])[H]

>  <smiles>  (90) 
[H]c1c([H])c([H])c2c(c1[H])C([H])([H])C([H])([H])C([H])([H])C2([H])N([H])C(=O)C1([H])N(C(=O)C([H])(N([H])C(=O)C([H])(N([H])C([H])([H])[H])C([H])([H])[H])C(C([H])([H])[H])(C([H])([H])[H])C([H])([H])[H])C([H])([H])c2c([H])c(OC([H])([H])C([H])([H])C([H])([H])c3c([H])c(Cl)c(C([H])([H])N([H])C(=O)N4C([H])([H])C([H])([H])C([H])([H])C([H])(n5nc(-c6c([H])c([H])c(Oc7c([H])c([H])c(F)c([H])c7F)c([H])c6[H])c(C(=O)N([H])[H])c5N([H])[H])C4([H])[H])c(Cl)c3[H])c([H])c([H])c2C1([H])[H]

> <Step>
22.0

> <Scaffold>
O=C(NC1CCCc2ccccc21)C1Cc2ccc(OCCCc3ccc(CNC(=O)N4CCCC(n5ccc(-c6ccc(Oc7ccccc7)cc6)n5)C4)cc3)cc2CN1

> <SMILES>
CNC(C)C(=O)NC(C(=O)N1Cc2cc(OCCCc3cc(Cl)c(CNC(=O)N4CCCC(n5nc(-c6ccc(Oc7ccc(F)cc7F)cc6)c(C(N)=O)c5N)C4)c(Cl)c3)ccc2CC1C(=O)NC1CCCc2ccccc21)C(C)(C)C

> <Tanimoto ROCS sim>
0.2910861670970917

> <Custom alerts>
1.0

> <Linker Num Aromatic Rings>
1.0

> <Linker Effective Length>
1.0

> <ADV>
0.9950755834579468

> <PostDock Tanimoto ROCS sim>
0.9906011819839478

> <raw_Linker Num Aromatic Rings>
1.0

> <raw_Linker Effective Length>
8.0

> <raw_ADV>
-14.222000122070312

> <total_score>
0.9964191913604736

> <ID>
default_job_89

> <PostDock Tanimoto ROCS sim (re-score)>
0.9838785

> <raw_ADV (re-score)>
-14.225

> <Final Intermolecular Energy>
-30.44

> <Final Total Internal Energy>
-2.664

> <Torsional Free Energy>
16.216

> <Unbound System's Energy>
-2.664

$$$$
default_job_90
     RDKit          3D

 93101  0  0  1  0  0  0  0  0999 V2000
  -28.9460  -21.8460   20.4840 C   0  0  0  0  0  2  0  0  0  0  0  0
  -29.0040  -23.1020   21.2800 N   0  0  0  0  0  4  0  0  0  0  0  0
  -28.0920  -23.2270   21.6970 H   0  0  0  0  0  0  0  0  0  0  0  0
  -29.6360  -22.9340   22.0460 H   0  0  0  0  0  0  0  0  0  0  0  0
  -29.3830  -24.3880   20.6220 C   0  0  0  0  0  2  0  0  0  0  0  0
  -28.1720  -25.2010   20.1080 C   0  0  0  0  0  2  0  0  0  0  0  0
  -28.3600  -26.6350   20.1860 O   0  0  0  0  0  0  0  0  0  0  0  0
  -24.6100  -31.8810   23.2540 C   0  0  0  0  0  0  0  0  0  0  0  0
  -27.2070  -27.4030   20.1580 C   0  0  0  0  0  0  0  0  0  0  0  0
  -23.3920  -30.4790   21.6280 C   0  0  0  0  0  3  0  0  0  0  0  0
  -24.8280  -28.9450   20.1860 C   0  0  0  0  0  0  0  0  0  0  0  0
  -25.9250  -30.8180   21.4230 C   0  0  0  0  0  2  0  0  0  0  0  0
  -25.9970  -29.4510   20.7710 C   0  0  0  0  0  0  0  0  0  0  0  0
  -27.1910  -28.6950   20.7440 C   0  0  0  0  0  3  0  0  0  0  0  0
  -26.0130  -26.9220   19.5650 C   0  0  0  0  0  3  0  0  0  0  0  0
  -24.8360  -27.6810   19.5770 C   0  0  0  0  0  3  0  0  0  0  0  0
  -23.5880  -29.8080   20.2450 C   0  0  0  0  0  2  0  0  0  0  0  0
  -24.6620  -31.0700   22.1620 N   0  0  0  0  0  0  0  0  0  0  0  0
  -23.5270  -32.1740   23.7780 O   0  0  0  0  0  0  0  0  0  0  0  0
  -22.7420  -29.4550   22.5870 C   0  0  0  0  0  0  0  0  0  0  0  0
  -21.4170  -29.2710   22.4630 N   0  0  0  0  0  0  0  0  0  0  0  0
  -23.4280  -28.8290   23.3990 O   0  0  0  0  0  0  0  0  0  0  0  0
  -20.9240  -29.8260   21.7780 H   0  0  0  0  0  0  0  0  0  0  0  0
  -18.0440  -28.0680   22.9650 C   0  0  0  0  0  0  0  0  0  0  0  0
  -20.6020  -28.3310   23.2330 C   0  0  0  0  0  3  0  0  0  0  0  0
  -20.7080  -26.8990   22.6590 C   0  0  0  0  0  2  0  0  0  0  0  0
  -19.6070  -26.5730   21.6470 C   0  0  0  0  0  2  0  0  0  0  0  0
  -18.2240  -26.7170   22.2900 C   0  0  0  0  0  2  0  0  0  0  0  0
  -19.1620  -28.8330   23.3930 C   0  0  0  0  0  0  0  0  0  0  0  0
  -18.9410  -30.0980   23.9810 C   0  0  0  0  0  3  0  0  0  0  0  0
  -17.6360  -30.5960   24.1450 C   0  0  0  0  0  3  0  0  0  0  0  0
  -16.5330  -29.8290   23.7340 C   0  0  0  0  0  3  0  0  0  0  0  0
  -16.7380  -28.5660   23.1490 C   0  0  0  0  0  3  0  0  0  0  0  0
  -25.9010  -32.5020   23.8750 C   0  0  0  0  0  3  0  0  0  0  0  0
  -25.6020  -33.9040   24.2050 N   0  0  0  0  0  0  0  0  0  0  0  0
  -25.9240  -34.9530   23.4370 C   0  0  0  0  0  0  0  0  0  0  0  0
  -26.5820  -34.8450   22.3980 O   0  0  0  0  0  0  0  0  0  0  0  0
  -25.0360  -34.0690   25.0260 H   0  0  0  0  0  0  0  0  0  0  0  0
  -24.1910  -36.7410   23.0990 C   0  0  0  0  0  1  0  0  0  0  0  0
  -25.4410  -36.3430   23.8980 C   0  0  0  0  0  3  0  0  0  0  0  0
  -27.5830  -37.2260   24.7040 C   0  0  0  0  0  1  0  0  0  0  0  0
  -26.4730  -37.3930   23.7700 N   0  0  0  0  0  0  0  0  0  0  0  0
  -26.0690  -38.3140   23.9250 H   0  0  0  0  0  0  0  0  0  0  0  0
  -26.4180  -31.7340   25.1500 C   0  0  1  0  0  0  0  0  0  0  0  0
  -25.3320  -31.5010   26.2230 C   0  0  0  0  0  1  0  0  0  0  0  0
  -26.9950  -30.3550   24.7600 C   0  0  0  0  0  1  0  0  0  0  0  0
  -27.5700  -32.5310   25.8100 C   0  0  0  0  0  1  0  0  0  0  0  0
  -30.9510  -21.5560   18.8930 C   0  0  0  0  0  1  0  0  0  0  0  0
  -30.3280  -21.1700   20.2500 C   0  0  0  0  0  3  0  0  0  0  0  0
  -30.7610  -19.0690   21.6220 C   0  0  0  0  0  3  0  0  0  0  0  0
  -29.7250  -18.7790   19.4420 C   0  0  0  0  0  3  0  0  0  0  0  0
  -30.6940  -17.6790   21.8550 C   0  0  0  0  0  3  0  0  0  0  0  0
  -29.6730  -17.3820   19.6680 C   0  0  0  0  0  3  0  0  0  0  0  0
  -30.2660  -19.6410   20.4290 C   0  0  0  0  0  0  0  0  0  0  0  0
  -30.1530  -16.8220   20.8760 C   0  0  0  0  0  0  0  0  0  0  0  0
  -30.6840  -14.4560   20.4830 C   0  0  0  0  0  0  0  0  0  0  0  0
  -30.3780  -12.3170   19.2990 C   0  0  0  0  0  2  0  0  0  0  0  0
  -29.4370  -12.5610   18.0980 C   0  0  0  0  0  2  0  0  0  0  0  0
  -27.9610  -12.4210   18.5180 C   0  0  0  0  0  2  0  0  0  0  0  0
  -27.6280  -13.2310   19.7990 C   0  0  0  0  0  3  0  0  0  0  0  0
  -28.6810  -12.9730   20.9030 C   0  0  0  0  0  2  0  0  0  0  0  0
  -30.0140  -13.2780   20.3510 N   0  0  0  0  0  0  0  0  0  0  0  0
  -31.7880  -14.6640   19.9680 O   0  0  0  0  0  0  0  0  0  0  0  0
  -30.0230  -15.4270   21.1350 N   0  0  0  0  0  0  0  0  0  0  0  0
  -29.1830  -15.1330   21.6110 H   0  0  0  0  0  0  0  0  0  0  0  0
  -25.2210  -13.8390   20.4820 C   0  0  0  0  0  0  0  0  0  0  0  0
  -24.1520  -13.0670   20.8490 C   0  0  0  0  0  0  0  0  0  0  0  0
  -24.6150  -11.7160   20.8290 C   0  0  0  0  0  0  0  0  0  0  0  0
  -26.2700  -12.9570   20.2670 N   0  0  0  0  0  0  0  0  0  0  0  0
  -25.9080  -11.6750   20.5320 N   0  0  0  0  0  0  0  0  0  0  0  0
  -23.8910  -10.4520   21.0190 C   0  0  0  0  0  0  0  0  0  0  0  0
  -24.3180   -9.4910   21.9610 C   0  0  0  0  0  3  0  0  0  0  0  0
  -23.5940   -8.2930   22.1390 C   0  0  0  0  0  3  0  0  0  0  0  0
  -22.4290   -8.0470   21.3770 C   0  0  0  0  0  0  0  0  0  0  0  0
  -22.0190   -8.9970   20.4240 C   0  0  0  0  0  3  0  0  0  0  0  0
  -22.7440  -10.1870   20.2430 C   0  0  0  0  0  3  0  0  0  0  0  0
  -21.6750   -6.9020   21.4660 O   0  0  0  0  0  0  0  0  0  0  0  0
  -21.6130   -6.1670   22.6240 C   0  0  0  0  0  0  0  0  0  0  0  0
  -21.1750   -6.7310   23.8420 C   0  0  0  0  0  3  0  0  0  0  0  0
  -21.0630   -5.9240   24.9910 C   0  0  0  0  0  3  0  0  0  0  0  0
  -21.3760   -4.5530   24.9240 C   0  0  0  0  0  0  0  0  0  0  0  0
  -21.8030   -3.9880   23.7100 C   0  0  0  0  0  3  0  0  0  0  0  0
  -21.9190   -4.7930   22.5630 C   0  0  0  0  0  0  0  0  0  0  0  0
  -22.3120   -4.2380   21.3900 F   0  0  0  0  0  0  0  0  0  0  0  0
  -21.2600   -3.7770   26.0250 F   0  0  0  0  0  0  0  0  0  0  0  0
  -22.7540  -13.5420   21.1160 C   0  0  0  0  0  0  0  0  0  0  0  0
  -22.0240  -12.8480   21.9840 N   0  0  0  0  0  0  0  0  0  0  0  0
  -22.3170  -14.5620   20.5870 O   0  0  0  0  0  0  0  0  0  0  0  0
  -22.3900  -12.0260   22.4370 H   0  0  0  0  0  0  0  0  0  0  0  0
  -21.0840  -13.1470   22.2000 H   0  0  0  0  0  0  0  0  0  0  0  0
  -25.3860  -15.2100   20.3020 N   0  0  0  0  0  0  0  0  0  0  0  0
  -24.6200  -15.8690   20.3970 H   0  0  0  0  0  0  0  0  0  0  0  0
  -26.2520  -15.6540   20.0210 H   0  0  0  0  0  0  0  0  0  0  0  0
  1  2  1  0
  2  3  1  0
  2  4  1  0
  5  2  1  0
  6  7  1  0
  6  5  1  0
  8 19  2  0
  9  7  1  0
  9 14  1  0
 10 18  1  0
 10 20  1  0
 11 17  1  0
 11 13  1  0
 12 18  1  0
 13 12  1  0
 14 13  2  0
 15 16  1  0
 15  9  2  0
 16 11  2  0
 17 10  1  0
 18  8  1  0
 20 22  2  0
 21 20  1  0
 23 21  1  0
 24 33  2  0
 24 29  1  0
 25 21  1  0
 25 29  1  0
 26 25  1  0
 27 28  1  0
 27 26  1  0
 28 24  1  0
 29 30  2  0
 30 31  1  0
 32 31  2  0
 33 32  1  0
 34  8  1  0
 34 35  1  0
 34 44  1  0
 35 38  1  0
 36 40  1  0
 36 35  1  0
 37 36  2  0
 40 39  1  0
 42 40  1  0
 42 43  1  0
 42 41  1  0
 44 47  1  1
 44 45  1  0
 46 44  1  0
 49 48  1  0
 49 54  1  0
 49  1  1  0
 50 52  1  0
 51 53  2  0
 51 54  1  0
 53 55  1  0
 54 50  2  0
 55 64  1  0
 55 52  2  0
 56 64  1  0
 57 62  1  0
 58 59  1  0
 58 57  1  0
 60 59  1  0
 60 69  1  0
 60 61  1  0
 62 56  1  0
 62 61  1  0
 63 56  2  0
 64 65  1  0
 66 67  2  0
 67 86  1  0
 68 67  1  0
 68 71  1  0
 69 66  1  0
 69 70  1  0
 70 68  2  0
 71 72  1  0
 72 73  2  0
 74 77  1  0
 74 73  1  0
 75 74  2  0
 76 75  1  0
 76 71  2  0
 77 78  1  0
 78 79  1  0
 79 80  2  0
 81 80  1  0
 81 85  1  0
 82 81  2  0
 83 78  2  0
 83 82  1  0
 84 83  1  0
 86 87  1  0
 87 90  1  0
 87 89  1  0
 88 86  2  0
 91 92  1  0
 91 66  1  0
 93 91  1  0
M  ISO  4   6 101   7 101  56 100  64 100
M  END
>  <TORSDO>  (91) 
F 21

>  <SCORE>  (91) 
-13.562

>  <name>  (91) 
90

>  <ligand_id>  (91) 
90

>  <original_smiles>  (91) 
[H]c1c([H])c([H])c2c(c1[H])C([H])([H])C([H])([H])C([H])([H])C2([H])N([H])C(=O)C1([H])N(C(=O)C([H])(N([H])C(=O)C([H])(N([H])C([H])([H])[H])C([H])([H])[H])C(C([H])([H])[H])(C([H])([H])[H])C([H])([H])[H])C([H])([H])c2c([H])c(OC([H])([H])C([H])([H])[N+]([H])([H])C([H])([H])C([H])(c3c([H])c([H])c(N([H])C(=O)N4C([H])([H])C([H])([H])C([H])([H])C([H])(n5nc(-c6c([H])c([H])c(Oc7c([H])c([H])c(F)c([H])c7F)c([H])c6[H])c(C(=O)N([H])[H])c5N([H])[H])C4([H])[H])c([H])c3[H])C([H])([H])[H])c([H])c([H])c2C1([H])[H]

>  <smiles>  (91) 
[H]c1c([H])c([H])c2c(c1[H])C([H])([H])C([H])([H])C([H])([H])C2([H])N([H])C(=O)C1([H])N(C(=O)C([H])(N([H])C(=O)C([H])(N([H])C([H])([H])[H])C([H])([H])[H])C(C([H])([H])[H])(C([H])([H])[H])C([H])([H])[H])C([H])([H])c2c([H])c(OC([H])([H])C([H])([H])[N+]([H])([H])C([H])([H])C([H])(c3c([H])c([H])c(N([H])C(=O)N4C([H])([H])C([H])([H])C([H])([H])C([H])(n5nc(-c6c([H])c([H])c(Oc7c([H])c([H])c(F)c([H])c7F)c([H])c6[H])c(C(=O)N([H])[H])c5N([H])[H])C4([H])[H])c([H])c3[H])C([H])([H])[H])c([H])c([H])c2C1([H])[H]

> <Step>
122.0

> <Scaffold>
O=C(NC1CCCc2ccccc21)C1Cc2ccc(OCCNCCc3ccc(NC(=O)N4CCCC(n5ccc(-c6ccc(Oc7ccccc7)cc6)n5)C4)cc3)cc2CN1

> <SMILES>
CNC(C)C(=O)NC(C(=O)N1Cc2cc(OCCNCC(C)c3ccc(NC(=O)N4CCCC(n5nc(-c6ccc(Oc7ccc(F)cc7F)cc6)c(C(N)=O)c5N)C4)cc3)ccc2CC1C(=O)NC1CCCc2ccccc21)C(C)(C)C

> <Tanimoto ROCS sim>
0.26423296332359314

> <Custom alerts>
1.0

> <Linker Num Aromatic Rings>
1.0

> <Linker Effective Length>
1.0

> <ADV>
0.9928731918334961

> <PostDock Tanimoto ROCS sim>
0.9927877187728882

> <raw_Linker Num Aromatic Rings>
1.0

> <raw_Linker Effective Length>
9.0

> <raw_ADV>
-13.576000213623047

> <total_score>
0.9964152574539185

> <ID>
default_job_90

> <PostDock Tanimoto ROCS sim (re-score)>
0.98343486

> <raw_ADV (re-score)>
-13.562

> <Final Intermolecular Energy>
-29.815

> <Final Total Internal Energy>
-2.936

> <Torsional Free Energy>
16.253

> <Unbound System's Energy>
-2.936

$$$$
default_job_91
     RDKit          3D

 92100  0  0  1  0  0  0  0  0999 V2000
  -28.3180  -22.0140   19.0660 C   0  0  0  0  0  0  0  0  0  0  0  0
  -28.5850  -20.6830   19.4820 C   0  0  0  0  0  0  0  0  0  0  0  0
  -29.1970  -22.8250   19.7410 C   0  0  0  0  0  0  0  0  0  0  0  0
  -29.6190  -20.6410   20.3780 C   0  0  0  0  0  0  0  0  0  0  0  0
  -27.2580  -22.4200   18.0750 C   0  0  0  0  0  1  0  0  0  0  0  0
  -31.0730  -22.4270   21.4260 C   0  0  0  0  0  1  0  0  0  0  0  0
  -29.9950  -21.9860   20.5460 N   0  0  0  0  0  0  0  0  0  0  0  0
  -27.6830  -19.3290   18.8990 Cl  0  0  0  0  0  0  0  0  0  0  0  0
  -29.3440  -24.3470   19.6320 C   0  0  0  0  0  2  0  0  0  0  0  0
  -28.2770  -25.1980   20.3800 C   0  0  0  0  0  2  0  0  0  0  0  0
  -28.3950  -26.6320   20.1570 O   0  0  0  0  0  0  0  0  0  0  0  0
  -24.6000  -31.8770   23.2480 C   0  0  0  0  0  0  0  0  0  0  0  0
  -27.2310  -27.3900   20.1680 C   0  0  0  0  0  0  0  0  0  0  0  0
  -23.3940  -30.4730   21.6110 C   0  0  0  0  0  3  0  0  0  0  0  0
  -24.8450  -28.9350   20.1850 C   0  0  0  0  0  0  0  0  0  0  0  0
  -25.9280  -30.8100   21.4270 C   0  0  0  0  0  2  0  0  0  0  0  0
  -26.0070  -29.4400   20.7790 C   0  0  0  0  0  0  0  0  0  0  0  0
  -27.2030  -28.6770   20.7670 C   0  0  0  0  0  3  0  0  0  0  0  0
  -26.0500  -26.9220   19.5470 C   0  0  0  0  0  3  0  0  0  0  0  0
  -24.8630  -27.6760   19.5640 C   0  0  0  0  0  3  0  0  0  0  0  0
  -23.6080  -29.8040   20.2290 C   0  0  0  0  0  2  0  0  0  0  0  0
  -24.6580  -31.0650   22.1550 N   0  0  0  0  0  0  0  0  0  0  0  0
  -23.5120  -32.1750   23.7630 O   0  0  0  0  0  0  0  0  0  0  0  0
  -22.7380  -29.4510   22.5680 C   0  0  0  0  0  0  0  0  0  0  0  0
  -21.4140  -29.2690   22.4370 N   0  0  0  0  0  0  0  0  0  0  0  0
  -23.4180  -28.8260   23.3860 O   0  0  0  0  0  0  0  0  0  0  0  0
  -20.9240  -29.8290   21.7540 H   0  0  0  0  0  0  0  0  0  0  0  0
  -18.0360  -28.0790   22.9320 C   0  0  0  0  0  0  0  0  0  0  0  0
  -20.5950  -28.3320   23.2070 C   0  0  0  0  0  3  0  0  0  0  0  0
  -20.6950  -26.9010   22.6320 C   0  0  0  0  0  2  0  0  0  0  0  0
  -19.5950  -26.5800   21.6150 C   0  0  0  0  0  2  0  0  0  0  0  0
  -18.2120  -26.7300   22.2560 C   0  0  0  0  0  2  0  0  0  0  0  0
  -19.1560  -28.8380   23.3650 C   0  0  0  0  0  0  0  0  0  0  0  0
  -18.9410  -30.1010   23.9580 C   0  0  0  0  0  3  0  0  0  0  0  0
  -17.6370  -30.6060   24.1230 C   0  0  0  0  0  3  0  0  0  0  0  0
  -16.5320  -29.8440   23.7060 C   0  0  0  0  0  3  0  0  0  0  0  0
  -16.7320  -28.5830   23.1180 C   0  0  0  0  0  3  0  0  0  0  0  0
  -25.8860  -32.4990   23.8750 C   0  0  0  0  0  3  0  0  0  0  0  0
  -25.5830  -33.8990   24.2030 N   0  0  0  0  0  0  0  0  0  0  0  0
  -25.9100  -34.9470   23.4370 C   0  0  0  0  0  0  0  0  0  0  0  0
  -26.5710  -34.8380   22.4020 O   0  0  0  0  0  0  0  0  0  0  0  0
  -24.9920  -34.0590   25.0060 H   0  0  0  0  0  0  0  0  0  0  0  0
  -24.1740  -36.7340   23.0910 C   0  0  0  0  0  1  0  0  0  0  0  0
  -25.4230  -36.3360   23.8930 C   0  0  0  0  0  3  0  0  0  0  0  0
  -27.5640  -37.2240   24.7010 C   0  0  0  0  0  1  0  0  0  0  0  0
  -26.4520  -37.3900   23.7680 N   0  0  0  0  0  0  0  0  0  0  0  0
  -26.0460  -38.3080   23.9200 H   0  0  0  0  0  0  0  0  0  0  0  0
  -26.4010  -31.7270   25.1540 C   0  0  1  0  0  0  0  0  0  0  0  0
  -25.3060  -31.4960   26.2200 C   0  0  0  0  0  1  0  0  0  0  0  0
  -26.9810  -30.3480   24.7650 C   0  0  0  0  0  1  0  0  0  0  0  0
  -27.5510  -32.5220   25.8170 C   0  0  0  0  0  1  0  0  0  0  0  0
  -30.3020  -19.4810   21.1150 C   0  0  0  0  0  3  0  0  0  0  0  0
  -29.8650  -18.0230   20.7460 C   0  0  0  0  0  3  0  0  0  0  0  0
  -30.6560  -16.8590   21.4240 C   0  0  0  0  0  2  0  0  0  0  0  0
  -30.6930  -14.4990   20.4700 C   0  0  0  0  0  0  0  0  0  0  0  0
  -30.3480  -12.3450   19.2970 C   0  0  0  0  0  2  0  0  0  0  0  0
  -29.3960  -12.5370   18.1010 C   0  0  0  0  0  2  0  0  0  0  0  0
  -27.9290  -12.3800   18.5470 C   0  0  0  0  0  2  0  0  0  0  0  0
  -27.5990  -13.2250   19.8060 C   0  0  0  0  0  3  0  0  0  0  0  0
  -28.6670  -13.0360   20.9070 C   0  0  0  0  0  2  0  0  0  0  0  0
  -29.9880  -13.3370   20.3280 N   0  0  0  0  0  0  0  0  0  0  0  0
  -31.7850  -14.6740   19.9250 O   0  0  0  0  0  0  0  0  0  0  0  0
  -30.1050  -15.5010   21.1620 N   0  0  0  0  0  0  0  0  0  0  0  0
  -29.2190  -15.2780   21.5900 H   0  0  0  0  0  0  0  0  0  0  0  0
  -25.2070  -13.8300   20.5290 C   0  0  0  0  0  0  0  0  0  0  0  0
  -24.1400  -13.0600   20.9040 C   0  0  0  0  0  0  0  0  0  0  0  0
  -24.5960  -11.7080   20.8670 C   0  0  0  0  0  0  0  0  0  0  0  0
  -26.2500  -12.9490   20.2920 N   0  0  0  0  0  0  0  0  0  0  0  0
  -25.8860  -11.6660   20.5520 N   0  0  0  0  0  0  0  0  0  0  0  0
  -23.8660  -10.4480   21.0590 C   0  0  0  0  0  0  0  0  0  0  0  0
  -24.3110   -9.4730   21.9800 C   0  0  0  0  0  3  0  0  0  0  0  0
  -23.5870   -8.2760   22.1620 C   0  0  0  0  0  3  0  0  0  0  0  0
  -22.4010   -8.0450   21.4250 C   0  0  0  0  0  0  0  0  0  0  0  0
  -21.9740   -9.0080   20.4940 C   0  0  0  0  0  3  0  0  0  0  0  0
  -22.7010  -10.1970   20.3090 C   0  0  0  0  0  3  0  0  0  0  0  0
  -21.6450   -6.9030   21.5180 O   0  0  0  0  0  0  0  0  0  0  0  0
  -21.6180   -6.1460   22.6630 C   0  0  0  0  0  0  0  0  0  0  0  0
  -21.2210   -6.6870   23.9050 C   0  0  0  0  0  3  0  0  0  0  0  0
  -21.1420   -5.8550   25.0410 C   0  0  0  0  0  3  0  0  0  0  0  0
  -21.4510   -4.4860   24.9350 C   0  0  0  0  0  0  0  0  0  0  0  0
  -21.8440   -3.9470   23.6990 C   0  0  0  0  0  3  0  0  0  0  0  0
  -21.9240   -4.7750   22.5650 C   0  0  0  0  0  0  0  0  0  0  0  0
  -22.2800   -4.2450   21.3700 F   0  0  0  0  0  0  0  0  0  0  0  0
  -21.3680   -3.6870   26.0240 F   0  0  0  0  0  0  0  0  0  0  0  0
  -22.7450  -13.5390   21.1880 C   0  0  0  0  0  0  0  0  0  0  0  0
  -22.0240  -12.8440   22.0600 N   0  0  0  0  0  0  0  0  0  0  0  0
  -22.3050  -14.5650   20.6740 O   0  0  0  0  0  0  0  0  0  0  0  0
  -22.3930  -12.0150   22.5000 H   0  0  0  0  0  0  0  0  0  0  0  0
  -21.0900  -13.1490   22.2920 H   0  0  0  0  0  0  0  0  0  0  0  0
  -25.3740  -15.2010   20.3530 N   0  0  0  0  0  0  0  0  0  0  0  0
  -24.6030  -15.8510   20.4570 H   0  0  0  0  0  0  0  0  0  0  0  0
  -26.2200  -15.6420   20.0200 H   0  0  0  0  0  0  0  0  0  0  0  0
  1  2  1  0
  1  3  2  0
  2  4  2  0
  3  7  1  0
  4  7  1  0
  4 52  1  0
  5  1  1  0
  7  6  1  0
  8  2  1  0
  9  3  1  0
  9 10  1  0
 11 13  1  0
 11 10  1  0
 12 23  2  0
 13 18  1  0
 14 22  1  0
 14 24  1  0
 15 21  1  0
 15 17  1  0
 16 22  1  0
 17 16  1  0
 18 17  2  0
 19 20  1  0
 19 13  2  0
 20 15  2  0
 21 14  1  0
 22 12  1  0
 24 26  2  0
 25 24  1  0
 27 25  1  0
 28 37  2  0
 28 33  1  0
 29 25  1  0
 29 33  1  0
 30 29  1  0
 31 32  1  0
 31 30  1  0
 32 28  1  0
 33 34  2  0
 34 35  1  0
 36 35  2  0
 37 36  1  0
 38 12  1  0
 38 39  1  0
 38 48  1  0
 39 42  1  0
 40 44  1  0
 40 39  1  0
 41 40  2  0
 44 43  1  0
 46 44  1  0
 46 47  1  0
 46 45  1  0
 48 51  1  1
 48 49  1  0
 50 48  1  0
 53 52  2  0
 53 54  1  0
 55 63  1  0
 56 61  1  0
 57 58  1  0
 57 56  1  0
 59 58  1  0
 59 68  1  0
 59 60  1  0
 61 55  1  0
 61 60  1  0
 62 55  2  0
 63 54  1  0
 63 64  1  0
 65 66  2  0
 66 85  1  0
 67 66  1  0
 67 70  1  0
 68 65  1  0
 68 69  1  0
 69 67  2  0
 70 71  1  0
 71 72  2  0
 73 76  1  0
 73 72  1  0
 74 73  2  0
 75 74  1  0
 75 70  2  0
 76 77  1  0
 77 78  1  0
 78 79  2  0
 80 79  1  0
 80 84  1  0
 81 80  2  0
 82 77  2  0
 82 81  1  0
 83 82  1  0
 85 86  1  0
 86 89  1  0
 86 88  1  0
 87 85  2  0
 90 91  1  0
 90 65  1  0
 92 90  1  0
M  ISO  4  10 101  11 101  55 100  63 100
M  END
>  <TORSDO>  (92) 
F 21

>  <SCORE>  (92) 
-13.701

>  <name>  (92) 
91

>  <ligand_id>  (92) 
91

>  <original_smiles>  (92) 
[H]c1c([H])c([H])c2c(c1[H])C([H])([H])C([H])([H])C([H])([H])C2([H])N([H])C(=O)C1([H])N(C(=O)C([H])(N([H])C(=O)C([H])(N([H])C([H])([H])[H])C([H])([H])[H])C(C([H])([H])[H])(C([H])([H])[H])C([H])([H])[H])C([H])([H])c2c([H])c(OC([H])([H])C([H])([H])c3c(C([H])([H])[H])c(Cl)c(C([H])([H])C([H])([H])C([H])([H])N([H])C(=O)N4C([H])([H])C([H])([H])C([H])([H])C([H])(n5nc(-c6c([H])c([H])c(Oc7c([H])c([H])c(F)c([H])c7F)c([H])c6[H])c(C(=O)N([H])[H])c5N([H])[H])C4([H])[H])n3C([H])([H])[H])c([H])c([H])c2C1([H])[H]

>  <smiles>  (92) 
[H]c1c([H])c([H])c2c(c1[H])C([H])([H])C([H])([H])C([H])([H])C2([H])N([H])C(=O)C1([H])N(C(=O)C([H])(N([H])C(=O)C([H])(N([H])C([H])([H])[H])C([H])([H])[H])C(C([H])([H])[H])(C([H])([H])[H])C([H])([H])[H])C([H])([H])c2c([H])c(OC([H])([H])C([H])([H])c3c(C([H])([H])[H])c(Cl)c(C([H])([H])C([H])([H])C([H])([H])N([H])C(=O)N4C([H])([H])C([H])([H])C([H])([H])C([H])(n5nc(-c6c([H])c([H])c(Oc7c([H])c([H])c(F)c([H])c7F)c([H])c6[H])c(C(=O)N([H])[H])c5N([H])[H])C4([H])[H])n3C([H])([H])[H])c([H])c([H])c2C1([H])[H]

> <Step>
26.0

> <Scaffold>
O=C(NC1CCCc2ccccc21)C1Cc2ccc(OCCc3ccc(CCCNC(=O)N4CCCC(n5ccc(-c6ccc(Oc7ccccc7)cc6)n5)C4)[nH]3)cc2CN1

> <SMILES>
CNC(C)C(=O)NC(C(=O)N1Cc2cc(OCCc3c(C)c(Cl)c(CCCNC(=O)N4CCCC(n5nc(-c6ccc(Oc7ccc(F)cc7F)cc6)c(C(N)=O)c5N)C4)n3C)ccc2CC1C(=O)NC1CCCc2ccccc21)C(C)(C)C

> <Tanimoto ROCS sim>
0.23735876381397247

> <Custom alerts>
1.0

> <Linker Num Aromatic Rings>
1.0

> <Linker Effective Length>
1.0

> <ADV>
0.9933987855911255

> <PostDock Tanimoto ROCS sim>
0.992249608039856

> <raw_Linker Num Aromatic Rings>
1.0

> <raw_Linker Effective Length>
8.0

> <raw_ADV>
-13.710000038146973

> <total_score>
0.9964120388031006

> <ID>
default_job_91

> <PostDock Tanimoto ROCS sim (re-score)>
0.98519003

> <raw_ADV (re-score)>
-13.701

> <Final Intermolecular Energy>
-30.121

> <Final Total Internal Energy>
-2.766

> <Torsional Free Energy>
16.42

> <Unbound System's Energy>
-2.766

$$$$
default_job_92
     RDKit          3D

 92101  0  0  1  0  0  0  0  0999 V2000
  -29.9720  -22.6710   18.9490 C   0  0  0  0  0  3  0  0  0  0  0  0
  -29.4680  -22.2060   21.2800 C   0  0  0  0  0  3  0  0  0  0  0  0
  -30.0140  -21.2800   18.7890 C   0  0  0  0  0  0  0  0  0  0  0  0
  -29.6830  -23.1480   20.2420 C   0  0  0  0  0  0  0  0  0  0  0  0
  -29.7890  -20.4280   19.8560 C   0  0  0  0  0  0  0  0  0  0  0  0
  -30.2850  -20.5100   17.5380 C   0  0  0  0  0  2  0  0  0  0  0  0
  -30.3560  -19.0730   18.0870 C   0  0  0  0  0  2  0  0  0  0  0  0
  -29.5230  -20.8590   21.1010 N   0  0  0  0  0  0  0  0  0  0  0  0
  -29.8540  -19.0820   19.4720 N   0  0  0  0  0  0  0  0  0  0  0  0
  -29.6210  -24.6500   20.5030 C   0  0  0  0  0  2  0  0  0  0  0  0
  -28.3520  -25.3170   19.9360 C   0  0  0  0  0  2  0  0  0  0  0  0
  -28.3960  -26.7280   20.1760 O   0  0  0  0  0  0  0  0  0  0  0  0
  -24.5950  -31.8840   23.2470 C   0  0  0  0  0  0  0  0  0  0  0  0
  -27.2080  -27.4320   20.1540 C   0  0  0  0  0  0  0  0  0  0  0  0
  -23.3730  -30.4820   21.6180 C   0  0  0  0  0  3  0  0  0  0  0  0
  -24.8110  -28.9390   20.1830 C   0  0  0  0  0  0  0  0  0  0  0  0
  -25.9000  -30.8310   21.4050 C   0  0  0  0  0  2  0  0  0  0  0  0
  -25.9750  -29.4620   20.7620 C   0  0  0  0  0  0  0  0  0  0  0  0
  -27.1740  -28.7170   20.7410 C   0  0  0  0  0  3  0  0  0  0  0  0
  -26.0240  -26.9210   19.5690 C   0  0  0  0  0  3  0  0  0  0  0  0
  -24.8310  -27.6680   19.5850 C   0  0  0  0  0  3  0  0  0  0  0  0
  -23.5710  -29.8030   20.2360 C   0  0  0  0  0  2  0  0  0  0  0  0
  -24.6420  -31.0770   22.1510 N   0  0  0  0  0  0  0  0  0  0  0  0
  -23.5130  -32.1810   23.7740 O   0  0  0  0  0  0  0  0  0  0  0  0
  -22.7250  -29.4620   22.5820 C   0  0  0  0  0  0  0  0  0  0  0  0
  -21.3990  -29.2780   22.4560 N   0  0  0  0  0  0  0  0  0  0  0  0
  -23.4100  -28.8380   23.3970 O   0  0  0  0  0  0  0  0  0  0  0  0
  -20.9070  -29.8390   21.7750 H   0  0  0  0  0  0  0  0  0  0  0  0
  -18.0280  -28.0720   22.9440 C   0  0  0  0  0  0  0  0  0  0  0  0
  -20.5830  -28.3400   23.2270 C   0  0  0  0  0  3  0  0  0  0  0  0
  -20.6940  -26.9060   22.6590 C   0  0  0  0  0  2  0  0  0  0  0  0
  -19.5980  -26.5730   21.6410 C   0  0  0  0  0  2  0  0  0  0  0  0
  -18.2130  -26.7180   22.2780 C   0  0  0  0  0  2  0  0  0  0  0  0
  -19.1430  -28.8390   23.3760 C   0  0  0  0  0  0  0  0  0  0  0  0
  -18.9180  -30.1050   23.9580 C   0  0  0  0  0  3  0  0  0  0  0  0
  -17.6110  -30.6050   24.1120 C   0  0  0  0  0  3  0  0  0  0  0  0
  -16.5110  -29.8350   23.6960 C   0  0  0  0  0  3  0  0  0  0  0  0
  -16.7210  -28.5700   23.1190 C   0  0  0  0  0  3  0  0  0  0  0  0
  -25.8890  -32.4990   23.8690 C   0  0  0  0  0  3  0  0  0  0  0  0
  -26.4120  -31.7150   25.1350 C   0  0  1  0  0  0  0  0  0  0  0  0
  -25.3260  -31.4780   26.2100 C   0  0  0  0  0  1  0  0  0  0  0  0
  -26.9830  -30.3370   24.7280 C   0  0  0  0  0  1  0  0  0  0  0  0
  -27.5720  -32.5000   25.7940 C   0  0  0  0  0  1  0  0  0  0  0  0
  -25.5920  -33.8960   24.2080 N   0  0  0  0  0  0  0  0  0  0  0  0
  -25.9140  -34.9480   23.4450 C   0  0  0  0  0  0  0  0  0  0  0  0
  -26.5680  -34.8450   22.4040 O   0  0  0  0  0  0  0  0  0  0  0  0
  -25.0100  -34.0500   25.0190 H   0  0  0  0  0  0  0  0  0  0  0  0
  -24.1770  -36.7390   23.1250 C   0  0  0  0  0  1  0  0  0  0  0  0
  -25.4350  -36.3360   23.9110 C   0  0  0  0  0  3  0  0  0  0  0  0
  -27.5890  -37.2200   24.6930 C   0  0  0  0  0  1  0  0  0  0  0  0
  -26.4640  -37.3900   23.7770 N   0  0  0  0  0  0  0  0  0  0  0  0
  -26.0610  -38.3090   23.9370 H   0  0  0  0  0  0  0  0  0  0  0  0
  -30.1550  -18.0090   20.4240 C   0  0  0  0  0  2  0  0  0  0  0  0
  -29.7390  -16.6440   19.8380 C   0  0  0  0  0  2  0  0  0  0  0  0
  -30.6400  -14.4450   20.4510 C   0  0  0  0  0  0  0  0  0  0  0  0
  -30.3420  -12.2780   19.3450 C   0  0  0  0  0  2  0  0  0  0  0  0
  -29.4120  -12.5200   18.1370 C   0  0  0  0  0  2  0  0  0  0  0  0
  -27.9320  -12.4040   18.5530 C   0  0  0  0  0  2  0  0  0  0  0  0
  -27.6010  -13.2290   19.8250 C   0  0  0  0  0  3  0  0  0  0  0  0
  -28.6490  -12.9850   20.9380 C   0  0  0  0  0  2  0  0  0  0  0  0
  -29.9860  -13.2570   20.3820 N   0  0  0  0  0  0  0  0  0  0  0  0
  -31.7770  -14.6260   20.0040 O   0  0  0  0  0  0  0  0  0  0  0  0
  -29.8450  -15.4870   20.7370 N   0  0  0  0  0  0  0  0  0  0  0  0
  -28.9890  -15.2410   21.2130 H   0  0  0  0  0  0  0  0  0  0  0  0
  -25.2020  -13.8660   20.5080 C   0  0  0  0  0  0  0  0  0  0  0  0
  -24.1250  -13.1060   20.8790 C   0  0  0  0  0  0  0  0  0  0  0  0
  -24.5730  -11.7500   20.8600 C   0  0  0  0  0  0  0  0  0  0  0  0
  -26.2410  -12.9720   20.2930 N   0  0  0  0  0  0  0  0  0  0  0  0
  -25.8650  -11.6950   20.5600 N   0  0  0  0  0  0  0  0  0  0  0  0
  -23.8350  -10.4960   21.0560 C   0  0  0  0  0  0  0  0  0  0  0  0
  -24.2720   -9.5200   21.9800 C   0  0  0  0  0  3  0  0  0  0  0  0
  -23.5360   -8.3290   22.1630 C   0  0  0  0  0  3  0  0  0  0  0  0
  -22.3510   -8.1060   21.4230 C   0  0  0  0  0  0  0  0  0  0  0  0
  -21.9350   -9.0690   20.4880 C   0  0  0  0  0  3  0  0  0  0  0  0
  -22.6690  -10.2520   20.3010 C   0  0  0  0  0  3  0  0  0  0  0  0
  -21.5870   -6.9670   21.5170 O   0  0  0  0  0  0  0  0  0  0  0  0
  -21.5620   -6.2100   22.6610 C   0  0  0  0  0  0  0  0  0  0  0  0
  -21.1880   -6.7550   23.9090 C   0  0  0  0  0  3  0  0  0  0  0  0
  -21.1100   -5.9240   25.0450 C   0  0  0  0  0  3  0  0  0  0  0  0
  -21.3910   -4.5490   24.9340 C   0  0  0  0  0  0  0  0  0  0  0  0
  -21.7580   -4.0040   23.6910 C   0  0  0  0  0  3  0  0  0  0  0  0
  -21.8390   -4.8310   22.5580 C   0  0  0  0  0  0  0  0  0  0  0  0
  -22.1710   -4.2970   21.3580 F   0  0  0  0  0  0  0  0  0  0  0  0
  -21.3080   -3.7500   26.0230 F   0  0  0  0  0  0  0  0  0  0  0  0
  -22.7300  -13.5960   21.1430 C   0  0  0  0  0  0  0  0  0  0  0  0
  -21.9920  -12.9130   22.0120 N   0  0  0  0  0  0  0  0  0  0  0  0
  -22.3010  -14.6190   20.6100 O   0  0  0  0  0  0  0  0  0  0  0  0
  -22.3520  -12.0880   22.4700 H   0  0  0  0  0  0  0  0  0  0  0  0
  -21.0540  -13.2230   22.2260 H   0  0  0  0  0  0  0  0  0  0  0  0
  -25.3800  -15.2330   20.3180 N   0  0  0  0  0  0  0  0  0  0  0  0
  -24.6160  -15.8940   20.4040 H   0  0  0  0  0  0  0  0  0  0  0  0
  -26.2330  -15.6580   19.9770 H   0  0  0  0  0  0  0  0  0  0  0  0
  1  4  1  0
  3  1  2  0
  3  5  1  0
  4 10  1  0
  4  2  2  0
  5  8  2  0
  6  7  1  0
  6  3  1  0
  7  9  1  0
  8  2  1  0
  9  5  1  0
  9 53  1  0
 11 12  1  0
 11 10  1  0
 13 24  2  0
 14 12  1  0
 14 19  1  0
 15 23  1  0
 15 25  1  0
 16 22  1  0
 16 18  1  0
 17 23  1  0
 18 17  1  0
 19 18  2  0
 20 21  1  0
 20 14  2  0
 21 16  2  0
 22 15  1  0
 23 13  1  0
 25 27  2  0
 26 25  1  0
 28 26  1  0
 29 38  2  0
 29 34  1  0
 30 26  1  0
 30 34  1  0
 31 30  1  0
 32 33  1  0
 32 31  1  0
 33 29  1  0
 34 35  2  0
 35 36  1  0
 37 36  2  0
 38 37  1  0
 39 13  1  0
 39 44  1  0
 39 40  1  0
 40 43  1  1
 40 41  1  0
 42 40  1  0
 44 47  1  0
 45 49  1  0
 45 44  1  0
 46 45  2  0
 49 48  1  0
 51 49  1  0
 51 52  1  0
 51 50  1  0
 54 53  1  0
 54 63  1  0
 55 63  1  0
 56 61  1  0
 57 58  1  0
 57 56  1  0
 59 58  1  0
 59 68  1  0
 59 60  1  0
 61 55  1  0
 61 60  1  0
 62 55  2  0
 63 64  1  0
 65 66  2  0
 66 85  1  0
 67 66  1  0
 67 70  1  0
 68 65  1  0
 68 69  1  0
 69 67  2  0
 70 71  1  0
 71 72  2  0
 73 76  1  0
 73 72  1  0
 74 73  2  0
 75 74  1  0
 75 70  2  0
 76 77  1  0
 77 78  1  0
 78 79  2  0
 80 79  1  0
 80 84  1  0
 81 80  2  0
 82 77  2  0
 82 81  1  0
 83 82  1  0
 85 86  1  0
 86 89  1  0
 86 88  1  0
 87 85  2  0
 90 91  1  0
 90 65  1  0
 92 90  1  0
M  ISO  4  11 101  12 101  55 100  63 100
M  END
>  <TORSDO>  (93) 
F 20

>  <SCORE>  (93) 
-13.879

>  <name>  (93) 
92

>  <ligand_id>  (93) 
92

>  <original_smiles>  (93) 
[H]c1nc2c(c([H])c1C([H])([H])C([H])([H])Oc1c([H])c([H])c3c(c1[H])C([H])([H])N(C(=O)C([H])(N([H])C(=O)C([H])(N([H])C([H])([H])[H])C([H])([H])[H])C(C([H])([H])[H])(C([H])([H])[H])C([H])([H])[H])C([H])(C(=O)N([H])C1([H])c4c([H])c([H])c([H])c([H])c4C([H])([H])C([H])([H])C1([H])[H])C3([H])[H])C([H])([H])C([H])([H])N2C([H])([H])C([H])([H])N([H])C(=O)N1C([H])([H])C([H])([H])C([H])([H])C([H])(n2nc(-c3c([H])c([H])c(Oc4c([H])c([H])c(F)c([H])c4F)c([H])c3[H])c(C(=O)N([H])[H])c2N([H])[H])C1([H])[H]

>  <smiles>  (93) 
[H]c1nc2c(c([H])c1C([H])([H])C([H])([H])Oc1c([H])c([H])c3c(c1[H])C([H])([H])N(C(=O)C([H])(N([H])C(=O)C([H])(N([H])C([H])([H])[H])C([H])([H])[H])C(C([H])([H])[H])(C([H])([H])[H])C([H])([H])[H])C([H])(C(=O)N([H])C1([H])c4c([H])c([H])c([H])c([H])c4C([H])([H])C([H])([H])C1([H])[H])C3([H])[H])C([H])([H])C([H])([H])N2C([H])([H])C([H])([H])N([H])C(=O)N1C([H])([H])C([H])([H])C([H])([H])C([H])(n2nc(-c3c([H])c([H])c(Oc4c([H])c([H])c(F)c([H])c4F)c([H])c3[H])c(C(=O)N([H])[H])c2N([H])[H])C1([H])[H]

> <Step>
117.0

> <Scaffold>
O=C(NC1CCCc2ccccc21)C1Cc2ccc(OCCc3cnc4c(c3)CCN4CCNC(=O)N3CCCC(n4ccc(-c5ccc(Oc6ccccc6)cc5)n4)C3)cc2CN1

> <SMILES>
CNC(C)C(=O)NC(C(=O)N1Cc2cc(OCCc3cnc4c(c3)CCN4CCNC(=O)N3CCCC(n4nc(-c5ccc(Oc6ccc(F)cc6F)cc5)c(C(N)=O)c4N)C3)ccc2CC1C(=O)NC1CCCc2ccccc21)C(C)(C)C

> <Tanimoto ROCS sim>
0.26253119111061096

> <Custom alerts>
1.0

> <Linker Num Aromatic Rings>
1.0

> <Linker Effective Length>
1.0

> <ADV>
0.9940344095230103

> <PostDock Tanimoto ROCS sim>
0.9915971755981445

> <raw_Linker Num Aromatic Rings>
1.0

> <raw_Linker Effective Length>
9.0

> <raw_ADV>
-13.88700008392334

> <total_score>
0.9964078664779663

> <ID>
default_job_92

> <PostDock Tanimoto ROCS sim (re-score)>
0.98387444

> <raw_ADV (re-score)>
-13.879

> <Final Intermolecular Energy>
-29.7

> <Final Total Internal Energy>
-2.832

> <Torsional Free Energy>
15.821

> <Unbound System's Energy>
-2.832

$$$$
default_job_93
     RDKit          3D

 92100  0  0  1  0  0  0  0  0999 V2000
  -29.7180  -21.9200   20.4780 C   0  0  0  0  0  2  0  0  0  0  0  0
  -29.0000  -23.0480   21.1250 N   0  0  0  0  0  4  0  0  0  0  0  0
  -29.1020  -22.9780   22.1270 H   0  0  0  0  0  0  0  0  0  0  0  0
  -28.0200  -22.9250   20.9210 H   0  0  0  0  0  0  0  0  0  0  0  0
  -29.3860  -24.4240   20.6930 C   0  0  0  0  0  2  0  0  0  0  0  0
  -28.1300  -25.2820   20.4400 C   0  0  0  0  0  2  0  0  0  0  0  0
  -28.3660  -26.6870   20.2230 O   0  0  0  0  0  0  0  0  0  0  0  0
  -24.5730  -31.8950   23.2710 C   0  0  0  0  0  0  0  0  0  0  0  0
  -27.2140  -27.4510   20.1810 C   0  0  0  0  0  0  0  0  0  0  0  0
  -23.3700  -30.4970   21.6270 C   0  0  0  0  0  3  0  0  0  0  0  0
  -24.8250  -28.9750   20.1920 C   0  0  0  0  0  0  0  0  0  0  0  0
  -25.9000  -30.8490   21.4410 C   0  0  0  0  0  2  0  0  0  0  0  0
  -25.9850  -29.4860   20.7890 C   0  0  0  0  0  0  0  0  0  0  0  0
  -27.1840  -28.7340   20.7770 C   0  0  0  0  0  3  0  0  0  0  0  0
  -26.0340  -26.9670   19.5630 C   0  0  0  0  0  3  0  0  0  0  0  0
  -24.8470  -27.7170   19.5720 C   0  0  0  0  0  3  0  0  0  0  0  0
  -23.5810  -29.8290   20.2430 C   0  0  0  0  0  2  0  0  0  0  0  0
  -24.6320  -31.0910   22.1740 N   0  0  0  0  0  0  0  0  0  0  0  0
  -23.4860  -32.1910   23.7870 O   0  0  0  0  0  0  0  0  0  0  0  0
  -22.7170  -29.4680   22.5770 C   0  0  0  0  0  0  0  0  0  0  0  0
  -21.3940  -29.2810   22.4400 N   0  0  0  0  0  0  0  0  0  0  0  0
  -23.3980  -28.8420   23.3940 O   0  0  0  0  0  0  0  0  0  0  0  0
  -20.9050  -29.8380   21.7520 H   0  0  0  0  0  0  0  0  0  0  0  0
  -18.0170  -28.0870   22.9170 C   0  0  0  0  0  0  0  0  0  0  0  0
  -20.5740  -28.3380   23.2010 C   0  0  0  0  0  3  0  0  0  0  0  0
  -20.6770  -26.9120   22.6140 C   0  0  0  0  0  2  0  0  0  0  0  0
  -19.5780  -26.5990   21.5930 C   0  0  0  0  0  2  0  0  0  0  0  0
  -18.1950  -26.7420   22.2330 C   0  0  0  0  0  2  0  0  0  0  0  0
  -19.1360  -28.8440   23.3570 C   0  0  0  0  0  0  0  0  0  0  0  0
  -18.9180  -30.1030   23.9570 C   0  0  0  0  0  3  0  0  0  0  0  0
  -17.6140  -30.6070   24.1190 C   0  0  0  0  0  3  0  0  0  0  0  0
  -16.5090  -29.8470   23.6960 C   0  0  0  0  0  3  0  0  0  0  0  0
  -16.7120  -28.5890   23.1010 C   0  0  0  0  0  3  0  0  0  0  0  0
  -25.8600  -32.5090   23.9060 C   0  0  0  0  0  3  0  0  0  0  0  0
  -25.5660  -33.9110   24.2270 N   0  0  0  0  0  0  0  0  0  0  0  0
  -25.9030  -34.9540   23.4580 C   0  0  0  0  0  0  0  0  0  0  0  0
  -26.5730  -34.8370   22.4270 O   0  0  0  0  0  0  0  0  0  0  0  0
  -24.9700  -34.0770   25.0260 H   0  0  0  0  0  0  0  0  0  0  0  0
  -24.1850  -36.7510   23.0860 C   0  0  0  0  0  1  0  0  0  0  0  0
  -25.4230  -36.3480   23.9020 C   0  0  0  0  0  3  0  0  0  0  0  0
  -27.5580  -37.2280   24.7320 C   0  0  0  0  0  1  0  0  0  0  0  0
  -26.4610  -37.3940   23.7820 N   0  0  0  0  0  0  0  0  0  0  0  0
  -26.0600  -38.3180   23.9210 H   0  0  0  0  0  0  0  0  0  0  0  0
  -26.3610  -31.7360   25.1870 C   0  0  1  0  0  0  0  0  0  0  0  0
  -25.2560  -31.5060   26.2430 C   0  0  0  0  0  1  0  0  0  0  0  0
  -26.9400  -30.3550   24.8010 C   0  0  0  0  0  1  0  0  0  0  0  0
  -27.5120  -32.5240   25.8580 C   0  0  0  0  0  1  0  0  0  0  0  0
  -29.0970  -20.5380   20.8410 C   0  0  0  0  0  2  0  0  0  0  0  0
  -30.8620  -18.2660   18.2740 C   0  0  0  0  0  3  0  0  0  0  0  0
  -30.3510  -19.4090   18.9110 C   0  0  0  0  0  3  0  0  0  0  0  0
  -30.7400  -17.0070   18.8800 C   0  0  0  0  0  3  0  0  0  0  0  0
  -29.5870  -18.0230   20.7700 C   0  0  0  0  0  3  0  0  0  0  0  0
  -29.7100  -19.3030   20.1660 C   0  0  0  0  0  0  0  0  0  0  0  0
  -30.1140  -16.8630   20.1440 C   0  0  0  0  0  0  0  0  0  0  0  0
  -30.6880  -14.4790   20.4690 C   0  0  0  0  0  0  0  0  0  0  0  0
  -30.3700  -12.3130   19.3720 C   0  0  0  0  0  2  0  0  0  0  0  0
  -29.4570  -12.5480   18.1510 C   0  0  0  0  0  2  0  0  0  0  0  0
  -27.9740  -12.4350   18.5530 C   0  0  0  0  0  2  0  0  0  0  0  0
  -27.6260  -13.2650   19.8190 C   0  0  0  0  0  3  0  0  0  0  0  0
  -28.6660  -13.0420   20.9430 C   0  0  0  0  0  2  0  0  0  0  0  0
  -30.0020  -13.3090   20.3880 N   0  0  0  0  0  0  0  0  0  0  0  0
  -31.8650  -14.5850   20.1160 O   0  0  0  0  0  0  0  0  0  0  0  0
  -29.9540  -15.5730   20.7560 N   0  0  0  0  0  0  0  0  0  0  0  0
  -29.0860  -15.4130   21.2440 H   0  0  0  0  0  0  0  0  0  0  0  0
  -25.2180  -13.8770   20.4880 C   0  0  0  0  0  0  0  0  0  0  0  0
  -24.1440  -13.1070   20.8470 C   0  0  0  0  0  0  0  0  0  0  0  0
  -24.6060  -11.7550   20.8330 C   0  0  0  0  0  0  0  0  0  0  0  0
  -26.2660  -12.9930   20.2790 N   0  0  0  0  0  0  0  0  0  0  0  0
  -25.9010  -11.7130   20.5440 N   0  0  0  0  0  0  0  0  0  0  0  0
  -23.8760  -10.4940   21.0210 C   0  0  0  0  0  0  0  0  0  0  0  0
  -24.2910   -9.5330   21.9690 C   0  0  0  0  0  3  0  0  0  0  0  0
  -23.5610   -8.3390   22.1450 C   0  0  0  0  0  3  0  0  0  0  0  0
  -22.4010   -8.0950   21.3710 C   0  0  0  0  0  0  0  0  0  0  0  0
  -22.0060   -9.0450   20.4110 C   0  0  0  0  0  3  0  0  0  0  0  0
  -22.7380  -10.2300   20.2340 C   0  0  0  0  0  3  0  0  0  0  0  0
  -21.6410   -6.9530   21.4560 O   0  0  0  0  0  0  0  0  0  0  0  0
  -21.5680   -6.2210   22.6140 C   0  0  0  0  0  0  0  0  0  0  0  0
  -21.1030   -6.7850   23.8230 C   0  0  0  0  0  3  0  0  0  0  0  0
  -20.9790   -5.9780   24.9720 C   0  0  0  0  0  3  0  0  0  0  0  0
  -21.3080   -4.6120   24.9130 C   0  0  0  0  0  0  0  0  0  0  0  0
  -21.7670   -4.0480   23.7090 C   0  0  0  0  0  3  0  0  0  0  0  0
  -21.8940   -4.8510   22.5620 C   0  0  0  0  0  0  0  0  0  0  0  0
  -22.3160   -4.2990   21.4000 F   0  0  0  0  0  0  0  0  0  0  0  0
  -21.1820   -3.8350   26.0150 F   0  0  0  0  0  0  0  0  0  0  0  0
  -22.7430  -13.5870   21.0930 C   0  0  0  0  0  0  0  0  0  0  0  0
  -22.0000  -12.8920   21.9470 N   0  0  0  0  0  0  0  0  0  0  0  0
  -22.3160  -14.6120   20.5640 O   0  0  0  0  0  0  0  0  0  0  0  0
  -22.3570  -12.0630   22.3970 H   0  0  0  0  0  0  0  0  0  0  0  0
  -21.0590  -13.1950   22.1570 H   0  0  0  0  0  0  0  0  0  0  0  0
  -25.3880  -15.2460   20.3030 N   0  0  0  0  0  0  0  0  0  0  0  0
  -24.6210  -15.9020   20.3950 H   0  0  0  0  0  0  0  0  0  0  0  0
  -26.2420  -15.6780   19.9730 H   0  0  0  0  0  0  0  0  0  0  0  0
  1 48  1  0
  1  2  1  0
  2  3  1  0
  4  2  1  0
  5  2  1  0
  6  5  1  0
  7  6  1  0
  8 19  2  0
  9  7  1  0
  9 14  1  0
 10 18  1  0
 10 20  1  0
 11 17  1  0
 11 13  1  0
 12 18  1  0
 13 12  1  0
 14 13  2  0
 15 16  1  0
 15  9  2  0
 16 11  2  0
 17 10  1  0
 18  8  1  0
 20 22  2  0
 21 20  1  0
 23 21  1  0
 24 33  2  0
 24 29  1  0
 25 21  1  0
 25 29  1  0
 26 25  1  0
 27 28  1  0
 27 26  1  0
 28 24  1  0
 29 30  2  0
 30 31  1  0
 32 31  2  0
 33 32  1  0
 34  8  1  0
 34 35  1  0
 34 44  1  0
 35 38  1  0
 36 40  1  0
 36 35  1  0
 37 36  2  0
 40 39  1  0
 42 40  1  0
 42 43  1  0
 42 41  1  0
 44 47  1  1
 44 45  1  0
 46 44  1  0
 49 51  2  0
 49 50  1  0
 50 53  2  0
 51 54  1  0
 53 52  1  0
 53 48  1  0
 54 63  1  0
 54 52  2  0
 55 63  1  0
 56 61  1  0
 57 58  1  0
 57 56  1  0
 59 58  1  0
 59 68  1  0
 59 60  1  0
 61 55  1  0
 61 60  1  0
 62 55  2  0
 63 64  1  0
 65 66  2  0
 66 85  1  0
 67 66  1  0
 67 70  1  0
 68 65  1  0
 68 69  1  0
 69 67  2  0
 70 71  1  0
 71 72  2  0
 73 76  1  0
 73 72  1  0
 74 73  2  0
 75 74  1  0
 75 70  2  0
 76 77  1  0
 77 78  1  0
 78 79  2  0
 80 79  1  0
 80 84  1  0
 81 80  2  0
 82 77  2  0
 82 81  1  0
 83 82  1  0
 85 86  1  0
 86 89  1  0
 86 88  1  0
 87 85  2  0
 90 91  1  0
 90 65  1  0
 92 90  1  0
M  ISO  4   6 101   7 101  55 100  63 100
M  END
>  <TORSDO>  (94) 
F 21

>  <SCORE>  (94) 
-13.499

>  <name>  (94) 
93

>  <ligand_id>  (94) 
93

>  <original_smiles>  (94) 
[H]c1c([H])c([H])c2c(c1[H])C([H])([H])C([H])([H])C([H])([H])C2([H])N([H])C(=O)C1([H])N(C(=O)C([H])(N([H])C(=O)C([H])(N([H])C([H])([H])[H])C([H])([H])[H])C(C([H])([H])[H])(C([H])([H])[H])C([H])([H])[H])C([H])([H])c2c([H])c(OC([H])([H])C([H])([H])[N+]([H])([H])C([H])([H])C([H])([H])c3c([H])c([H])c([H])c(N([H])C(=O)N4C([H])([H])C([H])([H])C([H])([H])C([H])(n5nc(-c6c([H])c([H])c(Oc7c([H])c([H])c(F)c([H])c7F)c([H])c6[H])c(C(=O)N([H])[H])c5N([H])[H])C4([H])[H])c3[H])c([H])c([H])c2C1([H])[H]

>  <smiles>  (94) 
[H]c1c([H])c([H])c2c(c1[H])C([H])([H])C([H])([H])C([H])([H])C2([H])N([H])C(=O)C1([H])N(C(=O)C([H])(N([H])C(=O)C([H])(N([H])C([H])([H])[H])C([H])([H])[H])C(C([H])([H])[H])(C([H])([H])[H])C([H])([H])[H])C([H])([H])c2c([H])c(OC([H])([H])C([H])([H])[N+]([H])([H])C([H])([H])C([H])([H])c3c([H])c([H])c([H])c(N([H])C(=O)N4C([H])([H])C([H])([H])C([H])([H])C([H])(n5nc(-c6c([H])c([H])c(Oc7c([H])c([H])c(F)c([H])c7F)c([H])c6[H])c(C(=O)N([H])[H])c5N([H])[H])C4([H])[H])c3[H])c([H])c([H])c2C1([H])[H]

> <Step>
133.0

> <Scaffold>
O=C(NC1CCCc2ccccc21)C1Cc2ccc(OCCNCCc3cccc(NC(=O)N4CCCC(n5ccc(-c6ccc(Oc7ccccc7)cc6)n5)C4)c3)cc2CN1

> <SMILES>
CNC(C)C(=O)NC(C(=O)N1Cc2cc(OCCNCCc3cccc(NC(=O)N4CCCC(n5nc(-c6ccc(Oc7ccc(F)cc7F)cc6)c(C(N)=O)c5N)C4)c3)ccc2CC1C(=O)NC1CCCc2ccccc21)C(C)(C)C

> <Tanimoto ROCS sim>
0.23286974430084229

> <Custom alerts>
1.0

> <Linker Num Aromatic Rings>
1.0

> <Linker Effective Length>
1.0

> <ADV>
0.9927167296409607

> <PostDock Tanimoto ROCS sim>
0.9929134845733643

> <raw_Linker Num Aromatic Rings>
1.0

> <raw_Linker Effective Length>
8.0

> <raw_ADV>
-13.538000106811523

> <total_score>
0.9964075684547424

> <ID>
default_job_93

> <PostDock Tanimoto ROCS sim (re-score)>
0.98208433

> <raw_ADV (re-score)>
-13.499

> <Final Intermolecular Energy>
-29.677

> <Final Total Internal Energy>
-2.509

> <Torsional Free Energy>
16.178

> <Unbound System's Energy>
-2.509

$$$$
default_job_94
     RDKit          3D

 91 99  0  0  1  0  0  0  0  0999 V2000
  -28.9290  -20.2990   19.8860 C   0  0  0  0  0  3  0  0  0  0  0  0
  -29.8600  -19.3050   20.1020 C   0  0  0  0  0  0  0  0  0  0  0  0
  -30.8790  -21.3120   20.1330 C   0  0  0  0  0  3  0  0  0  0  0  0
  -31.9710  -22.3300   20.1760 C   0  0  0  0  0  1  0  0  0  0  0  0
  -29.5740  -21.5180   19.8780 N   0  0  0  0  0  0  0  0  0  0  0  0
  -31.0430  -19.9840   20.2810 N   0  0  0  0  0  0  0  0  0  0  0  0
  -31.9430  -19.5440   20.4440 H   0  0  0  0  0  0  0  0  0  0  0  0
  -29.7160  -17.7910   20.0210 C   0  0  0  0  0  2  0  0  0  0  0  0
  -30.3300  -16.9460   21.1740 C   0  0  0  0  0  2  0  0  0  0  0  0
  -30.6640  -14.5060   20.5270 C   0  0  0  0  0  0  0  0  0  0  0  0
  -30.3810  -12.3470   19.3610 C   0  0  0  0  0  2  0  0  0  0  0  0
  -29.4430  -12.5470   18.1520 C   0  0  0  0  0  2  0  0  0  0  0  0
  -27.9680  -12.4020   18.5730 C   0  0  0  0  0  2  0  0  0  0  0  0
  -27.6210  -13.2330   19.8380 C   0  0  0  0  0  3  0  0  0  0  0  0
  -28.6720  -13.0110   20.9500 C   0  0  0  0  0  2  0  0  0  0  0  0
  -29.9980  -13.3250   20.3910 N   0  0  0  0  0  0  0  0  0  0  0  0
  -31.7810  -14.7050   20.0450 O   0  0  0  0  0  0  0  0  0  0  0  0
  -29.9640  -15.5110   21.0950 N   0  0  0  0  0  0  0  0  0  0  0  0
  -29.0560  -15.2580   21.4550 H   0  0  0  0  0  0  0  0  0  0  0  0
  -25.2140  -13.8380   20.5230 C   0  0  0  0  0  0  0  0  0  0  0  0
  -24.1450  -13.0650   20.8890 C   0  0  0  0  0  0  0  0  0  0  0  0
  -24.6100  -11.7150   20.8710 C   0  0  0  0  0  0  0  0  0  0  0  0
  -26.2640  -12.9580   20.3070 N   0  0  0  0  0  0  0  0  0  0  0  0
  -25.9030  -11.6760   20.5730 N   0  0  0  0  0  0  0  0  0  0  0  0
  -23.8850  -10.4520   21.0630 C   0  0  0  0  0  0  0  0  0  0  0  0
  -24.3230   -9.4830   21.9920 C   0  0  0  0  0  3  0  0  0  0  0  0
  -23.6000   -8.2850   22.1720 C   0  0  0  0  0  3  0  0  0  0  0  0
  -22.4230   -8.0460   21.4230 C   0  0  0  0  0  0  0  0  0  0  0  0
  -22.0030   -9.0030   20.4820 C   0  0  0  0  0  3  0  0  0  0  0  0
  -22.7280  -10.1940   20.3010 C   0  0  0  0  0  3  0  0  0  0  0  0
  -21.6710   -6.9000   21.5120 O   0  0  0  0  0  0  0  0  0  0  0  0
  -21.6400   -6.1470   22.6580 C   0  0  0  0  0  0  0  0  0  0  0  0
  -21.2440   -6.6930   23.8990 C   0  0  0  0  0  3  0  0  0  0  0  0
  -21.1590   -5.8660   25.0360 C   0  0  0  0  0  3  0  0  0  0  0  0
  -21.4610   -4.4940   24.9360 C   0  0  0  0  0  0  0  0  0  0  0  0
  -21.8520   -3.9490   23.7000 C   0  0  0  0  0  3  0  0  0  0  0  0
  -21.9370   -4.7730   22.5640 C   0  0  0  0  0  0  0  0  0  0  0  0
  -22.2930   -4.2380   21.3720 F   0  0  0  0  0  0  0  0  0  0  0  0
  -21.3740   -3.6980   26.0270 F   0  0  0  0  0  0  0  0  0  0  0  0
  -22.7440  -13.5410   21.1490 C   0  0  0  0  0  0  0  0  0  0  0  0
  -22.0100  -12.8480   22.0140 N   0  0  0  0  0  0  0  0  0  0  0  0
  -22.3070  -14.5630   20.6200 O   0  0  0  0  0  0  0  0  0  0  0  0
  -22.3760  -12.0240   22.4660 H   0  0  0  0  0  0  0  0  0  0  0  0
  -21.0700  -13.1500   22.2300 H   0  0  0  0  0  0  0  0  0  0  0  0
  -25.3770  -15.2080   20.3380 N   0  0  0  0  0  0  0  0  0  0  0  0
  -24.6070  -15.8600   20.4310 H   0  0  0  0  0  0  0  0  0  0  0  0
  -26.2260  -15.6430   20.0010 H   0  0  0  0  0  0  0  0  0  0  0  0
  -28.9420  -22.8040   19.4520 C   0  0  0  0  0  2  0  0  0  0  0  0
  -29.2470  -24.1470   20.1970 C   0  0  0  0  0  2  0  0  0  0  0  0
  -28.1800  -25.2120   19.8040 C   0  0  0  0  0  2  0  0  0  0  0  0
  -28.3440  -26.5940   20.2190 O   0  0  0  0  0  0  0  0  0  0  0  0
  -24.5980  -31.9010   23.2600 C   0  0  0  0  0  0  0  0  0  0  0  0
  -27.2000  -27.3910   20.1770 C   0  0  0  0  0  0  0  0  0  0  0  0
  -23.3830  -30.5000   21.6310 C   0  0  0  0  0  3  0  0  0  0  0  0
  -24.8230  -28.9600   20.1990 C   0  0  0  0  0  0  0  0  0  0  0  0
  -25.9190  -30.8240   21.4390 C   0  0  0  0  0  2  0  0  0  0  0  0
  -25.9920  -29.4540   20.7920 C   0  0  0  0  0  0  0  0  0  0  0  0
  -27.1800  -28.6770   20.7820 C   0  0  0  0  0  3  0  0  0  0  0  0
  -26.0060  -26.9450   19.5540 C   0  0  0  0  0  3  0  0  0  0  0  0
  -24.8280  -27.7050   19.5770 C   0  0  0  0  0  3  0  0  0  0  0  0
  -23.5870  -29.8290   20.2490 C   0  0  0  0  0  2  0  0  0  0  0  0
  -24.6530  -31.0870   22.1690 N   0  0  0  0  0  0  0  0  0  0  0  0
  -23.5140  -32.2050   23.7760 O   0  0  0  0  0  0  0  0  0  0  0  0
  -22.7260  -29.4790   22.5890 C   0  0  0  0  0  0  0  0  0  0  0  0
  -21.4020  -29.2940   22.4560 N   0  0  0  0  0  0  0  0  0  0  0  0
  -23.4060  -28.8560   23.4100 O   0  0  0  0  0  0  0  0  0  0  0  0
  -20.9150  -29.8480   21.7670 H   0  0  0  0  0  0  0  0  0  0  0  0
  -18.0280  -28.0870   22.9320 C   0  0  0  0  0  0  0  0  0  0  0  0
  -20.5820  -28.3580   23.2270 C   0  0  0  0  0  3  0  0  0  0  0  0
  -20.6960  -26.9230   22.6620 C   0  0  0  0  0  2  0  0  0  0  0  0
  -19.6040  -26.5880   21.6400 C   0  0  0  0  0  2  0  0  0  0  0  0
  -18.2160  -26.7320   22.2700 C   0  0  0  0  0  2  0  0  0  0  0  0
  -19.1390  -28.8560   23.3680 C   0  0  0  0  0  0  0  0  0  0  0  0
  -18.9100  -30.1240   23.9460 C   0  0  0  0  0  3  0  0  0  0  0  0
  -17.6010  -30.6210   24.0940 C   0  0  0  0  0  3  0  0  0  0  0  0
  -16.5040  -29.8480   23.6760 C   0  0  0  0  0  3  0  0  0  0  0  0
  -16.7180  -28.5830   23.1010 C   0  0  0  0  0  3  0  0  0  0  0  0
  -25.8880  -32.5150   23.8860 C   0  0  0  0  0  3  0  0  0  0  0  0
  -25.5910  -33.9160   24.2170 N   0  0  0  0  0  0  0  0  0  0  0  0
  -25.9190  -34.9630   23.4490 C   0  0  0  0  0  0  0  0  0  0  0  0
  -26.5790  -34.8520   22.4110 O   0  0  0  0  0  0  0  0  0  0  0  0
  -25.0060  -34.0760   25.0230 H   0  0  0  0  0  0  0  0  0  0  0  0
  -24.1890  -36.7560   23.1070 C   0  0  0  0  0  1  0  0  0  0  0  0
  -25.4410  -36.3540   23.9040 C   0  0  0  0  0  3  0  0  0  0  0  0
  -27.5880  -37.2370   24.7000 C   0  0  0  0  0  1  0  0  0  0  0  0
  -26.4740  -37.4030   23.7720 N   0  0  0  0  0  0  0  0  0  0  0  0
  -26.0730  -38.3250   23.9210 H   0  0  0  0  0  0  0  0  0  0  0  0
  -26.4000  -31.7400   25.1620 C   0  0  1  0  0  0  0  0  0  0  0  0
  -25.3040  -31.5110   26.2290 C   0  0  0  0  0  1  0  0  0  0  0  0
  -26.9720  -30.3580   24.7700 C   0  0  0  0  0  1  0  0  0  0  0  0
  -27.5560  -32.5260   25.8250 C   0  0  0  0  0  1  0  0  0  0  0  0
  1  2  2  0
  2  6  1  0
  3  4  1  0
  3  6  1  0
  5  1  1  0
  5  3  1  0
  6  7  1  0
  8  2  1  0
  8  9  1  0
 10 18  1  0
 11 16  1  0
 12 13  1  0
 12 11  1  0
 14 13  1  0
 14 23  1  0
 14 15  1  0
 16 10  1  0
 16 15  1  0
 17 10  2  0
 18  9  1  0
 18 19  1  0
 20 21  2  0
 21 40  1  0
 22 21  1  0
 22 25  1  0
 23 20  1  0
 23 24  1  0
 24 22  2  0
 25 26  1  0
 26 27  2  0
 28 31  1  0
 28 27  1  0
 29 28  2  0
 30 29  1  0
 30 25  2  0
 31 32  1  0
 32 33  1  0
 33 34  2  0
 35 34  1  0
 35 39  1  0
 36 35  2  0
 37 32  2  0
 37 36  1  0
 38 37  1  0
 40 41  1  0
 41 44  1  0
 41 43  1  0
 42 40  2  0
 45 46  1  0
 45 20  1  0
 47 45  1  0
 48  5  1  0
 48 49  1  0
 50 49  1  0
 50 51  1  0
 52 63  2  0
 53 51  1  0
 53 58  1  0
 54 62  1  0
 54 64  1  0
 55 61  1  0
 55 57  1  0
 56 62  1  0
 57 56  1  0
 58 57  2  0
 59 60  1  0
 59 53  2  0
 60 55  2  0
 61 54  1  0
 62 52  1  0
 64 66  2  0
 65 64  1  0
 67 65  1  0
 68 77  2  0
 68 73  1  0
 69 65  1  0
 69 73  1  0
 70 69  1  0
 71 72  1  0
 71 70  1  0
 72 68  1  0
 73 74  2  0
 74 75  1  0
 76 75  2  0
 77 76  1  0
 78 52  1  0
 78 79  1  0
 78 88  1  0
 79 82  1  0
 80 84  1  0
 80 79  1  0
 81 80  2  0
 84 83  1  0
 86 84  1  0
 86 87  1  0
 86 85  1  0
 88 91  1  1
 88 89  1  0
 90 88  1  0
M  ISO  4  10 100  18 100  50 101  51 101
M  END
>  <TORSDO>  (95) 
F 21

>  <SCORE>  (95) 
-13.512

>  <name>  (95) 
94

>  <ligand_id>  (95) 
94

>  <original_smiles>  (95) 
[H]c1c([H])c([H])c2c(c1[H])C([H])([H])C([H])([H])C([H])([H])C2([H])N([H])C(=O)C1([H])N(C(=O)C([H])(N([H])C(=O)C([H])(N([H])C([H])([H])[H])C([H])([H])[H])C(C([H])([H])[H])(C([H])([H])[H])C([H])([H])[H])C([H])([H])c2c([H])c(OC([H])([H])C([H])([H])C([H])([H])n3c([H])c(C([H])([H])C([H])([H])N([H])C(=O)N4C([H])([H])C([H])([H])C([H])([H])C([H])(n5nc(-c6c([H])c([H])c(Oc7c([H])c([H])c(F)c([H])c7F)c([H])c6[H])c(C(=O)N([H])[H])c5N([H])[H])C4([H])[H])[n+]([H])c3C([H])([H])[H])c([H])c([H])c2C1([H])[H]

>  <smiles>  (95) 
[H]c1c([H])c([H])c2c(c1[H])C([H])([H])C([H])([H])C([H])([H])C2([H])N([H])C(=O)C1([H])N(C(=O)C([H])(N([H])C(=O)C([H])(N([H])C([H])([H])[H])C([H])([H])[H])C(C([H])([H])[H])(C([H])([H])[H])C([H])([H])[H])C([H])([H])c2c([H])c(OC([H])([H])C([H])([H])C([H])([H])n3c([H])c(C([H])([H])C([H])([H])N([H])C(=O)N4C([H])([H])C([H])([H])C([H])([H])C([H])(n5nc(-c6c([H])c([H])c(Oc7c([H])c([H])c(F)c([H])c7F)c([H])c6[H])c(C(=O)N([H])[H])c5N([H])[H])C4([H])[H])[n+]([H])c3C([H])([H])[H])c([H])c([H])c2C1([H])[H]

> <Step>
54.0

> <Scaffold>
O=C(NC1CCCc2ccccc21)C1Cc2ccc(OCCCn3cnc(CCNC(=O)N4CCCC(n5ccc(-c6ccc(Oc7ccccc7)cc6)n5)C4)c3)cc2CN1

> <SMILES>
CNC(C)C(=O)NC(C(=O)N1Cc2cc(OCCCn3cc(CCNC(=O)N4CCCC(n5nc(-c6ccc(Oc7ccc(F)cc7F)cc6)c(C(N)=O)c5N)C4)nc3C)ccc2CC1C(=O)NC1CCCc2ccccc21)C(C)(C)C

> <Tanimoto ROCS sim>
0.22720862925052643

> <Custom alerts>
1.0

> <Linker Num Aromatic Rings>
1.0

> <Linker Effective Length>
1.0

> <ADV>
0.9925908446311951

> <PostDock Tanimoto ROCS sim>
0.9930303692817688

> <raw_Linker Num Aromatic Rings>
1.0

> <raw_Linker Effective Length>
8.0

> <raw_ADV>
-13.508000373840332

> <total_score>
0.996405303478241

> <ID>
default_job_94

> <PostDock Tanimoto ROCS sim (re-score)>
0.98600334

> <raw_ADV (re-score)>
-13.512

> <Final Intermolecular Energy>
-29.706

> <Final Total Internal Energy>
-2.557

> <Torsional Free Energy>
16.194

> <Unbound System's Energy>
-2.557

$$$$
default_job_95
     RDKit          3D

 92100  0  0  1  0  0  0  0  0999 V2000
  -29.4630  -24.4150   19.6020 C   0  0  0  0  0  3  0  0  0  0  0  0
  -27.5340  -23.0600   20.9520 C   0  0  0  0  0  3  0  0  0  0  0  0
  -29.5270  -22.9930   19.6310 C   0  0  0  0  0  0  0  0  0  0  0  0
  -28.5260  -22.2540   20.3220 C   0  0  0  0  0  0  0  0  0  0  0  0
  -28.4160  -25.1250   20.2360 C   0  0  0  0  0  0  0  0  0  0  0  0
  -30.6630  -22.3090   18.8880 C   0  0  0  0  0  1  0  0  0  0  0  0
  -27.4740  -24.4270   20.9220 N   0  0  0  0  0  0  0  0  0  0  0  0
  -28.3760  -26.5420   20.1910 O   0  0  0  0  0  0  0  0  0  0  0  0
  -24.6180  -31.8820   23.2660 C   0  0  0  0  0  0  0  0  0  0  0  0
  -27.2200  -27.3310   20.2040 C   0  0  0  0  0  0  0  0  0  0  0  0
  -23.4110  -30.4890   21.6220 C   0  0  0  0  0  3  0  0  0  0  0  0
  -24.8560  -28.9330   20.1950 C   0  0  0  0  0  0  0  0  0  0  0  0
  -25.9490  -30.7970   21.4490 C   0  0  0  0  0  2  0  0  0  0  0  0
  -26.0190  -29.4210   20.8010 C   0  0  0  0  0  0  0  0  0  0  0  0
  -27.2020  -28.6280   20.8020 C   0  0  0  0  0  3  0  0  0  0  0  0
  -26.0380  -26.8910   19.5700 C   0  0  0  0  0  3  0  0  0  0  0  0
  -24.8650  -27.6710   19.5740 C   0  0  0  0  0  3  0  0  0  0  0  0
  -23.6220  -29.8120   20.2410 C   0  0  0  0  0  2  0  0  0  0  0  0
  -24.6780  -31.0680   22.1710 N   0  0  0  0  0  0  0  0  0  0  0  0
  -23.5320  -32.1880   23.7730 O   0  0  0  0  0  0  0  0  0  0  0  0
  -22.7400  -29.4720   22.5780 C   0  0  0  0  0  0  0  0  0  0  0  0
  -21.4120  -29.3040   22.4540 N   0  0  0  0  0  0  0  0  0  0  0  0
  -23.4150  -28.8360   23.3910 O   0  0  0  0  0  0  0  0  0  0  0  0
  -20.9260  -29.8700   21.7740 H   0  0  0  0  0  0  0  0  0  0  0  0
  -18.0290  -28.1220   22.9440 C   0  0  0  0  0  0  0  0  0  0  0  0
  -20.5890  -28.3670   23.2180 C   0  0  0  0  0  3  0  0  0  0  0  0
  -20.6820  -26.9380   22.6330 C   0  0  0  0  0  2  0  0  0  0  0  0
  -19.5790  -26.6270   21.6160 C   0  0  0  0  0  2  0  0  0  0  0  0
  -18.1980  -26.7750   22.2600 C   0  0  0  0  0  2  0  0  0  0  0  0
  -19.1520  -28.8750   23.3800 C   0  0  0  0  0  0  0  0  0  0  0  0
  -18.9380  -30.1350   23.9800 C   0  0  0  0  0  3  0  0  0  0  0  0
  -17.6350  -30.6430   24.1460 C   0  0  0  0  0  3  0  0  0  0  0  0
  -16.5280  -29.8880   23.7250 C   0  0  0  0  0  3  0  0  0  0  0  0
  -16.7250  -28.6270   23.1300 C   0  0  0  0  0  3  0  0  0  0  0  0
  -25.9050  -32.4940   23.9040 C   0  0  0  0  0  3  0  0  0  0  0  0
  -26.4060  -31.7150   25.1840 C   0  0  1  0  0  0  0  0  0  0  0  0
  -25.3030  -31.4870   26.2420 C   0  0  0  0  0  1  0  0  0  0  0  0
  -26.9810  -30.3340   24.7960 C   0  0  0  0  0  1  0  0  0  0  0  0
  -27.5640  -32.4940   25.8520 C   0  0  0  0  0  1  0  0  0  0  0  0
  -25.6090  -33.8940   24.2410 N   0  0  0  0  0  0  0  0  0  0  0  0
  -25.9270  -34.9450   23.4730 C   0  0  0  0  0  0  0  0  0  0  0  0
  -26.5700  -34.8350   22.4250 O   0  0  0  0  0  0  0  0  0  0  0  0
  -25.0350  -34.0500   25.0570 H   0  0  0  0  0  0  0  0  0  0  0  0
  -24.1810  -36.7300   23.1690 C   0  0  0  0  0  1  0  0  0  0  0  0
  -25.4540  -36.3370   23.9360 C   0  0  0  0  0  3  0  0  0  0  0  0
  -27.6190  -37.2300   24.6730 C   0  0  0  0  0  1  0  0  0  0  0  0
  -26.4810  -37.3890   23.7730 N   0  0  0  0  0  0  0  0  0  0  0  0
  -26.0810  -38.3110   23.9240 H   0  0  0  0  0  0  0  0  0  0  0  0
  -28.3440  -20.6760   20.2550 C   0  0  0  0  0  2  0  0  0  0  0  0
  -29.4150  -19.7000   20.7090 N   0  0  0  0  0  4  0  0  0  0  0  0
  -29.6620  -19.9100   21.6620 H   0  0  0  0  0  0  0  0  0  0  0  0
  -30.2340  -19.8410   20.1410 H   0  0  0  0  0  0  0  0  0  0  0  0
  -29.0570  -18.2220   20.6260 C   0  0  0  0  0  3  0  0  0  0  0  0
  -30.2290  -17.1640   20.8440 C   0  0  0  0  0  3  0  0  0  0  0  0
  -30.6150  -14.6320   20.4610 C   0  0  0  0  0  0  0  0  0  0  0  0
  -30.3990  -12.4080   19.3780 C   0  0  0  0  0  2  0  0  0  0  0  0
  -29.4660  -12.5490   18.1570 C   0  0  0  0  0  2  0  0  0  0  0  0
  -27.9870  -12.4010   18.5670 C   0  0  0  0  0  2  0  0  0  0  0  0
  -27.6210  -13.2450   19.8210 C   0  0  0  0  0  3  0  0  0  0  0  0
  -28.6740  -13.0830   20.9390 C   0  0  0  0  0  2  0  0  0  0  0  0
  -29.9860  -13.4200   20.3690 N   0  0  0  0  0  0  0  0  0  0  0  0
  -31.7750  -14.7870   20.0750 O   0  0  0  0  0  0  0  0  0  0  0  0
  -29.8440  -15.7060   20.8200 N   0  0  0  0  0  0  0  0  0  0  0  0
  -28.8990  -15.4800   21.1000 H   0  0  0  0  0  0  0  0  0  0  0  0
  -25.2200  -13.8310   20.5230 C   0  0  0  0  0  0  0  0  0  0  0  0
  -24.1550  -13.0550   20.8930 C   0  0  0  0  0  0  0  0  0  0  0  0
  -24.6250  -11.7050   20.8690 C   0  0  0  0  0  0  0  0  0  0  0  0
  -26.2700  -12.9570   20.2960 N   0  0  0  0  0  0  0  0  0  0  0  0
  -25.9160  -11.6730   20.5660 N   0  0  0  0  0  0  0  0  0  0  0  0
  -23.9040  -10.4390   21.0600 C   0  0  0  0  0  0  0  0  0  0  0  0
  -24.3430   -9.4740   21.9900 C   0  0  0  0  0  3  0  0  0  0  0  0
  -23.6230   -8.2740   22.1670 C   0  0  0  0  0  3  0  0  0  0  0  0
  -22.4500   -8.0300   21.4140 C   0  0  0  0  0  0  0  0  0  0  0  0
  -22.0310   -8.9840   20.4720 C   0  0  0  0  0  3  0  0  0  0  0  0
  -22.7510  -10.1760   20.2920 C   0  0  0  0  0  3  0  0  0  0  0  0
  -21.7010   -6.8820   21.5010 O   0  0  0  0  0  0  0  0  0  0  0  0
  -21.6610   -6.1330   22.6490 C   0  0  0  0  0  0  0  0  0  0  0  0
  -21.2270   -6.6730   23.8790 C   0  0  0  0  0  3  0  0  0  0  0  0
  -21.1370   -5.8500   25.0180 C   0  0  0  0  0  3  0  0  0  0  0  0
  -21.4670   -4.4840   24.9300 C   0  0  0  0  0  0  0  0  0  0  0  0
  -21.8930   -3.9410   23.7040 C   0  0  0  0  0  3  0  0  0  0  0  0
  -21.9850   -4.7630   22.5660 C   0  0  0  0  0  0  0  0  0  0  0  0
  -22.3750   -4.2280   21.3840 F   0  0  0  0  0  0  0  0  0  0  0  0
  -21.3720   -3.6900   26.0230 F   0  0  0  0  0  0  0  0  0  0  0  0
  -22.7530  -13.5260   21.1530 C   0  0  0  0  0  0  0  0  0  0  0  0
  -22.0220  -12.8330   22.0220 N   0  0  0  0  0  0  0  0  0  0  0  0
  -22.3110  -14.5440   20.6240 O   0  0  0  0  0  0  0  0  0  0  0  0
  -22.3930  -12.0140   22.4770 H   0  0  0  0  0  0  0  0  0  0  0  0
  -21.0780  -13.1250   22.2320 H   0  0  0  0  0  0  0  0  0  0  0  0
  -25.3760  -15.2050   20.3400 N   0  0  0  0  0  0  0  0  0  0  0  0
  -24.5920  -15.8440   20.4190 H   0  0  0  0  0  0  0  0  0  0  0  0
  -26.2040  -15.6410   19.9560 H   0  0  0  0  0  0  0  0  0  0  0  0
  1  3  2  0
  1  5  1  0
  3  4  1  0
  4  2  2  0
  5  7  2  0
  6  3  1  0
  7  2  1  0
  8 10  1  0
  8  5  1  0
  9 20  2  0
 10 15  1  0
 11 19  1  0
 11 21  1  0
 12 18  1  0
 12 14  1  0
 13 19  1  0
 14 15  2  0
 14 13  1  0
 16 17  1  0
 16 10  2  0
 17 12  2  0
 18 11  1  0
 19  9  1  0
 21 23  2  0
 22 21  1  0
 24 22  1  0
 25 34  2  0
 25 30  1  0
 26 22  1  0
 26 30  1  0
 27 26  1  0
 28 29  1  0
 28 27  1  0
 29 25  1  0
 30 31  2  0
 31 32  1  0
 33 32  2  0
 34 33  1  0
 35  9  1  0
 35 40  1  0
 35 36  1  0
 36 39  1  1
 36 37  1  0
 38 36  1  0
 40 43  1  0
 41 45  1  0
 41 40  1  0
 42 41  2  0
 45 44  1  0
 47 48  1  0
 47 45  1  0
 47 46  1  0
 49  4  1  0
 49 50  1  0
 50 51  1  0
 52 50  1  0
 53 50  1  0
 53 54  2  0
 55 63  1  0
 56 61  1  0
 57 58  1  0
 57 56  1  0
 59 58  1  0
 59 68  1  0
 59 60  1  0
 61 55  1  0
 61 60  1  0
 62 55  2  0
 63 54  1  0
 63 64  1  0
 65 66  2  0
 66 85  1  0
 67 66  1  0
 67 70  1  0
 68 65  1  0
 68 69  1  0
 69 67  2  0
 70 71  1  0
 71 72  2  0
 73 76  1  0
 73 72  1  0
 74 73  2  0
 75 74  1  0
 75 70  2  0
 76 77  1  0
 77 78  1  0
 78 79  2  0
 80 79  1  0
 80 84  1  0
 81 80  2  0
 82 77  2  0
 82 81  1  0
 83 82  1  0
 85 86  1  0
 86 89  1  0
 86 88  1  0
 87 85  2  0
 90 91  1  0
 90 65  1  0
 92 90  1  0
M  ISO  4   5 101   8 101  55 100  63 100
M  END
>  <TORSDO>  (96) 
F 20

>  <SCORE>  (96) 
-13.937

>  <name>  (96) 
95

>  <ligand_id>  (96) 
95

>  <original_smiles>  (96) 
[H]c1nc(Oc2c([H])c([H])c3c(c2[H])C([H])([H])N(C(=O)C([H])(N([H])C(=O)C([H])(N([H])C([H])([H])[H])C([H])([H])[H])C(C([H])([H])[H])(C([H])([H])[H])C([H])([H])[H])C([H])(C(=O)N([H])C2([H])c4c([H])c([H])c([H])c([H])c4C([H])([H])C([H])([H])C2([H])[H])C3([H])[H])c([H])c(C([H])([H])[H])c1C([H])([H])[N+]([H])([H])C([H])([H])C([H])([H])N([H])C(=O)N1C([H])([H])C([H])([H])C([H])([H])C([H])(n2nc(-c3c([H])c([H])c(Oc4c([H])c([H])c(F)c([H])c4F)c([H])c3[H])c(C(=O)N([H])[H])c2N([H])[H])C1([H])[H]

>  <smiles>  (96) 
[H]c1nc(Oc2c([H])c([H])c3c(c2[H])C([H])([H])N(C(=O)C([H])(N([H])C(=O)C([H])(N([H])C([H])([H])[H])C([H])([H])[H])C(C([H])([H])[H])(C([H])([H])[H])C([H])([H])[H])C([H])(C(=O)N([H])C2([H])c4c([H])c([H])c([H])c([H])c4C([H])([H])C([H])([H])C2([H])[H])C3([H])[H])c([H])c(C([H])([H])[H])c1C([H])([H])[N+]([H])([H])C([H])([H])C([H])([H])N([H])C(=O)N1C([H])([H])C([H])([H])C([H])([H])C([H])(n2nc(-c3c([H])c([H])c(Oc4c([H])c([H])c(F)c([H])c4F)c([H])c3[H])c(C(=O)N([H])[H])c2N([H])[H])C1([H])[H]

> <Step>
132.0

> <Scaffold>
O=C(NC1CCCc2ccccc21)C1Cc2ccc(Oc3ccc(CNCCNC(=O)N4CCCC(n5ccc(-c6ccc(Oc7ccccc7)cc6)n5)C4)cn3)cc2CN1

> <SMILES>
CNC(C)C(=O)NC(C(=O)N1Cc2cc(Oc3cc(C)c(CNCCNC(=O)N4CCCC(n5nc(-c6ccc(Oc7ccc(F)cc7F)cc6)c(C(N)=O)c5N)C4)cn3)ccc2CC1C(=O)NC1CCCc2ccccc21)C(C)(C)C

> <Tanimoto ROCS sim>
0.20188698172569275

> <Custom alerts>
1.0

> <Linker Num Aromatic Rings>
1.0

> <Linker Effective Length>
1.0

> <ADV>
0.994149386882782

> <PostDock Tanimoto ROCS sim>
0.9914359450340271

> <raw_Linker Num Aromatic Rings>
1.0

> <raw_Linker Effective Length>
8.0

> <raw_ADV>
-13.920999526977539

> <total_score>
0.9963963627815247

> <ID>
default_job_95

> <PostDock Tanimoto ROCS sim (re-score)>
0.98405105

> <raw_ADV (re-score)>
-13.937

> <Final Intermolecular Energy>
-29.826

> <Final Total Internal Energy>
-2.549

> <Torsional Free Energy>
15.888

> <Unbound System's Energy>
-2.549

$$$$
default_job_96
     RDKit          3D

 95105  0  0  1  0  0  0  0  0999 V2000
  -30.5970  -23.2160   18.1750 C   0  0  0  0  0  3  0  0  0  0  0  0
  -28.6150  -22.5810   20.0620 C   0  0  0  0  0  3  0  0  0  0  0  0
  -30.0860  -21.9140   18.2820 C   0  0  0  0  0  0  0  0  0  0  0  0
  -29.1870  -21.5210   19.2740 C   0  0  0  0  0  0  0  0  0  0  0  0
  -30.0740  -24.2450   18.9850 C   0  0  0  0  0  0  0  0  0  0  0  0
  -29.0030  -23.9690   19.8860 C   0  0  0  0  0  0  0  0  0  0  0  0
  -30.1360  -20.9130   17.1710 C   0  0  0  0  0  2  0  0  0  0  0  0
  -28.8260  -20.1390   17.4140 C   0  0  0  0  0  2  0  0  0  0  0  0
  -28.6330  -20.0750   18.9640 C   0  0  0  0  0  3  0  0  0  0  0  0
  -30.6360  -25.6430   18.7780 C   0  0  0  0  0  1  0  0  0  0  0  0
  -30.6690  -14.6930   20.3540 C   0  0  0  0  0  0  0  0  0  0  0  0
  -30.4140  -12.4280   19.3730 C   0  0  0  0  0  2  0  0  0  0  0  0
  -29.4790  -12.5090   18.1490 C   0  0  0  0  0  2  0  0  0  0  0  0
  -28.0040  -12.3720   18.5810 C   0  0  0  0  0  2  0  0  0  0  0  0
  -27.6370  -13.2500   19.8090 C   0  0  0  0  0  3  0  0  0  0  0  0
  -28.7060  -13.1810   20.9210 C   0  0  0  0  0  2  0  0  0  0  0  0
  -29.9990  -13.4970   20.3030 N   0  0  0  0  0  0  0  0  0  0  0  0
  -31.8840  -14.7400   20.1450 O   0  0  0  0  0  0  0  0  0  0  0  0
  -29.5130  -16.2910   18.9650 C   0  0  0  0  0  2  0  0  0  0  0  0
  -30.4140  -17.0950   21.0560 C   0  0  0  0  0  2  0  0  0  0  0  0
  -28.5960  -17.5410   18.9420 C   0  0  0  0  0  2  0  0  0  0  0  0
  -29.6570  -18.4910   20.8370 C   0  0  0  0  0  2  0  0  0  0  0  0
  -29.9370  -15.8710   20.3180 N   0  0  0  0  0  0  0  0  0  0  0  0
  -29.3140  -18.7680   19.4120 N   0  0  2  0  0  4  0  0  0  0  0  0
  -30.2000  -18.7840   18.9320 H   0  0  0  0  0  0  0  0  0  0  0  0
  -25.2520  -13.8400   20.5360 C   0  0  0  0  0  0  0  0  0  0  0  0
  -24.1860  -13.0640   20.8990 C   0  0  0  0  0  0  0  0  0  0  0  0
  -24.6540  -11.7140   20.8720 C   0  0  0  0  0  0  0  0  0  0  0  0
  -26.2980  -12.9610   20.3060 N   0  0  0  0  0  0  0  0  0  0  0  0
  -25.9460  -11.6790   20.5720 N   0  0  0  0  0  0  0  0  0  0  0  0
  -23.9310  -10.4500   21.0600 C   0  0  0  0  0  0  0  0  0  0  0  0
  -24.3690   -9.4800   21.9870 C   0  0  0  0  0  3  0  0  0  0  0  0
  -23.6450   -8.2810   22.1640 C   0  0  0  0  0  3  0  0  0  0  0  0
  -22.4700   -8.0440   21.4120 C   0  0  0  0  0  0  0  0  0  0  0  0
  -22.0540   -9.0020   20.4700 C   0  0  0  0  0  3  0  0  0  0  0  0
  -22.7780  -10.1920   20.2930 C   0  0  0  0  0  3  0  0  0  0  0  0
  -21.7200   -6.8980   21.4970 O   0  0  0  0  0  0  0  0  0  0  0  0
  -21.6800   -6.1480   22.6440 C   0  0  0  0  0  0  0  0  0  0  0  0
  -21.2640   -6.6950   23.8780 C   0  0  0  0  0  3  0  0  0  0  0  0
  -21.1730   -5.8720   25.0190 C   0  0  0  0  0  3  0  0  0  0  0  0
  -21.4870   -4.5030   24.9260 C   0  0  0  0  0  0  0  0  0  0  0  0
  -21.8970   -3.9550   23.6980 C   0  0  0  0  0  3  0  0  0  0  0  0
  -21.9900   -4.7760   22.5600 C   0  0  0  0  0  0  0  0  0  0  0  0
  -22.3660   -4.2390   21.3740 F   0  0  0  0  0  0  0  0  0  0  0  0
  -21.3920   -3.7100   26.0200 F   0  0  0  0  0  0  0  0  0  0  0  0
  -22.7860  -13.5370   21.1630 C   0  0  0  0  0  0  0  0  0  0  0  0
  -22.0580  -12.8380   22.0260 N   0  0  0  0  0  0  0  0  0  0  0  0
  -22.3490  -14.5630   20.6430 O   0  0  0  0  0  0  0  0  0  0  0  0
  -22.4260  -12.0070   22.4650 H   0  0  0  0  0  0  0  0  0  0  0  0
  -21.1180  -13.1350   22.2500 H   0  0  0  0  0  0  0  0  0  0  0  0
  -25.4140  -15.2100   20.3600 N   0  0  0  0  0  0  0  0  0  0  0  0
  -24.6540  -15.8690   20.4790 H   0  0  0  0  0  0  0  0  0  0  0  0
  -26.2800  -15.6460   20.0740 H   0  0  0  0  0  0  0  0  0  0  0  0
  -28.2410  -25.1240   20.6360 C   0  0  0  0  0  2  0  0  0  0  0  0
  -28.3820  -26.5270   20.1810 O   0  0  0  0  0  0  0  0  0  0  0  0
  -24.6410  -31.8920   23.2260 C   0  0  0  0  0  0  0  0  0  0  0  0
  -27.2490  -27.3450   20.1800 C   0  0  0  0  0  0  0  0  0  0  0  0
  -23.4310  -30.4780   21.6040 C   0  0  0  0  0  3  0  0  0  0  0  0
  -24.8780  -28.9270   20.1760 C   0  0  0  0  0  0  0  0  0  0  0  0
  -25.9690  -30.8070   21.4060 C   0  0  0  0  0  2  0  0  0  0  0  0
  -26.0470  -29.4310   20.7620 C   0  0  0  0  0  0  0  0  0  0  0  0
  -27.2380  -28.6510   20.7520 C   0  0  0  0  0  3  0  0  0  0  0  0
  -26.0650  -26.8880   19.5650 C   0  0  0  0  0  3  0  0  0  0  0  0
  -24.8880  -27.6620   19.5680 C   0  0  0  0  0  3  0  0  0  0  0  0
  -23.6380  -29.7950   20.2260 C   0  0  0  0  0  2  0  0  0  0  0  0
  -24.7000  -31.0730   22.1370 N   0  0  0  0  0  0  0  0  0  0  0  0
  -23.5550  -32.1930   23.7380 O   0  0  0  0  0  0  0  0  0  0  0  0
  -22.7780  -29.4630   22.5700 C   0  0  0  0  0  0  0  0  0  0  0  0
  -21.4510  -29.2810   22.4500 N   0  0  0  0  0  0  0  0  0  0  0  0
  -23.4620  -28.8400   23.3870 O   0  0  0  0  0  0  0  0  0  0  0  0
  -20.9590  -29.8360   21.7650 H   0  0  0  0  0  0  0  0  0  0  0  0
  -18.0790  -28.0800   22.9630 C   0  0  0  0  0  0  0  0  0  0  0  0
  -20.6380  -28.3420   23.2240 C   0  0  0  0  0  3  0  0  0  0  0  0
  -20.7400  -26.9110   22.6510 C   0  0  0  0  0  2  0  0  0  0  0  0
  -19.6340  -26.5850   21.6410 C   0  0  0  0  0  2  0  0  0  0  0  0
  -18.2550  -26.7300   22.2890 C   0  0  0  0  0  2  0  0  0  0  0  0
  -19.1970  -28.8450   23.3880 C   0  0  0  0  0  0  0  0  0  0  0  0
  -18.9790  -30.1090   23.9770 C   0  0  0  0  0  3  0  0  0  0  0  0
  -17.6740  -30.6070   24.1470 C   0  0  0  0  0  3  0  0  0  0  0  0
  -16.5690  -29.8400   23.7400 C   0  0  0  0  0  3  0  0  0  0  0  0
  -16.7730  -28.5770   23.1530 C   0  0  0  0  0  3  0  0  0  0  0  0
  -25.9270  -32.5180   23.8510 C   0  0  0  0  0  3  0  0  0  0  0  0
  -25.6190  -33.9150   24.1880 N   0  0  0  0  0  0  0  0  0  0  0  0
  -25.9380  -34.9700   23.4270 C   0  0  0  0  0  0  0  0  0  0  0  0
  -26.5960  -34.8700   22.3880 O   0  0  0  0  0  0  0  0  0  0  0  0
  -25.0330  -34.0660   24.9970 H   0  0  0  0  0  0  0  0  0  0  0  0
  -24.1990  -36.7570   23.0950 C   0  0  0  0  0  1  0  0  0  0  0  0
  -25.4510  -36.3560   23.8920 C   0  0  0  0  0  3  0  0  0  0  0  0
  -27.5930  -37.2460   24.6980 C   0  0  0  0  0  1  0  0  0  0  0  0
  -26.4780  -37.4140   23.7700 N   0  0  0  0  0  0  0  0  0  0  0  0
  -26.0700  -38.3310   23.9270 H   0  0  0  0  0  0  0  0  0  0  0  0
  -26.4510  -31.7460   25.1240 C   0  0  1  0  0  0  0  0  0  0  0  0
  -25.3620  -31.5020   26.1950 C   0  0  0  0  0  1  0  0  0  0  0  0
  -27.0370  -30.3700   24.7290 C   0  0  0  0  0  1  0  0  0  0  0  0
  -27.6020  -32.5410   25.7820 C   0  0  0  0  0  1  0  0  0  0  0  0
  1  3  2  0
  1  5  1  0
  3  4  1  0
  4  2  2  0
  5  6  2  0
  6  2  1  0
  6 54  1  0
  7  8  1  0
  7  3  1  0
  9  8  1  0
  9  4  1  0
  9 24  1  0
 10  5  1  0
 12 17  1  0
 13 14  1  0
 13 12  1  0
 15 14  1  0
 15 29  1  0
 15 16  1  0
 17 11  1  0
 17 16  1  0
 18 11  2  0
 19 23  1  0
 21 19  1  0
 21 24  1  0
 22 20  1  0
 23 11  1  0
 23 20  1  0
 24 25  1  6
 24 22  1  0
 26 27  2  0
 27 46  1  0
 28 27  1  0
 28 31  1  0
 29 26  1  0
 29 30  1  0
 30 28  2  0
 31 32  1  0
 32 33  2  0
 34 37  1  0
 34 33  1  0
 35 34  2  0
 36 35  1  0
 36 31  2  0
 37 38  1  0
 38 39  1  0
 39 40  2  0
 41 40  1  0
 41 45  1  0
 42 41  2  0
 43 38  2  0
 43 42  1  0
 44 43  1  0
 46 47  1  0
 47 50  1  0
 47 49  1  0
 48 46  2  0
 51 52  1  0
 51 26  1  0
 53 51  1  0
 55 54  1  0
 56 67  2  0
 57 55  1  0
 57 62  1  0
 58 66  1  0
 58 68  1  0
 59 65  1  0
 59 61  1  0
 60 66  1  0
 61 60  1  0
 62 61  2  0
 63 64  1  0
 63 57  2  0
 64 59  2  0
 65 58  1  0
 66 56  1  0
 68 70  2  0
 69 68  1  0
 71 69  1  0
 72 81  2  0
 72 77  1  0
 73 69  1  0
 73 77  1  0
 74 73  1  0
 75 76  1  0
 75 74  1  0
 76 72  1  0
 77 78  2  0
 78 79  1  0
 80 79  2  0
 81 80  1  0
 82 56  1  0
 82 83  1  0
 82 92  1  0
 83 86  1  0
 84 88  1  0
 84 83  1  0
 85 84  2  0
 88 87  1  0
 90 88  1  0
 90 91  1  0
 90 89  1  0
 92 95  1  1
 92 93  1  0
 94 92  1  0
M  ISO  4  11 100  23 100  54 101  55 101
M  END
>  <TORSDO>  (97) 
F 17

>  <SCORE>  (97) 
-15.104

>  <name>  (97) 
96

>  <ligand_id>  (97) 
96

>  <original_smiles>  (97) 
[H]c1c([H])c([H])c2c(c1[H])C([H])([H])C([H])([H])C([H])([H])C2([H])N([H])C(=O)C1([H])N(C(=O)C([H])(N([H])C(=O)C([H])(N([H])C([H])([H])[H])C([H])([H])[H])C(C([H])([H])[H])(C([H])([H])[H])C([H])([H])[H])C([H])([H])c2c([H])c(OC([H])([H])c3c([H])c4c(c([H])c3C([H])([H])[H])C([H])([H])C([H])([H])C4([H])[N+]3([H])C([H])([H])C([H])([H])N(C(=O)N4C([H])([H])C([H])([H])C([H])([H])C([H])(n5nc(-c6c([H])c([H])c(Oc7c([H])c([H])c(F)c([H])c7F)c([H])c6[H])c(C(=O)N([H])[H])c5N([H])[H])C4([H])[H])C([H])([H])C3([H])[H])c([H])c([H])c2C1([H])[H]

>  <smiles>  (97) 
[H]c1c([H])c([H])c2c(c1[H])C([H])([H])C([H])([H])C([H])([H])C2([H])N([H])C(=O)C1([H])N(C(=O)C([H])(N([H])C(=O)C([H])(N([H])C([H])([H])[H])C([H])([H])[H])C(C([H])([H])[H])(C([H])([H])[H])C([H])([H])[H])C([H])([H])c2c([H])c(OC([H])([H])c3c([H])c4c(c([H])c3C([H])([H])[H])C([H])([H])C([H])([H])C4([H])[N+]3([H])C([H])([H])C([H])([H])N(C(=O)N4C([H])([H])C([H])([H])C([H])([H])C([H])(n5nc(-c6c([H])c([H])c(Oc7c([H])c([H])c(F)c([H])c7F)c([H])c6[H])c(C(=O)N([H])[H])c5N([H])[H])C4([H])[H])C([H])([H])C3([H])[H])c([H])c([H])c2C1([H])[H]

> <Step>
155.0

> <Scaffold>
O=C(NC1CCCc2ccccc21)C1Cc2ccc(OCc3ccc4c(c3)C(N3CCN(C(=O)N5CCCC(n6ccc(-c7ccc(Oc8ccccc8)cc7)n6)C5)CC3)CC4)cc2CN1

> <SMILES>
CNC(C)C(=O)NC(C(=O)N1Cc2cc(OCc3cc4c(cc3C)CCC4N3CCN(C(=O)N4CCCC(n5nc(-c6ccc(Oc7ccc(F)cc7F)cc6)c(C(N)=O)c5N)C4)CC3)ccc2CC1C(=O)NC1CCCc2ccccc21)C(C)(C)C

> <Tanimoto ROCS sim>
0.25420454144477844

> <Custom alerts>
1.0

> <Linker Num Aromatic Rings>
1.0

> <Linker Effective Length>
1.0

> <ADV>
0.9970269203186035

> <PostDock Tanimoto ROCS sim>
0.9885289072990417

> <raw_Linker Num Aromatic Rings>
1.0

> <raw_Linker Effective Length>
8.0

> <raw_ADV>
-15.10200023651123

> <total_score>
0.9963889718055725

> <ID>
default_job_96

> <PostDock Tanimoto ROCS sim (re-score)>
0.9829752

> <raw_ADV (re-score)>
-15.104

> <Final Intermolecular Energy>
-29.673

> <Final Total Internal Energy>
-2.486

> <Torsional Free Energy>
14.569

> <Unbound System's Energy>
-2.486

$$$$
default_job_97
     RDKit          3D

 92100  0  0  1  0  0  0  0  0999 V2000
  -29.2170  -20.5500   20.2110 C   0  0  0  0  0  3  0  0  0  0  0  0
  -29.6910  -21.8290   19.8050 C   0  0  0  0  0  0  0  0  0  0  0  0
  -30.9910  -21.8830   19.2360 C   0  0  0  0  0  0  0  0  0  0  0  0
  -30.0210  -19.3930   20.0330 C   0  0  0  0  0  0  0  0  0  0  0  0
  -31.7440  -20.6860   19.1480 C   0  0  0  0  0  0  0  0  0  0  0  0
  -31.5750  -23.1840   18.6920 C   0  0  0  0  0  1  0  0  0  0  0  0
  -33.1580  -20.6590   18.5950 C   0  0  0  0  0  1  0  0  0  0  0  0
  -31.2620  -19.4820   19.5130 N   0  0  0  0  0  0  0  0  0  0  0  0
  -28.7700  -23.0720   19.8830 C   0  0  0  0  0  3  0  0  0  0  0  0
  -29.2520  -24.2670   20.7670 C   0  0  0  0  0  3  0  0  0  0  0  0
  -28.2000  -25.3930   21.0050 C   0  0  0  0  0  2  0  0  0  0  0  0
  -28.3760  -26.6150   20.2460 O   0  0  0  0  0  0  0  0  0  0  0  0
  -24.5980  -31.9000   23.2490 C   0  0  0  0  0  0  0  0  0  0  0  0
  -27.2460  -27.4110   20.2150 C   0  0  0  0  0  0  0  0  0  0  0  0
  -23.4010  -30.4860   21.6130 C   0  0  0  0  0  3  0  0  0  0  0  0
  -24.8620  -28.9420   20.1980 C   0  0  0  0  0  0  0  0  0  0  0  0
  -25.9320  -30.8330   21.4330 C   0  0  0  0  0  2  0  0  0  0  0  0
  -26.0200  -29.4600   20.7930 C   0  0  0  0  0  0  0  0  0  0  0  0
  -27.2190  -28.7040   20.7940 C   0  0  0  0  0  3  0  0  0  0  0  0
  -26.0740  -26.9210   19.6000 C   0  0  0  0  0  3  0  0  0  0  0  0
  -24.8850  -27.6740   19.5950 C   0  0  0  0  0  3  0  0  0  0  0  0
  -23.6180  -29.8040   20.2370 C   0  0  0  0  0  2  0  0  0  0  0  0
  -24.6620  -31.0840   22.1580 N   0  0  0  0  0  0  0  0  0  0  0  0
  -23.5090  -32.1980   23.7580 O   0  0  0  0  0  0  0  0  0  0  0  0
  -22.7410  -29.4690   22.5740 C   0  0  0  0  0  0  0  0  0  0  0  0
  -21.4190  -29.2810   22.4340 N   0  0  0  0  0  0  0  0  0  0  0  0
  -23.4180  -28.8510   23.4000 O   0  0  0  0  0  0  0  0  0  0  0  0
  -20.9340  -29.8310   21.7390 H   0  0  0  0  0  0  0  0  0  0  0  0
  -18.0440  -28.0700   22.8950 C   0  0  0  0  0  0  0  0  0  0  0  0
  -20.5970  -28.3440   23.2000 C   0  0  0  0  0  3  0  0  0  0  0  0
  -20.7150  -26.9090   22.6350 C   0  0  0  0  0  2  0  0  0  0  0  0
  -19.6290  -26.5740   21.6090 C   0  0  0  0  0  2  0  0  0  0  0  0
  -18.2380  -26.7170   22.2330 C   0  0  0  0  0  2  0  0  0  0  0  0
  -19.1530  -28.8410   23.3360 C   0  0  0  0  0  0  0  0  0  0  0  0
  -18.9200  -30.1080   23.9140 C   0  0  0  0  0  3  0  0  0  0  0  0
  -17.6110  -30.6040   24.0560 C   0  0  0  0  0  3  0  0  0  0  0  0
  -16.5160  -29.8300   23.6340 C   0  0  0  0  0  3  0  0  0  0  0  0
  -16.7340  -28.5650   23.0590 C   0  0  0  0  0  3  0  0  0  0  0  0
  -25.8820  -32.5210   23.8840 C   0  0  0  0  0  3  0  0  0  0  0  0
  -25.5780  -33.9210   24.2090 N   0  0  0  0  0  0  0  0  0  0  0  0
  -25.9120  -34.9680   23.4430 C   0  0  0  0  0  0  0  0  0  0  0  0
  -26.5810  -34.8570   22.4120 O   0  0  0  0  0  0  0  0  0  0  0  0
  -24.9830  -34.0810   25.0090 H   0  0  0  0  0  0  0  0  0  0  0  0
  -24.1830  -36.7580   23.0780 C   0  0  0  0  0  1  0  0  0  0  0  0
  -25.4250  -36.3590   23.8910 C   0  0  0  0  0  3  0  0  0  0  0  0
  -27.5610  -37.2470   24.7140 C   0  0  0  0  0  1  0  0  0  0  0  0
  -26.4580  -37.4100   23.7710 N   0  0  0  0  0  0  0  0  0  0  0  0
  -26.0530  -38.3310   23.9130 H   0  0  0  0  0  0  0  0  0  0  0  0
  -26.3880  -31.7510   25.1660 C   0  0  1  0  0  0  0  0  0  0  0  0
  -25.2860  -31.5190   26.2250 C   0  0  0  0  0  1  0  0  0  0  0  0
  -26.9700  -30.3700   24.7800 C   0  0  0  0  0  1  0  0  0  0  0  0
  -27.5360  -32.5430   25.8340 C   0  0  0  0  0  1  0  0  0  0  0  0
  -29.4900  -17.9540   20.2230 C   0  0  0  0  0  2  0  0  0  0  0  0
  -30.3810  -16.9840   21.0640 C   0  0  0  0  0  2  0  0  0  0  0  0
  -30.6570  -14.5220   20.5060 C   0  0  0  0  0  0  0  0  0  0  0  0
  -30.3650  -12.3550   19.3570 C   0  0  0  0  0  2  0  0  0  0  0  0
  -29.4260  -12.5530   18.1490 C   0  0  0  0  0  2  0  0  0  0  0  0
  -27.9520  -12.4070   18.5770 C   0  0  0  0  0  2  0  0  0  0  0  0
  -27.6100  -13.2440   19.8400 C   0  0  0  0  0  3  0  0  0  0  0  0
  -28.6640  -13.0340   20.9510 C   0  0  0  0  0  2  0  0  0  0  0  0
  -29.9860  -13.3420   20.3810 N   0  0  0  0  0  0  0  0  0  0  0  0
  -31.7900  -14.6870   20.0490 O   0  0  0  0  0  0  0  0  0  0  0  0
  -29.9530  -15.5600   21.0130 N   0  0  0  0  0  0  0  0  0  0  0  0
  -29.0270  -15.3440   21.3540 H   0  0  0  0  0  0  0  0  0  0  0  0
  -25.2090  -13.8440   20.5400 C   0  0  0  0  0  0  0  0  0  0  0  0
  -24.1410  -13.0700   20.9070 C   0  0  0  0  0  0  0  0  0  0  0  0
  -24.6050  -11.7190   20.8810 C   0  0  0  0  0  0  0  0  0  0  0  0
  -26.2560  -12.9650   20.3150 N   0  0  0  0  0  0  0  0  0  0  0  0
  -25.8970  -11.6820   20.5780 N   0  0  0  0  0  0  0  0  0  0  0  0
  -23.8810  -10.4550   21.0700 C   0  0  0  0  0  0  0  0  0  0  0  0
  -24.3180   -9.4860   21.9980 C   0  0  0  0  0  3  0  0  0  0  0  0
  -23.5950   -8.2860   22.1750 C   0  0  0  0  0  3  0  0  0  0  0  0
  -22.4200   -8.0490   21.4230 C   0  0  0  0  0  0  0  0  0  0  0  0
  -22.0020   -9.0080   20.4840 C   0  0  0  0  0  3  0  0  0  0  0  0
  -22.7260  -10.1980   20.3050 C   0  0  0  0  0  3  0  0  0  0  0  0
  -21.6670   -6.9030   21.5100 O   0  0  0  0  0  0  0  0  0  0  0  0
  -21.6310   -6.1510   22.6570 C   0  0  0  0  0  0  0  0  0  0  0  0
  -21.2210   -6.6950   23.8930 C   0  0  0  0  0  3  0  0  0  0  0  0
  -21.1330   -5.8690   25.0310 C   0  0  0  0  0  3  0  0  0  0  0  0
  -21.4450   -4.5000   24.9350 C   0  0  0  0  0  0  0  0  0  0  0  0
  -21.8480   -3.9550   23.7030 C   0  0  0  0  0  3  0  0  0  0  0  0
  -21.9380   -4.7770   22.5660 C   0  0  0  0  0  0  0  0  0  0  0  0
  -22.3070   -4.2430   21.3770 F   0  0  0  0  0  0  0  0  0  0  0  0
  -21.3520   -3.7040   26.0260 F   0  0  0  0  0  0  0  0  0  0  0  0
  -22.7420  -13.5450   21.1750 C   0  0  0  0  0  0  0  0  0  0  0  0
  -22.0110  -12.8460   22.0370 N   0  0  0  0  0  0  0  0  0  0  0  0
  -22.3040  -14.5700   20.6540 O   0  0  0  0  0  0  0  0  0  0  0  0
  -22.3790  -12.0170   22.4790 H   0  0  0  0  0  0  0  0  0  0  0  0
  -21.0730  -13.1460   22.2580 H   0  0  0  0  0  0  0  0  0  0  0  0
  -25.3710  -15.2140   20.3600 N   0  0  0  0  0  0  0  0  0  0  0  0
  -24.5990  -15.8660   20.4590 H   0  0  0  0  0  0  0  0  0  0  0  0
  -26.2180  -15.6520   20.0210 H   0  0  0  0  0  0  0  0  0  0  0  0
  2  9  1  0
  2  1  2  0
  3  2  1  0
  4  1  1  0
  4 53  1  0
  5  3  2  0
  5  8  1  0
  6  3  1  0
  7  5  1  0
  8  4  2  0
  9 10  2  0
 10 11  1  0
 12 11  1  0
 13 24  2  0
 14 12  1  0
 14 19  1  0
 15 23  1  0
 15 25  1  0
 16 22  1  0
 16 18  1  0
 17 23  1  0
 18 19  2  0
 18 17  1  0
 20 14  2  0
 21 20  1  0
 21 16  2  0
 22 15  1  0
 23 13  1  0
 25 27  2  0
 26 25  1  0
 28 26  1  0
 29 38  2  0
 29 34  1  0
 30 26  1  0
 30 34  1  0
 31 30  1  0
 32 33  1  0
 32 31  1  0
 33 29  1  0
 34 35  2  0
 35 36  1  0
 37 36  2  0
 38 37  1  0
 39 13  1  0
 39 40  1  0
 39 49  1  0
 40 43  1  0
 41 45  1  0
 41 40  1  0
 42 41  2  0
 45 44  1  0
 47 45  1  0
 47 48  1  0
 47 46  1  0
 49 52  1  1
 49 50  1  0
 51 49  1  0
 53 54  1  0
 55 63  1  0
 56 61  1  0
 57 58  1  0
 57 56  1  0
 59 58  1  0
 59 68  1  0
 59 60  1  0
 61 55  1  0
 61 60  1  0
 62 55  2  0
 63 54  1  0
 63 64  1  0
 65 66  2  0
 66 85  1  0
 67 66  1  0
 67 70  1  0
 68 65  1  0
 68 69  1  0
 69 67  2  0
 70 71  1  0
 71 72  2  0
 73 76  1  0
 73 72  1  0
 74 73  2  0
 75 74  1  0
 75 70  2  0
 76 77  1  0
 77 78  1  0
 78 79  2  0
 80 79  1  0
 80 84  1  0
 81 80  2  0
 82 77  2  0
 82 81  1  0
 83 82  1  0
 85 86  1  0
 86 89  1  0
 86 88  1  0
 87 85  2  0
 90 91  1  0
 90 65  1  0
 92 90  1  0
M  ISO  4  11 101  12 101  55 100  63 100
M  END
>  <TORSDO>  (98) 
F 21

>  <SCORE>  (98) 
-13.553

>  <name>  (98) 
97

>  <ligand_id>  (98) 
97

>  <original_smiles>  (98) 
[H]c1c([H])c([H])c2c(c1[H])C([H])([H])C([H])([H])C([H])([H])C2([H])N([H])C(=O)C1([H])N(C(=O)C([H])(N([H])C(=O)C([H])(N([H])C([H])([H])[H])C([H])([H])[H])C(C([H])([H])[H])(C([H])([H])[H])C([H])([H])[H])C([H])([H])c2c([H])c(OC([H])([H])C([H])([H])C([H])([H])c3c([H])c(C([H])([H])C([H])([H])N([H])C(=O)N4C([H])([H])C([H])([H])C([H])([H])C([H])(n5nc(-c6c([H])c([H])c(Oc7c([H])c([H])c(F)c([H])c7F)c([H])c6[H])c(C(=O)N([H])[H])c5N([H])[H])C4([H])[H])nc(C([H])([H])[H])c3C([H])([H])[H])c([H])c([H])c2C1([H])[H]

>  <smiles>  (98) 
[H]c1c([H])c([H])c2c(c1[H])C([H])([H])C([H])([H])C([H])([H])C2([H])N([H])C(=O)C1([H])N(C(=O)C([H])(N([H])C(=O)C([H])(N([H])C([H])([H])[H])C([H])([H])[H])C(C([H])([H])[H])(C([H])([H])[H])C([H])([H])[H])C([H])([H])c2c([H])c(OC([H])([H])C([H])([H])C([H])([H])c3c([H])c(C([H])([H])C([H])([H])N([H])C(=O)N4C([H])([H])C([H])([H])C([H])([H])C([H])(n5nc(-c6c([H])c([H])c(Oc7c([H])c([H])c(F)c([H])c7F)c([H])c6[H])c(C(=O)N([H])[H])c5N([H])[H])C4([H])[H])nc(C([H])([H])[H])c3C([H])([H])[H])c([H])c([H])c2C1([H])[H]

> <Step>
79.0

> <Scaffold>
O=C(NC1CCCc2ccccc21)C1Cc2ccc(OCCCc3ccnc(CCNC(=O)N4CCCC(n5ccc(-c6ccc(Oc7ccccc7)cc6)n5)C4)c3)cc2CN1

> <SMILES>
CNC(C)C(=O)NC(C(=O)N1Cc2cc(OCCCc3cc(CCNC(=O)N4CCCC(n5nc(-c6ccc(Oc7ccc(F)cc7F)cc6)c(C(N)=O)c5N)C4)nc(C)c3C)ccc2CC1C(=O)NC1CCCc2ccccc21)C(C)(C)C

> <Tanimoto ROCS sim>
0.23378615081310272

> <Custom alerts>
1.0

> <Linker Num Aromatic Rings>
1.0

> <Linker Effective Length>
1.0

> <ADV>
0.9927541017532349

> <PostDock Tanimoto ROCS sim>
0.9927868247032166

> <raw_Linker Num Aromatic Rings>
1.0

> <raw_Linker Effective Length>
8.0

> <raw_ADV>
-13.54699993133545

> <total_score>
0.9963852167129517

> <ID>
default_job_97

> <PostDock Tanimoto ROCS sim (re-score)>
0.9853626

> <raw_ADV (re-score)>
-13.553

> <Final Intermolecular Energy>
-29.796

> <Final Total Internal Energy>
-2.697

> <Torsional Free Energy>
16.243

> <Unbound System's Energy>
-2.697

$$$$
default_job_98
     RDKit          3D

 97106  0  0  1  0  0  0  0  0999 V2000
  -27.5310  -23.4030   19.3690 C   0  0  0  0  0  3  0  0  0  0  0  0
  -28.5680  -24.2480   19.8020 C   0  0  0  0  0  0  0  0  0  0  0  0
  -29.5830  -23.6130   20.5460 C   0  0  0  0  0  0  0  0  0  0  0  0
  -28.5610  -21.5750   20.2800 C   0  0  0  0  0  0  0  0  0  0  0  0
  -29.7830  -19.4270   20.8800 C   0  0  0  0  0  2  0  0  0  0  0  0
  -27.6710  -19.2840   19.7700 C   0  0  0  0  0  2  0  0  0  0  0  0
  -29.6190  -17.9650   20.3840 C   0  0  0  0  0  3  0  0  0  0  0  0
  -28.0960  -17.8620   20.1650 C   0  0  0  0  0  3  0  0  0  0  0  0
  -30.7850  -24.3640   21.0820 C   0  0  0  0  0  1  0  0  0  0  0  0
  -27.5340  -22.0730   19.6070 N   0  0  0  0  0  0  0  0  0  0  0  0
  -29.5660  -22.2790   20.7770 N   0  0  0  0  0  0  0  0  0  0  0  0
  -28.6170  -20.1870   20.4130 N   0  0  0  0  0  0  0  0  0  0  0  0
  -27.7160  -16.8830   19.1340 N   0  0  0  0  0  4  0  0  0  0  0  0
  -28.3690  -16.1220   19.1230 H   0  0  0  0  0  0  0  0  0  0  0  0
  -27.7020  -17.3000   18.2200 H   0  0  0  0  0  0  0  0  0  0  0  0
  -26.7990  -16.4880   19.3300 H   0  0  0  0  0  0  0  0  0  0  0  0
  -28.6480  -25.7110   19.3310 C   0  0  0  0  0  2  0  0  0  0  0  0
  -28.3920  -26.7200   20.3240 O   0  0  0  0  0  0  0  0  0  0  0  0
  -24.5470  -31.9550   23.2820 C   0  0  0  0  0  0  0  0  0  0  0  0
  -27.2080  -27.4390   20.2890 C   0  0  0  0  0  0  0  0  0  0  0  0
  -23.3550  -30.5280   21.6520 C   0  0  0  0  0  3  0  0  0  0  0  0
  -24.8170  -28.9670   20.2620 C   0  0  0  0  0  0  0  0  0  0  0  0
  -25.8880  -30.8660   21.4840 C   0  0  0  0  0  2  0  0  0  0  0  0
  -25.9700  -29.4860   20.8630 C   0  0  0  0  0  0  0  0  0  0  0  0
  -27.1630  -28.7250   20.8800 C   0  0  0  0  0  3  0  0  0  0  0  0
  -26.0250  -26.9320   19.7020 C   0  0  0  0  0  3  0  0  0  0  0  0
  -24.8400  -27.6890   19.6840 C   0  0  0  0  0  3  0  0  0  0  0  0
  -23.5780  -29.8330   20.2820 C   0  0  0  0  0  2  0  0  0  0  0  0
  -24.6150  -31.1300   22.1990 N   0  0  0  0  0  0  0  0  0  0  0  0
  -23.4550  -32.2610   23.7810 O   0  0  0  0  0  0  0  0  0  0  0  0
  -22.6910  -29.5210   22.6190 C   0  0  0  0  0  0  0  0  0  0  0  0
  -21.3670  -29.3390   22.4780 N   0  0  0  0  0  0  0  0  0  0  0  0
  -23.3630  -28.9050   23.4500 O   0  0  0  0  0  0  0  0  0  0  0  0
  -20.8860  -29.8870   21.7780 H   0  0  0  0  0  0  0  0  0  0  0  0
  -17.9790  -28.1740   22.9670 C   0  0  0  0  0  0  0  0  0  0  0  0
  -20.5380  -28.4120   23.2500 C   0  0  0  0  0  3  0  0  0  0  0  0
  -20.6310  -26.9760   22.6840 C   0  0  0  0  0  2  0  0  0  0  0  0
  -19.5310  -26.6570   21.6640 C   0  0  0  0  0  2  0  0  0  0  0  0
  -18.1480  -26.8190   22.2990 C   0  0  0  0  0  2  0  0  0  0  0  0
  -19.1030  -28.9280   23.3990 C   0  0  0  0  0  0  0  0  0  0  0  0
  -18.8920  -30.1970   23.9800 C   0  0  0  0  0  3  0  0  0  0  0  0
  -17.5920  -30.7130   24.1340 C   0  0  0  0  0  3  0  0  0  0  0  0
  -16.4830  -29.9550   23.7190 C   0  0  0  0  0  3  0  0  0  0  0  0
  -16.6780  -28.6870   23.1420 C   0  0  0  0  0  3  0  0  0  0  0  0
  -25.8270  -32.5810   23.9170 C   0  0  0  0  0  3  0  0  0  0  0  0
  -26.3200  -31.8270   25.2130 C   0  0  1  0  0  0  0  0  0  0  0  0
  -25.2070  -31.6040   26.2630 C   0  0  0  0  0  1  0  0  0  0  0  0
  -26.9120  -30.4460   24.8510 C   0  0  0  0  0  1  0  0  0  0  0  0
  -27.4600  -32.6300   25.8850 C   0  0  0  0  0  1  0  0  0  0  0  0
  -25.5260  -33.9860   24.2200 N   0  0  0  0  0  0  0  0  0  0  0  0
  -25.8750  -35.0210   23.4460 C   0  0  0  0  0  0  0  0  0  0  0  0
  -26.5590  -34.8950   22.4270 O   0  0  0  0  0  0  0  0  0  0  0  0
  -24.9210  -34.1580   25.0090 H   0  0  0  0  0  0  0  0  0  0  0  0
  -24.1740  -36.8230   23.0190 C   0  0  0  0  0  1  0  0  0  0  0  0
  -25.3890  -36.4200   23.8710 C   0  0  0  0  0  3  0  0  0  0  0  0
  -27.5050  -37.3010   24.7530 C   0  0  0  0  0  1  0  0  0  0  0  0
  -26.4340  -37.4620   23.7720 N   0  0  0  0  0  0  0  0  0  0  0  0
  -26.0320  -38.3880   23.8920 H   0  0  0  0  0  0  0  0  0  0  0  0
  -30.2670  -16.9190   21.3530 C   0  0  0  0  0  2  0  0  0  0  0  0
  -30.6500  -14.5300   20.5580 C   0  0  0  0  0  0  0  0  0  0  0  0
  -30.3810  -12.3930   19.3480 C   0  0  0  0  0  2  0  0  0  0  0  0
  -29.4340  -12.6340   18.1520 C   0  0  0  0  0  2  0  0  0  0  0  0
  -27.9620  -12.4700   18.5780 C   0  0  0  0  0  2  0  0  0  0  0  0
  -27.6230  -13.2640   19.8680 C   0  0  0  0  0  3  0  0  0  0  0  0
  -28.6810  -13.0100   20.9660 C   0  0  0  0  0  2  0  0  0  0  0  0
  -30.0020  -13.3430   20.4040 N   0  0  0  0  0  0  0  0  0  0  0  0
  -31.7680  -14.7540   20.0870 O   0  0  0  0  0  0  0  0  0  0  0  0
  -29.9060  -15.5040   21.1230 N   0  0  0  0  0  0  0  0  0  0  0  0
  -29.0430  -15.1810   21.5360 H   0  0  0  0  0  0  0  0  0  0  0  0
  -25.2240  -13.8700   20.5740 C   0  0  0  0  0  0  0  0  0  0  0  0
  -24.1560  -13.0900   20.9300 C   0  0  0  0  0  0  0  0  0  0  0  0
  -24.6220  -11.7400   20.8890 C   0  0  0  0  0  0  0  0  0  0  0  0
  -26.2720  -12.9900   20.3410 N   0  0  0  0  0  0  0  0  0  0  0  0
  -25.9120  -11.7060   20.5850 N   0  0  0  0  0  0  0  0  0  0  0  0
  -23.9010  -10.4730   21.0650 C   0  0  0  0  0  0  0  0  0  0  0  0
  -24.3190   -9.5130   22.0130 C   0  0  0  0  0  3  0  0  0  0  0  0
  -23.5980   -8.3110   22.1760 C   0  0  0  0  0  3  0  0  0  0  0  0
  -22.4460   -8.0610   21.3930 C   0  0  0  0  0  0  0  0  0  0  0  0
  -22.0480   -9.0120   20.4370 C   0  0  0  0  0  3  0  0  0  0  0  0
  -22.7690  -10.2060   20.2720 C   0  0  0  0  0  3  0  0  0  0  0  0
  -21.6990   -6.9100   21.4650 O   0  0  0  0  0  0  0  0  0  0  0  0
  -21.6070   -6.1840   22.6260 C   0  0  0  0  0  0  0  0  0  0  0  0
  -21.0690   -6.7350   23.8090 C   0  0  0  0  0  3  0  0  0  0  0  0
  -20.9280   -5.9310   24.9580 C   0  0  0  0  0  3  0  0  0  0  0  0
  -21.3160   -4.5780   24.9240 C   0  0  0  0  0  0  0  0  0  0  0  0
  -21.8470   -4.0280   23.7450 C   0  0  0  0  0  3  0  0  0  0  0  0
  -21.9900   -4.8280   22.5970 C   0  0  0  0  0  0  0  0  0  0  0  0
  -22.4820   -4.2880   21.4570 F   0  0  0  0  0  0  0  0  0  0  0  0
  -21.1740   -3.8040   26.0250 F   0  0  0  0  0  0  0  0  0  0  0  0
  -22.7590  -13.5620   21.2100 C   0  0  0  0  0  0  0  0  0  0  0  0
  -22.0270  -12.8520   22.0620 N   0  0  0  0  0  0  0  0  0  0  0  0
  -22.3310  -14.6000   20.7100 O   0  0  0  0  0  0  0  0  0  0  0  0
  -22.3880  -12.0130   22.4920 H   0  0  0  0  0  0  0  0  0  0  0  0
  -21.0880  -13.1500   22.2860 H   0  0  0  0  0  0  0  0  0  0  0  0
  -25.3860  -15.2490   20.4200 N   0  0  0  0  0  0  0  0  0  0  0  0
  -25.4370  -15.6030   21.3710 H   0  0  0  0  0  0  0  0  0  0  0  0
  -24.4630  -15.5680   20.1300 H   0  0  0  0  0  0  0  0  0  0  0  0
  1 10  1  0
  1  2  2  0
  2  3  1  0
  3 11  2  0
  3  9  1  0
  4 12  1  0
  4 11  1  0
  6  8  1  0
  6 12  1  0
  7  5  1  0
  7 59  1  0
  8 13  1  0
  8  7  1  0
 10  4  2  0
 12  5  1  0
 13 16  1  0
 14 13  1  0
 15 13  1  0
 17  2  1  0
 17 18  1  0
 19 30  2  0
 20 18  1  0
 20 25  1  0
 21 29  1  0
 21 31  1  0
 22 28  1  0
 22 24  1  0
 23 29  1  0
 24 25  2  0
 24 23  1  0
 26 20  2  0
 27 26  1  0
 27 22  2  0
 28 21  1  0
 29 19  1  0
 31 33  2  0
 32 31  1  0
 34 32  1  0
 35 44  2  0
 35 40  1  0
 36 32  1  0
 36 40  1  0
 37 36  1  0
 38 39  1  0
 38 37  1  0
 39 35  1  0
 40 41  2  0
 41 42  1  0
 43 42  2  0
 44 43  1  0
 45 19  1  0
 45 50  1  0
 45 46  1  0
 46 49  1  1
 46 47  1  0
 48 46  1  0
 50 53  1  0
 51 55  1  0
 51 50  1  0
 52 51  2  0
 55 54  1  0
 57 55  1  0
 57 58  1  0
 57 56  1  0
 60 68  1  0
 61 66  1  0
 62 63  1  0
 62 61  1  0
 64 63  1  0
 64 73  1  0
 64 65  1  0
 66 60  1  0
 66 65  1  0
 67 60  2  0
 68 59  1  0
 68 69  1  0
 70 71  2  0
 71 90  1  0
 72 71  1  0
 72 75  1  0
 73 70  1  0
 73 74  1  0
 74 72  2  0
 75 76  1  0
 76 77  2  0
 78 81  1  0
 78 77  1  0
 79 78  2  0
 80 79  1  0
 80 75  2  0
 81 82  1  0
 82 83  1  0
 83 84  2  0
 85 84  1  0
 85 89  1  0
 86 85  2  0
 87 82  2  0
 87 86  1  0
 88 87  1  0
 90 91  1  0
 91 94  1  0
 91 93  1  0
 92 90  2  0
 95 70  1  0
 95 96  1  0
 97 95  1  0
M  ISO  4  17 101  18 101  60 100  68 100
M  END
>  <TORSDO>  (99) 
F 19

>  <SCORE>  (99) 
-15.037

>  <name>  (99) 
98

>  <ligand_id>  (99) 
98

>  <original_smiles>  (99) 
[H]c1nc(N2C([H])([H])C([H])(C([H])([H])N([H])C(=O)N3C([H])([H])C([H])([H])C([H])([H])C([H])(n4nc(-c5c([H])c([H])c(Oc6c([H])c([H])c(F)c([H])c6F)c([H])c5[H])c(C(=O)N([H])[H])c4N([H])[H])C3([H])[H])C([H])([N+]([H])([H])[H])C2([H])[H])nc(C([H])([H])[H])c1C([H])([H])Oc1c([H])c([H])c2c(c1[H])C([H])([H])N(C(=O)C([H])(N([H])C(=O)C([H])(N([H])C([H])([H])[H])C([H])([H])[H])C(C([H])([H])[H])(C([H])([H])[H])C([H])([H])[H])C([H])(C(=O)N([H])C1([H])c3c([H])c([H])c([H])c([H])c3C([H])([H])C([H])([H])C1([H])[H])C2([H])[H]

>  <smiles>  (99) 
[H]c1nc(N2C([H])([H])C([H])(C([H])([H])N([H])C(=O)N3C([H])([H])C([H])([H])C([H])([H])C([H])(n4nc(-c5c([H])c([H])c(Oc6c([H])c([H])c(F)c([H])c6F)c([H])c5[H])c(C(=O)N([H])[H])c4N([H])[H])C3([H])[H])C([H])([N+]([H])([H])[H])C2([H])[H])nc(C([H])([H])[H])c1C([H])([H])Oc1c([H])c([H])c2c(c1[H])C([H])([H])N(C(=O)C([H])(N([H])C(=O)C([H])(N([H])C([H])([H])[H])C([H])([H])[H])C(C([H])([H])[H])(C([H])([H])[H])C([H])([H])[H])C([H])(C(=O)N([H])C1([H])c3c([H])c([H])c([H])c([H])c3C([H])([H])C([H])([H])C1([H])[H])C2([H])[H]

> <Step>
183.0

> <Scaffold>
O=C(NC1CCCc2ccccc21)C1Cc2ccc(OCc3cnc(N4CCC(CNC(=O)N5CCCC(n6ccc(-c7ccc(Oc8ccccc8)cc7)n6)C5)C4)nc3)cc2CN1

> <SMILES>
CNC(C)C(=O)NC(C(=O)N1Cc2cc(OCc3cnc(N4CC(N)C(CNC(=O)N5CCCC(n6nc(-c7ccc(Oc8ccc(F)cc8F)cc7)c(C(N)=O)c6N)C5)C4)nc3C)ccc2CC1C(=O)NC1CCCc2ccccc21)C(C)(C)C

> <Tanimoto ROCS sim>
0.3021353483200073

> <Custom alerts>
1.0

> <Linker Num Aromatic Rings>
1.0

> <Linker Effective Length>
1.0

> <ADV>
0.9969156980514526

> <PostDock Tanimoto ROCS sim>
0.9886201024055481

> <raw_Linker Num Aromatic Rings>
1.0

> <raw_Linker Effective Length>
9.0

> <raw_ADV>
-15.038000106811523

> <total_score>
0.9963839650154114

> <ID>
default_job_98

> <PostDock Tanimoto ROCS sim (re-score)>
0.9778451

> <raw_ADV (re-score)>
-15.037

> <Final Intermolecular Energy>
-30.859

> <Final Total Internal Energy>
-3.017

> <Torsional Free Energy>
15.823

> <Unbound System's Energy>
-3.017

$$$$
default_job_99
     RDKit          3D

 95104  0  0  1  0  0  0  0  0999 V2000
  -29.9520  -22.0070   21.7540 C   0  0  0  0  0  3  0  0  0  0  0  0
  -29.0830  -21.9010   19.5050 C   0  0  0  0  0  3  0  0  0  0  0  0
  -29.4370  -23.3260   21.8820 C   0  0  0  0  0  3  0  0  0  0  0  0
  -28.5680  -23.2250   19.6340 C   0  0  0  0  0  3  0  0  0  0  0  0
  -29.8030  -21.2630   20.5570 C   0  0  0  0  0  0  0  0  0  0  0  0
  -28.7450  -23.9730   20.8250 C   0  0  0  0  0  0  0  0  0  0  0  0
  -32.2080  -18.6280   18.8500 C   0  0  0  0  0  2  0  0  0  0  0  0
  -31.3040  -17.3900   18.8960 C   0  0  0  0  0  2  0  0  0  0  0  0
  -29.7710  -18.5290   20.5270 C   0  0  0  0  0  2  0  0  0  0  0  0
  -30.5730  -19.9040   20.3630 C   0  0  0  0  0  3  0  0  0  0  0  0
  -31.4150  -19.9340   19.0460 C   0  0  0  0  0  3  0  0  0  0  0  0
  -30.6540  -17.2240   20.2920 C   0  0  0  0  0  3  0  0  0  0  0  0
  -30.6800  -14.6540   20.3750 C   0  0  0  0  0  0  0  0  0  0  0  0
  -30.3500  -12.4330   19.3390 C   0  0  0  0  0  2  0  0  0  0  0  0
  -29.4170  -12.5620   18.1200 C   0  0  0  0  0  2  0  0  0  0  0  0
  -27.9460  -12.4240   18.5490 C   0  0  0  0  0  2  0  0  0  0  0  0
  -27.5910  -13.2950   19.7850 C   0  0  0  0  0  3  0  0  0  0  0  0
  -28.6580  -13.1900   20.8990 C   0  0  0  0  0  2  0  0  0  0  0  0
  -29.9600  -13.4920   20.2910 N   0  0  0  0  0  0  0  0  0  0  0  0
  -31.8850  -14.6530   20.1290 O   0  0  0  0  0  0  0  0  0  0  0  0
  -30.0210  -15.8560   20.4680 N   0  0  0  0  0  0  0  0  0  0  0  0
  -29.0240  -15.8160   20.6120 H   0  0  0  0  0  0  0  0  0  0  0  0
  -25.1970  -13.8810   20.5080 C   0  0  0  0  0  0  0  0  0  0  0  0
  -24.1330  -13.1030   20.8770 C   0  0  0  0  0  0  0  0  0  0  0  0
  -24.6000  -11.7530   20.8530 C   0  0  0  0  0  0  0  0  0  0  0  0
  -26.2470  -13.0050   20.2790 N   0  0  0  0  0  0  0  0  0  0  0  0
  -25.8930  -11.7200   20.5470 N   0  0  0  0  0  0  0  0  0  0  0  0
  -23.8760  -10.4900   21.0430 C   0  0  0  0  0  0  0  0  0  0  0  0
  -24.3110   -9.5210   21.9730 C   0  0  0  0  0  3  0  0  0  0  0  0
  -23.5860   -8.3230   22.1530 C   0  0  0  0  0  3  0  0  0  0  0  0
  -22.4130   -8.0850   21.3990 C   0  0  0  0  0  0  0  0  0  0  0  0
  -21.9970   -9.0400   20.4560 C   0  0  0  0  0  3  0  0  0  0  0  0
  -22.7230  -10.2300   20.2760 C   0  0  0  0  0  3  0  0  0  0  0  0
  -21.6590   -6.9400   21.4900 O   0  0  0  0  0  0  0  0  0  0  0  0
  -21.6160   -6.1930   22.6400 C   0  0  0  0  0  0  0  0  0  0  0  0
  -21.1990   -6.7420   23.8710 C   0  0  0  0  0  3  0  0  0  0  0  0
  -21.1050   -5.9210   25.0130 C   0  0  0  0  0  3  0  0  0  0  0  0
  -21.4190   -4.5520   24.9230 C   0  0  0  0  0  0  0  0  0  0  0  0
  -21.8280   -4.0020   23.6960 C   0  0  0  0  0  3  0  0  0  0  0  0
  -21.9240   -4.8200   22.5580 C   0  0  0  0  0  0  0  0  0  0  0  0
  -22.3000   -4.2790   21.3740 F   0  0  0  0  0  0  0  0  0  0  0  0
  -21.3210   -3.7620   26.0170 F   0  0  0  0  0  0  0  0  0  0  0  0
  -22.7330  -13.5770   21.1450 C   0  0  0  0  0  0  0  0  0  0  0  0
  -22.0040  -12.8780   22.0080 N   0  0  0  0  0  0  0  0  0  0  0  0
  -22.2950  -14.6000   20.6220 O   0  0  0  0  0  0  0  0  0  0  0  0
  -22.3710  -12.0510   22.4530 H   0  0  0  0  0  0  0  0  0  0  0  0
  -21.0640  -13.1760   22.2280 H   0  0  0  0  0  0  0  0  0  0  0  0
  -25.3560  -15.2510   20.3250 N   0  0  0  0  0  0  0  0  0  0  0  0
  -24.5870  -15.9050   20.4300 H   0  0  0  0  0  0  0  0  0  0  0  0
  -26.2000  -15.6870   19.9740 H   0  0  0  0  0  0  0  0  0  0  0  0
  -32.3960  -21.1290   18.9800 C   0  0  0  0  0  0  0  0  0  0  0  0
  -32.2130  -22.1590   17.8670 C   0  0  0  0  0  1  0  0  0  0  0  0
  -33.3220  -21.2470   19.7880 O   0  0  0  0  0  0  0  0  0  0  0  0
  -28.0470  -25.3450   21.0890 C   0  0  0  0  0  2  0  0  0  0  0  0
  -28.3150  -26.5230   20.2550 O   0  0  0  0  0  0  0  0  0  0  0  0
  -24.6050  -31.9170   23.2520 C   0  0  0  0  0  0  0  0  0  0  0  0
  -27.2280  -27.3940   20.1960 C   0  0  0  0  0  0  0  0  0  0  0  0
  -23.4030  -30.5040   21.6220 C   0  0  0  0  0  3  0  0  0  0  0  0
  -24.8600  -28.9670   20.1890 C   0  0  0  0  0  0  0  0  0  0  0  0
  -25.9410  -30.8430   21.4350 C   0  0  0  0  0  2  0  0  0  0  0  0
  -26.0260  -29.4720   20.7820 C   0  0  0  0  0  0  0  0  0  0  0  0
  -27.2190  -28.6970   20.7790 C   0  0  0  0  0  3  0  0  0  0  0  0
  -26.0480  -26.9380   19.5720 C   0  0  0  0  0  3  0  0  0  0  0  0
  -24.8710  -27.7050   19.5730 C   0  0  0  0  0  3  0  0  0  0  0  0
  -23.6160  -29.8290   20.2410 C   0  0  0  0  0  2  0  0  0  0  0  0
  -24.6690  -31.1000   22.1620 N   0  0  0  0  0  0  0  0  0  0  0  0
  -23.5150  -32.2200   23.7580 O   0  0  0  0  0  0  0  0  0  0  0  0
  -22.7500  -29.4810   22.5830 C   0  0  0  0  0  0  0  0  0  0  0  0
  -21.4230  -29.3020   22.4580 N   0  0  0  0  0  0  0  0  0  0  0  0
  -23.4350  -28.8530   23.3930 O   0  0  0  0  0  0  0  0  0  0  0  0
  -20.9330  -29.8590   21.7720 H   0  0  0  0  0  0  0  0  0  0  0  0
  -18.0450  -28.1110   22.9570 C   0  0  0  0  0  0  0  0  0  0  0  0
  -20.6050  -28.3640   23.2300 C   0  0  0  0  0  3  0  0  0  0  0  0
  -20.7060  -26.9320   22.6540 C   0  0  0  0  0  2  0  0  0  0  0  0
  -19.6030  -26.6140   21.6410 C   0  0  0  0  0  2  0  0  0  0  0  0
  -18.2200  -26.7610   22.2820 C   0  0  0  0  0  2  0  0  0  0  0  0
  -19.1670  -28.8680   23.3870 C   0  0  0  0  0  0  0  0  0  0  0  0
  -18.9460  -30.1310   23.9800 C   0  0  0  0  0  3  0  0  0  0  0  0
  -17.6440  -30.6340   24.1480 C   0  0  0  0  0  3  0  0  0  0  0  0
  -16.5360  -29.8700   23.7390 C   0  0  0  0  0  3  0  0  0  0  0  0
  -16.7390  -28.6110   23.1470 C   0  0  0  0  0  3  0  0  0  0  0  0
  -25.8860  -32.5390   23.8860 C   0  0  0  0  0  3  0  0  0  0  0  0
  -26.3960  -31.7690   25.1690 C   0  0  1  0  0  0  0  0  0  0  0  0
  -25.2940  -31.5450   26.2300 C   0  0  0  0  0  1  0  0  0  0  0  0
  -26.9760  -30.3880   24.7840 C   0  0  0  0  0  1  0  0  0  0  0  0
  -27.5460  -32.5620   25.8340 C   0  0  0  0  0  1  0  0  0  0  0  0
  -25.5830  -33.9410   24.2080 N   0  0  0  0  0  0  0  0  0  0  0  0
  -25.9210  -34.9870   23.4420 C   0  0  0  0  0  0  0  0  0  0  0  0
  -26.5900  -34.8730   22.4120 O   0  0  0  0  0  0  0  0  0  0  0  0
  -24.9830  -34.1000   25.0050 H   0  0  0  0  0  0  0  0  0  0  0  0
  -24.1900  -36.7720   23.0790 C   0  0  0  0  0  1  0  0  0  0  0  0
  -25.4350  -36.3780   23.8890 C   0  0  0  0  0  3  0  0  0  0  0  0
  -27.5750  -37.2600   24.7060 C   0  0  0  0  0  1  0  0  0  0  0  0
  -26.4680  -37.4290   23.7690 N   0  0  0  0  0  0  0  0  0  0  0  0
  -26.0650  -38.3500   23.9170 H   0  0  0  0  0  0  0  0  0  0  0  0
  1  3  1  0
  2  4  2  0
  2  5  1  0
  4  6  1  0
  5  1  2  0
  6 54  1  0
  6  3  2  0
  7  8  1  0
  7 11  1  0
  8 12  1  0
 10  9  1  0
 10  5  1  0
 11 51  1  0
 11 10  1  0
 12 21  1  0
 12  9  1  0
 13 21  1  0
 14 19  1  0
 15 16  1  0
 15 14  1  0
 17 16  1  0
 17 26  1  0
 17 18  1  0
 19 13  1  0
 19 18  1  0
 20 13  2  0
 21 22  1  0
 23 24  2  0
 24 43  1  0
 25 24  1  0
 25 28  1  0
 26 23  1  0
 26 27  1  0
 27 25  2  0
 28 29  1  0
 29 30  2  0
 31 34  1  0
 31 30  1  0
 32 31  2  0
 33 32  1  0
 33 28  2  0
 34 35  1  0
 35 36  1  0
 36 37  2  0
 38 37  1  0
 38 42  1  0
 39 38  2  0
 40 35  2  0
 40 39  1  0
 41 40  1  0
 43 44  1  0
 44 47  1  0
 44 46  1  0
 45 43  2  0
 48 49  1  0
 48 23  1  0
 50 48  1  0
 51 53  2  0
 52 51  1  0
 55 54  1  0
 56 67  2  0
 57 55  1  0
 57 62  1  0
 58 66  1  0
 58 68  1  0
 59 65  1  0
 59 61  1  0
 60 66  1  0
 61 60  1  0
 62 61  2  0
 63 64  1  0
 63 57  2  0
 64 59  2  0
 65 58  1  0
 66 56  1  0
 68 70  2  0
 69 68  1  0
 71 69  1  0
 72 81  2  0
 72 77  1  0
 73 69  1  0
 73 77  1  0
 74 73  1  0
 75 76  1  0
 75 74  1  0
 76 72  1  0
 77 78  2  0
 78 79  1  0
 80 79  2  0
 81 80  1  0
 82 56  1  0
 82 87  1  0
 82 83  1  0
 83 86  1  1
 83 84  1  0
 85 83  1  0
 87 90  1  0
 88 92  1  0
 88 87  1  0
 89 88  2  0
 92 91  1  0
 94 92  1  0
 94 95  1  0
 94 93  1  0
M  ISO  4  13 100  21 100  54 101  55 101
M  END
>  <TORSDO>  (100) 
F 19

>  <SCORE>  (100) 
-14.477

>  <name>  (100) 
99

>  <ligand_id>  (100) 
99

>  <original_smiles>  (100) 
[H]c1c([H])c([H])c2c(c1[H])C([H])([H])C([H])([H])C([H])([H])C2([H])N([H])C(=O)C1([H])N(C(=O)C([H])(N([H])C(=O)C([H])(N([H])C([H])([H])[H])C([H])([H])[H])C(C([H])([H])[H])(C([H])([H])[H])C([H])([H])[H])C([H])([H])c2c([H])c(OC([H])([H])c3c([H])c([H])c(C4([H])C([H])([H])C([H])(N([H])C(=O)N5C([H])([H])C([H])([H])C([H])([H])C([H])(n6nc(-c7c([H])c([H])c(Oc8c([H])c([H])c(F)c([H])c8F)c([H])c7[H])c(C(=O)N([H])[H])c6N([H])[H])C5([H])[H])C([H])([H])C([H])([H])C4([H])C(=O)C([H])([H])[H])c([H])c3[H])c([H])c([H])c2C1([H])[H]

>  <smiles>  (100) 
[H]c1c([H])c([H])c2c(c1[H])C([H])([H])C([H])([H])C([H])([H])C2([H])N([H])C(=O)C1([H])N(C(=O)C([H])(N([H])C(=O)C([H])(N([H])C([H])([H])[H])C([H])([H])[H])C(C([H])([H])[H])(C([H])([H])[H])C([H])([H])[H])C([H])([H])c2c([H])c(OC([H])([H])c3c([H])c([H])c(C4([H])C([H])([H])C([H])(N([H])C(=O)N5C([H])([H])C([H])([H])C([H])([H])C([H])(n6nc(-c7c([H])c([H])c(Oc8c([H])c([H])c(F)c([H])c8F)c([H])c7[H])c(C(=O)N([H])[H])c6N([H])[H])C5([H])[H])C([H])([H])C([H])([H])C4([H])C(=O)C([H])([H])[H])c([H])c3[H])c([H])c([H])c2C1([H])[H]

> <Step>
129.0

> <Scaffold>
O=C(NC1CCCc2ccccc21)C1Cc2ccc(OCc3ccc(C4CCCC(NC(=O)N5CCCC(n6ccc(-c7ccc(Oc8ccccc8)cc7)n6)C5)C4)cc3)cc2CN1

> <SMILES>
CNC(C)C(=O)NC(C(=O)N1Cc2cc(OCc3ccc(C4CC(NC(=O)N5CCCC(n6nc(-c7ccc(Oc8ccc(F)cc8F)cc7)c(C(N)=O)c6N)C5)CCC4C(C)=O)cc3)ccc2CC1C(=O)NC1CCCc2ccccc21)C(C)(C)C

> <Tanimoto ROCS sim>
0.16920535266399384

> <Custom alerts>
1.0

> <Linker Num Aromatic Rings>
1.0

> <Linker Effective Length>
1.0

> <ADV>
0.9957376718521118

> <PostDock Tanimoto ROCS sim>
0.9897536039352417

> <raw_Linker Num Aromatic Rings>
1.0

> <raw_Linker Effective Length>
8.0

> <raw_ADV>
-14.473999977111816

> <total_score>
0.9963728189468384

> <ID>
default_job_99

> <PostDock Tanimoto ROCS sim (re-score)>
0.98145354

> <raw_ADV (re-score)>
-14.477

> <Final Intermolecular Energy>
-30.134

> <Final Total Internal Energy>
-3.127

> <Torsional Free Energy>
15.657

> <Unbound System's Energy>
-3.127

$$$$
