
  -OEChem-04072317153D

 65 71  0     1  0  0  0  0  0999 V2000
  -27.2473   10.0976  -22.9128 C   0  0  0  0  0  0  0  0  0  0  0  0
  -26.2770    9.5226  -23.7335 C   0  0  0  0  0  0  0  0  0  0  0  0
  -27.4221   11.4815  -22.9038 C   0  0  0  0  0  0  0  0  0  0  0  0
  -32.7843    9.2157  -23.6779 C   0  0  0  0  0  0  0  0  0  0  0  0
  -31.5917    9.7927  -24.1140 C   0  0  0  0  0  0  0  0  0  0  0  0
  -25.4816   10.3314  -24.5451 C   0  0  0  0  0  0  0  0  0  0  0  0
  -34.0321   10.7260  -25.0917 C   0  0  0  0  0  0  0  0  0  0  0  0
  -28.0328   14.2893  -24.0324 C   0  0  0  0  0  0  0  0  0  0  0  0
  -37.4135    8.6716  -22.7682 C   0  0  0  0  0  0  0  0  0  0  0  0
  -34.0046    9.6823  -24.1667 C   0  0  0  0  0  0  0  0  0  0  0  0
  -26.6266   12.2903  -23.7154 C   0  0  0  0  0  0  0  0  0  0  0  0
  -31.6192   10.8364  -25.0389 C   0  0  0  0  0  0  0  0  0  0  0  0
  -28.1351   15.6684  -23.9828 C   0  0  0  0  0  0  0  0  0  0  0  0
  -25.6564   11.7152  -24.5361 C   0  0  0  0  0  0  0  0  0  0  0  0
  -32.8395   11.3031  -25.5278 C   0  0  0  0  0  0  0  0  0  0  0  0
  -26.8232   13.7185  -23.6912 C   0  0  0  0  0  0  0  0  0  0  0  0
  -35.2378    9.0851  -23.7158 C   0  0  0  0  0  0  0  0  0  0  0  0
  -35.6954    7.7872  -23.8056 C   0  0  0  0  0  0  0  0  0  0  0  0
  -27.0211   16.3854  -23.5949 C   0  0  0  0  0  0  0  0  0  0  0  0
  -29.2072   11.7863  -27.6912 C   0  0  0  0  0  0  0  0  0  0  0  0
  -29.3296   12.6929  -34.0639 C   0  0  0  0  0  0  0  0  0  0  0  0
  -29.8023   12.8053  -30.6819 C   0  0  0  0  0  0  0  0  0  0  0  0
  -31.1491   11.0958  -34.9249 C   0  0  0  0  0  0  0  0  0  0  0  0
  -29.9171   10.8356  -35.7397 C   0  0  0  0  0  0  0  0  0  0  0  0
  -27.6413   10.3720  -28.9725 C   0  0  0  0  0  0  0  0  0  0  0  0
  -29.5449   16.6662  -25.7253 C   0  0  0  0  0  0  0  0  0  0  0  0
  -30.5477   15.9946  -23.5399 C   0  0  0  0  0  0  0  0  0  0  0  0
  -27.3439   12.2098  -30.4744 C   0  0  0  0  0  0  0  0  0  0  0  0
  -30.5768   17.7782  -25.8510 C   0  0  0  0  0  0  0  0  0  0  0  0
  -31.5764   17.1088  -23.6772 C   0  0  0  0  0  0  0  0  0  0  0  0
  -28.9554   11.1373  -29.0389 C   0  0  2  0  0  0  0  0  0  0  0  0
  -26.6038   11.4029  -29.4170 C   0  0  2  0  0  0  0  0  0  0  0  0
  -30.1777   12.1954  -35.1871 C   0  0  0  0  0  0  0  0  0  0  0  0
  -34.9800    6.6492  -24.4201 C   0  0  0  0  0  0  0  0  0  0  0  0
  -29.3693   16.1814  -32.6302 C   0  0  0  0  0  0  0  0  0  0  0  0
  -29.1287   15.6660  -30.1920 C   0  0  0  0  0  0  0  0  0  0  0  0
  -31.3261   15.3324  -31.3246 C   0  0  0  0  0  0  0  0  0  0  0  0
  -30.3257   11.4458  -25.4967 C   0  0  0  0  0  0  0  0  0  0  0  0
  -32.9367   18.3860  -25.3287 C   0  0  0  0  0  0  0  0  0  0  0  0
  -33.5630   18.1860  -26.6947 C   0  0  0  0  0  0  0  0  0  0  0  0
  -33.4868   12.0411  -27.6940 C   0  0  0  0  0  0  0  0  0  0  0  0
  -34.6664   12.9723  -27.8963 C   0  0  0  0  0  0  0  0  0  0  0  0
  -34.7182   16.6484  -28.0453 C   0  0  0  0  0  0  0  0  0  0  0  0
  -35.2697   15.2361  -28.0807 C   0  0  0  0  0  0  0  0  0  0  0  0
  -29.4259   13.7344  -31.8082 C   0  0  2  0  0  0  0  0  0  0  0  0
  -29.7973   15.2147  -31.5080 C   0  0  0  0  0  0  0  0  0  0  0  0
  -36.9427    7.5481  -23.2624 N   0  0  0  0  0  0  0  0  0  0  0  0
  -25.7493   14.4449  -23.3153 N   0  0  0  0  0  0  0  0  0  0  0  0
  -25.8500   15.8003  -23.2662 N   0  0  0  0  0  0  0  0  0  0  0  0
  -29.3434   16.2909  -24.3208 N   0  0  0  0  0  0  0  0  0  0  0  0
  -28.7512   12.1187  -30.0977 N   0  0  0  0  0  0  0  0  0  0  0  0
  -27.1022   17.7969  -23.5360 N   0  0  0  0  0  0  0  0  0  0  0  0
  -29.9690   11.0190  -26.8308 N   0  0  0  0  0  0  0  0  0  0  0  0
  -30.0542   13.1969  -33.0106 N   0  0  0  0  0  0  0  0  0  0  0  0
  -31.8383   17.3784  -25.1342 N   0  3  0  0  0  0  0  0  0  0  0  0
  -28.7416   12.8957  -27.4584 O   0  0  0  0  0  0  0  0  0  0  0  0
  -28.1093   12.6213  -34.1507 O   0  0  0  0  0  0  0  0  0  0  0  0
  -30.9781   12.6969  -30.3301 O   0  0  0  0  0  0  0  0  0  0  0  0
  -24.8636   12.4819  -25.3383 O   0  0  0  0  0  0  0  0  0  0  0  0
  -25.4585   10.7793  -29.9630 O   0  0  0  0  0  0  0  0  0  0  0  0
  -32.8834   12.3210  -26.4322 O   0  0  0  0  0  0  0  0  0  0  0  0
  -34.1180   16.8807  -26.7768 O   0  0  0  0  0  0  0  0  0  0  0  0
  -34.2025   14.3170  -27.8942 O   0  0  0  0  0  0  0  0  0  0  0  0
  -30.5634   13.1726  -36.0824 F   0  0  0  0  0  0  0  0  0  0  0  0
  -36.4092   10.0546  -22.9226 S   0  0  0  0  0  0  0  0  0  0  0  0
  1  2  1  0  0  0  0
  1  3  2  0  0  0  0
  2  6  2  0  0  0  0
  3 11  1  0  0  0  0
  4  5  2  0  0  0  0
  4 10  1  0  0  0  0
  5 12  1  0  0  0  0
  6 14  1  0  0  0  0
  7 10  2  0  0  0  0
  7 15  1  0  0  0  0
  8 13  1  0  0  0  0
  8 16  2  0  0  0  0
  9 47  2  0  0  0  0
  9 65  1  0  0  0  0
 10 17  1  0  0  0  0
 11 14  2  0  0  0  0
 11 16  1  0  0  0  0
 12 15  2  0  0  0  0
 12 38  1  0  0  0  0
 13 19  2  0  0  0  0
 13 50  1  0  0  0  0
 14 59  1  0  0  0  0
 15 61  1  0  0  0  0
 16 48  1  0  0  0  0
 17 18  2  0  0  0  0
 17 65  1  0  0  0  0
 18 34  1  0  0  0  0
 18 47  1  0  0  0  0
 19 49  1  0  0  0  0
 19 52  1  0  0  0  0
 20 31  1  0  0  0  0
 20 53  1  0  0  0  0
 20 56  2  0  0  0  0
 21 33  1  0  0  0  0
 21 54  1  0  0  0  0
 21 57  2  0  0  0  0
 22 45  1  0  0  0  0
 22 51  1  0  0  0  0
 22 58  2  0  0  0  0
 23 24  1  0  0  0  0
 23 33  1  0  0  0  0
 24 33  1  0  0  0  0
 25 31  1  0  0  0  0
 25 32  1  0  0  0  0
 26 29  1  0  0  0  0
 26 50  1  0  0  0  0
 27 30  1  0  0  0  0
 27 50  1  0  0  0  0
 28 32  1  0  0  0  0
 28 51  1  0  0  0  0
 29 55  1  0  0  0  0
 30 55  1  0  0  0  0
 31 51  1  0  0  0  0
 32 60  1  0  0  0  0
 33 64  1  0  0  0  0
 35 46  1  0  0  0  0
 36 46  1  0  0  0  0
 37 46  1  0  0  0  0
 38 53  1  0  0  0  0
 39 40  1  0  0  0  0
 39 55  1  0  0  0  0
 40 62  1  0  0  0  0
 41 42  1  0  0  0  0
 41 61  1  0  0  0  0
 42 63  1  0  0  0  0
 43 44  1  0  0  0  0
 43 62  1  0  0  0  0
 44 63  1  0  0  0  0
 45 46  1  0  0  0  0
 45 54  1  0  0  0  0
 48 49  2  0  0  0  0
M  CHG  1  55   1
M  ISO  4  39 101  41 100  55 100  61 101
M  END
> <Batch ID>
0000

> <Smiles>
Cc1ncsc1-c1ccc(CNC(=O)[C@@H]2C[C@@H](O)CN2C(=O)[C@@H](NC(=O)C2(F)CC2)C(C)(C)C)c([101O][100CH2]COCCOC[101CH2][100N]2CCN(c3cc(-c4ccccc4O)nnc3N)CC2)c1

> <Shape>
0.308

> <Color>
0.163

> <Negative vol penalty>
0.000

$$$$
