
  -OEChem-04072317153D

 79 87  0     1  0  0  0  0  0999 V2000
   31.3669   47.5078  -15.4457 C   0  0  0  0  0  0  0  0  0  0  0  0
   30.0749   47.0594  -15.1903 C   0  0  0  0  0  0  0  0  0  0  0  0
   16.7899   40.6592   -0.2322 C   0  0  0  0  0  0  0  0  0  0  0  0
   18.3179   41.8419   -1.6826 C   0  0  0  0  0  0  0  0  0  0  0  0
   32.3252   47.4827  -14.4332 C   0  0  0  0  0  0  0  0  0  0  0  0
   29.7409   46.5844  -13.9225 C   0  0  0  0  0  0  0  0  0  0  0  0
   28.9927   47.7614   -5.8015 C   0  0  0  0  0  0  0  0  0  0  0  0
   15.7856   41.5759   -0.5427 C   0  0  0  0  0  0  0  0  0  0  0  0
   17.3135   42.7586   -1.9931 C   0  0  0  0  0  0  0  0  0  0  0  0
   28.7846   47.0274   -4.6346 C   0  0  0  0  0  0  0  0  0  0  0  0
   15.8770   45.4616   -0.5575 C   0  0  0  0  0  0  0  0  0  0  0  0
   16.2117   46.8157   -0.5535 C   0  0  0  0  0  0  0  0  0  0  0  0
   26.8587   45.9836   -5.6434 C   0  0  0  0  0  0  0  0  0  0  0  0
   15.5924   46.9757   -2.8833 C   0  0  0  0  0  0  0  0  0  0  0  0
   27.2148   42.8494   -1.7385 C   0  0  0  0  0  0  0  0  0  0  0  0
   25.3307   43.6427   -0.0214 C   0  0  0  0  0  0  0  0  0  0  0  0
   18.0561   40.7922   -0.8022 C   0  0  0  0  0  0  0  0  0  0  0  0
   19.3864   38.6441   -1.1539 C   0  0  0  0  0  0  0  0  0  0  0  0
   32.0001   47.0163  -13.1497 C   0  0  0  0  0  0  0  0  0  0  0  0
   28.1403   47.6042   -6.9044 C   0  0  0  0  0  0  0  0  0  0  0  0
   30.6961   46.5517  -12.8923 C   0  0  0  0  0  0  0  0  0  0  0  0
   27.0560   46.7198   -6.8219 C   0  0  0  0  0  0  0  0  0  0  0  0
   16.0473   42.6256   -1.4232 C   0  0  0  0  0  0  0  0  0  0  0  0
   27.7189   46.1362   -4.5565 C   0  0  0  0  0  0  0  0  0  0  0  0
   15.4000   44.8645   -1.7244 C   0  0  0  0  0  0  0  0  0  0  0  0
   16.0694   47.5727   -1.7164 C   0  0  0  0  0  0  0  0  0  0  0  0
   15.2577   45.6215   -2.8873 C   0  0  0  0  0  0  0  0  0  0  0  0
   19.0942   39.8458   -0.4814 C   0  0  0  0  0  0  0  0  0  0  0  0
   26.3282   43.8507   -2.0687 C   0  0  0  0  0  0  0  0  0  0  0  0
   26.2167   42.6410    0.3086 C   0  0  0  0  0  0  0  0  0  0  0  0
   20.4506   38.1153   -0.4653 C   0  0  0  0  0  0  0  0  0  0  0  0
   18.7525   38.0582   -2.2987 C   0  0  0  0  0  0  0  0  0  0  0  0
   28.4615   46.6727   -9.9522 C   0  0  0  0  0  0  0  0  0  0  0  0
   25.3650   47.5973  -10.1318 C   0  0  0  0  0  0  0  0  0  0  0  0
   22.4051   48.1508   -8.5244 C   0  0  0  0  0  0  0  0  0  0  0  0
   24.6437   40.7033    2.9768 C   0  0  0  0  0  0  0  0  0  0  0  0
   33.0823   46.9644  -12.1005 C   0  0  0  0  0  0  0  0  0  0  0  0
   28.3706   48.4223   -8.1454 C   0  0  0  0  0  0  0  0  0  0  0  0
   26.1011   46.5258   -7.9693 C   0  0  0  0  0  0  0  0  0  0  0  0
   32.5470   46.7956  -10.6809 C   0  0  0  0  0  0  0  0  0  0  0  0
   22.4332   38.0060    3.8782 C   0  0  0  0  0  0  0  0  0  0  0  0
   31.4885   45.6981  -10.6364 C   0  0  0  0  0  0  0  0  0  0  0  0
   21.3331   38.0902    2.8206 C   0  0  0  0  0  0  0  0  0  0  0  0
   22.9637   39.3885    4.2445 C   0  0  0  0  0  0  0  0  0  0  0  0
   22.3477   40.2656    2.0071 C   0  0  0  0  0  0  0  0  0  0  0  0
   30.2886   46.0526  -11.5231 C   0  0  1  0  0  0  0  0  0  0  0  0
   27.7042   47.8425   -9.3897 C   0  0  2  0  0  0  0  0  0  0  0  0
   21.8077   38.8862    1.5918 C   0  0  2  0  0  0  0  0  0  0  0  0
   22.1048   50.6032   -8.0851 C   0  0  0  0  0  0  0  0  0  0  0  0
   22.3540   45.1909  -10.8615 C   0  0  0  0  0  0  0  0  0  0  0  0
   24.8094   44.8931  -11.2495 C   0  0  0  0  0  0  0  0  0  0  0  0
   23.5792   46.7287  -12.4070 C   0  0  0  0  0  0  0  0  0  0  0  0
   19.4946   47.8350   -8.0910 C   0  0  0  0  0  0  0  0  0  0  0  0
   26.4022   44.5225   -3.4082 C   0  0  0  0  0  0  0  0  0  0  0  0
   26.1435   41.9747    1.6378 C   0  0  0  0  0  0  0  0  0  0  0  0
   24.0349   46.9134   -9.9269 C   0  0  2  0  0  0  0  0  0  0  0  0
   21.4422   49.3234   -8.5708 C   0  0  2  0  0  0  0  0  0  0  0  0
   23.6844   45.9372  -11.0852 C   0  0  0  0  0  0  0  0  0  0  0  0
   25.3705   44.2656   -1.2160 N   0  0  0  0  0  0  0  0  0  0  0  0
   27.1747   42.2263   -0.5440 N   0  0  0  0  0  0  0  0  0  0  0  0
   19.9071   40.0675    0.5550 N   0  0  0  0  0  0  0  0  0  0  0  0
   20.7205   38.9979    0.5389 N   0  0  0  0  0  0  0  0  0  0  0  0
   26.3372   47.3786   -9.1451 N   0  0  0  0  0  0  0  0  0  0  0  0
   23.3704   40.1307    3.0519 N   0  0  0  0  0  0  0  0  0  0  0  0
   21.1725   36.9860   -0.6268 N   0  0  0  0  0  0  0  0  0  0  0  0
   17.6729   38.7340   -2.8836 N   0  0  0  0  0  0  0  0  0  0  0  0
   29.4409   47.0217  -10.8623 N   0  0  0  0  0  0  0  0  0  0  0  0
   23.0552   47.9759   -9.7277 N   0  0  0  0  0  0  0  0  0  0  0  0
   20.2552   49.0533   -7.7111 N   0  3  0  0  0  0  0  0  0  0  0  0
   19.1216   36.9595   -2.7785 O   0  0  0  0  0  0  0  0  0  0  0  0
   28.1789   45.5378   -9.5865 O   0  0  0  0  0  0  0  0  0  0  0  0
   25.5329   48.3059  -11.1275 O   0  0  0  0  0  0  0  0  0  0  0  0
   22.5674   47.4615   -7.5199 O   0  0  0  0  0  0  0  0  0  0  0  0
   25.4887   40.6331    3.8675 O   0  0  0  0  0  0  0  0  0  0  0  0
   15.0674   43.5203   -1.7265 O   0  0  0  0  0  0  0  0  0  0  0  0
   27.5136   45.4176   -3.4194 O   0  0  0  0  0  0  0  0  0  0  0  0
   24.8595   41.3596    1.7940 O   0  0  0  0  0  0  0  0  0  0  0  0
   16.3894   48.8734   -1.7120 F   0  0  0  0  0  0  0  0  0  0  0  0
   14.7989   45.0537   -4.0111 F   0  0  0  0  0  0  0  0  0  0  0  0
  1  2  1  0  0  0  0
  1  5  2  0  0  0  0
  2  6  2  0  0  0  0
  3  8  2  0  0  0  0
  3 17  1  0  0  0  0
  4  9  1  0  0  0  0
  4 17  2  0  0  0  0
  5 19  1  0  0  0  0
  6 21  1  0  0  0  0
  7 10  2  0  0  0  0
  7 20  1  0  0  0  0
  8 23  1  0  0  0  0
  9 23  2  0  0  0  0
 10 24  1  0  0  0  0
 11 12  2  0  0  0  0
 11 25  1  0  0  0  0
 12 26  1  0  0  0  0
 13 22  1  0  0  0  0
 13 24  2  0  0  0  0
 14 26  2  0  0  0  0
 14 27  1  0  0  0  0
 15 29  1  0  0  0  0
 15 60  2  0  0  0  0
 16 30  2  0  0  0  0
 16 59  1  0  0  0  0
 17 28  1  0  0  0  0
 18 28  1  0  0  0  0
 18 31  2  0  0  0  0
 18 32  1  0  0  0  0
 19 21  2  0  0  0  0
 19 37  1  0  0  0  0
 20 22  2  0  0  0  0
 20 38  1  0  0  0  0
 21 46  1  0  0  0  0
 22 39  1  0  0  0  0
 23 75  1  0  0  0  0
 24 76  1  0  0  0  0
 25 27  2  0  0  0  0
 25 75  1  0  0  0  0
 26 78  1  0  0  0  0
 27 79  1  0  0  0  0
 28 61  2  0  0  0  0
 29 54  1  0  0  0  0
 29 59  2  0  0  0  0
 30 55  1  0  0  0  0
 30 60  1  0  0  0  0
 31 62  1  0  0  0  0
 31 65  1  0  0  0  0
 32 66  1  0  0  0  0
 32 70  2  0  0  0  0
 33 47  1  0  0  0  0
 33 67  1  0  0  0  0
 33 71  2  0  0  0  0
 34 56  1  0  0  0  0
 34 63  1  0  0  0  0
 34 72  2  0  0  0  0
 35 57  1  0  0  0  0
 35 68  1  0  0  0  0
 35 73  2  0  0  0  0
 36 64  1  0  0  0  0
 36 74  2  0  0  0  0
 36 77  1  0  0  0  0
 37 40  1  0  0  0  0
 38 47  1  0  0  0  0
 39 63  1  0  0  0  0
 40 42  1  0  0  0  0
 41 43  1  0  0  0  0
 41 44  1  0  0  0  0
 42 46  1  0  0  0  0
 43 48  1  0  0  0  0
 44 64  1  0  0  0  0
 45 48  1  0  0  0  0
 45 64  1  0  0  0  0
 46 67  1  0  0  0  0
 47 63  1  0  0  0  0
 48 62  1  0  0  0  0
 49 57  1  0  0  0  0
 50 58  1  0  0  0  0
 51 58  1  0  0  0  0
 52 58  1  0  0  0  0
 53 69  1  0  0  0  0
 54 76  1  0  0  0  0
 55 77  1  0  0  0  0
 56 58  1  0  0  0  0
 56 68  1  0  0  0  0
 57 69  1  0  0  0  0
 61 62  1  0  0  0  0
M  CHG  1  69   1
M  ISO  4  24 101  36 100  76 100  77 101
M  END
> <Batch ID>
0000

> <Smiles>
CN[C@@H](C)C(=O)N[C@H](C(=O)N1Cc2c[101c]([100O]Cc3cnc(C[101O][100C](=O)N4CCC[C@@H](n5nc(-c6ccc(Oc7ccc(F)cc7F)cc6)c(C(N)=O)c5N)C4)cn3)ccc2C[C@H]1C(=O)N[C@@H]1CCCc2ccccc21)C(C)(C)C

> <Shape>
0.265

> <Color>
0.188

> <Negative vol penalty>
0.000

$$$$
