
  -OEChem-04072317163D

 77 84  0     1  0  0  0  0  0999 V2000
   -6.7478    9.6914  -17.1049 C   0  0  0  0  0  0  0  0  0  0  0  0
   -8.8271   10.9063  -17.2989 C   0  0  0  0  0  0  0  0  0  0  0  0
   -7.4578    8.5126  -16.8771 C   0  0  0  0  0  0  0  0  0  0  0  0
   -9.5371    9.7275  -17.0712 C   0  0  0  0  0  0  0  0  0  0  0  0
  -16.1904   11.0400  -19.1110 C   0  0  0  0  0  0  0  0  0  0  0  0
  -14.7875   10.1843  -16.8740 C   0  0  0  0  0  0  0  0  0  0  0  0
  -15.7480    5.6924  -16.2645 C   0  0  0  0  0  0  0  0  0  0  0  0
  -13.6365    4.8551  -16.9695 C   0  0  0  0  0  0  0  0  0  0  0  0
  -12.3470    7.3294  -21.3202 C   0  0  0  0  0  0  0  0  0  0  0  0
   -5.7892   14.1336  -18.4845 C   0  0  0  0  0  0  0  0  0  0  0  0
   -7.4324   10.8883  -17.3158 C   0  0  0  0  0  0  0  0  0  0  0  0
  -15.4509    9.8415  -19.2095 C   0  0  0  0  0  0  0  0  0  0  0  0
  -14.3030    8.3645  -21.0109 C   0  0  0  0  0  0  0  0  0  0  0  0
  -15.5501   11.3456  -16.8046 C   0  0  0  0  0  0  0  0  0  0  0  0
  -13.0739    8.0519  -20.3946 C   0  0  0  0  0  0  0  0  0  0  0  0
   -8.8524    8.5306  -16.8602 C   0  0  0  0  0  0  0  0  0  0  0  0
  -16.2450   11.7769  -17.9251 C   0  0  0  0  0  0  0  0  0  0  0  0
  -14.7151    9.4260  -18.0639 C   0  0  0  0  0  0  0  0  0  0  0  0
  -14.8429    4.6386  -16.3234 C   0  0  0  0  0  0  0  0  0  0  0  0
  -15.4237    6.9134  -16.8453 C   0  0  0  0  0  0  0  0  0  0  0  0
   -6.6982   12.1074  -17.5513 C   0  0  0  0  0  0  0  0  0  0  0  0
  -14.3355    7.7782  -22.2543 C   0  0  0  0  0  0  0  0  0  0  0  0
   -5.7775   12.7700  -16.7668 C   0  0  0  0  0  0  0  0  0  0  0  0
  -14.1912    7.0282  -17.4679 C   0  0  0  0  0  0  0  0  0  0  0  0
  -16.5406    9.0852  -21.3037 C   0  0  0  0  0  0  0  0  0  0  0  0
  -15.4361    9.0911  -20.5153 C   0  0  0  0  0  0  0  0  0  0  0  0
  -15.4820    7.8018  -23.1317 C   0  0  0  0  0  0  0  0  0  0  0  0
  -15.5860   12.1112  -15.5322 C   0  0  0  0  0  0  0  0  0  0  0  0
   -9.8399    6.2222  -14.3669 C   0  0  0  0  0  0  0  0  0  0  0  0
  -11.7109    4.1993  -12.7104 C   0  0  0  0  0  0  0  0  0  0  0  0
  -13.1973    3.1271   -9.8210 C   0  0  0  0  0  0  0  0  0  0  0  0
  -12.7359    8.4112  -18.9923 C   0  0  0  0  0  0  0  0  0  0  0  0
   -9.6246    7.1625  -12.0946 C   0  0  0  0  0  0  0  0  0  0  0  0
   -9.7687    4.9296  -11.2490 C   0  0  0  0  0  0  0  0  0  0  0  0
  -10.5314    6.3692  -13.0248 C   0  0  2  0  0  0  0  0  0  0  0  0
   -8.7894    6.0845  -11.4037 C   0  0  2  0  0  0  0  0  0  0  0  0
   -5.3081   12.3521  -15.4291 C   0  0  0  0  0  0  0  0  0  0  0  0
  -11.6346    0.3748  -11.8310 C   0  0  0  0  0  0  0  0  0  0  0  0
  -10.2127    1.7069  -13.4032 C   0  0  0  0  0  0  0  0  0  0  0  0
  -12.6718    1.5386  -13.7865 C   0  0  0  0  0  0  0  0  0  0  0  0
  -17.8470    8.5641  -23.3020 C   0  0  0  0  0  0  0  0  0  0  0  0
  -19.6064   14.1364  -17.8279 C   0  0  0  0  0  0  0  0  0  0  0  0
   -9.6165    7.2618  -16.6146 C   0  0  0  0  0  0  0  0  0  0  0  0
  -17.0563   13.0316  -17.8937 C   0  0  0  0  0  0  0  0  0  0  0  0
  -14.6384    3.1515   -9.3514 C   0  0  0  0  0  0  0  0  0  0  0  0
  -14.8263    3.9738   -8.0775 C   0  0  0  0  0  0  0  0  0  0  0  0
  -14.4689    5.4496   -8.2760 C   0  0  0  0  0  0  0  0  0  0  0  0
  -15.3227    6.0839   -9.3759 C   0  0  0  0  0  0  0  0  0  0  0  0
  -14.9900    7.5673   -9.5527 C   0  0  0  0  0  0  0  0  0  0  0  0
  -15.8219    8.1916  -10.6750 C   0  0  0  0  0  0  0  0  0  0  0  0
  -15.5198    9.6754  -10.9043 C   0  0  0  0  0  0  0  0  0  0  0  0
  -16.3337   10.2938  -12.0436 C   0  0  0  0  0  0  0  0  0  0  0  0
  -15.9632   11.7663  -12.2509 C   0  0  0  0  0  0  0  0  0  0  0  0
  -16.7651   12.4205  -13.3712 C   0  0  0  0  0  0  0  0  0  0  0  0
  -11.8035    2.9514  -11.8691 C   0  0  2  0  0  0  0  0  0  0  0  0
  -11.5837    1.6497  -12.6963 C   0  0  0  0  0  0  0  0  0  0  0  0
  -13.2860    6.0270  -17.5453 N   0  0  0  0  0  0  0  0  0  0  0  0
   -5.2548   13.9318  -17.3004 N   0  0  0  0  0  0  0  0  0  0  0  0
  -13.1188    7.1780  -22.4501 N   0  0  0  0  0  0  0  0  0  0  0  0
  -13.8734    8.2745  -18.0564 N   0  0  0  0  0  0  0  0  0  0  0  0
  -16.5928    8.4719  -22.5628 N   0  0  0  0  0  0  0  0  0  0  0  0
  -10.7125    5.0890  -12.3510 N   0  0  0  0  0  0  0  0  0  0  0  0
  -16.5858   11.7574  -14.6330 N   0  0  0  0  0  0  0  0  0  0  0  0
  -10.1632    7.2099  -15.2776 N   0  0  0  0  0  0  0  0  0  0  0  0
  -13.0798    3.0032  -11.1949 N   0  0  0  0  0  0  0  0  0  0  0  0
  -15.4798    7.2792  -24.2436 O   0  0  0  0  0  0  0  0  0  0  0  0
  -14.7675   13.0083  -15.3483 O   0  0  0  0  0  0  0  0  0  0  0  0
   -9.0736    5.2840  -14.5522 O   0  0  0  0  0  0  0  0  0  0  0  0
  -12.4870    4.3756  -13.6510 O   0  0  0  0  0  0  0  0  0  0  0  0
  -12.2606    3.2059   -9.0289 O   0  0  0  0  0  0  0  0  0  0  0  0
  -19.0807   11.9298  -19.1269 O   0  0  0  0  0  0  0  0  0  0  0  0
  -19.0282   11.9007  -16.6033 O   0  0  0  0  0  0  0  0  0  0  0  0
   -8.3193    6.5244  -10.1450 O   0  0  0  0  0  0  0  0  0  0  0  0
  -15.1289    3.4532  -15.7732 F   0  0  0  0  0  0  0  0  0  0  0  0
  -16.2857    7.9369  -16.7955 F   0  0  0  0  0  0  0  0  0  0  0  0
   -6.9280   12.9660  -19.0180 S   0  0  0  0  0  0  0  0  0  0  0  0
  -18.7582   12.5733  -17.8637 S   0  0  0  0  0  0  0  0  0  0  0  0
  1  3  2  0  0  0  0
  1 11  1  0  0  0  0
  2  4  1  0  0  0  0
  2 11  2  0  0  0  0
  3 16  1  0  0  0  0
  4 16  2  0  0  0  0
  5 12  2  0  0  0  0
  5 17  1  0  0  0  0
  6 14  1  0  0  0  0
  6 18  2  0  0  0  0
  7 19  2  0  0  0  0
  7 20  1  0  0  0  0
  8 19  1  0  0  0  0
  8 57  2  0  0  0  0
  9 15  2  0  0  0  0
  9 59  1  0  0  0  0
 10 58  2  0  0  0  0
 10 76  1  0  0  0  0
 11 21  1  0  0  0  0
 12 18  1  0  0  0  0
 12 26  1  0  0  0  0
 13 15  1  0  0  0  0
 13 22  2  0  0  0  0
 13 26  1  0  0  0  0
 14 17  2  0  0  0  0
 14 28  1  0  0  0  0
 15 32  1  0  0  0  0
 16 43  1  0  0  0  0
 17 44  1  0  0  0  0
 18 60  1  0  0  0  0
 19 74  1  0  0  0  0
 20 24  2  0  0  0  0
 20 75  1  0  0  0  0
 21 23  2  0  0  0  0
 21 76  1  0  0  0  0
 22 27  1  0  0  0  0
 22 59  1  0  0  0  0
 23 37  1  0  0  0  0
 23 58  1  0  0  0  0
 24 57  1  0  0  0  0
 24 60  1  0  0  0  0
 25 26  2  0  0  0  0
 25 61  1  0  0  0  0
 27 61  1  0  0  0  0
 27 66  2  0  0  0  0
 28 63  1  0  0  0  0
 28 67  2  0  0  0  0
 29 35  1  0  0  0  0
 29 64  1  0  0  0  0
 29 68  2  0  0  0  0
 30 55  1  0  0  0  0
 30 62  1  0  0  0  0
 30 69  2  0  0  0  0
 31 45  1  0  0  0  0
 31 65  1  0  0  0  0
 31 70  2  0  0  0  0
 32 60  1  0  0  0  0
 33 35  1  0  0  0  0
 33 36  1  0  0  0  0
 34 36  1  0  0  0  0
 34 62  1  0  0  0  0
 35 62  1  0  0  0  0
 36 73  1  0  0  0  0
 38 56  1  0  0  0  0
 39 56  1  0  0  0  0
 40 56  1  0  0  0  0
 41 61  1  0  0  0  0
 42 77  1  0  0  0  0
 43 64  1  0  0  0  0
 44 77  1  0  0  0  0
 45 46  1  0  0  0  0
 46 47  1  0  0  0  0
 47 48  1  0  0  0  0
 48 49  1  0  0  0  0
 49 50  1  0  0  0  0
 50 51  1  0  0  0  0
 51 52  1  0  0  0  0
 52 53  1  0  0  0  0
 53 54  1  0  0  0  0
 54 63  1  0  0  0  0
 55 56  1  0  0  0  0
 55 65  1  0  0  0  0
 71 77  2  0  0  0  0
 72 77  2  0  0  0  0
M  ISO  4  31 101  45 100  54 101  63 100
M  END
> <Batch ID>
0000

> <Smiles>
Cc1ncsc1-c1ccc(CNC(=O)[C@@H]2C[C@@H](O)CN2C(=O)[C@@H](N[101C](=O)[100CH2]CCCCCCCC[101CH2][100NH]C(=O)c2cc3c(cc2CS(C)(=O)=O)-c2cn(C)c(=O)c4[nH]cc(c24)CN3c2ncc(F)cc2F)C(C)(C)C)cc1

> <Shape>
0.279

> <Color>
0.241

> <Negative vol penalty>
0.000

$$$$
