ligand
                    3D
 Structure written by MMmdl.
170177  0  0  1  0            999 V2000
   -5.9980  -11.4280   14.8430 C   0  0  0  0  0  0
   -6.3720  -12.4560   15.7040 C   0  0  0  0  0  0
   -4.2210  -13.0940   15.4180 C   0  0  0  0  0  0
   -6.8450  -10.2530   14.3320 C   0  0  0  0  0  0
   -6.7220   -9.8000   13.0400 C   0  0  0  0  0  0
   -8.5080   -8.5780   14.8240 C   0  0  0  0  0  0
   -7.5170   -8.7190   12.6300 C   0  0  0  0  0  0
   -8.4050   -8.1170   13.5170 C   0  0  0  0  0  0
   -9.2790   -6.9200   13.0360 C   0  0  0  0  0  0
   -7.8450   -5.5850   11.5230 C   0  0  0  0  0  0
   -7.2920   -5.2910   10.1050 C   0  0  1  0  0  0
   -7.7330   -9.6330   15.2320 C   0  0  0  0  0  0
   -4.3640  -11.7070   14.4840 S   0  0  0  0  0  0
   -5.3910  -13.3510   15.9870 N   0  0  0  0  0  0
   -8.7790   -6.6330   11.7180 N   0  0  0  0  0  0
   -7.4700   -4.9320   12.4590 O   0  0  0  0  0  0
   -7.1050   -3.7080    9.8450 N   0  0  0  0  0  0
   -5.8940   -3.4740    9.4180 C   0  0  0  0  0  0
   -5.3630   -4.8780    9.0600 C   0  0  1  0  0  0
   -6.1200   -5.8020   10.0140 C   0  0  0  0  0  0
   -8.2000   -2.7360   10.0650 C   0  0  0  0  0  0
   -5.6980   -5.1680    7.7670 O   0  0  0  0  0  0
   -9.2290   -3.1480   10.4520 O   0  0  0  0  0  0
   -7.9740   -1.2440    9.8020 C   0  0  2  0  0  0
   -7.7580   -0.5160   11.1850 C   0  0  0  0  0  0
   -9.1560   -0.7160    9.2150 N   0  0  0  0  0  0
   -9.0530   -0.5570   12.0000 C   0  0  0  0  0  0
   -6.6400   -1.2300   11.9620 C   0  0  0  0  0  0
   -7.3650    0.9290   10.9380 C   0  0  0  0  0  0
   -9.1920   -0.3780    7.7490 C   0  0  0  0  0  0
  -10.4890    0.1920    7.1480 C   0  0  0  0  0  0
  -11.2390    1.1940    8.1490 C   0  0  0  0  0  0
   -8.2220   -0.5500    7.0580 O   0  0  0  0  0  0
  -10.2350    2.0520    8.9960 C   0  0  0  0  0  0
  -10.6600    3.5640    9.0790 C   0  0  0  0  0  0
   -9.5840    4.5030    8.4990 C   0  0  0  0  0  0
   -8.9100    5.4160    9.6140 C   0  0  0  0  0  0
   -8.3520    6.7120    9.0440 C   0  0  0  0  0  0
   -7.0420    7.1450    9.7360 C   0  0  0  0  0  0
   -7.2960    7.9130   11.0410 C   0  0  0  0  0  0
   -6.2960    7.4990   12.1850 C   0  0  0  0  0  0
   -6.7920    7.2950   13.5610 N   0  0  0  0  0  0
   -5.1580    7.3530   11.9450 O   0  0  0  0  0  0
   -5.8450    6.9030   14.6450 C   0  0  0  0  0  0
   -6.3220    7.4460   16.0180 C   0  0  0  0  0  0
   -7.5480    7.1130   16.2540 N   0  0  0  0  0  0
   -7.9320    7.6000   17.4710 C   0  0  0  0  0  0
   -9.2810    7.0610   17.9380 C   0  0  0  0  0  0
   -9.2970    5.6950   17.8800 N   0  0  0  0  0  0
   -9.0540    5.2460   16.6260 C   0  0  0  0  0  0
   -7.6970    5.7550   16.1340 C   0  0  0  0  0  0
  -10.3420    5.1820   18.4210 C   0  0  0  0  0  0
  -11.7010    5.6410   17.7310 C   0  0  0  0  0  0
  -12.4190    6.7380   18.2170 C   0  0  0  0  0  0
  -13.6280    7.1360   17.5950 C   0  0  0  0  0  0
  -14.1220    6.4240   16.4710 C   0  0  0  0  0  0
  -13.4020    5.3180   15.9780 C   0  0  0  0  0  0
  -12.2020    4.9210   16.5950 C   0  0  0  0  0  0
  -14.3700    8.3520   18.1750 C   0  0  0  0  0  0
  -14.1480    8.6360   19.5110 C   0  0  0  0  0  0
  -14.7680    9.7300   20.0810 C   0  0  0  0  0  0
  -15.6560   10.5240   19.3220 C   0  0  0  0  0  0
  -15.8590   10.2560   17.9730 C   0  0  0  0  0  0
  -15.2150    9.1510   17.3920 C   0  0  0  0  0  0
  -16.2700   11.6870   19.9850 N   0  0  0  0  0  0
  -17.3840   12.3470   19.2950 C   0  0  0  0  0  0
  -17.9990   13.4730   20.1040 C   0  0  0  0  0  0
  -17.0420   14.4090   20.4920 N   0  0  0  0  0  0
  -16.0370   13.8540   21.2070 C   0  0  0  0  0  0
  -15.3460   12.7260   20.4240 C   0  0  0  0  0  0
  -17.6050   15.3100   21.2320 C   0  0  0  0  0  0
  -14.4850    9.9160   21.4890 N   0  0  0  0  0  0
  -13.1740   10.2910   21.9940 C   0  0  0  0  0  0
  -13.1060   10.3230   23.5580 C   0  0  0  0  0  0
  -13.7380    9.2210   24.1920 C   0  0  0  0  0  0
  -13.7530    9.0950   25.5220 N   0  0  0  0  0  0
  -13.1730   10.0080   26.2880 C   0  0  0  0  0  0
  -12.5310   11.1340   25.7370 C   0  0  0  0  0  0
  -12.4840   11.2960   24.3100 C   0  0  0  0  0  0
  -11.7930   12.5000   23.6570 C   0  0  0  0  0  0
  -12.2300   10.4540   21.3050 O   0  0  0  0  0  0
  -13.2190    9.8330   27.6660 O   0  0  0  0  0  0
   -7.7780  -12.6040   16.2740 C   0  0  0  0  0  0
  -11.4210   13.3930   24.6230 F   0  0  0  0  0  0
  -10.6840   12.0730   22.9780 F   0  0  0  0  0  0
  -12.6490   13.0990   22.7930 F   0  0  0  0  0  0
   -3.3780  -13.7443   15.5991 H   0  0  0  0  0  0
   -6.0249  -10.2747   12.3654 H   0  0  0  0  0  0
   -9.1950   -8.1058   15.5106 H   0  0  0  0  0  0
   -7.4430   -8.3472   11.6187 H   0  0  0  0  0  0
   -9.1021   -6.0613   13.6836 H   0  0  0  0  0  0
  -10.3191   -7.2384   12.9656 H   0  0  0  0  0  0
   -7.9490   -5.7209    9.3489 H   0  0  0  0  0  0
   -7.8061   -9.9881   16.2493 H   0  0  0  0  0  0
   -9.0953   -7.1806   10.9305 H   0  0  0  0  0  0
   -5.2987   -3.0608   10.2323 H   0  0  0  0  0  0
   -5.9420   -2.8661    8.5145 H   0  0  0  0  0  0
   -4.2861   -4.9454    9.2147 H   0  0  0  0  0  0
   -6.1925   -6.7960    9.5726 H   0  0  0  0  0  0
   -5.6403   -5.7823   10.9926 H   0  0  0  0  0  0
   -5.4548   -4.4323    7.2002 H   0  0  0  0  0  0
   -7.1160   -1.0924    9.1471 H   0  0  0  0  0  0
   -9.9747   -0.5680    9.7876 H   0  0  0  0  0  0
   -8.8986   -0.0530   12.9541 H   0  0  0  0  0  0
   -9.8465   -0.0534   11.4479 H   0  0  0  0  0  0
   -9.3374   -1.5939   12.1793 H   0  0  0  0  0  0
   -6.4862   -0.7312   12.9189 H   0  0  0  0  0  0
   -6.9232   -2.2682   12.1354 H   0  0  0  0  0  0
   -5.7168   -1.1975   11.3834 H   0  0  0  0  0  0
   -7.2153    1.4336   11.8925 H   0  0  0  0  0  0
   -6.4404    0.9612   10.3617 H   0  0  0  0  0  0
   -8.1566    1.4315   10.3822 H   0  0  0  0  0  0
  -11.1583   -0.6278    6.8870 H   0  0  0  0  0  0
  -10.2593    0.7129    6.2185 H   0  0  0  0  0  0
  -11.8824    0.6232    8.8186 H   0  0  0  0  0  0
  -11.8900    1.8563    7.5784 H   0  0  0  0  0  0
   -9.2386    1.9791    8.5601 H   0  0  0  0  0  0
  -10.1652    1.6394   10.0025 H   0  0  0  0  0  0
  -10.8513    3.8302   10.1185 H   0  0  0  0  0  0
  -11.5958    3.7077    8.5389 H   0  0  0  0  0  0
  -10.0309    5.1368    7.7331 H   0  0  0  0  0  0
   -8.8155    3.9105    8.0025 H   0  0  0  0  0  0
   -8.1092    4.8603   10.1020 H   0  0  0  0  0  0
   -9.6440    5.6462   10.3862 H   0  0  0  0  0  0
   -9.0950    7.5028    9.1474 H   0  0  0  0  0  0
   -8.1745    6.5910    7.9754 H   0  0  0  0  0  0
   -6.4617    7.7684    9.0557 H   0  0  0  0  0  0
   -6.4349    6.2644    9.9460 H   0  0  0  0  0  0
   -8.3192    7.7359   11.3724 H   0  0  0  0  0  0
   -7.2098    8.9834   10.8542 H   0  0  0  0  0  0
   -7.7725    7.4209   13.7682 H   0  0  0  0  0  0
   -4.8543    7.2993   14.4223 H   0  0  0  0  0  0
   -5.7739    5.8162   14.6894 H   0  0  0  0  0  0
   -6.2324    8.5323   16.0295 H   0  0  0  0  0  0
   -5.6808    7.0521   16.8066 H   0  0  0  0  0  0
   -7.9721    8.6884   17.4290 H   0  0  0  0  0  0
   -7.1703    7.3611   18.2131 H   0  0  0  0  0  0
  -10.0713    7.4606   17.3025 H   0  0  0  0  0  0
   -9.4654    7.3830   18.9629 H   0  0  0  0  0  0
   -9.8384    5.5980   15.9560 H   0  0  0  0  0  0
   -9.0553    4.1560   16.6241 H   0  0  0  0  0  0
   -6.9012    5.2536   16.6848 H   0  0  0  0  0  0
   -7.5585    5.4665   15.0920 H   0  0  0  0  0  0
  -10.3671    5.4433   19.4789 H   0  0  0  0  0  0
  -10.2692    4.0949   18.3892 H   0  0  0  0  0  0
  -12.0526    7.2875   19.0715 H   0  0  0  0  0  0
  -15.0439    6.7312   15.9997 H   0  0  0  0  0  0
  -13.7710    4.7711   15.1229 H   0  0  0  0  0  0
  -11.6572    4.0712   16.2111 H   0  0  0  0  0  0
  -13.4956    8.0047   20.0961 H   0  0  0  0  0  0
  -16.5044   10.8935   17.3870 H   0  0  0  0  0  0
  -15.3674    8.9153   16.3491 H   0  0  0  0  0  0
  -18.1514   11.6098   19.0589 H   0  0  0  0  0  0
  -17.0373   12.7364   18.3378 H   0  0  0  0  0  0
  -18.4832   13.0610   20.9894 H   0  0  0  0  0  0
  -18.7696   13.9663   19.5116 H   0  0  0  0  0  0
  -16.4330   13.4569   22.1417 H   0  0  0  0  0  0
  -15.3051   14.6211   21.4599 H   0  0  0  0  0  0
  -14.8360   13.1466   19.5574 H   0  0  0  0  0  0
  -14.5673   12.2801   21.0428 H   0  0  0  0  0  0
  -16.8614   16.0455   21.5389 H   0  0  0  0  0  0
  -18.3932   15.8057   20.6654 H   0  0  0  0  0  0
  -18.0351   14.8384   22.1156 H   0  0  0  0  0  0
  -15.2167    9.7848   22.1728 H   0  0  0  0  0  0
  -14.2213    8.4602   23.5971 H   0  0  0  0  0  0
  -14.2080    8.3008   25.9489 H   0  0  0  0  0  0
  -12.0781   11.8688   26.3861 H   0  0  0  0  0  0
   -7.8190  -13.4825   16.9179 H   0  0  0  0  0  0
   -8.0306  -11.7167   16.8545 H   0  0  0  0  0  0
   -8.4913  -12.7188   15.4578 H   0  0  0  0  0  0
  1  2  2  0  0  0
  1  4  1  0  0  0
  1 13  1  0  0  0
  2 14  1  0  0  0
  2 83  1  0  0  0
  3 13  1  0  0  0
  3 14  2  0  0  0
  3 87  1  0  0  0
  4  5  1  0  0  0
  4 12  2  0  0  0
  5  7  2  0  0  0
  5 88  1  0  0  0
  6  8  2  0  0  0
  6 12  1  0  0  0
  6 89  1  0  0  0
  7  8  1  0  0  0
  7 90  1  0  0  0
  8  9  1  0  0  0
  9 15  1  0  0  0
  9 91  1  0  0  0
  9 92  1  0  0  0
 10 11  1  0  0  0
 10 15  1  0  0  0
 10 16  2  0  0  0
 11 17  1  0  0  0
 11 20  1  0  0  0
 11 93  1  0  0  0
 12 94  1  0  0  0
 15 95  1  0  0  0
 17 18  1  0  0  0
 17 21  1  0  0  0
 18 19  1  0  0  0
 18 96  1  0  0  0
 18 97  1  0  0  0
 19 20  1  0  0  0
 19 22  1  0  0  0
 19 98  1  0  0  0
 20 99  1  0  0  0
 20100  1  0  0  0
 21 23  2  0  0  0
 21 24  1  0  0  0
 22101  1  0  0  0
 24 25  1  0  0  0
 24 26  1  0  0  0
 24102  1  0  0  0
 25 27  1  0  0  0
 25 28  1  0  0  0
 25 29  1  0  0  0
 26 30  1  0  0  0
 26103  1  0  0  0
 27104  1  0  0  0
 27105  1  0  0  0
 27106  1  0  0  0
 28107  1  0  0  0
 28108  1  0  0  0
 28109  1  0  0  0
 29110  1  0  0  0
 29111  1  0  0  0
 29112  1  0  0  0
 30 31  1  0  0  0
 30 33  2  0  0  0
 31 32  1  0  0  0
 31113  1  0  0  0
 31114  1  0  0  0
 32 34  1  0  0  0
 32115  1  0  0  0
 32116  1  0  0  0
 34 35  1  0  0  0
 34117  1  0  0  0
 34118  1  0  0  0
 35 36  1  0  0  0
 35119  1  0  0  0
 35120  1  0  0  0
 36 37  1  0  0  0
 36121  1  0  0  0
 36122  1  0  0  0
 37 38  1  0  0  0
 37123  1  0  0  0
 37124  1  0  0  0
 38 39  1  0  0  0
 38125  1  0  0  0
 38126  1  0  0  0
 39 40  1  0  0  0
 39127  1  0  0  0
 39128  1  0  0  0
 40 41  1  0  0  0
 40129  1  0  0  0
 40130  1  0  0  0
 41 42  1  0  0  0
 41 43  2  0  0  0
 42 44  1  0  0  0
 42131  1  0  0  0
 44 45  1  0  0  0
 44132  1  0  0  0
 44133  1  0  0  0
 45 46  1  0  0  0
 45134  1  0  0  0
 45135  1  0  0  0
 46 47  1  0  0  0
 46 51  1  0  0  0
 47 48  1  0  0  0
 47136  1  0  0  0
 47137  1  0  0  0
 48 49  1  0  0  0
 48138  1  0  0  0
 48139  1  0  0  0
 49 50  1  0  0  0
 49 52  1  0  0  0
 50 51  1  0  0  0
 50140  1  0  0  0
 50141  1  0  0  0
 51142  1  0  0  0
 51143  1  0  0  0
 52 53  1  0  0  0
 52144  1  0  0  0
 52145  1  0  0  0
 53 54  1  0  0  0
 53 58  2  0  0  0
 54 55  2  0  0  0
 54146  1  0  0  0
 55 56  1  0  0  0
 55 59  1  0  0  0
 56 57  2  0  0  0
 56147  1  0  0  0
 57 58  1  0  0  0
 57148  1  0  0  0
 58149  1  0  0  0
 59 60  1  0  0  0
 59 64  2  0  0  0
 60 61  2  0  0  0
 60150  1  0  0  0
 61 62  1  0  0  0
 61 72  1  0  0  0
 62 63  2  0  0  0
 62 65  1  0  0  0
 63 64  1  0  0  0
 63151  1  0  0  0
 64152  1  0  0  0
 65 66  1  0  0  0
 65 70  1  0  0  0
 66 67  1  0  0  0
 66153  1  0  0  0
 66154  1  0  0  0
 67 68  1  0  0  0
 67155  1  0  0  0
 67156  1  0  0  0
 68 69  1  0  0  0
 68 71  1  0  0  0
 69 70  1  0  0  0
 69157  1  0  0  0
 69158  1  0  0  0
 70159  1  0  0  0
 70160  1  0  0  0
 71161  1  0  0  0
 71162  1  0  0  0
 71163  1  0  0  0
 72 73  1  0  0  0
 72164  1  0  0  0
 73 74  1  0  0  0
 73 81  2  0  0  0
 74 75  2  0  0  0
 74 79  1  0  0  0
 75 76  1  0  0  0
 75165  1  0  0  0
 76 77  1  0  0  0
 76166  1  0  0  0
 77 78  1  0  0  0
 77 82  2  0  0  0
 78 79  2  0  0  0
 78167  1  0  0  0
 79 80  1  0  0  0
 80 84  1  0  0  0
 80 85  1  0  0  0
 80 86  1  0  0  0
 83168  1  0  0  0
 83169  1  0  0  0
 83170  1  0  0  0
M  END
> <s_m_entry_id>
13

> <s_m_entry_name>
7jto.1_mol3

> <s_m_subgroup_title>
7JTO - hbond-opt_split_by_molecule

> <s_m_subgroupid>
7JTO - hbond-opt_split_by_molecule

> <b_m_subgroup_collapsed>
0

$$$$
