e3_ligand
                    3D
 Structure written by MMmdl.
 31 33  0  0  1  0            999 V2000
   -5.9980  -11.4280   14.8430 C   0  0  0  0  0  0
   -6.3720  -12.4560   15.7040 C   0  0  0  0  0  0
   -4.2210  -13.0940   15.4180 C   0  0  0  0  0  0
   -6.8450  -10.2530   14.3320 C   0  0  0  0  0  0
   -6.7220   -9.8000   13.0400 C   0  0  0  0  0  0
   -8.5080   -8.5780   14.8240 C   0  0  0  0  0  0
   -7.5170   -8.7190   12.6300 C   0  0  0  0  0  0
   -8.4050   -8.1170   13.5170 C   0  0  0  0  0  0
   -9.2790   -6.9200   13.0360 C   0  0  0  0  0  0
   -7.8450   -5.5850   11.5230 C   0  0  0  0  0  0
   -7.2920   -5.2910   10.1050 C   0  0  1  0  0  0
   -7.7330   -9.6330   15.2320 C   0  0  0  0  0  0
   -4.3640  -11.7070   14.4840 S   0  0  0  0  0  0
   -5.3910  -13.3510   15.9870 N   0  0  0  0  0  0
   -8.7790   -6.6330   11.7180 N   0  0  0  0  0  0
   -7.4700   -4.9320   12.4590 O   0  0  0  0  0  0
   -7.1050   -3.7080    9.8450 N   0  0  0  0  0  0
   -5.8940   -3.4740    9.4180 C   0  0  0  0  0  0
   -5.3630   -4.8780    9.0600 C   0  0  1  0  0  0
   -6.1200   -5.8020   10.0140 C   0  0  0  0  0  0
   -8.2000   -2.7360   10.0650 C   0  0  0  0  0  0
   -5.6980   -5.1680    7.7670 O   0  0  0  0  0  0
   -9.2290   -3.1480   10.4520 O   0  0  0  0  0  0
   -7.9740   -1.2440    9.8020 C   0  0  2  0  0  0
   -7.7580   -0.5160   11.1850 C   0  0  0  0  0  0
   -9.1560   -0.7160    9.2150 N   0  0  0  0  0  0
   -9.0530   -0.5570   12.0000 C   0  0  0  0  0  0
   -6.6400   -1.2300   11.9620 C   0  0  0  0  0  0
   -7.3650    0.9290   10.9380 C   0  0  0  0  0  0
   -7.7780  -12.6040   16.2740 C   0  0  0  0  0  0
   -9.0304    0.2693    9.0320 *   0  0  0  0  0  0
  1  2  2  0  0  0
  1  4  1  0  0  0
  1 13  1  0  0  0
  2 14  1  0  0  0
  2 30  1  0  0  0
  3 13  1  0  0  0
  3 14  2  0  0  0
  4  5  1  0  0  0
  4 12  2  0  0  0
  5  7  2  0  0  0
  6  8  2  0  0  0
  6 12  1  0  0  0
  7  8  1  0  0  0
  8  9  1  0  0  0
  9 15  1  0  0  0
 10 11  1  0  0  0
 10 15  1  0  0  0
 10 16  2  0  0  0
 11 17  1  0  0  0
 11 20  1  0  0  0
 17 18  1  0  0  0
 17 21  1  0  0  0
 18 19  1  0  0  0
 19 20  1  0  0  0
 19 22  1  0  0  0
 21 23  2  0  0  0
 21 24  1  0  0  0
 24 25  1  0  0  0
 24 26  1  0  0  0
 25 27  1  0  0  0
 25 28  1  0  0  0
 25 29  1  0  0  0
 26 31  1  0  0  0
M  ISO  1  26 101
M  END
> <s_m_entry_id>
17

> <s_m_entry_name>
7jto.1_mol3

> <s_m_subgroup_title>
7JTO - hbond-opt_split_by_molecule

> <s_m_subgroupid>
7JTO - hbond-opt_split_by_molecule

> <b_m_subgroup_collapsed>
0

$$$$
