ligand
                    3D
 Structure written by MMmdl.
164171  0  0  1  0            999 V2000
  -30.7652  -14.3608   20.6636 C   0  0  0  0  0  0
  -29.3307  -18.1492   19.0696 C   0  0  0  0  0  0
  -28.7169  -21.4654   20.6733 C   0  0  0  0  0  0
  -30.2020  -25.0114   18.1751 C   0  0  0  0  0  0
  -29.6160  -27.1025   20.6523 C   0  0  0  0  0  0
  -30.0209  -23.4950   18.0209 C   0  0  0  0  0  0
  -30.8055  -26.6987   19.7648 C   0  0  0  0  0  0
  -24.6048  -31.8614   23.2223 C   0  0  0  0  0  0
  -25.8822  -32.4841   23.8616 C   0  0  1  0  0  0
  -27.2536  -27.5042   20.1156 C   0  0  0  0  0  0
  -25.5726  -33.8762   24.2210 N   0  0  0  0  0  0
  -23.4066  -30.4859   21.5461 C   0  0  2  0  0  0
  -24.8467  -28.9636   20.1247 C   0  0  0  0  0  0
  -22.7412  -29.4652   22.5052 C   0  0  0  0  0  0
  -18.0167  -28.1302   22.8626 C   0  0  0  0  0  0
  -24.1342  -36.7390   23.2568 C   0  0  0  0  0  0
  -25.9141  -30.8882   21.3456 C   0  0  0  0  0  0
  -25.9930  -29.5029   20.7208 C   0  0  0  0  0  0
  -27.1758  -28.7612   20.7331 C   0  0  0  0  0  0
  -26.1032  -26.9836   19.5230 C   0  0  0  0  0  0
  -24.9097  -27.7011   19.5331 C   0  0  0  0  0  0
  -23.5715  -29.7899   20.1582 C   0  0  0  0  0  0
  -25.3990  -36.3212   24.0232 C   0  0  1  0  0  0
  -20.5793  -28.3813   23.1004 C   0  0  2  0  0  0
  -20.6548  -26.9392   22.5411 C   0  0  0  0  0  0
  -19.5615  -26.6407   21.5143 C   0  0  0  0  0  0
  -18.1797  -26.7818   22.1673 C   0  0  0  0  0  0
  -19.1385  -28.8769   23.2988 C   0  0  0  0  0  0
  -18.9183  -30.1286   23.8878 C   0  0  0  0  0  0
  -17.6396  -30.6493   24.0352 C   0  0  0  0  0  0
  -25.9153  -34.9582   23.4993 C   0  0  0  0  0  0
  -16.5415  -29.9068   23.6254 C   0  0  0  0  0  0
  -16.7331  -28.6521   23.0586 C   0  0  0  0  0  0
  -29.3228  -22.7995   20.2276 C   0  0  0  0  0  0
  -28.5012  -19.3479   19.5837 C   0  0  0  0  0  0
  -29.9771  -17.5312   21.3189 C   0  0  0  0  0  0
  -30.7623  -16.4026   21.9927 C   0  0  0  0  0  0
  -30.4392  -12.2669   19.3775 C   0  0  0  0  0  0
  -29.4791  -12.5281   18.1977 C   0  0  0  0  0  0
  -27.9985  -12.3963   18.6038 C   0  0  0  0  0  0
  -27.6639  -13.2170   19.8820 C   0  0  2  0  0  0
  -28.6795  -12.9602   21.0279 C   0  0  0  0  0  0
  -25.2633  -13.8245   20.5754 C   0  0  0  0  0  0
  -24.1645  -13.0409   20.9408 C   0  0  0  0  0  0
  -24.6400  -11.7009   20.8697 C   0  0  0  0  0  0
  -23.9005  -10.4085   21.0420 C   0  0  0  0  0  0
  -24.3588   -9.4123   21.9123 C   0  0  0  0  0  0
  -23.6296   -8.2350   22.0803 C   0  0  0  0  0  0
  -22.4385   -8.0419   21.3657 C   0  0  0  0  0  0
  -22.0103   -9.0167   20.4678 C   0  0  0  0  0  0
  -22.7317  -10.1925   20.3102 C   0  0  0  0  0  0
  -21.6857   -6.0709   22.5391 C   0  0  0  0  0  0
  -21.4064   -6.5490   23.8264 C   0  0  0  0  0  0
  -21.3635   -5.6677   24.9085 C   0  0  0  0  0  0
  -21.5973   -4.3067   24.7088 C   0  0  0  0  0  0
  -21.8700   -3.8284   23.4282 C   0  0  0  0  0  0
  -21.9144   -4.7056   22.3460 C   0  0  0  0  0  0
  -22.8194  -13.5263   21.1763 C   0  0  0  0  0  0
  -26.4583  -31.6439   25.0683 C   0  0  0  0  0  0
  -25.3807  -31.3179   26.1374 C   0  0  0  0  0  0
  -27.0530  -30.3024   24.5680 C   0  0  0  0  0  0
  -27.6014  -32.4281   25.7651 C   0  0  0  0  0  0
  -27.5629  -37.2220   24.8621 C   0  0  0  0  0  0
  -22.1559   -4.2206   21.1063 F   0  0  0  0  0  0
  -21.5628   -3.4510   25.7555 F   0  0  0  0  0  0
  -21.4133  -29.3375   22.3735 N   0  0  0  0  0  0
  -30.0261  -13.1803   20.4553 N   0  0  0  0  0  0
  -26.2911  -12.9356   20.3443 N   0  0  0  0  0  0
  -25.9236  -11.6675   20.5847 N   0  0  0  0  0  0
  -22.0708  -12.7905   22.0005 N   0  0  0  0  0  0
  -25.4117  -15.1773   20.4097 N   0  0  0  0  0  0
  -26.4706  -37.3372   23.9061 N   0  0  0  0  0  0
  -24.6674  -31.0544   22.1178 N   0  0  0  0  0  0
  -23.4259  -28.8150   23.2971 O   0  0  0  0  0  0
  -28.3948  -26.7345   20.0089 O   0  0  0  0  0  0
  -30.7758  -25.3125   19.4434 O   0  0  0  0  0  0
  -28.9847  -22.9889   18.8550 O   0  0  0  0  0  0
  -26.5870  -34.9065   22.4671 O   0  0  0  0  0  0
  -29.3587  -20.4206   19.9461 O   0  0  0  0  0  0
  -30.3506  -17.6804   19.9549 O   0  0  0  0  0  0
  -30.2231  -15.1295   21.6425 O   0  0  0  0  0  0
  -31.7916  -14.6724   20.0536 O   0  0  0  0  0  0
  -21.6670   -6.9022   21.4423 O   0  0  0  0  0  0
  -22.3946  -14.5564   20.6568 O   0  0  0  0  0  0
  -23.5365  -32.1254   23.7833 O   0  0  0  0  0  0
  -29.8222  -18.4220   18.1353 H   0  0  0  0  0  0
  -28.6657  -17.3166   18.8345 H   0  0  0  0  0  0
  -27.6380  -21.4893   20.5022 H   0  0  0  0  0  0
  -28.8698  -21.3047   21.7412 H   0  0  0  0  0  0
  -29.2359  -25.5002   18.0457 H   0  0  0  0  0  0
  -30.8569  -25.3846   17.3861 H   0  0  0  0  0  0
  -29.7253  -28.1670   20.8445 H   0  0  0  0  0  0
  -29.6634  -26.5887   21.6133 H   0  0  0  0  0  0
  -30.9594  -22.9636   18.1891 H   0  0  0  0  0  0
  -29.7347  -23.2799   16.9913 H   0  0  0  0  0  0
  -31.7319  -26.8910   20.3066 H   0  0  0  0  0  0
  -30.8437  -27.3220   18.8686 H   0  0  0  0  0  0
  -26.6814  -32.5591   23.1301 H   0  0  0  0  0  0
  -24.9767  -33.9984   25.0298 H   0  0  0  0  0  0
  -22.7214  -31.3194   21.4018 H   0  0  0  0  0  0
  -23.7820  -37.7034   23.6176 H   0  0  0  0  0  0
  -24.3156  -36.8402   22.1856 H   0  0  0  0  0  0
  -23.3204  -36.0263   23.3984 H   0  0  0  0  0  0
  -25.9069  -31.6409   20.5603 H   0  0  0  0  0  0
  -26.8220  -31.0425   21.9194 H   0  0  0  0  0  0
  -28.0278  -29.2111   21.2141 H   0  0  0  0  0  0
  -26.1374  -26.0150   19.0463 H   0  0  0  0  0  0
  -24.0299  -27.2769   19.0717 H   0  0  0  0  0  0
  -23.6439  -30.5797   19.4086 H   0  0  0  0  0  0
  -22.6883  -29.2019   19.8984 H   0  0  0  0  0  0
  -25.1189  -36.2119   25.0726 H   0  0  0  0  0  0
  -20.9942  -28.3404   24.1095 H   0  0  0  0  0  0
  -20.5485  -26.2357   23.3619 H   0  0  0  0  0  0
  -21.6382  -26.7393   22.1124 H   0  0  0  0  0  0
  -19.6832  -25.6318   21.1181 H   0  0  0  0  0  0
  -19.6512  -27.3220   20.6663 H   0  0  0  0  0  0
  -17.4114  -26.6559   21.4028 H   0  0  0  0  0  0
  -18.0249  -25.9857   22.8971 H   0  0  0  0  0  0
  -19.7594  -30.7236   24.2074 H   0  0  0  0  0  0
  -17.5053  -31.6311   24.4570 H   0  0  0  0  0  0
  -15.5456  -30.3041   23.7399 H   0  0  0  0  0  0
  -15.8727  -28.0832   22.7440 H   0  0  0  0  0  0
  -30.4013  -22.7800   20.3988 H   0  0  0  0  0  0
  -28.9173  -23.6255   20.8135 H   0  0  0  0  0  0
  -27.8873  -19.0492   20.4353 H   0  0  0  0  0  0
  -27.8150  -19.6822   18.8040 H   0  0  0  0  0  0
  -30.1672  -18.4734   21.8333 H   0  0  0  0  0  0
  -28.9144  -17.3211   21.4189 H   0  0  0  0  0  0
  -30.6676  -16.5116   23.0726 H   0  0  0  0  0  0
  -31.8258  -16.4832   21.7645 H   0  0  0  0  0  0
  -31.4785  -12.4079   19.0755 H   0  0  0  0  0  0
  -30.3329  -11.2387   19.7258 H   0  0  0  0  0  0
  -29.7028  -11.8347   17.3875 H   0  0  0  0  0  0
  -29.6628  -13.5265   17.7999 H   0  0  0  0  0  0
  -27.7875  -11.3376   18.7619 H   0  0  0  0  0  0
  -27.3663  -12.7202   17.7781 H   0  0  0  0  0  0
  -27.7278  -14.2727   19.6112 H   0  0  0  0  0  0
  -28.6096  -11.9251   21.3652 H   0  0  0  0  0  0
  -28.4616  -13.5909   21.8893 H   0  0  0  0  0  0
  -25.2707   -9.5566   22.4746 H   0  0  0  0  0  0
  -23.9972   -7.4780   22.7581 H   0  0  0  0  0  0
  -21.1072   -8.8630   19.8949 H   0  0  0  0  0  0
  -22.3760  -10.9381   19.6188 H   0  0  0  0  0  0
  -21.2068   -7.5996   23.9816 H   0  0  0  0  0  0
  -21.1394   -6.0386   25.8982 H   0  0  0  0  0  0
  -22.0346   -2.7755   23.2662 H   0  0  0  0  0  0
  -25.8208  -30.9233   27.0541 H   0  0  0  0  0  0
  -24.8025  -32.1993   26.4028 H   0  0  0  0  0  0
  -24.6698  -30.5697   25.7832 H   0  0  0  0  0  0
  -27.4627  -29.7151   25.3909 H   0  0  0  0  0  0
  -26.3041  -29.6773   24.0794 H   0  0  0  0  0  0
  -27.8643  -30.4623   23.8568 H   0  0  0  0  0  0
  -28.0793  -31.8369   26.5474 H   0  0  0  0  0  0
  -28.3793  -32.7136   25.0553 H   0  0  0  0  0  0
  -27.2406  -33.3423   26.2383 H   0  0  0  0  0  0
  -28.2468  -38.0624   24.7409 H   0  0  0  0  0  0
  -27.1842  -37.2413   25.8847 H   0  0  0  0  0  0
  -28.1252  -36.2999   24.7137 H   0  0  0  0  0  0
  -20.9498  -29.8859   21.6609 H   0  0  0  0  0  0
  -21.1187  -13.0615   22.2036 H   0  0  0  0  0  0
  -22.4356  -11.9332   22.3899 H   0  0  0  0  0  0
  -26.1163  -15.6804   20.9286 H   0  0  0  0  0  0
  -24.6069  -15.7307   20.1473 H   0  0  0  0  0  0
  -26.7908  -37.4425   22.9495 H   0  0  0  0  0  0
  1 67  1  0  0  0
  1 81  1  0  0  0
  1 82  2  0  0  0
  2 35  1  0  0  0
  2 80  1  0  0  0
  2 86  1  0  0  0
  2 87  1  0  0  0
  3 34  1  0  0  0
  3 79  1  0  0  0
  3 88  1  0  0  0
  3 89  1  0  0  0
  4  6  1  0  0  0
  4 76  1  0  0  0
  4 90  1  0  0  0
  4 91  1  0  0  0
  5  7  1  0  0  0
  5 75  1  0  0  0
  5 92  1  0  0  0
  5 93  1  0  0  0
  6 77  1  0  0  0
  6 94  1  0  0  0
  6 95  1  0  0  0
  7 76  1  0  0  0
  7 96  1  0  0  0
  7 97  1  0  0  0
  8  9  1  0  0  0
  8 73  1  0  0  0
  8 85  2  0  0  0
  9 11  1  0  0  0
  9 59  1  0  0  0
  9 98  1  0  0  0
 10 19  1  0  0  0
 10 20  2  0  0  0
 10 75  1  0  0  0
 11 31  1  0  0  0
 11 99  1  0  0  0
 12 14  1  0  0  0
 12 22  1  0  0  0
 12 73  1  0  0  0
 12100  1  0  0  0
 13 18  1  0  0  0
 13 21  2  0  0  0
 13 22  1  0  0  0
 14 66  1  0  0  0
 14 74  2  0  0  0
 15 27  1  0  0  0
 15 28  1  0  0  0
 15 33  2  0  0  0
 16 23  1  0  0  0
 16101  1  0  0  0
 16102  1  0  0  0
 16103  1  0  0  0
 17 18  1  0  0  0
 17 73  1  0  0  0
 17104  1  0  0  0
 17105  1  0  0  0
 18 19  2  0  0  0
 19106  1  0  0  0
 20 21  1  0  0  0
 20107  1  0  0  0
 21108  1  0  0  0
 22109  1  0  0  0
 22110  1  0  0  0
 23 31  1  0  0  0
 23 72  1  0  0  0
 23111  1  0  0  0
 24 25  1  0  0  0
 24 28  1  0  0  0
 24 66  1  0  0  0
 24112  1  0  0  0
 25 26  1  0  0  0
 25113  1  0  0  0
 25114  1  0  0  0
 26 27  1  0  0  0
 26115  1  0  0  0
 26116  1  0  0  0
 27117  1  0  0  0
 27118  1  0  0  0
 28 29  2  0  0  0
 29 30  1  0  0  0
 29119  1  0  0  0
 30 32  2  0  0  0
 30120  1  0  0  0
 31 78  2  0  0  0
 32 33  1  0  0  0
 32121  1  0  0  0
 33122  1  0  0  0
 34 77  1  0  0  0
 34123  1  0  0  0
 34124  1  0  0  0
 35 79  1  0  0  0
 35125  1  0  0  0
 35126  1  0  0  0
 36 37  1  0  0  0
 36 80  1  0  0  0
 36127  1  0  0  0
 36128  1  0  0  0
 37 81  1  0  0  0
 37129  1  0  0  0
 37130  1  0  0  0
 38 39  1  0  0  0
 38 67  1  0  0  0
 38131  1  0  0  0
 38132  1  0  0  0
 39 40  1  0  0  0
 39133  1  0  0  0
 39134  1  0  0  0
 40 41  1  0  0  0
 40135  1  0  0  0
 40136  1  0  0  0
 41 42  1  0  0  0
 41 68  1  0  0  0
 41137  1  0  0  0
 42 67  1  0  0  0
 42138  1  0  0  0
 42139  1  0  0  0
 43 44  2  0  0  0
 43 68  1  0  0  0
 43 71  1  0  0  0
 44 45  1  0  0  0
 44 58  1  0  0  0
 45 46  1  0  0  0
 45 69  2  0  0  0
 46 47  1  0  0  0
 46 51  2  0  0  0
 47 48  2  0  0  0
 47140  1  0  0  0
 48 49  1  0  0  0
 48141  1  0  0  0
 49 50  2  0  0  0
 49 83  1  0  0  0
 50 51  1  0  0  0
 50142  1  0  0  0
 51143  1  0  0  0
 52 53  1  0  0  0
 52 57  2  0  0  0
 52 83  1  0  0  0
 53 54  2  0  0  0
 53144  1  0  0  0
 54 55  1  0  0  0
 54145  1  0  0  0
 55 56  2  0  0  0
 55 65  1  0  0  0
 56 57  1  0  0  0
 56146  1  0  0  0
 57 64  1  0  0  0
 58 70  1  0  0  0
 58 84  2  0  0  0
 59 60  1  0  0  0
 59 61  1  0  0  0
 59 62  1  0  0  0
 60147  1  0  0  0
 60148  1  0  0  0
 60149  1  0  0  0
 61150  1  0  0  0
 61151  1  0  0  0
 61152  1  0  0  0
 62153  1  0  0  0
 62154  1  0  0  0
 62155  1  0  0  0
 63 72  1  0  0  0
 63156  1  0  0  0
 63157  1  0  0  0
 63158  1  0  0  0
 66159  1  0  0  0
 68 69  1  0  0  0
 70160  1  0  0  0
 70161  1  0  0  0
 71162  1  0  0  0
 71163  1  0  0  0
 72164  1  0  0  0
M  END
> <s_m_entry_id>
13

> <s_m_entry_name>
6w8i.1_mol4

> <s_m_subgroup_title>
6W8I - preprocessed_split_by_molecule

> <s_m_subgroupid>
6W8I - preprocessed_split_by_molecule

> <b_m_subgroup_collapsed>
0

$$$$
