default_job_39_1
                    3D
 Structure written by MMmdl.
 92101  0  0  1  0            999 V2000
  -30.6430  -14.7090   20.4790 C   0  0  0  0  0  0
  -30.3920  -12.4590   19.4270 C   0  0  0  0  0  0
  -29.4710  -12.5520   18.1930 C   0  0  0  0  0  0
  -27.9940  -12.4030   18.6050 C   0  0  0  0  0  0
  -27.6170  -13.2820   19.8290 C   0  0  2  0  0  0
  -28.6640  -13.1830   20.9590 C   0  0  0  0  0  0
  -29.9720  -13.5130   20.3750 N   0  0  0  0  0  0
  -31.8270  -14.7850   20.1300 O   0  0  0  0  0  0
  -31.8140  -21.9480   21.0530 C   0  0  0  0  0  0
  -30.9720  -22.9820   20.6230 C   0  0  0  0  0  0
  -29.6170  -22.6540   20.3880 C   0  0  0  0  0  0
  -30.1630  -20.3700   20.8380 C   0  0  0  0  0  0
  -29.5200  -18.1600   19.7580 C   0  0  0  0  0  0
  -30.8400  -18.1360   21.7340 C   0  0  0  0  0  0
  -29.0680  -16.6710   20.0570 C   0  0  0  0  0  0
  -30.4320  -16.6550   22.0500 C   0  0  0  0  0  0
  -31.4120  -20.6750   21.1390 N   0  0  0  0  0  0
  -29.2420  -21.3100   20.4770 N   0  0  0  0  0  0
  -29.8840  -18.9550   20.9450 N   0  0  0  0  0  0
  -29.9710  -15.8430   20.9030 N   0  0  0  0  0  0
  -25.2230  -13.8890   20.5210 C   0  0  0  0  0  0
  -24.1500  -13.1230   20.8820 C   0  0  0  0  0  0
  -24.6080  -11.7690   20.8640 C   0  0  0  0  0  0
  -26.2660  -13.0040   20.3040 N   0  0  0  0  0  0
  -25.9020  -11.7240   20.5720 N   0  0  0  0  0  0
  -23.8730  -10.5120   21.0520 C   0  0  0  0  0  0
  -24.2990   -9.5400   21.9860 C   0  0  0  0  0  0
  -23.5650   -8.3470   22.1620 C   0  0  0  0  0  0
  -22.3910   -8.1160   21.4060 C   0  0  0  0  0  0
  -21.9840   -9.0760   20.4610 C   0  0  0  0  0  0
  -22.7180  -10.2610   20.2830 C   0  0  0  0  0  0
  -21.6310   -6.9760   21.4910 O   0  0  0  0  0  0
  -21.5790   -6.2300   22.6400 C   0  0  0  0  0  0
  -21.1720   -6.7870   23.8730 C   0  0  0  0  0  0
  -21.0680   -5.9680   25.0140 C   0  0  0  0  0  0
  -21.3590   -4.5940   24.9260 C   0  0  0  0  0  0
  -21.7580   -4.0350   23.6980 C   0  0  0  0  0  0
  -21.8650   -4.8520   22.5580 C   0  0  0  0  0  0
  -22.2300   -4.3050   21.3730 F   0  0  0  0  0  0
  -21.2510   -3.8050   26.0210 F   0  0  0  0  0  0
  -22.7510  -13.6060   21.1340 C   0  0  0  0  0  0
  -22.0120  -12.9200   21.9970 N   0  0  0  0  0  0
  -22.3240  -14.6300   20.6010 O   0  0  0  0  0  0
  -22.3690  -12.0890   22.4470 H   0  0  0  0  0  0
  -21.0740  -13.2270   22.2130 H   0  0  0  0  0  0
  -25.3950  -15.2590   20.3370 N   0  0  0  0  0  0
  -24.6320  -15.9190   20.4450 H   0  0  0  0  0  0
  -26.2500  -15.6910   20.0140 H   0  0  0  0  0  0
  -28.6220  -23.7790   19.8620 C   0  0  0  0  0  0
  -28.2210  -25.0640   20.7510 C   0  0  0  0  0  0
  -28.3930  -26.4650   20.2510 O   0  0  0  0  0  0
  -24.6170  -31.8810   23.2260 C   0  0  0  0  0  0
  -27.2750  -27.3170   20.2220 C   0  0  0  0  0  0
  -23.4350  -30.4640   21.5890 C   0  0  2  0  0  0
  -24.9050  -28.9140   20.1800 C   0  0  0  0  0  0
  -25.9700  -30.8040   21.4120 C   0  0  0  0  0  0
  -26.0670  -29.4170   20.7790 C   0  0  0  0  0  0
  -27.2600  -28.6330   20.7830 C   0  0  0  0  0  0
  -26.0950  -26.8680   19.5930 C   0  0  0  0  0  0
  -24.9230  -27.6480   19.5730 C   0  0  0  0  0  0
  -23.6630  -29.7810   20.2140 C   0  0  0  0  0  0
  -24.6940  -31.0610   22.1390 N   0  0  0  0  0  0
  -23.5230  -32.1790   23.7250 O   0  0  0  0  0  0
  -22.7710  -29.4450   22.5470 C   0  0  0  0  0  0
  -21.4430  -29.2750   22.4240 N   0  0  0  0  0  0
  -23.4490  -28.8100   23.3580 O   0  0  0  0  0  0
  -20.9580  -29.8350   21.7390 H   0  0  0  0  0  0
  -18.0590  -28.0980   22.9290 C   0  0  0  0  0  0
  -20.6210  -28.3350   23.1870 C   0  0  2  0  0  0
  -20.7110  -26.9090   22.5960 C   0  0  0  0  0  0
  -19.6010  -26.6050   21.5850 C   0  0  0  0  0  0
  -18.2230  -26.7550   22.2380 C   0  0  0  0  0  0
  -19.1860  -28.8460   23.3610 C   0  0  0  0  0  0
  -18.9820  -30.1050   23.9680 C   0  0  0  0  0  0
  -17.6820  -30.6150   24.1460 C   0  0  0  0  0  0
  -16.5700  -29.8630   23.7300 C   0  0  0  0  0  0
  -16.7580  -28.6070   23.1260 C   0  0  0  0  0  0
  -25.8900  -32.5130   23.8710 C   0  0  2  0  0  0
  -26.3900  -31.7440   25.1550 C   0  0  0  0  0  0
  -25.2830  -31.5100   26.2100 C   0  0  0  0  0  0
  -26.9780  -30.3680   24.7680 C   0  0  0  0  0  0
  -27.5340  -32.5400   25.8310 C   0  0  0  0  0  0
  -25.5750  -33.9100   24.1990 N   0  0  0  0  0  0
  -25.9060  -34.9620   23.4370 C   0  0  0  0  0  0
  -26.5800  -34.8570   22.4080 O   0  0  0  0  0  0
  -24.9730  -34.0640   24.9940 H   0  0  0  0  0  0
  -24.1700  -36.7400   23.0690 C   0  0  0  0  0  0
  -25.4090  -36.3480   23.8870 C   0  0  2  0  0  0
  -27.5380  -37.2430   24.7180 C   0  0  0  0  0  0
  -26.4370  -37.4060   23.7720 N   0  0  0  0  0  0
  -26.0290  -38.3250   23.9150 H   0  0  0  0  0  0
  -31.3668  -23.9777   20.4849 H   0  0  0  0  0  0
  1 20  1  0  0  0
  1  7  1  0  0  0
  1  8  2  0  0  0
  2  7  1  0  0  0
  2  3  1  0  0  0
  3  4  1  0  0  0
  4  5  1  0  0  0
  5 24  1  0  0  0
  5  6  1  0  0  0
  6  7  1  0  0  0
  9 17  1  0  0  0
  9 10  2  0  0  0
 10 11  1  0  0  0
 10 92  1  0  0  0
 11 18  2  0  0  0
 11 49  1  0  0  0
 12 19  1  0  0  0
 12 17  2  0  0  0
 12 18  1  0  0  0
 13 15  1  0  0  0
 13 19  1  0  0  0
 14 16  1  0  0  0
 14 19  1  0  0  0
 15 20  1  0  0  0
 16 20  1  0  0  0
 21 22  2  0  0  0
 21 24  1  0  0  0
 21 46  1  0  0  0
 22 41  1  0  0  0
 22 23  1  0  0  0
 23 26  1  0  0  0
 23 25  2  0  0  0
 24 25  1  0  0  0
 26 27  1  0  0  0
 26 31  2  0  0  0
 27 28  2  0  0  0
 28 29  1  0  0  0
 29 32  1  0  0  0
 29 30  2  0  0  0
 30 31  1  0  0  0
 32 33  1  0  0  0
 33 34  1  0  0  0
 33 38  2  0  0  0
 34 35  2  0  0  0
 35 36  1  0  0  0
 36 40  1  0  0  0
 36 37  2  0  0  0
 37 38  1  0  0  0
 38 39  1  0  0  0
 41 42  1  0  0  0
 41 43  2  0  0  0
 42 45  1  0  0  0
 42 44  1  0  0  0
 46 47  1  0  0  0
 46 48  1  0  0  0
 49 50  1  0  0  0
 50 51  1  0  0  0
 51 53  1  0  0  0
 52 63  2  0  0  0
 52 62  1  0  0  0
 52 78  1  0  0  0
 53 58  1  0  0  0
 53 59  2  0  0  0
 54 62  1  0  0  0
 54 64  1  0  0  0
 54 61  1  0  0  0
 55 61  1  0  0  0
 55 57  1  0  0  0
 55 60  2  0  0  0
 56 62  1  0  0  0
 56 57  1  0  0  0
 57 58  2  0  0  0
 59 60  1  0  0  0
 64 66  2  0  0  0
 64 65  1  0  0  0
 65 67  1  0  0  0
 65 69  1  0  0  0
 68 77  2  0  0  0
 68 73  1  0  0  0
 68 72  1  0  0  0
 69 73  1  0  0  0
 69 70  1  0  0  0
 70 71  1  0  0  0
 71 72  1  0  0  0
 73 74  2  0  0  0
 74 75  1  0  0  0
 75 76  2  0  0  0
 76 77  1  0  0  0
 78 83  1  0  0  0
 78 79  1  0  0  0
 79 82  1  0  0  0
 79 80  1  0  0  0
 79 81  1  0  0  0
 83 86  1  0  0  0
 83 84  1  0  0  0
 84 88  1  0  0  0
 84 85  2  0  0  0
 87 88  1  0  0  0
 88 90  1  0  0  0
 89 90  1  0  0  0
 90 91  1  0  0  0
M  ISO  4   1 100  20 100  50 101  51 101
M  END
> <s_m_entry_id>
6

> <s_m_entry_name>
BTK_2023_4_7_sel_all.6

> <TORSDO>
F 19

> <SCORE>
-14.772

> <name>
39

> <ligand_id>
39

> <original_smiles>
[H]c1nc(N2C([H])([H])C([H])([H])N(C(=O)N3C([H])([H])C([H])([H])C([H])([H])C([H])(n4nc(-c5c([H])c([H])c(Oc6c([H])c([H])c(F)c([H])c6F)c([H])c5[H])c(C(=O)N([H])[H])c4N([H])[H])C3([H])[H])C([H])([H])C2([H])[H])nc(C([H])([H])C([H])([H])Oc2c([H])c([H])c3c(c2[H])C([H])([H])N(C(=O)C([H])(N([H])C(=O)C([H])(N([H])C([H])([H])[H])C([H])([H])[H])C(C([H])([H])[H])(C([H])([H])[H])C([H])([H])[H])C([H])(C(=O)N([H])C2([H])c4c([H])c([H])c([H])c([H])c4C([H])([H])C([H])([H])C2([H])[H])C3([H])[H])c1C([H])([H])[N+]([H])([H])[H]

> <smiles>
[H]c1nc(N2C([H])([H])C([H])([H])N(C(=O)N3C([H])([H])C([H])([H])C([H])([H])C([H])(n4nc(-c5c([H])c([H])c(Oc6c([H])c([H])c(F)c([H])c6F)c([H])c5[H])c(C(=O)N([H])[H])c4N([H])[H])C3([H])[H])C([H])([H])C2([H])[H])nc(C([H])([H])C([H])([H])Oc2c([H])c([H])c3c(c2[H])C([H])([H])N(C(=O)C([H])(N([H])C(=O)C([H])(N([H])C([H])([H])[H])C([H])([H])[H])C(C([H])([H])[H])(C([H])([H])[H])C([H])([H])[H])C([H])(C(=O)N([H])C2([H])c4c([H])c([H])c([H])c([H])c4C([H])([H])C([H])([H])C2([H])[H])C3([H])[H])c1C([H])([H])[N+]([H])([H])[H]

> <Step>
197

> <Scaffold>
O=C(NC1CCCc2ccccc21)C1Cc2ccc(OCCc3ccnc(N4CCN(C(=O)N5CCCC(n6ccc(-c7ccc(Oc8ccccc8)cc7)n6)C5)CC4)n3)cc2CN1

> <SMILES>
CNC(C)C(=O)NC(C(=O)N1Cc2cc(OCCc3nc(N4CCN(C(=O)N5CCCC(n6nc(-c7ccc(Oc8ccc(F)cc8F)cc7)c(C(N)=O)c6N)C5)CC4)ncc3CN)ccc2CC1C(=O)NC1CCCc2ccccc21)C(C)(C)C

> <Tanimoto ROCS sim>
0.205893620848656

> <Custom alerts>
1

> <Linker Num Aromatic Rings>
1

> <Linker Effective Length>
1

> <ADV>
0.996342718601227

> <PostDock Tanimoto ROCS sim>
0.990644037723541

> <raw_Linker Num Aromatic Rings>
1

> <raw_Linker Effective Length>
8

> <raw_ADV>
-14.7410001754761

> <total_score>
0.99674665927887

> <ID>
default_job_39

> <PostDock Tanimoto ROCS sim (re-score)>
0.97982454

> <raw_ADV (re-score)>
-14.772

> <Final Intermolecular Energy>
-30.317

> <Final Total Internal Energy>
-2.652

> <Torsional Free Energy>
15.545

> <Unbound System's Energy>
-2.652

> <chiral flag>
0

> <version>
0

> <s_m_Source_Path>
/mnt/home/boqing/Schrodinger_Projects/BTK/BTK_MD

> <s_m_Source_File>
BTK_2023_4_7_sel_all.sdf

> <i_m_Source_File_Index>
6

> <s_m_subgroup_title>
BTK_2023_4_7_sel_all

> <s_m_subgroupid>
BTK_2023_4_7_sel_all

> <b_m_subgroup_collapsed>
0

$$$$
default_job_40_1
                    3D
 Structure written by MMmdl.
 93102  0  0  1  0            999 V2000
  -29.9390  -21.9430   20.5120 C   0  0  0  0  0  0
  -29.9660  -20.4850   18.5980 C   0  0  0  0  0  0
  -29.7230  -23.0440   19.6340 C   0  0  0  0  0  0
  -30.0870  -20.6220   20.0000 C   0  0  0  0  0  0
  -29.6770  -22.7620   18.2470 C   0  0  0  0  0  0
  -29.7710  -21.5140   17.7520 N   0  0  0  0  0  0
  -30.3630  -19.5140   20.8510 N   0  0  0  0  0  0
  -30.3850  -19.6660   21.8570 H   0  0  0  0  0  0
  -30.6980  -14.5980   20.4560 C   0  0  0  0  0  0
  -30.3810  -12.3960   19.3620 C   0  0  0  0  0  0
  -29.4420  -12.5190   18.1450 C   0  0  0  0  0  0
  -27.9770  -12.3230   18.5790 C   0  0  0  0  0  0
  -27.6040  -13.2040   19.7950 C   0  0  2  0  0  0
  -28.6710  -13.1150   20.9190 C   0  0  0  0  0  0
  -29.9830  -13.4320   20.3360 N   0  0  0  0  0  0
  -31.8790  -14.6480   20.1030 O   0  0  0  0  0  0
  -28.7490  -17.7240   20.2950 C   0  0  0  0  0  0
  -28.8050  -16.2000   20.2650 C   0  0  0  0  0  0
  -30.7950  -16.9940   21.2350 C   0  0  0  0  0  0
  -30.2030  -18.1300   20.3670 C   0  0  2  0  0  0
  -30.0680  -15.7480   20.8640 N   0  0  0  0  0  0
  -25.2150  -13.8300   20.5070 C   0  0  0  0  0  0
  -24.1470  -13.0620   20.8810 C   0  0  0  0  0  0
  -24.6120  -11.7110   20.8650 C   0  0  0  0  0  0
  -26.2590  -12.9420   20.2870 N   0  0  0  0  0  0
  -25.9030  -11.6660   20.5660 N   0  0  0  0  0  0
  -23.8910  -10.4500   21.0560 C   0  0  0  0  0  0
  -24.3330   -9.4830   21.9840 C   0  0  0  0  0  0
  -23.6130   -8.2840   22.1620 C   0  0  0  0  0  0
  -22.4360   -8.0440   21.4130 C   0  0  0  0  0  0
  -22.0150   -9.0010   20.4730 C   0  0  0  0  0  0
  -22.7360  -10.1930   20.2920 C   0  0  0  0  0  0
  -21.6850   -6.8990   21.5030 O   0  0  0  0  0  0
  -21.6570   -6.1470   22.6490 C   0  0  0  0  0  0
  -21.2550   -6.6920   23.8880 C   0  0  0  0  0  0
  -21.1740   -5.8670   25.0270 C   0  0  0  0  0  0
  -21.4850   -4.4970   24.9280 C   0  0  0  0  0  0
  -21.8800   -3.9520   23.6940 C   0  0  0  0  0  0
  -21.9640   -4.7750   22.5580 C   0  0  0  0  0  0
  -22.3260   -4.2410   21.3660 F   0  0  0  0  0  0
  -21.3980   -3.7010   26.0190 F   0  0  0  0  0  0
  -22.7490  -13.5390   21.1390 C   0  0  0  0  0  0
  -22.0160  -12.8500   22.0060 N   0  0  0  0  0  0
  -22.3130  -14.5590   20.6070 O   0  0  0  0  0  0
  -22.3810  -12.0240   22.4580 H   0  0  0  0  0  0
  -21.0760  -13.1520   22.2210 H   0  0  0  0  0  0
  -25.3680  -15.1990   20.3110 N   0  0  0  0  0  0
  -24.5910  -15.8430   20.4090 H   0  0  0  0  0  0
  -26.2060  -15.6430   19.9610 H   0  0  0  0  0  0
  -29.6400  -24.4940   20.1690 C   0  0  0  0  0  0
  -28.3000  -25.2520   19.9230 C   0  0  0  0  0  0
  -28.3810  -26.6670   20.2110 O   0  0  0  0  0  0
  -24.5950  -31.9040   23.2540 C   0  0  0  0  0  0
  -27.2080  -27.4100   20.1820 C   0  0  0  0  0  0
  -23.3780  -30.4960   21.6280 C   0  0  2  0  0  0
  -24.8180  -28.9500   20.1990 C   0  0  0  0  0  0
  -25.9080  -30.8360   21.4210 C   0  0  0  0  0  0
  -25.9840  -29.4630   20.7800 C   0  0  0  0  0  0
  -27.1800  -28.7020   20.7660 C   0  0  0  0  0  0
  -26.0170  -26.9220   19.5910 C   0  0  0  0  0  0
  -24.8320  -27.6800   19.6000 C   0  0  0  0  0  0
  -23.5790  -29.8150   20.2490 C   0  0  0  0  0  0
  -24.6470  -31.0910   22.1600 N   0  0  0  0  0  0
  -23.5130  -32.2060   23.7740 O   0  0  0  0  0  0
  -22.7260  -29.4800   22.5930 C   0  0  0  0  0  0
  -21.4010  -29.2940   22.4660 N   0  0  0  0  0  0
  -23.4090  -28.8590   23.4130 O   0  0  0  0  0  0
  -20.9120  -29.8460   21.7760 H   0  0  0  0  0  0
  -18.0300  -28.0900   22.9560 C   0  0  0  0  0  0
  -20.5850  -28.3590   23.2400 C   0  0  2  0  0  0
  -20.6950  -26.9240   22.6730 C   0  0  0  0  0  0
  -19.6000  -26.5910   21.6560 C   0  0  0  0  0  0
  -18.2140  -26.7350   22.2920 C   0  0  0  0  0  0
  -19.1430  -28.8580   23.3870 C   0  0  0  0  0  0
  -18.9170  -30.1260   23.9670 C   0  0  0  0  0  0
  -17.6090  -30.6240   24.1210 C   0  0  0  0  0  0
  -16.5110  -29.8520   23.7090 C   0  0  0  0  0  0
  -16.7210  -28.5870   23.1320 C   0  0  0  0  0  0
  -25.8870  -32.5230   23.8760 C   0  0  2  0  0  0
  -26.4060  -31.7460   25.1480 C   0  0  0  0  0  0
  -25.3150  -31.5130   26.2190 C   0  0  0  0  0  0
  -26.9810  -30.3670   24.7510 C   0  0  0  0  0  0
  -27.5630  -32.5330   25.8070 C   0  0  0  0  0  0
  -25.5890  -33.9210   24.2090 N   0  0  0  0  0  0
  -25.9130  -34.9710   23.4420 C   0  0  0  0  0  0
  -26.5700  -34.8620   22.4020 O   0  0  0  0  0  0
  -25.0040  -34.0790   25.0160 H   0  0  0  0  0  0
  -24.1810  -36.7620   23.1050 C   0  0  0  0  0  0
  -25.4330  -36.3610   23.9000 C   0  0  2  0  0  0
  -27.5800  -37.2450   24.6950 C   0  0  0  0  0  0
  -26.4650  -37.4120   23.7680 N   0  0  0  0  0  0
  -26.0620  -38.3330   23.9180 H   0  0  0  0  0  0
  -29.5621  -23.5667   17.5359 H   0  0  0  0  0  0
  1  3  2  0  0  0
  1  4  1  0  0  0
  2  4  2  0  0  0
  2  6  1  0  0  0
  3 50  1  0  0  0
  3  5  1  0  0  0
  4  7  1  0  0  0
  5  6  2  0  0  0
  5 93  1  0  0  0
  7  8  1  0  0  0
  7 20  1  0  0  0
  9 21  1  0  0  0
  9 15  1  0  0  0
  9 16  2  0  0  0
 10 15  1  0  0  0
 10 11  1  0  0  0
 11 12  1  0  0  0
 12 13  1  0  0  0
 13 25  1  0  0  0
 13 14  1  0  0  0
 14 15  1  0  0  0
 17 20  1  0  0  0
 17 18  1  0  0  0
 18 21  1  0  0  0
 19 20  1  0  0  0
 19 21  1  0  0  0
 22 23  2  0  0  0
 22 25  1  0  0  0
 22 47  1  0  0  0
 23 42  1  0  0  0
 23 24  1  0  0  0
 24 27  1  0  0  0
 24 26  2  0  0  0
 25 26  1  0  0  0
 27 28  1  0  0  0
 27 32  2  0  0  0
 28 29  2  0  0  0
 29 30  1  0  0  0
 30 33  1  0  0  0
 30 31  2  0  0  0
 31 32  1  0  0  0
 33 34  1  0  0  0
 34 35  1  0  0  0
 34 39  2  0  0  0
 35 36  2  0  0  0
 36 37  1  0  0  0
 37 41  1  0  0  0
 37 38  2  0  0  0
 38 39  1  0  0  0
 39 40  1  0  0  0
 42 43  1  0  0  0
 42 44  2  0  0  0
 43 46  1  0  0  0
 43 45  1  0  0  0
 47 48  1  0  0  0
 47 49  1  0  0  0
 50 51  1  0  0  0
 51 52  1  0  0  0
 52 54  1  0  0  0
 53 64  2  0  0  0
 53 63  1  0  0  0
 53 79  1  0  0  0
 54 59  1  0  0  0
 54 60  2  0  0  0
 55 63  1  0  0  0
 55 65  1  0  0  0
 55 62  1  0  0  0
 56 62  1  0  0  0
 56 58  1  0  0  0
 56 61  2  0  0  0
 57 63  1  0  0  0
 57 58  1  0  0  0
 58 59  2  0  0  0
 60 61  1  0  0  0
 65 67  2  0  0  0
 65 66  1  0  0  0
 66 68  1  0  0  0
 66 70  1  0  0  0
 69 78  2  0  0  0
 69 74  1  0  0  0
 69 73  1  0  0  0
 70 74  1  0  0  0
 70 71  1  0  0  0
 71 72  1  0  0  0
 72 73  1  0  0  0
 74 75  2  0  0  0
 75 76  1  0  0  0
 76 77  2  0  0  0
 77 78  1  0  0  0
 79 84  1  0  0  0
 79 80  1  0  0  0
 80 83  1  0  0  0
 80 81  1  0  0  0
 80 82  1  0  0  0
 84 87  1  0  0  0
 84 85  1  0  0  0
 85 89  1  0  0  0
 85 86  2  0  0  0
 88 89  1  0  0  0
 89 91  1  0  0  0
 90 91  1  0  0  0
 91 92  1  0  0  0
M  ISO  4   9 100  21 100  51 101  52 101
M  END
> <s_m_entry_id>
7

> <s_m_entry_name>
BTK_2023_4_7_sel_all.7

> <TORSDO>
F 19

> <SCORE>
-14.463

> <name>
40

> <ligand_id>
40

> <original_smiles>
[H]c1nc(C([H])([H])[H])c(C([H])([H])C([H])([H])Oc2c([H])c([H])c3c(c2[H])C([H])([H])N(C(=O)C([H])(N([H])C(=O)C([H])(N([H])C([H])([H])[H])C([H])([H])[H])C(C([H])([H])[H])(C([H])([H])[H])C([H])([H])[H])C([H])(C(=O)N([H])C2([H])c4c([H])c([H])c([H])c([H])c4C([H])([H])C([H])([H])C2([H])[H])C3([H])[H])c([H])c1N([H])C1([H])C([H])([H])N(C(=O)N2C([H])([H])C([H])([H])C([H])([H])C([H])(n3nc(-c4c([H])c([H])c(Oc5c([H])c([H])c(F)c([H])c5F)c([H])c4[H])c(C(=O)N([H])[H])c3N([H])[H])C2([H])[H])C([H])([H])C1([H])[H]

> <smiles>
[H]c1nc(C([H])([H])[H])c(C([H])([H])C([H])([H])Oc2c([H])c([H])c3c(c2[H])C([H])([H])N(C(=O)C([H])(N([H])C(=O)C([H])(N([H])C([H])([H])[H])C([H])([H])[H])C(C([H])([H])[H])(C([H])([H])[H])C([H])([H])[H])C([H])(C(=O)N([H])C2([H])c4c([H])c([H])c([H])c([H])c4C([H])([H])C([H])([H])C2([H])[H])C3([H])[H])c([H])c1N([H])C1([H])C([H])([H])N(C(=O)N2C([H])([H])C([H])([H])C([H])([H])C([H])(n3nc(-c4c([H])c([H])c(Oc5c([H])c([H])c(F)c([H])c5F)c([H])c4[H])c(C(=O)N([H])[H])c3N([H])[H])C2([H])[H])C([H])([H])C1([H])[H]

> <Step>
169

> <Scaffold>
O=C(NC1CCCc2ccccc21)C1Cc2ccc(OCCc3cncc(NC4CCN(C(=O)N5CCCC(n6ccc(-c7ccc(Oc8ccccc8)cc7)n6)C5)C4)c3)cc2CN1

> <SMILES>
CNC(C)C(=O)NC(C(=O)N1Cc2cc(OCCc3cc(NC4CCN(C(=O)N5CCCC(n6nc(-c7ccc(Oc8ccc(F)cc8F)cc7)c(C(N)=O)c6N)C5)C4)cnc3C)ccc2CC1C(=O)NC1CCCc2ccccc21)C(C)(C)C

> <Tanimoto ROCS sim>
0.218389585614204

> <Custom alerts>
1

> <Linker Num Aromatic Rings>
1

> <Linker Effective Length>
1

> <ADV>
0.995747447013855

> <PostDock Tanimoto ROCS sim>
0.9912269115448

> <raw_Linker Num Aromatic Rings>
1

> <raw_Linker Effective Length>
8

> <raw_ADV>
-14.4779996871948

> <total_score>
0.996743619441986

> <ID>
default_job_40

> <PostDock Tanimoto ROCS sim (re-score)>
0.9849451

> <raw_ADV (re-score)>
-14.463

> <Final Intermolecular Energy>
-30.105

> <Final Total Internal Energy>
-2.63

> <Torsional Free Energy>
15.642

> <Unbound System's Energy>
-2.63

> <chiral flag>
0

> <version>
0

> <s_m_Source_Path>
/mnt/home/boqing/Schrodinger_Projects/BTK/BTK_MD

> <s_m_Source_File>
BTK_2023_4_7_sel_all.sdf

> <i_m_Source_File_Index>
7

> <s_m_subgroup_title>
BTK_2023_4_7_sel_all

> <s_m_subgroupid>
BTK_2023_4_7_sel_all

> <b_m_subgroup_collapsed>
0

$$$$
default_job_82_1
                    3D
 Structure written by MMmdl.
 93102  0  0  1  0            999 V2000
  -29.6090  -21.9050   21.5100 C   0  0  0  0  0  0
  -29.2260  -23.2800   21.2440 C   0  0  0  0  0  0
  -28.9260  -23.7150   19.9190 C   0  0  0  0  0  0
  -29.5780  -20.9260   20.4560 C   0  0  0  0  0  0
  -29.0110  -22.6700   18.9430 C   0  0  0  0  0  0
  -29.3090  -21.3590   19.2020 N   0  0  0  0  0  0
  -30.8790  -14.9050   20.1020 C   0  0  0  0  0  0
  -30.4670  -12.6610   19.0860 C   0  0  0  0  0  0
  -29.5110  -12.7160   17.8800 C   0  0  0  0  0  0
  -28.0580  -12.5580   18.3570 C   0  0  0  0  0  0
  -27.7250  -13.4740   19.5640 C   0  0  2  0  0  0
  -28.8200  -13.4420   20.6560 C   0  0  0  0  0  0
  -30.0880  -13.7750   19.9970 N   0  0  0  0  0  0
  -32.0700  -14.7640   19.8110 O   0  0  0  0  0  0
  -28.7440  -18.2990   20.4640 C   0  0  0  0  0  0
  -30.9970  -18.7880   19.7510 C   0  0  0  0  0  0
  -29.1310  -16.7760   20.7750 C   0  0  0  0  0  0
  -31.4380  -17.3270   20.1100 C   0  0  0  0  0  0
  -29.8810  -19.3570   20.6430 C   0  0  0  0  0  0
  -30.4070  -16.2320   20.2140 N   0  0  0  0  0  0
  -25.3710  -14.0880   20.3650 C   0  0  0  0  0  0
  -24.3070  -13.3250   20.7590 C   0  0  0  0  0  0
  -24.7540  -11.9690   20.7140 C   0  0  0  0  0  0
  -26.3980  -13.1980   20.1010 N   0  0  0  0  0  0
  -26.0360  -11.9180   20.3770 N   0  0  0  0  0  0
  -24.0170  -10.7140   20.9150 C   0  0  0  0  0  0
  -24.4300   -9.7590   21.8700 C   0  0  0  0  0  0
  -23.6910   -8.5710   22.0600 C   0  0  0  0  0  0
  -22.5260   -8.3300   21.2930 C   0  0  0  0  0  0
  -22.1320   -9.2720   20.3280 C   0  0  0  0  0  0
  -22.8710  -10.4520   20.1360 C   0  0  0  0  0  0
  -21.7610   -7.1930   21.3920 O   0  0  0  0  0  0
  -21.6660   -6.4880   22.5650 C   0  0  0  0  0  0
  -21.1360   -7.0650   23.7400 C   0  0  0  0  0  0
  -20.9920   -6.2850   24.9040 C   0  0  0  0  0  0
  -21.3670   -4.9280   24.8950 C   0  0  0  0  0  0
  -21.8910   -4.3510   23.7250 C   0  0  0  0  0  0
  -22.0360   -5.1280   22.5620 C   0  0  0  0  0  0
  -22.5210   -4.5610   21.4310 F   0  0  0  0  0  0
  -21.2230   -4.1760   26.0110 F   0  0  0  0  0  0
  -22.9220  -13.8180   21.0600 C   0  0  0  0  0  0
  -22.2070  -13.1340   21.9460 N   0  0  0  0  0  0
  -22.4830  -14.8470   20.5460 O   0  0  0  0  0  0
  -22.5750  -12.3020   22.3830 H   0  0  0  0  0  0
  -21.2780  -13.4470   22.1920 H   0  0  0  0  0  0
  -25.5420  -15.4560   20.1820 N   0  0  0  0  0  0
  -24.7820  -16.1150   20.3110 H   0  0  0  0  0  0
  -26.3820  -15.8880   19.8170 H   0  0  0  0  0  0
  -28.2400  -25.1130   19.5290 C   0  0  0  0  0  0
  -28.5110  -26.4970   20.0610 O   0  0  0  0  0  0
  -24.5980  -31.7780   23.2090 C   0  0  0  0  0  0
  -27.4190  -27.4070   19.9960 C   0  0  0  0  0  0
  -23.4790  -30.4000   21.5020 C   0  0  2  0  0  0
  -25.0110  -28.9880   20.0250 C   0  0  0  0  0  0
  -26.0180  -30.8050   21.3890 C   0  0  0  0  0  0
  -26.1580  -29.4630   20.6750 C   0  0  0  0  0  0
  -27.3640  -28.6830   20.6590 C   0  0  0  0  0  0
  -26.2470  -27.0380   19.2860 C   0  0  0  0  0  0
  -25.0620  -27.7840   19.3210 C   0  0  0  0  0  0
  -23.7430  -29.8120   20.0950 C   0  0  0  0  0  0
  -24.7170  -31.0060   22.0910 N   0  0  0  0  0  0
  -23.4890  -32.0180   23.7060 O   0  0  0  0  0  0
  -22.8450  -29.3100   22.4000 C   0  0  0  0  0  0
  -21.5310  -29.0750   22.2370 N   0  0  0  0  0  0
  -23.5340  -28.6810   23.2080 O   0  0  0  0  0  0
  -21.0310  -29.6390   21.5630 H   0  0  0  0  0  0
  -18.1960  -27.7240   22.6380 C   0  0  0  0  0  0
  -20.7400  -28.0690   22.9500 C   0  0  2  0  0  0
  -20.9030  -26.6730   22.3070 C   0  0  0  0  0  0
  -19.8250  -26.3580   21.2660 C   0  0  0  0  0  0
  -18.4330  -26.4170   21.9000 C   0  0  0  0  0  0
  -19.2800  -28.5070   23.1180 C   0  0  0  0  0  0
  -19.0050  -29.7280   23.7690 C   0  0  0  0  0  0
  -17.6800  -30.1690   23.9460 C   0  0  0  0  0  0
  -16.6100  -29.3830   23.4810 C   0  0  0  0  0  0
  -16.8700  -28.1620   22.8330 C   0  0  0  0  0  0
  -25.8420  -32.4250   23.8910 C   0  0  2  0  0  0
  -26.3010  -31.6750   25.2020 C   0  0  0  0  0  0
  -25.1540  -31.4300   26.2100 C   0  0  0  0  0  0
  -26.9280  -30.3030   24.8630 C   0  0  0  0  0  0
  -27.4010  -32.4960   25.9160 C   0  0  0  0  0  0
  -25.5030  -33.8240   24.1900 N   0  0  0  0  0  0
  -25.8070  -34.8650   23.4050 C   0  0  0  0  0  0
  -26.4760  -34.7520   22.3740 O   0  0  0  0  0  0
  -24.9070  -33.9830   24.9890 H   0  0  0  0  0  0
  -24.0190  -36.5960   23.0370 C   0  0  0  0  0  0
  -25.2890  -36.2520   23.8320 C   0  0  2  0  0  0
  -27.4020  -37.2360   24.6020 C   0  0  0  0  0  0
  -26.2880  -37.3310   23.6640 N   0  0  0  0  0  0
  -25.8550  -38.2430   23.7760 H   0  0  0  0  0  0
  -29.9189  -21.6131   22.5025 H   0  0  0  0  0  0
  -29.1649  -23.9902   22.0554 H   0  0  0  0  0  0
  -28.8324  -22.8888   17.9006 H   0  0  0  0  0  0
  1  2  1  0  0  0
  1  4  2  0  0  0
  1 91  1  0  0  0
  2  3  2  0  0  0
  2 92  1  0  0  0
  3  5  1  0  0  0
  3 49  1  0  0  0
  4  6  1  0  0  0
  4 19  1  0  0  0
  5  6  2  0  0  0
  5 93  1  0  0  0
  7 20  1  0  0  0
  7 13  1  0  0  0
  7 14  2  0  0  0
  8 13  1  0  0  0
  8  9  1  0  0  0
  9 10  1  0  0  0
 10 11  1  0  0  0
 11 24  1  0  0  0
 11 12  1  0  0  0
 12 13  1  0  0  0
 15 19  1  0  0  0
 15 17  1  0  0  0
 16 18  1  0  0  0
 16 19  1  0  0  0
 17 20  1  0  0  0
 18 20  1  0  0  0
 21 22  2  0  0  0
 21 24  1  0  0  0
 21 46  1  0  0  0
 22 41  1  0  0  0
 22 23  1  0  0  0
 23 26  1  0  0  0
 23 25  2  0  0  0
 24 25  1  0  0  0
 26 27  1  0  0  0
 26 31  2  0  0  0
 27 28  2  0  0  0
 28 29  1  0  0  0
 29 32  1  0  0  0
 29 30  2  0  0  0
 30 31  1  0  0  0
 32 33  1  0  0  0
 33 34  1  0  0  0
 33 38  2  0  0  0
 34 35  2  0  0  0
 35 36  1  0  0  0
 36 40  1  0  0  0
 36 37  2  0  0  0
 37 38  1  0  0  0
 38 39  1  0  0  0
 41 42  1  0  0  0
 41 43  2  0  0  0
 42 45  1  0  0  0
 42 44  1  0  0  0
 46 47  1  0  0  0
 46 48  1  0  0  0
 49 50  1  0  0  0
 50 52  1  0  0  0
 51 62  2  0  0  0
 51 61  1  0  0  0
 51 77  1  0  0  0
 52 57  1  0  0  0
 52 58  2  0  0  0
 53 61  1  0  0  0
 53 63  1  0  0  0
 53 60  1  0  0  0
 54 60  1  0  0  0
 54 56  1  0  0  0
 54 59  2  0  0  0
 55 61  1  0  0  0
 55 56  1  0  0  0
 56 57  2  0  0  0
 58 59  1  0  0  0
 63 65  2  0  0  0
 63 64  1  0  0  0
 64 66  1  0  0  0
 64 68  1  0  0  0
 67 76  2  0  0  0
 67 72  1  0  0  0
 67 71  1  0  0  0
 68 72  1  0  0  0
 68 69  1  0  0  0
 69 70  1  0  0  0
 70 71  1  0  0  0
 72 73  2  0  0  0
 73 74  1  0  0  0
 74 75  2  0  0  0
 75 76  1  0  0  0
 77 82  1  0  0  0
 77 78  1  0  0  0
 78 81  1  0  0  0
 78 79  1  0  0  0
 78 80  1  0  0  0
 82 85  1  0  0  0
 82 83  1  0  0  0
 83 87  1  0  0  0
 83 84  2  0  0  0
 86 87  1  0  0  0
 87 89  1  0  0  0
 88 89  1  0  0  0
 89 90  1  0  0  0
M  ISO  4   7 100  20 100  49 101  50 101
M  END
> <s_m_entry_id>
10

> <s_m_entry_name>
BTK_2023_4_7_sel_all.10

> <TORSDO>
F 19

> <SCORE>
-14.095

> <name>
82

> <ligand_id>
82

> <original_smiles>
[H]c1c([H])c([H])c2c(c1[H])C([H])([H])C([H])([H])C([H])([H])C2([H])N([H])C(=O)C1([H])N(C(=O)C([H])(N([H])C(=O)C([H])(N([H])C([H])([H])[H])C([H])([H])[H])C(C([H])([H])[H])(C([H])([H])[H])C([H])([H])[H])C([H])([H])c2c([H])c(OC([H])([H])c3c(C([H])([H])[H])nc(C4([H])C([H])([H])C([H])([H])N(C(=O)N5C([H])([H])C([H])([H])C([H])([H])C([H])(n6nc(-c7c([H])c([H])c(Oc8c([H])c([H])c(F)c([H])c8F)c([H])c7[H])c(C(=O)N([H])[H])c6N([H])[H])C5([H])[H])C([H])([H])C4([H])[H])c(C4([H])C([H])([H])C4([H])[H])c3C([H])([H])C([H])([H])[H])c([H])c([H])c2C1([H])[H]

> <smiles>
[H]c1c([H])c([H])c2c(c1[H])C([H])([H])C([H])([H])C([H])([H])C2([H])N([H])C(=O)C1([H])N(C(=O)C([H])(N([H])C(=O)C([H])(N([H])C([H])([H])[H])C([H])([H])[H])C(C([H])([H])[H])(C([H])([H])[H])C([H])([H])[H])C([H])([H])c2c([H])c(OC([H])([H])c3c(C([H])([H])[H])nc(C4([H])C([H])([H])C([H])([H])N(C(=O)N5C([H])([H])C([H])([H])C([H])([H])C([H])(n6nc(-c7c([H])c([H])c(Oc8c([H])c([H])c(F)c([H])c8F)c([H])c7[H])c(C(=O)N([H])[H])c6N([H])[H])C5([H])[H])C([H])([H])C4([H])[H])c(C4([H])C([H])([H])C4([H])[H])c3C([H])([H])C([H])([H])[H])c([H])c([H])c2C1([H])[H]

> <Step>
171

> <Scaffold>
O=C(NC1CCCc2ccccc21)C1Cc2ccc(OCc3cnc(C4CCN(C(=O)N5CCCC(n6ccc(-c7ccc(Oc8ccccc8)cc7)n6)C5)CC4)c(C4CC4)c3)cc2CN1

> <SMILES>
CCc1c(COc2ccc3c(c2)CN(C(=O)C(NC(=O)C(C)NC)C(C)(C)C)C(C(=O)NC2CCCc4ccccc42)C3)c(C)nc(C2CCN(C(=O)N3CCCC(n4nc(-c5ccc(Oc6ccc(F)cc6F)cc5)c(C(N)=O)c4N)C3)CC2)c1C1CC1

> <Tanimoto ROCS sim>
0.324004888534546

> <Custom alerts>
1

> <Linker Num Aromatic Rings>
1

> <Linker Effective Length>
1

> <ADV>
0.990631639957428

> <PostDock Tanimoto ROCS sim>
0.995178997516632

> <raw_Linker Num Aromatic Rings>
1

> <raw_Linker Effective Length>
8

> <raw_ADV>
-13.0970001220703

> <total_score>
0.996452629566193

> <ID>
default_job_82

> <PostDock Tanimoto ROCS sim (re-score)>
0.9423168

> <raw_ADV (re-score)>
-14.095

> <Final Intermolecular Energy>
-29.339

> <Final Total Internal Energy>
-2.948

> <Torsional Free Energy>
15.244

> <Unbound System's Energy>
-2.948

> <chiral flag>
0

> <version>
0

> <s_m_Source_Path>
/mnt/home/boqing/Schrodinger_Projects/BTK/BTK_MD

> <s_m_Source_File>
BTK_2023_4_7_sel_all.sdf

> <i_m_Source_File_Index>
10

> <s_m_subgroup_title>
BTK_2023_4_7_sel_all

> <s_m_subgroupid>
BTK_2023_4_7_sel_all

> <b_m_subgroup_collapsed>
0

$$$$
default_job_85_1
                    3D
 Structure written by MMmdl.
 95104  0  0  1  0            999 V2000
  -29.5580  -21.4570   20.8390 C   0  0  0  0  0  0
  -28.6620  -22.1890   18.9490 C   0  0  0  0  0  0
  -29.1500  -22.6540   20.1370 C   0  0  0  0  0  0
  -29.3590  -20.3280   20.0590 C   0  0  0  0  0  0
  -28.7810  -20.8060   18.8800 N   0  0  0  0  0  0
  -30.6940  -14.6530   20.4390 C   0  0  0  0  0  0
  -30.3390  -12.4360   19.3760 C   0  0  0  0  0  0
  -29.4100  -12.5460   18.1530 C   0  0  0  0  0  0
  -27.9440  -12.3740   18.5830 C   0  0  0  0  0  0
  -27.5790  -13.2600   19.8010 C   0  0  2  0  0  0
  -28.6430  -13.1780   20.9240 C   0  0  0  0  0  0
  -29.9450  -13.5020   20.3270 N   0  0  0  0  0  0
  -31.8770  -14.6200   20.0930 O   0  0  0  0  0  0
  -30.6490  -18.4300   21.3610 C   0  0  0  0  0  0
  -28.4930  -17.8830   20.4860 C   0  0  0  0  0  0
  -31.1200  -16.9400   21.2720 C   0  0  0  0  0  0
  -28.8360  -16.3630   20.3530 C   0  0  0  0  0  0
  -29.6870  -18.8230   20.2340 C   0  0  0  0  0  0
  -30.1530  -15.8720   20.8420 N   0  0  0  0  0  0
  -25.1960  -13.8760   20.5260 C   0  0  0  0  0  0
  -24.1260  -13.1090   20.8960 C   0  0  0  0  0  0
  -24.5830  -11.7550   20.8670 C   0  0  0  0  0  0
  -26.2360  -12.9880   20.2940 N   0  0  0  0  0  0
  -25.8730  -11.7090   20.5620 N   0  0  0  0  0  0
  -23.8510  -10.4980   21.0530 C   0  0  0  0  0  0
  -24.2760   -9.5290   21.9870 C   0  0  0  0  0  0
  -23.5440   -8.3340   22.1600 C   0  0  0  0  0  0
  -22.3740   -8.1010   21.3970 C   0  0  0  0  0  0
  -21.9710   -9.0600   20.4510 C   0  0  0  0  0  0
  -22.7030  -10.2450   20.2760 C   0  0  0  0  0  0
  -21.6130   -6.9610   21.4820 O   0  0  0  0  0  0
  -21.5510   -6.2210   22.6350 C   0  0  0  0  0  0
  -21.1000   -6.7770   23.8520 C   0  0  0  0  0  0
  -20.9860   -5.9630   24.9980 C   0  0  0  0  0  0
  -21.3120   -4.5960   24.9260 C   0  0  0  0  0  0
  -21.7580   -4.0400   23.7130 C   0  0  0  0  0  0
  -21.8740   -4.8510   22.5700 C   0  0  0  0  0  0
  -22.2830   -4.3060   21.3990 F   0  0  0  0  0  0
  -21.1950   -3.8120   26.0230 F   0  0  0  0  0  0
  -22.7310  -13.5930   21.1620 C   0  0  0  0  0  0
  -21.9970  -12.9030   22.0280 N   0  0  0  0  0  0
  -22.2990  -14.6200   20.6390 O   0  0  0  0  0  0
  -22.3620  -12.0730   22.4730 H   0  0  0  0  0  0
  -21.0610  -13.2080   22.2510 H   0  0  0  0  0  0
  -25.3610  -15.2460   20.3440 N   0  0  0  0  0  0
  -24.5900  -15.8960   20.4530 H   0  0  0  0  0  0
  -26.2050  -15.6880   20.0070 H   0  0  0  0  0  0
  -29.2800  -24.1510   20.5560 C   0  0  1  0  0  0
  -30.6260  -24.6190   20.1900 N   0  0  0  0  0  0
  -30.7620  -24.5800   19.1950 H   0  0  0  0  0  0
  -31.3240  -24.0460   20.6290 H   0  0  0  0  0  0
  -30.7520  -25.5690   20.4930 H   0  0  0  0  0  0
  -28.1950  -25.1360   19.9740 C   0  0  0  0  0  0
  -28.3580  -26.5670   20.2700 O   0  0  0  0  0  0
  -24.6230  -31.9150   23.2670 C   0  0  0  0  0  0
  -27.2250  -27.3840   20.2000 C   0  0  0  0  0  0
  -23.4120  -30.5140   21.6330 C   0  0  2  0  0  0
  -24.8570  -28.9710   20.1980 C   0  0  0  0  0  0
  -25.9490  -30.8350   21.4460 C   0  0  0  0  0  0
  -26.0240  -29.4630   20.7960 C   0  0  0  0  0  0
  -27.2100  -28.6780   20.7910 C   0  0  0  0  0  0
  -26.0390  -26.9430   19.5650 C   0  0  0  0  0  0
  -24.8640  -27.7150   19.5750 C   0  0  0  0  0  0
  -23.6200  -29.8420   20.2510 C   0  0  0  0  0  0
  -24.6800  -31.1000   22.1740 N   0  0  0  0  0  0
  -23.5360  -32.2190   23.7780 O   0  0  0  0  0  0
  -22.7520  -29.4940   22.5910 C   0  0  0  0  0  0
  -21.4270  -29.3150   22.4610 N   0  0  0  0  0  0
  -23.4310  -28.8670   23.4090 O   0  0  0  0  0  0
  -20.9390  -29.8730   21.7730 H   0  0  0  0  0  0
  -18.0470  -28.1280   22.9560 C   0  0  0  0  0  0
  -20.6060  -28.3770   23.2290 C   0  0  2  0  0  0
  -20.7030  -26.9480   22.6490 C   0  0  0  0  0  0
  -19.6000  -26.6310   21.6330 C   0  0  0  0  0  0
  -18.2180  -26.7800   22.2780 C   0  0  0  0  0  0
  -19.1680  -28.8850   23.3880 C   0  0  0  0  0  0
  -18.9530  -30.1470   23.9830 C   0  0  0  0  0  0
  -17.6500  -30.6530   24.1510 C   0  0  0  0  0  0
  -16.5430  -29.8930   23.7340 C   0  0  0  0  0  0
  -16.7420  -28.6320   23.1430 C   0  0  0  0  0  0
  -25.9110  -32.5300   23.8980 C   0  0  2  0  0  0
  -26.4200  -31.7500   25.1720 C   0  0  0  0  0  0
  -25.3220  -31.5140   26.2350 C   0  0  0  0  0  0
  -27.0000  -30.3730   24.7770 C   0  0  0  0  0  0
  -27.5720  -32.5370   25.8400 C   0  0  0  0  0  0
  -25.6110  -33.9280   24.2330 N   0  0  0  0  0  0
  -25.9240  -34.9780   23.4620 C   0  0  0  0  0  0
  -26.5690  -34.8710   22.4160 O   0  0  0  0  0  0
  -25.0370  -34.0860   25.0470 H   0  0  0  0  0  0
  -24.1760  -36.7600   23.1540 C   0  0  0  0  0  0
  -25.4460  -36.3670   23.9260 C   0  0  2  0  0  0
  -27.6010  -37.2680   24.6810 C   0  0  0  0  0  0
  -26.4690  -37.4230   23.7710 N   0  0  0  0  0  0
  -26.0640  -38.3430   23.9240 H   0  0  0  0  0  0
  -28.4669  -20.3126   18.0566 H   0  0  0  0  0  0
  1  3  1  0  0  0
  1  4  2  0  0  0
  2  3  2  0  0  0
  2  5  1  0  0  0
  3 48  1  0  0  0
  4  5  1  0  0  0
  4 18  1  0  0  0
  5 95  1  0  0  0
  6 19  1  0  0  0
  6 12  1  0  0  0
  6 13  2  0  0  0
  7 12  1  0  0  0
  7  8  1  0  0  0
  8  9  1  0  0  0
  9 10  1  0  0  0
 10 23  1  0  0  0
 10 11  1  0  0  0
 11 12  1  0  0  0
 14 16  1  0  0  0
 14 18  1  0  0  0
 15 17  1  0  0  0
 15 18  1  0  0  0
 16 19  1  0  0  0
 17 19  1  0  0  0
 20 21  2  0  0  0
 20 23  1  0  0  0
 20 45  1  0  0  0
 21 40  1  0  0  0
 21 22  1  0  0  0
 22 25  1  0  0  0
 22 24  2  0  0  0
 23 24  1  0  0  0
 25 26  1  0  0  0
 25 30  2  0  0  0
 26 27  2  0  0  0
 27 28  1  0  0  0
 28 31  1  0  0  0
 28 29  2  0  0  0
 29 30  1  0  0  0
 31 32  1  0  0  0
 32 33  1  0  0  0
 32 37  2  0  0  0
 33 34  2  0  0  0
 34 35  1  0  0  0
 35 39  1  0  0  0
 35 36  2  0  0  0
 36 37  1  0  0  0
 37 38  1  0  0  0
 40 41  1  0  0  0
 40 42  2  0  0  0
 41 44  1  0  0  0
 41 43  1  0  0  0
 45 46  1  0  0  0
 45 47  1  0  0  0
 48 53  1  0  0  0
 48 49  1  0  0  0
 49 52  1  0  0  0
 49 51  1  0  0  0
 49 50  1  0  0  0
 53 54  1  0  0  0
 54 56  1  0  0  0
 55 66  2  0  0  0
 55 65  1  0  0  0
 55 81  1  0  0  0
 56 61  1  0  0  0
 56 62  2  0  0  0
 57 65  1  0  0  0
 57 67  1  0  0  0
 57 64  1  0  0  0
 58 64  1  0  0  0
 58 60  1  0  0  0
 58 63  2  0  0  0
 59 65  1  0  0  0
 59 60  1  0  0  0
 60 61  2  0  0  0
 62 63  1  0  0  0
 67 69  2  0  0  0
 67 68  1  0  0  0
 68 70  1  0  0  0
 68 72  1  0  0  0
 71 80  2  0  0  0
 71 76  1  0  0  0
 71 75  1  0  0  0
 72 76  1  0  0  0
 72 73  1  0  0  0
 73 74  1  0  0  0
 74 75  1  0  0  0
 76 77  2  0  0  0
 77 78  1  0  0  0
 78 79  2  0  0  0
 79 80  1  0  0  0
 81 86  1  0  0  0
 81 82  1  0  0  0
 82 85  1  0  0  0
 82 83  1  0  0  0
 82 84  1  0  0  0
 86 89  1  0  0  0
 86 87  1  0  0  0
 87 91  1  0  0  0
 87 88  2  0  0  0
 90 91  1  0  0  0
 91 93  1  0  0  0
 92 93  1  0  0  0
 93 94  1  0  0  0
M  ISO  4   6 100  19 100  53 101  54 101
M  END
> <s_m_entry_id>
11

> <s_m_entry_name>
BTK_2023_4_7_sel_all.11

> <TORSDO>
F 20

> <SCORE>
-14.572

> <name>
85

> <ligand_id>
85

> <original_smiles>
[H]c1c([H])c([H])c2c(c1[H])C([H])([H])C([H])([H])C([H])([H])C2([H])N([H])C(=O)C1([H])N(C(=O)C([H])(N([H])C(=O)C([H])(N([H])C([H])([H])[H])C([H])([H])[H])C(C([H])([H])[H])(C([H])([H])[H])C([H])([H])[H])C([H])([H])c2c([H])c(OC([H])([H])C([H])(c3c([H])c(C4([H])C([H])([H])C([H])([H])N(C(=O)N5C([H])([H])C([H])([H])C([H])([H])C([H])(n6nc(-c7c([H])c([H])c(Oc8c([H])c([H])c(F)c([H])c8F)c([H])c7[H])c(C(=O)N([H])[H])c6N([H])[H])C5([H])[H])C([H])([H])C4([H])[H])n(C([H])(C([H])([H])[H])C([H])([H])[H])c3[H])[N+]([H])([H])[H])c([H])c([H])c2C1([H])[H]

> <smiles>
[H]c1c([H])c([H])c2c(c1[H])C([H])([H])C([H])([H])C([H])([H])C2([H])N([H])C(=O)C1([H])N(C(=O)C([H])(N([H])C(=O)C([H])(N([H])C([H])([H])[H])C([H])([H])[H])C(C([H])([H])[H])(C([H])([H])[H])C([H])([H])[H])C([H])([H])c2c([H])c(OC([H])([H])C([H])(c3c([H])c(C4([H])C([H])([H])C([H])([H])N(C(=O)N5C([H])([H])C([H])([H])C([H])([H])C([H])(n6nc(-c7c([H])c([H])c(Oc8c([H])c([H])c(F)c([H])c8F)c([H])c7[H])c(C(=O)N([H])[H])c6N([H])[H])C5([H])[H])C([H])([H])C4([H])[H])n(C([H])(C([H])([H])[H])C([H])([H])[H])c3[H])[N+]([H])([H])[H])c([H])c([H])c2C1([H])[H]

> <Step>
116

> <Scaffold>
O=C(NC1CCCc2ccccc21)C1Cc2ccc(OCCc3c[nH]c(C4CCN(C(=O)N5CCCC(n6ccc(-c7ccc(Oc8ccccc8)cc7)n6)C5)CC4)c3)cc2CN1

> <SMILES>
CNC(C)C(=O)NC(C(=O)N1Cc2cc(OCC(N)c3cc(C4CCN(C(=O)N5CCCC(n6nc(-c7ccc(Oc8ccc(F)cc8F)cc7)c(C(N)=O)c6N)C5)CC4)n(C(C)C)c3)ccc2CC1C(=O)NC1CCCc2ccccc21)C(C)(C)C

> <Tanimoto ROCS sim>
0.230424806475639

> <Custom alerts>
1

> <Linker Num Aromatic Rings>
1

> <Linker Effective Length>
1

> <ADV>
0.996048331260681

> <PostDock Tanimoto ROCS sim>
0.989722788333893

> <raw_Linker Num Aromatic Rings>
1

> <raw_Linker Effective Length>
8

> <raw_ADV>
-14.6059999465942

> <total_score>
0.996442794799805

> <ID>
default_job_85

> <PostDock Tanimoto ROCS sim (re-score)>
0.9795161

> <raw_ADV (re-score)>
-14.572

> <Final Intermolecular Energy>
-30.758

> <Final Total Internal Energy>
-3.385

> <Torsional Free Energy>
16.186

> <Unbound System's Energy>
-3.385

> <chiral flag>
0

> <version>
0

> <s_m_Source_Path>
/mnt/home/boqing/Schrodinger_Projects/BTK/BTK_MD

> <s_m_Source_File>
BTK_2023_4_7_sel_all.sdf

> <i_m_Source_File_Index>
11

> <s_m_subgroup_title>
BTK_2023_4_7_sel_all

> <s_m_subgroupid>
BTK_2023_4_7_sel_all

> <b_m_subgroup_collapsed>
0

$$$$
default_job_3_1
                    3D
 Structure written by MMmdl.
 96105  0  0  1  0            999 V2000
  -30.3500  -21.9850   20.5660 C   0  0  0  0  0  0
  -30.6720  -14.5820   20.4460 C   0  0  0  0  0  0
  -30.3530  -12.3900   19.3480 C   0  0  0  0  0  0
  -29.4040  -12.5340   18.1420 C   0  0  0  0  0  0
  -27.9400  -12.3570   18.5880 C   0  0  0  0  0  0
  -27.5860  -13.2330   19.8150 C   0  0  2  0  0  0
  -28.6560  -13.1180   20.9270 C   0  0  0  0  0  0
  -29.9700  -13.4140   20.3350 N   0  0  0  0  0  0
  -31.8500  -14.6650   20.0860 O   0  0  0  0  0  0
  -28.7540  -18.7880   19.0610 C   0  0  0  0  0  0
  -29.1100  -20.1360   19.2890 C   0  0  0  0  0  0
  -30.5440  -19.4650   21.1630 C   0  0  0  0  0  0
  -29.3090  -17.8000   19.8910 C   0  0  0  0  0  0
  -30.1940  -18.1150   20.8970 C   0  0  0  0  0  0
  -29.9850  -20.5000   20.3490 C   0  0  0  0  0  0
  -29.0560  -16.3190   19.8640 C   0  0  0  0  0  0
  -30.6500  -16.8260   21.5670 C   0  0  0  0  0  0
  -29.9930  -15.7010   20.8330 N   0  0  0  0  0  0
  -25.2050  -13.8520   20.5660 C   0  0  0  0  0  0
  -24.1380  -13.0820   20.9400 C   0  0  0  0  0  0
  -24.5960  -11.7300   20.9000 C   0  0  0  0  0  0
  -26.2430  -12.9660   20.3160 N   0  0  0  0  0  0
  -25.8820  -11.6860   20.5790 N   0  0  0  0  0  0
  -23.8700  -10.4690   21.0860 C   0  0  0  0  0  0
  -24.3120   -9.4920   22.0030 C   0  0  0  0  0  0
  -23.5860   -8.2940   22.1750 C   0  0  0  0  0  0
  -22.4050   -8.0650   21.4310 C   0  0  0  0  0  0
  -21.9830   -9.0330   20.5020 C   0  0  0  0  0  0
  -22.7090  -10.2220   20.3270 C   0  0  0  0  0  0
  -21.6510   -6.9210   21.5130 O   0  0  0  0  0  0
  -21.6170   -6.1640   22.6570 C   0  0  0  0  0  0
  -21.1850   -6.6970   23.8920 C   0  0  0  0  0  0
  -21.0990   -5.8660   25.0250 C   0  0  0  0  0  0
  -21.4360   -4.5020   24.9270 C   0  0  0  0  0  0
  -21.8620   -3.9690   23.6980 C   0  0  0  0  0  0
  -21.9490   -4.7980   22.5660 C   0  0  0  0  0  0
  -22.3420   -4.2750   21.3790 F   0  0  0  0  0  0
  -21.3460   -3.7010   26.0150 F   0  0  0  0  0  0
  -22.7440  -13.5650   21.2220 C   0  0  0  0  0  0
  -22.0170  -12.8670   22.0880 N   0  0  0  0  0  0
  -22.3070  -14.5940   20.7090 O   0  0  0  0  0  0
  -22.3850  -12.0370   22.5290 H   0  0  0  0  0  0
  -21.0820  -13.1730   22.3170 H   0  0  0  0  0  0
  -25.3700  -15.2240   20.3970 N   0  0  0  0  0  0
  -24.6020  -15.8750   20.5250 H   0  0  0  0  0  0
  -26.2120  -15.6680   20.0600 H   0  0  0  0  0  0
  -29.1930  -22.9160   20.4160 N   0  0  0  0  0  0
  -28.5260  -22.6840   21.1340 H   0  0  0  0  0  0
  -28.7660  -22.7000   19.5300 H   0  0  0  0  0  0
  -29.4820  -24.3890   20.4560 C   0  0  0  0  0  0
  -28.2450  -25.2480   20.0510 C   0  0  0  0  0  0
  -28.3800  -26.6780   20.2470 O   0  0  0  0  0  0
  -24.5910  -31.9360   23.2700 C   0  0  0  0  0  0
  -27.2140  -27.4380   20.2080 C   0  0  0  0  0  0
  -23.3800  -30.5310   21.6370 C   0  0  2  0  0  0
  -24.8270  -28.9830   20.2160 C   0  0  0  0  0  0
  -25.9130  -30.8650   21.4460 C   0  0  0  0  0  0
  -25.9910  -29.4920   20.8040 C   0  0  0  0  0  0
  -27.1860  -28.7290   20.7940 C   0  0  0  0  0  0
  -26.0250  -26.9570   19.6060 C   0  0  0  0  0  0
  -24.8420  -27.7170   19.6120 C   0  0  0  0  0  0
  -23.5880  -29.8490   20.2600 C   0  0  0  0  0  0
  -24.6470  -31.1220   22.1780 N   0  0  0  0  0  0
  -23.5050  -32.2410   23.7830 O   0  0  0  0  0  0
  -22.7190  -29.5160   22.5990 C   0  0  0  0  0  0
  -21.3940  -29.3380   22.4660 N   0  0  0  0  0  0
  -23.3960  -28.8900   23.4180 O   0  0  0  0  0  0
  -20.9090  -29.8940   21.7760 H   0  0  0  0  0  0
  -18.0100  -28.1650   22.9570 C   0  0  0  0  0  0
  -20.5690  -28.4050   23.2330 C   0  0  2  0  0  0
  -20.6630  -26.9740   22.6550 C   0  0  0  0  0  0
  -19.5600  -26.6610   21.6390 C   0  0  0  0  0  0
  -18.1790  -26.8150   22.2800 C   0  0  0  0  0  0
  -19.1340  -28.9190   23.3910 C   0  0  0  0  0  0
  -18.9230  -30.1830   23.9830 C   0  0  0  0  0  0
  -17.6220  -30.6940   24.1470 C   0  0  0  0  0  0
  -16.5120  -29.9360   23.7300 C   0  0  0  0  0  0
  -16.7070  -28.6740   23.1410 C   0  0  0  0  0  0
  -25.8800  -32.5500   23.9010 C   0  0  2  0  0  0
  -26.3890  -31.7710   25.1760 C   0  0  0  0  0  0
  -25.2920  -31.5350   26.2380 C   0  0  0  0  0  0
  -26.9680  -30.3920   24.7800 C   0  0  0  0  0  0
  -27.5410  -32.5580   25.8460 C   0  0  0  0  0  0
  -25.5830  -33.9500   24.2330 N   0  0  0  0  0  0
  -25.8960  -34.9970   23.4590 C   0  0  0  0  0  0
  -26.5420  -34.8880   22.4130 O   0  0  0  0  0  0
  -25.0090  -34.1100   25.0480 H   0  0  0  0  0  0
  -24.1500  -36.7790   23.1460 C   0  0  0  0  0  0
  -25.4190  -36.3870   23.9200 C   0  0  2  0  0  0
  -27.5760  -37.2860   24.6750 C   0  0  0  0  0  0
  -26.4420  -37.4430   23.7670 N   0  0  0  0  0  0
  -26.0370  -38.3610   23.9250 H   0  0  0  0  0  0
  -29.2615  -15.9342   18.8651 H   0  0  0  0  0  0
  -28.0302  -16.1207   20.1746 H   0  0  0  0  0  0
  -30.3213  -16.8217   22.6062 H   0  0  0  0  0  0
  -31.7324  -16.7342   21.4774 H   0  0  0  0  0  0
  1 15  1  0  0  0
  1 47  1  0  0  0
  2 18  1  0  0  0
  2  8  1  0  0  0
  2  9  2  0  0  0
  3  8  1  0  0  0
  3  4  1  0  0  0
  4  5  1  0  0  0
  5  6  1  0  0  0
  6 22  1  0  0  0
  6  7  1  0  0  0
  7  8  1  0  0  0
 10 11  2  0  0  0
 10 13  1  0  0  0
 11 15  1  0  0  0
 12 14  1  0  0  0
 12 15  2  0  0  0
 13 14  2  0  0  0
 13 16  1  0  0  0
 14 17  1  0  0  0
 16 18  1  0  0  0
 16 93  1  0  0  0
 16 94  1  0  0  0
 17 18  1  0  0  0
 17 95  1  0  0  0
 17 96  1  0  0  0
 19 20  2  0  0  0
 19 22  1  0  0  0
 19 44  1  0  0  0
 20 39  1  0  0  0
 20 21  1  0  0  0
 21 24  1  0  0  0
 21 23  2  0  0  0
 22 23  1  0  0  0
 24 25  1  0  0  0
 24 29  2  0  0  0
 25 26  2  0  0  0
 26 27  1  0  0  0
 27 30  1  0  0  0
 27 28  2  0  0  0
 28 29  1  0  0  0
 30 31  1  0  0  0
 31 32  1  0  0  0
 31 36  2  0  0  0
 32 33  2  0  0  0
 33 34  1  0  0  0
 34 38  1  0  0  0
 34 35  2  0  0  0
 35 36  1  0  0  0
 36 37  1  0  0  0
 39 40  1  0  0  0
 39 41  2  0  0  0
 40 43  1  0  0  0
 40 42  1  0  0  0
 44 45  1  0  0  0
 44 46  1  0  0  0
 47 50  1  0  0  0
 47 48  1  0  0  0
 47 49  1  0  0  0
 50 51  1  0  0  0
 51 52  1  0  0  0
 52 54  1  0  0  0
 53 64  2  0  0  0
 53 63  1  0  0  0
 53 79  1  0  0  0
 54 59  1  0  0  0
 54 60  2  0  0  0
 55 63  1  0  0  0
 55 65  1  0  0  0
 55 62  1  0  0  0
 56 62  1  0  0  0
 56 58  1  0  0  0
 56 61  2  0  0  0
 57 63  1  0  0  0
 57 58  1  0  0  0
 58 59  2  0  0  0
 60 61  1  0  0  0
 65 67  2  0  0  0
 65 66  1  0  0  0
 66 68  1  0  0  0
 66 70  1  0  0  0
 69 78  2  0  0  0
 69 74  1  0  0  0
 69 73  1  0  0  0
 70 74  1  0  0  0
 70 71  1  0  0  0
 71 72  1  0  0  0
 72 73  1  0  0  0
 74 75  2  0  0  0
 75 76  1  0  0  0
 76 77  2  0  0  0
 77 78  1  0  0  0
 79 84  1  0  0  0
 79 80  1  0  0  0
 80 83  1  0  0  0
 80 81  1  0  0  0
 80 82  1  0  0  0
 84 87  1  0  0  0
 84 85  1  0  0  0
 85 89  1  0  0  0
 85 86  2  0  0  0
 88 89  1  0  0  0
 89 91  1  0  0  0
 90 91  1  0  0  0
 91 92  1  0  0  0
M  ISO  4   2 100  18 100  51 101  52 101
M  END
> <s_m_entry_id>
12

> <s_m_entry_name>
BTK_2023_4_7_sel_all.12

> <TORSDO>
F 19

> <SCORE>
-14.496

> <name>
3

> <ligand_id>
3

> <original_smiles>
[H]c1c([H])c([H])c2c(c1[H])C([H])([H])C([H])([H])C([H])([H])C2([H])N([H])C(=O)C1([H])N(C(=O)C([H])(N([H])C(=O)C([H])(N([H])C([H])([H])[H])C([H])([H])[H])C(C([H])([H])[H])(C([H])([H])[H])C([H])([H])[H])C([H])([H])c2c([H])c(OC([H])([H])C([H])([H])[N+]([H])([H])C([H])([H])c3c([H])c([H])c4c(c3[H])C([H])([H])N(C(=O)N3C([H])([H])C([H])([H])C([H])([H])C([H])(n5nc(-c6c([H])c([H])c(Oc7c([H])c([H])c(F)c([H])c7F)c([H])c6[H])c(C(=O)N([H])[H])c5N([H])[H])C3([H])[H])C4([H])[H])c([H])c([H])c2C1([H])[H]

> <smiles>
[H]c1c([H])c([H])c2c(c1[H])C([H])([H])C([H])([H])C([H])([H])C2([H])N([H])C(=O)C1([H])N(C(=O)C([H])(N([H])C(=O)C([H])(N([H])C([H])([H])[H])C([H])([H])[H])C(C([H])([H])[H])(C([H])([H])[H])C([H])([H])[H])C([H])([H])c2c([H])c(OC([H])([H])C([H])([H])[N+]([H])([H])C([H])([H])c3c([H])c([H])c4c(c3[H])C([H])([H])N(C(=O)N3C([H])([H])C([H])([H])C([H])([H])C([H])(n5nc(-c6c([H])c([H])c(Oc7c([H])c([H])c(F)c([H])c7F)c([H])c6[H])c(C(=O)N([H])[H])c5N([H])[H])C3([H])[H])C4([H])[H])c([H])c([H])c2C1([H])[H]

> <Step>
112

> <Scaffold>
O=C(NC1CCCc2ccccc21)C1Cc2ccc(OCCNCc3ccc4c(c3)CN(C(=O)N3CCCC(n5ccc(-c6ccc(Oc7ccccc7)cc6)n5)C3)C4)cc2CN1

> <SMILES>
CNC(C)C(=O)NC(C(=O)N1Cc2cc(OCCNCc3ccc4c(c3)CN(C(=O)N3CCCC(n5nc(-c6ccc(Oc7ccc(F)cc7F)cc6)c(C(N)=O)c5N)C3)C4)ccc2CC1C(=O)NC1CCCc2ccccc21)C(C)(C)C

> <Tanimoto ROCS sim>
0.266791105270386

> <Custom alerts>
1

> <Linker Num Aromatic Rings>
1

> <Linker Effective Length>
1

> <ADV>
0.995812773704529

> <PostDock Tanimoto ROCS sim>
0.991792500019073

> <raw_Linker Num Aromatic Rings>
1

> <raw_Linker Effective Length>
8

> <raw_ADV>
-14.5050001144409

> <total_score>
0.996901333332062

> <ID>
default_job_3

> <PostDock Tanimoto ROCS sim (re-score)>
0.9838124

> <raw_ADV (re-score)>
-14.496

> <Final Intermolecular Energy>
-30.173

> <Final Total Internal Energy>
-2.649

> <Torsional Free Energy>
15.677

> <Unbound System's Energy>
-2.649

> <chiral flag>
0

> <version>
0

> <s_m_Source_Path>
/mnt/home/boqing/Schrodinger_Projects/BTK/BTK_MD

> <s_m_Source_File>
BTK_2023_4_7_sel_all.sdf

> <i_m_Source_File_Index>
12

> <s_m_subgroup_title>
BTK_2023_4_7_sel_all

> <s_m_subgroupid>
BTK_2023_4_7_sel_all

> <b_m_subgroup_collapsed>
0

$$$$
default_job_23_1
                    3D
 Structure written by MMmdl.
 94103  0  0  1  0            999 V2000
  -28.6680  -23.0580   19.5480 C   0  0  0  0  0  0
  -30.8550  -23.1670   21.3490 C   0  0  0  0  0  0
  -29.2710  -21.8760   20.0350 C   0  0  0  0  0  0
  -30.3420  -21.9290   20.9200 C   0  0  0  0  0  0
  -29.1860  -24.3260   19.9370 C   0  0  0  0  0  0
  -30.2880  -24.3670   20.8450 C   0  0  0  0  0  0
  -28.9690  -20.4600   19.7330 C   0  0  0  0  0  0
  -30.8430  -20.5430   21.2860 C   0  0  0  0  0  0
  -30.1370  -19.6020   20.2690 C   0  0  1  0  0  0
  -27.9720  -20.0290   19.1460 O   0  0  0  0  0  0
  -29.6210  -18.3110   20.8080 N   0  0  0  0  0  0
  -28.7810  -18.1340   20.2760 H   0  0  0  0  0  0
  -29.3470  -18.4350   21.7690 H   0  0  0  0  0  0
  -30.5480  -17.1460   20.6520 C   0  0  0  0  0  0
  -29.9770  -15.7700   21.1310 C   0  0  0  0  0  0
  -30.6870  -14.5340   20.5070 C   0  0  0  0  0  0
  -30.3960  -12.3850   19.3180 C   0  0  0  0  0  0
  -29.4610  -12.6100   18.1120 C   0  0  0  0  0  0
  -27.9830  -12.4690   18.5300 C   0  0  0  0  0  0
  -27.6420  -13.2920   19.8000 C   0  0  2  0  0  0
  -28.6910  -13.0600   20.9120 C   0  0  0  0  0  0
  -30.0190  -13.3560   20.3580 N   0  0  0  0  0  0
  -31.8210  -14.6950   20.0440 O   0  0  0  0  0  0
  -25.2380  -13.9050   20.4850 C   0  0  0  0  0  0
  -24.1660  -13.1360   20.8490 C   0  0  0  0  0  0
  -24.6270  -11.7840   20.8310 C   0  0  0  0  0  0
  -26.2850  -13.0220   20.2690 N   0  0  0  0  0  0
  -25.9200  -11.7420   20.5350 N   0  0  0  0  0  0
  -23.8980  -10.5240   21.0200 C   0  0  0  0  0  0
  -24.3200   -9.5620   21.9660 C   0  0  0  0  0  0
  -23.5920   -8.3660   22.1430 C   0  0  0  0  0  0
  -22.4310   -8.1220   21.3730 C   0  0  0  0  0  0
  -22.0290   -9.0710   20.4170 C   0  0  0  0  0  0
  -22.7570  -10.2590   20.2390 C   0  0  0  0  0  0
  -21.6760   -6.9760   21.4590 O   0  0  0  0  0  0
  -21.6110   -6.2420   22.6160 C   0  0  0  0  0  0
  -21.1590   -6.8050   23.8300 C   0  0  0  0  0  0
  -21.0420   -5.9970   24.9790 C   0  0  0  0  0  0
  -21.3640   -4.6280   24.9140 C   0  0  0  0  0  0
  -21.8090   -4.0650   23.7050 C   0  0  0  0  0  0
  -21.9290   -4.8710   22.5580 C   0  0  0  0  0  0
  -22.3370   -4.3200   21.3900 F   0  0  0  0  0  0
  -21.2450   -3.8500   26.0150 F   0  0  0  0  0  0
  -22.7670  -13.6160   21.1040 C   0  0  0  0  0  0
  -22.0270  -12.9200   21.9610 N   0  0  0  0  0  0
  -22.3360  -14.6420   20.5780 O   0  0  0  0  0  0
  -22.3880  -12.0900   22.4080 H   0  0  0  0  0  0
  -21.0870  -13.2240   22.1750 H   0  0  0  0  0  0
  -25.4060  -15.2740   20.2990 N   0  0  0  0  0  0
  -24.6340  -15.9270   20.3840 H   0  0  0  0  0  0
  -26.2480  -15.7030   19.9420 H   0  0  0  0  0  0
  -28.6310  -25.5980   19.2640 C   0  0  0  0  0  0
  -28.3860  -26.7180   20.1410 O   0  0  0  0  0  0
  -24.5810  -31.9040   23.2120 C   0  0  0  0  0  0
  -27.1970  -27.4310   20.1060 C   0  0  0  0  0  0
  -23.3620  -30.4950   21.5890 C   0  0  2  0  0  0
  -24.8000  -28.9550   20.1510 C   0  0  0  0  0  0
  -25.8900  -30.8420   21.3750 C   0  0  0  0  0  0
  -25.9650  -29.4710   20.7300 C   0  0  0  0  0  0
  -27.1610  -28.7140   20.7080 C   0  0  0  0  0  0
  -26.0000  -26.9280   19.5430 C   0  0  0  0  0  0
  -24.8130  -27.6830   19.5590 C   0  0  0  0  0  0
  -23.5590  -29.8160   20.2090 C   0  0  0  0  0  0
  -24.6300  -31.0910   22.1190 N   0  0  0  0  0  0
  -23.4990  -32.2020   23.7370 O   0  0  0  0  0  0
  -22.7170  -29.4750   22.5550 C   0  0  0  0  0  0
  -21.3910  -29.2920   22.4390 N   0  0  0  0  0  0
  -23.4060  -28.8480   23.3660 O   0  0  0  0  0  0
  -20.8960  -29.8510   21.7560 H   0  0  0  0  0  0
  -18.0200  -28.0990   22.9580 C   0  0  0  0  0  0
  -20.5790  -28.3550   23.2140 C   0  0  2  0  0  0
  -20.6770  -26.9240   22.6370 C   0  0  0  0  0  0
  -19.5680  -26.6030   21.6290 C   0  0  0  0  0  0
  -18.1900  -26.7500   22.2810 C   0  0  0  0  0  0
  -19.1420  -28.8600   23.3820 C   0  0  0  0  0  0
  -18.9280  -30.1240   23.9730 C   0  0  0  0  0  0
  -17.6250  -30.6280   24.1460 C   0  0  0  0  0  0
  -16.5180  -29.8640   23.7400 C   0  0  0  0  0  0
  -16.7160  -28.6010   23.1520 C   0  0  0  0  0  0
  -25.8730  -32.5240   23.8310 C   0  0  2  0  0  0
  -26.3980  -31.7480   25.1020 C   0  0  0  0  0  0
  -25.3120  -31.5100   26.1750 C   0  0  0  0  0  0
  -26.9770  -30.3710   24.7010 C   0  0  0  0  0  0
  -27.5550  -32.5380   25.7580 C   0  0  0  0  0  0
  -25.5720  -33.9220   24.1670 N   0  0  0  0  0  0
  -25.8990  -34.9730   23.4040 C   0  0  0  0  0  0
  -26.5600  -34.8680   22.3660 O   0  0  0  0  0  0
  -24.9850  -34.0780   24.9730 H   0  0  0  0  0  0
  -24.1730  -36.7690   23.0570 C   0  0  0  0  0  0
  -25.4170  -36.3620   23.8640 C   0  0  2  0  0  0
  -27.5540  -37.2400   24.6900 C   0  0  0  0  0  0
  -26.4510  -37.4110   23.7490 N   0  0  0  0  0  0
  -26.0480  -38.3330   23.8980 H   0  0  0  0  0  0
  -30.6897  -25.3228   21.1476 H   0  0  0  0  0  0
  1  5  2  0  0  0
  1  3  1  0  0  0
  2  4  1  0  0  0
  2  6  2  0  0  0
  3  4  2  0  0  0
  3  7  1  0  0  0
  4  8  1  0  0  0
  5  6  1  0  0  0
  5 52  1  0  0  0
  6 94  1  0  0  0
  7  9  1  0  0  0
  7 10  2  0  0  0
  8  9  1  0  0  0
  9 11  1  0  0  0
 11 13  1  0  0  0
 11 12  1  0  0  0
 11 14  1  0  0  0
 14 15  1  0  0  0
 15 16  1  0  0  0
 16 22  1  0  0  0
 16 23  2  0  0  0
 17 22  1  0  0  0
 17 18  1  0  0  0
 18 19  1  0  0  0
 19 20  1  0  0  0
 20 27  1  0  0  0
 20 21  1  0  0  0
 21 22  1  0  0  0
 24 25  2  0  0  0
 24 27  1  0  0  0
 24 49  1  0  0  0
 25 44  1  0  0  0
 25 26  1  0  0  0
 26 29  1  0  0  0
 26 28  2  0  0  0
 27 28  1  0  0  0
 29 30  1  0  0  0
 29 34  2  0  0  0
 30 31  2  0  0  0
 31 32  1  0  0  0
 32 35  1  0  0  0
 32 33  2  0  0  0
 33 34  1  0  0  0
 35 36  1  0  0  0
 36 37  1  0  0  0
 36 41  2  0  0  0
 37 38  2  0  0  0
 38 39  1  0  0  0
 39 43  1  0  0  0
 39 40  2  0  0  0
 40 41  1  0  0  0
 41 42  1  0  0  0
 44 45  1  0  0  0
 44 46  2  0  0  0
 45 48  1  0  0  0
 45 47  1  0  0  0
 49 50  1  0  0  0
 49 51  1  0  0  0
 52 53  1  0  0  0
 53 55  1  0  0  0
 54 65  2  0  0  0
 54 64  1  0  0  0
 54 80  1  0  0  0
 55 60  1  0  0  0
 55 61  2  0  0  0
 56 64  1  0  0  0
 56 66  1  0  0  0
 56 63  1  0  0  0
 57 63  1  0  0  0
 57 59  1  0  0  0
 57 62  2  0  0  0
 58 64  1  0  0  0
 58 59  1  0  0  0
 59 60  2  0  0  0
 61 62  1  0  0  0
 66 68  2  0  0  0
 66 67  1  0  0  0
 67 69  1  0  0  0
 67 71  1  0  0  0
 70 79  2  0  0  0
 70 75  1  0  0  0
 70 74  1  0  0  0
 71 75  1  0  0  0
 71 72  1  0  0  0
 72 73  1  0  0  0
 73 74  1  0  0  0
 75 76  2  0  0  0
 76 77  1  0  0  0
 77 78  2  0  0  0
 78 79  1  0  0  0
 80 85  1  0  0  0
 80 81  1  0  0  0
 81 84  1  0  0  0
 81 82  1  0  0  0
 81 83  1  0  0  0
 85 88  1  0  0  0
 85 86  1  0  0  0
 86 90  1  0  0  0
 86 87  2  0  0  0
 89 90  1  0  0  0
 90 92  1  0  0  0
 91 92  1  0  0  0
 92 93  1  0  0  0
M  ISO  4  15 100  16 100  52 101  53 101
M  END
> <s_m_entry_id>
14

> <s_m_entry_name>
BTK_2023_4_7_sel_all.14

> <TORSDO>
F 20

> <SCORE>
-14.189

> <name>
23

> <ligand_id>
23

> <original_smiles>
[H]c1c([H])c([H])c2c(c1[H])C([H])([H])C([H])([H])C([H])([H])C2([H])N([H])C(=O)C1([H])N(C(=O)C([H])(N([H])C(=O)C([H])(N([H])C([H])([H])[H])C([H])([H])[H])C(C([H])([H])[H])(C([H])([H])[H])C([H])([H])[H])C([H])([H])c2c([H])c(OC([H])([H])c3c([H])c4c(c([H])c3C([H])([H])[H])C([H])([H])C([H])([N+]([H])([H])C([H])([H])C([H])([H])C(=O)N3C([H])([H])C([H])([H])C([H])([H])C([H])(n5nc(-c6c([H])c([H])c(Oc7c([H])c([H])c(F)c([H])c7F)c([H])c6[H])c(C(=O)N([H])[H])c5N([H])[H])C3([H])[H])C4=O)c([H])c([H])c2C1([H])[H]

> <smiles>
[H]c1c([H])c([H])c2c(c1[H])C([H])([H])C([H])([H])C([H])([H])C2([H])N([H])C(=O)C1([H])N(C(=O)C([H])(N([H])C(=O)C([H])(N([H])C([H])([H])[H])C([H])([H])[H])C(C([H])([H])[H])(C([H])([H])[H])C([H])([H])[H])C([H])([H])c2c([H])c(OC([H])([H])c3c([H])c4c(c([H])c3C([H])([H])[H])C([H])([H])C([H])([N+]([H])([H])C([H])([H])C([H])([H])C(=O)N3C([H])([H])C([H])([H])C([H])([H])C([H])(n5nc(-c6c([H])c([H])c(Oc7c([H])c([H])c(F)c([H])c7F)c([H])c6[H])c(C(=O)N([H])[H])c5N([H])[H])C3([H])[H])C4=O)c([H])c([H])c2C1([H])[H]

> <Step>
197

> <Scaffold>
O=C(NC1CCCc2ccccc21)C1Cc2ccc(OCc3ccc4c(c3)C(=O)C(NCCC(=O)N3CCCC(n5ccc(-c6ccc(Oc7ccccc7)cc6)n5)C3)C4)cc2CN1

> <SMILES>
CNC(C)C(=O)NC(C(=O)N1Cc2cc(OCc3cc4c(cc3C)CC(NCCC(=O)N3CCCC(n5nc(-c6ccc(Oc7ccc(F)cc7F)cc6)c(C(N)=O)c5N)C3)C4=O)ccc2CC1C(=O)NC1CCCc2ccccc21)C(C)(C)C

> <Tanimoto ROCS sim>
0.363841444253922

> <Custom alerts>
1

> <Linker Num Aromatic Rings>
1

> <Linker Effective Length>
1

> <ADV>
0.994871199131012

> <PostDock Tanimoto ROCS sim>
0.990931868553162

> <raw_Linker Num Aromatic Rings>
1

> <raw_Linker Effective Length>
8

> <raw_ADV>
-14.1510000228882

> <total_score>
0.996450781822205

> <ID>
default_job_23

> <PostDock Tanimoto ROCS sim (re-score)>
0.9820852

> <raw_ADV (re-score)>
-14.189

> <Final Intermolecular Energy>
-30.364

> <Final Total Internal Energy>
-2.625

> <Torsional Free Energy>
16.175

> <Unbound System's Energy>
-2.625

> <chiral flag>
0

> <version>
0

> <s_m_Source_Path>
/mnt/home/boqing/Schrodinger_Projects/BTK/BTK_MD

> <s_m_Source_File>
BTK_2023_4_7_sel_all.sdf

> <i_m_Source_File_Index>
14

> <s_m_subgroup_title>
BTK_2023_4_7_sel_all

> <s_m_subgroupid>
BTK_2023_4_7_sel_all

> <b_m_subgroup_collapsed>
0

$$$$
default_job_11_1
                    3D
 Structure written by MMmdl.
 96105  0  0  1  0            999 V2000
  -30.3500  -21.9850   20.5660 C   0  0  0  0  0  0
  -30.6720  -14.5820   20.4460 C   0  0  0  0  0  0
  -30.3530  -12.3900   19.3480 C   0  0  0  0  0  0
  -29.4040  -12.5340   18.1420 C   0  0  0  0  0  0
  -27.9400  -12.3570   18.5880 C   0  0  0  0  0  0
  -27.5860  -13.2330   19.8150 C   0  0  2  0  0  0
  -28.6560  -13.1180   20.9270 C   0  0  0  0  0  0
  -29.9700  -13.4140   20.3350 N   0  0  0  0  0  0
  -31.8500  -14.6650   20.0860 O   0  0  0  0  0  0
  -28.7540  -18.7880   19.0610 C   0  0  0  0  0  0
  -29.1100  -20.1360   19.2890 C   0  0  0  0  0  0
  -30.5440  -19.4650   21.1630 C   0  0  0  0  0  0
  -29.3090  -17.8000   19.8910 C   0  0  0  0  0  0
  -30.1940  -18.1150   20.8970 C   0  0  0  0  0  0
  -29.9850  -20.5000   20.3490 C   0  0  0  0  0  0
  -29.0560  -16.3190   19.8640 C   0  0  0  0  0  0
  -30.6500  -16.8260   21.5670 C   0  0  0  0  0  0
  -29.9930  -15.7010   20.8330 N   0  0  0  0  0  0
  -25.2050  -13.8520   20.5660 C   0  0  0  0  0  0
  -24.1380  -13.0820   20.9400 C   0  0  0  0  0  0
  -24.5960  -11.7300   20.9000 C   0  0  0  0  0  0
  -26.2430  -12.9660   20.3160 N   0  0  0  0  0  0
  -25.8820  -11.6860   20.5790 N   0  0  0  0  0  0
  -23.8700  -10.4690   21.0860 C   0  0  0  0  0  0
  -24.3120   -9.4920   22.0030 C   0  0  0  0  0  0
  -23.5860   -8.2940   22.1750 C   0  0  0  0  0  0
  -22.4050   -8.0650   21.4310 C   0  0  0  0  0  0
  -21.9830   -9.0330   20.5020 C   0  0  0  0  0  0
  -22.7090  -10.2220   20.3270 C   0  0  0  0  0  0
  -21.6510   -6.9210   21.5130 O   0  0  0  0  0  0
  -21.6170   -6.1640   22.6570 C   0  0  0  0  0  0
  -21.1850   -6.6970   23.8920 C   0  0  0  0  0  0
  -21.0990   -5.8660   25.0250 C   0  0  0  0  0  0
  -21.4360   -4.5020   24.9270 C   0  0  0  0  0  0
  -21.8620   -3.9690   23.6980 C   0  0  0  0  0  0
  -21.9490   -4.7980   22.5660 C   0  0  0  0  0  0
  -22.3420   -4.2750   21.3790 F   0  0  0  0  0  0
  -21.3460   -3.7010   26.0150 F   0  0  0  0  0  0
  -22.7440  -13.5650   21.2220 C   0  0  0  0  0  0
  -22.0170  -12.8670   22.0880 N   0  0  0  0  0  0
  -22.3070  -14.5940   20.7090 O   0  0  0  0  0  0
  -22.3850  -12.0370   22.5290 H   0  0  0  0  0  0
  -21.0820  -13.1730   22.3170 H   0  0  0  0  0  0
  -25.3700  -15.2240   20.3970 N   0  0  0  0  0  0
  -24.6020  -15.8750   20.5250 H   0  0  0  0  0  0
  -26.2120  -15.6680   20.0600 H   0  0  0  0  0  0
  -29.1930  -22.9160   20.4160 N   0  0  0  0  0  0
  -28.5260  -22.6840   21.1340 H   0  0  0  0  0  0
  -28.7660  -22.7000   19.5300 H   0  0  0  0  0  0
  -29.4820  -24.3890   20.4560 C   0  0  0  0  0  0
  -28.2450  -25.2480   20.0510 C   0  0  0  0  0  0
  -28.3800  -26.6780   20.2470 O   0  0  0  0  0  0
  -24.5910  -31.9360   23.2700 C   0  0  0  0  0  0
  -27.2140  -27.4380   20.2080 C   0  0  0  0  0  0
  -23.3800  -30.5310   21.6370 C   0  0  2  0  0  0
  -24.8270  -28.9830   20.2160 C   0  0  0  0  0  0
  -25.9130  -30.8650   21.4460 C   0  0  0  0  0  0
  -25.9910  -29.4920   20.8040 C   0  0  0  0  0  0
  -27.1860  -28.7290   20.7940 C   0  0  0  0  0  0
  -26.0250  -26.9570   19.6060 C   0  0  0  0  0  0
  -24.8420  -27.7170   19.6120 C   0  0  0  0  0  0
  -23.5880  -29.8490   20.2600 C   0  0  0  0  0  0
  -24.6470  -31.1220   22.1780 N   0  0  0  0  0  0
  -23.5050  -32.2410   23.7830 O   0  0  0  0  0  0
  -22.7190  -29.5160   22.5990 C   0  0  0  0  0  0
  -21.3940  -29.3380   22.4660 N   0  0  0  0  0  0
  -23.3960  -28.8900   23.4180 O   0  0  0  0  0  0
  -20.9090  -29.8940   21.7760 H   0  0  0  0  0  0
  -18.0100  -28.1650   22.9570 C   0  0  0  0  0  0
  -20.5690  -28.4050   23.2330 C   0  0  2  0  0  0
  -20.6630  -26.9740   22.6550 C   0  0  0  0  0  0
  -19.5600  -26.6610   21.6390 C   0  0  0  0  0  0
  -18.1790  -26.8150   22.2800 C   0  0  0  0  0  0
  -19.1340  -28.9190   23.3910 C   0  0  0  0  0  0
  -18.9230  -30.1830   23.9830 C   0  0  0  0  0  0
  -17.6220  -30.6940   24.1470 C   0  0  0  0  0  0
  -16.5120  -29.9360   23.7300 C   0  0  0  0  0  0
  -16.7070  -28.6740   23.1410 C   0  0  0  0  0  0
  -25.8800  -32.5500   23.9010 C   0  0  2  0  0  0
  -26.3890  -31.7710   25.1760 C   0  0  0  0  0  0
  -25.2920  -31.5350   26.2380 C   0  0  0  0  0  0
  -26.9680  -30.3920   24.7800 C   0  0  0  0  0  0
  -27.5410  -32.5580   25.8460 C   0  0  0  0  0  0
  -25.5830  -33.9500   24.2330 N   0  0  0  0  0  0
  -25.8960  -34.9970   23.4590 C   0  0  0  0  0  0
  -26.5420  -34.8880   22.4130 O   0  0  0  0  0  0
  -25.0090  -34.1100   25.0480 H   0  0  0  0  0  0
  -24.1500  -36.7790   23.1460 C   0  0  0  0  0  0
  -25.4190  -36.3870   23.9200 C   0  0  2  0  0  0
  -27.5760  -37.2860   24.6750 C   0  0  0  0  0  0
  -26.4420  -37.4430   23.7670 N   0  0  0  0  0  0
  -26.0370  -38.3610   23.9250 H   0  0  0  0  0  0
  -29.2615  -15.9342   18.8651 H   0  0  0  0  0  0
  -28.0302  -16.1207   20.1746 H   0  0  0  0  0  0
  -30.3213  -16.8217   22.6062 H   0  0  0  0  0  0
  -31.7324  -16.7342   21.4774 H   0  0  0  0  0  0
  1 15  1  0  0  0
  1 47  1  0  0  0
  2 18  1  0  0  0
  2  8  1  0  0  0
  2  9  2  0  0  0
  3  8  1  0  0  0
  3  4  1  0  0  0
  4  5  1  0  0  0
  5  6  1  0  0  0
  6 22  1  0  0  0
  6  7  1  0  0  0
  7  8  1  0  0  0
 10 11  2  0  0  0
 10 13  1  0  0  0
 11 15  1  0  0  0
 12 14  1  0  0  0
 12 15  2  0  0  0
 13 14  2  0  0  0
 13 16  1  0  0  0
 14 17  1  0  0  0
 16 18  1  0  0  0
 16 93  1  0  0  0
 16 94  1  0  0  0
 17 18  1  0  0  0
 17 95  1  0  0  0
 17 96  1  0  0  0
 19 20  2  0  0  0
 19 22  1  0  0  0
 19 44  1  0  0  0
 20 39  1  0  0  0
 20 21  1  0  0  0
 21 24  1  0  0  0
 21 23  2  0  0  0
 22 23  1  0  0  0
 24 25  1  0  0  0
 24 29  2  0  0  0
 25 26  2  0  0  0
 26 27  1  0  0  0
 27 30  1  0  0  0
 27 28  2  0  0  0
 28 29  1  0  0  0
 30 31  1  0  0  0
 31 32  1  0  0  0
 31 36  2  0  0  0
 32 33  2  0  0  0
 33 34  1  0  0  0
 34 38  1  0  0  0
 34 35  2  0  0  0
 35 36  1  0  0  0
 36 37  1  0  0  0
 39 40  1  0  0  0
 39 41  2  0  0  0
 40 43  1  0  0  0
 40 42  1  0  0  0
 44 45  1  0  0  0
 44 46  1  0  0  0
 47 50  1  0  0  0
 47 48  1  0  0  0
 47 49  1  0  0  0
 50 51  1  0  0  0
 51 52  1  0  0  0
 52 54  1  0  0  0
 53 64  2  0  0  0
 53 63  1  0  0  0
 53 79  1  0  0  0
 54 59  1  0  0  0
 54 60  2  0  0  0
 55 63  1  0  0  0
 55 65  1  0  0  0
 55 62  1  0  0  0
 56 62  1  0  0  0
 56 58  1  0  0  0
 56 61  2  0  0  0
 57 63  1  0  0  0
 57 58  1  0  0  0
 58 59  2  0  0  0
 60 61  1  0  0  0
 65 67  2  0  0  0
 65 66  1  0  0  0
 66 68  1  0  0  0
 66 70  1  0  0  0
 69 78  2  0  0  0
 69 74  1  0  0  0
 69 73  1  0  0  0
 70 74  1  0  0  0
 70 71  1  0  0  0
 71 72  1  0  0  0
 72 73  1  0  0  0
 74 75  2  0  0  0
 75 76  1  0  0  0
 76 77  2  0  0  0
 77 78  1  0  0  0
 79 84  1  0  0  0
 79 80  1  0  0  0
 80 83  1  0  0  0
 80 81  1  0  0  0
 80 82  1  0  0  0
 84 87  1  0  0  0
 84 85  1  0  0  0
 85 89  1  0  0  0
 85 86  2  0  0  0
 88 89  1  0  0  0
 89 91  1  0  0  0
 90 91  1  0  0  0
 91 92  1  0  0  0
M  ISO  4   2 100  18 100  51 101  52 101
M  END
> <s_m_entry_id>
20

> <s_m_entry_name>
BTK_2023_4_7_sel_all.20

> <TORSDO>
F 19

> <SCORE>
-14.496

> <name>
11

> <ligand_id>
11

> <original_smiles>
[H]c1c([H])c([H])c2c(c1[H])C([H])([H])C([H])([H])C([H])([H])C2([H])N([H])C(=O)C1([H])N(C(=O)C([H])(N([H])C(=O)C([H])(N([H])C([H])([H])[H])C([H])([H])[H])C(C([H])([H])[H])(C([H])([H])[H])C([H])([H])[H])C([H])([H])c2c([H])c(OC([H])([H])C([H])([H])[N+]([H])([H])C([H])([H])c3c([H])c([H])c4c(c3[H])C([H])([H])N(C(=O)N3C([H])([H])C([H])([H])C([H])([H])C([H])(n5nc(-c6c([H])c([H])c(Oc7c([H])c([H])c(F)c([H])c7F)c([H])c6[H])c(C(=O)N([H])[H])c5N([H])[H])C3([H])[H])C4([H])[H])c([H])c([H])c2C1([H])[H]

> <smiles>
[H]c1c([H])c([H])c2c(c1[H])C([H])([H])C([H])([H])C([H])([H])C2([H])N([H])C(=O)C1([H])N(C(=O)C([H])(N([H])C(=O)C([H])(N([H])C([H])([H])[H])C([H])([H])[H])C(C([H])([H])[H])(C([H])([H])[H])C([H])([H])[H])C([H])([H])c2c([H])c(OC([H])([H])C([H])([H])[N+]([H])([H])C([H])([H])c3c([H])c([H])c4c(c3[H])C([H])([H])N(C(=O)N3C([H])([H])C([H])([H])C([H])([H])C([H])(n5nc(-c6c([H])c([H])c(Oc7c([H])c([H])c(F)c([H])c7F)c([H])c6[H])c(C(=O)N([H])[H])c5N([H])[H])C3([H])[H])C4([H])[H])c([H])c([H])c2C1([H])[H]

> <Step>
41

> <Scaffold>
O=C(NC1CCCc2ccccc21)C1Cc2ccc(OCCNCc3ccc4c(c3)CN(C(=O)N3CCCC(n5ccc(-c6ccc(Oc7ccccc7)cc6)n5)C3)C4)cc2CN1

> <SMILES>
CNC(C)C(=O)NC(C(=O)N1Cc2cc(OCCNCc3ccc4c(c3)CN(C(=O)N3CCCC(n5nc(-c6ccc(Oc7ccc(F)cc7F)cc6)c(C(N)=O)c5N)C3)C4)ccc2CC1C(=O)NC1CCCc2ccccc21)C(C)(C)C

> <Tanimoto ROCS sim>
0.266791105270386

> <Custom alerts>
1

> <Linker Num Aromatic Rings>
1

> <Linker Effective Length>
1

> <ADV>
0.995812773704529

> <PostDock Tanimoto ROCS sim>
0.991792500019073

> <raw_Linker Num Aromatic Rings>
1

> <raw_Linker Effective Length>
8

> <raw_ADV>
-14.5050001144409

> <total_score>
0.996901333332062

> <ID>
default_job_11

> <PostDock Tanimoto ROCS sim (re-score)>
0.9838124

> <raw_ADV (re-score)>
-14.496

> <Final Intermolecular Energy>
-30.173

> <Final Total Internal Energy>
-2.649

> <Torsional Free Energy>
15.677

> <Unbound System's Energy>
-2.649

> <chiral flag>
0

> <version>
0

> <s_m_Source_Path>
/mnt/home/boqing/Schrodinger_Projects/BTK/BTK_MD

> <s_m_Source_File>
BTK_2023_4_7_sel_all.sdf

> <i_m_Source_File_Index>
20

> <s_m_subgroup_title>
BTK_2023_4_7_sel_all

> <s_m_subgroupid>
BTK_2023_4_7_sel_all

> <b_m_subgroup_collapsed>
0

$$$$
default_job_14_1
                    3D
 Structure written by MMmdl.
 90 98  0  0  1  0            999 V2000
  -32.3280  -21.0230   21.3980 C   0  0  0  0  0  0
  -31.4280  -22.0020   20.9300 C   0  0  0  0  0  0
  -31.9150  -19.6840   21.5500 C   0  0  0  0  0  0
  -30.1020  -21.6500   20.5960 C   0  0  0  0  0  0
  -30.5970  -19.2950   21.2120 C   0  0  0  0  0  0
  -29.7000  -20.2890   20.7220 C   0  0  0  0  0  0
  -29.0940  -22.7030   20.0910 C   0  0  0  0  0  0
  -29.4460  -24.2280   20.2200 C   0  0  0  0  0  0
  -28.2350  -25.1730   19.9240 C   0  0  0  0  0  0
  -28.3930  -26.5990   20.2010 O   0  0  0  0  0  0
  -24.6270  -31.9050   23.2520 C   0  0  0  0  0  0
  -27.2400  -27.3890   20.1790 C   0  0  0  0  0  0
  -23.4180  -30.5010   21.6210 C   0  0  2  0  0  0
  -24.8650  -28.9660   20.1840 C   0  0  0  0  0  0
  -25.9550  -30.8300   21.4330 C   0  0  0  0  0  0
  -26.0330  -29.4610   20.7800 C   0  0  0  0  0  0
  -27.2220  -28.6820   20.7700 C   0  0  0  0  0  0
  -26.0430  -26.9270   19.5830 C   0  0  0  0  0  0
  -24.8700  -27.7010   19.5790 C   0  0  0  0  0  0
  -23.6250  -29.8310   20.2380 C   0  0  0  0  0  0
  -24.6850  -31.0920   22.1590 N   0  0  0  0  0  0
  -23.5430  -32.2000   23.7730 O   0  0  0  0  0  0
  -22.7650  -29.4780   22.5820 C   0  0  0  0  0  0
  -21.4380  -29.2950   22.4600 N   0  0  0  0  0  0
  -23.4500  -28.8500   23.3950 O   0  0  0  0  0  0
  -20.9430  -29.8570   21.7800 H   0  0  0  0  0  0
  -18.0640  -28.0870   22.9510 C   0  0  0  0  0  0
  -20.6200  -28.3540   23.2290 C   0  0  2  0  0  0
  -20.7270  -26.9210   22.6550 C   0  0  0  0  0  0
  -19.6290  -26.5950   21.6380 C   0  0  0  0  0  0
  -18.2440  -26.7390   22.2750 C   0  0  0  0  0  0
  -19.1780  -28.8540   23.3830 C   0  0  0  0  0  0
  -18.9530  -30.1180   23.9700 C   0  0  0  0  0  0
  -17.6450  -30.6150   24.1300 C   0  0  0  0  0  0
  -16.5440  -29.8430   23.7180 C   0  0  0  0  0  0
  -16.7560  -28.5820   23.1330 C   0  0  0  0  0  0
  -25.9130  -32.5290   23.8790 C   0  0  1  0  0  0
  -25.6110  -33.9260   24.2150 N   0  0  0  0  0  0
  -25.9270  -34.9790   23.4500 C   0  0  0  0  0  0
  -26.5760  -34.8760   22.4060 O   0  0  0  0  0  0
  -25.0320  -34.0790   25.0280 H   0  0  0  0  0  0
  -24.1810  -36.7620   23.1340 C   0  0  0  0  0  0
  -25.4440  -36.3670   23.9160 C   0  0  2  0  0  0
  -27.5980  -37.2630   24.6810 C   0  0  0  0  0  0
  -26.4670  -37.4260   23.7730 N   0  0  0  0  0  0
  -26.0580  -38.3420   23.9400 H   0  0  0  0  0  0
  -26.4310  -31.7570   25.1560 C   0  0  0  0  0  0
  -25.3400  -31.5230   26.2260 C   0  0  0  0  0  0
  -27.0160  -30.3810   24.7650 C   0  0  0  0  0  0
  -27.5840  -32.5520   25.8170 C   0  0  0  0  0  0
  -30.1310  -18.0000   21.4020 O   0  0  0  0  0  0
  -31.0420  -16.9050   21.2330 C   0  0  0  0  0  0
  -30.3070  -15.5350   21.3850 C   0  0  0  0  0  0
  -30.7600  -14.4440   20.3880 C   0  0  0  0  0  0
  -30.3320  -12.3620   19.1190 C   0  0  0  0  0  0
  -29.3900  -12.6480   17.9380 C   0  0  0  0  0  0
  -27.9150  -12.5370   18.3780 C   0  0  0  0  0  0
  -27.6190  -13.3060   19.6970 C   0  0  2  0  0  0
  -28.6940  -13.0380   20.7760 C   0  0  0  0  0  0
  -30.0140  -13.3210   20.1910 N   0  0  0  0  0  0
  -31.8060  -14.6370   19.7660 O   0  0  0  0  0  0
  -25.2210  -13.9030   20.4230 C   0  0  0  0  0  0
  -24.1570  -13.1300   20.8030 C   0  0  0  0  0  0
  -24.6200  -11.7780   20.7690 C   0  0  0  0  0  0
  -26.2690  -13.0260   20.1880 N   0  0  0  0  0  0
  -25.9080  -11.7410   20.4480 N   0  0  0  0  0  0
  -23.8970  -10.5160   20.9730 C   0  0  0  0  0  0
  -24.3400   -9.5540   21.9070 C   0  0  0  0  0  0
  -23.6180   -8.3570   22.0980 C   0  0  0  0  0  0
  -22.4390   -8.1130   21.3540 C   0  0  0  0  0  0
  -22.0200   -9.0620   20.4040 C   0  0  0  0  0  0
  -22.7420  -10.2510   20.2140 C   0  0  0  0  0  0
  -21.6860   -6.9670   21.4560 O   0  0  0  0  0  0
  -21.6350   -6.2350   22.6130 C   0  0  0  0  0  0
  -21.2130   -6.8020   23.8360 C   0  0  0  0  0  0
  -21.1120   -5.9970   24.9900 C   0  0  0  0  0  0
  -21.4230   -4.6270   24.9200 C   0  0  0  0  0  0
  -21.8370   -4.0590   23.7030 C   0  0  0  0  0  0
  -21.9380   -4.8600   22.5510 C   0  0  0  0  0  0
  -22.3150   -4.3020   21.3770 F   0  0  0  0  0  0
  -21.3200   -3.8520   26.0230 F   0  0  0  0  0  0
  -22.7620  -13.6030   21.1000 C   0  0  0  0  0  0
  -22.0510  -12.9010   21.9780 N   0  0  0  0  0  0
  -22.3100  -14.6300   20.5930 O   0  0  0  0  0  0
  -22.4290  -12.0750   22.4190 H   0  0  0  0  0  0
  -21.1140  -13.1930   22.2170 H   0  0  0  0  0  0
  -25.3820  -15.2750   20.2360 N   0  0  0  0  0  0
  -24.6350  -15.9470   20.3700 H   0  0  0  0  0  0
  -26.2490  -15.7050   19.9450 H   0  0  0  0  0  0
  -28.6991  -19.9936   20.4439 H   0  0  0  0  0  0
  1  3  1  0  0  0
  1  2  2  0  0  0
  2  4  1  0  0  0
  3  5  2  0  0  0
  4  6  2  0  0  0
  4  7  1  0  0  0
  5 51  1  0  0  0
  5  6  1  0  0  0
  6 90  1  0  0  0
  7  8  1  0  0  0
  8  9  1  0  0  0
  9 10  1  0  0  0
 10 12  1  0  0  0
 11 22  2  0  0  0
 11 21  1  0  0  0
 11 37  1  0  0  0
 12 17  1  0  0  0
 12 18  2  0  0  0
 13 21  1  0  0  0
 13 23  1  0  0  0
 13 20  1  0  0  0
 14 20  1  0  0  0
 14 16  1  0  0  0
 14 19  2  0  0  0
 15 21  1  0  0  0
 15 16  1  0  0  0
 16 17  2  0  0  0
 18 19  1  0  0  0
 23 25  2  0  0  0
 23 24  1  0  0  0
 24 26  1  0  0  0
 24 28  1  0  0  0
 27 36  2  0  0  0
 27 32  1  0  0  0
 27 31  1  0  0  0
 28 32  1  0  0  0
 28 29  1  0  0  0
 29 30  1  0  0  0
 30 31  1  0  0  0
 32 33  2  0  0  0
 33 34  1  0  0  0
 34 35  2  0  0  0
 35 36  1  0  0  0
 37 38  1  0  0  0
 37 47  1  0  0  0
 38 41  1  0  0  0
 38 39  1  0  0  0
 39 43  1  0  0  0
 39 40  2  0  0  0
 42 43  1  0  0  0
 43 45  1  0  0  0
 44 45  1  0  0  0
 45 46  1  0  0  0
 47 50  1  0  0  0
 47 48  1  0  0  0
 47 49  1  0  0  0
 51 52  1  0  0  0
 52 53  1  0  0  0
 53 54  1  0  0  0
 54 60  1  0  0  0
 54 61  2  0  0  0
 55 60  1  0  0  0
 55 56  1  0  0  0
 56 57  1  0  0  0
 57 58  1  0  0  0
 58 65  1  0  0  0
 58 59  1  0  0  0
 59 60  1  0  0  0
 62 63  2  0  0  0
 62 65  1  0  0  0
 62 87  1  0  0  0
 63 82  1  0  0  0
 63 64  1  0  0  0
 64 67  1  0  0  0
 64 66  2  0  0  0
 65 66  1  0  0  0
 67 68  1  0  0  0
 67 72  2  0  0  0
 68 69  2  0  0  0
 69 70  1  0  0  0
 70 73  1  0  0  0
 70 71  2  0  0  0
 71 72  1  0  0  0
 73 74  1  0  0  0
 74 75  1  0  0  0
 74 79  2  0  0  0
 75 76  2  0  0  0
 76 77  1  0  0  0
 77 81  1  0  0  0
 77 78  2  0  0  0
 78 79  1  0  0  0
 79 80  1  0  0  0
 82 83  1  0  0  0
 82 84  2  0  0  0
 83 86  1  0  0  0
 83 85  1  0  0  0
 87 88  1  0  0  0
 87 89  1  0  0  0
M  ISO  4   9 101  10 101  53 100  54 100
M  END
> <s_m_entry_id>
21

> <s_m_entry_name>
BTK_2023_4_7_sel_all.21

> <TORSDO>
F 24

> <SCORE>
-12.926

> <name>
14

> <ligand_id>
14

> <original_smiles>
[H]c1c([H])c(OC([H])([H])C([H])([H])C(=O)N2C([H])([H])C([H])([H])C([H])([H])C([H])(n3nc(-c4c([H])c([H])c(Oc5c([H])c([H])c(F)c([H])c5F)c([H])c4[H])c(C(=O)N([H])[H])c3N([H])[H])C2([H])[H])c(OC([H])([H])C([H])([H])[H])c(C([H])([H])C([H])([H])C([H])([H])Oc2c([H])c([H])c3c(c2[H])C([H])([H])N(C(=O)C([H])(N([H])C(=O)C([H])(N([H])C([H])([H])[H])C([H])([H])[H])C(C([H])([H])[H])(C([H])([H])[H])C([H])([H])[H])C([H])(C(=O)N([H])C2([H])c4c([H])c([H])c([H])c([H])c4C([H])([H])C([H])([H])C2([H])[H])C3([H])[H])c1[H]

> <smiles>
[H]c1c([H])c(OC([H])([H])C([H])([H])C(=O)N2C([H])([H])C([H])([H])C([H])([H])C([H])(n3nc(-c4c([H])c([H])c(Oc5c([H])c([H])c(F)c([H])c5F)c([H])c4[H])c(C(=O)N([H])[H])c3N([H])[H])C2([H])[H])c(OC([H])([H])C([H])([H])[H])c(C([H])([H])C([H])([H])C([H])([H])Oc2c([H])c([H])c3c(c2[H])C([H])([H])N(C(=O)C([H])(N([H])C(=O)C([H])(N([H])C([H])([H])[H])C([H])([H])[H])C(C([H])([H])[H])(C([H])([H])[H])C([H])([H])[H])C([H])(C(=O)N([H])C2([H])c4c([H])c([H])c([H])c([H])c4C([H])([H])C([H])([H])C2([H])[H])C3([H])[H])c1[H]

> <Step>
108

> <Scaffold>
O=C(NC1CCCc2ccccc21)C1Cc2ccc(OCCCc3cccc(OCCC(=O)N4CCCC(n5ccc(-c6ccc(Oc7ccccc7)cc6)n5)C4)c3)cc2CN1

> <SMILES>
CCOc1c(CCCOc2ccc3c(c2)CN(C(=O)C(NC(=O)C(C)NC)C(C)(C)C)C(C(=O)NC2CCCc4ccccc42)C3)cccc1OCCC(=O)N1CCCC(n2nc(-c3ccc(Oc4ccc(F)cc4F)cc3)c(C(N)=O)c2N)C1

> <Tanimoto ROCS sim>
0.207717165350914

> <Custom alerts>
1

> <Linker Num Aromatic Rings>
1

> <Linker Effective Length>
1

> <ADV>
0.988201022148132

> <PostDock Tanimoto ROCS sim>
0.999122619628906

> <raw_Linker Num Aromatic Rings>
1

> <raw_Linker Effective Length>
8

> <raw_ADV>
-12.6920003890991

> <total_score>
0.996830940246582

> <ID>
default_job_14

> <PostDock Tanimoto ROCS sim (re-score)>
0.9784952

> <raw_ADV (re-score)>
-12.926

> <Final Intermolecular Energy>
-30.683

> <Final Total Internal Energy>
-2.943

> <Torsional Free Energy>
17.758

> <Unbound System's Energy>
-2.943

> <chiral flag>
0

> <version>
0

> <s_m_Source_Path>
/mnt/home/boqing/Schrodinger_Projects/BTK/BTK_MD

> <s_m_Source_File>
BTK_2023_4_7_sel_all.sdf

> <i_m_Source_File_Index>
21

> <s_m_subgroup_title>
BTK_2023_4_7_sel_all

> <s_m_subgroupid>
BTK_2023_4_7_sel_all

> <b_m_subgroup_collapsed>
0

$$$$
default_job_10_1
                    3D
 Structure written by MMmdl.
 92100  0  0  1  0            999 V2000
  -31.1890  -22.5200   18.9890 C   0  0  0  0  0  0
  -30.1900  -24.7300   18.9780 C   0  0  0  0  0  0
  -31.1380  -23.8290   18.4610 C   0  0  0  0  0  0
  -30.2820  -22.1490   20.0070 C   0  0  0  0  0  0
  -29.3190  -24.3070   19.9930 C   0  0  0  0  0  0
  -29.3660  -23.0370   20.4870 N   0  0  0  0  0  0
  -30.3240  -20.7630   20.7010 C   0  0  0  0  0  0
  -30.6870  -19.5000   19.8490 C   0  0  0  0  0  0
  -30.1230  -17.0270   20.1720 C   0  0  0  0  0  0
  -30.6310  -18.2130   20.6030 N   0  0  0  0  0  0
  -29.6290  -16.9300   19.0450 O   0  0  0  0  0  0
  -31.0590  -18.2260   21.5210 H   0  0  0  0  0  0
  -30.0870  -15.7940   21.1380 C   0  0  0  0  0  0
  -30.6890  -14.5190   20.4590 C   0  0  0  0  0  0
  -30.3520  -12.3350   19.3310 C   0  0  0  0  0  0
  -29.4060  -12.5100   18.1230 C   0  0  0  0  0  0
  -27.9350  -12.3930   18.5660 C   0  0  0  0  0  0
  -27.6060  -13.2510   19.8150 C   0  0  2  0  0  0
  -28.6710  -13.0460   20.9200 C   0  0  0  0  0  0
  -29.9900  -13.3460   20.3410 N   0  0  0  0  0  0
  -31.8220  -14.6220   19.9790 O   0  0  0  0  0  0
  -25.2050  -13.8730   20.5110 C   0  0  0  0  0  0
  -24.1310  -13.1110   20.8820 C   0  0  0  0  0  0
  -24.5860  -11.7540   20.8670 C   0  0  0  0  0  0
  -26.2500  -12.9870   20.2970 N   0  0  0  0  0  0
  -25.8800  -11.7070   20.5680 N   0  0  0  0  0  0
  -23.8510  -10.4980   21.0620 C   0  0  0  0  0  0
  -24.2890   -9.5220   21.9850 C   0  0  0  0  0  0
  -23.5540   -8.3290   22.1680 C   0  0  0  0  0  0
  -22.3710   -8.1050   21.4270 C   0  0  0  0  0  0
  -21.9540   -9.0670   20.4900 C   0  0  0  0  0  0
  -22.6890  -10.2510   20.3060 C   0  0  0  0  0  0
  -21.6070   -6.9660   21.5180 O   0  0  0  0  0  0
  -21.5830   -6.2080   22.6590 C   0  0  0  0  0  0
  -21.2170   -6.7510   23.9120 C   0  0  0  0  0  0
  -21.1430   -5.9210   25.0460 C   0  0  0  0  0  0
  -21.4230   -4.5450   24.9340 C   0  0  0  0  0  0
  -21.7830   -4.0000   23.6880 C   0  0  0  0  0  0
  -21.8590   -4.8280   22.5560 C   0  0  0  0  0  0
  -22.1860   -4.2940   21.3550 F   0  0  0  0  0  0
  -21.3410   -3.7460   26.0230 F   0  0  0  0  0  0
  -22.7320  -13.5940   21.1390 C   0  0  0  0  0  0
  -21.9940  -12.9110   22.0040 N   0  0  0  0  0  0
  -22.3000  -14.6150   20.6060 O   0  0  0  0  0  0
  -22.3550  -12.0870   22.4610 H   0  0  0  0  0  0
  -21.0540  -13.2160   22.2120 H   0  0  0  0  0  0
  -25.3810  -15.2410   20.3140 N   0  0  0  0  0  0
  -24.6280  -15.9130   20.4130 H   0  0  0  0  0  0
  -26.2390  -15.6500   19.9620 H   0  0  0  0  0  0
  -28.2590  -25.2710   20.5610 C   0  0  0  0  0  0
  -28.3920  -26.6560   20.1440 O   0  0  0  0  0  0
  -24.6310  -31.8940   23.2420 C   0  0  0  0  0  0
  -27.2350  -27.4170   20.1640 C   0  0  0  0  0  0
  -23.4080  -30.4880   21.6200 C   0  0  2  0  0  0
  -24.8490  -28.9490   20.1840 C   0  0  0  0  0  0
  -25.9380  -30.8370   21.4050 C   0  0  0  0  0  0
  -26.0160  -29.4640   20.7660 C   0  0  0  0  0  0
  -27.2140  -28.7080   20.7490 C   0  0  0  0  0  0
  -26.0550  -26.9330   19.5610 C   0  0  0  0  0  0
  -24.8660  -27.6850   19.5760 C   0  0  0  0  0  0
  -23.6110  -29.8180   20.2350 C   0  0  0  0  0  0
  -24.6780  -31.0860   22.1480 N   0  0  0  0  0  0
  -23.5510  -32.1870   23.7740 O   0  0  0  0  0  0
  -22.7640  -29.4640   22.5840 C   0  0  0  0  0  0
  -21.4400  -29.2750   22.4620 N   0  0  0  0  0  0
  -23.4530  -28.8470   23.4010 O   0  0  0  0  0  0
  -20.9440  -29.8240   21.7740 H   0  0  0  0  0  0
  -18.0730  -28.0600   22.9600 C   0  0  0  0  0  0
  -20.6280  -28.3420   23.2430 C   0  0  2  0  0  0
  -20.7480  -26.9060   22.6830 C   0  0  0  0  0  0
  -19.6530  -26.5620   21.6680 C   0  0  0  0  0  0
  -18.2650  -26.7050   22.2980 C   0  0  0  0  0  0
  -19.1830  -28.8350   23.3880 C   0  0  0  0  0  0
  -18.9520  -30.1060   23.9600 C   0  0  0  0  0  0
  -17.6430  -30.5970   24.1170 C   0  0  0  0  0  0
  -16.5460  -29.8170   23.7100 C   0  0  0  0  0  0
  -16.7620  -28.5520   23.1340 C   0  0  0  0  0  0
  -25.9240  -32.5200   23.8540 C   0  0  1  0  0  0
  -25.6200  -33.9140   24.1970 N   0  0  0  0  0  0
  -25.9310  -34.9690   23.4330 C   0  0  0  0  0  0
  -26.5840  -34.8720   22.3880 O   0  0  0  0  0  0
  -25.0500  -34.0660   25.0150 H   0  0  0  0  0  0
  -24.1910  -36.7560   23.1150 C   0  0  0  0  0  0
  -25.4460  -36.3520   23.9030 C   0  0  2  0  0  0
  -27.5900  -37.2440   24.7020 C   0  0  0  0  0  0
  -26.4700  -37.4110   23.7800 N   0  0  0  0  0  0
  -26.0590  -38.3260   23.9430 H   0  0  0  0  0  0
  -26.4600  -31.7390   25.1150 C   0  0  0  0  0  0
  -25.3830  -31.4950   26.1960 C   0  0  0  0  0  0
  -27.0390  -30.3630   24.7050 C   0  0  0  0  0  0
  -27.6160  -32.5300   25.7710 C   0  0  0  0  0  0
  -31.8190  -24.1213   17.6754 H   0  0  0  0  0  0
  1  4  1  0  0  0
  1  3  2  0  0  0
  2  5  2  0  0  0
  2  3  1  0  0  0
  3 92  1  0  0  0
  4  6  2  0  0  0
  4  7  1  0  0  0
  5  6  1  0  0  0
  5 50  1  0  0  0
  7  8  1  0  0  0
  8 10  1  0  0  0
  9 10  1  0  0  0
  9 13  1  0  0  0
  9 11  2  0  0  0
 10 12  1  0  0  0
 13 14  1  0  0  0
 14 20  1  0  0  0
 14 21  2  0  0  0
 15 20  1  0  0  0
 15 16  1  0  0  0
 16 17  1  0  0  0
 17 18  1  0  0  0
 18 25  1  0  0  0
 18 19  1  0  0  0
 19 20  1  0  0  0
 22 23  2  0  0  0
 22 25  1  0  0  0
 22 47  1  0  0  0
 23 42  1  0  0  0
 23 24  1  0  0  0
 24 27  1  0  0  0
 24 26  2  0  0  0
 25 26  1  0  0  0
 27 28  1  0  0  0
 27 32  2  0  0  0
 28 29  2  0  0  0
 29 30  1  0  0  0
 30 33  1  0  0  0
 30 31  2  0  0  0
 31 32  1  0  0  0
 33 34  1  0  0  0
 34 35  1  0  0  0
 34 39  2  0  0  0
 35 36  2  0  0  0
 36 37  1  0  0  0
 37 41  1  0  0  0
 37 38  2  0  0  0
 38 39  1  0  0  0
 39 40  1  0  0  0
 42 43  1  0  0  0
 42 44  2  0  0  0
 43 46  1  0  0  0
 43 45  1  0  0  0
 47 48  1  0  0  0
 47 49  1  0  0  0
 50 51  1  0  0  0
 51 53  1  0  0  0
 52 63  2  0  0  0
 52 62  1  0  0  0
 52 78  1  0  0  0
 53 58  1  0  0  0
 53 59  2  0  0  0
 54 62  1  0  0  0
 54 64  1  0  0  0
 54 61  1  0  0  0
 55 61  1  0  0  0
 55 57  1  0  0  0
 55 60  2  0  0  0
 56 62  1  0  0  0
 56 57  1  0  0  0
 57 58  2  0  0  0
 59 60  1  0  0  0
 64 66  2  0  0  0
 64 65  1  0  0  0
 65 67  1  0  0  0
 65 69  1  0  0  0
 68 77  2  0  0  0
 68 73  1  0  0  0
 68 72  1  0  0  0
 69 73  1  0  0  0
 69 70  1  0  0  0
 70 71  1  0  0  0
 71 72  1  0  0  0
 73 74  2  0  0  0
 74 75  1  0  0  0
 75 76  2  0  0  0
 76 77  1  0  0  0
 78 79  1  0  0  0
 78 88  1  0  0  0
 79 82  1  0  0  0
 79 80  1  0  0  0
 80 84  1  0  0  0
 80 81  2  0  0  0
 83 84  1  0  0  0
 84 86  1  0  0  0
 85 86  1  0  0  0
 86 87  1  0  0  0
 88 91  1  0  0  0
 88 89  1  0  0  0
 88 90  1  0  0  0
M  ISO  4  13 100  14 100  50 101  51 101
M  END
> <s_m_entry_id>
23

> <s_m_entry_name>
BTK_2023_4_7_sel_all.23

> <TORSDO>
F 22

> <SCORE>
-13.044

> <name>
10

> <ligand_id>
10

> <original_smiles>
[H]c1c([H])c([H])c2c(c1[H])C([H])([H])C([H])([H])C([H])([H])C2([H])N([H])C(=O)C1([H])N(C(=O)C([H])(N([H])C(=O)C([H])(N([H])C([H])([H])[H])C([H])([H])[H])C(C([H])([H])[H])(C([H])([H])[H])C([H])([H])[H])C([H])([H])c2c([H])c(OC([H])([H])c3nc(C([H])([H])C([H])([H])N([H])C(=O)C([H])([H])C(=O)N4C([H])([H])C([H])([H])C([H])([H])C([H])(n5nc(-c6c([H])c([H])c(Oc7c([H])c([H])c(F)c([H])c7F)c([H])c6[H])c(C(=O)N([H])[H])c5N([H])[H])C4([H])[H])c([H])c(C([H])([H])C([H])([H])[H])c3[H])c([H])c([H])c2C1([H])[H]

> <smiles>
[H]c1c([H])c([H])c2c(c1[H])C([H])([H])C([H])([H])C([H])([H])C2([H])N([H])C(=O)C1([H])N(C(=O)C([H])(N([H])C(=O)C([H])(N([H])C([H])([H])[H])C([H])([H])[H])C(C([H])([H])[H])(C([H])([H])[H])C([H])([H])[H])C([H])([H])c2c([H])c(OC([H])([H])c3nc(C([H])([H])C([H])([H])N([H])C(=O)C([H])([H])C(=O)N4C([H])([H])C([H])([H])C([H])([H])C([H])(n5nc(-c6c([H])c([H])c(Oc7c([H])c([H])c(F)c([H])c7F)c([H])c6[H])c(C(=O)N([H])[H])c5N([H])[H])C4([H])[H])c([H])c(C([H])([H])C([H])([H])[H])c3[H])c([H])c([H])c2C1([H])[H]

> <Step>
191

> <Scaffold>
O=C(CC(=O)N1CCCC(n2ccc(-c3ccc(Oc4ccccc4)cc3)n2)C1)NCCc1cccc(COc2ccc3c(c2)CNC(C(=O)NC2CCCc4ccccc42)C3)n1

> <SMILES>
CCc1cc(CCNC(=O)CC(=O)N2CCCC(n3nc(-c4ccc(Oc5ccc(F)cc5F)cc4)c(C(N)=O)c3N)C2)nc(COc2ccc3c(c2)CN(C(=O)C(NC(=O)C(C)NC)C(C)(C)C)C(C(=O)NC2CCCc4ccccc42)C3)c1

> <Tanimoto ROCS sim>
0.188903659582138

> <Custom alerts>
1

> <Linker Num Aromatic Rings>
1

> <Linker Effective Length>
1

> <ADV>
0.989725410938263

> <PostDock Tanimoto ROCS sim>
0.999201953411102

> <raw_Linker Num Aromatic Rings>
1

> <raw_Linker Effective Length>
8

> <raw_ADV>
-12.9350004196167

> <total_score>
0.997231841087341

> <ID>
default_job_10

> <PostDock Tanimoto ROCS sim (re-score)>
0.98335856

> <raw_ADV (re-score)>
-13.044

> <Final Intermolecular Energy>
-29.438

> <Final Total Internal Energy>
-2.923

> <Torsional Free Energy>
16.394

> <Unbound System's Energy>
-2.923

> <chiral flag>
0

> <version>
0

> <s_m_Source_Path>
/mnt/home/boqing/Schrodinger_Projects/BTK/BTK_MD

> <s_m_Source_File>
BTK_2023_4_7_sel_all.sdf

> <i_m_Source_File_Index>
23

> <s_m_subgroup_title>
BTK_2023_4_7_sel_all

> <s_m_subgroupid>
BTK_2023_4_7_sel_all

> <b_m_subgroup_collapsed>
0

$$$$
default_job_68_1
                    3D
 Structure written by MMmdl.
 93101  0  0  1  0            999 V2000
  -29.6180  -20.7640   19.7420 C   0  0  0  0  0  0
  -30.5760  -19.9220   20.5130 N   0  0  0  0  0  0
  -31.4310  -19.8390   19.9890 H   0  0  0  0  0  0
  -30.8010  -20.4310   21.3530 H   0  0  0  0  0  0
  -30.7250  -14.5240   20.3670 C   0  0  0  0  0  0
  -30.3680  -12.3830   19.1850 C   0  0  0  0  0  0
  -29.4000  -12.5680   17.9990 C   0  0  0  0  0  0
  -27.9410  -12.3890   18.4620 C   0  0  0  0  0  0
  -27.6100  -13.2290   19.7200 C   0  0  2  0  0  0
  -28.6950  -13.0720   20.8120 C   0  0  0  0  0  0
  -30.0080  -13.3730   20.2130 N   0  0  0  0  0  0
  -31.8700  -14.6580   19.9250 O   0  0  0  0  0  0
  -31.2140  -17.7500   21.6210 C   0  0  0  0  0  0
  -29.5520  -17.7250   19.7800 C   0  0  0  0  0  0
  -30.7370  -16.3390   22.0560 C   0  0  0  0  0  0
  -29.0750  -16.3390   20.2430 C   0  0  0  0  0  0
  -30.0970  -18.5730   20.9410 C   0  0  0  0  0  0
  -30.1030  -15.5710   20.9690 N   0  0  0  0  0  0
  -25.2350  -13.8450   20.4810 C   0  0  0  0  0  0
  -24.1750  -13.0700   20.8630 C   0  0  0  0  0  0
  -24.6380  -11.7200   20.8210 C   0  0  0  0  0  0
  -26.2750  -12.9600   20.2300 N   0  0  0  0  0  0
  -25.9230  -11.6800   20.4960 N   0  0  0  0  0  0
  -23.9220  -10.4570   21.0140 C   0  0  0  0  0  0
  -24.3630   -9.4960   21.9500 C   0  0  0  0  0  0
  -23.6470   -8.2930   22.1280 C   0  0  0  0  0  0
  -22.4790   -8.0430   21.3700 C   0  0  0  0  0  0
  -22.0600   -8.9920   20.4220 C   0  0  0  0  0  0
  -22.7760  -10.1880   20.2420 C   0  0  0  0  0  0
  -21.7350   -6.8920   21.4600 O   0  0  0  0  0  0
  -21.6780   -6.1610   22.6190 C   0  0  0  0  0  0
  -21.2040   -6.7160   23.8270 C   0  0  0  0  0  0
  -21.0980   -5.9100   24.9780 C   0  0  0  0  0  0
  -21.4560   -4.5500   24.9210 C   0  0  0  0  0  0
  -21.9240   -3.9940   23.7170 C   0  0  0  0  0  0
  -22.0330   -4.7980   22.5680 C   0  0  0  0  0  0
  -22.4640   -4.2530   21.4050 F   0  0  0  0  0  0
  -21.3460   -3.7720   26.0240 F   0  0  0  0  0  0
  -22.7800  -13.5430   21.1530 C   0  0  0  0  0  0
  -22.0640  -12.8370   22.0210 N   0  0  0  0  0  0
  -22.3340  -14.5730   20.6470 O   0  0  0  0  0  0
  -22.4370  -12.0030   22.4500 H   0  0  0  0  0  0
  -21.1290  -13.1350   22.2610 H   0  0  0  0  0  0
  -25.3960  -15.2160   20.3050 N   0  0  0  0  0  0
  -24.6310  -15.8700   20.4310 H   0  0  0  0  0  0
  -26.2380  -15.6550   19.9590 H   0  0  0  0  0  0
  -29.8060  -23.3260   19.5740 C   0  0  0  0  0  0
  -29.5910  -22.1960   20.2810 C   0  0  0  0  0  0
  -29.7160  -24.7360   20.1330 C   0  0  0  0  0  0
  -28.4250  -25.4380   19.6800 C   0  0  0  0  0  0
  -28.4030  -26.7800   20.1660 O   0  0  0  0  0  0
  -24.5650  -31.9070   23.2460 C   0  0  0  0  0  0
  -27.2080  -27.4720   20.1480 C   0  0  0  0  0  0
  -23.3580  -30.5100   21.6020 C   0  0  2  0  0  0
  -24.8090  -28.9740   20.1720 C   0  0  0  0  0  0
  -25.8850  -30.8600   21.4120 C   0  0  0  0  0  0
  -25.9660  -29.4940   20.7640 C   0  0  0  0  0  0
  -27.1650  -28.7480   20.7500 C   0  0  0  0  0  0
  -26.0280  -26.9650   19.5500 C   0  0  0  0  0  0
  -24.8340  -27.7080   19.5660 C   0  0  0  0  0  0
  -23.5660  -29.8320   20.2210 C   0  0  0  0  0  0
  -24.6220  -31.1020   22.1470 N   0  0  0  0  0  0
  -23.4800  -32.2040   23.7650 O   0  0  0  0  0  0
  -22.7000  -29.4870   22.5580 C   0  0  0  0  0  0
  -21.3780  -29.3020   22.4170 N   0  0  0  0  0  0
  -23.3780  -28.8620   23.3780 O   0  0  0  0  0  0
  -20.8940  -29.8610   21.7290 H   0  0  0  0  0  0
  -17.9990  -28.1120   22.8840 C   0  0  0  0  0  0
  -20.5550  -28.3620   23.1770 C   0  0  2  0  0  0
  -20.6580  -26.9330   22.5960 C   0  0  0  0  0  0
  -19.5640  -26.6170   21.5720 C   0  0  0  0  0  0
  -18.1760  -26.7640   22.2050 C   0  0  0  0  0  0
  -19.1160  -28.8690   23.3260 C   0  0  0  0  0  0
  -18.8970  -30.1310   23.9190 C   0  0  0  0  0  0
  -17.5930  -30.6370   24.0740 C   0  0  0  0  0  0
  -16.4900  -29.8770   23.6490 C   0  0  0  0  0  0
  -16.6930  -28.6150   23.0610 C   0  0  0  0  0  0
  -25.8540  -32.5200   23.8800 C   0  0  2  0  0  0
  -26.3570  -31.7430   25.1570 C   0  0  0  0  0  0
  -25.2540  -31.5120   26.2160 C   0  0  0  0  0  0
  -26.9340  -30.3630   24.7650 C   0  0  0  0  0  0
  -27.5090  -32.5280   25.8280 C   0  0  0  0  0  0
  -25.5580  -33.9200   24.2080 N   0  0  0  0  0  0
  -25.8960  -34.9660   23.4430 C   0  0  0  0  0  0
  -26.5620  -34.8530   22.4090 O   0  0  0  0  0  0
  -24.9620  -34.0820   25.0060 H   0  0  0  0  0  0
  -24.1780  -36.7660   23.0800 C   0  0  0  0  0  0
  -25.4170  -36.3570   23.8930 C   0  0  2  0  0  0
  -27.5540  -37.2340   24.7230 C   0  0  0  0  0  0
  -26.4560  -37.4040   23.7760 N   0  0  0  0  0  0
  -26.0550  -38.3260   23.9170 H   0  0  0  0  0  0
  -29.9099  -20.7769   18.6919 H   0  0  0  0  0  0
  -28.6195  -20.3320   19.8094 H   0  0  0  0  0  0
  1 48  1  0  0  0
  1  2  1  0  0  0
  1 92  1  0  0  0
  1 93  1  0  0  0
  2  4  1  0  0  0
  2  3  1  0  0  0
  2 17  1  0  0  0
  5 18  1  0  0  0
  5 11  1  0  0  0
  5 12  2  0  0  0
  6 11  1  0  0  0
  6  7  1  0  0  0
  7  8  1  0  0  0
  8  9  1  0  0  0
  9 22  1  0  0  0
  9 10  1  0  0  0
 10 11  1  0  0  0
 13 15  1  0  0  0
 13 17  1  0  0  0
 14 16  1  0  0  0
 14 17  1  0  0  0
 15 18  1  0  0  0
 16 18  1  0  0  0
 19 20  2  0  0  0
 19 22  1  0  0  0
 19 44  1  0  0  0
 20 39  1  0  0  0
 20 21  1  0  0  0
 21 24  1  0  0  0
 21 23  2  0  0  0
 22 23  1  0  0  0
 24 25  1  0  0  0
 24 29  2  0  0  0
 25 26  2  0  0  0
 26 27  1  0  0  0
 27 30  1  0  0  0
 27 28  2  0  0  0
 28 29  1  0  0  0
 30 31  1  0  0  0
 31 32  1  0  0  0
 31 36  2  0  0  0
 32 33  2  0  0  0
 33 34  1  0  0  0
 34 38  1  0  0  0
 34 35  2  0  0  0
 35 36  1  0  0  0
 36 37  1  0  0  0
 39 40  1  0  0  0
 39 41  2  0  0  0
 40 43  1  0  0  0
 40 42  1  0  0  0
 44 45  1  0  0  0
 44 46  1  0  0  0
 47 49  1  0  0  0
 47 48  2  0  0  0
 49 50  1  0  0  0
 50 51  1  0  0  0
 51 53  1  0  0  0
 52 63  2  0  0  0
 52 62  1  0  0  0
 52 78  1  0  0  0
 53 58  1  0  0  0
 53 59  2  0  0  0
 54 62  1  0  0  0
 54 64  1  0  0  0
 54 61  1  0  0  0
 55 61  1  0  0  0
 55 57  1  0  0  0
 55 60  2  0  0  0
 56 62  1  0  0  0
 56 57  1  0  0  0
 57 58  2  0  0  0
 59 60  1  0  0  0
 64 66  2  0  0  0
 64 65  1  0  0  0
 65 67  1  0  0  0
 65 69  1  0  0  0
 68 77  2  0  0  0
 68 73  1  0  0  0
 68 72  1  0  0  0
 69 73  1  0  0  0
 69 70  1  0  0  0
 70 71  1  0  0  0
 71 72  1  0  0  0
 73 74  2  0  0  0
 74 75  1  0  0  0
 75 76  2  0  0  0
 76 77  1  0  0  0
 78 83  1  0  0  0
 78 79  1  0  0  0
 79 82  1  0  0  0
 79 80  1  0  0  0
 79 81  1  0  0  0
 83 86  1  0  0  0
 83 84  1  0  0  0
 84 88  1  0  0  0
 84 85  2  0  0  0
 87 88  1  0  0  0
 88 90  1  0  0  0
 89 90  1  0  0  0
 90 91  1  0  0  0
M  ISO  4   5 100  18 100  50 101  51 101
M  END
> <s_m_entry_id>
24

> <s_m_entry_name>
BTK_2023_4_7_sel_all.24

> <TORSDO>
F 20

> <SCORE>
-14.043

> <name>
68

> <ligand_id>
68

> <original_smiles>
[H]C(=C([H])C([H])(C([H])([H])[H])[N+]([H])([H])C1([H])C([H])([H])C([H])([H])N(C(=O)N2C([H])([H])C([H])([H])C([H])([H])C([H])(n3nc(-c4c([H])c([H])c(Oc5c([H])c([H])c(F)c([H])c5F)c([H])c4[H])c(C(=O)N([H])[H])c3N([H])[H])C2([H])[H])C([H])([H])C1([H])[H])C([H])([H])C([H])([H])Oc1c([H])c([H])c2c(c1[H])C([H])([H])N(C(=O)C([H])(N([H])C(=O)C([H])(N([H])C([H])([H])[H])C([H])([H])[H])C(C([H])([H])[H])(C([H])([H])[H])C([H])([H])[H])C([H])(C(=O)N([H])C1([H])c3c([H])c([H])c([H])c([H])c3C([H])([H])C([H])([H])C1([H])[H])C2([H])[H]

> <smiles>
[H]C(=C([H])C([H])(C([H])([H])[H])[N+]([H])([H])C1([H])C([H])([H])C([H])([H])N(C(=O)N2C([H])([H])C([H])([H])C([H])([H])C([H])(n3nc(-c4c([H])c([H])c(Oc5c([H])c([H])c(F)c([H])c5F)c([H])c4[H])c(C(=O)N([H])[H])c3N([H])[H])C2([H])[H])C([H])([H])C1([H])[H])C([H])([H])C([H])([H])Oc1c([H])c([H])c2c(c1[H])C([H])([H])N(C(=O)C([H])(N([H])C(=O)C([H])(N([H])C([H])([H])[H])C([H])([H])[H])C(C([H])([H])[H])(C([H])([H])[H])C([H])([H])[H])C([H])(C(=O)N([H])C1([H])c3c([H])c([H])c([H])c([H])c3C([H])([H])C([H])([H])C1([H])[H])C2([H])[H]

> <Step>
116

> <Scaffold>
O=C(NC1CCCc2ccccc21)C1Cc2ccc(OCCC=CCNC3CCN(C(=O)N4CCCC(n5ccc(-c6ccc(Oc7ccccc7)cc6)n5)C4)CC3)cc2CN1

> <SMILES>
CNC(C)C(=O)NC(C(=O)N1Cc2cc(OCCC=CC(C)NC3CCN(C(=O)N4CCCC(n5nc(-c6ccc(Oc7ccc(F)cc7F)cc6)c(C(N)=O)c5N)C4)CC3)ccc2CC1C(=O)NC1CCCc2ccccc21)C(C)(C)C

> <Tanimoto ROCS sim>
0.282058358192444

> <Custom alerts>
1

> <Linker Num Aromatic Rings>
1

> <Linker Effective Length>
1

> <ADV>
0.994449496269226

> <PostDock Tanimoto ROCS sim>
0.991849541664124

> <raw_Linker Num Aromatic Rings>
0

> <raw_Linker Effective Length>
9

> <raw_ADV>
-14.0129995346069

> <total_score>
0.996574759483337

> <ID>
default_job_68

> <PostDock Tanimoto ROCS sim (re-score)>
0.9833199

> <raw_ADV (re-score)>
-14.043

> <Final Intermolecular Energy>
-30.051

> <Final Total Internal Energy>
-2.783

> <Torsional Free Energy>
16.008

> <Unbound System's Energy>
-2.783

> <chiral flag>
0

> <version>
0

> <s_m_Source_Path>
/mnt/home/boqing/Schrodinger_Projects/BTK/BTK_MD

> <s_m_Source_File>
BTK_2023_4_7_sel_all.sdf

> <i_m_Source_File_Index>
24

> <s_m_subgroup_title>
BTK_2023_4_7_sel_all

> <s_m_subgroupid>
BTK_2023_4_7_sel_all

> <b_m_subgroup_collapsed>
0

$$$$
