E3-ligand
                    3D
 Structure written by MMmdl.
 38 41  0  0  1  0            999 V2000
  -24.6048  -31.8614   23.2223 C   0  0  0  0  0  0
  -25.8822  -32.4841   23.8616 C   0  0  1  0  0  0
  -27.2536  -27.5042   20.1156 C   0  0  0  0  0  0
  -25.5726  -33.8762   24.2210 N   0  0  0  0  0  0
  -23.4066  -30.4859   21.5461 C   0  0  2  0  0  0
  -24.8467  -28.9636   20.1247 C   0  0  0  0  0  0
  -22.7412  -29.4652   22.5052 C   0  0  0  0  0  0
  -18.0167  -28.1302   22.8626 C   0  0  0  0  0  0
  -24.1342  -36.7390   23.2568 C   0  0  0  0  0  0
  -25.9141  -30.8882   21.3456 C   0  0  0  0  0  0
  -25.9930  -29.5029   20.7208 C   0  0  0  0  0  0
  -27.1758  -28.7612   20.7331 C   0  0  0  0  0  0
  -26.1032  -26.9836   19.5230 C   0  0  0  0  0  0
  -24.9097  -27.7011   19.5331 C   0  0  0  0  0  0
  -23.5715  -29.7899   20.1582 C   0  0  0  0  0  0
  -25.3990  -36.3212   24.0232 C   0  0  1  0  0  0
  -20.5793  -28.3813   23.1004 C   0  0  2  0  0  0
  -20.6548  -26.9392   22.5411 C   0  0  0  0  0  0
  -19.5615  -26.6407   21.5143 C   0  0  0  0  0  0
  -18.1797  -26.7818   22.1673 C   0  0  0  0  0  0
  -19.1385  -28.8769   23.2988 C   0  0  0  0  0  0
  -18.9183  -30.1286   23.8878 C   0  0  0  0  0  0
  -17.6396  -30.6493   24.0352 C   0  0  0  0  0  0
  -25.9153  -34.9582   23.4993 C   0  0  0  0  0  0
  -16.5415  -29.9068   23.6254 C   0  0  0  0  0  0
  -16.7331  -28.6521   23.0586 C   0  0  0  0  0  0
  -26.4583  -31.6439   25.0683 C   0  0  0  0  0  0
  -25.3807  -31.3179   26.1374 C   0  0  0  0  0  0
  -27.0530  -30.3024   24.5680 C   0  0  0  0  0  0
  -27.6014  -32.4281   25.7651 C   0  0  0  0  0  0
  -27.5629  -37.2220   24.8621 C   0  0  0  0  0  0
  -21.4133  -29.3375   22.3735 N   0  0  0  0  0  0
  -26.4706  -37.3372   23.9061 N   0  0  0  0  0  0
  -24.6674  -31.0544   22.1178 N   0  0  0  0  0  0
  -23.4259  -28.8150   23.2971 O   0  0  0  0  0  0
  -26.5870  -34.9065   22.4671 O   0  0  0  0  0  0
  -23.5365  -32.1254   23.7833 O   0  0  0  0  0  0
  -28.1886  -26.9637   20.1070 *   0  0  0  0  0  0
  1  2  1  0  0  0
  1 34  1  0  0  0
  1 37  2  0  0  0
  2  4  1  0  0  0
  2 27  1  0  0  0
  3 12  1  0  0  0
  3 13  2  0  0  0
  3 38  1  0  0  0
  4 24  1  0  0  0
  5  7  1  0  0  0
  5 15  1  0  0  0
  5 34  1  0  0  0
  6 11  1  0  0  0
  6 14  2  0  0  0
  6 15  1  0  0  0
  7 32  1  0  0  0
  7 35  2  0  0  0
  8 20  1  0  0  0
  8 21  1  0  0  0
  8 26  2  0  0  0
  9 16  1  0  0  0
 10 11  1  0  0  0
 10 34  1  0  0  0
 11 12  2  0  0  0
 13 14  1  0  0  0
 16 24  1  0  0  0
 16 33  1  0  0  0
 17 18  1  0  0  0
 17 21  1  0  0  0
 17 32  1  0  0  0
 18 19  1  0  0  0
 19 20  1  0  0  0
 21 22  2  0  0  0
 22 23  1  0  0  0
 23 25  2  0  0  0
 24 36  2  0  0  0
 25 26  1  0  0  0
 27 28  1  0  0  0
 27 29  1  0  0  0
 27 30  1  0  0  0
 31 33  1  0  0  0
M  ISO  1   3 101
M  END
> <s_m_entry_id>
16

> <s_m_entry_name>
6w8i.1_mol4

> <s_m_subgroup_title>
6W8I - preprocessed_split_by_molecule

> <s_m_subgroupid>
6W8I - preprocessed_split_by_molecule

> <b_m_subgroup_collapsed>
0

$$$$
