
  -OEChem-04092311573D

 72 78  0     1  0  0  0  0  0999 V2000
  -14.4733   11.3179   15.3165 C   0  0  0  0  0  0  0  0  0  0  0  0
  -12.3067   11.3747   16.3837 C   0  0  0  0  0  0  0  0  0  0  0  0
   -9.3432   11.5001   12.2474 C   0  0  0  0  0  0  0  0  0  0  0  0
   -8.3453    9.5663   11.1980 C   0  0  0  0  0  0  0  0  0  0  0  0
  -14.9739   13.8990   16.5609 C   0  0  0  0  0  0  0  0  0  0  0  0
  -14.0591   10.2407   14.5330 C   0  0  0  0  0  0  0  0  0  0  0  0
  -11.8924   10.2976   15.6002 C   0  0  0  0  0  0  0  0  0  0  0  0
   -8.5762   11.2756   13.3906 C   0  0  0  0  0  0  0  0  0  0  0  0
   -7.5782    9.3418   12.3411 C   0  0  0  0  0  0  0  0  0  0  0  0
  -15.3884   14.9766   17.3436 C   0  0  0  0  0  0  0  0  0  0  0  0
  -13.4938   13.1827   18.3310 C   0  0  0  0  0  0  0  0  0  0  0  0
  -10.7825   11.3131    7.7255 C   0  0  0  0  0  0  0  0  0  0  0  0
  -13.5971   11.8848   16.2419 C   0  0  0  0  0  0  0  0  0  0  0  0
   -9.2278   10.6454   11.1511 C   0  0  0  0  0  0  0  0  0  0  0  0
  -14.0266   13.0020   17.0546 C   0  0  0  0  0  0  0  0  0  0  0  0
  -12.7687    9.7306   14.6748 C   0  0  0  0  0  0  0  0  0  0  0  0
   -7.6937   10.1964   13.4375 C   0  0  0  0  0  0  0  0  0  0  0  0
  -14.8556   15.1572   18.6199 C   0  0  0  0  0  0  0  0  0  0  0  0
  -13.9082   14.2603   19.1137 C   0  0  0  0  0  0  0  0  0  0  0  0
  -10.0211   10.8775    9.9689 C   0  0  0  0  0  0  0  0  0  0  0  0
  -11.3887   10.9182    9.7958 C   0  0  0  0  0  0  0  0  0  0  0  0
  -10.7638   15.4386   23.9132 C   0  0  0  0  0  0  0  0  0  0  0  0
  -12.8145   13.6253   23.3802 C   0  0  0  0  0  0  0  0  0  0  0  0
  -12.0704   14.1049   22.3738 C   0  0  0  0  0  0  0  0  0  0  0  0
  -10.9990   15.0507   22.6462 C   0  0  0  0  0  0  0  0  0  0  0  0
  -11.5898   14.9078   25.0368 C   0  0  0  0  0  0  0  0  0  0  0  0
  -12.3278    8.5836   13.8403 C   0  0  0  0  0  0  0  0  0  0  0  0
  -12.4108   13.6174   21.0209 C   0  0  0  0  0  0  0  0  0  0  0  0
   -6.9642    7.5422   15.2630 C   0  0  0  0  0  0  0  0  0  0  0  0
   -8.4182    4.9007   14.5035 C   0  0  0  0  0  0  0  0  0  0  0  0
  -10.9534    3.0051   14.3422 C   0  0  0  0  0  0  0  0  0  0  0  0
   -6.7329    6.4267   17.4325 C   0  0  0  0  0  0  0  0  0  0  0  0
  -16.4482   16.0444   20.2627 C   0  0  0  0  0  0  0  0  0  0  0  0
  -15.0874   17.6092   18.8861 C   0  0  0  0  0  0  0  0  0  0  0  0
   -7.0205    4.2365   16.5179 C   0  0  0  0  0  0  0  0  0  0  0  0
  -16.4369   17.0461   21.4094 C   0  0  0  0  0  0  0  0  0  0  0  0
  -15.0835   18.6101   20.0346 C   0  0  0  0  0  0  0  0  0  0  0  0
   -7.6253    6.5496   16.1962 C   0  0  2  0  0  0  0  0  0  0  0  0
   -6.8870    4.9671   17.8453 C   0  0  2  0  0  0  0  0  0  0  0  0
  -12.4086   10.7226   10.8476 C   0  0  0  0  0  0  0  0  0  0  0  0
   -7.4045    1.4679   12.8928 C   0  0  0  0  0  0  0  0  0  0  0  0
   -5.9874    3.2673   13.9039 C   0  0  0  0  0  0  0  0  0  0  0  0
   -7.3840    3.7619   11.8970 C   0  0  0  0  0  0  0  0  0  0  0  0
  -16.4561   19.4866   21.9233 C   0  0  0  0  0  0  0  0  0  0  0  0
   -6.8685    9.9546   14.6682 C   0  0  0  0  0  0  0  0  0  0  0  0
  -12.1909    2.8516   13.4728 C   0  0  0  0  0  0  0  0  0  0  0  0
  -12.4965    4.0779   12.6131 C   0  0  0  0  0  0  0  0  0  0  0  0
  -12.8073    5.3188   13.4594 C   0  0  0  0  0  0  0  0  0  0  0  0
  -13.0598    6.5588   12.6073 C   0  0  0  0  0  0  0  0  0  0  0  0
   -8.5063    3.4383   14.1469 C   0  0  2  0  0  0  0  0  0  0  0  0
  -10.1720   15.5797   21.5116 C   0  0  0  0  0  0  0  0  0  0  0  0
   -7.3412    2.9725   13.2235 C   0  0  0  0  0  0  0  0  0  0  0  0
  -11.8272   11.1682    8.5101 N   0  0  0  0  0  0  0  0  0  0  0  0
  -12.5819   14.0146   24.6751 N   0  0  0  0  0  0  0  0  0  0  0  0
  -15.2856   16.2457   19.3878 N   0  0  0  0  0  0  0  0  0  0  0  0
   -7.6941    5.1983   15.6468 N   0  0  0  0  0  0  0  0  0  0  0  0
  -13.3605   14.4218   20.3896 N   0  0  0  0  0  0  0  0  0  0  0  0
  -13.3298    7.7251   13.4017 N   0  0  0  0  0  0  0  0  0  0  0  0
   -7.3739    8.8487   15.4496 N   0  0  0  0  0  0  0  0  0  0  0  0
   -9.8183    3.2315   13.5772 N   0  0  0  0  0  0  0  0  0  0  0  0
  -16.3407   18.4423   20.8488 N   0  3  0  0  0  0  0  0  0  0  0  0
  -11.3708   15.2656   26.1912 O   0  0  0  0  0  0  0  0  0  0  0  0
  -11.1317    8.4402   13.6010 O   0  0  0  0  0  0  0  0  0  0  0  0
  -11.8636   12.6094   20.5908 O   0  0  0  0  0  0  0  0  0  0  0  0
   -6.1458    7.1464   14.4413 O   0  0  0  0  0  0  0  0  0  0  0  0
   -8.9711    5.7457   13.7971 O   0  0  0  0  0  0  0  0  0  0  0  0
  -10.9825    2.9537   15.5687 O   0  0  0  0  0  0  0  0  0  0  0  0
   -8.0853    4.7922   18.5937 O   0  0  0  0  0  0  0  0  0  0  0  0
   -9.2350   16.4380   21.9604 F   0  0  0  0  0  0  0  0  0  0  0  0
   -9.5429   14.5777   20.8663 F   0  0  0  0  0  0  0  0  0  0  0  0
  -10.9395   16.2327   20.6167 F   0  0  0  0  0  0  0  0  0  0  0  0
   -9.2425   11.1607    8.4673 S   0  0  0  0  0  0  0  0  0  0  0  0
  1  6  2  0  0  0  0
  1 13  1  0  0  0  0
  2  7  1  0  0  0  0
  2 13  2  0  0  0  0
  3  8  2  0  0  0  0
  3 14  1  0  0  0  0
  4  9  1  0  0  0  0
  4 14  2  0  0  0  0
  5 10  2  0  0  0  0
  5 15  1  0  0  0  0
  6 16  1  0  0  0  0
  7 16  2  0  0  0  0
  8 17  1  0  0  0  0
  9 17  2  0  0  0  0
 10 18  1  0  0  0  0
 11 15  2  0  0  0  0
 11 19  1  0  0  0  0
 12 53  2  0  0  0  0
 12 72  1  0  0  0  0
 13 15  1  0  0  0  0
 14 20  1  0  0  0  0
 16 27  1  0  0  0  0
 17 45  1  0  0  0  0
 18 19  2  0  0  0  0
 18 55  1  0  0  0  0
 19 57  1  0  0  0  0
 20 21  2  0  0  0  0
 20 72  1  0  0  0  0
 21 40  1  0  0  0  0
 21 53  1  0  0  0  0
 22 25  2  0  0  0  0
 22 26  1  0  0  0  0
 23 24  2  0  0  0  0
 23 54  1  0  0  0  0
 24 25  1  0  0  0  0
 24 28  1  0  0  0  0
 25 51  1  0  0  0  0
 26 54  1  0  0  0  0
 26 62  2  0  0  0  0
 27 58  1  0  0  0  0
 27 63  2  0  0  0  0
 28 57  1  0  0  0  0
 28 64  2  0  0  0  0
 29 38  1  0  0  0  0
 29 59  1  0  0  0  0
 29 65  2  0  0  0  0
 30 50  1  0  0  0  0
 30 56  1  0  0  0  0
 30 66  2  0  0  0  0
 31 46  1  0  0  0  0
 31 60  1  0  0  0  0
 31 67  2  0  0  0  0
 32 38  1  0  0  0  0
 32 39  1  0  0  0  0
 33 36  1  0  0  0  0
 33 55  1  0  0  0  0
 34 37  1  0  0  0  0
 34 55  1  0  0  0  0
 35 39  1  0  0  0  0
 35 56  1  0  0  0  0
 36 61  1  0  0  0  0
 37 61  1  0  0  0  0
 38 56  1  0  0  0  0
 39 68  1  0  0  0  0
 41 52  1  0  0  0  0
 42 52  1  0  0  0  0
 43 52  1  0  0  0  0
 44 61  1  0  0  0  0
 45 59  1  0  0  0  0
 46 47  1  0  0  0  0
 47 48  1  0  0  0  0
 48 49  1  0  0  0  0
 49 58  1  0  0  0  0
 50 52  1  0  0  0  0
 50 60  1  0  0  0  0
 51 69  1  0  0  0  0
 51 70  1  0  0  0  0
 51 71  1  0  0  0  0
M  CHG  1  61   1
M  ISO  4  16 100  27 100  31 101  46 101
M  END
> <Batch ID>
0000

> <Smiles>
Cc1ncsc1-c1ccc(CNC(=O)[C@@H]2C[C@@H](O)CN2C(=O)[C@@H](N[101C](=O)[101CH2]CCCN[100C](=O)[100c]2ccc(-c3ccc(N4CCN(C)CC4)c(NC(=O)c4c[nH]c(=O)cc4C(F)(F)F)c3)cc2)C(C)(C)C)cc1

> <Shape>
0.305

> <Color>
0.189

> <Negative vol penalty>
0.000

$$$$
