
  -OEChem-04092311523D

 65 71  0     1  0  0  0  0  0999 V2000
  -27.2474   10.0973  -22.9130 C   0  0  0  0  0  0  0  0  0  0  0  0
  -26.2772    9.5223  -23.7337 C   0  0  0  0  0  0  0  0  0  0  0  0
  -27.4222   11.4812  -22.9039 C   0  0  0  0  0  0  0  0  0  0  0  0
  -32.7844    9.2156  -23.6780 C   0  0  0  0  0  0  0  0  0  0  0  0
  -31.5918    9.7926  -24.1141 C   0  0  0  0  0  0  0  0  0  0  0  0
  -25.4816   10.3311  -24.5452 C   0  0  0  0  0  0  0  0  0  0  0  0
  -34.0322   10.7260  -25.0918 C   0  0  0  0  0  0  0  0  0  0  0  0
  -28.0328   14.2891  -24.0324 C   0  0  0  0  0  0  0  0  0  0  0  0
  -37.4136    8.6717  -22.7684 C   0  0  0  0  0  0  0  0  0  0  0  0
  -34.0047    9.6823  -24.1669 C   0  0  0  0  0  0  0  0  0  0  0  0
  -26.6267   12.2900  -23.7154 C   0  0  0  0  0  0  0  0  0  0  0  0
  -31.6193   10.8364  -25.0390 C   0  0  0  0  0  0  0  0  0  0  0  0
  -28.1350   15.6682  -23.9827 C   0  0  0  0  0  0  0  0  0  0  0  0
  -25.6564   11.7149  -24.5361 C   0  0  0  0  0  0  0  0  0  0  0  0
  -32.8395   11.3031  -25.5279 C   0  0  0  0  0  0  0  0  0  0  0  0
  -26.8231   13.7182  -23.6912 C   0  0  0  0  0  0  0  0  0  0  0  0
  -35.2379    9.0851  -23.7159 C   0  0  0  0  0  0  0  0  0  0  0  0
  -35.6956    7.7872  -23.8058 C   0  0  0  0  0  0  0  0  0  0  0  0
  -27.0210   16.3851  -23.5949 C   0  0  0  0  0  0  0  0  0  0  0  0
  -29.2072   11.7862  -27.6912 C   0  0  0  0  0  0  0  0  0  0  0  0
  -29.3295   12.6930  -34.0640 C   0  0  0  0  0  0  0  0  0  0  0  0
  -29.8022   12.8053  -30.6819 C   0  0  0  0  0  0  0  0  0  0  0  0
  -31.1492   11.0960  -34.9250 C   0  0  0  0  0  0  0  0  0  0  0  0
  -29.9172   10.8358  -35.7398 C   0  0  0  0  0  0  0  0  0  0  0  0
  -27.6414   10.3719  -28.9726 C   0  0  0  0  0  0  0  0  0  0  0  0
  -29.5448   16.6660  -25.7253 C   0  0  0  0  0  0  0  0  0  0  0  0
  -30.5475   15.9944  -23.5399 C   0  0  0  0  0  0  0  0  0  0  0  0
  -27.3439   12.2098  -30.4745 C   0  0  0  0  0  0  0  0  0  0  0  0
  -30.5766   17.7781  -25.8509 C   0  0  0  0  0  0  0  0  0  0  0  0
  -31.5762   17.1087  -23.6772 C   0  0  0  0  0  0  0  0  0  0  0  0
  -28.9555   11.1373  -29.0390 C   0  0  2  0  0  0  0  0  0  0  0  0
  -26.6038   11.4028  -29.4171 C   0  0  2  0  0  0  0  0  0  0  0  0
  -30.1776   12.1955  -35.1872 C   0  0  0  0  0  0  0  0  0  0  0  0
  -34.9802    6.6492  -24.4203 C   0  0  0  0  0  0  0  0  0  0  0  0
  -29.3691   16.1814  -32.6301 C   0  0  0  0  0  0  0  0  0  0  0  0
  -29.1286   15.6660  -30.1920 C   0  0  0  0  0  0  0  0  0  0  0  0
  -31.3260   15.3325  -31.3246 C   0  0  0  0  0  0  0  0  0  0  0  0
  -30.3257   11.4457  -25.4968 C   0  0  0  0  0  0  0  0  0  0  0  0
  -32.9365   18.3860  -25.3287 C   0  0  0  0  0  0  0  0  0  0  0  0
  -33.5628   18.1861  -26.6946 C   0  0  0  0  0  0  0  0  0  0  0  0
  -33.4868   12.0412  -27.6940 C   0  0  0  0  0  0  0  0  0  0  0  0
  -34.6664   12.9725  -27.8963 C   0  0  0  0  0  0  0  0  0  0  0  0
  -34.7181   16.6486  -28.0453 C   0  0  0  0  0  0  0  0  0  0  0  0
  -35.2696   15.2363  -28.0807 C   0  0  0  0  0  0  0  0  0  0  0  0
  -29.4258   13.7344  -31.8082 C   0  0  2  0  0  0  0  0  0  0  0  0
  -29.7972   15.2147  -31.5080 C   0  0  0  0  0  0  0  0  0  0  0  0
  -36.9429    7.5482  -23.2627 N   0  0  0  0  0  0  0  0  0  0  0  0
  -25.7492   14.4445  -23.3153 N   0  0  0  0  0  0  0  0  0  0  0  0
  -25.8499   15.7999  -23.2661 N   0  0  0  0  0  0  0  0  0  0  0  0
  -29.3433   16.2908  -24.3207 N   0  0  0  0  0  0  0  0  0  0  0  0
  -28.7512   12.1186  -30.0977 N   0  0  0  0  0  0  0  0  0  0  0  0
  -27.1021   17.7967  -23.5359 N   0  0  0  0  0  0  0  0  0  0  0  0
  -29.9690   11.0189  -26.8309 N   0  0  0  0  0  0  0  0  0  0  0  0
  -30.0541   13.1970  -33.0107 N   0  0  0  0  0  0  0  0  0  0  0  0
  -31.8381   17.3783  -25.1341 N   0  3  0  0  0  0  0  0  0  0  0  0
  -28.7415   12.8956  -27.4584 O   0  0  0  0  0  0  0  0  0  0  0  0
  -28.1093   12.6213  -34.1507 O   0  0  0  0  0  0  0  0  0  0  0  0
  -30.9781   12.6969  -30.3302 O   0  0  0  0  0  0  0  0  0  0  0  0
  -24.8636   12.4816  -25.3383 O   0  0  0  0  0  0  0  0  0  0  0  0
  -25.4585   10.7792  -29.9631 O   0  0  0  0  0  0  0  0  0  0  0  0
  -32.8834   12.3210  -26.4323 O   0  0  0  0  0  0  0  0  0  0  0  0
  -34.1178   16.8808  -26.7768 O   0  0  0  0  0  0  0  0  0  0  0  0
  -34.2024   14.3171  -27.8942 O   0  0  0  0  0  0  0  0  0  0  0  0
  -30.5634   13.1728  -36.0824 F   0  0  0  0  0  0  0  0  0  0  0  0
  -36.4093   10.0546  -22.9227 S   0  0  0  0  0  0  0  0  0  0  0  0
  1  2  1  0  0  0  0
  1  3  2  0  0  0  0
  2  6  2  0  0  0  0
  3 11  1  0  0  0  0
  4  5  2  0  0  0  0
  4 10  1  0  0  0  0
  5 12  1  0  0  0  0
  6 14  1  0  0  0  0
  7 10  2  0  0  0  0
  7 15  1  0  0  0  0
  8 13  1  0  0  0  0
  8 16  2  0  0  0  0
  9 47  2  0  0  0  0
  9 65  1  0  0  0  0
 10 17  1  0  0  0  0
 11 14  2  0  0  0  0
 11 16  1  0  0  0  0
 12 15  2  0  0  0  0
 12 38  1  0  0  0  0
 13 19  2  0  0  0  0
 13 50  1  0  0  0  0
 14 59  1  0  0  0  0
 15 61  1  0  0  0  0
 16 48  1  0  0  0  0
 17 18  2  0  0  0  0
 17 65  1  0  0  0  0
 18 34  1  0  0  0  0
 18 47  1  0  0  0  0
 19 49  1  0  0  0  0
 19 52  1  0  0  0  0
 20 31  1  0  0  0  0
 20 53  1  0  0  0  0
 20 56  2  0  0  0  0
 21 33  1  0  0  0  0
 21 54  1  0  0  0  0
 21 57  2  0  0  0  0
 22 45  1  0  0  0  0
 22 51  1  0  0  0  0
 22 58  2  0  0  0  0
 23 24  1  0  0  0  0
 23 33  1  0  0  0  0
 24 33  1  0  0  0  0
 25 31  1  0  0  0  0
 25 32  1  0  0  0  0
 26 29  1  0  0  0  0
 26 50  1  0  0  0  0
 27 30  1  0  0  0  0
 27 50  1  0  0  0  0
 28 32  1  0  0  0  0
 28 51  1  0  0  0  0
 29 55  1  0  0  0  0
 30 55  1  0  0  0  0
 31 51  1  0  0  0  0
 32 60  1  0  0  0  0
 33 64  1  0  0  0  0
 35 46  1  0  0  0  0
 36 46  1  0  0  0  0
 37 46  1  0  0  0  0
 38 53  1  0  0  0  0
 39 40  1  0  0  0  0
 39 55  1  0  0  0  0
 40 62  1  0  0  0  0
 41 42  1  0  0  0  0
 41 61  1  0  0  0  0
 42 63  1  0  0  0  0
 43 44  1  0  0  0  0
 43 62  1  0  0  0  0
 44 63  1  0  0  0  0
 45 46  1  0  0  0  0
 45 54  1  0  0  0  0
 48 49  2  0  0  0  0
M  CHG  1  55   1
M  ISO  4  39 100  41 101  55 100  61 101
M  END
> <Batch ID>
0000

> <Smiles>
Cc1ncsc1-c1ccc(CNC(=O)[C@@H]2C[C@@H](O)CN2C(=O)[C@@H](NC(=O)C2(F)CC2)C(C)(C)C)c([101O][101CH2]COCCOC[100CH2][100N]2CCN(c3cc(-c4ccccc4O)nnc3N)CC2)c1

> <Shape>
0.308

> <Color>
0.163

> <Negative vol penalty>
0.000

$$$$
